# generated using pymatgen
data_Ag
_symmetry_space_group_name_H-M   'P 1'
_cell_length_a   9.64219800
_cell_length_b   5.09960700
_cell_length_c   23.39438000
_cell_angle_alpha   90.00000000
_cell_angle_beta   90.00000000
_cell_angle_gamma   90.00000000
_symmetry_Int_Tables_number   1
_chemical_formula_structural   Ag
_chemical_formula_sum   Ag32
_cell_volume   1150.33489436
_cell_formula_units_Z   32
loop_
 _symmetry_equiv_pos_site_id
 _symmetry_equiv_pos_as_xyz
  1  'x, y, z'
loop_
 _atom_site_type_symbol
 _atom_site_label
 _atom_site_symmetry_multiplicity
 _atom_site_fract_x
 _atom_site_fract_y
 _atom_site_fract_z
 _atom_site_occupancy
  Ag  Ag0  1  0.00000000  0.50000000  0.05900000  1.0
  Ag  Ag1  1  0.00000000  0.00000000  0.00219000  1.0
  Ag  Ag2  1  0.50000000  0.50000000  0.05900000  1.0
  Ag  Ag3  1  0.50000000  0.00000000  0.00219000  1.0
  Ag  Ag4  1  0.25000000  0.32124400  0.00289200  1.0
  Ag  Ag5  1  0.25000000  0.82620500  0.05968300  1.0
  Ag  Ag6  1  0.75000000  0.67875600  0.00289200  1.0
  Ag  Ag7  1  0.75000000  0.17379500  0.05968300  1.0
  Ag  Ag8  1  0.00000000  0.50000000  0.18704200  1.0
  Ag  Ag9  1  0.00000000  0.00000000  0.12491300  1.0
  Ag  Ag10  1  0.50000000  0.50000000  0.18704200  1.0
  Ag  Ag11  1  0.50000000  0.00000000  0.12491300  1.0
  Ag  Ag12  1  0.25000000  0.33727200  0.12525100  1.0
  Ag  Ag13  1  0.25000000  0.83784900  0.18692500  1.0
  Ag  Ag14  1  0.75000000  0.66272800  0.12525100  1.0
  Ag  Ag15  1  0.75000000  0.16215100  0.18692500  1.0
  Ag  Ag16  1  0.00000000  0.50000000  0.31258700  1.0
  Ag  Ag17  1  0.00000000  0.00000000  0.25045800  1.0
  Ag  Ag18  1  0.50000000  0.50000000  0.31258700  1.0
  Ag  Ag19  1  0.50000000  0.00000000  0.25045800  1.0
  Ag  Ag20  1  0.25000000  0.33784900  0.25057500  1.0
  Ag  Ag21  1  0.25000000  0.83727200  0.31224900  1.0
  Ag  Ag22  1  0.75000000  0.66215100  0.25057500  1.0
  Ag  Ag23  1  0.75000000  0.16272800  0.31224900  1.0
  Ag  Ag24  1  0.00000000  0.50000000  0.43531000  1.0
  Ag  Ag25  1  0.00000000  0.00000000  0.37850000  1.0
  Ag  Ag26  1  0.50000000  0.50000000  0.43531000  1.0
  Ag  Ag27  1  0.50000000  0.00000000  0.37850000  1.0
  Ag  Ag28  1  0.25000000  0.32620500  0.37781700  1.0
  Ag  Ag29  1  0.25000000  0.82124400  0.43460800  1.0
  Ag  Ag30  1  0.75000000  0.67379500  0.37781700  1.0
  Ag  Ag31  1  0.75000000  0.17875600  0.43460800  1.0
