# generated using pymatgen
data_Ag
_symmetry_space_group_name_H-M   'P 1'
_cell_length_a   2.93233200
_cell_length_b   10.09720406
_cell_length_c   29.32331600
_cell_angle_alpha   106.88252129
_cell_angle_beta   119.99999770
_cell_angle_gamma   81.65084106
_symmetry_Int_Tables_number   1
_chemical_formula_structural   Ag
_chemical_formula_sum   Ag19
_cell_volume   719.49131864
_cell_formula_units_Z   19
loop_
 _symmetry_equiv_pos_site_id
 _symmetry_equiv_pos_as_xyz
  1  'x, y, z'
loop_
 _atom_site_type_symbol
 _atom_site_label
 _atom_site_symmetry_multiplicity
 _atom_site_fract_x
 _atom_site_fract_y
 _atom_site_fract_z
 _atom_site_occupancy
  Ag  Ag0  1  0.00012000  0.00003600  0.07086000  1.0
  Ag  Ag1  1  0.67513100  0.75588200  0.08144700  1.0
  Ag  Ag2  1  0.34884400  0.24821600  0.06542300  1.0
  Ag  Ag3  1  0.00273500  0.00119200  0.17150000  1.0
  Ag  Ag4  1  0.97971800  0.50003800  0.11678000  1.0
  Ag  Ag5  1  0.66719100  0.74640800  0.17891300  1.0
  Ag  Ag6  1  0.33565800  0.25205700  0.16317100  1.0
  Ag  Ag7  1  0.99999700  0.00000000  0.27083300  1.0
  Ag  Ag8  1  0.99646200  0.50030700  0.22015700  1.0
  Ag  Ag9  1  0.66738800  0.74969900  0.27928100  1.0
  Ag  Ag10  1  0.33260900  0.25030100  0.26238600  1.0
  Ag  Ag11  1  0.99726100  0.99880800  0.37016600  1.0
  Ag  Ag12  1  0.00353300  0.49969300  0.32150900  1.0
  Ag  Ag13  1  0.66434000  0.74794300  0.37849600  1.0
  Ag  Ag14  1  0.33280900  0.25359200  0.36275400  1.0
  Ag  Ag15  1  0.99988300  0.99996400  0.47080600  1.0
  Ag  Ag16  1  0.02028200  0.49996200  0.42488600  1.0
  Ag  Ag17  1  0.65116000  0.75178400  0.47624400  1.0
  Ag  Ag18  1  0.32487600  0.24411800  0.46022000  1.0
