# generated using pymatgen
data_Ag
_symmetry_space_group_name_H-M   'P 1'
_cell_length_a   2.92392806
_cell_length_b   19.51461713
_cell_length_c   20.41298612
_cell_angle_alpha   97.51319389
_cell_angle_beta   90.00000377
_cell_angle_gamma   85.70358319
_symmetry_Int_Tables_number   1
_chemical_formula_structural   Ag
_chemical_formula_sum   Ag31
_cell_volume   1151.45021155
_cell_formula_units_Z   31
loop_
 _symmetry_equiv_pos_site_id
 _symmetry_equiv_pos_as_xyz
  1  'x, y, z'
loop_
 _atom_site_type_symbol
 _atom_site_label
 _atom_site_symmetry_multiplicity
 _atom_site_fract_x
 _atom_site_fract_y
 _atom_site_fract_z
 _atom_site_occupancy
  Ag  Ag0  1  0.99977600  0.00044800  0.22067900  1.0
  Ag  Ag1  1  0.74976700  0.50046600  0.03520900  1.0
  Ag  Ag2  1  0.50034600  0.99930700  0.09605600  1.0
  Ag  Ag3  1  0.25005400  0.49989300  0.16069400  1.0
  Ag  Ag4  1  0.62464500  0.75071100  0.06573600  1.0
  Ag  Ag5  1  0.37525500  0.24948900  0.12251000  1.0
  Ag  Ag6  1  0.12439600  0.75120800  0.19043700  1.0
  Ag  Ag7  1  0.31113300  0.37773400  0.06307000  1.0
  Ag  Ag8  1  0.06232000  0.87536000  0.12008500  1.0
  Ag  Ag9  1  0.81375200  0.37249700  0.18547500  1.0
  Ag  Ag10  1  0.56232100  0.87535700  0.24676200  1.0
  Ag  Ag11  1  0.93827400  0.12345100  0.07359500  1.0
  Ag  Ag12  1  0.68729500  0.62541000  0.13522300  1.0
  Ag  Ag13  1  0.43697000  0.12606000  0.19551600  1.0
  Ag  Ag14  1  0.18718700  0.62562600  0.01375100  1.0
  Ag  Ag15  1  0.00023300  0.99953400  0.46996700  1.0
  Ag  Ag16  1  0.75022400  0.49955200  0.28449700  1.0
  Ag  Ag17  1  0.49994600  0.00010700  0.34448200  1.0
  Ag  Ag18  1  0.24965400  0.50069300  0.40912000  1.0
  Ag  Ag19  1  0.87500000  0.25000000  0.25258800  1.0
  Ag  Ag20  1  0.62560400  0.74879200  0.31473900  1.0
  Ag  Ag21  1  0.37474500  0.25051100  0.38266600  1.0
  Ag  Ag22  1  0.12535500  0.74928900  0.43944000  1.0
  Ag  Ag23  1  0.31303000  0.37394000  0.30966100  1.0
  Ag  Ag24  1  0.06270500  0.87459000  0.36995400  1.0
  Ag  Ag25  1  0.81172600  0.37654900  0.43158200  1.0
  Ag  Ag26  1  0.56281300  0.87437400  0.49142600  1.0
  Ag  Ag27  1  0.93624800  0.12750300  0.31970200  1.0
  Ag  Ag28  1  0.68768000  0.62464000  0.38509200  1.0
  Ag  Ag29  1  0.43886700  0.12226600  0.44210700  1.0
  Ag  Ag30  1  0.18767900  0.62464300  0.25841500  1.0
