# generated using pymatgen
data_Ag
_symmetry_space_group_name_H-M   'P 1'
_cell_length_a   7.78599389
_cell_length_b   10.07132467
_cell_length_c   23.23459648
_cell_angle_alpha   93.14214011
_cell_angle_beta   98.38856487
_cell_angle_gamma   105.84021925
_symmetry_Int_Tables_number   1
_chemical_formula_structural   Ag
_chemical_formula_sum   Ag47
_cell_volume   1725.41650709
_cell_formula_units_Z   47
loop_
 _symmetry_equiv_pos_site_id
 _symmetry_equiv_pos_as_xyz
  1  'x, y, z'
loop_
 _atom_site_type_symbol
 _atom_site_label
 _atom_site_symmetry_multiplicity
 _atom_site_fract_x
 _atom_site_fract_y
 _atom_site_fract_z
 _atom_site_occupancy
  Ag  Ag0  1  0.11109000  0.00188300  0.11384400  1.0
  Ag  Ag1  1  0.37056900  0.99912000  0.03664700  1.0
  Ag  Ag2  1  0.74008900  0.99918200  0.07356300  1.0
  Ag  Ag3  1  0.55793300  0.50013400  0.05651400  1.0
  Ag  Ag4  1  0.92892700  0.50085500  0.09215000  1.0
  Ag  Ag5  1  0.44413900  0.74886400  0.07760900  1.0
  Ag  Ag6  1  0.81265100  0.75050800  0.11709500  1.0
  Ag  Ag7  1  0.07789100  0.75384700  0.04159600  1.0
  Ag  Ag8  1  0.03699800  0.24992300  0.07252300  1.0
  Ag  Ag9  1  0.40839500  0.25056600  0.11088700  1.0
  Ag  Ag10  1  0.66431900  0.24897400  0.03505800  1.0
  Ag  Ag11  1  0.24018900  0.99996600  0.24115800  1.0
  Ag  Ag12  1  0.48996700  0.00022100  0.15878900  1.0
  Ag  Ag13  1  0.86601900  0.99850600  0.19911000  1.0
  Ag  Ag14  1  0.29873900  0.50043500  0.13353600  1.0
  Ag  Ag15  1  0.67787500  0.50020800  0.17895000  1.0
  Ag  Ag16  1  0.05387000  0.50013000  0.22011400  1.0
  Ag  Ag17  1  0.56277400  0.74865300  0.20299100  1.0
  Ag  Ag18  1  0.93661200  0.74993000  0.24486100  1.0
  Ag  Ag19  1  0.18727000  0.74869400  0.16229400  1.0
  Ag  Ag20  1  0.17045800  0.25061700  0.19603200  1.0
  Ag  Ag21  1  0.54415100  0.24997000  0.23763900  1.0
  Ag  Ag22  1  0.79275600  0.25097600  0.15578300  1.0
  Ag  Ag23  1  0.36766100  0.99977900  0.36550600  1.0
  Ag  Ag24  1  0.61743900  0.00003400  0.28313700  1.0
  Ag  Ag25  1  0.99160900  0.00149400  0.32518400  1.0
  Ag  Ag26  1  0.42881400  0.50000000  0.26214700  1.0
  Ag  Ag27  1  0.80375800  0.49987000  0.30418100  1.0
  Ag  Ag28  1  0.17975300  0.49979200  0.34534500  1.0
  Ag  Ag29  1  0.68716900  0.74938300  0.32826300  1.0
  Ag  Ag30  1  0.06487200  0.74902400  0.36851200  1.0
  Ag  Ag31  1  0.31347800  0.75003000  0.28665600  1.0
  Ag  Ag32  1  0.29485300  0.25134700  0.32130400  1.0
  Ag  Ag33  1  0.67035900  0.25130600  0.36200100  1.0
  Ag  Ag34  1  0.92101600  0.25007000  0.27943400  1.0
  Ag  Ag35  1  0.48705900  0.00088000  0.48764800  1.0
  Ag  Ag36  1  0.74653800  0.99811700  0.41045100  1.0
  Ag  Ag37  1  0.11753900  0.00081800  0.45073100  1.0
  Ag  Ag38  1  0.55889000  0.49956500  0.39075800  1.0
  Ag  Ag39  1  0.92870100  0.49914500  0.43214500  1.0
  Ag  Ag40  1  0.29969500  0.49986600  0.46778200  1.0
  Ag  Ag41  1  0.82062900  0.75007700  0.45177200  1.0
  Ag  Ag42  1  0.19330900  0.75102600  0.48923700  1.0
  Ag  Ag43  1  0.44923400  0.74943400  0.41340800  1.0
  Ag  Ag44  1  0.41348800  0.25113600  0.44668600  1.0
  Ag  Ag45  1  0.77973800  0.24615300  0.48269900  1.0
  Ag  Ag46  1  0.04497700  0.24949200  0.40720000  1.0
