# generated using pymatgen
data_Ag
_symmetry_space_group_name_H-M   'P 1'
_cell_length_a   5.11297000
_cell_length_b   10.08679223
_cell_length_c   23.33996900
_cell_angle_alpha   98.31525825
_cell_angle_beta   90.00000000
_cell_angle_gamma   75.31831358
_symmetry_Int_Tables_number   1
_chemical_formula_structural   Ag
_chemical_formula_sum   Ag29
_cell_volume   1151.33384406
_cell_formula_units_Z   29
loop_
 _symmetry_equiv_pos_site_id
 _symmetry_equiv_pos_as_xyz
  1  'x, y, z'
loop_
 _atom_site_type_symbol
 _atom_site_label
 _atom_site_symmetry_multiplicity
 _atom_site_fract_x
 _atom_site_fract_y
 _atom_site_fract_z
 _atom_site_occupancy
  Ag  Ag0  1  0.00070800  0.99940800  0.11520200  1.0
  Ag  Ag1  1  0.49944300  0.00422700  0.06023700  1.0
  Ag  Ag2  1  0.24330400  0.50054400  0.08858900  1.0
  Ag  Ag3  1  0.79275100  0.75155000  0.10189400  1.0
  Ag  Ag4  1  0.69407300  0.25137500  0.07455500  1.0
  Ag  Ag5  1  0.99882400  0.99956200  0.24214000  1.0
  Ag  Ag6  1  0.49632200  0.99971400  0.18011600  1.0
  Ag  Ag7  1  0.74536600  0.50165000  0.14541900  1.0
  Ag  Ag8  1  0.24828200  0.49979500  0.21105500  1.0
  Ag  Ag9  1  0.78882000  0.74900000  0.22554900  1.0
  Ag  Ag10  1  0.29044900  0.75078100  0.16089300  1.0
  Ag  Ag11  1  0.70821400  0.25079500  0.19688400  1.0
  Ag  Ag12  1  0.19640200  0.25142500  0.13142100  1.0
  Ag  Ag13  1  0.00367800  0.00028600  0.36676000  1.0
  Ag  Ag14  1  0.50117600  0.00043800  0.30473600  1.0
  Ag  Ag15  1  0.75000000  0.50000000  0.27343800  1.0
  Ag  Ag16  1  0.25171800  0.50020500  0.33582100  1.0
  Ag  Ag17  1  0.79178600  0.74920500  0.34999000  1.0
  Ag  Ag18  1  0.28939600  0.74978100  0.28823600  1.0
  Ag  Ag19  1  0.71118000  0.25100000  0.32132500  1.0
  Ag  Ag20  1  0.21060400  0.25021900  0.25863800  1.0
  Ag  Ag21  1  0.00055700  0.99577300  0.48663900  1.0
  Ag  Ag22  1  0.49929200  0.00059200  0.43167400  1.0
  Ag  Ag23  1  0.75463400  0.49835000  0.40145700  1.0
  Ag  Ag24  1  0.25669600  0.49945600  0.45828700  1.0
  Ag  Ag25  1  0.80592700  0.74862500  0.47231900  1.0
  Ag  Ag26  1  0.30359800  0.74857500  0.41545300  1.0
  Ag  Ag27  1  0.70724900  0.24845000  0.44498000  1.0
  Ag  Ag28  1  0.20955100  0.24921900  0.38598100  1.0
