# generated using pymatgen
data_Bi
_symmetry_space_group_name_H-M   'P 1'
_cell_length_a   4.58438896
_cell_length_b   4.82779787
_cell_length_c   22.66192811
_cell_angle_alpha   92.40027479
_cell_angle_beta   89.99998977
_cell_angle_gamma   118.34573153
_symmetry_Int_Tables_number   1
_chemical_formula_structural   Bi
_chemical_formula_sum   Bi6
_cell_volume   440.92679201
_cell_formula_units_Z   6
loop_
 _symmetry_equiv_pos_site_id
 _symmetry_equiv_pos_as_xyz
  1  'x, y, z'
loop_
 _atom_site_type_symbol
 _atom_site_label
 _atom_site_symmetry_multiplicity
 _atom_site_fract_x
 _atom_site_fract_y
 _atom_site_fract_z
 _atom_site_occupancy
  Bi  Bi0  1  0.99987200  0.99974400  0.88934200  1.0
  Bi  Bi1  1  0.33822100  0.67644100  0.95830700  1.0
  Bi  Bi2  1  0.33090700  0.66181400  0.71584900  1.0
  Bi  Bi3  1  0.66909300  0.33818600  0.78415100  1.0
  Bi  Bi4  1  0.66177900  0.32355900  0.54169300  1.0
  Bi  Bi5  1  0.00012800  0.00025600  0.61065800  1.0
