# generated using pymatgen
data_Bi
_symmetry_space_group_name_H-M   'P 1'
_cell_length_a   4.84142041
_cell_length_b   6.65943848
_cell_length_c   27.49769100
_cell_angle_alpha   90.00000000
_cell_angle_beta   90.00000000
_cell_angle_gamma   94.35707481
_symmetry_Int_Tables_number   1
_chemical_formula_structural   Bi
_chemical_formula_sum   Bi12
_cell_volume   883.99474847
_cell_formula_units_Z   12
loop_
 _symmetry_equiv_pos_site_id
 _symmetry_equiv_pos_as_xyz
  1  'x, y, z'
loop_
 _atom_site_type_symbol
 _atom_site_label
 _atom_site_symmetry_multiplicity
 _atom_site_fract_x
 _atom_site_fract_y
 _atom_site_fract_z
 _atom_site_occupancy
  Bi  Bi0  1  0.45899900  0.76696900  0.11633100  1.0
  Bi  Bi1  1  0.03024700  0.27356000  0.04508400  1.0
  Bi  Bi2  1  0.54100100  0.23303100  0.11633100  1.0
  Bi  Bi3  1  0.96975300  0.72644000  0.04508400  1.0
  Bi  Bi4  1  0.48982800  0.76968500  0.28649800  1.0
  Bi  Bi5  1  0.98982800  0.26968500  0.21350200  1.0
  Bi  Bi6  1  0.51017200  0.23031500  0.28649800  1.0
  Bi  Bi7  1  0.01017200  0.73031500  0.21350200  1.0
  Bi  Bi8  1  0.53024700  0.77356000  0.45491600  1.0
  Bi  Bi9  1  0.95899900  0.26696900  0.38366900  1.0
  Bi  Bi10  1  0.46975300  0.22644000  0.45491600  1.0
  Bi  Bi11  1  0.04100100  0.73303100  0.38366900  1.0
