# generated using pymatgen
data_Bi
_symmetry_space_group_name_H-M   'P 1'
_cell_length_a   7.93039467
_cell_length_b   12.98667337
_cell_length_c   27.50612264
_cell_angle_alpha   110.67119219
_cell_angle_beta   90.00000524
_cell_angle_gamma   89.96650262
_symmetry_Int_Tables_number   1
_chemical_formula_structural   Bi
_chemical_formula_sum   Bi36
_cell_volume   2650.46617187
_cell_formula_units_Z   36
loop_
 _symmetry_equiv_pos_site_id
 _symmetry_equiv_pos_as_xyz
  1  'x, y, z'
loop_
 _atom_site_type_symbol
 _atom_site_label
 _atom_site_symmetry_multiplicity
 _atom_site_fract_x
 _atom_site_fract_y
 _atom_site_fract_z
 _atom_site_occupancy
  Bi  Bi0  1  0.23552400  0.92057000  0.30284500  1.0
  Bi  Bi1  1  0.70102600  0.90230400  0.39426700  1.0
  Bi  Bi2  1  0.36909400  0.09566800  0.26097000  1.0
  Bi  Bi3  1  0.82891800  0.09165900  0.33710100  1.0
  Bi  Bi4  1  0.38739200  0.59913700  0.33058100  1.0
  Bi  Bi5  1  0.86982900  0.56642100  0.40823500  1.0
  Bi  Bi6  1  0.99916600  0.74386500  0.36234900  1.0
  Bi  Bi7  1  0.54317800  0.77119700  0.28735700  1.0
  Bi  Bi8  1  0.04072500  0.21512000  0.27989200  1.0
  Bi  Bi9  1  0.55256800  0.27295700  0.35716600  1.0
  Bi  Bi10  1  0.16494200  0.40024800  0.38457400  1.0
  Bi  Bi11  1  0.69298500  0.43785500  0.30688900  1.0
  Bi  Bi12  1  0.17738100  0.89365200  0.46066900  1.0
  Bi  Bi13  1  0.67665100  0.92534500  0.55786400  1.0
  Bi  Bi14  1  0.32280000  0.06889200  0.41603600  1.0
  Bi  Bi15  1  0.82524100  0.10485600  0.50823500  1.0
  Bi  Bi16  1  0.34142700  0.56180700  0.49176600  1.0
  Bi  Bi17  1  0.84386600  0.59777600  0.58396200  1.0
  Bi  Bi18  1  0.98929200  0.77301800  0.53933200  1.0
  Bi  Bi19  1  0.49001200  0.74132000  0.44213500  1.0
  Bi  Bi20  1  0.01922900  0.22811600  0.43637700  1.0
  Bi  Bi21  1  0.51375700  0.24373400  0.52108500  1.0
  Bi  Bi22  1  0.14743800  0.43854900  0.56361900  1.0
  Bi  Bi23  1  0.65291000  0.42292500  0.47891200  1.0
  Bi  Bi24  1  0.16750000  0.92280100  0.63765200  1.0
  Bi  Bi25  1  0.62349600  0.89547200  0.71264400  1.0
  Bi  Bi26  1  0.29683500  0.10024800  0.59176600  1.0
  Bi  Bi27  1  0.77927300  0.06753800  0.66942000  1.0
  Bi  Bi28  1  0.33774800  0.57500900  0.66290200  1.0
  Bi  Bi29  1  0.79757000  0.57099700  0.73903000  1.0
  Bi  Bi30  1  0.93113800  0.74609100  0.69715200  1.0
  Bi  Bi31  1  0.46564300  0.76436000  0.60573500  1.0
  Bi  Bi32  1  0.00172500  0.26642100  0.61542700  1.0
  Bi  Bi33  1  0.47369000  0.22881700  0.69311200  1.0
  Bi  Bi34  1  0.12593500  0.45154500  0.72011100  1.0
  Bi  Bi35  1  0.61409900  0.39371000  0.64283100  1.0
