# generated using pymatgen
data_Bi
_symmetry_space_group_name_H-M   'P 1'
_cell_length_a   7.92696507
_cell_length_b   12.99889989
_cell_length_c   27.50904550
_cell_angle_alpha   100.19525369
_cell_angle_beta   89.96107772
_cell_angle_gamma   72.21034304
_symmetry_Int_Tables_number   1
_chemical_formula_structural   Bi
_chemical_formula_sum   Bi36
_cell_volume   2651.88974691
_cell_formula_units_Z   36
loop_
 _symmetry_equiv_pos_site_id
 _symmetry_equiv_pos_as_xyz
  1  'x, y, z'
loop_
 _atom_site_type_symbol
 _atom_site_label
 _atom_site_symmetry_multiplicity
 _atom_site_fract_x
 _atom_site_fract_y
 _atom_site_fract_z
 _atom_site_occupancy
  Bi  Bi0  1  0.75874100  0.12712000  0.32186200  1.0
  Bi  Bi1  1  0.26292200  0.08479700  0.40354700  1.0
  Bi  Bi2  1  0.69631200  0.92667100  0.40671200  1.0
  Bi  Bi3  1  0.20204200  0.91894700  0.31363900  1.0
  Bi  Bi4  1  0.91868600  0.46178500  0.35085700  1.0
  Bi  Bi5  1  0.42820900  0.47096300  0.31062200  1.0
  Bi  Bi6  1  0.79249000  0.30269000  0.26762800  1.0
  Bi  Bi7  1  0.34752600  0.22721100  0.33413200  1.0
  Bi  Bi8  1  0.61288700  0.80832000  0.30196100  1.0
  Bi  Bi9  1  0.09954700  0.77367500  0.37860900  1.0
  Bi  Bi10  1  0.55650300  0.65807400  0.37079900  1.0
  Bi  Bi11  1  0.02836900  0.60720500  0.29038800  1.0
  Bi  Bi12  1  0.78325400  0.10494100  0.49371000  1.0
  Bi  Bi13  1  0.30217800  0.08713600  0.57610200  1.0
  Bi  Bi14  1  0.74405100  0.92682600  0.58495100  1.0
  Bi  Bi15  1  0.21908200  0.90953300  0.48715600  1.0
  Bi  Bi16  1  0.94757400  0.42380900  0.51284400  1.0
  Bi  Bi17  1  0.42262700  0.40651100  0.41504700  1.0
  Bi  Bi18  1  0.86449700  0.24619400  0.42390000  1.0
  Bi  Bi19  1  0.38340400  0.22839500  0.50629300  1.0
  Bi  Bi20  1  0.62303800  0.78491400  0.47993000  1.0
  Bi  Bi21  1  0.12094300  0.75727100  0.54575100  1.0
  Bi  Bi22  1  0.54361200  0.54840300  0.52007000  1.0
  Bi  Bi23  1  0.04573800  0.57606200  0.45424900  1.0
  Bi  Bi24  1  0.81915900  0.10612100  0.66586900  1.0
  Bi  Bi25  1  0.37416900  0.03065100  0.73237300  1.0
  Bi  Bi26  1  0.73844900  0.86237700  0.68938000  1.0
  Bi  Bi27  1  0.24798000  0.87155300  0.64914100  1.0
  Bi  Bi28  1  0.96462100  0.41439000  0.68636100  1.0
  Bi  Bi29  1  0.47035700  0.40665600  0.59329200  1.0
  Bi  Bi30  1  0.90374700  0.24853600  0.59645500  1.0
  Bi  Bi31  1  0.40793900  0.20620100  0.67813500  1.0
  Bi  Bi32  1  0.61017500  0.67526300  0.62920200  1.0
  Bi  Bi33  1  0.13828000  0.72613400  0.70961000  1.0
  Bi  Bi34  1  0.55377700  0.52502600  0.69803900  1.0
  Bi  Bi35  1  0.06711300  0.55963800  0.62138200  1.0
