# generated using pymatgen
data_Li
_symmetry_space_group_name_H-M   'P 1'
_cell_length_a   10.84695208
_cell_length_b   12.39423435
_cell_length_c   25.73452582
_cell_angle_alpha   90.07737457
_cell_angle_beta   90.06161339
_cell_angle_gamma   79.86230701
_symmetry_Int_Tables_number   1
_chemical_formula_structural   Li
_chemical_formula_sum   Li84
_cell_volume   3405.72185422
_cell_formula_units_Z   84
loop_
 _symmetry_equiv_pos_site_id
 _symmetry_equiv_pos_as_xyz
  1  'x, y, z'
loop_
 _atom_site_type_symbol
 _atom_site_label
 _atom_site_symmetry_multiplicity
 _atom_site_fract_x
 _atom_site_fract_y
 _atom_site_fract_z
 _atom_site_occupancy
  Li  Li0  1  0.33970900  0.32220800  0.99436700  1.0
  Li  Li1  1  0.02906600  0.36294600  0.96085300  1.0
  Li  Li2  1  0.65629000  0.02672200  0.95539000  1.0
  Li  Li3  1  0.37145600  0.08987200  0.92915000  1.0
  Li  Li4  1  0.07805000  0.15179500  0.89076200  1.0
  Li  Li5  1  0.61390800  0.63521600  0.50741700  1.0
  Li  Li6  1  0.33548500  0.72217200  0.95590300  1.0
  Li  Li7  1  0.04700200  0.74991500  0.91464200  1.0
  Li  Li8  1  0.73430800  0.41305400  0.92618800  1.0
  Li  Li9  1  0.40316300  0.47985200  0.90041000  1.0
  Li  Li10  1  0.07739300  0.52402300  0.86593500  1.0
  Li  Li11  1  0.76332700  0.18718100  0.85515400  1.0
  Li  Li12  1  0.45244900  0.23833400  0.81981700  1.0
  Li  Li13  1  0.14435100  0.28380400  0.78594200  1.0
  Li  Li14  1  0.19763300  0.04387300  0.70858000  1.0
  Li  Li15  1  0.97668900  0.97879500  0.50457100  1.0
  Li  Li16  1  0.75121500  0.81421200  0.89271400  1.0
  Li  Li17  1  0.42509700  0.85976700  0.87171200  1.0
  Li  Li18  1  0.12022700  0.90448100  0.82450600  1.0
  Li  Li19  1  0.79021600  0.57179700  0.82752200  1.0
  Li  Li20  1  0.47732700  0.61662500  0.78606700  1.0
  Li  Li21  1  0.16356800  0.66644500  0.74319700  1.0
  Li  Li22  1  0.83257400  0.33206000  0.75189100  1.0
  Li  Li23  1  0.51770500  0.38558300  0.71547500  1.0
  Li  Li24  1  0.21303100  0.43078100  0.68050000  1.0
  Li  Li25  1  0.88519300  0.09333100  0.67694500  1.0
  Li  Li26  1  0.56975100  0.15028800  0.64431500  1.0
  Li  Li27  1  0.25393900  0.18585700  0.60989500  1.0
  Li  Li28  1  0.80503600  0.95263800  0.78228700  1.0
  Li  Li29  1  0.49796300  0.00053200  0.74451600  1.0
  Li  Li30  1  0.85897700  0.71332400  0.70821100  1.0
  Li  Li31  1  0.55015300  0.76101900  0.68676900  1.0
  Li  Li32  1  0.23983900  0.81796200  0.64890800  1.0
  Li  Li33  1  0.91202500  0.47548300  0.64983200  1.0
  Li  Li34  1  0.59897400  0.51935600  0.60966500  1.0
  Li  Li35  1  0.33249500  0.55876800  0.56181200  1.0
  Li  Li36  1  0.94595400  0.23776700  0.57554100  1.0
  Li  Li37  1  0.64072400  0.32642100  0.53672400  1.0
  Li  Li38  1  0.92496400  0.86391800  0.60517200  1.0
  Li  Li39  1  0.64418900  0.89071900  0.55408100  1.0
  Li  Li40  1  0.31566900  0.95234800  0.53182400  1.0
  Li  Li41  1  0.91251400  0.70264200  0.52165300  1.0
  Li  Li42  1  0.24606000  0.31414100  0.89010500  1.0
  Li  Li43  1  0.93024900  0.34971400  0.85568600  1.0
  Li  Li44  1  0.58797600  0.02451500  0.85016700  1.0
  Li  Li45  1  0.28696900  0.06922100  0.81950000  1.0
  Li  Li46  1  0.98229500  0.11441600  0.78452500  1.0
  Li  Li47  1  0.57503400  0.63608400  0.89483000  1.0
  Li  Li48  1  0.26016600  0.68203400  0.85109000  1.0
  Li  Li49  1  0.94984500  0.73898300  0.81323000  1.0
  Li  Li50  1  0.61480900  0.40666700  0.82305600  1.0
  Li  Li51  1  0.30236800  0.45612900  0.79142100  1.0
  Li  Li52  1  0.00203500  0.49947100  0.75548400  1.0
  Li  Li53  1  0.66742700  0.16794100  0.74810900  1.0
  Li  Li54  1  0.35564800  0.21619700  0.71405900  1.0
  Li  Li55  1  0.04755400  0.26166500  0.68018400  1.0
  Li  Li56  1  0.09683700  0.02014600  0.59958800  1.0
  Li  Li57  1  0.90102700  0.98064100  0.89033400  1.0
  Li  Li58  1  0.64102600  0.78667900  0.79179100  1.0
  Li  Li59  1  0.33643200  0.83355500  0.75680500  1.0
  Li  Li60  1  0.02267000  0.88337800  0.71393600  1.0
  Li  Li61  1  0.69496800  0.54736100  0.71771300  1.0
  Li  Li62  1  0.37977500  0.59552100  0.67549500  1.0
  Li  Li63  1  0.07490000  0.64023300  0.62828800  1.0
  Li  Li64  1  0.73667100  0.31282200  0.64484600  1.0
  Li  Li65  1  0.42195100  0.34820400  0.60923700  1.0
  Li  Li66  1  0.12854700  0.41012400  0.57084900  1.0
  Li  Li67  1  0.76569000  0.08694700  0.57381100  1.0
  Li  Li68  1  0.47093300  0.13705500  0.53914500  1.0
  Li  Li69  1  0.16028800  0.17778700  0.50563300  1.0
  Li  Li70  1  0.70978300  0.92820600  0.67247900  1.0
  Li  Li71  1  0.42260500  0.97597500  0.63406500  1.0
  Li  Li72  1  0.74878600  0.68578700  0.60728600  1.0
  Li  Li73  1  0.45299300  0.75008900  0.58536100  1.0
  Li  Li74  1  0.16451700  0.77782800  0.54409600  1.0
  Li  Li75  1  0.84371000  0.47327900  0.54460800  1.0
  Li  Li76  1  0.52330800  0.52120200  0.99542800  1.0
  Li  Li77  1  0.18433400  0.54764800  0.96817400  1.0
  Li  Li78  1  0.85927600  0.17358000  0.96327500  1.0
  Li  Li79  1  0.55404700  0.26223100  0.92445900  1.0
  Li  Li80  1  0.88609100  0.86478700  0.99258100  1.0
  Li  Li81  1  0.58748500  0.79736100  0.97834600  1.0
  Li  Li82  1  0.16750500  0.94123000  0.93818900  1.0
  Li  Li83  1  0.85581300  0.60928100  0.94592000  1.0
