# generated using pymatgen
data_Bi
_symmetry_space_group_name_H-M   'P 1'
_cell_length_a   12.14344825
_cell_length_b   12.11251703
_cell_length_c   27.51447857
_cell_angle_alpha   79.17661699
_cell_angle_beta   89.92205764
_cell_angle_gamma   90.01701980
_symmetry_Int_Tables_number   1
_chemical_formula_structural   Bi
_chemical_formula_sum   Bi54
_cell_volume   3975.04365737
_cell_formula_units_Z   54
loop_
 _symmetry_equiv_pos_site_id
 _symmetry_equiv_pos_as_xyz
  1  'x, y, z'
loop_
 _atom_site_type_symbol
 _atom_site_label
 _atom_site_symmetry_multiplicity
 _atom_site_fract_x
 _atom_site_fract_y
 _atom_site_fract_z
 _atom_site_occupancy
  Bi  Bi0  1  0.90886300  0.70538000  0.00568200  1.0
  Bi  Bi1  1  0.85639700  0.43341200  0.11976500  1.0
  Bi  Bi2  1  0.89441700  0.12491700  0.07396300  1.0
  Bi  Bi3  1  0.07890300  0.55524900  0.07298200  1.0
  Bi  Bi4  1  0.08813300  0.21349500  0.13363600  1.0
  Bi  Bi5  1  0.00807400  0.87411700  0.06202100  1.0
  Bi  Bi6  1  0.53597700  0.58407600  0.02867100  1.0
  Bi  Bi7  1  0.55442100  0.24104200  0.12755200  1.0
  Bi  Bi8  1  0.56376500  0.90429900  0.09373800  1.0
  Bi  Bi9  1  0.73283500  0.66172800  0.08923400  1.0
  Bi  Bi10  1  0.73305400  0.32190100  0.04608500  1.0
  Bi  Bi11  1  0.76115000  0.00542100  0.16552900  1.0
  Bi  Bi12  1  0.23017000  0.76144900  0.10619200  1.0
  Bi  Bi13  1  0.21496500  0.35957400  0.04674000  1.0
  Bi  Bi14  1  0.24756700  0.00414900  0.14577800  1.0
  Bi  Bi15  1  0.41099800  0.80091100  0.02359200  1.0
  Bi  Bi16  1  0.39329200  0.44715300  0.11183500  1.0
  Bi  Bi17  1  0.41888700  0.10893400  0.06419000  1.0
  Bi  Bi18  1  0.89180700  0.78924000  0.16793400  1.0
  Bi  Bi19  1  0.91100400  0.46437700  0.27490700  1.0
  Bi  Bi20  1  0.92246400  0.11958300  0.24152900  1.0
  Bi  Bi21  1  0.10976200  0.56502500  0.19801700  1.0
  Bi  Bi22  1  0.09936300  0.21896400  0.30568600  1.0
  Bi  Bi23  1  0.08685800  0.87621000  0.23915600  1.0
  Bi  Bi24  1  0.56731800  0.55875300  0.19443000  1.0
  Bi  Bi25  1  0.55687600  0.21281000  0.30191800  1.0
  Bi  Bi26  1  0.57980500  0.90172000  0.26075100  1.0
  Bi  Bi27  1  0.74418500  0.65813300  0.25855100  1.0
  Bi  Bi28  1  0.75570100  0.31338500  0.22499900  1.0
  Bi  Bi29  1  0.77487100  0.98844600  0.33210600  1.0
  Bi  Bi30  1  0.24211900  0.68041000  0.27225800  1.0
  Bi  Bi31  1  0.24089100  0.34391400  0.21816500  1.0
  Bi  Bi32  1  0.22740300  0.00037500  0.30960400  1.0
  Bi  Bi33  1  0.43923900  0.77745400  0.19033500  1.0
  Bi  Bi34  1  0.42579900  0.43403600  0.28198600  1.0
  Bi  Bi35  1  0.42442900  0.09746400  0.22768000  1.0
  Bi  Bi36  1  0.90554600  0.77227400  0.33451400  1.0
  Bi  Bi37  1  0.93346500  0.45569000  0.45379000  1.0
  Bi  Bi38  1  0.93381600  0.11593400  0.41082900  1.0
  Bi  Bi39  1  0.11228000  0.53652700  0.37238300  1.0
  Bi  Bi40  1  0.13070200  0.19362600  0.47136400  1.0
  Bi  Bi41  1  0.10290700  0.87350400  0.40620500  1.0
  Bi  Bi42  1  0.57851000  0.56438900  0.36643600  1.0
  Bi  Bi43  1  0.58770700  0.22259900  0.42705500  1.0
  Bi  Bi44  1  0.65859700  0.90375400  0.43803200  1.0
  Bi  Bi45  1  0.77225500  0.65287200  0.42606400  1.0
  Bi  Bi46  1  0.81017900  0.34423100  0.38011500  1.0
  Bi  Bi47  1  0.75776000  0.07253400  0.49440100  1.0
  Bi  Bi48  1  0.24768500  0.66885100  0.43570000  1.0
  Bi  Bi49  1  0.27360800  0.33059300  0.38832000  1.0
  Bi  Bi50  1  0.25571700  0.97684500  0.47634900  1.0
  Bi  Bi51  1  0.41900500  0.77370800  0.35409300  1.0
  Bi  Bi52  1  0.45195200  0.41825700  0.45341700  1.0
  Bi  Bi53  1  0.43654800  0.01630700  0.39376800  1.0
