# generated using pymatgen
data_Bi
_symmetry_space_group_name_H-M   'P 1'
_cell_length_a   4.58129224
_cell_length_b   24.74532504
_cell_length_c   31.71597693
_cell_angle_alpha   99.14358590
_cell_angle_beta   90.00529642
_cell_angle_gamma   84.71676947
_symmetry_Int_Tables_number   1
_chemical_formula_structural   Bi
_chemical_formula_sum   Bi48
_cell_volume   3534.34508502
_cell_formula_units_Z   48
loop_
 _symmetry_equiv_pos_site_id
 _symmetry_equiv_pos_as_xyz
  1  'x, y, z'
loop_
 _atom_site_type_symbol
 _atom_site_label
 _atom_site_symmetry_multiplicity
 _atom_site_fract_x
 _atom_site_fract_y
 _atom_site_fract_z
 _atom_site_occupancy
  Bi  Bi0  1  0.96756600  0.06319900  0.36444000  1.0
  Bi  Bi1  1  0.72491500  0.54969800  0.40413600  1.0
  Bi  Bi2  1  0.47971200  0.03972500  0.46555700  1.0
  Bi  Bi3  1  0.21593600  0.56569400  0.26965500  1.0
  Bi  Bi4  1  0.26024900  0.47774900  0.32850100  1.0
  Bi  Bi5  1  0.02800300  0.94260900  0.41498800  1.0
  Bi  Bi6  1  0.76707200  0.46691700  0.47247600  1.0
  Bi  Bi7  1  0.49975800  0.99845100  0.31294200  1.0
  Bi  Bi8  1  0.39300800  0.21001300  0.33652000  1.0
  Bi  Bi9  1  0.13996100  0.71916800  0.39022500  1.0
  Bi  Bi10  1  0.86586300  0.26595000  0.42776600  1.0
  Bi  Bi11  1  0.64118200  0.71618700  0.26220700  1.0
  Bi  Bi12  1  0.93041300  0.13475500  0.29447500  1.0
  Bi  Bi13  1  0.68484100  0.62870000  0.32107800  1.0
  Bi  Bi14  1  0.41243700  0.17129200  0.42639000  1.0
  Bi  Bi15  1  0.19199600  0.61575100  0.45236000  1.0
  Bi  Bi16  1  0.79033100  0.41725800  0.27645900  1.0
  Bi  Bi17  1  0.55292500  0.89238500  0.35596600  1.0
  Bi  Bi18  1  0.31145500  0.37175500  0.40602900  1.0
  Bi  Bi19  1  0.05864100  0.88270300  0.49295600  1.0
  Bi  Bi20  1  0.83088300  0.33366700  0.34037000  1.0
  Bi  Bi21  1  0.60330500  0.79318700  0.43392900  1.0
  Bi  Bi22  1  0.35570600  0.28659700  0.49848500  1.0
  Bi  Bi23  1  0.10863000  0.78166500  0.31201200  1.0
  Bi  Bi24  1  0.97201400  0.05738400  0.58501200  1.0
  Bi  Bi25  1  0.73969800  0.52225600  0.67150900  1.0
  Bi  Bi26  1  0.50029200  0.00154500  0.68705400  1.0
  Bi  Bi27  1  0.23295600  0.53309500  0.52753100  1.0
  Bi  Bi28  1  0.27506800  0.45031000  0.59586800  1.0
  Bi  Bi29  1  0.03248800  0.93679400  0.63555100  1.0
  Bi  Bi30  1  0.78403800  0.43431100  0.73036400  1.0
  Bi  Bi31  1  0.52031400  0.96028100  0.53443700  1.0
  Bi  Bi32  1  0.39670000  0.20681400  0.56607000  1.0
  Bi  Bi33  1  0.16907400  0.66633900  0.65964200  1.0
  Bi  Bi34  1  0.89132000  0.21833000  0.68797200  1.0
  Bi  Bi35  1  0.64429900  0.71339900  0.50151500  1.0
  Bi  Bi36  1  0.94137500  0.11729800  0.50704400  1.0
  Bi  Bi37  1  0.68852800  0.62824800  0.59398400  1.0
  Bi  Bi38  1  0.44708800  0.10760700  0.64402800  1.0
  Bi  Bi39  1  0.20964200  0.58274600  0.72354600  1.0
  Bi  Bi40  1  0.80797500  0.38425400  0.54764300  1.0
  Bi  Bi41  1  0.58756300  0.82871300  0.57360900  1.0
  Bi  Bi42  1  0.31515600  0.37129700  0.67891300  1.0
  Bi  Bi43  1  0.06960100  0.86524300  0.70552200  1.0
  Bi  Bi44  1  0.86007600  0.28083000  0.60976900  1.0
  Bi  Bi45  1  0.60701800  0.78998000  0.66347700  1.0
  Bi  Bi46  1  0.35877500  0.28380600  0.73778800  1.0
  Bi  Bi47  1  0.13415500  0.73405000  0.57223300  1.0
