# generated using pymatgen
data_Bi
_symmetry_space_group_name_H-M   'P 1'
_cell_length_a   12.11286169
_cell_length_b   12.98162416
_cell_length_c   27.51622570
_cell_angle_alpha   100.14979348
_cell_angle_beta   79.12295023
_cell_angle_gamma   74.52712169
_symmetry_Int_Tables_number   1
_chemical_formula_structural   Bi
_chemical_formula_sum   Bi54
_cell_volume   3975.98119125
_cell_formula_units_Z   54
loop_
 _symmetry_equiv_pos_site_id
 _symmetry_equiv_pos_as_xyz
  1  'x, y, z'
loop_
 _atom_site_type_symbol
 _atom_site_label
 _atom_site_symmetry_multiplicity
 _atom_site_fract_x
 _atom_site_fract_y
 _atom_site_fract_z
 _atom_site_occupancy
  Bi  Bi0  1  0.84883100  0.13115400  0.34454000  1.0
  Bi  Bi1  1  0.17995100  0.10072300  0.40908900  1.0
  Bi  Bi2  1  0.52692800  0.10841700  0.30564700  1.0
  Bi  Bi3  1  0.79831900  0.95789500  0.26682300  1.0
  Bi  Bi4  1  0.12832200  0.93622400  0.32209100  1.0
  Bi  Bi5  1  0.47877400  0.93960100  0.36801500  1.0
  Bi  Bi6  1  0.96862200  0.43364500  0.36194500  1.0
  Bi  Bi7  1  0.30997400  0.47317000  0.30007000  1.0
  Bi  Bi8  1  0.63808700  0.41126600  0.32353500  1.0
  Bi  Bi9  1  0.90099500  0.28532200  0.27654800  1.0
  Bi  Bi10  1  0.24099600  0.23721200  0.33493900  1.0
  Bi  Bi11  1  0.56954300  0.25870200  0.39892900  1.0
  Bi  Bi12  1  0.74939600  0.79861600  0.32905000  1.0
  Bi  Bi13  1  0.08005000  0.77369700  0.38688300  1.0
  Bi  Bi14  1  0.39972200  0.83545600  0.27582300  1.0
  Bi  Bi15  1  0.69636600  0.57610200  0.40672700  1.0
  Bi  Bi16  1  0.05124700  0.59153300  0.30276100  1.0
  Bi  Bi17  1  0.44251200  0.64016900  0.32563800  1.0
  Bi  Bi18  1  0.85523000  0.10083900  0.51257600  1.0
  Bi  Bi19  1  0.18640700  0.09138600  0.57401200  1.0
  Bi  Bi20  1  0.51175200  0.10303100  0.47591500  1.0
  Bi  Bi21  1  0.81360500  0.90862200  0.42598000  1.0
  Bi  Bi22  1  0.14478000  0.89918100  0.48742200  1.0
  Bi  Bi23  1  0.48826700  0.89697600  0.52410400  1.0
  Bi  Bi24  1  0.97154000  0.42453200  0.53358400  1.0
  Bi  Bi25  1  0.29497100  0.42012500  0.40649100  1.0
  Bi  Bi26  1  0.63386400  0.43869300  0.48648200  1.0
  Bi  Bi27  1  0.91523400  0.25772100  0.44986700  1.0
  Bi  Bi28  1  0.24653700  0.24458400  0.50594200  1.0
  Bi  Bi29  1  0.59301300  0.25422400  0.55503400  1.0
  Bi  Bi30  1  0.75347900  0.75542800  0.49405300  1.0
  Bi  Bi31  1  0.08478300  0.74232300  0.55012100  1.0
  Bi  Bi32  1  0.40698500  0.74581500  0.44497600  1.0
  Bi  Bi33  1  0.70502000  0.57986500  0.59348000  1.0
  Bi  Bi34  1  0.02846900  0.57548200  0.46640000  1.0
  Bi  Bi35  1  0.36613000  0.56129300  0.51352200  1.0
  Bi  Bi36  1  0.87169800  0.06377100  0.67791000  1.0
  Bi  Bi37  1  0.20163700  0.04210300  0.73317000  1.0
  Bi  Bi38  1  0.52119000  0.06036100  0.63204400  1.0
  Bi  Bi39  1  0.82007200  0.89929000  0.59090400  1.0
  Bi  Bi40  1  0.15116000  0.86882400  0.65545700  1.0
  Bi  Bi41  1  0.47303300  0.89151500  0.69438500  1.0
  Bi  Bi42  1  0.94874700  0.40847700  0.69722600  1.0
  Bi  Bi43  1  0.30363100  0.42387900  0.59327700  1.0
  Bi  Bi44  1  0.55748000  0.35981100  0.67436400  1.0
  Bi  Bi45  1  0.91995100  0.22629900  0.61312000  1.0
  Bi  Bi46  1  0.25058900  0.20139900  0.67095300  1.0
  Bi  Bi47  1  0.60029900  0.16455300  0.72419300  1.0
  Bi  Bi48  1  0.75901300  0.76280400  0.66502300  1.0
  Bi  Bi49  1  0.09903200  0.71465300  0.72344600  1.0
  Bi  Bi50  1  0.43044600  0.74130200  0.60107900  1.0
  Bi  Bi51  1  0.69002900  0.52683300  0.69990700  1.0
  Bi  Bi52  1  0.03139000  0.56636100  0.63805500  1.0
  Bi  Bi53  1  0.36190200  0.58874000  0.67647200  1.0
