# generated using pymatgen
data_Bi
_symmetry_space_group_name_H-M   'P 1'
_cell_length_a   4.58791496
_cell_length_b   15.21132459
_cell_length_c   53.42121823
_cell_angle_alpha   95.86133582
_cell_angle_beta   89.94343848
_cell_angle_gamma   72.51275033
_symmetry_Int_Tables_number   1
_chemical_formula_structural   Bi
_chemical_formula_sum   Bi43
_cell_volume   3535.31033813
_cell_formula_units_Z   43
loop_
 _symmetry_equiv_pos_site_id
 _symmetry_equiv_pos_as_xyz
  1  'x, y, z'
loop_
 _atom_site_type_symbol
 _atom_site_label
 _atom_site_symmetry_multiplicity
 _atom_site_fract_x
 _atom_site_fract_y
 _atom_site_fract_z
 _atom_site_occupancy
  Bi  Bi0  1  0.69400900  0.87123800  0.34619300  1.0
  Bi  Bi1  1  0.12899700  0.36278500  0.60367300  1.0
  Bi  Bi2  1  0.49841700  0.49071400  0.54264800  1.0
  Bi  Bi3  1  0.25039000  0.75220000  0.41950700  1.0
  Bi  Bi4  1  0.73129800  0.25961600  0.66814400  1.0
  Bi  Bi5  1  0.88464800  0.61417100  0.48119400  1.0
  Bi  Bi6  1  0.45195100  0.03333600  0.73318000  1.0
  Bi  Bi7  1  0.49391600  0.51482000  0.43281300  1.0
  Bi  Bi8  1  0.92881700  0.05682100  0.69361900  1.0
  Bi  Bi9  1  0.86882700  0.64158500  0.37459700  1.0
  Bi  Bi10  1  0.37514700  0.12634400  0.62360800  1.0
  Bi  Bi11  1  0.65014100  0.83834000  0.74726600  1.0
  Bi  Bi12  1  0.09513500  0.38786000  0.49893900  1.0
  Bi  Bi13  1  0.29075500  0.76832200  0.31398700  1.0
  Bi  Bi14  1  0.74976300  0.25574800  0.55803900  1.0
  Bi  Bi15  1  0.79545000  0.16149500  0.37996900  1.0
  Bi  Bi16  1  0.33022700  0.66099600  0.62550300  1.0
  Bi  Bi17  1  0.26499200  0.25616600  0.31153000  1.0
  Bi  Bi18  1  0.71071100  0.78641500  0.56560700  1.0
  Bi  Bi19  1  0.49450900  0.02944300  0.43470000  1.0
  Bi  Bi20  1  0.96794200  0.52062000  0.69062000  1.0
  Bi  Bi21  1  0.09176300  0.91149600  0.50171700  1.0
  Bi  Bi22  1  0.37315700  0.08496900  0.34134600  1.0
  Bi  Bi23  1  0.93829300  0.55160700  0.58035600  1.0
  Bi  Bi24  1  0.32222100  0.67756700  0.51844700  1.0
  Bi  Bi25  1  0.10870700  0.93050600  0.39300900  1.0
  Bi  Bi26  1  0.55673900  0.43661300  0.63941900  1.0
  Bi  Bi27  1  0.70096900  0.80215000  0.45824600  1.0
  Bi  Bi28  1  0.17052300  0.32084600  0.70550400  1.0
  Bi  Bi29  1  0.05900100  0.45046200  0.39558700  1.0
  Bi  Bi30  1  0.52936100  0.95843500  0.65686700  1.0
  Bi  Bi31  1  0.42603400  0.58594300  0.33700100  1.0
  Bi  Bi32  1  0.92551200  0.07529600  0.58523900  1.0
  Bi  Bi33  1  0.64628500  0.33223000  0.45969200  1.0
  Bi  Bi34  1  0.21961800  0.76890100  0.71109900  1.0
  Bi  Bi35  1  0.30652400  0.19571700  0.51957100  1.0
  Bi  Bi36  1  0.24503800  0.22871600  0.42052900  1.0
  Bi  Bi37  1  0.75142500  0.74039100  0.66052000  1.0
  Bi  Bi38  1  0.68691100  0.33232400  0.34700300  1.0
  Bi  Bi39  1  0.14552900  0.85207800  0.60270000  1.0
  Bi  Bi40  1  0.93358400  0.08999400  0.47551200  1.0
  Bi  Bi41  1  0.41366100  0.57483000  0.72814900  1.0
  Bi  Bi42  1  0.53461200  0.96868300  0.54013900  1.0
