# generated using pymatgen
data_Bi
_symmetry_space_group_name_H-M   'P 1'
_cell_length_a   7.92324701
_cell_length_b   24.73157131
_cell_length_c   27.52145900
_cell_angle_alpha   95.32090587
_cell_angle_beta   90.00000000
_cell_angle_gamma   80.77598934
_symmetry_Int_Tables_number   1
_chemical_formula_structural   Bi
_chemical_formula_sum   Bi72
_cell_volume   5299.66991210
_cell_formula_units_Z   72
loop_
 _symmetry_equiv_pos_site_id
 _symmetry_equiv_pos_as_xyz
  1  'x, y, z'
loop_
 _atom_site_type_symbol
 _atom_site_label
 _atom_site_symmetry_multiplicity
 _atom_site_fract_x
 _atom_site_fract_y
 _atom_site_fract_z
 _atom_site_occupancy
  Bi  Bi0  1  0.53860700  0.53042500  0.35235300  1.0
  Bi  Bi1  1  0.92756900  0.05918200  0.32282200  1.0
  Bi  Bi2  1  0.32721700  0.06181300  0.42321700  1.0
  Bi  Bi3  1  0.04986700  0.53506800  0.29504200  1.0
  Bi  Bi4  1  0.66858900  0.92501200  0.39033800  1.0
  Bi  Bi5  1  0.96759000  0.44877400  0.36730600  1.0
  Bi  Bi6  1  0.45452400  0.43427500  0.28141500  1.0
  Bi  Bi7  1  0.14169400  0.93720100  0.35009700  1.0
  Bi  Bi8  1  0.76209200  0.68891800  0.35681600  1.0
  Bi  Bi9  1  0.12573600  0.21732000  0.35217400  1.0
  Bi  Bi10  1  0.60194900  0.21582800  0.28037700  1.0
  Bi  Bi11  1  0.27539300  0.69518600  0.29881200  1.0
  Bi  Bi12  1  0.69264200  0.59756800  0.27927500  1.0
  Bi  Bi13  1  0.18271400  0.12007600  0.27259600  1.0
  Bi  Bi14  1  0.50966500  0.12030200  0.33687900  1.0
  Bi  Bi15  1  0.19436700  0.61170200  0.37127600  1.0
  Bi  Bi16  1  0.48093800  0.86577000  0.31311800  1.0
  Bi  Bi17  1  0.81540900  0.37151400  0.29204600  1.0
  Bi  Bi18  1  0.31778900  0.36887500  0.35916800  1.0
  Bi  Bi19  1  0.97998100  0.83506600  0.37162600  1.0
  Bi  Bi20  1  0.42029800  0.77181200  0.37647200  1.0
  Bi  Bi21  1  0.74962200  0.28415000  0.36284700  1.0
  Bi  Bi22  1  0.24785100  0.28501700  0.27488200  1.0
  Bi  Bi23  1  0.91153700  0.75633900  0.28439000  1.0
  Bi  Bi24  1  0.53713200  0.54829700  0.52999000  1.0
  Bi  Bi25  1  0.79658400  0.04346800  0.49000300  1.0
  Bi  Bi26  1  0.28694200  0.04679000  0.57620700  1.0
  Bi  Bi27  1  0.05204900  0.55131000  0.46908600  1.0
  Bi  Bi28  1  0.68485300  0.94828800  0.55514400  1.0
  Bi  Bi29  1  0.97097600  0.46463000  0.53967900  1.0
  Bi  Bi30  1  0.46807600  0.46013100  0.44870600  1.0
  Bi  Bi31  1  0.18105700  0.95449800  0.46299300  1.0
  Bi  Bi32  1  0.75643300  0.70073400  0.53660300  1.0
  Bi  Bi33  1  0.06540800  0.21266400  0.53571300  1.0
  Bi  Bi34  1  0.57273700  0.22276800  0.44897600  1.0
  Bi  Bi35  1  0.27641800  0.71029000  0.47411200  1.0
  Bi  Bi36  1  0.68932300  0.61302100  0.45464400  1.0
  Bi  Bi37  1  0.96360400  0.12180500  0.42216900  1.0
  Bi  Bi38  1  0.45796400  0.12582600  0.51191600  1.0
  Bi  Bi39  1  0.19568100  0.62663500  0.54763900  1.0
  Bi  Bi40  1  0.51633900  0.87559200  0.47712300  1.0
  Bi  Bi41  1  0.82201600  0.39379300  0.45916000  1.0
  Bi  Bi42  1  0.32229400  0.39082200  0.52402500  1.0
  Bi  Bi43  1  0.01998300  0.87098600  0.53130000  1.0
  Bi  Bi44  1  0.42678900  0.78238600  0.55289100  1.0
  Bi  Bi45  1  0.73222800  0.29490800  0.52845500  1.0
  Bi  Bi46  1  0.21881700  0.29151500  0.45911300  1.0
  Bi  Bi47  1  0.91059000  0.77304400  0.46583500  1.0
  Bi  Bi48  1  0.54758400  0.56463800  0.70791000  1.0
  Bi  Bi49  1  0.74192600  0.04059700  0.66163700  1.0
  Bi  Bi50  1  0.08466700  0.03600000  0.72189500  1.0
  Bi  Bi51  1  0.06013300  0.56144600  0.64422600  1.0
  Bi  Bi52  1  0.66392200  0.95352500  0.72863700  1.0
  Bi  Bi53  1  0.97627900  0.47438600  0.71377500  1.0
  Bi  Bi54  1  0.47648600  0.47302800  0.63099800  1.0
  Bi  Bi55  1  0.13597300  0.94298000  0.63931900  1.0
  Bi  Bi56  1  0.78306700  0.72382100  0.70308100  1.0
  Bi  Bi57  1  0.11030900  0.22999900  0.64929300  1.0
  Bi  Bi58  1  0.58917600  0.24274500  0.61399100  1.0
  Bi  Bi59  1  0.29037100  0.72458500  0.64692300  1.0
  Bi  Bi60  1  0.69665000  0.62842400  0.63218700  1.0
  Bi  Bi61  1  0.92466600  0.10924000  0.57818300  1.0
  Bi  Bi62  1  0.33617200  0.10409400  0.67705400  1.0
  Bi  Bi63  1  0.20160000  0.63972400  0.72017900  1.0
  Bi  Bi64  1  0.51657200  0.88445200  0.64733900  1.0
  Bi  Bi65  1  0.83674500  0.40034300  0.63335400  1.0
  Bi  Bi66  1  0.34187300  0.40890800  0.70849000  1.0
  Bi  Bi67  1  0.99877300  0.87261900  0.71186400  1.0
  Bi  Bi68  1  0.44451500  0.80243000  0.72201600  1.0
  Bi  Bi69  1  0.77826300  0.30127500  0.69159100  1.0
  Bi  Bi70  1  0.26892200  0.32990400  0.62222600  1.0
  Bi  Bi71  1  0.92742400  0.78944000  0.62700900  1.0
