# generated using pymatgen
data_Ga
_symmetry_space_group_name_H-M   'P 1'
_cell_length_a   4.57507200
_cell_length_b   4.56085300
_cell_length_c   30.92101200
_cell_angle_alpha   90.00000000
_cell_angle_beta   90.00000000
_cell_angle_gamma   90.00000000
_symmetry_Int_Tables_number   1
_chemical_formula_structural   Ga
_chemical_formula_sum   Ga16
_cell_volume   645.20497471
_cell_formula_units_Z   16
loop_
 _symmetry_equiv_pos_site_id
 _symmetry_equiv_pos_as_xyz
  1  'x, y, z'
loop_
 _atom_site_type_symbol
 _atom_site_label
 _atom_site_symmetry_multiplicity
 _atom_site_fract_x
 _atom_site_fract_y
 _atom_site_fract_z
 _atom_site_occupancy
  Ga  Ga0  1  0.00000000  0.08345700  0.21023800  1.0
  Ga  Ga1  1  0.00000000  0.58260300  0.16223300  1.0
  Ga  Ga2  1  0.00000000  0.91068200  0.03088100  1.0
  Ga  Ga3  1  0.00000000  0.41110900  0.08228400  1.0
  Ga  Ga4  1  0.50000000  0.08889100  0.08228400  1.0
  Ga  Ga5  1  0.50000000  0.58931800  0.03088100  1.0
  Ga  Ga6  1  0.50000000  0.91739700  0.16223300  1.0
  Ga  Ga7  1  0.50000000  0.41654300  0.21023800  1.0
  Ga  Ga8  1  0.00000000  0.08931800  0.46911900  1.0
  Ga  Ga9  1  0.00000000  0.58889100  0.41771600  1.0
  Ga  Ga10  1  0.00000000  0.91654300  0.28976200  1.0
  Ga  Ga11  1  0.00000000  0.41739700  0.33776700  1.0
  Ga  Ga12  1  0.50000000  0.08260300  0.33776700  1.0
  Ga  Ga13  1  0.50000000  0.58345700  0.28976200  1.0
  Ga  Ga14  1  0.50000000  0.91110900  0.41771600  1.0
  Ga  Ga15  1  0.50000000  0.41068200  0.46911900  1.0
