# generated using pymatgen
data_Ga
_symmetry_space_group_name_H-M   'P 1'
_cell_length_a   4.49133423
_cell_length_b   4.49133423
_cell_length_c   27.36507900
_cell_angle_alpha   90.00000000
_cell_angle_beta   90.00000000
_cell_angle_gamma   118.76256289
_symmetry_Int_Tables_number   1
_chemical_formula_structural   Ga
_chemical_formula_sum   Ga12
_cell_volume   483.90427722
_cell_formula_units_Z   12
loop_
 _symmetry_equiv_pos_site_id
 _symmetry_equiv_pos_as_xyz
  1  'x, y, z'
loop_
 _atom_site_type_symbol
 _atom_site_label
 _atom_site_symmetry_multiplicity
 _atom_site_fract_x
 _atom_site_fract_y
 _atom_site_fract_z
 _atom_site_occupancy
  Ga  Ga0  1  0.87411500  0.12588500  0.88766700  1.0
  Ga  Ga1  1  0.62826800  0.37173200  0.95837100  1.0
  Ga  Ga2  1  0.18780000  0.81220000  0.86252500  1.0
  Ga  Ga3  1  0.29820400  0.70179600  0.95694000  1.0
  Ga  Ga4  1  0.85166300  0.14833700  0.72324400  1.0
  Ga  Ga5  1  0.65995000  0.34005000  0.80660100  1.0
  Ga  Ga6  1  0.15995000  0.84005000  0.69339900  1.0
  Ga  Ga7  1  0.35166300  0.64833700  0.77675600  1.0
  Ga  Ga8  1  0.79820400  0.20179600  0.54306000  1.0
  Ga  Ga9  1  0.68780000  0.31220000  0.63747500  1.0
  Ga  Ga10  1  0.12826800  0.87173200  0.54162900  1.0
  Ga  Ga11  1  0.37411500  0.62588500  0.61233300  1.0
