# generated using pymatgen
data_Ga
_symmetry_space_group_name_H-M   'P 1'
_cell_length_a   4.56729300
_cell_length_b   11.96627280
_cell_length_c   23.93254625
_cell_angle_alpha   99.46836127
_cell_angle_beta   90.00000000
_cell_angle_gamma   90.00000000
_symmetry_Int_Tables_number   1
_chemical_formula_structural   Ga
_chemical_formula_sum   Ga32
_cell_volume   1290.17741811
_cell_formula_units_Z   32
loop_
 _symmetry_equiv_pos_site_id
 _symmetry_equiv_pos_as_xyz
  1  'x, y, z'
loop_
 _atom_site_type_symbol
 _atom_site_label
 _atom_site_symmetry_multiplicity
 _atom_site_fract_x
 _atom_site_fract_y
 _atom_site_fract_z
 _atom_site_occupancy
  Ga  Ga0  1  0.21165300  0.23442800  0.54037600  1.0
  Ga  Ga1  1  0.25712000  0.47812200  0.39686300  1.0
  Ga  Ga2  1  0.26720000  0.93248900  0.65936900  1.0
  Ga  Ga3  1  0.22886300  0.67960100  0.32790200  1.0
  Ga  Ga4  1  0.71165300  0.01557200  0.45962400  1.0
  Ga  Ga5  1  0.76720000  0.31751100  0.34063100  1.0
  Ga  Ga6  1  0.75712000  0.77187800  0.60313700  1.0
  Ga  Ga7  1  0.72886300  0.57039900  0.67209800  1.0
  Ga  Ga8  1  0.73280000  0.81751100  0.34063100  1.0
  Ga  Ga9  1  0.77113700  0.07039900  0.67209800  1.0
  Ga  Ga10  1  0.78834700  0.51557200  0.45962400  1.0
  Ga  Ga11  1  0.74288000  0.27187800  0.60313700  1.0
  Ga  Ga12  1  0.24288000  0.97812200  0.39686300  1.0
  Ga  Ga13  1  0.27113700  0.17960100  0.32790200  1.0
  Ga  Ga14  1  0.28834700  0.73442800  0.54037600  1.0
  Ga  Ga15  1  0.23280000  0.43248900  0.65936900  1.0
  Ga  Ga16  1  0.76385900  0.03895800  0.31675000  1.0
  Ga  Ga17  1  0.74500400  0.35353000  0.72207900  1.0
  Ga  Ga18  1  0.00334400  0.80442200  0.44684700  1.0
  Ga  Ga19  1  0.00763200  0.55599300  0.56759300  1.0
  Ga  Ga20  1  0.24500400  0.89647000  0.27792100  1.0
  Ga  Ga21  1  0.26385900  0.21104200  0.68325000  1.0
  Ga  Ga22  1  0.50763200  0.69400700  0.43240700  1.0
  Ga  Ga23  1  0.50334400  0.44557800  0.55315300  1.0
  Ga  Ga24  1  0.99236800  0.19400700  0.43240700  1.0
  Ga  Ga25  1  0.25499600  0.39647000  0.27792100  1.0
  Ga  Ga26  1  0.99665600  0.94557800  0.55315300  1.0
  Ga  Ga27  1  0.23614100  0.71104200  0.68325000  1.0
  Ga  Ga28  1  0.49665600  0.30442200  0.44684700  1.0
  Ga  Ga29  1  0.73614100  0.53895800  0.31675000  1.0
  Ga  Ga30  1  0.49236800  0.05599300  0.56759300  1.0
  Ga  Ga31  1  0.75499600  0.85353000  0.72207900  1.0
