# generated using pymatgen
data_Li
_symmetry_space_group_name_H-M   'P 1'
_cell_length_a   3.43532600
_cell_length_b   12.39078317
_cell_length_c   29.12869392
_cell_angle_alpha   78.70251789
_cell_angle_beta   90.00000000
_cell_angle_gamma   90.00000000
_symmetry_Int_Tables_number   1
_chemical_formula_structural   Li
_chemical_formula_sum   Li30
_cell_volume   1215.87777391
_cell_formula_units_Z   30
loop_
 _symmetry_equiv_pos_site_id
 _symmetry_equiv_pos_as_xyz
  1  'x, y, z'
loop_
 _atom_site_type_symbol
 _atom_site_label
 _atom_site_symmetry_multiplicity
 _atom_site_fract_x
 _atom_site_fract_y
 _atom_site_fract_z
 _atom_site_occupancy
  Li  Li0  1  0.00000000  0.40065700  0.37313100  1.0
  Li  Li1  1  0.00000000  0.19441500  0.30993400  1.0
  Li  Li2  1  0.00000000  0.99951100  0.40636200  1.0
  Li  Li3  1  0.00000000  0.79186400  0.34352200  1.0
  Li  Li4  1  0.00000000  0.60688900  0.27674900  1.0
  Li  Li5  1  0.50000000  0.39965100  0.29364600  1.0
  Li  Li6  1  0.50000000  0.19937400  0.39002700  1.0
  Li  Li7  1  0.50000000  0.98989100  0.32300700  1.0
  Li  Li8  1  0.50000000  0.81894300  0.26088700  1.0
  Li  Li9  1  0.50000000  0.60015400  0.35650300  1.0
  Li  Li10  1  0.00000000  0.40075200  0.54295800  1.0
  Li  Li11  1  0.00000000  0.19977800  0.47357700  1.0
  Li  Li12  1  0.00000000  0.00009700  0.57498500  1.0
  Li  Li13  1  0.00000000  0.79991800  0.50889300  1.0
  Li  Li14  1  0.00000000  0.60002500  0.43961400  1.0
  Li  Li15  1  0.50000000  0.39924800  0.45704200  1.0
  Li  Li16  1  0.50000000  0.19997500  0.56038600  1.0
  Li  Li17  1  0.50000000  0.00008200  0.49110700  1.0
  Li  Li18  1  0.50000000  0.79990300  0.42501500  1.0
  Li  Li19  1  0.50000000  0.60022200  0.52642300  1.0
  Li  Li20  1  0.00000000  0.40034900  0.70635400  1.0
  Li  Li21  1  0.00000000  0.19984600  0.64349700  1.0
  Li  Li22  1  0.00000000  0.98105700  0.73911300  1.0
  Li  Li23  1  0.00000000  0.81010900  0.67699300  1.0
  Li  Li24  1  0.00000000  0.60062600  0.60997300  1.0
  Li  Li25  1  0.50000000  0.39934300  0.62686900  1.0
  Li  Li26  1  0.50000000  0.19311100  0.72325100  1.0
  Li  Li27  1  0.50000000  0.00813600  0.65647800  1.0
  Li  Li28  1  0.50000000  0.80048900  0.59363800  1.0
  Li  Li29  1  0.50000000  0.60558500  0.69006600  1.0
