# generated using pymatgen
data_Ga
_symmetry_space_group_name_H-M   'P 1'
_cell_length_a   7.72845100
_cell_length_b   6.46402613
_cell_length_c   25.85610522
_cell_angle_alpha   89.66777821
_cell_angle_beta   90.00000000
_cell_angle_gamma   90.00000000
_symmetry_Int_Tables_number   1
_chemical_formula_structural   Ga
_chemical_formula_sum   Ga32
_cell_volume   1291.66938703
_cell_formula_units_Z   32
loop_
 _symmetry_equiv_pos_site_id
 _symmetry_equiv_pos_as_xyz
  1  'x, y, z'
loop_
 _atom_site_type_symbol
 _atom_site_label
 _atom_site_symmetry_multiplicity
 _atom_site_fract_x
 _atom_site_fract_y
 _atom_site_fract_z
 _atom_site_occupancy
  Ga  Ga0  1  0.16475700  0.44340600  0.32649300  1.0
  Ga  Ga1  1  0.16140200  0.95609900  0.45936600  1.0
  Ga  Ga2  1  0.39472200  0.16460000  0.29699600  1.0
  Ga  Ga3  1  0.34823200  0.70046300  0.39204000  1.0
  Ga  Ga4  1  0.84610100  0.04099100  0.47651700  1.0
  Ga  Ga5  1  0.86092700  0.51644700  0.35761300  1.0
  Ga  Ga6  1  0.71403200  0.27051400  0.28189500  1.0
  Ga  Ga7  1  0.65754100  0.78219100  0.41693600  1.0
  Ga  Ga8  1  0.65176800  0.20046300  0.39204000  1.0
  Ga  Ga9  1  0.60527800  0.66460000  0.29699600  1.0
  Ga  Ga10  1  0.83524300  0.94340600  0.32649300  1.0
  Ga  Ga11  1  0.83859800  0.45609900  0.45936600  1.0
  Ga  Ga12  1  0.28596800  0.77051400  0.28189500  1.0
  Ga  Ga13  1  0.34245900  0.28219100  0.41693600  1.0
  Ga  Ga14  1  0.13907300  0.01644700  0.35761300  1.0
  Ga  Ga15  1  0.15389900  0.54099100  0.47651700  1.0
  Ga  Ga16  1  0.15754100  0.46780900  0.58306400  1.0
  Ga  Ga17  1  0.21403200  0.97948600  0.71810500  1.0
  Ga  Ga18  1  0.34610100  0.20900900  0.52348300  1.0
  Ga  Ga19  1  0.36092700  0.73355300  0.64238700  1.0
  Ga  Ga20  1  0.89472200  0.08540000  0.70300400  1.0
  Ga  Ga21  1  0.84823200  0.54953700  0.60796000  1.0
  Ga  Ga22  1  0.66140200  0.29390100  0.54063400  1.0
  Ga  Ga23  1  0.66475700  0.80659400  0.67350700  1.0
  Ga  Ga24  1  0.63907300  0.23355300  0.64238700  1.0
  Ga  Ga25  1  0.65389900  0.70900900  0.52348300  1.0
  Ga  Ga26  1  0.84245900  0.96780900  0.58306400  1.0
  Ga  Ga27  1  0.78596800  0.47948600  0.71810500  1.0
  Ga  Ga28  1  0.33859800  0.79390100  0.54063400  1.0
  Ga  Ga29  1  0.33524300  0.30659400  0.67350700  1.0
  Ga  Ga30  1  0.15176800  0.04953700  0.60796000  1.0
  Ga  Ga31  1  0.10527800  0.58540000  0.70300400  1.0
