# generated using pymatgen
data_Ga
_symmetry_space_group_name_H-M   'P 1'
_cell_length_a   6.40870996
_cell_length_b   6.40870996
_cell_length_c   30.61226467
_cell_angle_alpha   89.85884827
_cell_angle_beta   89.85884827
_cell_angle_gamma   74.13134699
_symmetry_Int_Tables_number   1
_chemical_formula_structural   Ga
_chemical_formula_sum   Ga35
_cell_volume   1209.37366733
_cell_formula_units_Z   35
loop_
 _symmetry_equiv_pos_site_id
 _symmetry_equiv_pos_as_xyz
  1  'x, y, z'
loop_
 _atom_site_type_symbol
 _atom_site_label
 _atom_site_symmetry_multiplicity
 _atom_site_fract_x
 _atom_site_fract_y
 _atom_site_fract_z
 _atom_site_occupancy
  Ga  Ga0  1  0.90394500  0.70020400  0.29410100  1.0
  Ga  Ga1  1  0.34001500  0.99016900  0.35387300  1.0
  Ga  Ga2  1  0.73794200  0.38439600  0.40576400  1.0
  Ga  Ga3  1  0.13124200  0.80092000  0.47948900  1.0
  Ga  Ga4  1  0.32724500  0.62533100  0.31174600  1.0
  Ga  Ga5  1  0.73533900  0.01378400  0.36683100  1.0
  Ga  Ga6  1  0.11730100  0.40510900  0.44504100  1.0
  Ga  Ga7  1  0.87723000  0.17738400  0.48801300  1.0
  Ga  Ga8  1  0.56347900  0.04001700  0.27856100  1.0
  Ga  Ga9  1  0.09551400  0.37679700  0.35428300  1.0
  Ga  Ga10  1  0.50466500  0.75966800  0.42428000  1.0
  Ga  Ga11  1  0.09897400  0.05861300  0.27385100  1.0
  Ga  Ga12  1  0.72261800  0.36421200  0.31006400  1.0
  Ga  Ga13  1  0.09294500  0.76152900  0.39272500  1.0
  Ga  Ga14  1  0.50030300  0.15987900  0.45179000  1.0
  Ga  Ga15  1  0.52217300  0.20267300  0.54389800  1.0
  Ga  Ga16  1  0.93571800  0.61064500  0.61021000  1.0
  Ga  Ga17  1  0.31795600  0.01857600  0.68061100  1.0
  Ga  Ga18  1  0.72075700  0.43654200  0.74065000  1.0
  Ga  Ga19  1  0.20665200  0.76499900  0.82076600  1.0
  Ga  Ga20  1  0.51885000  0.81815200  0.51171300  1.0
  Ga  Ga21  1  0.91430900  0.21965400  0.57632300  1.0
  Ga  Ga22  1  0.31611000  0.62995500  0.64767900  1.0
  Ga  Ga23  1  0.72162900  0.03084300  0.70789400  1.0
  Ga  Ga24  1  0.09054500  0.44140900  0.78244500  1.0
  Ga  Ga25  1  0.89905000  0.11132100  0.79867100  1.0
  Ga  Ga26  1  0.28732400  0.58437900  0.55603200  1.0
  Ga  Ga27  1  0.67919500  0.98466600  0.62160600  1.0
  Ga  Ga28  1  0.08300800  0.40165500  0.68983100  1.0
  Ga  Ga29  1  0.47882800  0.80668500  0.75766300  1.0
  Ga  Ga30  1  0.89542600  0.56780700  0.52179800  1.0
  Ga  Ga31  1  0.28873600  0.97303400  0.59091200  1.0
  Ga  Ga32  1  0.69514600  0.38253900  0.65255600  1.0
  Ga  Ga33  1  0.08842900  0.78309200  0.72875700  1.0
  Ga  Ga34  1  0.48033000  0.18992600  0.78503300  1.0
