# generated using pymatgen
data_Ga
_symmetry_space_group_name_H-M   'P 1'
_cell_length_a   4.49198283
_cell_length_b   6.40606748
_cell_length_c   24.04990135
_cell_angle_alpha   82.96839053
_cell_angle_beta   85.61010310
_cell_angle_gamma   70.24765226
_symmetry_Int_Tables_number   1
_chemical_formula_structural   Ga
_chemical_formula_sum   Ga14
_cell_volume   645.98210918
_cell_formula_units_Z   14
loop_
 _symmetry_equiv_pos_site_id
 _symmetry_equiv_pos_as_xyz
  1  'x, y, z'
loop_
 _atom_site_type_symbol
 _atom_site_label
 _atom_site_symmetry_multiplicity
 _atom_site_fract_x
 _atom_site_fract_y
 _atom_site_fract_z
 _atom_site_occupancy
  Ga  Ga0  1  0.06858800  0.70232200  0.64212900  1.0
  Ga  Ga1  1  0.73324000  0.38239700  0.52069300  1.0
  Ga  Ga2  1  0.30119800  0.29722500  0.71085000  1.0
  Ga  Ga3  1  0.66049000  0.97254800  0.56102600  1.0
  Ga  Ga4  1  0.43524600  0.91835500  0.67069200  1.0
  Ga  Ga5  1  0.14176000  0.55510300  0.54180700  1.0
  Ga  Ga6  1  0.84828100  0.22264400  0.63183300  1.0
  Ga  Ga7  1  0.69303800  0.50793900  0.72030100  1.0
  Ga  Ga8  1  0.43975400  0.01914500  0.39180800  1.0
  Ga  Ga9  1  0.02671900  0.71485600  0.43066700  1.0
  Ga  Ga10  1  0.18196200  0.42956100  0.34219900  1.0
  Ga  Ga11  1  0.80641200  0.23517800  0.42037100  1.0
  Ga  Ga12  1  0.57380200  0.64027500  0.35165000  1.0
  Ga  Ga13  1  0.21451000  0.96495200  0.50147400  1.0
