# generated using pymatgen
data_Ga
_symmetry_space_group_name_H-M   'P 1'
_cell_length_a   7.72173300
_cell_length_b   10.24003137
_cell_length_c   25.86025801
_cell_angle_alpha   108.77354308
_cell_angle_beta   90.00000000
_cell_angle_gamma   90.00000000
_symmetry_Int_Tables_number   1
_chemical_formula_structural   Ga
_chemical_formula_sum   Ga48
_cell_volume   1936.00394880
_cell_formula_units_Z   48
loop_
 _symmetry_equiv_pos_site_id
 _symmetry_equiv_pos_as_xyz
  1  'x, y, z'
loop_
 _atom_site_type_symbol
 _atom_site_label
 _atom_site_symmetry_multiplicity
 _atom_site_fract_x
 _atom_site_fract_y
 _atom_site_fract_z
 _atom_site_occupancy
  Ga  Ga0  1  0.13712700  0.95475200  0.47025700  1.0
  Ga  Ga1  1  0.13014500  0.28567500  0.38383900  1.0
  Ga  Ga2  1  0.16067200  0.60162600  0.29403800  1.0
  Ga  Ga3  1  0.36985400  0.78567500  0.38384100  1.0
  Ga  Ga4  1  0.33932800  0.10162400  0.29403300  1.0
  Ga  Ga5  1  0.36286100  0.45474900  0.47025700  1.0
  Ga  Ga6  1  0.94290500  0.75079700  0.37918200  1.0
  Ga  Ga7  1  0.67656600  0.04791200  0.28362900  1.0
  Ga  Ga8  1  0.84588600  0.36290600  0.43926700  1.0
  Ga  Ga9  1  0.65411100  0.86290700  0.43926700  1.0
  Ga  Ga10  1  0.55709100  0.25079300  0.37918300  1.0
  Ga  Ga11  1  0.82343700  0.54791300  0.28362900  1.0
  Ga  Ga12  1  0.65438200  0.79006600  0.30657200  1.0
  Ga  Ga13  1  0.66285600  0.14308600  0.46252800  1.0
  Ga  Ga14  1  0.66677500  0.50979200  0.37135400  1.0
  Ga  Ga15  1  0.83714200  0.64308800  0.46252400  1.0
  Ga  Ga16  1  0.83322300  0.00980000  0.37135800  1.0
  Ga  Ga17  1  0.84562200  0.29005900  0.30657200  1.0
  Ga  Ga18  1  0.33333333  0.49948500  0.36904600  1.0
  Ga  Ga19  1  0.32982300  0.81754800  0.28051000  1.0
  Ga  Ga20  1  0.33206700  0.16980900  0.45626500  1.0
  Ga  Ga21  1  0.16792900  0.66980500  0.45626600  1.0
  Ga  Ga22  1  0.16664000  0.99948800  0.36904200  1.0
  Ga  Ga23  1  0.17017800  0.31755100  0.28051100  1.0
  Ga  Ga24  1  0.32343400  0.95208800  0.71637100  1.0
  Ga  Ga25  1  0.05709500  0.24920300  0.62081800  1.0
  Ga  Ga26  1  0.15411400  0.63709400  0.56073300  1.0
  Ga  Ga27  1  0.44290900  0.74920700  0.62081700  1.0
  Ga  Ga28  1  0.34588900  0.13709300  0.56073300  1.0
  Ga  Ga29  1  0.17656300  0.45208700  0.71637100  1.0
  Ga  Ga30  1  0.86985500  0.71432500  0.61616100  1.0
  Ga  Ga31  1  0.86287300  0.04524800  0.52974300  1.0
  Ga  Ga32  1  0.83932800  0.39837400  0.70596200  1.0
  Ga  Ga33  1  0.66067200  0.89837600  0.70596700  1.0
  Ga  Ga34  1  0.63014600  0.21432500  0.61615900  1.0
  Ga  Ga35  1  0.63713900  0.54525100  0.52974300  1.0
  Ga  Ga36  1  0.66793300  0.83019100  0.54373500  1.0
  Ga  Ga37  1  0.67017700  0.18245200  0.71949000  1.0
  Ga  Ga38  1  0.66666667  0.50051500  0.63095400  1.0
  Ga  Ga39  1  0.82982200  0.68244900  0.71948900  1.0
  Ga  Ga40  1  0.83336000  0.00051200  0.63095800  1.0
  Ga  Ga41  1  0.83207100  0.33019500  0.54373400  1.0
  Ga  Ga42  1  0.33322500  0.49020800  0.62864600  1.0
  Ga  Ga43  1  0.33714400  0.85691400  0.53747200  1.0
  Ga  Ga44  1  0.34561800  0.20993400  0.69342800  1.0
  Ga  Ga45  1  0.15437800  0.70994100  0.69342800  1.0
  Ga  Ga46  1  0.16677700  0.99020000  0.62864200  1.0
  Ga  Ga47  1  0.16285800  0.35691200  0.53747600  1.0
