# generated using pymatgen
data_Ga
_symmetry_space_group_name_H-M   'P 1'
_cell_length_a   4.57261500
_cell_length_b   16.11474799
_cell_length_c   27.42384400
_cell_angle_alpha   106.47703021
_cell_angle_beta   90.00000000
_cell_angle_gamma   90.00000000
_symmetry_Int_Tables_number   1
_chemical_formula_structural   Ga
_chemical_formula_sum   Ga48
_cell_volume   1937.78229755
_cell_formula_units_Z   48
loop_
 _symmetry_equiv_pos_site_id
 _symmetry_equiv_pos_as_xyz
  1  'x, y, z'
loop_
 _atom_site_type_symbol
 _atom_site_label
 _atom_site_symmetry_multiplicity
 _atom_site_fract_x
 _atom_site_fract_y
 _atom_site_fract_z
 _atom_site_occupancy
  Ga  Ga0  1  0.09645200  0.41078700  0.29389100  1.0
  Ga  Ga1  1  0.08389400  0.91842600  0.38146100  1.0
  Ga  Ga2  1  0.59680000  0.34481000  0.27540100  1.0
  Ga  Ga3  1  0.58416400  0.82746100  0.36581000  1.0
  Ga  Ga4  1  0.89672600  0.07391100  0.41037200  1.0
  Ga  Ga5  1  0.95410800  0.56653700  0.32831800  1.0
  Ga  Ga6  1  0.52828800  0.20351400  0.29661000  1.0
  Ga  Ga7  1  0.46185500  0.66450400  0.34266000  1.0
  Ga  Ga8  1  0.03814500  0.16450400  0.34266000  1.0
  Ga  Ga9  1  0.97171200  0.70351400  0.29661000  1.0
  Ga  Ga10  1  0.54589200  0.06653700  0.32831800  1.0
  Ga  Ga11  1  0.60327400  0.57391100  0.41037200  1.0
  Ga  Ga12  1  0.91583600  0.32746100  0.36581000  1.0
  Ga  Ga13  1  0.90320000  0.84481000  0.27540100  1.0
  Ga  Ga14  1  0.41610600  0.41842600  0.38146100  1.0
  Ga  Ga15  1  0.40354800  0.91078700  0.29389100  1.0
  Ga  Ga16  1  0.08466500  0.42116800  0.46602200  1.0
  Ga  Ga17  1  0.08279500  0.92237300  0.54974000  1.0
  Ga  Ga18  1  0.58279500  0.32762700  0.45026000  1.0
  Ga  Ga19  1  0.58466500  0.82883200  0.53397800  1.0
  Ga  Ga20  1  0.89479800  0.07674900  0.57463600  1.0
  Ga  Ga21  1  0.93974800  0.57840200  0.49277500  1.0
  Ga  Ga22  1  0.39479800  0.17325100  0.42536400  1.0
  Ga  Ga23  1  0.43974800  0.67159800  0.50722500  1.0
  Ga  Ga24  1  0.06025200  0.17159800  0.50722500  1.0
  Ga  Ga25  1  0.10520200  0.67325100  0.42536400  1.0
  Ga  Ga26  1  0.56025200  0.07840200  0.49277500  1.0
  Ga  Ga27  1  0.60520200  0.57674900  0.57463600  1.0
  Ga  Ga28  1  0.91533500  0.32883200  0.53397800  1.0
  Ga  Ga29  1  0.91720500  0.82762700  0.45026000  1.0
  Ga  Ga30  1  0.41720500  0.42237300  0.54974000  1.0
  Ga  Ga31  1  0.41533500  0.92116800  0.46602200  1.0
  Ga  Ga32  1  0.08416400  0.42253900  0.63419000  1.0
  Ga  Ga33  1  0.09680000  0.90519000  0.72459900  1.0
  Ga  Ga34  1  0.58389400  0.33157400  0.61853900  1.0
  Ga  Ga35  1  0.59645200  0.83921300  0.70610900  1.0
  Ga  Ga36  1  0.02828800  0.04648600  0.70339000  1.0
  Ga  Ga37  1  0.96185500  0.58549600  0.65734000  1.0
  Ga  Ga38  1  0.39672600  0.17608900  0.58962800  1.0
  Ga  Ga39  1  0.45410800  0.68346300  0.67168200  1.0
  Ga  Ga40  1  0.04589200  0.18346300  0.67168200  1.0
  Ga  Ga41  1  0.10327400  0.67608900  0.58962800  1.0
  Ga  Ga42  1  0.53814500  0.08549600  0.65734000  1.0
  Ga  Ga43  1  0.47171200  0.54648600  0.70339000  1.0
  Ga  Ga44  1  0.90354800  0.33921300  0.70610900  1.0
  Ga  Ga45  1  0.91610600  0.83157400  0.61853900  1.0
  Ga  Ga46  1  0.40320000  0.40519000  0.72459900  1.0
  Ga  Ga47  1  0.41583600  0.92253900  0.63419000  1.0
