# generated using pymatgen
data_Cd
_symmetry_space_group_name_H-M   'P 1'
_cell_length_a   5.25617300
_cell_length_b   6.43827477
_cell_length_c   24.15808300
_cell_angle_alpha   103.56310859
_cell_angle_beta   90.00000000
_cell_angle_gamma   65.90836147
_symmetry_Int_Tables_number   1
_chemical_formula_structural   Cd
_chemical_formula_sum   Cd16
_cell_volume   721.26800086
_cell_formula_units_Z   16
loop_
 _symmetry_equiv_pos_site_id
 _symmetry_equiv_pos_as_xyz
  1  'x, y, z'
loop_
 _atom_site_type_symbol
 _atom_site_label
 _atom_site_symmetry_multiplicity
 _atom_site_fract_x
 _atom_site_fract_y
 _atom_site_fract_z
 _atom_site_occupancy
  Cd  Cd0  1  0.02633000  0.24143600  0.07031300  1.0
  Cd  Cd1  1  0.49621200  0.28636000  0.01709600  1.0
  Cd  Cd2  1  0.50244600  0.75060000  0.09380100  1.0
  Cd  Cd3  1  0.99386600  0.76581900  0.03167500  1.0
  Cd  Cd4  1  0.02991900  0.22430400  0.20490400  1.0
  Cd  Cd5  1  0.53171700  0.23177700  0.14361900  1.0
  Cd  Cd6  1  0.50216700  0.73430800  0.22529900  1.0
  Cd  Cd7  1  0.00811000  0.72230700  0.16202000  1.0
  Cd  Cd8  1  0.99189000  0.27769300  0.33798000  1.0
  Cd  Cd9  1  0.49783300  0.26569200  0.27470100  1.0
  Cd  Cd10  1  0.46828300  0.76822300  0.35638100  1.0
  Cd  Cd11  1  0.97008100  0.77569600  0.29509600  1.0
  Cd  Cd12  1  0.00613400  0.23418100  0.46832500  1.0
  Cd  Cd13  1  0.49755400  0.24940000  0.40619900  1.0
  Cd  Cd14  1  0.50378800  0.71364000  0.48290400  1.0
  Cd  Cd15  1  0.97367000  0.75856400  0.42968700  1.0
