# generated using pymatgen
data_Cd
_symmetry_space_group_name_H-M   'P 1'
_cell_length_a   5.62256200
_cell_length_b   5.25533000
_cell_length_c   24.34901800
_cell_angle_alpha   90.00000000
_cell_angle_beta   90.00000000
_cell_angle_gamma   90.00000000
_symmetry_Int_Tables_number   1
_chemical_formula_structural   Cd
_chemical_formula_sum   Cd16
_cell_volume   719.47498015
_cell_formula_units_Z   16
loop_
 _symmetry_equiv_pos_site_id
 _symmetry_equiv_pos_as_xyz
  1  'x, y, z'
loop_
 _atom_site_type_symbol
 _atom_site_label
 _atom_site_symmetry_multiplicity
 _atom_site_fract_x
 _atom_site_fract_y
 _atom_site_fract_z
 _atom_site_occupancy
  Cd  Cd0  1  0.75000000  0.38335800  0.99217500  1.0
  Cd  Cd1  1  0.75000000  0.87327500  0.05152700  1.0
  Cd  Cd2  1  0.25000000  0.61664200  0.99217500  1.0
  Cd  Cd3  1  0.25000000  0.12672500  0.05152700  1.0
  Cd  Cd4  1  0.75000000  0.36381700  0.12252900  1.0
  Cd  Cd5  1  0.75000000  0.86064600  0.18515600  1.0
  Cd  Cd6  1  0.25000000  0.63618300  0.12252900  1.0
  Cd  Cd7  1  0.25000000  0.13935400  0.18515600  1.0
  Cd  Cd8  1  0.75000000  0.36064600  0.25234400  1.0
  Cd  Cd9  1  0.75000000  0.86381700  0.31497100  1.0
  Cd  Cd10  1  0.25000000  0.63935400  0.25234400  1.0
  Cd  Cd11  1  0.25000000  0.13618300  0.31497100  1.0
  Cd  Cd12  1  0.75000000  0.37327500  0.38597300  1.0
  Cd  Cd13  1  0.75000000  0.88335800  0.44532500  1.0
  Cd  Cd14  1  0.25000000  0.62672500  0.38597300  1.0
  Cd  Cd15  1  0.25000000  0.11664200  0.44532500  1.0
