# generated using pymatgen
data_Cd
_symmetry_space_group_name_H-M   'P 1'
_cell_length_a   3.00363593
_cell_length_b   8.33783626
_cell_length_c   31.11210127
_cell_angle_alpha   85.21694587
_cell_angle_beta   90.00000005
_cell_angle_gamma   68.88496007
_symmetry_Int_Tables_number   1
_chemical_formula_structural   Cd
_chemical_formula_sum   Cd16
_cell_volume   723.94257913
_cell_formula_units_Z   16
loop_
 _symmetry_equiv_pos_site_id
 _symmetry_equiv_pos_as_xyz
  1  'x, y, z'
loop_
 _atom_site_type_symbol
 _atom_site_label
 _atom_site_symmetry_multiplicity
 _atom_site_fract_x
 _atom_site_fract_y
 _atom_site_fract_z
 _atom_site_occupancy
  Cd  Cd0  1  0.20166800  0.79833200  0.11538400  1.0
  Cd  Cd1  1  0.39718000  0.10282000  0.05381900  1.0
  Cd  Cd2  1  0.95510800  0.54489200  0.18426000  1.0
  Cd  Cd3  1  0.74687800  0.25312200  0.24496900  1.0
  Cd  Cd4  1  0.49766500  0.00233500  0.18463500  1.0
  Cd  Cd5  1  0.70608800  0.29391200  0.12556900  1.0
  Cd  Cd6  1  0.16279300  0.83720700  0.00247700  1.0
  Cd  Cd7  1  0.96427400  0.53572600  0.05387500  1.0
  Cd  Cd8  1  0.29391200  0.70608800  0.37443100  1.0
  Cd  Cd9  1  0.50233500  0.99766500  0.31536500  1.0
  Cd  Cd10  1  0.03572600  0.46427400  0.44612500  1.0
  Cd  Cd11  1  0.83720700  0.16279300  0.49752300  1.0
  Cd  Cd12  1  0.60282000  0.89718000  0.44618100  1.0
  Cd  Cd13  1  0.79833200  0.20166800  0.38461600  1.0
  Cd  Cd14  1  0.25312200  0.74687800  0.25503100  1.0
  Cd  Cd15  1  0.04489200  0.45510800  0.31574000  1.0
