# generated using pymatgen
data_Cd
_symmetry_space_group_name_H-M   'P 1'
_cell_length_a   5.21917240
_cell_length_b   6.49837626
_cell_length_c   32.22894981
_cell_angle_alpha   82.60902254
_cell_angle_beta   89.99999618
_cell_angle_gamma   89.99999730
_symmetry_Int_Tables_number   1
_chemical_formula_structural   Cd
_chemical_formula_sum   Cd24
_cell_volume   1083.99982357
_cell_formula_units_Z   24
loop_
 _symmetry_equiv_pos_site_id
 _symmetry_equiv_pos_as_xyz
  1  'x, y, z'
loop_
 _atom_site_type_symbol
 _atom_site_label
 _atom_site_symmetry_multiplicity
 _atom_site_fract_x
 _atom_site_fract_y
 _atom_site_fract_z
 _atom_site_occupancy
  Cd  Cd0  1  0.65948500  0.07712200  0.39675500  1.0
  Cd  Cd1  1  0.66048500  0.53422900  0.13823600  1.0
  Cd  Cd2  1  0.24012900  0.02531600  0.46622300  1.0
  Cd  Cd3  1  0.14997400  0.62338100  0.18627300  1.0
  Cd  Cd4  1  0.64997400  0.87661900  0.31372700  1.0
  Cd  Cd5  1  0.74012900  0.47468400  0.03377700  1.0
  Cd  Cd6  1  0.74954000  0.26782800  0.47878500  1.0
  Cd  Cd7  1  0.65015600  0.70420300  0.22764000  1.0
  Cd  Cd8  1  0.16048500  0.96577100  0.36176400  1.0
  Cd  Cd9  1  0.15948500  0.42287800  0.10324500  1.0
  Cd  Cd10  1  0.15015600  0.79579700  0.27236000  1.0
  Cd  Cd11  1  0.24954000  0.23217200  0.02121500  1.0
  Cd  Cd12  1  0.85002600  0.37661900  0.31372700  1.0
  Cd  Cd13  1  0.75987100  0.97468400  0.03377700  1.0
  Cd  Cd14  1  0.33951500  0.46577100  0.36176400  1.0
  Cd  Cd15  1  0.34051500  0.92287800  0.10324500  1.0
  Cd  Cd16  1  0.75046000  0.76782800  0.47878500  1.0
  Cd  Cd17  1  0.84984400  0.20420300  0.22764000  1.0
  Cd  Cd18  1  0.84051500  0.57712200  0.39675500  1.0
  Cd  Cd19  1  0.83951500  0.03422900  0.13823600  1.0
  Cd  Cd20  1  0.34984400  0.29579700  0.27236000  1.0
  Cd  Cd21  1  0.25046000  0.73217200  0.02121500  1.0
  Cd  Cd22  1  0.25987100  0.52531600  0.46622300  1.0
  Cd  Cd23  1  0.35002600  0.12338100  0.18627300  1.0
