# generated using pymatgen
data_Cd
_symmetry_space_group_name_H-M   'P 1'
_cell_length_a   5.64841800
_cell_length_b   7.99152859
_cell_length_c   24.38918400
_cell_angle_alpha   79.00388222
_cell_angle_beta   90.00000000
_cell_angle_gamma   90.00000000
_symmetry_Int_Tables_number   1
_chemical_formula_structural   Cd
_chemical_formula_sum   Cd24
_cell_volume   1080.70273712
_cell_formula_units_Z   24
loop_
 _symmetry_equiv_pos_site_id
 _symmetry_equiv_pos_as_xyz
  1  'x, y, z'
loop_
 _atom_site_type_symbol
 _atom_site_label
 _atom_site_symmetry_multiplicity
 _atom_site_fract_x
 _atom_site_fract_y
 _atom_site_fract_z
 _atom_site_occupancy
  Cd  Cd0  1  0.75000000  0.63034000  0.01496600  1.0
  Cd  Cd1  1  0.75000000  0.28010700  0.08717900  1.0
  Cd  Cd2  1  0.75000000  0.96754000  0.04300300  1.0
  Cd  Cd3  1  0.25000000  0.78986700  0.01819500  1.0
  Cd  Cd4  1  0.25000000  0.44987200  0.09407300  1.0
  Cd  Cd5  1  0.25000000  0.11210600  0.06209000  1.0
  Cd  Cd6  1  0.75000000  0.58924100  0.14361800  1.0
  Cd  Cd7  1  0.75000000  0.24648300  0.22136500  1.0
  Cd  Cd8  1  0.75000000  0.92226300  0.17800400  1.0
  Cd  Cd9  1  0.25000000  0.76501800  0.14961600  1.0
  Cd  Cd10  1  0.25000000  0.42464600  0.22950500  1.0
  Cd  Cd11  1  0.25000000  0.09827300  0.19022500  1.0
  Cd  Cd12  1  0.75000000  0.57535400  0.27049500  1.0
  Cd  Cd13  1  0.75000000  0.23498200  0.35038400  1.0
  Cd  Cd14  1  0.75000000  0.90172700  0.30977500  1.0
  Cd  Cd15  1  0.25000000  0.75351700  0.27863500  1.0
  Cd  Cd16  1  0.25000000  0.41075900  0.35638200  1.0
  Cd  Cd17  1  0.25000000  0.07773700  0.32199700  1.0
  Cd  Cd18  1  0.75000000  0.55012800  0.40592700  1.0
  Cd  Cd19  1  0.75000000  0.21013300  0.48180500  1.0
  Cd  Cd20  1  0.75000000  0.88789400  0.43791000  1.0
  Cd  Cd21  1  0.25000000  0.71989300  0.41282100  1.0
  Cd  Cd22  1  0.25000000  0.36966000  0.48503400  1.0
  Cd  Cd23  1  0.25000000  0.03246000  0.45699700  1.0
