# generated using pymatgen
data_Li
_symmetry_space_group_name_H-M   'P 1'
_cell_length_a   3.42873200
_cell_length_b   3.42873200
_cell_length_c   34.28731500
_cell_angle_alpha   90.00000000
_cell_angle_beta   90.00000000
_cell_angle_gamma   90.00000000
_symmetry_Int_Tables_number   1
_chemical_formula_structural   Li
_chemical_formula_sum   Li10
_cell_volume   403.08863985
_cell_formula_units_Z   10
loop_
 _symmetry_equiv_pos_site_id
 _symmetry_equiv_pos_as_xyz
  1  'x, y, z'
loop_
 _atom_site_type_symbol
 _atom_site_label
 _atom_site_symmetry_multiplicity
 _atom_site_fract_x
 _atom_site_fract_y
 _atom_site_fract_z
 _atom_site_occupancy
  Li  Li0  1  0.50000000  0.50000000  0.27400900  1.0
  Li  Li1  1  0.00000000  0.00000000  0.32609300  1.0
  Li  Li2  1  0.50000000  0.50000000  0.37463300  1.0
  Li  Li3  1  0.00000000  0.00000000  0.42480300  1.0
  Li  Li4  1  0.50000000  0.50000000  0.47527600  1.0
  Li  Li5  1  0.00000000  0.00000000  0.52472400  1.0
  Li  Li6  1  0.50000000  0.50000000  0.57519700  1.0
  Li  Li7  1  0.00000000  0.00000000  0.62536700  1.0
  Li  Li8  1  0.50000000  0.50000000  0.67390700  1.0
  Li  Li9  1  0.00000000  0.00000000  0.72599100  1.0
