# generated using pymatgen
data_Cd
_symmetry_space_group_name_H-M   'P 1'
_cell_length_a   8.00596245
_cell_length_b   6.50462746
_cell_length_c   24.03798900
_cell_angle_alpha   103.35418819
_cell_angle_beta   79.18392565
_cell_angle_gamma   69.16034624
_symmetry_Int_Tables_number   1
_chemical_formula_structural   Cd
_chemical_formula_sum   Cd24
_cell_volume   1087.00293302
_cell_formula_units_Z   24
loop_
 _symmetry_equiv_pos_site_id
 _symmetry_equiv_pos_as_xyz
  1  'x, y, z'
loop_
 _atom_site_type_symbol
 _atom_site_label
 _atom_site_symmetry_multiplicity
 _atom_site_fract_x
 _atom_site_fract_y
 _atom_site_fract_z
 _atom_site_occupancy
  Cd  Cd0  1  0.98876500  0.34640000  0.08669100  1.0
  Cd  Cd1  1  0.33095500  0.31923000  0.12193200  1.0
  Cd  Cd2  1  0.65145000  0.38716000  0.04476500  1.0
  Cd  Cd3  1  0.63012700  0.93280200  0.00429700  1.0
  Cd  Cd4  1  0.97528000  0.87954100  0.03307100  1.0
  Cd  Cd5  1  0.31760500  0.83192400  0.06407400  1.0
  Cd  Cd6  1  0.00429300  0.26920100  0.21249500  1.0
  Cd  Cd7  1  0.33743500  0.24701700  0.25315600  1.0
  Cd  Cd8  1  0.66210100  0.29685900  0.17242800  1.0
  Cd  Cd9  1  0.64499700  0.82943500  0.12459100  1.0
  Cd  Cd10  1  0.99292200  0.80131700  0.15793700  1.0
  Cd  Cd11  1  0.32314900  0.77822800  0.20184500  1.0
  Cd  Cd12  1  0.00707800  0.19868300  0.34206300  1.0
  Cd  Cd13  1  0.35500300  0.17056500  0.37540900  1.0
  Cd  Cd14  1  0.67685100  0.22177200  0.29815500  1.0
  Cd  Cd15  1  0.66256500  0.75298300  0.24684400  1.0
  Cd  Cd16  1  0.99570700  0.73079900  0.28750500  1.0
  Cd  Cd17  1  0.33789900  0.70314100  0.32757200  1.0
  Cd  Cd18  1  0.02472000  0.12045900  0.46692900  1.0
  Cd  Cd19  1  0.36987300  0.06719800  0.49570300  1.0
  Cd  Cd20  1  0.68239500  0.16807600  0.43592600  1.0
  Cd  Cd21  1  0.66904500  0.68077000  0.37806800  1.0
  Cd  Cd22  1  0.01123500  0.65360000  0.41330900  1.0
  Cd  Cd23  1  0.34855000  0.61284000  0.45523500  1.0
