# generated using pymatgen
data_Cd
_symmetry_space_group_name_H-M   'P 1'
_cell_length_a   5.24133100
_cell_length_b   11.91349216
_cell_length_c   23.98340700
_cell_angle_alpha   97.22814815
_cell_angle_beta   90.00000000
_cell_angle_gamma   77.29246218
_symmetry_Int_Tables_number   1
_chemical_formula_structural   Cd
_chemical_formula_sum   Cd32
_cell_volume   1448.70017833
_cell_formula_units_Z   32
loop_
 _symmetry_equiv_pos_site_id
 _symmetry_equiv_pos_as_xyz
  1  'x, y, z'
loop_
 _atom_site_type_symbol
 _atom_site_label
 _atom_site_symmetry_multiplicity
 _atom_site_fract_x
 _atom_site_fract_y
 _atom_site_fract_z
 _atom_site_occupancy
  Cd  Cd0  1  0.75832200  0.63467200  0.06031800  1.0
  Cd  Cd1  1  0.05574900  0.15881100  0.09809200  1.0
  Cd  Cd2  1  0.53750800  0.18286900  0.03095600  1.0
  Cd  Cd3  1  0.20865000  0.71841800  0.02192000  1.0
  Cd  Cd4  1  0.44790700  0.91647300  0.07226100  1.0
  Cd  Cd5  1  0.69388300  0.40000100  0.10088900  1.0
  Cd  Cd6  1  0.18633600  0.41748800  0.03842400  1.0
  Cd  Cd7  1  0.91777900  0.96026200  0.01309400  1.0
  Cd  Cd8  1  0.80251600  0.62954300  0.20028800  1.0
  Cd  Cd9  1  0.06703100  0.11777100  0.22722700  1.0
  Cd  Cd10  1  0.56455800  0.13009900  0.16363800  1.0
  Cd  Cd11  1  0.29301800  0.63289800  0.13832500  1.0
  Cd  Cd12  1  0.43930700  0.87325400  0.20445900  1.0
  Cd  Cd13  1  0.69839400  0.37153200  0.23132900  1.0
  Cd  Cd14  1  0.19739300  0.38562300  0.17085100  1.0
  Cd  Cd15  1  0.93861700  0.88144700  0.14143300  1.0
  Cd  Cd16  1  0.80260700  0.61437700  0.32914900  1.0
  Cd  Cd17  1  0.06138300  0.11855300  0.35856700  1.0
  Cd  Cd18  1  0.56069300  0.12674600  0.29554000  1.0
  Cd  Cd19  1  0.30160600  0.62846800  0.26867100  1.0
  Cd  Cd20  1  0.43544200  0.86990100  0.33636200  1.0
  Cd  Cd21  1  0.70698200  0.36710200  0.36167500  1.0
  Cd  Cd22  1  0.19748400  0.37045700  0.29971200  1.0
  Cd  Cd23  1  0.93296900  0.88222900  0.27277300  1.0
  Cd  Cd24  1  0.81366400  0.58251200  0.46157500  1.0
  Cd  Cd25  1  0.08222100  0.03973800  0.48690500  1.0
  Cd  Cd26  1  0.55209300  0.08352700  0.42773800  1.0
  Cd  Cd27  1  0.30611700  0.59999900  0.39911000  1.0
  Cd  Cd28  1  0.46249200  0.81713100  0.46904400  1.0
  Cd  Cd29  1  0.79135000  0.28158200  0.47808000  1.0
  Cd  Cd30  1  0.24167800  0.36532800  0.43968200  1.0
  Cd  Cd31  1  0.94425100  0.84118900  0.40190800  1.0
