# generated using pymatgen
data_Cd
_symmetry_space_group_name_H-M   'P 1'
_cell_length_a   2.99796761
_cell_length_b   11.91286723
_cell_length_c   20.96519075
_cell_angle_alpha   102.70813643
_cell_angle_beta   89.99999454
_cell_angle_gamma   82.77137377
_symmetry_Int_Tables_number   1
_chemical_formula_structural   Cd
_chemical_formula_sum   Cd16
_cell_volume   724.31502909
_cell_formula_units_Z   16
loop_
 _symmetry_equiv_pos_site_id
 _symmetry_equiv_pos_as_xyz
  1  'x, y, z'
loop_
 _atom_site_type_symbol
 _atom_site_label
 _atom_site_symmetry_multiplicity
 _atom_site_fract_x
 _atom_site_fract_y
 _atom_site_fract_z
 _atom_site_occupancy
  Cd  Cd0  1  0.40222900  0.19554200  0.08685200  1.0
  Cd  Cd1  1  0.18899500  0.62201000  0.09674200  1.0
  Cd  Cd2  1  0.95524700  0.08950700  0.20320200  1.0
  Cd  Cd3  1  0.65987900  0.68024200  0.24220200  1.0
  Cd  Cd4  1  0.78477300  0.43045400  0.15624700  1.0
  Cd  Cd5  1  0.57208500  0.85582900  0.14217800  1.0
  Cd  Cd6  1  0.30988100  0.38023800  0.99879200  1.0
  Cd  Cd7  1  0.01876600  0.96246800  0.03574400  1.0
  Cd  Cd8  1  0.42791500  0.14417100  0.35782200  1.0
  Cd  Cd9  1  0.21522700  0.56954600  0.34375300  1.0
  Cd  Cd10  1  0.98123400  0.03753200  0.46425600  1.0
  Cd  Cd11  1  0.69011900  0.61976200  0.50120800  1.0
  Cd  Cd12  1  0.81100500  0.37799000  0.40325800  1.0
  Cd  Cd13  1  0.59777100  0.80445800  0.41314800  1.0
  Cd  Cd14  1  0.34012100  0.31975800  0.25779800  1.0
  Cd  Cd15  1  0.04475300  0.91049300  0.29679800  1.0
