# generated using pymatgen
data_Cd
_symmetry_space_group_name_H-M   'P 1'
_cell_length_a   3.03126432
_cell_length_b   5.67742600
_cell_length_c   24.25011866
_cell_angle_alpha   90.00000000
_cell_angle_beta   120.00000441
_cell_angle_gamma   90.00000000
_symmetry_Int_Tables_number   1
_chemical_formula_structural   Cd
_chemical_formula_sum   Cd8
_cell_volume   361.42631542
_cell_formula_units_Z   8
loop_
 _symmetry_equiv_pos_site_id
 _symmetry_equiv_pos_as_xyz
  1  'x, y, z'
loop_
 _atom_site_type_symbol
 _atom_site_label
 _atom_site_symmetry_multiplicity
 _atom_site_fract_x
 _atom_site_fract_y
 _atom_site_fract_z
 _atom_site_occupancy
  Cd  Cd0  1  0.70692900  0.25000000  0.05173200  1.0
  Cd  Cd1  1  0.20591500  0.75000000  0.05147800  1.0
  Cd  Cd2  1  0.73907600  0.25000000  0.18476900  1.0
  Cd  Cd3  1  0.23903000  0.75000000  0.18475700  1.0
  Cd  Cd4  1  0.76097000  0.25000000  0.31524300  1.0
  Cd  Cd5  1  0.26092400  0.75000000  0.31523100  1.0
  Cd  Cd6  1  0.79408500  0.25000000  0.44852200  1.0
  Cd  Cd7  1  0.29307100  0.75000000  0.44826800  1.0
