# generated using pymatgen
data_Cd
_symmetry_space_group_name_H-M   'P 1'
_cell_length_a   3.02820076
_cell_length_b   6.44054664
_cell_length_c   30.28200646
_cell_angle_alpha   118.04582548
_cell_angle_beta   120.00000875
_cell_angle_gamma   76.40313583
_symmetry_Int_Tables_number   1
_chemical_formula_structural   Cd
_chemical_formula_sum   Cd10
_cell_volume   451.41157780
_cell_formula_units_Z   10
loop_
 _symmetry_equiv_pos_site_id
 _symmetry_equiv_pos_as_xyz
  1  'x, y, z'
loop_
 _atom_site_type_symbol
 _atom_site_label
 _atom_site_symmetry_multiplicity
 _atom_site_fract_x
 _atom_site_fract_y
 _atom_site_fract_z
 _atom_site_occupancy
  Cd  Cd0  1  0.68595800  0.27463600  0.06450500  1.0
  Cd  Cd1  1  0.20728300  0.80609700  0.02211900  1.0
  Cd  Cd2  1  0.73244400  0.23790600  0.17023500  1.0
  Cd  Cd3  1  0.22411800  0.74590300  0.11944100  1.0
  Cd  Cd4  1  0.75400000  0.25720400  0.27650700  1.0
  Cd  Cd5  1  0.24600000  0.74279600  0.22349300  1.0
  Cd  Cd6  1  0.77588200  0.25409700  0.38055900  1.0
  Cd  Cd7  1  0.26755600  0.76209400  0.32976500  1.0
  Cd  Cd8  1  0.79271700  0.19390300  0.47788100  1.0
  Cd  Cd9  1  0.31404200  0.72536400  0.43549500  1.0
