# generated using pymatgen
data_Cd
_symmetry_space_group_name_H-M   'P 1'
_cell_length_a   3.03129400
_cell_length_b   3.03129347
_cell_length_c   45.41981200
_cell_angle_alpha   90.00000000
_cell_angle_beta   90.00000000
_cell_angle_gamma   120.00000577
_symmetry_Int_Tables_number   1
_chemical_formula_structural   Cd
_chemical_formula_sum   Cd8
_cell_volume   361.43647877
_cell_formula_units_Z   8
loop_
 _symmetry_equiv_pos_site_id
 _symmetry_equiv_pos_as_xyz
  1  'x, y, z'
loop_
 _atom_site_type_symbol
 _atom_site_label
 _atom_site_symmetry_multiplicity
 _atom_site_fract_x
 _atom_site_fract_y
 _atom_site_fract_z
 _atom_site_occupancy
  Cd  Cd0  1  0.33333333  0.66666667  0.27586700  1.0
  Cd  Cd1  1  0.66666667  0.33333333  0.33879300  1.0
  Cd  Cd2  1  0.33333333  0.66666667  0.40201000  1.0
  Cd  Cd3  1  0.66666667  0.33333333  0.46647500  1.0
  Cd  Cd4  1  0.33333333  0.66666667  0.53352500  1.0
  Cd  Cd5  1  0.66666667  0.33333333  0.59799000  1.0
  Cd  Cd6  1  0.33333333  0.66666667  0.66120700  1.0
  Cd  Cd7  1  0.66666667  0.33333333  0.72413300  1.0
