# generated using pymatgen
data_Li
_symmetry_space_group_name_H-M   'P 1'
_cell_length_a   4.32428000
_cell_length_b   6.83728702
_cell_length_c   24.65218894
_cell_angle_alpha   93.17983012
_cell_angle_beta   90.00000000
_cell_angle_gamma   90.00000000
_symmetry_Int_Tables_number   1
_chemical_formula_structural   Li
_chemical_formula_sum   Li18
_cell_volume   727.75287640
_cell_formula_units_Z   18
loop_
 _symmetry_equiv_pos_site_id
 _symmetry_equiv_pos_as_xyz
  1  'x, y, z'
loop_
 _atom_site_type_symbol
 _atom_site_label
 _atom_site_symmetry_multiplicity
 _atom_site_fract_x
 _atom_site_fract_y
 _atom_site_fract_z
 _atom_site_occupancy
  Li  Li0  1  0.00000000  0.98582100  0.34686100  1.0
  Li  Li1  1  0.00000000  0.38143300  0.29215500  1.0
  Li  Li2  1  0.00000000  0.59641900  0.40331900  1.0
  Li  Li3  1  0.50000000  0.67852700  0.31963700  1.0
  Li  Li4  1  0.50000000  0.06801900  0.26369700  1.0
  Li  Li5  1  0.50000000  0.28981900  0.37381000  1.0
  Li  Li6  1  0.00000000  0.81983400  0.51404400  1.0
  Li  Li7  1  0.00000000  0.20826100  0.45872500  1.0
  Li  Li8  1  0.00000000  0.43137800  0.56949200  1.0
  Li  Li9  1  0.50000000  0.51350000  0.48595600  1.0
  Li  Li10  1  0.50000000  0.90195600  0.43050800  1.0
  Li  Li11  1  0.50000000  0.12507100  0.54127500  1.0
  Li  Li12  1  0.00000000  0.65480700  0.68036300  1.0
  Li  Li13  1  0.00000000  0.04351300  0.62619000  1.0
  Li  Li14  1  0.00000000  0.26531500  0.73630300  1.0
  Li  Li15  1  0.50000000  0.34751300  0.65313900  1.0
  Li  Li16  1  0.50000000  0.73691500  0.59668100  1.0
  Li  Li17  1  0.50000000  0.95189900  0.70784500  1.0
