# generated using pymatgen
data_Li
_symmetry_space_group_name_H-M   'P 1'
_cell_length_a   3.05772771
_cell_length_b   6.83728702
_cell_length_c   23.88161687
_cell_angle_alpha   86.71745780
_cell_angle_beta   86.32950349
_cell_angle_gamma   77.07903362
_symmetry_Int_Tables_number   1
_chemical_formula_structural   Li
_chemical_formula_sum   Li12
_cell_volume   485.16858392
_cell_formula_units_Z   12
loop_
 _symmetry_equiv_pos_site_id
 _symmetry_equiv_pos_as_xyz
  1  'x, y, z'
loop_
 _atom_site_type_symbol
 _atom_site_label
 _atom_site_symmetry_multiplicity
 _atom_site_fract_x
 _atom_site_fract_y
 _atom_site_fract_z
 _atom_site_occupancy
  Li  Li0  1  0.64509300  0.43421900  0.27559300  1.0
  Li  Li1  1  0.34537600  0.00159800  0.30765300  1.0
  Li  Li2  1  0.00161800  0.51637500  0.48038900  1.0
  Li  Li3  1  0.99654700  0.64520600  0.36170000  1.0
  Li  Li4  1  0.67408300  0.26022400  0.39160800  1.0
  Li  Li5  1  0.33232600  0.89674600  0.43860500  1.0
  Li  Li6  1  0.66504800  0.15029100  0.51961100  1.0
  Li  Li7  1  0.33434200  0.76992200  0.56139500  1.0
  Li  Li8  1  0.02157300  0.23244700  0.72440700  1.0
  Li  Li9  1  0.99258300  0.40644200  0.60839200  1.0
  Li  Li10  1  0.67011900  0.02146000  0.63830000  1.0
  Li  Li11  1  0.32129200  0.66507000  0.69234700  1.0
