# generated using pymatgen
data_Li
_symmetry_space_group_name_H-M   'P 1'
_cell_length_a   3.05772771
_cell_length_b   3.05772771
_cell_length_c   25.94568000
_cell_angle_alpha   90.00000000
_cell_angle_beta   90.00000000
_cell_angle_gamma   90.00000000
_symmetry_Int_Tables_number   1
_chemical_formula_structural   Li
_chemical_formula_sum   Li6
_cell_volume   242.58429183
_cell_formula_units_Z   6
loop_
 _symmetry_equiv_pos_site_id
 _symmetry_equiv_pos_as_xyz
  1  'x, y, z'
loop_
 _atom_site_type_symbol
 _atom_site_label
 _atom_site_symmetry_multiplicity
 _atom_site_fract_x
 _atom_site_fract_y
 _atom_site_fract_z
 _atom_site_occupancy
  Li  Li0  1  0.00000000  0.00000000  0.62500000  1.0
  Li  Li1  1  0.50000000  0.50000000  0.70833300  1.0
  Li  Li2  1  0.00000000  0.00000000  0.45833300  1.0
  Li  Li3  1  0.50000000  0.50000000  0.54166700  1.0
  Li  Li4  1  0.00000000  0.00000000  0.29166700  1.0
  Li  Li5  1  0.50000000  0.50000000  0.37500000  1.0
