# generated using pymatgen
data_Li
_symmetry_space_group_name_H-M   'P 1'
_cell_length_a   3.05772771
_cell_length_b   14.34201425
_cell_length_c   29.95949066
_cell_angle_alpha   100.02498786
_cell_angle_beta   90.00000000
_cell_angle_gamma   90.00000000
_symmetry_Int_Tables_number   1
_chemical_formula_structural   Li
_chemical_formula_sum   Li32
_cell_volume   1293.78289042
_cell_formula_units_Z   32
loop_
 _symmetry_equiv_pos_site_id
 _symmetry_equiv_pos_as_xyz
  1  'x, y, z'
loop_
 _atom_site_type_symbol
 _atom_site_label
 _atom_site_symmetry_multiplicity
 _atom_site_fract_x
 _atom_site_fract_y
 _atom_site_fract_z
 _atom_site_occupancy
  Li  Li0  1  0.00000000  0.63782500  0.72472000  1.0
  Li  Li1  1  0.00000000  0.86677700  0.65500100  1.0
  Li  Li2  1  0.00000000  0.24337300  0.69154200  1.0
  Li  Li3  1  0.00000000  0.50194700  0.63339700  1.0
  Li  Li4  1  0.00000000  0.74590700  0.56856500  1.0
  Li  Li5  1  0.00000000  0.00077700  0.50813400  1.0
  Li  Li6  1  0.00000000  0.11840400  0.60550200  1.0
  Li  Li7  1  0.00000000  0.37510100  0.53902000  1.0
  Li  Li8  1  0.50000000  0.68788000  0.64866800  1.0
  Li  Li9  1  0.50000000  0.93449800  0.58346800  1.0
  Li  Li10  1  0.50000000  0.31217800  0.61703000  1.0
  Li  Li11  1  0.50000000  0.56174800  0.55512900  1.0
  Li  Li12  1  0.50000000  0.84069900  0.73350900  1.0
  Li  Li13  1  0.50000000  0.04373100  0.68522300  1.0
  Li  Li14  1  0.50000000  0.18650700  0.52500400  1.0
  Li  Li15  1  0.50000000  0.43904200  0.70680100  1.0
  Li  Li16  1  0.00000000  0.62599300  0.47499600  1.0
  Li  Li17  1  0.00000000  0.87800200  0.41653200  1.0
  Li  Li18  1  0.00000000  0.25075200  0.44487100  1.0
  Li  Li19  1  0.00000000  0.50032200  0.38297000  1.0
  Li  Li20  1  0.00000000  0.76876900  0.31477700  1.0
  Li  Li21  1  0.00000000  0.97180100  0.26649100  1.0
  Li  Li22  1  0.00000000  0.12462000  0.35133200  1.0
  Li  Li23  1  0.00000000  0.37345800  0.29319900  1.0
  Li  Li24  1  0.50000000  0.69409600  0.39449800  1.0
  Li  Li25  1  0.50000000  0.94572300  0.34499900  1.0
  Li  Li26  1  0.50000000  0.31055300  0.36660300  1.0
  Li  Li27  1  0.50000000  0.56912700  0.30845800  1.0
  Li  Li28  1  0.50000000  0.81172300  0.49186600  1.0
  Li  Li29  1  0.50000000  0.06659300  0.43143500  1.0
  Li  Li30  1  0.50000000  0.17467500  0.27528000  1.0
  Li  Li31  1  0.50000000  0.43739900  0.46098000  1.0
