# generated using pymatgen
data_Li
_symmetry_space_group_name_H-M   'P 1'
_cell_length_a   3.05772771
_cell_length_b   5.29613975
_cell_length_c   23.48685221
_cell_angle_alpha   92.15381448
_cell_angle_beta   90.00000000
_cell_angle_gamma   106.77865488
_symmetry_Int_Tables_number   1
_chemical_formula_structural   Li
_chemical_formula_sum   Li9
_cell_volume   363.87643776
_cell_formula_units_Z   9
loop_
 _symmetry_equiv_pos_site_id
 _symmetry_equiv_pos_as_xyz
  1  'x, y, z'
loop_
 _atom_site_type_symbol
 _atom_site_label
 _atom_site_symmetry_multiplicity
 _atom_site_fract_x
 _atom_site_fract_y
 _atom_site_fract_z
 _atom_site_occupancy
  Li  Li0  1  0.60947200  0.21894400  0.38787900  1.0
  Li  Li1  1  0.05957600  0.11915100  0.27857800  1.0
  Li  Li2  1  0.33149000  0.66298200  0.33321000  1.0
  Li  Li3  1  0.44522500  0.89045200  0.55542600  1.0
  Li  Li4  1  0.88810800  0.77621500  0.44457400  1.0
  Li  Li5  1  0.16666700  0.33333333  0.50000000  1.0
  Li  Li6  1  0.27375800  0.54751600  0.72142200  1.0
  Li  Li7  1  0.72386100  0.44772300  0.61212100  1.0
  Li  Li8  1  0.00184300  0.00368500  0.66679000  1.0
