# generated using pymatgen
data_Li
_symmetry_space_group_name_H-M   'P 1'
_cell_length_a   3.05772771
_cell_length_b   12.60733433
_cell_length_c   25.21466866
_cell_angle_alpha   93.37228668
_cell_angle_beta   90.00000000
_cell_angle_gamma   90.00000000
_symmetry_Int_Tables_number   1
_chemical_formula_structural   Li
_chemical_formula_sum   Li24
_cell_volume   970.33716787
_cell_formula_units_Z   24
loop_
 _symmetry_equiv_pos_site_id
 _symmetry_equiv_pos_as_xyz
  1  'x, y, z'
loop_
 _atom_site_type_symbol
 _atom_site_label
 _atom_site_symmetry_multiplicity
 _atom_site_fract_x
 _atom_site_fract_y
 _atom_site_fract_z
 _atom_site_occupancy
  Li  Li0  1  0.00000000  0.72979600  0.36254000  1.0
  Li  Li1  1  0.00000000  0.31459000  0.32415300  1.0
  Li  Li2  1  0.00000000  0.89287900  0.28323800  1.0
  Li  Li3  1  0.50000000  0.52386500  0.34397500  1.0
  Li  Li4  1  0.50000000  0.10363900  0.30439200  1.0
  Li  Li5  1  0.50000000  0.68075500  0.26330300  1.0
  Li  Li6  1  0.00000000  0.98007000  0.48978900  1.0
  Li  Li7  1  0.00000000  0.56221600  0.44741900  1.0
  Li  Li8  1  0.00000000  0.14705800  0.40455600  1.0
  Li  Li9  1  0.50000000  0.77077800  0.46832100  1.0
  Li  Li10  1  0.50000000  0.35452300  0.42599700  1.0
  Li  Li11  1  0.50000000  0.93939200  0.38441900  1.0
  Li  Li12  1  0.00000000  0.22741300  0.61557600  1.0
  Li  Li13  1  0.00000000  0.81209900  0.57402000  1.0
  Li  Li14  1  0.00000000  0.39577400  0.53167400  1.0
  Li  Li15  1  0.50000000  0.01986100  0.59546300  1.0
  Li  Li16  1  0.50000000  0.60417900  0.55257800  1.0
  Li  Li17  1  0.50000000  0.18680800  0.51022600  1.0
  Li  Li18  1  0.00000000  0.48578300  0.73666700  1.0
  Li  Li19  1  0.00000000  0.06329100  0.69562600  1.0
  Li  Li20  1  0.00000000  0.64258600  0.65603200  1.0
  Li  Li21  1  0.50000000  0.27385400  0.71668100  1.0
  Li  Li22  1  0.50000000  0.85212000  0.67592500  1.0
  Li  Li23  1  0.50000000  0.43667100  0.63743000  1.0
