# generated using pymatgen
data_Li
_symmetry_space_group_name_H-M   'P 1'
_cell_length_a   4.32428000
_cell_length_b   5.29613975
_cell_length_c   23.28696047
_cell_angle_alpha   94.34775315
_cell_angle_beta   90.00000000
_cell_angle_gamma   114.09484255
_symmetry_Int_Tables_number   1
_chemical_formula_structural   Li
_chemical_formula_sum   Li12
_cell_volume   485.16858394
_cell_formula_units_Z   12
loop_
 _symmetry_equiv_pos_site_id
 _symmetry_equiv_pos_as_xyz
  1  'x, y, z'
loop_
 _atom_site_type_symbol
 _atom_site_label
 _atom_site_symmetry_multiplicity
 _atom_site_fract_x
 _atom_site_fract_y
 _atom_site_fract_z
 _atom_site_occupancy
  Li  Li0  1  0.06016700  0.12033600  0.39484400  1.0
  Li  Li1  1  0.64774700  0.29549400  0.31362100  1.0
  Li  Li2  1  0.47939400  0.95878600  0.47963200  1.0
  Li  Li3  1  0.35332800  0.70665500  0.35382300  1.0
  Li  Li4  1  0.93805600  0.87611400  0.27027500  1.0
  Li  Li5  1  0.77049800  0.54099600  0.43757500  1.0
  Li  Li6  1  0.31333900  0.62667900  0.64617700  1.0
  Li  Li7  1  0.89616800  0.79233600  0.56242500  1.0
  Li  Li8  1  0.72861100  0.45722000  0.72972500  1.0
  Li  Li9  1  0.60650000  0.21299800  0.60515600  1.0
  Li  Li10  1  0.18727300  0.37454800  0.52036800  1.0
  Li  Li11  1  0.01891900  0.03783800  0.68637900  1.0
