# generated using pymatgen
data_Mg
_symmetry_space_group_name_H-M   'P 1'
_cell_length_a   3.10169285
_cell_length_b   5.05249291
_cell_length_c   34.87311014
_cell_angle_alpha   90.00000000
_cell_angle_beta   90.31057039
_cell_angle_gamma   90.00000000
_symmetry_Int_Tables_number   1
_chemical_formula_structural   Mg
_chemical_formula_sum   Mg12
_cell_volume   546.49828442
_cell_formula_units_Z   12
loop_
 _symmetry_equiv_pos_site_id
 _symmetry_equiv_pos_as_xyz
  1  'x, y, z'
loop_
 _atom_site_type_symbol
 _atom_site_label
 _atom_site_symmetry_multiplicity
 _atom_site_fract_x
 _atom_site_fract_y
 _atom_site_fract_z
 _atom_site_occupancy
  Mg  Mg0  1  0.16037600  0.99996700  0.75570500  1.0
  Mg  Mg1  1  0.64621800  0.49994400  0.94761000  1.0
  Mg  Mg2  1  0.14445800  0.99968900  0.92122300  1.0
  Mg  Mg3  1  0.14644800  0.49985000  0.86631300  1.0
  Mg  Mg4  1  0.64303400  0.99988400  0.83848700  1.0
  Mg  Mg5  1  0.66447000  0.49980800  0.78469200  1.0
  Mg  Mg6  1  0.68589500  0.00024900  0.51062700  1.0
  Mg  Mg7  1  0.17774500  0.50003000  0.70259800  1.0
  Mg  Mg8  1  0.67091800  0.00008100  0.67362700  1.0
  Mg  Mg9  1  0.68814400  0.50014000  0.61990000  1.0
  Mg  Mg10  1  0.18451100  0.00017300  0.59200100  1.0
  Mg  Mg11  1  0.18778100  0.50018600  0.53721600  1.0
