# generated using pymatgen
data_Mg
_symmetry_space_group_name_H-M   'P 1'
_cell_length_a   4.55071562
_cell_length_b   9.62683201
_cell_length_c   39.90610031
_cell_angle_alpha   77.21763307
_cell_angle_beta   90.07970357
_cell_angle_gamma   76.15791847
_symmetry_Int_Tables_number   1
_chemical_formula_structural   Mg
_chemical_formula_sum   Mg36
_cell_volume   1652.68003259
_cell_formula_units_Z   36
loop_
 _symmetry_equiv_pos_site_id
 _symmetry_equiv_pos_as_xyz
  1  'x, y, z'
loop_
 _atom_site_type_symbol
 _atom_site_label
 _atom_site_symmetry_multiplicity
 _atom_site_fract_x
 _atom_site_fract_y
 _atom_site_fract_z
 _atom_site_occupancy
  Mg  Mg0  1  0.77868100  0.44218600  0.02953600  1.0
  Mg  Mg1  1  0.55555200  0.88745700  0.05191000  1.0
  Mg  Mg2  1  0.99982700  0.00021200  0.24968200  1.0
  Mg  Mg3  1  0.33309100  0.33379400  0.08508000  1.0
  Mg  Mg4  1  0.11142100  0.77835900  0.10992600  1.0
  Mg  Mg5  1  0.88886200  0.22243700  0.13852200  1.0
  Mg  Mg6  1  0.66616400  0.66880200  0.16652300  1.0
  Mg  Mg7  1  0.44483700  0.11185400  0.19381100  1.0
  Mg  Mg8  1  0.22192900  0.55665500  0.22232900  1.0
  Mg  Mg9  1  0.72098200  0.55745500  0.09752600  1.0
  Mg  Mg10  1  0.50057000  0.00000600  0.12334100  1.0
  Mg  Mg11  1  0.94691300  0.10612500  0.06796900  1.0
  Mg  Mg12  1  0.27676400  0.44758800  0.15314600  1.0
  Mg  Mg13  1  0.05547800  0.88969900  0.17975400  1.0
  Mg  Mg14  1  0.83320700  0.33431800  0.20845500  1.0
  Mg  Mg15  1  0.61133800  0.77803800  0.23591000  1.0
  Mg  Mg16  1  0.38598500  0.22567700  0.01691500  1.0
  Mg  Mg17  1  0.16839800  0.66080700  0.04136000  1.0
  Mg  Mg18  1  0.77814900  0.44419700  0.27798000  1.0
  Mg  Mg19  1  0.55564400  0.88794400  0.30541400  1.0
  Mg  Mg20  1  0.00274300  0.99638000  0.49702400  1.0
  Mg  Mg21  1  0.33320000  0.33259500  0.33414400  1.0
  Mg  Mg22  1  0.11236600  0.77505600  0.36070500  1.0
  Mg  Mg23  1  0.88790200  0.22230000  0.39054000  1.0
  Mg  Mg24  1  0.66735500  0.66509300  0.41631100  1.0
  Mg  Mg25  1  0.44232900  0.11552000  0.44593000  1.0
  Mg  Mg26  1  0.22002400  0.56113300  0.47253800  1.0
  Mg  Mg27  1  0.72250800  0.55332700  0.34737100  1.0
  Mg  Mg28  1  0.49981400  0.00006100  0.37529200  1.0
  Mg  Mg29  1  0.94439700  0.11081300  0.32004200  1.0
  Mg  Mg30  1  0.27794500  0.44360600  0.40399100  1.0
  Mg  Mg31  1  0.05563400  0.88834500  0.42881600  1.0
  Mg  Mg32  1  0.83329500  0.33464200  0.46201500  1.0
  Mg  Mg33  1  0.61120100  0.77930500  0.48445200  1.0
  Mg  Mg34  1  0.38890300  0.22229500  0.26418300  1.0
  Mg  Mg35  1  0.16659400  0.66591700  0.29155700  1.0
