# generated using pymatgen
data_Mg
_symmetry_space_group_name_H-M   'P 1'
_cell_length_a   3.46139300
_cell_length_b   8.11197745
_cell_length_c   32.44791112
_cell_angle_alpha   89.99999921
_cell_angle_beta   90.00000000
_cell_angle_gamma   90.00000000
_symmetry_Int_Tables_number   1
_chemical_formula_structural   Mg
_chemical_formula_sum   Mg20
_cell_volume   911.09652353
_cell_formula_units_Z   20
loop_
 _symmetry_equiv_pos_site_id
 _symmetry_equiv_pos_as_xyz
  1  'x, y, z'
loop_
 _atom_site_type_symbol
 _atom_site_label
 _atom_site_symmetry_multiplicity
 _atom_site_fract_x
 _atom_site_fract_y
 _atom_site_fract_z
 _atom_site_occupancy
  Mg  Mg0  1  0.00000000  0.59848400  0.19879400  1.0
  Mg  Mg1  1  0.00000000  0.20954100  0.15752500  1.0
  Mg  Mg2  1  0.00000000  0.78776900  0.09205800  1.0
  Mg  Mg3  1  0.00000000  0.39135100  0.04247700  1.0
  Mg  Mg4  1  0.00000000  0.01216900  0.00680900  1.0
  Mg  Mg5  1  0.50000000  0.49305600  0.12133400  1.0
  Mg  Mg6  1  0.50000000  0.10977000  0.08228300  1.0
  Mg  Mg7  1  0.50000000  0.69466000  0.01493500  1.0
  Mg  Mg8  1  0.50000000  0.31068900  0.23266300  1.0
  Mg  Mg9  1  0.50000000  0.89036700  0.16702300  1.0
  Mg  Mg10  1  0.00000000  0.60534000  0.46006500  1.0
  Mg  Mg11  1  0.00000000  0.19023000  0.39271700  1.0
  Mg  Mg12  1  0.00000000  0.80694400  0.35366600  1.0
  Mg  Mg13  1  0.00000000  0.40963300  0.30797700  1.0
  Mg  Mg14  1  0.00000000  0.98931100  0.24233700  1.0
  Mg  Mg15  1  0.50000000  0.51223100  0.38294200  1.0
  Mg  Mg16  1  0.50000000  0.09045900  0.31747500  1.0
  Mg  Mg17  1  0.50000000  0.70151600  0.27620600  1.0
  Mg  Mg18  1  0.50000000  0.28783100  0.46819100  1.0
  Mg  Mg19  1  0.50000000  0.90864900  0.43252300  1.0
