# generated using pymatgen
data_Mg
_symmetry_space_group_name_H-M   'P 1'
_cell_length_a   5.13896500
_cell_length_b   10.66071945
_cell_length_c   25.81351654
_cell_angle_alpha   95.01270976
_cell_angle_beta   90.00000000
_cell_angle_gamma   103.94695211
_symmetry_Int_Tables_number   1
_chemical_formula_structural   Mg
_chemical_formula_sum   Mg36
_cell_volume   1366.92991561
_cell_formula_units_Z   36
loop_
 _symmetry_equiv_pos_site_id
 _symmetry_equiv_pos_as_xyz
  1  'x, y, z'
loop_
 _atom_site_type_symbol
 _atom_site_label
 _atom_site_symmetry_multiplicity
 _atom_site_fract_x
 _atom_site_fract_y
 _atom_site_fract_z
 _atom_site_occupancy
  Mg  Mg0  1  0.69806500  0.39613100  0.28176300  1.0
  Mg  Mg1  1  0.40858400  0.81716900  0.25831300  1.0
  Mg  Mg2  1  0.11721100  0.23442300  0.22941600  1.0
  Mg  Mg3  1  0.96863400  0.93727000  0.21535700  1.0
  Mg  Mg4  1  0.55114800  0.10229600  0.26632900  1.0
  Mg  Mg5  1  0.26320800  0.52641700  0.24465700  1.0
  Mg  Mg6  1  0.60589800  0.21179700  0.38678100  1.0
  Mg  Mg7  1  0.31515000  0.63030200  0.36028900  1.0
  Mg  Mg8  1  0.01088400  0.02176900  0.32849800  1.0
  Mg  Mg9  1  0.84981200  0.69962600  0.29609700  1.0
  Mg  Mg10  1  0.46103200  0.92206600  0.37676700  1.0
  Mg  Mg11  1  0.16507500  0.33015000  0.34610300  1.0
  Mg  Mg12  1  0.51067400  0.02134800  0.49456400  1.0
  Mg  Mg13  1  0.21297700  0.42595600  0.46234200  1.0
  Mg  Mg14  1  0.90359300  0.80718600  0.41957700  1.0
  Mg  Mg15  1  0.75321500  0.50643200  0.40216800  1.0
  Mg  Mg16  1  0.36297800  0.72595800  0.47820500  1.0
  Mg  Mg17  1  0.05911800  0.11823700  0.44248500  1.0
  Mg  Mg18  1  0.41345100  0.82690200  0.59783200  1.0
  Mg  Mg19  1  0.10754800  0.21509700  0.55751500  1.0
  Mg  Mg20  1  0.80368700  0.60737600  0.52179500  1.0
  Mg  Mg21  1  0.65599200  0.31198600  0.50543600  1.0
  Mg  Mg22  1  0.26307300  0.52614800  0.58042300  1.0
  Mg  Mg23  1  0.95368900  0.90737800  0.53765800  1.0
  Mg  Mg24  1  0.31685400  0.63370800  0.70390300  1.0
  Mg  Mg25  1  0.00159100  0.00318400  0.65389700  1.0
  Mg  Mg26  1  0.70563400  0.41126800  0.62323300  1.0
  Mg  Mg27  1  0.56076800  0.12153700  0.61321900  1.0
  Mg  Mg28  1  0.15578200  0.31156500  0.67150200  1.0
  Mg  Mg29  1  0.85151600  0.70303200  0.63971100  1.0
  Mg  Mg30  1  0.19803200  0.39606400  0.78464300  1.0
  Mg  Mg31  1  0.90345800  0.80691700  0.75534300  1.0
  Mg  Mg32  1  0.61551800  0.23103800  0.73367100  1.0
  Mg  Mg33  1  0.46860100  0.93720300  0.71823700  1.0
  Mg  Mg34  1  0.04945500  0.09891100  0.77058400  1.0
  Mg  Mg35  1  0.75808200  0.51616500  0.74168700  1.0
