# generated using pymatgen
data_Mg
_symmetry_space_group_name_H-M   'P 1'
_cell_length_a   3.51156000
_cell_length_b   13.04518528
_cell_length_c   30.39279579
_cell_angle_alpha   78.80488188
_cell_angle_beta   90.00000000
_cell_angle_gamma   90.00000000
_symmetry_Int_Tables_number   1
_chemical_formula_structural   Mg
_chemical_formula_sum   Mg30
_cell_volume   1365.76970909
_cell_formula_units_Z   30
loop_
 _symmetry_equiv_pos_site_id
 _symmetry_equiv_pos_as_xyz
  1  'x, y, z'
loop_
 _atom_site_type_symbol
 _atom_site_label
 _atom_site_symmetry_multiplicity
 _atom_site_fract_x
 _atom_site_fract_y
 _atom_site_fract_z
 _atom_site_occupancy
  Mg  Mg0  1  0.00000000  0.39501400  0.37372600  1.0
  Mg  Mg1  1  0.00000000  0.39798900  0.54233000  1.0
  Mg  Mg2  1  0.00000000  0.39676500  0.71247200  1.0
  Mg  Mg3  1  0.00000000  0.19982200  0.30311700  1.0
  Mg  Mg4  1  0.00000000  0.20113900  0.47450200  1.0
  Mg  Mg5  1  0.00000000  0.20597100  0.64433900  1.0
  Mg  Mg6  1  0.00000000  0.99625100  0.73930000  1.0
  Mg  Mg7  1  0.00000000  0.00037500  0.39640400  1.0
  Mg  Mg8  1  0.00000000  0.99786000  0.56820800  1.0
  Mg  Mg9  1  0.00000000  0.79456600  0.34659300  1.0
  Mg  Mg10  1  0.00000000  0.79952300  0.51759100  1.0
  Mg  Mg11  1  0.00000000  0.80347200  0.68938100  1.0
  Mg  Mg12  1  0.00000000  0.60751000  0.26883500  1.0
  Mg  Mg13  1  0.00000000  0.60282400  0.44027200  1.0
  Mg  Mg14  1  0.00000000  0.60193900  0.61037600  1.0
  Mg  Mg15  1  0.50000000  0.40323500  0.28752800  1.0
  Mg  Mg16  1  0.50000000  0.40201100  0.45767000  1.0
  Mg  Mg17  1  0.50000000  0.40498600  0.62627400  1.0
  Mg  Mg18  1  0.50000000  0.19806100  0.38962400  1.0
  Mg  Mg19  1  0.50000000  0.19717600  0.55972800  1.0
  Mg  Mg20  1  0.50000000  0.19249000  0.73116500  1.0
  Mg  Mg21  1  0.50000000  0.99652800  0.31061900  1.0
  Mg  Mg22  1  0.50000000  0.00047700  0.48240900  1.0
  Mg  Mg23  1  0.50000000  0.00543400  0.65340700  1.0
  Mg  Mg24  1  0.50000000  0.80374900  0.26070000  1.0
  Mg  Mg25  1  0.50000000  0.80214000  0.43179200  1.0
  Mg  Mg26  1  0.50000000  0.79962500  0.60359600  1.0
  Mg  Mg27  1  0.50000000  0.59402900  0.35566100  1.0
  Mg  Mg28  1  0.50000000  0.59886100  0.52549800  1.0
  Mg  Mg29  1  0.50000000  0.60017800  0.69688300  1.0
