# generated using pymatgen
data_Mg
_symmetry_space_group_name_H-M   'P 1'
_cell_length_a   5.03589363
_cell_length_b   11.31698351
_cell_length_c   30.21536036
_cell_angle_alpha   102.82961082
_cell_angle_beta   90.77843174
_cell_angle_gamma   77.17038609
_symmetry_Int_Tables_number   1
_chemical_formula_structural   Mg
_chemical_formula_sum   Mg31
_cell_volume   1635.94380646
_cell_formula_units_Z   31
loop_
 _symmetry_equiv_pos_site_id
 _symmetry_equiv_pos_as_xyz
  1  'x, y, z'
loop_
 _atom_site_type_symbol
 _atom_site_label
 _atom_site_symmetry_multiplicity
 _atom_site_fract_x
 _atom_site_fract_y
 _atom_site_fract_z
 _atom_site_occupancy
  Mg  Mg0  1  0.00730700  0.98838500  0.39687300  1.0
  Mg  Mg1  1  0.48554300  0.02203600  0.33153700  1.0
  Mg  Mg2  1  0.33024600  0.33810900  0.35505800  1.0
  Mg  Mg3  1  0.17136300  0.65944900  0.37658700  1.0
  Mg  Mg4  1  0.74926400  0.50249000  0.36670200  1.0
  Mg  Mg5  1  0.59043500  0.82251900  0.39266200  1.0
  Mg  Mg6  1  0.90612000  0.18347400  0.33777800  1.0
  Mg  Mg7  1  0.83034400  0.33810400  0.43666800  1.0
  Mg  Mg8  1  0.66369000  0.67105200  0.46765700  1.0
  Mg  Mg9  1  0.99810500  0.00454800  0.57413600  1.0
  Mg  Mg10  1  0.50201600  0.99530600  0.49523400  1.0
  Mg  Mg11  1  0.33526300  0.32862400  0.52277100  1.0
  Mg  Mg12  1  0.16459900  0.67155200  0.54652200  1.0
  Mg  Mg13  1  0.74983000  0.50036400  0.53482000  1.0
  Mg  Mg14  1  0.57970600  0.84063400  0.56888000  1.0
  Mg  Mg15  1  0.92027300  0.15911400  0.50056800  1.0
  Mg  Mg16  1  0.41457400  0.16966100  0.42748300  1.0
  Mg  Mg17  1  0.24849000  0.50179500  0.45236900  1.0
  Mg  Mg18  1  0.08185100  0.83457800  0.47304300  1.0
  Mg  Mg19  1  0.83638100  0.32897200  0.60178600  1.0
  Mg  Mg20  1  0.66967800  0.66194000  0.63302000  1.0
  Mg  Mg21  1  0.01446300  0.97805300  0.73798500  1.0
  Mg  Mg22  1  0.49282200  0.01159500  0.67263800  1.0
  Mg  Mg23  1  0.32849500  0.34044400  0.69281600  1.0
  Mg  Mg24  1  0.16988600  0.66187000  0.71434900  1.0
  Mg  Mg25  1  0.75073600  0.49712900  0.70269900  1.0
  Mg  Mg26  1  0.59374400  0.81666700  0.73174600  1.0
  Mg  Mg27  1  0.90949100  0.17751300  0.67685800  1.0
  Mg  Mg28  1  0.41805700  0.16522100  0.59630800  1.0
  Mg  Mg29  1  0.25166700  0.49833100  0.61696900  1.0
  Mg  Mg30  1  0.08556000  0.83047000  0.64187200  1.0
