# generated using pymatgen
data_Mg
_symmetry_space_group_name_H-M   'P 1'
_cell_length_a   5.08037555
_cell_length_b   8.77133964
_cell_length_c   25.93563158
_cell_angle_alpha   81.08460743
_cell_angle_beta   84.37932415
_cell_angle_gamma   73.16593173
_symmetry_Int_Tables_number   1
_chemical_formula_structural   Mg
_chemical_formula_sum   Mg24
_cell_volume   1091.12273707
_cell_formula_units_Z   24
loop_
 _symmetry_equiv_pos_site_id
 _symmetry_equiv_pos_as_xyz
  1  'x, y, z'
loop_
 _atom_site_type_symbol
 _atom_site_label
 _atom_site_symmetry_multiplicity
 _atom_site_fract_x
 _atom_site_fract_y
 _atom_site_fract_z
 _atom_site_occupancy
  Mg  Mg0  1  0.63539500  0.35913400  0.37007600  1.0
  Mg  Mg1  1  0.39665700  0.92581000  0.28087700  1.0
  Mg  Mg2  1  0.00276000  0.67934400  0.31513700  1.0
  Mg  Mg3  1  0.81524400  0.03647500  0.33303700  1.0
  Mg  Mg4  1  0.58838700  0.55821400  0.26501300  1.0
  Mg  Mg5  1  0.19727200  0.30843400  0.29702300  1.0
  Mg  Mg6  1  0.51180000  0.48432300  0.49207700  1.0
  Mg  Mg7  1  0.25881100  0.07940200  0.40297700  1.0
  Mg  Mg8  1  0.88203900  0.79109800  0.44482400  1.0
  Mg  Mg9  1  0.69955800  0.12940200  0.47148400  1.0
  Mg  Mg10  1  0.45020600  0.71244700  0.38714100  1.0
  Mg  Mg11  1  0.06673300  0.44190400  0.42463000  1.0
  Mg  Mg12  1  0.38312800  0.62088600  0.61285900  1.0
  Mg  Mg13  1  0.13377600  0.20393200  0.52851600  1.0
  Mg  Mg14  1  0.76660100  0.89142900  0.57537000  1.0
  Mg  Mg15  1  0.57452300  0.25393200  0.59702300  1.0
  Mg  Mg16  1  0.32153400  0.84901000  0.50792300  1.0
  Mg  Mg17  1  0.95129500  0.54223500  0.55517600  1.0
  Mg  Mg18  1  0.24494700  0.77511900  0.73498700  1.0
  Mg  Mg19  1  0.01809000  0.29685900  0.66696300  1.0
  Mg  Mg20  1  0.63606200  0.02489900  0.70297700  1.0
  Mg  Mg21  1  0.43667700  0.40752400  0.71912300  1.0
  Mg  Mg22  1  0.19793900  0.97419900  0.62992400  1.0
  Mg  Mg23  1  0.83057400  0.65398900  0.68486300  1.0
