# generated using pymatgen
data_Mg
_symmetry_space_group_name_H-M   'P 1'
_cell_length_a   3.50832200
_cell_length_b   6.07149752
_cell_length_c   30.17562543
_cell_angle_alpha   93.81329688
_cell_angle_beta   90.00000000
_cell_angle_gamma   106.79315071
_symmetry_Int_Tables_number   1
_chemical_formula_structural   Mg
_chemical_formula_sum   Mg18
_cell_volume   613.86613885
_cell_formula_units_Z   18
loop_
 _symmetry_equiv_pos_site_id
 _symmetry_equiv_pos_as_xyz
  1  'x, y, z'
loop_
 _atom_site_type_symbol
 _atom_site_label
 _atom_site_symmetry_multiplicity
 _atom_site_fract_x
 _atom_site_fract_y
 _atom_site_fract_z
 _atom_site_occupancy
  Mg  Mg0  1  0.57006300  0.14012600  0.20479800  1.0
  Mg  Mg1  1  0.65777000  0.31554000  0.33957500  1.0
  Mg  Mg2  1  0.78779700  0.57559500  0.43683900  1.0
  Mg  Mg3  1  0.84566200  0.69132300  0.18921100  1.0
  Mg  Mg4  1  0.97467400  0.94935000  0.28500500  1.0
  Mg  Mg5  1  0.06644100  0.13288300  0.41414100  1.0
  Mg  Mg6  1  0.47293200  0.94586500  0.48828100  1.0
  Mg  Mg7  1  0.24730000  0.49460000  0.26398000  1.0
  Mg  Mg8  1  0.38096600  0.76193300  0.36141400  1.0
  Mg  Mg9  1  0.87886900  0.75773700  0.56316100  1.0
  Mg  Mg10  1  0.00889600  0.01779200  0.66042500  1.0
  Mg  Mg11  1  0.09660300  0.19320700  0.79520200  1.0
  Mg  Mg12  1  0.19373400  0.38746900  0.51171800  1.0
  Mg  Mg13  1  0.28570100  0.57140100  0.63858600  1.0
  Mg  Mg14  1  0.41936700  0.83873400  0.73602000  1.0
  Mg  Mg15  1  0.82100500  0.64201100  0.81078900  1.0
  Mg  Mg16  1  0.60022600  0.20045100  0.58585900  1.0
  Mg  Mg17  1  0.69199300  0.38398400  0.71499500  1.0
