# generated using pymatgen
data_Mg
_symmetry_space_group_name_H-M   'P 1'
_cell_length_a   3.09165949
_cell_length_b   7.81051749
_cell_length_c   23.05228188
_cell_angle_alpha   81.50413709
_cell_angle_beta   89.29464947
_cell_angle_gamma   82.55802803
_symmetry_Int_Tables_number   1
_chemical_formula_structural   Mg
_chemical_formula_sum   Mg12
_cell_volume   545.89492682
_cell_formula_units_Z   12
loop_
 _symmetry_equiv_pos_site_id
 _symmetry_equiv_pos_as_xyz
  1  'x, y, z'
loop_
 _atom_site_type_symbol
 _atom_site_label
 _atom_site_symmetry_multiplicity
 _atom_site_fract_x
 _atom_site_fract_y
 _atom_site_fract_z
 _atom_site_occupancy
  Mg  Mg0  1  0.08978300  0.37214700  0.65997500  1.0
  Mg  Mg1  1  0.43365500  0.66364300  0.71339600  1.0
  Mg  Mg2  1  0.76256900  0.01584600  0.68662900  1.0
  Mg  Mg3  1  0.57547000  0.47293200  0.53410900  1.0
  Mg  Mg4  1  0.92979700  0.75906500  0.59055600  1.0
  Mg  Mg5  1  0.24931700  0.11598800  0.56260600  1.0
  Mg  Mg6  1  0.07020200  0.57426900  0.40944400  1.0
  Mg  Mg7  1  0.42452900  0.86040200  0.46589100  1.0
  Mg  Mg8  1  0.75068300  0.21734600  0.43739400  1.0
  Mg  Mg9  1  0.56634400  0.66969100  0.28660400  1.0
  Mg  Mg10  1  0.91021600  0.96118700  0.34002500  1.0
  Mg  Mg11  1  0.23743100  0.31748800  0.31337100  1.0
