# generated using pymatgen
data_Pm
_symmetry_space_group_name_H-M   'P 1'
_cell_length_a   3.67417671
_cell_length_b   13.93509813
_cell_length_c   25.45864671
_cell_angle_alpha   117.17668836
_cell_angle_beta   89.99998749
_cell_angle_gamma   74.71245281
_symmetry_Int_Tables_number   1
_chemical_formula_structural   Pm
_chemical_formula_sum   Pm16
_cell_volume   1107.48031527
_cell_formula_units_Z   16
loop_
 _symmetry_equiv_pos_site_id
 _symmetry_equiv_pos_as_xyz
  1  'x, y, z'
loop_
 _atom_site_type_symbol
 _atom_site_label
 _atom_site_symmetry_multiplicity
 _atom_site_fract_x
 _atom_site_fract_y
 _atom_site_fract_z
 _atom_site_occupancy
  Pm  Pm0  1  0.00123500  0.99876500  0.18611200  1.0
  Pm  Pm1  1  0.48918700  0.01081300  0.06975600  1.0
  Pm  Pm2  1  0.25208000  0.74792000  0.20698100  1.0
  Pm  Pm3  1  0.74515200  0.75484800  0.08707500  1.0
  Pm  Pm4  1  0.49915600  0.50084400  0.06866000  1.0
  Pm  Pm5  1  0.00020900  0.49979100  0.18569200  1.0
  Pm  Pm6  1  0.24561800  0.25438200  0.04575500  1.0
  Pm  Pm7  1  0.74996900  0.25003100  0.16629300  1.0
  Pm  Pm8  1  0.01081300  0.98918700  0.43024400  1.0
  Pm  Pm9  1  0.49876500  0.00123500  0.31388800  1.0
  Pm  Pm10  1  0.25438200  0.74561800  0.45424500  1.0
  Pm  Pm11  1  0.75003100  0.74996900  0.33370700  1.0
  Pm  Pm12  1  0.49979100  0.50020900  0.31430800  1.0
  Pm  Pm13  1  0.00084400  0.49915600  0.43134000  1.0
  Pm  Pm14  1  0.24792000  0.25208000  0.29301900  1.0
  Pm  Pm15  1  0.75484800  0.24515200  0.41292500  1.0
