# generated using pymatgen
data_Mg
_symmetry_space_group_name_H-M   'P 1'
_cell_length_a   4.57876248
_cell_length_b   7.00277659
_cell_length_c   34.57886399
_cell_angle_alpha   86.40027437
_cell_angle_beta   90.00000117
_cell_angle_gamma   90.00000000
_symmetry_Int_Tables_number   1
_chemical_formula_structural   Mg
_chemical_formula_sum   Mg24
_cell_volume   1106.55093964
_cell_formula_units_Z   24
loop_
 _symmetry_equiv_pos_site_id
 _symmetry_equiv_pos_as_xyz
  1  'x, y, z'
loop_
 _atom_site_type_symbol
 _atom_site_label
 _atom_site_symmetry_multiplicity
 _atom_site_fract_x
 _atom_site_fract_y
 _atom_site_fract_z
 _atom_site_occupancy
  Mg  Mg0  1  0.50000000  0.18733400  0.73607700  1.0
  Mg  Mg1  1  0.50000000  0.85303600  0.57264000  1.0
  Mg  Mg2  1  0.50000000  0.52169100  0.40629200  1.0
  Mg  Mg3  1  0.50000000  0.60718900  0.69959600  1.0
  Mg  Mg4  1  0.50000000  0.27012200  0.53126700  1.0
  Mg  Mg5  1  0.50000000  0.93895700  0.36454900  1.0
  Mg  Mg6  1  0.00000000  0.89644400  0.71797700  1.0
  Mg  Mg7  1  0.00000000  0.56219100  0.55220600  1.0
  Mg  Mg8  1  0.00000000  0.22953700  0.38515000  1.0
  Mg  Mg9  1  0.00000000  0.31859000  0.67921200  1.0
  Mg  Mg10  1  0.00000000  0.97889900  0.51031500  1.0
  Mg  Mg11  1  0.00000000  0.64821800  0.34459600  1.0
  Mg  Mg12  1  0.00000000  0.72771000  0.63545100  1.0
  Mg  Mg13  1  0.00000000  0.39654400  0.46873300  1.0
  Mg  Mg14  1  0.00000000  0.05947800  0.30040400  1.0
  Mg  Mg15  1  0.00000000  0.47933300  0.26392300  1.0
  Mg  Mg16  1  0.00000000  0.14497500  0.59370800  1.0
  Mg  Mg17  1  0.00000000  0.81363100  0.42736000  1.0
  Mg  Mg18  1  0.50000000  0.01844800  0.65540400  1.0
  Mg  Mg19  1  0.50000000  0.68776800  0.48968500  1.0
  Mg  Mg20  1  0.50000000  0.34807700  0.32078800  1.0
  Mg  Mg21  1  0.50000000  0.43713000  0.61485000  1.0
  Mg  Mg22  1  0.50000000  0.10447600  0.44779400  1.0
  Mg  Mg23  1  0.50000000  0.77022200  0.28202300  1.0
