# generated using pymatgen
data_Y
_symmetry_space_group_name_H-M   'P 1'
_cell_length_a   3.66184629
_cell_length_b   11.92271132
_cell_length_c   25.36617616
_cell_angle_alpha   105.42304741
_cell_angle_beta   90.00000244
_cell_angle_gamma   81.16636153
_symmetry_Int_Tables_number   1
_chemical_formula_structural   Y
_chemical_formula_sum   Y16
_cell_volume   1053.95058029
_cell_formula_units_Z   16
loop_
 _symmetry_equiv_pos_site_id
 _symmetry_equiv_pos_as_xyz
  1  'x, y, z'
loop_
 _atom_site_type_symbol
 _atom_site_label
 _atom_site_symmetry_multiplicity
 _atom_site_fract_x
 _atom_site_fract_y
 _atom_site_fract_z
 _atom_site_occupancy
  Y  Y0  1  0.43798000  0.12404000  0.06181500  1.0
  Y  Y1  1  0.18579700  0.62840700  0.12387900  1.0
  Y  Y2  1  0.93826400  0.12347200  0.18126600  1.0
  Y  Y3  1  0.68779400  0.62441200  0.24579900  1.0
  Y  Y4  1  0.81380900  0.37238300  0.12938900  1.0
  Y  Y5  1  0.56219500  0.87561000  0.19235900  1.0
  Y  Y6  1  0.30680000  0.38640000  0.01618100  1.0
  Y  Y7  1  0.06370600  0.87258800  0.07235300  1.0
  Y  Y8  1  0.43780500  0.12439000  0.30764100  1.0
  Y  Y9  1  0.18619100  0.62761700  0.37061100  1.0
  Y  Y10  1  0.93629400  0.12741200  0.42764700  1.0
  Y  Y11  1  0.69320000  0.61360000  0.48381900  1.0
  Y  Y12  1  0.81420300  0.37159300  0.37612100  1.0
  Y  Y13  1  0.56202000  0.87596000  0.43818500  1.0
  Y  Y14  1  0.31220600  0.37558800  0.25420100  1.0
  Y  Y15  1  0.06173600  0.87652800  0.31873400  1.0
