# generated using pymatgen
data_Y
_symmetry_space_group_name_H-M   'P 1'
_cell_length_a   6.75067599
_cell_length_b   8.50734891
_cell_length_c   21.15653162
_cell_angle_alpha   86.15347363
_cell_angle_beta   87.84564156
_cell_angle_gamma   77.86353562
_symmetry_Int_Tables_number   1
_chemical_formula_structural   Y
_chemical_formula_sum   Y18
_cell_volume   1184.85130824
_cell_formula_units_Z   18
loop_
 _symmetry_equiv_pos_site_id
 _symmetry_equiv_pos_as_xyz
  1  'x, y, z'
loop_
 _atom_site_type_symbol
 _atom_site_label
 _atom_site_symmetry_multiplicity
 _atom_site_fract_x
 _atom_site_fract_y
 _atom_site_fract_z
 _atom_site_occupancy
  Y  Y0  1  0.05237800  0.80131600  0.91351400  1.0
  Y  Y1  1  0.41806300  0.47100300  0.85025800  1.0
  Y  Y2  1  0.64457100  0.13354100  0.95999500  1.0
  Y  Y3  1  0.52817400  0.86790900  0.86027600  1.0
  Y  Y4  1  0.67920700  0.55162000  0.96711900  1.0
  Y  Y5  1  0.12368200  0.21688700  0.92090700  1.0
  Y  Y6  1  0.19820300  0.80597600  0.74407700  1.0
  Y  Y7  1  0.59568500  0.46517200  0.68748900  1.0
  Y  Y8  1  0.82128200  0.13693400  0.80384300  1.0
  Y  Y9  1  0.67871800  0.86306600  0.69615700  1.0
  Y  Y10  1  0.90431500  0.53482800  0.81251100  1.0
  Y  Y11  1  0.30179700  0.19402400  0.75592300  1.0
  Y  Y12  1  0.37631800  0.78311300  0.57909300  1.0
  Y  Y13  1  0.82079300  0.44838000  0.53288100  1.0
  Y  Y14  1  0.97182600  0.13209100  0.63972400  1.0
  Y  Y15  1  0.85542900  0.86645900  0.54000500  1.0
  Y  Y16  1  0.08193700  0.52899700  0.64974200  1.0
  Y  Y17  1  0.44762200  0.19868400  0.58648600  1.0
