# generated using pymatgen
data_Y
_symmetry_space_group_name_H-M   'P 1'
_cell_length_a   6.34152300
_cell_length_b   11.92265711
_cell_length_c   21.97094400
_cell_angle_alpha   98.83362499
_cell_angle_beta   90.00000000
_cell_angle_gamma   74.57693767
_symmetry_Int_Tables_number   1
_chemical_formula_structural   Y
_chemical_formula_sum   Y24
_cell_volume   1580.90375672
_cell_formula_units_Z   24
loop_
 _symmetry_equiv_pos_site_id
 _symmetry_equiv_pos_as_xyz
  1  'x, y, z'
loop_
 _atom_site_type_symbol
 _atom_site_label
 _atom_site_symmetry_multiplicity
 _atom_site_fract_x
 _atom_site_fract_y
 _atom_site_fract_z
 _atom_site_occupancy
  Y  Y0  1  0.86493900  0.62616300  0.14013600  1.0
  Y  Y1  1  0.10536600  0.12301800  0.09353500  1.0
  Y  Y2  1  0.60103400  0.15264800  0.01931800  1.0
  Y  Y3  1  0.38859300  0.61789700  0.05537000  1.0
  Y  Y4  1  0.38845500  0.87405800  0.15799200  1.0
  Y  Y5  1  0.64151600  0.37801800  0.12054700  1.0
  Y  Y6  1  0.11523100  0.38490900  0.03647800  1.0
  Y  Y7  1  0.87240300  0.87029300  0.07476400  1.0
  Y  Y8  1  0.85412500  0.62737400  0.30391700  1.0
  Y  Y9  1  0.10772700  0.12403600  0.26106800  1.0
  Y  Y10  1  0.61097300  0.12263800  0.17505600  1.0
  Y  Y11  1  0.35556300  0.62594100  0.21740400  1.0
  Y  Y12  1  0.38902700  0.87736200  0.32494400  1.0
  Y  Y13  1  0.64443700  0.37405900  0.28259600  1.0
  Y  Y14  1  0.14587500  0.37262600  0.19608300  1.0
  Y  Y15  1  0.89227300  0.87596400  0.23893200  1.0
  Y  Y16  1  0.88476900  0.61509100  0.46352200  1.0
  Y  Y17  1  0.12759700  0.12970700  0.42523600  1.0
  Y  Y18  1  0.61154500  0.12594200  0.34200800  1.0
  Y  Y19  1  0.35848400  0.62198200  0.37945300  1.0
  Y  Y20  1  0.39896600  0.84735200  0.48068200  1.0
  Y  Y21  1  0.61140700  0.38210300  0.44463000  1.0
  Y  Y22  1  0.13506100  0.37383700  0.35986400  1.0
  Y  Y23  1  0.89463400  0.87698200  0.40646500  1.0
