# generated using pymatgen
data_Y
_symmetry_space_group_name_H-M   'P 1'
_cell_length_a   3.66078988
_cell_length_b   6.75249936
_cell_length_c   25.37230762
_cell_angle_alpha   118.01375430
_cell_angle_beta   89.99999420
_cell_angle_gamma   74.27210106
_symmetry_Int_Tables_number   1
_chemical_formula_structural   Y
_chemical_formula_sum   Y8
_cell_volume   526.95887158
_cell_formula_units_Z   8
loop_
 _symmetry_equiv_pos_site_id
 _symmetry_equiv_pos_as_xyz
  1  'x, y, z'
loop_
 _atom_site_type_symbol
 _atom_site_label
 _atom_site_symmetry_multiplicity
 _atom_site_fract_x
 _atom_site_fract_y
 _atom_site_fract_z
 _atom_site_occupancy
  Y  Y0  1  0.37474700  0.25050600  0.07724600  1.0
  Y  Y1  1  0.87581100  0.24837800  0.19802200  1.0
  Y  Y2  1  0.62776000  0.74447900  0.17522800  1.0
  Y  Y3  1  0.11851200  0.76297600  0.05931500  1.0
  Y  Y4  1  0.37224000  0.25552100  0.32477200  1.0
  Y  Y5  1  0.88148800  0.23702400  0.44068500  1.0
  Y  Y6  1  0.62525300  0.74949400  0.42275400  1.0
  Y  Y7  1  0.12418900  0.75162200  0.30197800  1.0
