# generated using pymatgen
data_Y
_symmetry_space_group_name_H-M   'P 1'
_cell_length_a   3.65984324
_cell_length_b   9.26316416
_cell_length_c   34.03803829
_cell_angle_alpha   95.84797228
_cell_angle_beta   89.99999503
_cell_angle_gamma   66.72801445
_symmetry_Int_Tables_number   1
_chemical_formula_structural   Y
_chemical_formula_sum   Y16
_cell_volume   1053.52223803
_cell_formula_units_Z   16
loop_
 _symmetry_equiv_pos_site_id
 _symmetry_equiv_pos_as_xyz
  1  'x, y, z'
loop_
 _atom_site_type_symbol
 _atom_site_label
 _atom_site_symmetry_multiplicity
 _atom_site_fract_x
 _atom_site_fract_y
 _atom_site_fract_z
 _atom_site_occupancy
  Y  Y0  1  0.20856400  0.79143600  0.11481600  1.0
  Y  Y1  1  0.47162600  0.02837400  0.05302500  1.0
  Y  Y2  1  0.95918300  0.54081700  0.17815100  1.0
  Y  Y3  1  0.70969600  0.29030400  0.23930300  1.0
  Y  Y4  1  0.54115000  0.95885000  0.19797600  1.0
  Y  Y5  1  0.79394900  0.20605100  0.13442400  1.0
  Y  Y6  1  0.30504200  0.69495800  0.01685000  1.0
  Y  Y7  1  0.03874600  0.46125400  0.07498500  1.0
  Y  Y8  1  0.20605100  0.79394900  0.36557600  1.0
  Y  Y9  1  0.45885000  0.04115000  0.30202400  1.0
  Y  Y10  1  0.96125400  0.53874600  0.42501500  1.0
  Y  Y11  1  0.69495800  0.30504200  0.48315000  1.0
  Y  Y12  1  0.52837400  0.97162600  0.44697500  1.0
  Y  Y13  1  0.79143600  0.20856400  0.38518400  1.0
  Y  Y14  1  0.29030400  0.70969600  0.26069700  1.0
  Y  Y15  1  0.04081700  0.45918300  0.32184900  1.0
