# generated using pymatgen
data_Y
_symmetry_space_group_name_H-M   'P 1'
_cell_length_a   9.68779476
_cell_length_b   6.75337639
_cell_length_c   35.42127995
_cell_angle_alpha   86.13156729
_cell_angle_beta   89.98033087
_cell_angle_gamma   65.78141493
_symmetry_Int_Tables_number   1
_chemical_formula_structural   Y
_chemical_formula_sum   Y32
_cell_volume   2107.71643484
_cell_formula_units_Z   32
loop_
 _symmetry_equiv_pos_site_id
 _symmetry_equiv_pos_as_xyz
  1  'x, y, z'
loop_
 _atom_site_type_symbol
 _atom_site_label
 _atom_site_symmetry_multiplicity
 _atom_site_fract_x
 _atom_site_fract_y
 _atom_site_fract_z
 _atom_site_occupancy
  Y  Y0  1  0.52304800  0.42654900  0.33858900  1.0
  Y  Y1  1  0.51931800  0.93159300  0.09254300  1.0
  Y  Y2  1  0.14501400  0.49019100  0.37041400  1.0
  Y  Y3  1  0.14172300  0.98978500  0.11905700  1.0
  Y  Y4  1  0.89806800  0.36335200  0.30730000  1.0
  Y  Y5  1  0.88673700  0.87439100  0.05782400  1.0
  Y  Y6  1  0.77090400  0.55289000  0.40187800  1.0
  Y  Y7  1  0.76775100  0.05650400  0.15037200  1.0
  Y  Y8  1  0.40023600  0.59391200  0.43122800  1.0
  Y  Y9  1  0.39387800  0.11671500  0.18307400  1.0
  Y  Y10  1  0.00349700  0.68398800  0.46207700  1.0
  Y  Y11  1  0.01978700  0.17726100  0.21374400  1.0
  Y  Y12  1  0.61362500  0.77567800  0.48718200  1.0
  Y  Y13  1  0.64663200  0.23927100  0.24460900  1.0
  Y  Y14  1  0.27102000  0.30142400  0.27596700  1.0
  Y  Y15  1  0.26352300  0.80045100  0.03064400  1.0
  Y  Y16  1  0.85827700  0.01021500  0.38094300  1.0
  Y  Y17  1  0.85498600  0.50980900  0.12958600  1.0
  Y  Y18  1  0.48068200  0.06840700  0.40745700  1.0
  Y  Y19  1  0.47695200  0.57345100  0.16141100  1.0
  Y  Y20  1  0.23224900  0.94349600  0.34962800  1.0
  Y  Y21  1  0.22909600  0.44711000  0.09812200  1.0
  Y  Y22  1  0.11326300  0.12560900  0.44217600  1.0
  Y  Y23  1  0.10193200  0.63664800  0.19270000  1.0
  Y  Y24  1  0.73647700  0.19954900  0.46935600  1.0
  Y  Y25  1  0.72898000  0.69857600  0.22403300  1.0
  Y  Y26  1  0.35336800  0.76072900  0.25539100  1.0
  Y  Y27  1  0.38637500  0.22432200  0.01281800  1.0
  Y  Y28  1  0.98021300  0.82273900  0.28625600  1.0
  Y  Y29  1  0.99650300  0.31601200  0.03792300  1.0
  Y  Y30  1  0.60612200  0.88328500  0.31692600  1.0
  Y  Y31  1  0.59976400  0.40608800  0.06877200  1.0
