# generated using pymatgen
data_Y
_symmetry_space_group_name_H-M   'P 1'
_cell_length_a   3.66152194
_cell_length_b   5.67318000
_cell_length_c   29.29217789
_cell_angle_alpha   90.00000000
_cell_angle_beta   119.99999482
_cell_angle_gamma   90.00000000
_symmetry_Int_Tables_number   1
_chemical_formula_structural   Y
_chemical_formula_sum   Y8
_cell_volume   526.95134975
_cell_formula_units_Z   8
loop_
 _symmetry_equiv_pos_site_id
 _symmetry_equiv_pos_as_xyz
  1  'x, y, z'
loop_
 _atom_site_type_symbol
 _atom_site_label
 _atom_site_symmetry_multiplicity
 _atom_site_fract_x
 _atom_site_fract_y
 _atom_site_fract_z
 _atom_site_occupancy
  Y  Y0  1  0.68129800  0.25000000  0.04532500  1.0
  Y  Y1  1  0.35336600  0.75000000  0.08834100  1.0
  Y  Y2  1  0.65736300  0.25000000  0.16434100  1.0
  Y  Y3  1  0.33009500  0.75000000  0.20752300  1.0
  Y  Y4  1  0.66990500  0.25000000  0.29247700  1.0
  Y  Y5  1  0.34263700  0.75000000  0.33565900  1.0
  Y  Y6  1  0.64663400  0.25000000  0.41165900  1.0
  Y  Y7  1  0.31870200  0.75000000  0.45467500  1.0
