# generated using pymatgen
data_Y
_symmetry_space_group_name_H-M   'P 1'
_cell_length_a   5.67295300
_cell_length_b   9.68957983
_cell_length_c   21.96787400
_cell_angle_alpha   79.10962499
_cell_angle_beta   90.00000000
_cell_angle_gamma   90.00000000
_symmetry_Int_Tables_number   1
_chemical_formula_structural   Y
_chemical_formula_sum   Y18
_cell_volume   1185.79449605
_cell_formula_units_Z   18
loop_
 _symmetry_equiv_pos_site_id
 _symmetry_equiv_pos_as_xyz
  1  'x, y, z'
loop_
 _atom_site_type_symbol
 _atom_site_label
 _atom_site_symmetry_multiplicity
 _atom_site_fract_x
 _atom_site_fract_y
 _atom_site_fract_z
 _atom_site_occupancy
  Y  Y0  1  0.75000000  0.53009100  0.04490800  1.0
  Y  Y1  1  0.75000000  0.21594600  0.15433100  1.0
  Y  Y2  1  0.75000000  0.87917200  0.09287500  1.0
  Y  Y3  1  0.25000000  0.76451500  0.02452300  1.0
  Y  Y4  1  0.25000000  0.44476700  0.13388800  1.0
  Y  Y5  1  0.25000000  0.12405600  0.07367000  1.0
  Y  Y6  1  0.75000000  0.55436800  0.20187700  1.0
  Y  Y7  1  0.75000000  0.21357200  0.31887500  1.0
  Y  Y8  1  0.75000000  0.88769800  0.25831500  1.0
  Y  Y9  1  0.25000000  0.78642800  0.18112500  1.0
  Y  Y10  1  0.25000000  0.44563200  0.29812300  1.0
  Y  Y11  1  0.25000000  0.11230100  0.24168500  1.0
  Y  Y12  1  0.75000000  0.55523300  0.36611200  1.0
  Y  Y13  1  0.75000000  0.23548500  0.47547700  1.0
  Y  Y14  1  0.75000000  0.87594400  0.42633000  1.0
  Y  Y15  1  0.25000000  0.78405400  0.34566900  1.0
  Y  Y16  1  0.25000000  0.46990900  0.45509200  1.0
  Y  Y17  1  0.25000000  0.12082800  0.40712500  1.0
