# generated using pymatgen
data_Y
_symmetry_space_group_name_H-M   'P 1'
_cell_length_a   6.33968812
_cell_length_b   6.75393789
_cell_length_c   37.04037715
_cell_angle_alpha   85.06166746
_cell_angle_beta   89.99999919
_cell_angle_gamma   89.99999826
_symmetry_Int_Tables_number   1
_chemical_formula_structural   Y
_chemical_formula_sum   Y24
_cell_volume   1580.10236616
_cell_formula_units_Z   24
loop_
 _symmetry_equiv_pos_site_id
 _symmetry_equiv_pos_as_xyz
  1  'x, y, z'
loop_
 _atom_site_type_symbol
 _atom_site_label
 _atom_site_symmetry_multiplicity
 _atom_site_fract_x
 _atom_site_fract_y
 _atom_site_fract_z
 _atom_site_occupancy
  Y  Y0  1  0.33355300  0.16957700  0.14566400  1.0
  Y  Y1  1  0.83434800  0.99856100  0.18748300  1.0
  Y  Y2  1  0.34281700  0.50570500  0.06347600  1.0
  Y  Y3  1  0.33307700  0.83348900  0.22914900  1.0
  Y  Y4  1  0.83222500  0.33727900  0.10429100  1.0
  Y  Y5  1  0.83873600  0.65186400  0.02619100  1.0
  Y  Y6  1  0.15718300  0.00570500  0.06347600  1.0
  Y  Y7  1  0.66777500  0.83727900  0.10429100  1.0
  Y  Y8  1  0.16692300  0.33348900  0.22914900  1.0
  Y  Y9  1  0.16644700  0.66957700  0.14566400  1.0
  Y  Y10  1  0.66126400  0.15186400  0.02619100  1.0
  Y  Y11  1  0.66565200  0.49856100  0.18748300  1.0
  Y  Y12  1  0.33222500  0.16272100  0.39570900  1.0
  Y  Y13  1  0.84281700  0.99429500  0.43652400  1.0
  Y  Y14  1  0.33434800  0.50143900  0.31251700  1.0
  Y  Y15  1  0.33873600  0.84813600  0.47380900  1.0
  Y  Y16  1  0.83355300  0.33042300  0.35433600  1.0
  Y  Y17  1  0.83307700  0.66651100  0.27085100  1.0
  Y  Y18  1  0.16565200  0.00143900  0.31251700  1.0
  Y  Y19  1  0.66644700  0.83042300  0.35433600  1.0
  Y  Y20  1  0.16126400  0.34813600  0.47380900  1.0
  Y  Y21  1  0.16777500  0.66272100  0.39570900  1.0
  Y  Y22  1  0.66692300  0.16651100  0.27085100  1.0
  Y  Y23  1  0.65718300  0.49429500  0.43652400  1.0
