# generated using pymatgen
data_Lu
_symmetry_space_group_name_H-M   'P 1'
_cell_length_a   3.52581804
_cell_length_b   11.51041699
_cell_length_c   24.42626438
_cell_angle_alpha   105.38255745
_cell_angle_beta   90.00000255
_cell_angle_gamma   81.19003274
_symmetry_Int_Tables_number   1
_chemical_formula_structural   Lu
_chemical_formula_sum   Lu16
_cell_volume   943.65853657
_cell_formula_units_Z   16
loop_
 _symmetry_equiv_pos_site_id
 _symmetry_equiv_pos_as_xyz
  1  'x, y, z'
loop_
 _atom_site_type_symbol
 _atom_site_label
 _atom_site_symmetry_multiplicity
 _atom_site_fract_x
 _atom_site_fract_y
 _atom_site_fract_z
 _atom_site_occupancy
  Lu  Lu0  1  0.43378300  0.13243500  0.03181500  1.0
  Lu  Lu1  1  0.18907000  0.62185900  0.09013400  1.0
  Lu  Lu2  1  0.93772400  0.12455200  0.15012900  1.0
  Lu  Lu3  1  0.68776400  0.62447300  0.21336500  1.0
  Lu  Lu4  1  0.81278600  0.37442900  0.10678200  1.0
  Lu  Lu5  1  0.56525300  0.86949300  0.15830800  1.0
  Lu  Lu6  1  0.31202600  0.37594800  0.22408300  1.0
  Lu  Lu7  1  0.05686500  0.88626900  0.04132200  1.0
  Lu  Lu8  1  0.43797400  0.12405200  0.27591700  1.0
  Lu  Lu9  1  0.18474700  0.63050700  0.34169200  1.0
  Lu  Lu10  1  0.93721400  0.12557100  0.39321800  1.0
  Lu  Lu11  1  0.69313500  0.61373100  0.45867800  1.0
  Lu  Lu12  1  0.81227600  0.37544800  0.34987100  1.0
  Lu  Lu13  1  0.56093000  0.87814100  0.40986600  1.0
  Lu  Lu14  1  0.31621700  0.36756500  0.46818500  1.0
  Lu  Lu15  1  0.06223600  0.87552700  0.28663500  1.0
