# generated using pymatgen
data_Lu
_symmetry_space_group_name_H-M   'P 1'
_cell_length_a   3.52478804
_cell_length_b   8.92930644
_cell_length_c   32.81667480
_cell_angle_alpha   95.69981582
_cell_angle_beta   90.00000211
_cell_angle_gamma   66.75000662
_symmetry_Int_Tables_number   1
_chemical_formula_structural   Lu
_chemical_formula_sum   Lu16
_cell_volume   943.43062064
_cell_formula_units_Z   16
loop_
 _symmetry_equiv_pos_site_id
 _symmetry_equiv_pos_as_xyz
  1  'x, y, z'
loop_
 _atom_site_type_symbol
 _atom_site_label
 _atom_site_symmetry_multiplicity
 _atom_site_fract_x
 _atom_site_fract_y
 _atom_site_fract_z
 _atom_site_occupancy
  Lu  Lu0  1  0.20674000  0.79326000  0.11483200  1.0
  Lu  Lu1  1  0.46870700  0.03129300  0.05351300  1.0
  Lu  Lu2  1  0.95847200  0.54152800  0.17774800  1.0
  Lu  Lu3  1  0.70957400  0.29042600  0.23919400  1.0
  Lu  Lu4  1  0.54228200  0.95771800  0.19793800  1.0
  Lu  Lu5  1  0.79324200  0.20675800  0.13434600  1.0
  Lu  Lu6  1  0.30155500  0.69844500  0.01591000  1.0
  Lu  Lu7  1  0.03779400  0.46220600  0.07447100  1.0
  Lu  Lu8  1  0.20675800  0.79324200  0.36565400  1.0
  Lu  Lu9  1  0.45771800  0.04228200  0.30206200  1.0
  Lu  Lu10  1  0.96220600  0.53779400  0.42552900  1.0
  Lu  Lu11  1  0.69844500  0.30155500  0.48409000  1.0
  Lu  Lu12  1  0.53129300  0.96870700  0.44648700  1.0
  Lu  Lu13  1  0.79326000  0.20674000  0.38516800  1.0
  Lu  Lu14  1  0.29042600  0.70957400  0.26080600  1.0
  Lu  Lu15  1  0.04152800  0.45847200  0.32225200  1.0
