# generated using pymatgen
data_Lu
_symmetry_space_group_name_H-M   'P 1'
_cell_length_a   3.52550981
_cell_length_b   5.47722600
_cell_length_c   28.20407623
_cell_angle_alpha   90.00000000
_cell_angle_beta   119.99999613
_cell_angle_gamma   90.00000000
_symmetry_Int_Tables_number   1
_chemical_formula_structural   Lu
_chemical_formula_sum   Lu8
_cell_volume   471.65573224
_cell_formula_units_Z   8
loop_
 _symmetry_equiv_pos_site_id
 _symmetry_equiv_pos_as_xyz
  1  'x, y, z'
loop_
 _atom_site_type_symbol
 _atom_site_label
 _atom_site_symmetry_multiplicity
 _atom_site_fract_x
 _atom_site_fract_y
 _atom_site_fract_z
 _atom_site_occupancy
  Lu  Lu0  1  0.68188400  0.25000000  0.29547100  1.0
  Lu  Lu1  1  0.35533900  0.75000000  0.33883400  1.0
  Lu  Lu2  1  0.65926800  0.25000000  0.41481700  1.0
  Lu  Lu3  1  0.33231300  0.75000000  0.45807800  1.0
  Lu  Lu4  1  0.66768700  0.25000000  0.54192200  1.0
  Lu  Lu5  1  0.34073200  0.75000000  0.58518300  1.0
  Lu  Lu6  1  0.64466100  0.25000000  0.66116600  1.0
  Lu  Lu7  1  0.31811600  0.75000000  0.70452900  1.0
