# generated using pymatgen
data_Lu
_symmetry_space_group_name_H-M   'P 1'
_cell_length_a   6.10384986
_cell_length_b   6.51422234
_cell_length_c   23.82556474
_cell_angle_alpha   84.59887657
_cell_angle_beta   89.99999784
_cell_angle_gamma   89.99999614
_symmetry_Int_Tables_number   1
_chemical_formula_structural   Lu
_chemical_formula_sum   Lu16
_cell_volume   943.14206378
_cell_formula_units_Z   16
loop_
 _symmetry_equiv_pos_site_id
 _symmetry_equiv_pos_as_xyz
  1  'x, y, z'
loop_
 _atom_site_type_symbol
 _atom_site_label
 _atom_site_symmetry_multiplicity
 _atom_site_fract_x
 _atom_site_fract_y
 _atom_site_fract_z
 _atom_site_occupancy
  Lu  Lu0  1  0.66515000  0.93973200  0.53123900  1.0
  Lu  Lu1  1  0.65720700  0.44808300  0.28923000  1.0
  Lu  Lu2  1  0.65739900  0.19412100  0.65386000  1.0
  Lu  Lu3  1  0.66860400  0.68735100  0.40626000  1.0
  Lu  Lu4  1  0.16860400  0.06264900  0.59374000  1.0
  Lu  Lu5  1  0.15739900  0.55587900  0.34614000  1.0
  Lu  Lu6  1  0.16515000  0.81026800  0.46876100  1.0
  Lu  Lu7  1  0.15720700  0.30191700  0.71077000  1.0
  Lu  Lu8  1  0.84260100  0.69412100  0.65386000  1.0
  Lu  Lu9  1  0.83139600  0.18735100  0.40626000  1.0
  Lu  Lu10  1  0.83485000  0.43973200  0.53123900  1.0
  Lu  Lu11  1  0.84279300  0.94808300  0.28923000  1.0
  Lu  Lu12  1  0.33485000  0.31026800  0.46876100  1.0
  Lu  Lu13  1  0.34279300  0.80191700  0.71077000  1.0
  Lu  Lu14  1  0.33139600  0.56264900  0.59374000  1.0
  Lu  Lu15  1  0.34260100  0.05587900  0.34614000  1.0
