# generated using pymatgen
data_Lu
_symmetry_space_group_name_H-M   'P 1'
_cell_length_a   5.47559800
_cell_length_b   6.10434400
_cell_length_c   28.20837000
_cell_angle_alpha   90.00000000
_cell_angle_beta   90.00000000
_cell_angle_gamma   90.00000000
_symmetry_Int_Tables_number   1
_chemical_formula_structural   Lu
_chemical_formula_sum   Lu20
_cell_volume   942.86289979
_cell_formula_units_Z   20
loop_
 _symmetry_equiv_pos_site_id
 _symmetry_equiv_pos_as_xyz
  1  'x, y, z'
loop_
 _atom_site_type_symbol
 _atom_site_label
 _atom_site_symmetry_multiplicity
 _atom_site_fract_x
 _atom_site_fract_y
 _atom_site_fract_z
 _atom_site_occupancy
  Lu  Lu0  1  0.75000000  0.32368200  0.28306000  1.0
  Lu  Lu1  1  0.75000000  0.82179000  0.22209700  1.0
  Lu  Lu2  1  0.25000000  0.67631800  0.28306000  1.0
  Lu  Lu3  1  0.25000000  0.17821000  0.22209700  1.0
  Lu  Lu4  1  0.75000000  0.33219000  0.40629100  1.0
  Lu  Lu5  1  0.75000000  0.82991200  0.34302000  1.0
  Lu  Lu6  1  0.25000000  0.66781000  0.40629100  1.0
  Lu  Lu7  1  0.25000000  0.17008800  0.34302000  1.0
  Lu  Lu8  1  0.75000000  0.33359100  0.53116400  1.0
  Lu  Lu9  1  0.75000000  0.83359100  0.46883600  1.0
  Lu  Lu10  1  0.25000000  0.66640900  0.53116400  1.0
  Lu  Lu11  1  0.25000000  0.16640900  0.46883600  1.0
  Lu  Lu12  1  0.75000000  0.32991200  0.65698000  1.0
  Lu  Lu13  1  0.75000000  0.83219000  0.59370900  1.0
  Lu  Lu14  1  0.25000000  0.67008800  0.65698000  1.0
  Lu  Lu15  1  0.25000000  0.16781000  0.59370900  1.0
  Lu  Lu16  1  0.75000000  0.32179000  0.77790300  1.0
  Lu  Lu17  1  0.75000000  0.82368200  0.71694000  1.0
  Lu  Lu18  1  0.25000000  0.67821000  0.77790300  1.0
  Lu  Lu19  1  0.25000000  0.17631800  0.71694000  1.0
