# generated using pymatgen
data_Pm
_symmetry_space_group_name_H-M   'P 1'
_cell_length_a   6.36347251
_cell_length_b   12.39460359
_cell_length_c   22.05265673
_cell_angle_alpha   107.24965136
_cell_angle_beta   90.00000758
_cell_angle_gamma   89.99999719
_symmetry_Int_Tables_number   1
_chemical_formula_structural   Pm
_chemical_formula_sum   Pm24
_cell_volume   1661.11994612
_cell_formula_units_Z   24
loop_
 _symmetry_equiv_pos_site_id
 _symmetry_equiv_pos_as_xyz
  1  'x, y, z'
loop_
 _atom_site_type_symbol
 _atom_site_label
 _atom_site_symmetry_multiplicity
 _atom_site_fract_x
 _atom_site_fract_y
 _atom_site_fract_z
 _atom_site_occupancy
  Pm  Pm0  1  0.98750300  0.00260300  0.14958200  1.0
  Pm  Pm1  1  0.47769400  0.99805900  0.06552300  1.0
  Pm  Pm2  1  0.16528000  0.25227600  0.10613100  1.0
  Pm  Pm3  1  0.65644500  0.25958900  0.02878500  1.0
  Pm  Pm4  1  0.02230600  0.49805900  0.06552300  1.0
  Pm  Pm5  1  0.51249700  0.50260300  0.14958200  1.0
  Pm  Pm6  1  0.33472000  0.75227600  0.10613100  1.0
  Pm  Pm7  1  0.84355500  0.75958900  0.02878500  1.0
  Pm  Pm8  1  0.99339800  0.00177100  0.31347900  1.0
  Pm  Pm9  1  0.48988100  0.99881300  0.22746300  1.0
  Pm  Pm10  1  0.15883600  0.25237000  0.27331100  1.0
  Pm  Pm11  1  0.65092700  0.25044600  0.18650700  1.0
  Pm  Pm12  1  0.01011900  0.49881300  0.22746300  1.0
  Pm  Pm13  1  0.50660200  0.50177100  0.31347900  1.0
  Pm  Pm14  1  0.34116400  0.75237000  0.27331100  1.0
  Pm  Pm15  1  0.84907300  0.75044600  0.18650700  1.0
  Pm  Pm16  1  0.98271100  0.98144000  0.46806900  1.0
  Pm  Pm17  1  0.48726800  0.00374500  0.39279800  1.0
  Pm  Pm18  1  0.13187300  0.25116900  0.43771700  1.0
  Pm  Pm19  1  0.65979100  0.24771800  0.35063700  1.0
  Pm  Pm20  1  0.01273200  0.50374500  0.39279800  1.0
  Pm  Pm21  1  0.51728900  0.48144000  0.46806900  1.0
  Pm  Pm22  1  0.36812700  0.75116900  0.43771700  1.0
  Pm  Pm23  1  0.84020900  0.74771800  0.35063700  1.0
