# generated using pymatgen
data_Lu
_symmetry_space_group_name_H-M   'P 1'
_cell_length_a   6.51230639
_cell_length_b   8.20421399
_cell_length_c   27.18093114
_cell_angle_alpha   92.92032697
_cell_angle_beta   92.37401780
_cell_angle_gamma   102.27726109
_symmetry_Int_Tables_number   1
_chemical_formula_structural   Lu
_chemical_formula_sum   Lu30
_cell_volume   1415.14381922
_cell_formula_units_Z   30
loop_
 _symmetry_equiv_pos_site_id
 _symmetry_equiv_pos_as_xyz
  1  'x, y, z'
loop_
 _atom_site_type_symbol
 _atom_site_label
 _atom_site_symmetry_multiplicity
 _atom_site_fract_x
 _atom_site_fract_y
 _atom_site_fract_z
 _atom_site_occupancy
  Lu  Lu0  1  0.78037000  0.80121600  0.25333900  1.0
  Lu  Lu1  1  0.42751100  0.46683100  0.29898300  1.0
  Lu  Lu2  1  0.17789200  0.13388300  0.21735400  1.0
  Lu  Lu3  1  0.31366600  0.86618300  0.29212400  1.0
  Lu  Lu4  1  0.12649200  0.54845800  0.21171900  1.0
  Lu  Lu5  1  0.70716900  0.20981900  0.24861700  1.0
  Lu  Lu6  1  0.67149400  0.80244700  0.37798600  1.0
  Lu  Lu7  1  0.30015300  0.47070100  0.42084700  1.0
  Lu  Lu8  1  0.04094600  0.13522400  0.33588300  1.0
  Lu  Lu9  1  0.19431700  0.85944700  0.41367300  1.0
  Lu  Lu10  1  0.95125200  0.53143600  0.32908400  1.0
  Lu  Lu11  1  0.56953600  0.19214200  0.37111200  1.0
  Lu  Lu12  1  0.55306900  0.80571600  0.50316900  1.0
  Lu  Lu13  1  0.17754500  0.47324900  0.54509400  1.0
  Lu  Lu14  1  0.92515400  0.13776300  0.46186500  1.0
  Lu  Lu15  1  0.07484200  0.86223800  0.53813500  1.0
  Lu  Lu16  1  0.82245100  0.52674900  0.45490400  1.0
  Lu  Lu17  1  0.44692600  0.19428200  0.49683000  1.0
  Lu  Lu18  1  0.43045700  0.80785500  0.62888800  1.0
  Lu  Lu19  1  0.04874500  0.46856600  0.67091500  1.0
  Lu  Lu20  1  0.80568000  0.14055000  0.58632600  1.0
  Lu  Lu21  1  0.95905400  0.86477600  0.66411600  1.0
  Lu  Lu22  1  0.69984600  0.52930300  0.57915300  1.0
  Lu  Lu23  1  0.32850200  0.19755100  0.62201400  1.0
  Lu  Lu24  1  0.29282800  0.79017900  0.75138700  1.0
  Lu  Lu25  1  0.87355200  0.45155700  0.78827900  1.0
  Lu  Lu26  1  0.68632800  0.13381500  0.70787500  1.0
  Lu  Lu27  1  0.82211100  0.86611500  0.78264800  1.0
  Lu  Lu28  1  0.57248700  0.53316900  0.70101600  1.0
  Lu  Lu29  1  0.21962600  0.19878200  0.74666400  1.0
