# generated using pymatgen
data_Lu
_symmetry_space_group_name_H-M   'P 1'
_cell_length_a   5.47497900
_cell_length_b   9.32847833
_cell_length_c   28.21088800
_cell_angle_alpha   79.10495220
_cell_angle_beta   90.00000000
_cell_angle_gamma   90.00000000
_symmetry_Int_Tables_number   1
_chemical_formula_structural   Lu
_chemical_formula_sum   Lu30
_cell_volume   1414.85025096
_cell_formula_units_Z   30
loop_
 _symmetry_equiv_pos_site_id
 _symmetry_equiv_pos_as_xyz
  1  'x, y, z'
loop_
 _atom_site_type_symbol
 _atom_site_label
 _atom_site_symmetry_multiplicity
 _atom_site_fract_x
 _atom_site_fract_y
 _atom_site_fract_z
 _atom_site_occupancy
  Lu  Lu0  1  0.75000000  0.42369100  0.19257500  1.0
  Lu  Lu1  1  0.75000000  0.20795900  0.28649400  1.0
  Lu  Lu2  1  0.75000000  0.89055100  0.23791500  1.0
  Lu  Lu3  1  0.25000000  0.78756600  0.30570400  1.0
  Lu  Lu4  1  0.25000000  0.44516600  0.26457200  1.0
  Lu  Lu5  1  0.25000000  0.14148000  0.22420300  1.0
  Lu  Lu6  1  0.75000000  0.55384700  0.31695800  1.0
  Lu  Lu7  1  0.75000000  0.22291000  0.40411200  1.0
  Lu  Lu8  1  0.75000000  0.88432500  0.36116600  1.0
  Lu  Lu9  1  0.25000000  0.77793800  0.43040900  1.0
  Lu  Lu10  1  0.25000000  0.45007900  0.38780800  1.0
  Lu  Lu11  1  0.25000000  0.11173600  0.34798600  1.0
  Lu  Lu12  1  0.75000000  0.55576100  0.44420500  1.0
  Lu  Lu13  1  0.75000000  0.22137700  0.52756300  1.0
  Lu  Lu14  1  0.75000000  0.88852300  0.48650400  1.0
  Lu  Lu15  1  0.25000000  0.77757300  0.55579500  1.0
  Lu  Lu16  1  0.25000000  0.44481000  0.51349600  1.0
  Lu  Lu17  1  0.25000000  0.11195600  0.47243700  1.0
  Lu  Lu18  1  0.75000000  0.55539600  0.56959100  1.0
  Lu  Lu19  1  0.75000000  0.22159700  0.65201400  1.0
  Lu  Lu20  1  0.75000000  0.88325400  0.61219200  1.0
  Lu  Lu21  1  0.25000000  0.77948700  0.68304200  1.0
  Lu  Lu22  1  0.25000000  0.44900800  0.63883400  1.0
  Lu  Lu23  1  0.25000000  0.11042300  0.59588800  1.0
  Lu  Lu24  1  0.75000000  0.54576800  0.69429600  1.0
  Lu  Lu25  1  0.75000000  0.19185300  0.77579700  1.0
  Lu  Lu26  1  0.75000000  0.88816700  0.73542800  1.0
  Lu  Lu27  1  0.25000000  0.90964300  0.80742500  1.0
  Lu  Lu28  1  0.25000000  0.44278200  0.76208500  1.0
  Lu  Lu29  1  0.25000000  0.12537400  0.71350600  1.0
