# generated using pymatgen
data_Lu
_symmetry_space_group_name_H-M   'P 1'
_cell_length_a   9.32844554
_cell_length_b   6.51327882
_cell_length_c   28.20329200
_cell_angle_alpha   105.70191751
_cell_angle_beta   79.10788445
_cell_angle_gamma   65.83629761
_symmetry_Int_Tables_number   1
_chemical_formula_structural   Lu
_chemical_formula_sum   Lu24
_cell_volume   1414.75243778
_cell_formula_units_Z   24
loop_
 _symmetry_equiv_pos_site_id
 _symmetry_equiv_pos_as_xyz
  1  'x, y, z'
loop_
 _atom_site_type_symbol
 _atom_site_label
 _atom_site_symmetry_multiplicity
 _atom_site_fract_x
 _atom_site_fract_y
 _atom_site_fract_z
 _atom_site_occupancy
  Lu  Lu0  1  0.01470400  0.25018600  0.31131400  1.0
  Lu  Lu1  1  0.36646900  0.24554200  0.34685300  1.0
  Lu  Lu2  1  0.69672000  0.27437200  0.27129600  1.0
  Lu  Lu3  1  0.63696700  0.75407300  0.36455700  1.0
  Lu  Lu4  1  0.95081600  0.75777100  0.28408300  1.0
  Lu  Lu5  1  0.29628700  0.75709500  0.32436700  1.0
  Lu  Lu6  1  0.03174400  0.24833200  0.43050000  1.0
  Lu  Lu7  1  0.36066900  0.24836400  0.47263000  1.0
  Lu  Lu8  1  0.69287900  0.25303700  0.38927400  1.0
  Lu  Lu9  1  0.63922500  0.75181600  0.48648300  1.0
  Lu  Lu10  1  0.97322800  0.74244200  0.40157000  1.0
  Lu  Lu11  1  0.30546600  0.74602900  0.44376700  1.0
  Lu  Lu12  1  0.02786800  0.25397100  0.55623300  1.0
  Lu  Lu13  1  0.36010500  0.25755800  0.59843000  1.0
  Lu  Lu14  1  0.69410800  0.24818400  0.51351700  1.0
  Lu  Lu15  1  0.64045400  0.74696300  0.61072600  1.0
  Lu  Lu16  1  0.97266400  0.75163600  0.52737000  1.0
  Lu  Lu17  1  0.30159000  0.75166800  0.56950000  1.0
  Lu  Lu18  1  0.03704700  0.24290500  0.67563300  1.0
  Lu  Lu19  1  0.38251600  0.24222900  0.71591700  1.0
  Lu  Lu20  1  0.69636600  0.24592700  0.63544400  1.0
  Lu  Lu21  1  0.63661300  0.72562800  0.72870400  1.0
  Lu  Lu22  1  0.96686400  0.75445800  0.65314700  1.0
  Lu  Lu23  1  0.31863000  0.74981400  0.68868600  1.0
