# generated using pymatgen
data_Pb
_symmetry_space_group_name_H-M   'P 1'
_cell_length_a   3.56630295
_cell_length_b   5.02427300
_cell_length_c   28.53042926
_cell_angle_alpha   90.00000000
_cell_angle_beta   90.00000000
_cell_angle_gamma   90.00000000
_symmetry_Int_Tables_number   1
_chemical_formula_structural   Pb
_chemical_formula_sum   Pb8
_cell_volume   511.21050312
_cell_formula_units_Z   8
loop_
 _symmetry_equiv_pos_site_id
 _symmetry_equiv_pos_as_xyz
  1  'x, y, z'
loop_
 _atom_site_type_symbol
 _atom_site_label
 _atom_site_symmetry_multiplicity
 _atom_site_fract_x
 _atom_site_fract_y
 _atom_site_fract_z
 _atom_site_occupancy
  Pb  Pb0  1  0.00000000  0.00000000  0.87519400  1.0
  Pb  Pb1  1  0.00000000  0.00000000  0.99228900  1.0
  Pb  Pb2  1  0.50000000  0.50000000  0.94066300  1.0
  Pb  Pb3  1  0.50000000  0.50000000  0.81447100  1.0
  Pb  Pb4  1  0.00000000  0.00000000  0.62183700  1.0
  Pb  Pb5  1  0.00000000  0.00000000  0.74802900  1.0
  Pb  Pb6  1  0.50000000  0.50000000  0.68730600  1.0
  Pb  Pb7  1  0.50000000  0.50000000  0.57021100  1.0
