# generated using pymatgen
data_Pb
_symmetry_space_group_name_H-M   'P 1'
_cell_length_a   5.00196200
_cell_length_b   6.18369686
_cell_length_c   22.62147686
_cell_angle_alpha   90.00000000
_cell_angle_beta   90.00000000
_cell_angle_gamma   113.85651194
_symmetry_Int_Tables_number   1
_chemical_formula_structural   Pb
_chemical_formula_sum   Pb10
_cell_volume   639.91502278
_cell_formula_units_Z   10
loop_
 _symmetry_equiv_pos_site_id
 _symmetry_equiv_pos_as_xyz
  1  'x, y, z'
loop_
 _atom_site_type_symbol
 _atom_site_label
 _atom_site_symmetry_multiplicity
 _atom_site_fract_x
 _atom_site_fract_y
 _atom_site_fract_z
 _atom_site_occupancy
  Pb  Pb0  1  0.60345600  0.20691100  0.40001600  1.0
  Pb  Pb1  1  0.20116200  0.40232500  0.29908400  1.0
  Pb  Pb2  1  0.79963900  0.59927800  0.19861800  1.0
  Pb  Pb3  1  0.40215300  0.80430600  0.09761900  1.0
  Pb  Pb4  1  0.01119600  0.02239100  0.01442800  1.0
  Pb  Pb5  1  0.89784700  0.79569400  0.35238100  1.0
  Pb  Pb6  1  0.50036100  0.00072200  0.25138200  1.0
  Pb  Pb7  1  0.09883800  0.19767500  0.15091600  1.0
  Pb  Pb8  1  0.69654400  0.39308900  0.04998400  1.0
  Pb  Pb9  1  0.28880400  0.57760900  0.43557200  1.0
