# generated using pymatgen
data_Pb
_symmetry_space_group_name_H-M   'P 1'
_cell_length_a   3.55694227
_cell_length_b   7.99449116
_cell_length_c   27.79235137
_cell_angle_alpha   86.56706079
_cell_angle_beta   86.33105811
_cell_angle_gamma   77.14631589
_symmetry_Int_Tables_number   1
_chemical_formula_structural   Pb
_chemical_formula_sum   Pb12
_cell_volume   768.07203287
_cell_formula_units_Z   12
loop_
 _symmetry_equiv_pos_site_id
 _symmetry_equiv_pos_as_xyz
  1  'x, y, z'
loop_
 _atom_site_type_symbol
 _atom_site_label
 _atom_site_symmetry_multiplicity
 _atom_site_fract_x
 _atom_site_fract_y
 _atom_site_fract_z
 _atom_site_occupancy
  Pb  Pb0  1  0.66819900  0.38567600  0.27725800  1.0
  Pb  Pb1  1  0.32901100  0.02769300  0.31421200  1.0
  Pb  Pb2  1  0.99947600  0.52202600  0.47920000  1.0
  Pb  Pb3  1  0.00043100  0.64715400  0.35060600  1.0
  Pb  Pb4  1  0.66574800  0.27267100  0.39447100  1.0
  Pb  Pb5  1  0.33363400  0.89838100  0.43421000  1.0
  Pb  Pb6  1  0.66719000  0.14463900  0.52080200  1.0
  Pb  Pb7  1  0.33303400  0.76828700  0.56578900  1.0
  Pb  Pb8  1  0.99846100  0.28101700  0.72273000  1.0
  Pb  Pb9  1  0.00091600  0.39399500  0.60553600  1.0
  Pb  Pb10  1  0.66623500  0.01950800  0.64939500  1.0
  Pb  Pb11  1  0.33766400  0.63895400  0.68579100  1.0
