# generated using pymatgen
data_Pm
_symmetry_space_group_name_H-M   'P 1'
_cell_length_a   3.67522147
_cell_length_b   23.93532450
_cell_length_c   25.46268024
_cell_angle_alpha   97.64162600
_cell_angle_beta   89.99999489
_cell_angle_gamma   85.59684200
_symmetry_Int_Tables_number   1
_chemical_formula_structural   Pm
_chemical_formula_sum   Pm32
_cell_volume   2213.32889197
_cell_formula_units_Z   32
loop_
 _symmetry_equiv_pos_site_id
 _symmetry_equiv_pos_as_xyz
  1  'x, y, z'
loop_
 _atom_site_type_symbol
 _atom_site_label
 _atom_site_symmetry_multiplicity
 _atom_site_fract_x
 _atom_site_fract_y
 _atom_site_fract_z
 _atom_site_occupancy
  Pm  Pm0  1  0.00007900  0.99984200  0.24740800  1.0
  Pm  Pm1  1  0.74949600  0.50100700  0.06075500  1.0
  Pm  Pm2  1  0.49949500  0.00101100  0.12730400  1.0
  Pm  Pm3  1  0.24968100  0.50063800  0.18228100  1.0
  Pm  Pm4  1  0.81269800  0.37460400  0.12691200  1.0
  Pm  Pm5  1  0.56218100  0.87563900  0.18816700  1.0
  Pm  Pm6  1  0.31210100  0.37579800  0.00982200  1.0
  Pm  Pm7  1  0.06199000  0.87602000  0.06932800  1.0
  Pm  Pm8  1  0.87524400  0.24951200  0.03243300  1.0
  Pm  Pm9  1  0.62458500  0.75083000  0.09249100  1.0
  Pm  Pm10  1  0.37570100  0.24859700  0.15139300  1.0
  Pm  Pm11  1  0.12483200  0.75033500  0.21357800  1.0
  Pm  Pm12  1  0.43767800  0.12464300  0.05862700  1.0
  Pm  Pm13  1  0.18727900  0.62544100  0.12412800  1.0
  Pm  Pm14  1  0.93746300  0.12507300  0.18009000  1.0
  Pm  Pm15  1  0.68741300  0.62517500  0.24310000  1.0
  Pm  Pm16  1  0.00311200  0.99377700  0.48837000  1.0
  Pm  Pm17  1  0.75017500  0.49965000  0.31225000  1.0
  Pm  Pm18  1  0.49915600  0.00168700  0.37270500  1.0
  Pm  Pm19  1  0.25005000  0.49990100  0.43337900  1.0
  Pm  Pm20  1  0.81235700  0.37528500  0.37094200  1.0
  Pm  Pm21  1  0.56262900  0.87474200  0.43329800  1.0
  Pm  Pm22  1  0.31231400  0.37537200  0.25171700  1.0
  Pm  Pm23  1  0.06267400  0.87465100  0.31479600  1.0
  Pm  Pm24  1  0.87460100  0.25079700  0.28076900  1.0
  Pm  Pm25  1  0.62508700  0.74982600  0.34353900  1.0
  Pm  Pm26  1  0.37411000  0.25177900  0.40091400  1.0
  Pm  Pm27  1  0.12561300  0.74877400  0.46469800  1.0
  Pm  Pm28  1  0.43689200  0.12621700  0.30749200  1.0
  Pm  Pm29  1  0.18747400  0.62505300  0.36840500  1.0
  Pm  Pm30  1  0.93808900  0.12382100  0.42906100  1.0
  Pm  Pm31  1  0.68774900  0.62450200  0.48652000  1.0
