# generated using pymatgen
data_Pb
_symmetry_space_group_name_H-M   'P 1'
_cell_length_a   3.57982849
_cell_length_b   14.70801586
_cell_length_c   22.76197018
_cell_angle_alpha   105.82474738
_cell_angle_beta   90.00002129
_cell_angle_gamma   89.99998072
_symmetry_Int_Tables_number   1
_chemical_formula_structural   Pb
_chemical_formula_sum   Pb18
_cell_volume   1153.04567067
_cell_formula_units_Z   18
loop_
 _symmetry_equiv_pos_site_id
 _symmetry_equiv_pos_as_xyz
  1  'x, y, z'
loop_
 _atom_site_type_symbol
 _atom_site_label
 _atom_site_symmetry_multiplicity
 _atom_site_fract_x
 _atom_site_fract_y
 _atom_site_fract_z
 _atom_site_occupancy
  Pb  Pb0  1  0.00008600  0.59993200  0.40217700  1.0
  Pb  Pb1  1  0.99966200  0.43155300  0.57365700  1.0
  Pb  Pb2  1  0.99961800  0.26799900  0.72807200  1.0
  Pb  Pb3  1  0.00035900  0.99319300  0.34868200  1.0
  Pb  Pb4  1  0.00060000  0.81878200  0.51176600  1.0
  Pb  Pb5  1  0.99983400  0.65591600  0.67683700  1.0
  Pb  Pb6  1  0.00004100  0.38199000  0.29288300  1.0
  Pb  Pb7  1  0.99964100  0.20755700  0.45540400  1.0
  Pb  Pb8  1  0.99981300  0.03813700  0.62324800  1.0
  Pb  Pb9  1  0.50075000  0.79477000  0.37680300  1.0
  Pb  Pb10  1  0.50012500  0.62588400  0.54465700  1.0
  Pb  Pb11  1  0.49994400  0.45188800  0.70693700  1.0
  Pb  Pb12  1  0.49940100  0.17717900  0.32322900  1.0
  Pb  Pb13  1  0.49967600  0.01428400  0.48836500  1.0
  Pb  Pb14  1  0.49949000  0.84000700  0.65137000  1.0
  Pb  Pb15  1  0.50102400  0.56555300  0.27209300  1.0
  Pb  Pb16  1  0.50009500  0.40207700  0.42621500  1.0
  Pb  Pb17  1  0.49983900  0.23329900  0.59760600  1.0
