# generated using pymatgen
data_Pb
_symmetry_space_group_name_H-M   'P 1'
_cell_length_a   3.57933069
_cell_length_b   16.81436260
_cell_length_c   34.53700046
_cell_angle_alpha   99.73050173
_cell_angle_beta   90.00000000
_cell_angle_gamma   90.00000000
_symmetry_Int_Tables_number   1
_chemical_formula_structural   Pb
_chemical_formula_sum   Pb32
_cell_volume   2048.67728112
_cell_formula_units_Z   32
loop_
 _symmetry_equiv_pos_site_id
 _symmetry_equiv_pos_as_xyz
  1  'x, y, z'
loop_
 _atom_site_type_symbol
 _atom_site_label
 _atom_site_symmetry_multiplicity
 _atom_site_fract_x
 _atom_site_fract_y
 _atom_site_fract_z
 _atom_site_occupancy
  Pb  Pb0  1  0.00000000  0.62772300  0.72601300  1.0
  Pb  Pb1  1  0.00000000  0.87647700  0.66676100  1.0
  Pb  Pb2  1  0.00000000  0.24901800  0.69353200  1.0
  Pb  Pb3  1  0.00000000  0.50177500  0.63564200  1.0
  Pb  Pb4  1  0.00000000  0.74919300  0.57075500  1.0
  Pb  Pb5  1  0.00000000  0.99954300  0.50827000  1.0
  Pb  Pb6  1  0.00000000  0.12605500  0.60348900  1.0
  Pb  Pb7  1  0.00000000  0.37394500  0.53902200  1.0
  Pb  Pb8  1  0.50000000  0.68817500  0.65035600  1.0
  Pb  Pb9  1  0.50000000  0.93707700  0.58687600  1.0
  Pb  Pb10  1  0.50000000  0.31302600  0.61968900  1.0
  Pb  Pb11  1  0.50000000  0.56304100  0.55528000  1.0
  Pb  Pb12  1  0.50000000  0.80479700  0.73800900  1.0
  Pb  Pb13  1  0.50000000  0.06372100  0.67811100  1.0
  Pb  Pb14  1  0.50000000  0.18721800  0.52410500  1.0
  Pb  Pb15  1  0.50000000  0.43667500  0.70893400  1.0
  Pb  Pb16  1  0.00000000  0.62528200  0.47589500  1.0
  Pb  Pb17  1  0.00000000  0.87542300  0.41312300  1.0
  Pb  Pb18  1  0.00000000  0.24945900  0.44472000  1.0
  Pb  Pb19  1  0.00000000  0.49947400  0.38031100  1.0
  Pb  Pb20  1  0.00000000  0.74877900  0.32188900  1.0
  Pb  Pb21  1  0.00000000  0.00770300  0.26199100  1.0
  Pb  Pb22  1  0.00000000  0.12432500  0.34964400  1.0
  Pb  Pb23  1  0.00000000  0.37582500  0.29106600  1.0
  Pb  Pb24  1  0.50000000  0.68644500  0.39651100  1.0
  Pb  Pb25  1  0.50000000  0.93602300  0.33323900  1.0
  Pb  Pb26  1  0.50000000  0.31072500  0.36435800  1.0
  Pb  Pb27  1  0.50000000  0.56348200  0.30646800  1.0
  Pb  Pb28  1  0.50000000  0.81295700  0.49173000  1.0
  Pb  Pb29  1  0.50000000  0.06330700  0.42924500  1.0
  Pb  Pb30  1  0.50000000  0.18477700  0.27398700  1.0
  Pb  Pb31  1  0.50000000  0.43855500  0.46097800  1.0
