# generated using pymatgen
data_Pb
_symmetry_space_group_name_H-M   'P 1'
_cell_length_a   5.03845600
_cell_length_b   9.45621069
_cell_length_c   41.86959454
_cell_angle_alpha   88.00258956
_cell_angle_beta   86.55051912
_cell_angle_gamma   74.54925479
_symmetry_Int_Tables_number   1
_chemical_formula_structural   Pb
_chemical_formula_sum   Pb30
_cell_volume   1918.91857919
_cell_formula_units_Z   30
loop_
 _symmetry_equiv_pos_site_id
 _symmetry_equiv_pos_as_xyz
  1  'x, y, z'
loop_
 _atom_site_type_symbol
 _atom_site_label
 _atom_site_symmetry_multiplicity
 _atom_site_fract_x
 _atom_site_fract_y
 _atom_site_fract_z
 _atom_site_occupancy
  Pb  Pb0  1  0.39769400  0.83147500  0.37313700  1.0
  Pb  Pb1  1  0.40073800  0.65724500  0.54128000  1.0
  Pb  Pb2  1  0.40461600  0.48205400  0.70871400  1.0
  Pb  Pb3  1  0.20108000  0.29044800  0.30739100  1.0
  Pb  Pb4  1  0.19997400  0.12409600  0.47595700  1.0
  Pb  Pb5  1  0.20113600  0.95579300  0.64193500  1.0
  Pb  Pb6  1  0.00561300  0.25313200  0.73564200  1.0
  Pb  Pb7  1  0.00179100  0.59050200  0.40591600  1.0
  Pb  Pb8  1  0.99871700  0.42682300  0.57574300  1.0
  Pb  Pb9  1  0.80343000  0.05243000  0.34070900  1.0
  Pb  Pb10  1  0.80011100  0.89244500  0.50733400  1.0
  Pb  Pb11  1  0.79593200  0.73043900  0.67769700  1.0
  Pb  Pb12  1  0.60383300  0.51299600  0.27933800  1.0
  Pb  Pb13  1  0.60100900  0.35746300  0.44051800  1.0
  Pb  Pb14  1  0.60201400  0.18718300  0.60878900  1.0
  Pb  Pb15  1  0.00406800  0.66956100  0.32230300  1.0
  Pb  Pb16  1  0.99988900  0.50755500  0.49266600  1.0
  Pb  Pb17  1  0.99657000  0.34757000  0.65929100  1.0
  Pb  Pb18  1  0.79438700  0.14686800  0.26435800  1.0
  Pb  Pb19  1  0.80128300  0.97317700  0.42425700  1.0
  Pb  Pb20  1  0.79820900  0.80949800  0.59408400  1.0
  Pb  Pb21  1  0.59886400  0.44420700  0.35806500  1.0
  Pb  Pb22  1  0.60002600  0.27590400  0.52404300  1.0
  Pb  Pb23  1  0.59892000  0.10955200  0.69260900  1.0
  Pb  Pb24  1  0.39538400  0.91794600  0.29128600  1.0
  Pb  Pb25  1  0.39926200  0.74275500  0.45872000  1.0
  Pb  Pb26  1  0.40230600  0.56852500  0.62686300  1.0
  Pb  Pb27  1  0.19798600  0.21281700  0.39121100  1.0
  Pb  Pb28  1  0.19899100  0.04253700  0.55948200  1.0
  Pb  Pb29  1  0.19616700  0.88700400  0.72066200  1.0
