# generated using pymatgen
data_Pb
_symmetry_space_group_name_H-M   'P 1'
_cell_length_a   3.56435400
_cell_length_b   3.56435390
_cell_length_c   52.38509200
_cell_angle_alpha   90.00000000
_cell_angle_beta   90.00000000
_cell_angle_gamma   120.00000090
_symmetry_Int_Tables_number   1
_chemical_formula_structural   Pb
_chemical_formula_sum   Pb9
_cell_volume   576.36816752
_cell_formula_units_Z   9
loop_
 _symmetry_equiv_pos_site_id
 _symmetry_equiv_pos_as_xyz
  1  'x, y, z'
loop_
 _atom_site_type_symbol
 _atom_site_label
 _atom_site_symmetry_multiplicity
 _atom_site_fract_x
 _atom_site_fract_y
 _atom_site_fract_z
 _atom_site_occupancy
  Pb  Pb0  1  0.33333333  0.66666667  0.27885500  1.0
  Pb  Pb1  1  0.00000000  0.00000000  0.38850700  1.0
  Pb  Pb2  1  0.66666667  0.33333333  0.33153400  1.0
  Pb  Pb3  1  0.33333333  0.66666667  0.44385200  1.0
  Pb  Pb4  1  0.00000000  0.00000000  0.55614800  1.0
  Pb  Pb5  1  0.66666667  0.33333333  0.50000000  1.0
  Pb  Pb6  1  0.33333333  0.66666667  0.61149300  1.0
  Pb  Pb7  1  0.00000000  0.00000000  0.72114500  1.0
  Pb  Pb8  1  0.66666667  0.33333333  0.66846600  1.0
