# generated using pymatgen
data_Pm
_symmetry_space_group_name_H-M   'P 1'
_cell_length_a   11.82158300
_cell_length_b   6.36576400
_cell_length_c   29.42080300
_cell_angle_alpha   90.00000000
_cell_angle_beta   90.00000000
_cell_angle_gamma   90.00000000
_symmetry_Int_Tables_number   1
_chemical_formula_structural   Pm
_chemical_formula_sum   Pm40
_cell_volume   2214.01567668
_cell_formula_units_Z   40
loop_
 _symmetry_equiv_pos_site_id
 _symmetry_equiv_pos_as_xyz
  1  'x, y, z'
loop_
 _atom_site_type_symbol
 _atom_site_label
 _atom_site_symmetry_multiplicity
 _atom_site_fract_x
 _atom_site_fract_y
 _atom_site_fract_z
 _atom_site_occupancy
  Pm  Pm0  1  0.00000000  0.50000000  0.22180700  1.0
  Pm  Pm1  1  0.00000000  0.00000000  0.28419200  1.0
  Pm  Pm2  1  0.25000000  0.65109400  0.28264400  1.0
  Pm  Pm3  1  0.25000000  0.13149300  0.21954000  1.0
  Pm  Pm4  1  0.50000000  0.50000000  0.22180700  1.0
  Pm  Pm5  1  0.50000000  0.00000000  0.28419200  1.0
  Pm  Pm6  1  0.75000000  0.34890600  0.28264400  1.0
  Pm  Pm7  1  0.75000000  0.86850700  0.21954000  1.0
  Pm  Pm8  1  0.00000000  0.50000000  0.34245700  1.0
  Pm  Pm9  1  0.00000000  0.00000000  0.40707600  1.0
  Pm  Pm10  1  0.25000000  0.65783300  0.40617200  1.0
  Pm  Pm11  1  0.25000000  0.15660200  0.34212300  1.0
  Pm  Pm12  1  0.50000000  0.50000000  0.34245700  1.0
  Pm  Pm13  1  0.50000000  0.00000000  0.40707600  1.0
  Pm  Pm14  1  0.75000000  0.34216700  0.40617200  1.0
  Pm  Pm15  1  0.75000000  0.84339800  0.34212300  1.0
  Pm  Pm16  1  0.00000000  0.50000000  0.46848000  1.0
  Pm  Pm17  1  0.00000000  0.00000000  0.53152000  1.0
  Pm  Pm18  1  0.25000000  0.66288000  0.53074300  1.0
  Pm  Pm19  1  0.25000000  0.16288000  0.46925700  1.0
  Pm  Pm20  1  0.50000000  0.50000000  0.46848000  1.0
  Pm  Pm21  1  0.50000000  0.00000000  0.53152000  1.0
  Pm  Pm22  1  0.75000000  0.33712000  0.53074300  1.0
  Pm  Pm23  1  0.75000000  0.83712000  0.46925700  1.0
  Pm  Pm24  1  0.00000000  0.50000000  0.59292400  1.0
  Pm  Pm25  1  0.00000000  0.00000000  0.65754300  1.0
  Pm  Pm26  1  0.25000000  0.65660200  0.65787700  1.0
  Pm  Pm27  1  0.25000000  0.15783300  0.59382800  1.0
  Pm  Pm28  1  0.50000000  0.50000000  0.59292400  1.0
  Pm  Pm29  1  0.50000000  0.00000000  0.65754300  1.0
  Pm  Pm30  1  0.75000000  0.34339800  0.65787700  1.0
  Pm  Pm31  1  0.75000000  0.84216700  0.59382800  1.0
  Pm  Pm32  1  0.00000000  0.50000000  0.71580800  1.0
  Pm  Pm33  1  0.00000000  0.00000000  0.77819300  1.0
  Pm  Pm34  1  0.25000000  0.63149300  0.78046000  1.0
  Pm  Pm35  1  0.25000000  0.15109400  0.71735600  1.0
  Pm  Pm36  1  0.50000000  0.50000000  0.71580800  1.0
  Pm  Pm37  1  0.50000000  0.00000000  0.77819300  1.0
  Pm  Pm38  1  0.75000000  0.36850700  0.78046000  1.0
  Pm  Pm39  1  0.75000000  0.84890600  0.71735600  1.0
