# generated using pymatgen
data_Li
_symmetry_space_group_name_H-M   'P 1'
_cell_length_a   2.97629537
_cell_length_b   4.86097587
_cell_length_c   33.62578067
_cell_angle_alpha   90.00000000
_cell_angle_beta   90.06395376
_cell_angle_gamma   90.00000000
_symmetry_Int_Tables_number   1
_chemical_formula_structural   Li
_chemical_formula_sum   Li12
_cell_volume   486.48740312
_cell_formula_units_Z   12
loop_
 _symmetry_equiv_pos_site_id
 _symmetry_equiv_pos_as_xyz
  1  'x, y, z'
loop_
 _atom_site_type_symbol
 _atom_site_label
 _atom_site_symmetry_multiplicity
 _atom_site_fract_x
 _atom_site_fract_y
 _atom_site_fract_z
 _atom_site_occupancy
  Li  Li0  1  0.99139500  0.00000000  0.77013200  1.0
  Li  Li1  1  0.29605700  0.50000000  0.97716600  1.0
  Li  Li2  1  0.70933700  0.00000000  0.93735000  1.0
  Li  Li3  1  0.99790900  0.50000000  0.89701800  1.0
  Li  Li4  1  0.32672800  0.00000000  0.85420500  1.0
  Li  Li5  1  0.67246100  0.50000000  0.81372600  1.0
  Li  Li6  1  0.03758600  0.00000000  0.52282600  1.0
  Li  Li7  1  0.34187600  0.50000000  0.72984100  1.0
  Li  Li8  1  0.66009300  0.00000000  0.68626500  1.0
  Li  Li9  1  0.00722100  0.50000000  0.64579400  1.0
  Li  Li10  1  0.33542300  0.00000000  0.60298800  1.0
  Li  Li11  1  0.62391300  0.50000000  0.56266200  1.0
