# generated using pymatgen
data_Pd
_symmetry_space_group_name_H-M   'P 1'
_cell_length_a   3.95193500
_cell_length_b   4.84026726
_cell_length_c   35.34853761
_cell_angle_alpha   89.99999404
_cell_angle_beta   90.00000000
_cell_angle_gamma   114.09402778
_symmetry_Int_Tables_number   1
_chemical_formula_structural   Pd
_chemical_formula_sum   Pd20
_cell_volume   617.25231225
_cell_formula_units_Z   20
loop_
 _symmetry_equiv_pos_site_id
 _symmetry_equiv_pos_as_xyz
  1  'x, y, z'
loop_
 _atom_site_type_symbol
 _atom_site_label
 _atom_site_symmetry_multiplicity
 _atom_site_fract_x
 _atom_site_fract_y
 _atom_site_fract_z
 _atom_site_occupancy
  Pd  Pd0  1  0.60040700  0.20081400  0.19997600  1.0
  Pd  Pd1  1  0.20045800  0.40091500  0.14964900  1.0
  Pd  Pd2  1  0.80128600  0.60257100  0.09950800  1.0
  Pd  Pd3  1  0.39533100  0.79066100  0.04813600  1.0
  Pd  Pd4  1  0.00374900  0.00749900  0.00311000  1.0
  Pd  Pd5  1  0.90032500  0.80065100  0.17469500  1.0
  Pd  Pd6  1  0.50051600  0.00103100  0.12468100  1.0
  Pd  Pd7  1  0.09984000  0.19968100  0.07540100  1.0
  Pd  Pd8  1  0.69964300  0.39928500  0.02423300  1.0
  Pd  Pd9  1  0.30021400  0.60042800  0.22499600  1.0
  Pd  Pd10  1  0.60035700  0.20071500  0.45076700  1.0
  Pd  Pd11  1  0.20016000  0.40031900  0.39959900  1.0
  Pd  Pd12  1  0.79948400  0.59896900  0.35031900  1.0
  Pd  Pd13  1  0.39967500  0.79934900  0.30030500  1.0
  Pd  Pd14  1  0.99978600  0.99957200  0.25000400  1.0
  Pd  Pd15  1  0.90466900  0.80933900  0.42686400  1.0
  Pd  Pd16  1  0.49871400  0.99742900  0.37549200  1.0
  Pd  Pd17  1  0.09954200  0.19908500  0.32535100  1.0
  Pd  Pd18  1  0.69959300  0.39918600  0.27502400  1.0
  Pd  Pd19  1  0.29625100  0.59250100  0.47189000  1.0
