# generated using pymatgen
data_Pd
_symmetry_space_group_name_H-M   'P 1'
_cell_length_a   2.79543069
_cell_length_b   3.95333600
_cell_length_c   22.36344555
_cell_angle_alpha   90.00000000
_cell_angle_beta   90.00000000
_cell_angle_gamma   90.00000000
_symmetry_Int_Tables_number   1
_chemical_formula_structural   Pd
_chemical_formula_sum   Pd8
_cell_volume   247.14462658
_cell_formula_units_Z   8
loop_
 _symmetry_equiv_pos_site_id
 _symmetry_equiv_pos_as_xyz
  1  'x, y, z'
loop_
 _atom_site_type_symbol
 _atom_site_label
 _atom_site_symmetry_multiplicity
 _atom_site_fract_x
 _atom_site_fract_y
 _atom_site_fract_z
 _atom_site_occupancy
  Pd  Pd0  1  0.00000000  0.00000000  0.99610600  1.0
  Pd  Pd1  1  0.50000000  0.50000000  0.93916700  1.0
  Pd  Pd2  1  0.00000000  0.00000000  0.87465300  1.0
  Pd  Pd3  1  0.50000000  0.50000000  0.81218200  1.0
  Pd  Pd4  1  0.00000000  0.00000000  0.75031800  1.0
  Pd  Pd5  1  0.50000000  0.50000000  0.68784700  1.0
  Pd  Pd6  1  0.00000000  0.00000000  0.62333300  1.0
  Pd  Pd7  1  0.50000000  0.50000000  0.56639400  1.0
