# generated using pymatgen
data_Pd
_symmetry_space_group_name_H-M   'P 1'
_cell_length_a   8.83690492
_cell_length_b   8.83690492
_cell_length_c   38.72216914
_cell_angle_alpha   89.99550136
_cell_angle_beta   89.99550136
_cell_angle_gamma   78.45191360
_symmetry_Int_Tables_number   1
_chemical_formula_structural   Pd
_chemical_formula_sum   Pd96
_cell_volume   2962.63692425
_cell_formula_units_Z   96
loop_
 _symmetry_equiv_pos_site_id
 _symmetry_equiv_pos_as_xyz
  1  'x, y, z'
loop_
 _atom_site_type_symbol
 _atom_site_label
 _atom_site_symmetry_multiplicity
 _atom_site_fract_x
 _atom_site_fract_y
 _atom_site_fract_z
 _atom_site_occupancy
  Pd  Pd0  1  0.49812900  0.49087600  0.00412100  1.0
  Pd  Pd1  1  0.41628300  0.91665500  0.04053100  1.0
  Pd  Pd2  1  0.91667400  0.41595000  0.04029800  1.0
  Pd  Pd3  1  0.83488600  0.83263900  0.08387000  1.0
  Pd  Pd4  1  0.00005800  0.00000200  0.24996200  1.0
  Pd  Pd5  1  0.33280200  0.33513900  0.08391100  1.0
  Pd  Pd6  1  0.24994000  0.75114700  0.12453300  1.0
  Pd  Pd7  1  0.75203000  0.25045600  0.12523200  1.0
  Pd  Pd8  1  0.66723400  0.66776200  0.16669000  1.0
  Pd  Pd9  1  0.16770000  0.16720500  0.16622800  1.0
  Pd  Pd10  1  0.08387900  0.58353900  0.20840600  1.0
  Pd  Pd11  1  0.58350200  0.08393100  0.20821400  1.0
  Pd  Pd12  1  0.66595000  0.66666667  0.04029800  1.0
  Pd  Pd13  1  0.58513800  0.08280200  0.08391100  1.0
  Pd  Pd14  1  0.08263900  0.58488700  0.08387000  1.0
  Pd  Pd15  1  0.00114600  0.99994100  0.12453300  1.0
  Pd  Pd16  1  0.16665500  0.16628300  0.04053100  1.0
  Pd  Pd17  1  0.50045600  0.50203000  0.12523200  1.0
  Pd  Pd18  1  0.41720500  0.91770000  0.16622800  1.0
  Pd  Pd19  1  0.91776200  0.41723500  0.16669000  1.0
  Pd  Pd20  1  0.83353900  0.83388000  0.20840600  1.0
  Pd  Pd21  1  0.33393100  0.33350200  0.20821300  1.0
  Pd  Pd22  1  0.25000500  0.75005500  0.24996200  1.0
  Pd  Pd23  1  0.74087500  0.24813000  0.00412100  1.0
  Pd  Pd24  1  0.37043500  0.63181300  0.06163100  1.0
  Pd  Pd25  1  0.29068600  0.04068600  0.10324500  1.0
  Pd  Pd26  1  0.79301300  0.54301300  0.10437900  1.0
  Pd  Pd27  1  0.70964000  0.95869700  0.14586000  1.0
  Pd  Pd28  1  0.88181300  0.12043600  0.06163100  1.0
  Pd  Pd29  1  0.20869600  0.45964000  0.14586000  1.0
  Pd  Pd30  1  0.12578300  0.87578300  0.18730900  1.0
  Pd  Pd31  1  0.62578300  0.37578300  0.18773100  1.0
  Pd  Pd32  1  0.54162000  0.79222200  0.22909800  1.0
  Pd  Pd33  1  0.04222200  0.29162100  0.22909800  1.0
  Pd  Pd34  1  0.95702700  0.70702700  0.02261300  1.0
  Pd  Pd35  1  0.45497600  0.20497700  0.02208300  1.0
  Pd  Pd36  1  0.62642200  0.37642200  0.06455300  1.0
  Pd  Pd37  1  0.54159200  0.79166200  0.10378200  1.0
  Pd  Pd38  1  0.04166200  0.29159200  0.10378200  1.0
  Pd  Pd39  1  0.95923000  0.70923100  0.14615800  1.0
  Pd  Pd40  1  0.12561900  0.87561900  0.05953500  1.0
  Pd  Pd41  1  0.45929000  0.20929000  0.14554300  1.0
  Pd  Pd42  1  0.37537100  0.62614600  0.18751800  1.0
  Pd  Pd43  1  0.87614600  0.12537100  0.18751800  1.0
  Pd  Pd44  1  0.79195300  0.54195300  0.22921800  1.0
  Pd  Pd45  1  0.29190600  0.04190700  0.22901200  1.0
  Pd  Pd46  1  0.20502700  0.45947500  0.02226400  1.0
  Pd  Pd47  1  0.70947500  0.95502700  0.02226400  1.0
  Pd  Pd48  1  0.50000600  0.49994700  0.25004000  1.0
  Pd  Pd49  1  0.41607200  0.91650400  0.29178600  1.0
  Pd  Pd50  1  0.91646800  0.41612400  0.29159400  1.0
  Pd  Pd51  1  0.83224200  0.83276400  0.33333333  1.0
  Pd  Pd52  1  0.00911900  0.00187100  0.49588000  1.0
  Pd  Pd53  1  0.33279500  0.33230100  0.33377100  1.0
  Pd  Pd54  1  0.24954600  0.74796400  0.37476700  1.0
  Pd  Pd55  1  0.74885200  0.25006000  0.37546600  1.0
  Pd  Pd56  1  0.66736100  0.66511100  0.41612800  1.0
  Pd  Pd57  1  0.16486000  0.16719500  0.41608800  1.0
  Pd  Pd58  1  0.08405000  0.58332700  0.45970100  1.0
  Pd  Pd59  1  0.58334400  0.08371500  0.45946900  1.0
  Pd  Pd60  1  0.66612400  0.66646800  0.29159400  1.0
  Pd  Pd61  1  0.58230100  0.08279600  0.33377100  1.0
  Pd  Pd62  1  0.08276400  0.58224200  0.33333333  1.0
  Pd  Pd63  1  0.99796400  0.99954500  0.37476700  1.0
  Pd  Pd64  1  0.16650400  0.16607300  0.29178600  1.0
  Pd  Pd65  1  0.50005900  0.49885300  0.37546600  1.0
  Pd  Pd66  1  0.41719500  0.91486000  0.41608800  1.0
  Pd  Pd67  1  0.91511300  0.41736000  0.41612800  1.0
  Pd  Pd68  1  0.83332700  0.83405000  0.45970100  1.0
  Pd  Pd69  1  0.33371600  0.33333333  0.45946900  1.0
  Pd  Pd70  1  0.25187100  0.75912000  0.49588000  1.0
  Pd  Pd71  1  0.74994800  0.25000400  0.25004000  1.0
  Pd  Pd72  1  0.37463200  0.62385600  0.31248300  1.0
  Pd  Pd73  1  0.29070900  0.04070900  0.35445600  1.0
  Pd  Pd74  1  0.79076900  0.54076900  0.35384200  1.0
  Pd  Pd75  1  0.70833200  0.95840700  0.39621800  1.0
  Pd  Pd76  1  0.87385500  0.12463100  0.31248300  1.0
  Pd  Pd77  1  0.20840700  0.45833200  0.39621800  1.0
  Pd  Pd78  1  0.12357600  0.87357700  0.43544700  1.0
  Pd  Pd79  1  0.62437900  0.37437600  0.44046500  1.0
  Pd  Pd80  1  0.54497300  0.79052400  0.47773600  1.0
  Pd  Pd81  1  0.04052400  0.29497300  0.47773600  1.0
  Pd  Pd82  1  0.95805300  0.70805300  0.27078400  1.0
  Pd  Pd83  1  0.45809800  0.20809800  0.27098800  1.0
  Pd  Pd84  1  0.62421700  0.37421700  0.31269300  1.0
  Pd  Pd85  1  0.54130000  0.79035900  0.35414000  1.0
  Pd  Pd86  1  0.04035900  0.29129900  0.35414000  1.0
  Pd  Pd87  1  0.95698300  0.70698300  0.39562100  1.0
  Pd  Pd88  1  0.12421900  0.87421800  0.31227000  1.0
  Pd  Pd89  1  0.45930800  0.20930800  0.39675600  1.0
  Pd  Pd90  1  0.37956300  0.61818600  0.43836800  1.0
  Pd  Pd91  1  0.86818600  0.12956200  0.43836800  1.0
  Pd  Pd92  1  0.79296900  0.54296900  0.47738700  1.0
  Pd  Pd93  1  0.29502000  0.04502000  0.47791700  1.0
  Pd  Pd94  1  0.20838200  0.45778300  0.27090300  1.0
  Pd  Pd95  1  0.70778400  0.95838100  0.27090400  1.0
