# generated using pymatgen
data_Pd
_symmetry_space_group_name_H-M   'P 1'
_cell_length_a   2.79436226
_cell_length_b   8.38332577
_cell_length_c   23.71128101
_cell_angle_alpha   90.00129690
_cell_angle_beta   89.99685434
_cell_angle_gamma   90.00362461
_symmetry_Int_Tables_number   1
_chemical_formula_structural   Pd
_chemical_formula_sum   Pd18
_cell_volume   555.46163214
_cell_formula_units_Z   18
loop_
 _symmetry_equiv_pos_site_id
 _symmetry_equiv_pos_as_xyz
  1  'x, y, z'
loop_
 _atom_site_type_symbol
 _atom_site_label
 _atom_site_symmetry_multiplicity
 _atom_site_fract_x
 _atom_site_fract_y
 _atom_site_fract_z
 _atom_site_occupancy
  Pd  Pd0  1  0.99997100  0.44670200  0.94563500  1.0
  Pd  Pd1  1  0.99997400  0.89228000  0.88723700  1.0
  Pd  Pd2  1  0.99997500  0.99120000  0.99582500  1.0
  Pd  Pd3  1  0.99998700  0.33242500  0.83437400  1.0
  Pd  Pd4  1  0.99999400  0.77935100  0.77756300  1.0
  Pd  Pd5  1  0.00000600  0.21973800  0.72233800  1.0
  Pd  Pd6  1  0.00001700  0.66678100  0.66733400  1.0
  Pd  Pd7  1  0.00002100  0.10383600  0.60809000  1.0
  Pd  Pd8  1  0.00003400  0.55954800  0.55678200  1.0
  Pd  Pd9  1  0.49998200  0.61105500  0.86041300  1.0
  Pd  Pd10  1  0.49999100  0.05807400  0.80543000  1.0
  Pd  Pd11  1  0.49998100  0.17383600  0.91971200  1.0
  Pd  Pd12  1  0.50000800  0.49834400  0.75020600  1.0
  Pd  Pd13  1  0.50001000  0.94528500  0.69340700  1.0
  Pd  Pd14  1  0.50002100  0.38546800  0.64053500  1.0
  Pd  Pd15  1  0.50003300  0.83110400  0.58211700  1.0
  Pd  Pd16  1  0.50002500  0.28661700  0.53200600  1.0
  Pd  Pd17  1  0.49996900  0.71835500  0.97099700  1.0
