# generated using pymatgen
data_Pd
_symmetry_space_group_name_H-M   'P 1'
_cell_length_a   2.79388200
_cell_length_b   2.79388218
_cell_length_c   41.06151700
_cell_angle_alpha   90.00000000
_cell_angle_beta   90.00000000
_cell_angle_gamma   119.99999782
_symmetry_Int_Tables_number   1
_chemical_formula_structural   Pd
_chemical_formula_sum   Pd9
_cell_volume   277.57591412
_cell_formula_units_Z   9
loop_
 _symmetry_equiv_pos_site_id
 _symmetry_equiv_pos_as_xyz
  1  'x, y, z'
loop_
 _atom_site_type_symbol
 _atom_site_label
 _atom_site_symmetry_multiplicity
 _atom_site_fract_x
 _atom_site_fract_y
 _atom_site_fract_z
 _atom_site_occupancy
  Pd  Pd0  1  0.66666667  0.33333333  0.33347400  1.0
  Pd  Pd1  1  0.33333333  0.66666667  0.27762900  1.0
  Pd  Pd2  1  0.00000000  0.00000000  0.38889200  1.0
  Pd  Pd3  1  0.66666667  0.33333333  0.50000000  1.0
  Pd  Pd4  1  0.33333333  0.66666667  0.44441000  1.0
  Pd  Pd5  1  0.00000000  0.00000000  0.55559000  1.0
  Pd  Pd6  1  0.66666667  0.33333333  0.66652600  1.0
  Pd  Pd7  1  0.33333333  0.66666667  0.61110800  1.0
  Pd  Pd8  1  0.00000000  0.00000000  0.72237100  1.0
