# generated using pymatgen
data_Pd
_symmetry_space_group_name_H-M   'P 1'
_cell_length_a   2.79388354
_cell_length_b   13.10780169
_cell_length_c   40.88476011
_cell_angle_alpha   98.38290811
_cell_angle_beta   90.00000000
_cell_angle_gamma   90.00000000
_symmetry_Int_Tables_number   1
_chemical_formula_structural   Pd
_chemical_formula_sum   Pd48
_cell_volume   1481.27123629
_cell_formula_units_Z   48
loop_
 _symmetry_equiv_pos_site_id
 _symmetry_equiv_pos_as_xyz
  1  'x, y, z'
loop_
 _atom_site_type_symbol
 _atom_site_label
 _atom_site_symmetry_multiplicity
 _atom_site_fract_x
 _atom_site_fract_y
 _atom_site_fract_z
 _atom_site_occupancy
  Pd  Pd0  1  0.00000000  0.11436200  0.73408200  1.0
  Pd  Pd1  1  0.00000000  0.94279600  0.56774700  1.0
  Pd  Pd2  1  0.00000000  0.77571800  0.40105800  1.0
  Pd  Pd3  1  0.00000000  0.81192800  0.69436100  1.0
  Pd  Pd4  1  0.00000000  0.65143900  0.52611400  1.0
  Pd  Pd5  1  0.00000000  0.48429900  0.35867900  1.0
  Pd  Pd6  1  0.00000000  0.46227300  0.71375800  1.0
  Pd  Pd7  1  0.00000000  0.29685700  0.54688000  1.0
  Pd  Pd8  1  0.00000000  0.13127700  0.38006100  1.0
  Pd  Pd9  1  0.00000000  0.17198400  0.67161400  1.0
  Pd  Pd10  1  0.00000000  0.00538000  0.50525500  1.0
  Pd  Pd11  1  0.00000000  0.83823300  0.33889100  1.0
  Pd  Pd12  1  0.00000000  0.87819700  0.63018700  1.0
  Pd  Pd13  1  0.00000000  0.71320500  0.46348100  1.0
  Pd  Pd14  1  0.00000000  0.55074800  0.29571500  1.0
  Pd  Pd15  1  0.00000000  0.24861800  0.25786300  1.0
  Pd  Pd16  1  0.00000000  0.58946500  0.58880500  1.0
  Pd  Pd17  1  0.00000000  0.42167600  0.42181100  1.0
  Pd  Pd18  1  0.00000000  0.52651200  0.65099500  1.0
  Pd  Pd19  1  0.00000000  0.35902200  0.48432800  1.0
  Pd  Pd20  1  0.00000000  0.19485700  0.31862100  1.0
  Pd  Pd21  1  0.00000000  0.23409000  0.60940800  1.0
  Pd  Pd22  1  0.00000000  0.06773200  0.44261600  1.0
  Pd  Pd23  1  0.00000000  0.89923300  0.27592600  1.0
  Pd  Pd24  1  0.50000000  0.99264300  0.68137900  1.0
  Pd  Pd25  1  0.50000000  0.82847800  0.51567200  1.0
  Pd  Pd26  1  0.50000000  0.66098800  0.34900500  1.0
  Pd  Pd27  1  0.50000000  0.70320100  0.64132100  1.0
  Pd  Pd28  1  0.50000000  0.53606100  0.47388600  1.0
  Pd  Pd29  1  0.50000000  0.37557200  0.30563900  1.0
  Pd  Pd30  1  0.50000000  0.34926700  0.66110900  1.0
  Pd  Pd31  1  0.50000000  0.18212000  0.49474500  1.0
  Pd  Pd32  1  0.50000000  0.01551600  0.32838600  1.0
  Pd  Pd33  1  0.50000000  0.05622300  0.61993900  1.0
  Pd  Pd34  1  0.50000000  0.89064300  0.45312000  1.0
  Pd  Pd35  1  0.50000000  0.72522700  0.28624200  1.0
  Pd  Pd36  1  0.50000000  0.93888200  0.74213700  1.0
  Pd  Pd37  1  0.50000000  0.76582400  0.57818900  1.0
  Pd  Pd38  1  0.50000000  0.59803500  0.41119500  1.0
  Pd  Pd39  1  0.50000000  0.63675200  0.70428500  1.0
  Pd  Pd40  1  0.50000000  0.47429500  0.53651900  1.0
  Pd  Pd41  1  0.50000000  0.30930300  0.36981300  1.0
  Pd  Pd42  1  0.50000000  0.41178200  0.59894200  1.0
  Pd  Pd43  1  0.50000000  0.24470400  0.43225300  1.0
  Pd  Pd44  1  0.50000000  0.07313800  0.26591900  1.0
  Pd  Pd45  1  0.50000000  0.28826700  0.72407400  1.0
  Pd  Pd46  1  0.50000000  0.11976800  0.55738400  1.0
  Pd  Pd47  1  0.50000000  0.95341000  0.39059200  1.0
