# generated using pymatgen
data_Pd
_symmetry_space_group_name_H-M   'P 1'
_cell_length_a   3.95115800
_cell_length_b   6.24751718
_cell_length_c   22.52511836
_cell_angle_alpha   93.17877000
_cell_angle_beta   90.00000000
_cell_angle_gamma   90.00000000
_symmetry_Int_Tables_number   1
_chemical_formula_structural   Pd
_chemical_formula_sum   Pd18
_cell_volume   555.17539270
_cell_formula_units_Z   18
loop_
 _symmetry_equiv_pos_site_id
 _symmetry_equiv_pos_as_xyz
  1  'x, y, z'
loop_
 _atom_site_type_symbol
 _atom_site_label
 _atom_site_symmetry_multiplicity
 _atom_site_fract_x
 _atom_site_fract_y
 _atom_site_fract_z
 _atom_site_occupancy
  Pd  Pd0  1  0.00000000  0.97678900  0.34463300  1.0
  Pd  Pd1  1  0.00000000  0.37589100  0.29289200  1.0
  Pd  Pd2  1  0.00000000  0.60027200  0.40275700  1.0
  Pd  Pd3  1  0.50000000  0.67415900  0.31707700  1.0
  Pd  Pd4  1  0.50000000  0.07917000  0.26889000  1.0
  Pd  Pd5  1  0.50000000  0.29420000  0.37609100  1.0
  Pd  Pd6  1  0.00000000  0.81933900  0.51395000  1.0
  Pd  Pd7  1  0.00000000  0.20761000  0.45807000  1.0
  Pd  Pd8  1  0.00000000  0.42918100  0.57049500  1.0
  Pd  Pd9  1  0.50000000  0.51399500  0.48605000  1.0
  Pd  Pd10  1  0.50000000  0.90415300  0.42950500  1.0
  Pd  Pd11  1  0.50000000  0.12572200  0.54193000  1.0
  Pd  Pd12  1  0.00000000  0.65917500  0.68292300  1.0
  Pd  Pd13  1  0.00000000  0.03913200  0.62390900  1.0
  Pd  Pd14  1  0.00000000  0.25416400  0.73111000  1.0
  Pd  Pd15  1  0.50000000  0.35654500  0.65536700  1.0
  Pd  Pd16  1  0.50000000  0.73306200  0.59724300  1.0
  Pd  Pd17  1  0.50000000  0.95744100  0.70710800  1.0
