# generated using pymatgen
data_Pd
_symmetry_space_group_name_H-M   'P 1'
_cell_length_a   2.79447893
_cell_length_b   4.84012233
_cell_length_c   28.63325145
_cell_angle_alpha   88.38256811
_cell_angle_beta   87.20298163
_cell_angle_gamma   73.22114113
_symmetry_Int_Tables_number   1
_chemical_formula_structural   Pd
_chemical_formula_sum   Pd15
_cell_volume   370.31212399
_cell_formula_units_Z   15
loop_
 _symmetry_equiv_pos_site_id
 _symmetry_equiv_pos_as_xyz
  1  'x, y, z'
loop_
 _atom_site_type_symbol
 _atom_site_label
 _atom_site_symmetry_multiplicity
 _atom_site_fract_x
 _atom_site_fract_y
 _atom_site_fract_z
 _atom_site_occupancy
  Pd  Pd0  1  0.29055100  0.12701000  0.29188800  1.0
  Pd  Pd1  1  0.87330700  0.04250600  0.21088100  1.0
  Pd  Pd2  1  0.58629400  0.57978800  0.24762200  1.0
  Pd  Pd3  1  0.41665300  0.75003300  0.41666200  1.0
  Pd  Pd4  1  0.99968400  0.66774600  0.33288500  1.0
  Pd  Pd5  1  0.70819900  0.20892500  0.37467500  1.0
  Pd  Pd6  1  0.54147600  0.37524900  0.54180100  1.0
  Pd  Pd7  1  0.12519100  0.29141800  0.45819900  1.0
  Pd  Pd8  1  0.83333300  0.83333300  0.50000000  1.0
  Pd  Pd9  1  0.66698300  0.99892100  0.66711500  1.0
  Pd  Pd10  1  0.25001400  0.91663400  0.58333800  1.0
  Pd  Pd11  1  0.95846700  0.45774100  0.62532500  1.0
  Pd  Pd12  1  0.79336000  0.62416100  0.78911900  1.0
  Pd  Pd13  1  0.37611600  0.53965700  0.70811200  1.0
  Pd  Pd14  1  0.08037200  0.08687800  0.75237800  1.0
