# generated using pymatgen
data_Pd
_symmetry_space_group_name_H-M   'P 1'
_cell_length_a   2.79429791
_cell_length_b   6.24796211
_cell_length_c   21.82408204
_cell_angle_alpha   86.71875948
_cell_angle_beta   86.32948963
_cell_angle_gamma   77.07844883
_symmetry_Int_Tables_number   1
_chemical_formula_structural   Pd
_chemical_formula_sum   Pd12
_cell_volume   370.24810012
_cell_formula_units_Z   12
loop_
 _symmetry_equiv_pos_site_id
 _symmetry_equiv_pos_as_xyz
  1  'x, y, z'
loop_
 _atom_site_type_symbol
 _atom_site_label
 _atom_site_symmetry_multiplicity
 _atom_site_fract_x
 _atom_site_fract_y
 _atom_site_fract_z
 _atom_site_occupancy
  Pd  Pd0  1  0.66789300  0.38900900  0.27520200  1.0
  Pd  Pd1  1  0.33457500  0.01891700  0.31193500  1.0
  Pd  Pd2  1  0.99972200  0.52081000  0.47974600  1.0
  Pd  Pd3  1  0.99730100  0.65405200  0.35134600  1.0
  Pd  Pd4  1  0.66481800  0.27391900  0.39644200  1.0
  Pd  Pd5  1  0.33497100  0.89285100  0.43720800  1.0
  Pd  Pd6  1  0.66694400  0.14585600  0.52025400  1.0
  Pd  Pd7  1  0.33169700  0.77381700  0.56279200  1.0
  Pd  Pd8  1  0.99877300  0.27765700  0.72479800  1.0
  Pd  Pd9  1  0.00184800  0.39274700  0.60355800  1.0
  Pd  Pd10  1  0.66936500  0.01261400  0.64865400  1.0
  Pd  Pd11  1  0.33209300  0.64775100  0.68806500  1.0
