# generated using pymatgen
data_Pm
_symmetry_space_group_name_H-M   'P 1'
_cell_length_a   6.36268300
_cell_length_b   12.39813803
_cell_length_c   22.04621000
_cell_angle_alpha   98.52160468
_cell_angle_beta   90.00000000
_cell_angle_gamma   75.13168330
_symmetry_Int_Tables_number   1
_chemical_formula_structural   Pm
_chemical_formula_sum   Pm24
_cell_volume   1661.02264965
_cell_formula_units_Z   24
loop_
 _symmetry_equiv_pos_site_id
 _symmetry_equiv_pos_as_xyz
  1  'x, y, z'
loop_
 _atom_site_type_symbol
 _atom_site_label
 _atom_site_symmetry_multiplicity
 _atom_site_fract_x
 _atom_site_fract_y
 _atom_site_fract_z
 _atom_site_occupancy
  Pm  Pm0  1  0.98561000  0.00207200  0.15733700  1.0
  Pm  Pm1  1  0.48746600  0.99808700  0.07530200  1.0
  Pm  Pm2  1  0.47401500  0.75112700  0.13694300  1.0
  Pm  Pm3  1  0.99439000  0.74929900  0.05283500  1.0
  Pm  Pm4  1  0.75687600  0.50203500  0.03641700  1.0
  Pm  Pm5  1  0.24898200  0.50197400  0.12026300  1.0
  Pm  Pm6  1  0.03593700  0.25285900  0.09536900  1.0
  Pm  Pm7  1  0.52838800  0.26148100  0.01866400  1.0
  Pm  Pm8  1  0.99567500  0.00135200  0.32350500  1.0
  Pm  Pm9  1  0.49321100  0.00084500  0.23858900  1.0
  Pm  Pm10  1  0.46783000  0.75333800  0.30380600  1.0
  Pm  Pm11  1  0.97359100  0.75050200  0.21503700  1.0
  Pm  Pm12  1  0.75314100  0.49830200  0.19689000  1.0
  Pm  Pm13  1  0.25101600  0.50003200  0.28269100  1.0
  Pm  Pm14  1  0.02844300  0.24965300  0.26328600  1.0
  Pm  Pm15  1  0.52316400  0.24968000  0.17728200  1.0
  Pm  Pm16  1  0.01243300  0.97025500  0.47923700  1.0
  Pm  Pm17  1  0.48912100  0.00402000  0.40474800  1.0
  Pm  Pm18  1  0.50557200  0.74813300  0.46552300  1.0
  Pm  Pm19  1  0.97076500  0.74508300  0.37802000  1.0
  Pm  Pm20  1  0.74643900  0.50102900  0.36095400  1.0
  Pm  Pm21  1  0.24863400  0.50671600  0.44420400  1.0
  Pm  Pm22  1  0.00376500  0.24972000  0.42867900  1.0
  Pm  Pm23  1  0.52553700  0.25240700  0.34441900  1.0
