# generated using pymatgen
data_Pd
_symmetry_space_group_name_H-M   'P 1'
_cell_length_a   3.95180900
_cell_length_b   7.39302965
_cell_length_c   32.94514084
_cell_angle_alpha   88.16347051
_cell_angle_beta   86.56158880
_cell_angle_gamma   74.49836929
_symmetry_Int_Tables_number   1
_chemical_formula_structural   Pd
_chemical_formula_sum   Pd30
_cell_volume   925.70821658
_cell_formula_units_Z   30
loop_
 _symmetry_equiv_pos_site_id
 _symmetry_equiv_pos_as_xyz
  1  'x, y, z'
loop_
 _atom_site_type_symbol
 _atom_site_label
 _atom_site_symmetry_multiplicity
 _atom_site_fract_x
 _atom_site_fract_y
 _atom_site_fract_z
 _atom_site_occupancy
  Pd  Pd0  1  0.40130800  0.82285100  0.37453300  1.0
  Pd  Pd1  1  0.39992100  0.65838700  0.54177100  1.0
  Pd  Pd2  1  0.39884300  0.49300700  0.70930700  1.0
  Pd  Pd3  1  0.19963600  0.29393800  0.30679000  1.0
  Pd  Pd4  1  0.19999200  0.12498500  0.47503200  1.0
  Pd  Pd5  1  0.19993400  0.95820200  0.64192900  1.0
  Pd  Pd6  1  0.99995500  0.26184100  0.73824800  1.0
  Pd  Pd7  1  0.00043800  0.59111900  0.40800500  1.0
  Pd  Pd8  1  0.99949300  0.42572200  0.57529300  1.0
  Pd  Pd9  1  0.79956800  0.05879300  0.34207100  1.0
  Pd  Pd10  1  0.79993500  0.89183200  0.50829800  1.0
  Pd  Pd11  1  0.80149400  0.71984300  0.67717000  1.0
  Pd  Pd12  1  0.59900000  0.52505300  0.27694700  1.0
  Pd  Pd13  1  0.60024100  0.35823600  0.44128300  1.0
  Pd  Pd14  1  0.59944600  0.19249400  0.60861400  1.0
  Pd  Pd15  1  0.99850600  0.68015700  0.32283000  1.0
  Pd  Pd16  1  0.00006500  0.50816800  0.49170200  1.0
  Pd  Pd17  1  0.00043200  0.34120700  0.65792900  1.0
  Pd  Pd18  1  0.80004500  0.13815900  0.26175200  1.0
  Pd  Pd19  1  0.80050700  0.97427800  0.42470700  1.0
  Pd  Pd20  1  0.79956200  0.80888100  0.59199500  1.0
  Pd  Pd21  1  0.60006600  0.44179800  0.35807100  1.0
  Pd  Pd22  1  0.60000800  0.27501500  0.52496800  1.0
  Pd  Pd23  1  0.60036400  0.10606200  0.69321000  1.0
  Pd  Pd24  1  0.40115700  0.90699300  0.29069300  1.0
  Pd  Pd25  1  0.40007900  0.74161300  0.45822900  1.0
  Pd  Pd26  1  0.39869200  0.57714900  0.62546700  1.0
  Pd  Pd27  1  0.20055400  0.20750600  0.39138600  1.0
  Pd  Pd28  1  0.19975900  0.04176400  0.55871700  1.0
  Pd  Pd29  1  0.20100000  0.87494700  0.72305300  1.0
