# generated using pymatgen
data_Li
_symmetry_space_group_name_H-M   'P 1'
_cell_length_a   9.95916700
_cell_length_b   5.30107900
_cell_length_c   24.53608300
_cell_angle_alpha   90.00000000
_cell_angle_beta   90.00000000
_cell_angle_gamma   90.00000000
_symmetry_Int_Tables_number   1
_chemical_formula_structural   Li
_chemical_formula_sum   Li32
_cell_volume   1295.36608836
_cell_formula_units_Z   32
loop_
 _symmetry_equiv_pos_site_id
 _symmetry_equiv_pos_as_xyz
  1  'x, y, z'
loop_
 _atom_site_type_symbol
 _atom_site_label
 _atom_site_symmetry_multiplicity
 _atom_site_fract_x
 _atom_site_fract_y
 _atom_site_fract_z
 _atom_site_occupancy
  Li  Li0  1  0.00000000  0.50000000  0.28151900  1.0
  Li  Li1  1  0.00000000  0.00000000  0.34647800  1.0
  Li  Li2  1  0.25000000  0.63180200  0.34551000  1.0
  Li  Li3  1  0.25000000  0.09862200  0.27966200  1.0
  Li  Li4  1  0.50000000  0.50000000  0.28151900  1.0
  Li  Li5  1  0.50000000  0.00000000  0.34647800  1.0
  Li  Li6  1  0.75000000  0.36819800  0.34551000  1.0
  Li  Li7  1  0.75000000  0.90137800  0.27966200  1.0
  Li  Li8  1  0.00000000  0.50000000  0.40724200  1.0
  Li  Li9  1  0.00000000  0.00000000  0.46978800  1.0
  Li  Li10  1  0.25000000  0.66891300  0.46918400  1.0
  Li  Li11  1  0.25000000  0.15558900  0.40542500  1.0
  Li  Li12  1  0.50000000  0.50000000  0.40724200  1.0
  Li  Li13  1  0.50000000  0.00000000  0.46978800  1.0
  Li  Li14  1  0.75000000  0.33108700  0.46918400  1.0
  Li  Li15  1  0.75000000  0.84441100  0.40542500  1.0
  Li  Li16  1  0.00000000  0.50000000  0.53021200  1.0
  Li  Li17  1  0.00000000  0.00000000  0.59275800  1.0
  Li  Li18  1  0.25000000  0.65558900  0.59457500  1.0
  Li  Li19  1  0.25000000  0.16891300  0.53081600  1.0
  Li  Li20  1  0.50000000  0.50000000  0.53021200  1.0
  Li  Li21  1  0.50000000  0.00000000  0.59275800  1.0
  Li  Li22  1  0.75000000  0.34441100  0.59457500  1.0
  Li  Li23  1  0.75000000  0.83108700  0.53081600  1.0
  Li  Li24  1  0.00000000  0.50000000  0.65352200  1.0
  Li  Li25  1  0.00000000  0.00000000  0.71848100  1.0
  Li  Li26  1  0.25000000  0.59862200  0.72033800  1.0
  Li  Li27  1  0.25000000  0.13180200  0.65449000  1.0
  Li  Li28  1  0.50000000  0.50000000  0.65352200  1.0
  Li  Li29  1  0.50000000  0.00000000  0.71848100  1.0
  Li  Li30  1  0.75000000  0.40137800  0.72033800  1.0
  Li  Li31  1  0.75000000  0.86819800  0.65449000  1.0
