# generated using pymatgen
data_Li
_symmetry_space_group_name_H-M   'P 1'
_cell_length_a   9.94805300
_cell_length_b   8.09938994
_cell_length_c   24.55435500
_cell_angle_alpha   79.07774389
_cell_angle_beta   90.00000000
_cell_angle_gamma   90.00000000
_symmetry_Int_Tables_number   1
_chemical_formula_structural   Li
_chemical_formula_sum   Li46
_cell_volume   1942.58323732
_cell_formula_units_Z   46
loop_
 _symmetry_equiv_pos_site_id
 _symmetry_equiv_pos_as_xyz
  1  'x, y, z'
loop_
 _atom_site_type_symbol
 _atom_site_label
 _atom_site_symmetry_multiplicity
 _atom_site_fract_x
 _atom_site_fract_y
 _atom_site_fract_z
 _atom_site_occupancy
  Li  Li0  1  0.01077400  0.68578400  0.32238300  1.0
  Li  Li1  1  0.96627500  0.30907800  0.28428100  1.0
  Li  Li2  1  0.99942800  0.00375100  0.36968100  1.0
  Li  Li3  1  0.25000000  0.41990700  0.33566500  1.0
  Li  Li4  1  0.25000000  0.05468800  0.29719500  1.0
  Li  Li5  1  0.48922600  0.68578400  0.32238300  1.0
  Li  Li6  1  0.53372500  0.30907800  0.28428100  1.0
  Li  Li7  1  0.50057200  0.00375100  0.36968100  1.0
  Li  Li8  1  0.75000000  0.22689800  0.36211800  1.0
  Li  Li9  1  0.75000000  0.94514100  0.30220600  1.0
  Li  Li10  1  0.99643100  0.66807700  0.44905200  1.0
  Li  Li11  1  0.00453400  0.34286800  0.40637700  1.0
  Li  Li12  1  0.99950500  0.00168600  0.49032200  1.0
  Li  Li13  1  0.25000000  0.75764600  0.38827300  1.0
  Li  Li14  1  0.25000000  0.43985100  0.46617100  1.0
  Li  Li15  1  0.25000000  0.10158900  0.42161400  1.0
  Li  Li16  1  0.50356900  0.66807700  0.44905200  1.0
  Li  Li17  1  0.49546600  0.34286800  0.40637700  1.0
  Li  Li18  1  0.50049500  0.00168600  0.49032200  1.0
  Li  Li19  1  0.75000000  0.57147000  0.38384200  1.0
  Li  Li20  1  0.75000000  0.22476700  0.47579500  1.0
  Li  Li21  1  0.75000000  0.88865300  0.43083500  1.0
  Li  Li22  1  0.00356900  0.66525700  0.57178200  1.0
  Li  Li23  1  0.00049500  0.33164700  0.53051200  1.0
  Li  Li24  1  0.99546600  0.99046500  0.61445600  1.0
  Li  Li25  1  0.25000000  0.77744100  0.50760300  1.0
  Li  Li26  1  0.25000000  0.44468100  0.58999900  1.0
  Li  Li27  1  0.25000000  0.10856600  0.54503800  1.0
  Li  Li28  1  0.49643100  0.66525700  0.57178200  1.0
  Li  Li29  1  0.49950500  0.33164700  0.53051200  1.0
  Li  Li30  1  0.50453400  0.99046500  0.61445600  1.0
  Li  Li31  1  0.75000000  0.55589200  0.51323000  1.0
  Li  Li32  1  0.75000000  0.23174400  0.59921900  1.0
  Li  Li33  1  0.75000000  0.89348300  0.55466300  1.0
  Li  Li34  1  0.98922600  0.64755000  0.69845100  1.0
  Li  Li35  1  0.00057200  0.32958200  0.65115200  1.0
  Li  Li36  1  0.03372500  0.02425500  0.73655200  1.0
  Li  Li37  1  0.25000000  0.76186300  0.63699100  1.0
  Li  Li38  1  0.25000000  0.38819300  0.71862800  1.0
  Li  Li39  1  0.25000000  0.10643500  0.65871500  1.0
  Li  Li40  1  0.51077400  0.64755000  0.69845100  1.0
  Li  Li41  1  0.49942800  0.32958200  0.65115200  1.0
  Li  Li42  1  0.46627500  0.02425500  0.73655200  1.0
  Li  Li43  1  0.75000000  0.57568700  0.63256000  1.0
  Li  Li44  1  0.75000000  0.27864500  0.72363800  1.0
  Li  Li45  1  0.75000000  0.91342700  0.68516900  1.0
