# generated using pymatgen
data_Li
_symmetry_space_group_name_H-M   'P 1'
_cell_length_a   3.06202847
_cell_length_b   10.43380538
_cell_length_c   24.49622626
_cell_angle_alpha   107.06592715
_cell_angle_beta   119.99997301
_cell_angle_gamma   81.56219195
_symmetry_Int_Tables_number   1
_chemical_formula_structural   Li
_chemical_formula_sum   Li13
_cell_volume   647.92555927
_cell_formula_units_Z   13
loop_
 _symmetry_equiv_pos_site_id
 _symmetry_equiv_pos_as_xyz
  1  'x, y, z'
loop_
 _atom_site_type_symbol
 _atom_site_label
 _atom_site_symmetry_multiplicity
 _atom_site_fract_x
 _atom_site_fract_y
 _atom_site_fract_z
 _atom_site_occupancy
  Li  Li0  1  0.01086800  0.99886600  0.36195000  1.0
  Li  Li1  1  0.99838500  0.00249400  0.48428300  1.0
  Li  Li2  1  0.33084600  0.75606000  0.41159400  1.0
  Li  Li3  1  0.01393900  0.49856900  0.42518100  1.0
  Li  Li4  1  0.68760800  0.24768800  0.43723800  1.0
  Li  Li5  1  0.00161500  0.99750600  0.60946700  1.0
  Li  Li6  1  0.31835800  0.74794600  0.53245800  1.0
  Li  Li7  1  0.00000000  0.50000000  0.54687500  1.0
  Li  Li8  1  0.68164200  0.25205400  0.56129200  1.0
  Li  Li9  1  0.98913200  0.00113400  0.73180000  1.0
  Li  Li10  1  0.31239200  0.75231200  0.65651200  1.0
  Li  Li11  1  0.98606100  0.50143100  0.66856900  1.0
  Li  Li12  1  0.66915400  0.24394000  0.68215600  1.0
