# generated using pymatgen
data_Li
_symmetry_space_group_name_H-M   'P 1'
_cell_length_a   3.04746379
_cell_length_b   11.75427882
_cell_length_c   31.67018060
_cell_angle_alpha   116.68331453
_cell_angle_beta   89.99998666
_cell_angle_gamma   74.97359728
_symmetry_Int_Tables_number   1
_chemical_formula_structural   Li
_chemical_formula_sum   Li24
_cell_volume   970.02261815
_cell_formula_units_Z   24
loop_
 _symmetry_equiv_pos_site_id
 _symmetry_equiv_pos_as_xyz
  1  'x, y, z'
loop_
 _atom_site_type_symbol
 _atom_site_label
 _atom_site_symmetry_multiplicity
 _atom_site_fract_x
 _atom_site_fract_y
 _atom_site_fract_z
 _atom_site_occupancy
  Li  Li0  1  0.00015100  0.99984900  0.37469900  1.0
  Li  Li1  1  0.49992700  0.00007300  0.29174000  1.0
  Li  Li2  1  0.25029300  0.74970700  0.38809400  1.0
  Li  Li3  1  0.74642300  0.75357700  0.30610500  1.0
  Li  Li4  1  0.00128900  0.49871100  0.37394200  1.0
  Li  Li5  1  0.49838300  0.50161700  0.29296300  1.0
  Li  Li6  1  0.25208600  0.24791500  0.27872500  1.0
  Li  Li7  1  0.75129200  0.24870900  0.36046300  1.0
  Li  Li8  1  0.00035900  0.99964100  0.54168600  1.0
  Li  Li9  1  0.49964100  0.00035900  0.45831400  1.0
  Li  Li10  1  0.25091600  0.74908400  0.55521100  1.0
  Li  Li11  1  0.75031700  0.74968300  0.47192600  1.0
  Li  Li12  1  0.99902700  0.50097300  0.54214500  1.0
  Li  Li13  1  0.50097300  0.49902700  0.45785500  1.0
  Li  Li14  1  0.24908500  0.25091600  0.44478900  1.0
  Li  Li15  1  0.74968400  0.25031700  0.52807400  1.0
  Li  Li16  1  0.00007300  0.99992700  0.70826000  1.0
  Li  Li17  1  0.49984900  0.00015100  0.62530100  1.0
  Li  Li18  1  0.24791500  0.75208500  0.72127500  1.0
  Li  Li19  1  0.74870900  0.75129100  0.63953700  1.0
  Li  Li20  1  0.00161700  0.49838300  0.70703700  1.0
  Li  Li21  1  0.49871100  0.50128900  0.62605800  1.0
  Li  Li22  1  0.24970800  0.25029300  0.61190600  1.0
  Li  Li23  1  0.75357800  0.24642300  0.69389500  1.0
