# generated using pymatgen
data_Li
_symmetry_space_group_name_H-M   'P 1'
_cell_length_a   5.30106100
_cell_length_b   10.42233977
_cell_length_c   24.51372400
_cell_angle_alpha   98.45324565
_cell_angle_beta   90.00000000
_cell_angle_gamma   75.26715592
_symmetry_Int_Tables_number   1
_chemical_formula_structural   Li
_chemical_formula_sum   Li29
_cell_volume   1294.62153150
_cell_formula_units_Z   29
loop_
 _symmetry_equiv_pos_site_id
 _symmetry_equiv_pos_as_xyz
  1  'x, y, z'
loop_
 _atom_site_type_symbol
 _atom_site_label
 _atom_site_symmetry_multiplicity
 _atom_site_fract_x
 _atom_site_fract_y
 _atom_site_fract_z
 _atom_site_occupancy
  Li  Li0  1  0.02178200  0.99444200  0.37067800  1.0
  Li  Li1  1  0.53943300  0.01288100  0.30633600  1.0
  Li  Li2  1  0.50168800  0.74399500  0.35102800  1.0
  Li  Li3  1  0.24778800  0.49639800  0.33574100  1.0
  Li  Li4  1  0.98115100  0.24733500  0.32007400  1.0
  Li  Li5  1  0.99680300  0.00168600  0.49500000  1.0
  Li  Li6  1  0.50266300  0.99922100  0.42936000  1.0
  Li  Li7  1  0.46054000  0.75135700  0.47649500  1.0
  Li  Li8  1  0.97475300  0.75143900  0.41469500  1.0
  Li  Li9  1  0.74771300  0.49867200  0.40194900  1.0
  Li  Li10  1  0.24689500  0.50070300  0.46083000  1.0
  Li  Li11  1  0.02718200  0.24857500  0.44520900  1.0
  Li  Li12  1  0.50967400  0.25107800  0.38562400  1.0
  Li  Li13  1  0.99733700  0.00077900  0.61751600  1.0
  Li  Li14  1  0.50319700  0.99831400  0.55187600  1.0
  Li  Li15  1  0.47281800  0.75142500  0.60166500  1.0
  Li  Li16  1  0.96415900  0.74772300  0.53880200  1.0
  Li  Li17  1  0.75000000  0.50000000  0.52343800  1.0
  Li  Li18  1  0.25310500  0.49929700  0.58604600  1.0
  Li  Li19  1  0.03946000  0.24864300  0.57037900  1.0
  Li  Li20  1  0.53584100  0.25227700  0.50807200  1.0
  Li  Li21  1  0.96056700  0.98711900  0.74054000  1.0
  Li  Li22  1  0.47821800  0.00555800  0.67619800  1.0
  Li  Li23  1  0.51884900  0.75266500  0.72680000  1.0
  Li  Li24  1  0.99032600  0.74892200  0.66125000  1.0
  Li  Li25  1  0.75228700  0.50132800  0.64492700  1.0
  Li  Li26  1  0.25221200  0.50360200  0.71113500  1.0
  Li  Li27  1  0.99831200  0.25600500  0.69584600  1.0
  Li  Li28  1  0.52524700  0.24856100  0.63217900  1.0
