# generated using pymatgen
data_Pm
_symmetry_space_group_name_H-M   'P 1'
_cell_length_a   11.82574000
_cell_length_b   9.72372063
_cell_length_c   22.05132600
_cell_angle_alpha   79.10660218
_cell_angle_beta   90.00000000
_cell_angle_gamma   90.00000000
_symmetry_Int_Tables_number   1
_chemical_formula_structural   Pm
_chemical_formula_sum   Pm36
_cell_volume   2489.99440184
_cell_formula_units_Z   36
loop_
 _symmetry_equiv_pos_site_id
 _symmetry_equiv_pos_as_xyz
  1  'x, y, z'
loop_
 _atom_site_type_symbol
 _atom_site_label
 _atom_site_symmetry_multiplicity
 _atom_site_fract_x
 _atom_site_fract_y
 _atom_site_fract_z
 _atom_site_occupancy
  Pm  Pm0  1  0.00515700  0.67110500  0.33102400  1.0
  Pm  Pm1  1  0.99376700  0.31640700  0.28491200  1.0
  Pm  Pm2  1  0.99954100  0.99849500  0.39537400  1.0
  Pm  Pm3  1  0.25000000  0.76988600  0.41300300  1.0
  Pm  Pm4  1  0.25000000  0.42920100  0.35126300  1.0
  Pm  Pm5  1  0.25000000  0.07869000  0.30223100  1.0
  Pm  Pm6  1  0.49484300  0.67110500  0.33102400  1.0
  Pm  Pm7  1  0.50623300  0.31640700  0.28491200  1.0
  Pm  Pm8  1  0.50045900  0.99849500  0.39537400  1.0
  Pm  Pm9  1  0.75000000  0.55157300  0.26979400  1.0
  Pm  Pm10  1  0.75000000  0.22070100  0.37490300  1.0
  Pm  Pm11  1  0.75000000  0.89962400  0.31298200  1.0
  Pm  Pm12  1  0.00000000  0.66666667  0.50000000  1.0
  Pm  Pm13  1  0.99979000  0.34022300  0.44036900  1.0
  Pm  Pm14  1  0.00021000  0.99311000  0.55963100  1.0
  Pm  Pm15  1  0.25000000  0.76214100  0.57787600  1.0
  Pm  Pm16  1  0.25000000  0.43876800  0.51661700  1.0
  Pm  Pm17  1  0.25000000  0.10307800  0.46185600  1.0
  Pm  Pm18  1  0.50000000  0.66666667  0.50000000  1.0
  Pm  Pm19  1  0.50021000  0.34022300  0.44036900  1.0
  Pm  Pm20  1  0.49979000  0.99311000  0.55963100  1.0
  Pm  Pm21  1  0.75000000  0.57119300  0.42212400  1.0
  Pm  Pm22  1  0.75000000  0.23025500  0.53814400  1.0
  Pm  Pm23  1  0.75000000  0.89456500  0.48338400  1.0
  Pm  Pm24  1  0.99484300  0.66222900  0.66897600  1.0
  Pm  Pm25  1  0.00045900  0.33483800  0.60462600  1.0
  Pm  Pm26  1  0.00623300  0.01692600  0.71508800  1.0
  Pm  Pm27  1  0.25000000  0.78176100  0.73020600  1.0
  Pm  Pm28  1  0.25000000  0.43370900  0.68701800  1.0
  Pm  Pm29  1  0.25000000  0.11263200  0.62509700  1.0
  Pm  Pm30  1  0.50515700  0.66222900  0.66897600  1.0
  Pm  Pm31  1  0.49954100  0.33483800  0.60462600  1.0
  Pm  Pm32  1  0.49376700  0.01692600  0.71508800  1.0
  Pm  Pm33  1  0.75000000  0.56344800  0.58699700  1.0
  Pm  Pm34  1  0.75000000  0.25464300  0.69776900  1.0
  Pm  Pm35  1  0.75000000  0.90413200  0.64873700  1.0
