# generated using pymatgen
data_Li
_symmetry_space_group_name_H-M   'P 1'
_cell_length_a   8.09782861
_cell_length_b   10.42491125
_cell_length_c   24.32221687
_cell_angle_alpha   93.16402788
_cell_angle_beta   98.17411725
_cell_angle_gamma   106.21691505
_symmetry_Int_Tables_number   1
_chemical_formula_structural   Li
_chemical_formula_sum   Li45
_cell_volume   1941.78147953
_cell_formula_units_Z   45
loop_
 _symmetry_equiv_pos_site_id
 _symmetry_equiv_pos_as_xyz
  1  'x, y, z'
loop_
 _atom_site_type_symbol
 _atom_site_label
 _atom_site_symmetry_multiplicity
 _atom_site_fract_x
 _atom_site_fract_y
 _atom_site_fract_z
 _atom_site_occupancy
  Li  Li0  1  0.38175400  0.99819000  0.37560600  1.0
  Li  Li1  1  0.59691800  0.98383300  0.28895600  1.0
  Li  Li2  1  0.01324500  0.01580800  0.32870600  1.0
  Li  Li3  1  0.50636400  0.73123900  0.34431900  1.0
  Li  Li4  1  0.13659100  0.76333600  0.30374600  1.0
  Li  Li5  1  0.78566800  0.51438000  0.31130700  1.0
  Li  Li6  1  0.19027500  0.48717200  0.34564700  1.0
  Li  Li7  1  0.45044600  0.24632800  0.31331500  1.0
  Li  Li8  1  0.86082700  0.24970700  0.35279500  1.0
  Li  Li9  1  0.49796100  0.00024500  0.49744700  1.0
  Li  Li10  1  0.75047200  0.00022200  0.40996500  1.0
  Li  Li11  1  0.12503300  0.99836800  0.45411600  1.0
  Li  Li12  1  0.61307400  0.75170300  0.46949500  1.0
  Li  Li13  1  0.87535000  0.76103800  0.38638000  1.0
  Li  Li14  1  0.24042700  0.74364600  0.42324700  1.0
  Li  Li15  1  0.56096400  0.49692400  0.39755300  1.0
  Li  Li16  1  0.93908200  0.50232000  0.42983200  1.0
  Li  Li17  1  0.30864300  0.50121000  0.47603800  1.0
  Li  Li18  1  0.62611800  0.24986600  0.43612100  1.0
  Li  Li19  1  0.00200300  0.25064400  0.48127600  1.0
  Li  Li20  1  0.24614700  0.25025300  0.40324900  1.0
  Li  Li21  1  0.61411100  0.99977800  0.62128500  1.0
  Li  Li22  1  0.86662200  0.99975500  0.53380300  1.0
  Li  Li23  1  0.23955100  0.00163200  0.57713400  1.0
  Li  Li24  1  0.73846600  0.75013400  0.59512900  1.0
  Li  Li25  1  0.98183800  0.74648900  0.50827600  1.0
  Li  Li26  1  0.36258000  0.74935600  0.54997400  1.0
  Li  Li27  1  0.68229200  0.50000000  0.51562500  1.0
  Li  Li28  1  0.05594000  0.49879000  0.55521200  1.0
  Li  Li29  1  0.42550100  0.49768000  0.60141800  1.0
  Li  Li30  1  0.75151000  0.24829700  0.56175500  1.0
  Li  Li31  1  0.12415600  0.25635400  0.60800300  1.0
  Li  Li32  1  0.38274500  0.25351100  0.52297400  1.0
  Li  Li33  1  0.76766500  0.01616700  0.74229400  1.0
  Li  Li34  1  0.98282900  0.00181000  0.65564400  1.0
  Li  Li35  1  0.35133900  0.98419200  0.70254400  1.0
  Li  Li36  1  0.91413800  0.75367200  0.71793500  1.0
  Li  Li37  1  0.11843600  0.74974700  0.62800100  1.0
  Li  Li38  1  0.50375600  0.75029300  0.67845500  1.0
  Li  Li39  1  0.80362000  0.50307600  0.63369700  1.0
  Li  Li40  1  0.17430800  0.51282800  0.68560300  1.0
  Li  Li41  1  0.57891500  0.48562000  0.71994300  1.0
  Li  Li42  1  0.85822000  0.26876100  0.68693100  1.0
  Li  Li43  1  0.22799200  0.23666400  0.72750400  1.0
  Li  Li44  1  0.48923300  0.23896200  0.64487000  1.0
