# generated using pymatgen
data_Au
_symmetry_space_group_name_H-M   'P 1'
_cell_length_a   2.92596200
_cell_length_b   2.92596200
_cell_length_c   39.23707400
_cell_angle_alpha   90.00000000
_cell_angle_beta   90.00000000
_cell_angle_gamma   119.99997739
_symmetry_Int_Tables_number   1
_chemical_formula_structural   Au
_chemical_formula_sum   Au8
_cell_volume   290.91405728
_cell_formula_units_Z   8
loop_
 _symmetry_equiv_pos_site_id
 _symmetry_equiv_pos_as_xyz
  1  'x, y, z'
loop_
 _atom_site_type_symbol
 _atom_site_label
 _atom_site_symmetry_multiplicity
 _atom_site_fract_x
 _atom_site_fract_y
 _atom_site_fract_z
 _atom_site_occupancy
  Au  Au0  1  0.33333333  0.66666667  0.34414000  1.0
  Au  Au1  1  0.66666667  0.33333333  0.28092900  1.0
  Au  Au2  1  0.33333333  0.66666667  0.46873200  1.0
  Au  Au3  1  0.66666667  0.33333333  0.40615700  1.0
  Au  Au4  1  0.33333333  0.66666667  0.59384300  1.0
  Au  Au5  1  0.66666667  0.33333333  0.53126800  1.0
  Au  Au6  1  0.33333333  0.66666667  0.71907100  1.0
  Au  Au7  1  0.66666667  0.33333333  0.65586000  1.0
