# generated using pymatgen
data_Ba
_symmetry_space_group_name_H-M   'P 1'
_cell_length_a   5.03030000
_cell_length_b   11.24809275
_cell_length_c   22.49618549
_cell_angle_alpha   90.00000000
_cell_angle_beta   90.00000000
_cell_angle_gamma   90.00000000
_symmetry_Int_Tables_number   1
_chemical_formula_structural   Ba
_chemical_formula_sum   Ba10
_cell_volume   1272.86299175
_cell_formula_units_Z   10
loop_
 _symmetry_equiv_pos_site_id
 _symmetry_equiv_pos_as_xyz
  1  'x, y, z'
loop_
 _atom_site_type_symbol
 _atom_site_label
 _atom_site_symmetry_multiplicity
 _atom_site_fract_x
 _atom_site_fract_y
 _atom_site_fract_z
 _atom_site_occupancy
  Ba  Ba0  1  0.00000000  0.59049100  0.39798400  1.0
  Ba  Ba1  1  0.00000000  0.21594400  0.29366100  1.0
  Ba  Ba2  1  0.00000000  0.79375200  0.20015900  1.0
  Ba  Ba3  1  0.00000000  0.38801500  0.10225500  1.0
  Ba  Ba4  1  0.00000000  0.02415600  0.00348100  1.0
  Ba  Ba5  1  0.50000000  0.50624800  0.24984100  1.0
  Ba  Ba6  1  0.50000000  0.08405600  0.15633900  1.0
  Ba  Ba7  1  0.50000000  0.70950900  0.05201600  1.0
  Ba  Ba8  1  0.50000000  0.27584400  0.44651900  1.0
  Ba  Ba9  1  0.50000000  0.91198500  0.34774500  1.0
