# generated using pymatgen
data_Ba
_symmetry_space_group_name_H-M   'P 1'
_cell_length_a   7.11391848
_cell_length_b   7.11391848
_cell_length_c   34.85094071
_cell_angle_alpha   90.00000000
_cell_angle_beta   90.00000000
_cell_angle_gamma   60.00000000
_symmetry_Int_Tables_number   1
_chemical_formula_structural   Ba
_chemical_formula_sum   Ba12
_cell_volume   1527.43558885
_cell_formula_units_Z   12
loop_
 _symmetry_equiv_pos_site_id
 _symmetry_equiv_pos_as_xyz
  1  'x, y, z'
loop_
 _atom_site_type_symbol
 _atom_site_label
 _atom_site_symmetry_multiplicity
 _atom_site_fract_x
 _atom_site_fract_y
 _atom_site_fract_z
 _atom_site_occupancy
  Ba  Ba0  1  0.66666667  0.66666667  0.07844400  1.0
  Ba  Ba1  1  0.00000000  0.00000000  0.99916200  1.0
  Ba  Ba2  1  0.33333333  0.33333333  0.16888800  1.0
  Ba  Ba3  1  0.66666667  0.66666667  0.20802900  1.0
  Ba  Ba4  1  0.00000000  0.00000000  0.12264500  1.0
  Ba  Ba5  1  0.33333333  0.33333333  0.04947500  1.0
  Ba  Ba6  1  0.66666667  0.66666667  0.33568800  1.0
  Ba  Ba7  1  0.00000000  0.00000000  0.25030400  1.0
  Ba  Ba8  1  0.33333333  0.33333333  0.40885900  1.0
  Ba  Ba9  1  0.66666667  0.66666667  0.45917100  1.0
  Ba  Ba10  1  0.00000000  0.00000000  0.37988900  1.0
  Ba  Ba11  1  0.33333333  0.33333333  0.28944600  1.0
