# generated using pymatgen
data_Ba
_symmetry_space_group_name_H-M   'P 1'
_cell_length_a   7.11403257
_cell_length_b   11.24873612
_cell_length_c   30.16285478
_cell_angle_alpha   89.99231145
_cell_angle_beta   90.01479967
_cell_angle_gamma   71.54000628
_symmetry_Int_Tables_number   1
_chemical_formula_structural   Ba
_chemical_formula_sum   Ba18
_cell_volume   2289.54890827
_cell_formula_units_Z   18
loop_
 _symmetry_equiv_pos_site_id
 _symmetry_equiv_pos_as_xyz
  1  'x, y, z'
loop_
 _atom_site_type_symbol
 _atom_site_label
 _atom_site_symmetry_multiplicity
 _atom_site_fract_x
 _atom_site_fract_y
 _atom_site_fract_z
 _atom_site_occupancy
  Ba  Ba0  1  0.77583600  0.44910700  0.05464200  1.0
  Ba  Ba1  1  0.55652000  0.88768500  0.10591800  1.0
  Ba  Ba2  1  0.00592300  0.98919500  0.00213000  1.0
  Ba  Ba3  1  0.33418200  0.33110300  0.16845800  1.0
  Ba  Ba4  1  0.10908300  0.78212600  0.22566700  1.0
  Ba  Ba5  1  0.89096400  0.21802000  0.27853300  1.0
  Ba  Ba6  1  0.66616200  0.66747300  0.33573400  1.0
  Ba  Ba7  1  0.43952400  0.12040100  0.37930900  1.0
  Ba  Ba8  1  0.22725300  0.54459900  0.43932000  1.0
  Ba  Ba9  1  0.72007800  0.55971800  0.19368600  1.0
  Ba  Ba10  1  0.50193100  0.99572900  0.24656900  1.0
  Ba  Ba11  1  0.94480000  0.11023600  0.13649600  1.0
  Ba  Ba12  1  0.27680000  0.44668600  0.30374400  1.0
  Ba  Ba13  1  0.05466800  0.89012900  0.36634400  1.0
  Ba  Ba14  1  0.83539000  0.32860200  0.41756900  1.0
  Ba  Ba15  1  0.60530900  0.78859100  0.47007300  1.0
  Ba  Ba16  1  0.38398900  0.23321600  0.03289100  1.0
  Ba  Ba17  1  0.17158800  0.65738400  0.09291900  1.0
