# generated using pymatgen
data_Ba
_symmetry_space_group_name_H-M   'P 1'
_cell_length_a   5.03030000
_cell_length_b   8.34180884
_cell_length_c   31.81441063
_cell_angle_alpha   90.00000000
_cell_angle_beta   90.00000000
_cell_angle_gamma   107.54840061
_symmetry_Int_Tables_number   1
_chemical_formula_structural   Ba
_chemical_formula_sum   Ba10
_cell_volume   1272.86299157
_cell_formula_units_Z   10
loop_
 _symmetry_equiv_pos_site_id
 _symmetry_equiv_pos_as_xyz
  1  'x, y, z'
loop_
 _atom_site_type_symbol
 _atom_site_label
 _atom_site_symmetry_multiplicity
 _atom_site_fract_x
 _atom_site_fract_y
 _atom_site_fract_z
 _atom_site_occupancy
  Ba  Ba0  1  0.68873500  0.37747100  0.44758100  1.0
  Ba  Ba1  1  0.40667800  0.81335600  0.40149200  1.0
  Ba  Ba2  1  0.10324300  0.20648700  0.34575500  1.0
  Ba  Ba3  1  0.80208300  0.60416600  0.30232900  1.0
  Ba  Ba4  1  0.49784700  0.99569300  0.24902600  1.0
  Ba  Ba5  1  0.20215300  0.40430700  0.20097400  1.0
  Ba  Ba6  1  0.89791700  0.79583400  0.14767100  1.0
  Ba  Ba7  1  0.59675700  0.19351300  0.10424500  1.0
  Ba  Ba8  1  0.29332200  0.58664400  0.04850800  1.0
  Ba  Ba9  1  0.01126500  0.02252900  0.00241900  1.0
