# generated using pymatgen
data_Ba
_symmetry_space_group_name_H-M   'P 1'
_cell_length_a   7.11391848
_cell_length_b   12.32166825
_cell_length_c   33.36723537
_cell_angle_alpha   90.00000000
_cell_angle_beta   90.00000000
_cell_angle_gamma   106.77865488
_symmetry_Int_Tables_number   1
_chemical_formula_structural   Ba
_chemical_formula_sum   Ba22
_cell_volume   2800.29858025
_cell_formula_units_Z   22
loop_
 _symmetry_equiv_pos_site_id
 _symmetry_equiv_pos_as_xyz
  1  'x, y, z'
loop_
 _atom_site_type_symbol
 _atom_site_label
 _atom_site_symmetry_multiplicity
 _atom_site_fract_x
 _atom_site_fract_y
 _atom_site_fract_z
 _atom_site_occupancy
  Ba  Ba0  1  0.01966200  0.03972700  0.00483900  1.0
  Ba  Ba1  1  0.63280000  0.26571800  0.04911800  1.0
  Ba  Ba2  1  0.26138700  0.52349200  0.08918500  1.0
  Ba  Ba3  1  0.90864300  0.81739600  0.13530400  1.0
  Ba  Ba4  1  0.54526200  0.09015800  0.18176400  1.0
  Ba  Ba5  1  0.18253200  0.36543600  0.22792200  1.0
  Ba  Ba6  1  0.81957600  0.63885700  0.27451500  1.0
  Ba  Ba7  1  0.45324600  0.90608300  0.31776300  1.0
  Ba  Ba8  1  0.09462600  0.18972700  0.35713200  1.0
  Ba  Ba9  1  0.73503300  0.46950300  0.40910700  1.0
  Ba  Ba10  1  0.35405300  0.70757400  0.45512500  1.0
  Ba  Ba11  1  0.08722200  0.17385500  0.12012200  1.0
  Ba  Ba12  1  0.72847100  0.45762800  0.15951600  1.0
  Ba  Ba13  1  0.36242400  0.72478300  0.20274400  1.0
  Ba  Ba14  1  0.99916100  0.99815500  0.24935800  1.0
  Ba  Ba15  1  0.63663700  0.27353900  0.29553300  1.0
  Ba  Ba16  1  0.27334700  0.54630000  0.34194700  1.0
  Ba  Ba17  1  0.92034200  0.84008900  0.38807700  1.0
  Ba  Ba18  1  0.54904700  0.09785200  0.42817700  1.0
  Ba  Ba19  1  0.16197800  0.32388500  0.47243400  1.0
  Ba  Ba20  1  0.82780200  0.65609600  0.02215700  1.0
  Ba  Ba21  1  0.44674800  0.89414500  0.06816300  1.0
