# generated using pymatgen
data_Pm
_symmetry_space_group_name_H-M   'P 1'
_cell_length_a   9.72247701
_cell_length_b   12.38723731
_cell_length_c   22.04606200
_cell_angle_alpha   81.47090129
_cell_angle_beta   79.10782630
_cell_angle_gamma   73.71030935
_symmetry_Int_Tables_number   1
_chemical_formula_structural   Pm
_chemical_formula_sum   Pm31
_cell_volume   2489.78219212
_cell_formula_units_Z   31
loop_
 _symmetry_equiv_pos_site_id
 _symmetry_equiv_pos_as_xyz
  1  'x, y, z'
loop_
 _atom_site_type_symbol
 _atom_site_label
 _atom_site_symmetry_multiplicity
 _atom_site_fract_x
 _atom_site_fract_y
 _atom_site_fract_z
 _atom_site_occupancy
  Pm  Pm0  1  0.99985700  0.00416300  0.58834400  1.0
  Pm  Pm1  1  0.66247200  0.99756000  0.69540400  1.0
  Pm  Pm2  1  0.33426300  0.00006200  0.64329600  1.0
  Pm  Pm3  1  0.85549400  0.75069600  0.62045300  1.0
  Pm  Pm4  1  0.52482900  0.75004900  0.72562600  1.0
  Pm  Pm5  1  0.18317400  0.74757700  0.68009400  1.0
  Pm  Pm6  1  0.84538800  0.50652200  0.71940200  1.0
  Pm  Pm7  1  0.49883600  0.49215000  0.67627000  1.0
  Pm  Pm8  1  0.16883600  0.50250000  0.61336200  1.0
  Pm  Pm9  1  0.82541200  0.24975400  0.67040600  1.0
  Pm  Pm10  1  0.48859600  0.24880000  0.60902100  1.0
  Pm  Pm11  1  0.17568900  0.26202500  0.71974200  1.0
  Pm  Pm12  1  0.99907000  0.99993800  0.42614800  1.0
  Pm  Pm13  1  0.66666667  0.00000000  0.53472200  1.0
  Pm  Pm14  1  0.33347600  0.99583700  0.48110100  1.0
  Pm  Pm15  1  0.84473700  0.75120000  0.46042300  1.0
  Pm  Pm16  1  0.51346100  0.74628900  0.56965900  1.0
  Pm  Pm17  1  0.18125700  0.75070100  0.50973900  1.0
  Pm  Pm18  1  0.82892200  0.49755200  0.56467800  1.0
  Pm  Pm19  1  0.50441100  0.50244800  0.50476500  1.0
  Pm  Pm20  1  0.16449800  0.49750000  0.45608300  1.0
  Pm  Pm21  1  0.81987300  0.25371100  0.49978500  1.0
  Pm  Pm22  1  0.47783900  0.24930400  0.44899200  1.0
  Pm  Pm23  1  0.15207600  0.24929900  0.55970600  1.0
  Pm  Pm24  1  0.67086200  0.00244000  0.37404100  1.0
  Pm  Pm25  1  0.50792200  0.75024600  0.39903900  1.0
  Pm  Pm26  1  0.15764400  0.73797500  0.34970300  1.0
  Pm  Pm27  1  0.83449700  0.50785000  0.39317400  1.0
  Pm  Pm28  1  0.48794500  0.49347800  0.35004300  1.0
  Pm  Pm29  1  0.80850500  0.24995100  0.34381900  1.0
  Pm  Pm30  1  0.15015900  0.25242300  0.38935000  1.0
