# generated using pymatgen
data_Ba
_symmetry_space_group_name_H-M   'P 1'
_cell_length_a   5.03030000
_cell_length_b   18.13700458
_cell_length_c   36.27400916
_cell_angle_alpha   90.00000000
_cell_angle_beta   90.00000000
_cell_angle_gamma   90.00000000
_symmetry_Int_Tables_number   1
_chemical_formula_structural   Ba
_chemical_formula_sum   Ba26
_cell_volume   3309.44377802
_cell_formula_units_Z   26
loop_
 _symmetry_equiv_pos_site_id
 _symmetry_equiv_pos_as_xyz
  1  'x, y, z'
loop_
 _atom_site_type_symbol
 _atom_site_label
 _atom_site_symmetry_multiplicity
 _atom_site_fract_x
 _atom_site_fract_y
 _atom_site_fract_z
 _atom_site_occupancy
  Ba  Ba0  1  0.00000000  0.37618400  0.46014500  1.0
  Ba  Ba1  1  0.00000100  0.16382000  0.38108000  1.0
  Ba  Ba2  1  0.00000100  0.77221800  0.42194100  1.0
  Ba  Ba3  1  0.00000100  0.54034100  0.34644600  1.0
  Ba  Ba4  1  0.00000000  0.30618500  0.26889300  1.0
  Ba  Ba5  1  0.00000100  0.08041500  0.19218000  1.0
  Ba  Ba6  1  0.99999800  0.91980300  0.30825600  1.0
  Ba  Ba7  1  0.00000100  0.69246400  0.23110700  1.0
  Ba  Ba8  1  0.00000000  0.46222000  0.15290000  1.0
  Ba  Ba9  1  0.00000000  0.22022200  0.07867900  1.0
  Ba  Ba10  1  0.00000000  0.01654300  0.00314100  1.0
  Ba  Ba11  1  0.00000000  0.84189800  0.11562000  1.0
  Ba  Ba12  1  0.00000000  0.61741700  0.03988700  1.0
  Ba  Ba13  1  0.50000000  0.35039600  0.36511400  1.0
  Ba  Ba14  1  0.50000000  0.11186700  0.28860100  1.0
  Ba  Ba15  1  0.49999900  0.73006900  0.32789900  1.0
  Ba  Ba16  1  0.50000000  0.49973700  0.24969600  1.0
  Ba  Ba17  1  0.50000000  0.27256700  0.17249000  1.0
  Ba  Ba18  1  0.50000000  0.02858400  0.09969000  1.0
  Ba  Ba19  1  0.50000000  0.88611700  0.21186100  1.0
  Ba  Ba20  1  0.50000000  0.65206800  0.13430500  1.0
  Ba  Ba21  1  0.50000000  0.42013300  0.05888300  1.0
  Ba  Ba22  1  0.50000000  0.17568600  0.47763400  1.0
  Ba  Ba23  1  0.50000100  0.97211800  0.40208600  1.0
  Ba  Ba24  1  0.50000000  0.81608500  0.02061800  1.0
  Ba  Ba25  1  0.50000000  0.57484300  0.44084700  1.0
