# generated using pymatgen
data_Ba
_symmetry_space_group_name_H-M   'P 1'
_cell_length_a   7.11391848
_cell_length_b   15.90720531
_cell_length_c   43.85313871
_cell_angle_alpha   90.00000000
_cell_angle_beta   90.00000000
_cell_angle_gamma   77.07903362
_symmetry_Int_Tables_number   1
_chemical_formula_structural   Ba
_chemical_formula_sum   Ba38
_cell_volume   4836.87936516
_cell_formula_units_Z   38
loop_
 _symmetry_equiv_pos_site_id
 _symmetry_equiv_pos_as_xyz
  1  'x, y, z'
loop_
 _atom_site_type_symbol
 _atom_site_label
 _atom_site_symmetry_multiplicity
 _atom_site_fract_x
 _atom_site_fract_y
 _atom_site_fract_z
 _atom_site_occupancy
  Ba  Ba0  1  0.84229900  0.31553200  0.02723500  1.0
  Ba  Ba1  1  0.68355000  0.63328500  0.05084500  1.0
  Ba  Ba2  1  0.52708500  0.94544200  0.07475600  1.0
  Ba  Ba3  1  0.00241000  0.99507900  0.00191300  1.0
  Ba  Ba4  1  0.36778300  0.26385400  0.10588600  1.0
  Ba  Ba5  1  0.21101700  0.57709600  0.13242700  1.0
  Ba  Ba6  1  0.05156000  0.89648500  0.15960500  1.0
  Ba  Ba7  1  0.89453100  0.21055800  0.18408700  1.0
  Ba  Ba8  1  0.73686900  0.52631900  0.21015900  1.0
  Ba  Ba9  1  0.57882100  0.84220200  0.23618100  1.0
  Ba  Ba10  1  0.42132400  0.15778900  0.26252500  1.0
  Ba  Ba11  1  0.26304900  0.47393000  0.28914100  1.0
  Ba  Ba12  1  0.10520400  0.79021900  0.31672200  1.0
  Ba  Ba13  1  0.94836600  0.10365600  0.34387000  1.0
  Ba  Ba14  1  0.79124000  0.41860600  0.36961200  1.0
  Ba  Ba15  1  0.63062200  0.73895400  0.39607300  1.0
  Ba  Ba16  1  0.47109400  0.05772100  0.41517200  1.0
  Ba  Ba17  1  0.31480400  0.37019300  0.44538300  1.0
  Ba  Ba18  1  0.16256800  0.67477300  0.47101600  1.0
  Ba  Ba19  1  0.78774000  0.42350400  0.11723200  1.0
  Ba  Ba20  1  0.63061700  0.73843600  0.14298200  1.0
  Ba  Ba21  1  0.47369300  0.05189400  0.17012400  1.0
  Ba  Ba22  1  0.94825700  0.10314300  0.09076800  1.0
  Ba  Ba23  1  0.31594200  0.36818500  0.19770300  1.0
  Ba  Ba24  1  0.15767000  0.68437300  0.22430700  1.0
  Ba  Ba25  1  0.00017700  0.99992100  0.25065700  1.0
  Ba  Ba26  1  0.84216900  0.31579500  0.27668900  1.0
  Ba  Ba27  1  0.68439400  0.63155300  0.30275900  1.0
  Ba  Ba28  1  0.52737800  0.94560800  0.32724300  1.0
  Ba  Ba29  1  0.36797300  0.26497000  0.35441900  1.0
  Ba  Ba30  1  0.21120600  0.57826500  0.38093900  1.0
  Ba  Ba31  1  0.05175600  0.89669500  0.41209100  1.0
  Ba  Ba32  1  0.89546000  0.20879200  0.43600700  1.0
  Ba  Ba33  1  0.73674800  0.52655000  0.45961900  1.0
  Ba  Ba34  1  0.57632900  0.84700700  0.48493400  1.0
  Ba  Ba35  1  0.41633300  0.16732400  0.01580800  1.0
  Ba  Ba36  1  0.26420900  0.47193700  0.04145200  1.0
  Ba  Ba37  1  0.10775400  0.78435500  0.07165800  1.0
