# generated using pymatgen
data_Ba
_symmetry_space_group_name_H-M   'P 1'
_cell_length_a   4.35369342
_cell_length_b   10.95818682
_cell_length_c   24.63419632
_cell_angle_alpha   79.18325267
_cell_angle_beta   89.97341363
_cell_angle_gamma   82.38032997
_symmetry_Int_Tables_number   1
_chemical_formula_structural   Ba
_chemical_formula_sum   Ba9
_cell_volume   1143.82801636
_cell_formula_units_Z   9
loop_
 _symmetry_equiv_pos_site_id
 _symmetry_equiv_pos_as_xyz
  1  'x, y, z'
loop_
 _atom_site_type_symbol
 _atom_site_label
 _atom_site_symmetry_multiplicity
 _atom_site_fract_x
 _atom_site_fract_y
 _atom_site_fract_z
 _atom_site_occupancy
  Ba  Ba0  1  0.39443200  0.00012800  0.60808600  1.0
  Ba  Ba1  1  0.93496800  0.66973200  0.71695300  1.0
  Ba  Ba2  1  0.65603600  0.33452700  0.66606000  1.0
  Ba  Ba3  1  0.77989200  0.00232200  0.44458000  1.0
  Ba  Ba4  1  0.22011300  0.66434500  0.55542100  1.0
  Ba  Ba5  1  0.99998600  0.33333333  0.50000100  1.0
  Ba  Ba6  1  0.06505500  0.99693100  0.28303900  1.0
  Ba  Ba7  1  0.60555900  0.66653800  0.39191700  1.0
  Ba  Ba8  1  0.34395600  0.33214300  0.33394400  1.0
