# generated using pymatgen
data_Ba
_symmetry_space_group_name_H-M   'P 1'
_cell_length_a   7.10950402
_cell_length_b   15.08565110
_cell_length_c   41.45383125
_cell_angle_alpha   89.98891070
_cell_angle_beta   89.99999414
_cell_angle_gamma   103.62922837
_symmetry_Int_Tables_number   1
_chemical_formula_structural   Ba
_chemical_formula_sum   Ba34
_cell_volume   4320.79052109
_cell_formula_units_Z   34
loop_
 _symmetry_equiv_pos_site_id
 _symmetry_equiv_pos_as_xyz
  1  'x, y, z'
loop_
 _atom_site_type_symbol
 _atom_site_label
 _atom_site_symmetry_multiplicity
 _atom_site_fract_x
 _atom_site_fract_y
 _atom_site_fract_z
 _atom_site_occupancy
  Ba  Ba0  1  0.29667700  0.59354000  0.27398300  1.0
  Ba  Ba1  1  0.87672000  0.75408800  0.32837100  1.0
  Ba  Ba2  1  0.00653200  0.01326800  0.74024900  1.0
  Ba  Ba3  1  0.59157000  0.18277700  0.31256200  1.0
  Ba  Ba4  1  0.17589600  0.35192800  0.35974600  1.0
  Ba  Ba5  1  0.76603700  0.53216900  0.41868800  1.0
  Ba  Ba6  1  0.94104700  0.88191800  0.53574100  1.0
  Ba  Ba7  1  0.47222000  0.94401100  0.38866700  1.0
  Ba  Ba8  1  0.05824300  0.11691300  0.44845900  1.0
  Ba  Ba9  1  0.64708000  0.29400700  0.50887400  1.0
  Ba  Ba10  1  0.23496700  0.46983900  0.56785900  1.0
  Ba  Ba11  1  0.82249600  0.64463700  0.62564700  1.0
  Ba  Ba12  1  0.35345000  0.70660500  0.47780200  1.0
  Ba  Ba13  1  0.52747900  0.05457200  0.59082900  1.0
  Ba  Ba14  1  0.12051400  0.24136400  0.65671100  1.0
  Ba  Ba15  1  0.69743600  0.39452200  0.71373000  1.0
  Ba  Ba16  1  0.41590700  0.83161700  0.68426200  1.0
  Ba  Ba17  1  0.32454200  0.64945300  0.37431700  1.0
  Ba  Ba18  1  0.91219000  0.82429200  0.43214100  1.0
  Ba  Ba19  1  0.02651800  0.05273900  0.34329200  1.0
  Ba  Ba20  1  0.61949200  0.23950400  0.40915800  1.0
  Ba  Ba21  1  0.20603000  0.41215900  0.46422500  1.0
  Ba  Ba22  1  0.79379000  0.58753400  0.52220200  1.0
  Ba  Ba23  1  0.97117300  0.94227000  0.64025500  1.0
  Ba  Ba24  1  0.49991000  0.00001900  0.49110700  1.0
  Ba  Ba25  1  0.08871800  0.17714800  0.55151300  1.0
  Ba  Ba26  1  0.67493200  0.35006300  0.61134700  1.0
  Ba  Ba27  1  0.27038100  0.54007900  0.67166400  1.0
  Ba  Ba28  1  0.85025600  0.70058300  0.72604500  1.0
  Ba  Ba29  1  0.38111600  0.76198100  0.58132100  1.0
  Ba  Ba30  1  0.55552100  0.11133600  0.68743900  1.0
  Ba  Ba31  1  0.14055100  0.28083600  0.25972400  1.0
  Ba  Ba32  1  0.73099300  0.46255400  0.31577300  1.0
  Ba  Ba33  1  0.44961500  0.89967500  0.28629600  1.0
