# generated using pymatgen
data_Ba
_symmetry_space_group_name_H-M   'P 1'
_cell_length_a   4.35433300
_cell_length_b   7.11059600
_cell_length_c   49.26365400
_cell_angle_alpha   90.00000000
_cell_angle_beta   90.00000000
_cell_angle_gamma   90.00000000
_symmetry_Int_Tables_number   1
_chemical_formula_structural   Ba
_chemical_formula_sum   Ba12
_cell_volume   1525.29646734
_cell_formula_units_Z   12
loop_
 _symmetry_equiv_pos_site_id
 _symmetry_equiv_pos_as_xyz
  1  'x, y, z'
loop_
 _atom_site_type_symbol
 _atom_site_label
 _atom_site_symmetry_multiplicity
 _atom_site_fract_x
 _atom_site_fract_y
 _atom_site_fract_z
 _atom_site_occupancy
  Ba  Ba0  1  0.71804500  0.00000000  0.68775900  1.0
  Ba  Ba1  1  0.99149600  0.50000000  0.64595600  1.0
  Ba  Ba2  1  0.32748000  0.00000000  0.60494700  1.0
  Ba  Ba3  1  0.66769300  0.50000000  0.56275700  1.0
  Ba  Ba4  1  0.99981900  0.00000000  0.52083900  1.0
  Ba  Ba5  1  0.29407700  0.50000000  0.72745200  1.0
  Ba  Ba6  1  0.66564100  0.00000000  0.43724300  1.0
  Ba  Ba7  1  0.00585300  0.50000000  0.39505300  1.0
  Ba  Ba8  1  0.34183700  0.00000000  0.35404400  1.0
  Ba  Ba9  1  0.61528900  0.50000000  0.31224100  1.0
  Ba  Ba10  1  0.03925600  0.00000000  0.27254800  1.0
  Ba  Ba11  1  0.33351400  0.50000000  0.47916100  1.0
