# generated using pymatgen
data_Be
_symmetry_space_group_name_H-M   'P 1'
_cell_length_a   3.53874417
_cell_length_b   4.33224705
_cell_length_c   24.51804592
_cell_angle_alpha   90.00143048
_cell_angle_beta   90.00000000
_cell_angle_gamma   90.00000000
_symmetry_Int_Tables_number   1
_chemical_formula_structural   Be
_chemical_formula_sum   Be24
_cell_volume   375.87914951
_cell_formula_units_Z   24
loop_
 _symmetry_equiv_pos_site_id
 _symmetry_equiv_pos_as_xyz
  1  'x, y, z'
loop_
 _atom_site_type_symbol
 _atom_site_label
 _atom_site_symmetry_multiplicity
 _atom_site_fract_x
 _atom_site_fract_y
 _atom_site_fract_z
 _atom_site_occupancy
  Be  Be0  1  0.00000000  0.02681100  0.00838500  1.0
  Be  Be1  1  0.50000000  0.27939300  0.04245700  1.0
  Be  Be2  1  0.00000000  0.54718600  0.05382700  1.0
  Be  Be3  1  0.50000100  0.01254400  0.13187500  1.0
  Be  Be4  1  0.00000300  0.29945100  0.16478600  1.0
  Be  Be5  1  0.50000000  0.66285500  0.20687800  1.0
  Be  Be6  1  0.00000100  0.06816400  0.08705100  1.0
  Be  Be7  1  0.50000000  0.51675300  0.12022500  1.0
  Be  Be8  1  0.00000000  0.80338500  0.16449000  1.0
  Be  Be9  1  0.50000300  0.16437400  0.21177500  1.0
  Be  Be10  1  0.99999900  0.49823500  0.24812400  1.0
  Be  Be11  1  0.50000000  0.80769300  0.04492200  1.0
  Be  Be12  1  0.00000200  0.00175600  0.25188600  1.0
  Be  Be13  1  0.49999900  0.33552200  0.28822700  1.0
  Be  Be14  1  0.00000100  0.69665100  0.33551700  1.0
  Be  Be15  1  0.49999900  0.98323500  0.37976800  1.0
  Be  Be16  1  0.99999900  0.43192400  0.41295200  1.0
  Be  Be17  1  0.49999800  0.69234000  0.45507900  1.0
  Be  Be18  1  0.99999900  0.20057300  0.33522100  1.0
  Be  Be19  1  0.49999900  0.48744600  0.36812400  1.0
  Be  Be20  1  0.99999900  0.95284800  0.44616300  1.0
  Be  Be21  1  0.49999800  0.22062500  0.45753700  1.0
  Be  Be22  1  0.99999900  0.47319100  0.49161600  1.0
  Be  Be23  1  0.50000100  0.83704500  0.29311500  1.0
