# generated using pymatgen
data_Pm
_symmetry_space_group_name_H-M   'P 1'
_cell_length_a   9.71875852
_cell_length_b   12.39312197
_cell_length_c   22.03578400
_cell_angle_alpha   98.52101702
_cell_angle_beta   79.10874694
_cell_angle_gamma   77.03954000
_symmetry_Int_Tables_number   1
_chemical_formula_structural   Pm
_chemical_formula_sum   Pm36
_cell_volume   2489.05452222
_cell_formula_units_Z   36
loop_
 _symmetry_equiv_pos_site_id
 _symmetry_equiv_pos_as_xyz
  1  'x, y, z'
loop_
 _atom_site_type_symbol
 _atom_site_label
 _atom_site_symmetry_multiplicity
 _atom_site_fract_x
 _atom_site_fract_y
 _atom_site_fract_z
 _atom_site_occupancy
  Pm  Pm0  1  0.00503600  0.99835100  0.38804300  1.0
  Pm  Pm1  1  0.33521800  0.01343100  0.28740000  1.0
  Pm  Pm2  1  0.66289300  0.00796400  0.34088100  1.0
  Pm  Pm3  1  0.64140100  0.75385200  0.39725400  1.0
  Pm  Pm4  1  0.97738100  0.75045100  0.29015800  1.0
  Pm  Pm5  1  0.31611900  0.74589800  0.34038100  1.0
  Pm  Pm6  1  0.81572100  0.50845100  0.28619200  1.0
  Pm  Pm7  1  0.17496400  0.49010000  0.32891700  1.0
  Pm  Pm8  1  0.49774000  0.50269100  0.39715900  1.0
  Pm  Pm9  1  0.00797200  0.24962600  0.32262900  1.0
  Pm  Pm10  1  0.35351400  0.25028400  0.38746300  1.0
  Pm  Pm11  1  0.64422100  0.26551000  0.27623500  1.0
  Pm  Pm12  1  0.99939100  0.00250300  0.55483300  1.0
  Pm  Pm13  1  0.33394200  0.99749700  0.44516700  1.0
  Pm  Pm14  1  0.66666667  0.00000000  0.50000000  1.0
  Pm  Pm15  1  0.64619700  0.74835900  0.56406800  1.0
  Pm  Pm16  1  0.98816600  0.74477300  0.44736600  1.0
  Pm  Pm17  1  0.31113000  0.75166600  0.51173100  1.0
  Pm  Pm18  1  0.84146600  0.49788500  0.44014700  1.0
  Pm  Pm19  1  0.16666700  0.50000000  0.50000000  1.0
  Pm  Pm20  1  0.49186700  0.50211500  0.55985300  1.0
  Pm  Pm21  1  0.02220400  0.24833400  0.48826900  1.0
  Pm  Pm22  1  0.34516700  0.25522700  0.55263400  1.0
  Pm  Pm23  1  0.68713600  0.25164100  0.43593200  1.0
  Pm  Pm24  1  0.99811500  0.98656900  0.71260000  1.0
  Pm  Pm25  1  0.32829700  0.00164900  0.61195700  1.0
  Pm  Pm26  1  0.67044100  0.99203600  0.65911900  1.0
  Pm  Pm27  1  0.68911200  0.73449000  0.72376500  1.0
  Pm  Pm28  1  0.97981900  0.74971600  0.61253700  1.0
  Pm  Pm29  1  0.32536200  0.75037400  0.67737100  1.0
  Pm  Pm30  1  0.83559300  0.49730900  0.60284100  1.0
  Pm  Pm31  1  0.15837000  0.50990000  0.67108300  1.0
  Pm  Pm32  1  0.51761200  0.49154900  0.71380800  1.0
  Pm  Pm33  1  0.01721500  0.25410200  0.65961900  1.0
  Pm  Pm34  1  0.35595200  0.24954900  0.70984200  1.0
  Pm  Pm35  1  0.69193200  0.24614800  0.60274600  1.0
