# generated using pymatgen
data_Be
_symmetry_space_group_name_H-M   'P 1'
_cell_length_a   3.53711008
_cell_length_b   5.59592626
_cell_length_c   30.01933616
_cell_angle_alpha   89.99406776
_cell_angle_beta   89.98830597
_cell_angle_gamma   71.58619872
_symmetry_Int_Tables_number   1
_chemical_formula_structural   Be
_chemical_formula_sum   Be36
_cell_volume   563.76263363
_cell_formula_units_Z   36
loop_
 _symmetry_equiv_pos_site_id
 _symmetry_equiv_pos_as_xyz
  1  'x, y, z'
loop_
 _atom_site_type_symbol
 _atom_site_label
 _atom_site_symmetry_multiplicity
 _atom_site_fract_x
 _atom_site_fract_y
 _atom_site_fract_z
 _atom_site_occupancy
  Be  Be0  1  0.77432900  0.44991600  0.02727600  1.0
  Be  Be1  1  0.55579100  0.88655600  0.03189400  1.0
  Be  Be2  1  0.97357900  0.05130200  0.00031100  1.0
  Be  Be3  1  0.32280500  0.35177900  0.08197600  1.0
  Be  Be4  1  0.10830800  0.78087000  0.11512300  1.0
  Be  Be5  1  0.88793200  0.22203200  0.13583100  1.0
  Be  Be6  1  0.65883700  0.68123000  0.16322900  1.0
  Be  Be7  1  0.44272100  0.11387700  0.19260400  1.0
  Be  Be8  1  0.22339100  0.55328300  0.22281300  1.0
  Be  Be9  1  0.69947500  0.59893600  0.09215200  1.0
  Be  Be10  1  0.49573100  0.00599100  0.11859300  1.0
  Be  Be11  1  0.95427200  0.08931300  0.06805300  1.0
  Be  Be12  1  0.27635700  0.44528900  0.15318400  1.0
  Be  Be13  1  0.05443800  0.89084200  0.18328200  1.0
  Be  Be14  1  0.83312800  0.33371900  0.20708600  1.0
  Be  Be15  1  0.60970700  0.78092100  0.23412100  1.0
  Be  Be16  1  0.36793800  0.26275400  0.01095500  1.0
  Be  Be17  1  0.16230400  0.67388500  0.04096700  1.0
  Be  Be18  1  0.77851900  0.44433800  0.27904300  1.0
  Be  Be19  1  0.55703500  0.88757400  0.30272800  1.0
  Be  Be20  1  0.00211600  0.99743700  0.25193700  1.0
  Be  Be21  1  0.33474500  0.33273800  0.33278400  1.0
  Be  Be22  1  0.11499000  0.77159000  0.36752300  1.0
  Be  Be23  1  0.91197400  0.17760300  0.39407500  1.0
  Be  Be24  1  0.65628200  0.68901500  0.41805800  1.0
  Be  Be25  1  0.44855700  0.10355700  0.44511000  1.0
  Be  Be26  1  0.24301400  0.51443700  0.47529900  1.0
  Be  Be27  1  0.72314100  0.55558200  0.35030900  1.0
  Be  Be28  1  0.50238000  0.99691500  0.37088000  1.0
  Be  Be29  1  0.95267700  0.09650700  0.32292800  1.0
  Be  Be30  1  0.28826100  0.42577500  0.40412300  1.0
  Be  Be31  1  0.05488300  0.89125500  0.45465500  1.0
  Be  Be32  1  0.83605500  0.32789400  0.45876000  1.0
  Be  Be33  1  0.63742200  0.72564500  0.48583900  1.0
  Be  Be34  1  0.38832200  0.22523800  0.26311100  1.0
  Be  Be35  1  0.16858700  0.66440300  0.29338700  1.0
