# generated using pymatgen
data_Be
_symmetry_space_group_name_H-M   'P 1'
_cell_length_a   3.53914298
_cell_length_b   3.53914298
_cell_length_c   25.98409112
_cell_angle_alpha   90.00000000
_cell_angle_beta   90.00000000
_cell_angle_gamma   60.00000000
_symmetry_Int_Tables_number   1
_chemical_formula_structural   Be
_chemical_formula_sum   Be18
_cell_volume   281.86060440
_cell_formula_units_Z   18
loop_
 _symmetry_equiv_pos_site_id
 _symmetry_equiv_pos_as_xyz
  1  'x, y, z'
loop_
 _atom_site_type_symbol
 _atom_site_label
 _atom_site_symmetry_multiplicity
 _atom_site_fract_x
 _atom_site_fract_y
 _atom_site_fract_z
 _atom_site_occupancy
  Be  Be0  1  0.66666667  0.66666667  0.03879700  1.0
  Be  Be1  1  0.00000000  0.00000000  0.00179600  1.0
  Be  Be2  1  0.33333333  0.33333333  0.11318600  1.0
  Be  Be3  1  0.66666667  0.66666667  0.13738200  1.0
  Be  Be4  1  0.00000000  0.00000000  0.07986900  1.0
  Be  Be5  1  0.33333333  0.33333333  0.02980200  1.0
  Be  Be6  1  0.66666667  0.66666667  0.22394400  1.0
  Be  Be7  1  0.00000000  0.00000000  0.16288100  1.0
  Be  Be8  1  0.33333333  0.33333333  0.27730300  1.0
  Be  Be9  1  0.66666667  0.66666667  0.30934200  1.0
  Be  Be10  1  0.00000000  0.00000000  0.24827800  1.0
  Be  Be11  1  0.33333333  0.33333333  0.19491900  1.0
  Be  Be12  1  0.66666667  0.66666667  0.39235300  1.0
  Be  Be13  1  0.00000000  0.00000000  0.33484000  1.0
  Be  Be14  1  0.33333333  0.33333333  0.44242000  1.0
  Be  Be15  1  0.66666667  0.66666667  0.47042600  1.0
  Be  Be16  1  0.00000000  0.00000000  0.43342600  1.0
  Be  Be17  1  0.33333333  0.33333333  0.35903600  1.0
