# generated using pymatgen
data_Be
_symmetry_space_group_name_H-M   'P 1'
_cell_length_a   3.53844011
_cell_length_b   6.12891484
_cell_length_c   22.65979826
_cell_angle_alpha   92.57720456
_cell_angle_beta   90.00000000
_cell_angle_gamma   106.77820607
_symmetry_Int_Tables_number   1
_chemical_formula_structural   Be
_chemical_formula_sum   Be30
_cell_volume   469.97930022
_cell_formula_units_Z   30
loop_
 _symmetry_equiv_pos_site_id
 _symmetry_equiv_pos_as_xyz
  1  'x, y, z'
loop_
 _atom_site_type_symbol
 _atom_site_label
 _atom_site_symmetry_multiplicity
 _atom_site_fract_x
 _atom_site_fract_y
 _atom_site_fract_z
 _atom_site_occupancy
  Be  Be0  1  0.32249500  0.64499000  0.36538000  1.0
  Be  Be1  1  0.61854300  0.23708700  0.29709300  1.0
  Be  Be2  1  0.01429700  0.02859400  0.29677400  1.0
  Be  Be3  1  0.21519400  0.43038800  0.28501000  1.0
  Be  Be4  1  0.41614700  0.83229300  0.28511100  1.0
  Be  Be5  1  0.81699800  0.63399500  0.29992300  1.0
  Be  Be6  1  0.42681300  0.85362500  0.45002800  1.0
  Be  Be7  1  0.72578600  0.45157400  0.38344600  1.0
  Be  Be8  1  0.12444200  0.24888400  0.37195300  1.0
  Be  Be9  1  0.23151800  0.46303700  0.44973000  1.0
  Be  Be10  1  0.52184400  0.04368700  0.37274400  1.0
  Be  Be11  1  0.92206500  0.84413000  0.38357500  1.0
  Be  Be12  1  0.53403800  0.06807400  0.53746700  1.0
  Be  Be13  1  0.83077300  0.66154800  0.46794300  1.0
  Be  Be14  1  0.13823100  0.27646200  0.53776500  1.0
  Be  Be15  1  0.33589300  0.67178600  0.53205700  1.0
  Be  Be16  1  0.63262900  0.26525900  0.46253300  1.0
  Be  Be17  1  0.02843600  0.05687100  0.46223500  1.0
  Be  Be18  1  0.64482300  0.28964600  0.62725600  1.0
  Be  Be19  1  0.93514800  0.87029700  0.55027000  1.0
  Be  Be20  1  0.24460200  0.48920300  0.61642500  1.0
  Be  Be21  1  0.44088000  0.88176000  0.61655400  1.0
  Be  Be22  1  0.73985400  0.47970800  0.54997200  1.0
  Be  Be23  1  0.04222500  0.08444900  0.62804700  1.0
  Be  Be24  1  0.75052000  0.50104000  0.71488900  1.0
  Be  Be25  1  0.95147200  0.90294600  0.71499000  1.0
  Be  Be26  1  0.34966900  0.69933800  0.70007700  1.0
  Be  Be27  1  0.54812300  0.09624700  0.70290700  1.0
  Be  Be28  1  0.84417200  0.68834300  0.63462000  1.0
  Be  Be29  1  0.15237000  0.30473900  0.70322600  1.0
