# generated using pymatgen
data_Be
_symmetry_space_group_name_H-M   'P 1'
_cell_length_a   2.50176900
_cell_length_b   9.01960106
_cell_length_c   21.23508132
_cell_angle_alpha   78.68552906
_cell_angle_beta   90.00000000
_cell_angle_gamma   90.00000000
_symmetry_Int_Tables_number   1
_chemical_formula_structural   Be
_chemical_formula_sum   Be30
_cell_volume   469.85614697
_cell_formula_units_Z   30
loop_
 _symmetry_equiv_pos_site_id
 _symmetry_equiv_pos_as_xyz
  1  'x, y, z'
loop_
 _atom_site_type_symbol
 _atom_site_label
 _atom_site_symmetry_multiplicity
 _atom_site_fract_x
 _atom_site_fract_y
 _atom_site_fract_z
 _atom_site_occupancy
  Be  Be0  1  0.00000000  0.39619600  0.37397800  1.0
  Be  Be1  1  0.00000000  0.39924000  0.54240400  1.0
  Be  Be2  1  0.00000000  0.39782800  0.71071800  1.0
  Be  Be3  1  0.00000000  0.20306300  0.30475700  1.0
  Be  Be4  1  0.00000000  0.20017300  0.47320600  1.0
  Be  Be5  1  0.00000000  0.20522400  0.64284200  1.0
  Be  Be6  1  0.00000000  0.00472300  0.73817900  1.0
  Be  Be7  1  0.00000000  0.00313700  0.40648800  1.0
  Be  Be8  1  0.00000000  0.99522100  0.57499900  1.0
  Be  Be9  1  0.00000000  0.79720900  0.34159500  1.0
  Be  Be10  1  0.00000000  0.79999600  0.50967900  1.0
  Be  Be11  1  0.00000000  0.80116700  0.67916500  1.0
  Be  Be12  1  0.00000000  0.60374600  0.27007500  1.0
  Be  Be13  1  0.00000000  0.60334900  0.44132600  1.0
  Be  Be14  1  0.00000000  0.59877100  0.61068400  1.0
  Be  Be15  1  0.50000000  0.40217200  0.28928200  1.0
  Be  Be16  1  0.50000000  0.40076000  0.45759600  1.0
  Be  Be17  1  0.50000000  0.40380400  0.62602200  1.0
  Be  Be18  1  0.50000000  0.20122900  0.38931600  1.0
  Be  Be19  1  0.50000000  0.19665100  0.55867400  1.0
  Be  Be20  1  0.50000000  0.19625400  0.72992500  1.0
  Be  Be21  1  0.50000000  0.99883300  0.32083500  1.0
  Be  Be22  1  0.50000000  0.00000400  0.49032100  1.0
  Be  Be23  1  0.50000000  0.00279100  0.65840500  1.0
  Be  Be24  1  0.50000000  0.79527700  0.26182100  1.0
  Be  Be25  1  0.50000000  0.80477900  0.42500100  1.0
  Be  Be26  1  0.50000000  0.79686300  0.59351200  1.0
  Be  Be27  1  0.50000000  0.59477600  0.35715800  1.0
  Be  Be28  1  0.50000000  0.59982700  0.52679400  1.0
  Be  Be29  1  0.50000000  0.59693700  0.69524300  1.0
