# generated using pymatgen
data_Be
_symmetry_space_group_name_H-M   'P 1'
_cell_length_a   3.53918258
_cell_length_b   4.14925954
_cell_length_c   25.60451664
_cell_angle_alpha   90.85464995
_cell_angle_beta   90.00000000
_cell_angle_gamma   90.00000000
_symmetry_Int_Tables_number   1
_chemical_formula_structural   Be
_chemical_formula_sum   Be24
_cell_volume   375.96016658
_cell_formula_units_Z   24
loop_
 _symmetry_equiv_pos_site_id
 _symmetry_equiv_pos_as_xyz
  1  'x, y, z'
loop_
 _atom_site_type_symbol
 _atom_site_label
 _atom_site_symmetry_multiplicity
 _atom_site_fract_x
 _atom_site_fract_y
 _atom_site_fract_z
 _atom_site_occupancy
  Be  Be0  1  0.50000000  0.74040300  0.73815500  1.0
  Be  Be1  1  0.50000000  0.23049000  0.70110300  1.0
  Be  Be2  1  0.00000000  0.04127900  0.73827400  1.0
  Be  Be3  1  0.00000000  0.54318500  0.70141300  1.0
  Be  Be4  1  0.00000000  0.04890900  0.65470300  1.0
  Be  Be5  1  0.00000000  0.53971200  0.60953500  1.0
  Be  Be6  1  0.50000000  0.71638100  0.65447800  1.0
  Be  Be7  1  0.50000000  0.21745300  0.60993300  1.0
  Be  Be8  1  0.50000000  0.71481000  0.56664400  1.0
  Be  Be9  1  0.50000000  0.21032800  0.52267900  1.0
  Be  Be10  1  0.00000000  0.03661000  0.56648800  1.0
  Be  Be11  1  0.00000000  0.53873100  0.52224500  1.0
  Be  Be12  1  0.00000000  0.03967200  0.47732100  1.0
  Be  Be13  1  0.00000000  0.53519000  0.43335600  1.0
  Be  Be14  1  0.50000000  0.71126900  0.47775500  1.0
  Be  Be15  1  0.50000000  0.21339000  0.43351200  1.0
  Be  Be16  1  0.50000000  0.71028800  0.39046500  1.0
  Be  Be17  1  0.50000000  0.20109100  0.34529700  1.0
  Be  Be18  1  0.00000000  0.03254700  0.39006700  1.0
  Be  Be19  1  0.00000000  0.53361900  0.34552200  1.0
  Be  Be20  1  0.00000000  0.01951000  0.29889700  1.0
  Be  Be21  1  0.00000000  0.50959700  0.26184500  1.0
  Be  Be22  1  0.50000000  0.70681500  0.29858700  1.0
  Be  Be23  1  0.50000000  0.20872100  0.26172600  1.0
