# generated using pymatgen
data_Be
_symmetry_space_group_name_H-M   'P 1'
_cell_length_a   2.16632332
_cell_length_b   5.45345013
_cell_length_c   24.10374089
_cell_angle_alpha   87.95046623
_cell_angle_beta   88.26555412
_cell_angle_gamma   82.38356901
_symmetry_Int_Tables_number   1
_chemical_formula_structural   Be
_chemical_formula_sum   Be18
_cell_volume   281.97354220
_cell_formula_units_Z   18
loop_
 _symmetry_equiv_pos_site_id
 _symmetry_equiv_pos_as_xyz
  1  'x, y, z'
loop_
 _atom_site_type_symbol
 _atom_site_label
 _atom_site_symmetry_multiplicity
 _atom_site_fract_x
 _atom_site_fract_y
 _atom_site_fract_z
 _atom_site_occupancy
  Be  Be0  1  0.07051300  0.48472500  0.52158100  1.0
  Be  Be1  1  0.04885400  0.37691100  0.68461800  1.0
  Be  Be2  1  0.55823400  0.42669400  0.60222700  1.0
  Be  Be3  1  0.37753700  0.69266200  0.71821100  1.0
  Be  Be4  1  0.89892600  0.72907600  0.63844100  1.0
  Be  Be5  1  0.41496700  0.78832200  0.55851800  1.0
  Be  Be6  1  0.72172200  0.03005300  0.70548800  1.0
  Be  Be7  1  0.23513500  0.07781300  0.62353000  1.0
  Be  Be8  1  0.74677500  0.13507800  0.54096300  1.0
  Be  Be9  1  0.62248900  0.64068500  0.28178700  1.0
  Be  Be10  1  0.58499700  0.54500300  0.44148200  1.0
  Be  Be11  1  0.10106600  0.60425500  0.36155800  1.0
  Be  Be12  1  0.92945300  0.84858700  0.47841900  1.0
  Be  Be13  1  0.44178900  0.90663900  0.39777200  1.0
  Be  Be14  1  0.95117100  0.95643400  0.31538200  1.0
  Be  Be15  1  0.25320300  0.19824200  0.45903900  1.0
  Be  Be16  1  0.76486200  0.25552400  0.37647000  1.0
  Be  Be17  1  0.27830600  0.30329600  0.29451100  1.0
