# generated using pymatgen
data_Be
_symmetry_space_group_name_H-M   'P 1'
_cell_length_a   3.53946125
_cell_length_b   7.90842356
_cell_length_c   21.23677031
_cell_angle_alpha   102.91914972
_cell_angle_beta   90.01625507
_cell_angle_gamma   77.08084765
_symmetry_Int_Tables_number   1
_chemical_formula_structural   Be
_chemical_formula_sum   Be36
_cell_volume   563.96258837
_cell_formula_units_Z   36
loop_
 _symmetry_equiv_pos_site_id
 _symmetry_equiv_pos_as_xyz
  1  'x, y, z'
loop_
 _atom_site_type_symbol
 _atom_site_label
 _atom_site_symmetry_multiplicity
 _atom_site_fract_x
 _atom_site_fract_y
 _atom_site_fract_z
 _atom_site_occupancy
  Be  Be0  1  0.82027300  0.35951000  0.26395200  1.0
  Be  Be1  1  0.66547600  0.66929200  0.30015300  1.0
  Be  Be2  1  0.99312900  0.01367200  0.39298600  1.0
  Be  Be3  1  0.50286100  0.99446200  0.32413100  1.0
  Be  Be4  1  0.34305200  0.31334400  0.35508100  1.0
  Be  Be5  1  0.16275800  0.67379000  0.38108100  1.0
  Be  Be6  1  0.75047400  0.49858300  0.36551000  1.0
  Be  Be7  1  0.57640400  0.84703100  0.39972000  1.0
  Be  Be8  1  0.93223200  0.13579900  0.30572200  1.0
  Be  Be9  1  0.39789700  0.20411700  0.25704400  1.0
  Be  Be10  1  0.24580700  0.50823600  0.28598400  1.0
  Be  Be11  1  0.08774700  0.82509100  0.30287200  1.0
  Be  Be12  1  0.83917300  0.32177800  0.42840900  1.0
  Be  Be13  1  0.66461200  0.67110400  0.46588900  1.0
  Be  Be14  1  0.99700700  0.00583000  0.56917000  1.0
  Be  Be15  1  0.49639800  0.00731800  0.50440200  1.0
  Be  Be16  1  0.33978400  0.32046900  0.52698400  1.0
  Be  Be17  1  0.16254200  0.67470200  0.54958700  1.0
  Be  Be18  1  0.75205400  0.49556300  0.53411100  1.0
  Be  Be19  1  0.57749300  0.84489100  0.57158900  1.0
  Be  Be20  1  0.92026100  0.15935200  0.49559800  1.0
  Be  Be21  1  0.41965900  0.16083700  0.43082900  1.0
  Be  Be22  1  0.25412400  0.49196300  0.45041200  1.0
  Be  Be23  1  0.07688200  0.84619800  0.47301600  1.0
  Be  Be24  1  0.84026300  0.31963600  0.60028000  1.0
  Be  Be25  1  0.66619500  0.66808100  0.63449000  1.0
  Be  Be26  1  0.01876500  0.96255100  0.74295600  1.0
  Be  Be27  1  0.48443700  0.03086600  0.69427700  1.0
  Be  Be28  1  0.32891800  0.34157500  0.69712900  1.0
  Be  Be29  1  0.17085200  0.65843100  0.71401700  1.0
  Be  Be30  1  0.75119300  0.49737500  0.69984800  1.0
  Be  Be31  1  0.59640100  0.80715700  0.73604900  1.0
  Be  Be32  1  0.91380600  0.17220400  0.67586800  1.0
  Be  Be33  1  0.42354000  0.15299600  0.60701400  1.0
  Be  Be34  1  0.25391400  0.49287900  0.61892000  1.0
  Be  Be35  1  0.07361700  0.85332000  0.64491900  1.0
