# generated using pymatgen
data_Be
_symmetry_space_group_name_H-M   'P 1'
_cell_length_a   3.53808656
_cell_length_b   7.50611704
_cell_length_c   21.95541037
_cell_angle_alpha   85.65470893
_cell_angle_beta   85.37842076
_cell_angle_gamma   76.36828303
_symmetry_Int_Tables_number   1
_chemical_formula_structural   Be
_chemical_formula_sum   Be36
_cell_volume   563.83792584
_cell_formula_units_Z   36
loop_
 _symmetry_equiv_pos_site_id
 _symmetry_equiv_pos_as_xyz
  1  'x, y, z'
loop_
 _atom_site_type_symbol
 _atom_site_label
 _atom_site_symmetry_multiplicity
 _atom_site_fract_x
 _atom_site_fract_y
 _atom_site_fract_z
 _atom_site_occupancy
  Be  Be0  1  0.37476200  0.94456500  0.30591000  1.0
  Be  Be1  1  0.63690800  0.40864100  0.31754100  1.0
  Be  Be2  1  0.95954500  0.79205300  0.28885700  1.0
  Be  Be3  1  0.11532900  0.50098000  0.26836200  1.0
  Be  Be4  1  0.53637100  0.66364100  0.26361800  1.0
  Be  Be5  1  0.79700900  0.10251300  0.30346800  1.0
  Be  Be6  1  0.46466700  0.70733600  0.36332900  1.0
  Be  Be7  1  0.70449900  0.19579800  0.39520400  1.0
  Be  Be8  1  0.05188300  0.53323600  0.36299800  1.0
  Be  Be9  1  0.21282000  0.24161400  0.33274600  1.0
  Be  Be10  1  0.54629400  0.47970700  0.42770500  1.0
  Be  Be11  1  0.87485500  0.87070300  0.37958800  1.0
  Be  Be12  1  0.45912400  0.55010400  0.53165000  1.0
  Be  Be13  1  0.78823900  0.95415500  0.46936700  1.0
  Be  Be14  1  0.12656700  0.31095100  0.43591600  1.0
  Be  Be15  1  0.28799700  0.01911800  0.40488800  1.0
  Be  Be16  1  0.62680100  0.25222100  0.49417600  1.0
  Be  Be17  1  0.96153200  0.62303400  0.45390100  1.0
  Be  Be18  1  0.54533600  0.31421500  0.59511200  1.0
  Be  Be19  1  0.87180100  0.71029900  0.54609900  1.0
  Be  Be20  1  0.20653200  0.08111300  0.50582400  1.0
  Be  Be21  1  0.37421000  0.78322900  0.46835000  1.0
  Be  Be22  1  0.70676700  0.02238300  0.56408400  1.0
  Be  Be23  1  0.04509400  0.37917800  0.53063300  1.0
  Be  Be24  1  0.62051300  0.09171900  0.66725400  1.0
  Be  Be25  1  0.95847900  0.46263000  0.62041200  1.0
  Be  Be26  1  0.28703900  0.85362700  0.57229500  1.0
  Be  Be27  1  0.36866600  0.62599700  0.63667100  1.0
  Be  Be28  1  0.78145000  0.80009800  0.63700200  1.0
  Be  Be29  1  0.12883500  0.13753500  0.60479600  1.0
  Be  Be30  1  0.71800500  0.83235300  0.73163800  1.0
  Be  Be31  1  0.03632400  0.23082000  0.69653200  1.0
  Be  Be32  1  0.29696300  0.66969300  0.73638200  1.0
  Be  Be33  1  0.45857100  0.38876800  0.69409000  1.0
  Be  Be34  1  0.87378800  0.54128100  0.71114300  1.0
  Be  Be35  1  0.19642500  0.92469200  0.68245900  1.0
