# generated using pymatgen
data_Pm
_symmetry_space_group_name_H-M   'P 1'
_cell_length_a   6.36579000
_cell_length_b   23.93633251
_cell_length_c   22.05179400
_cell_angle_alpha   94.40306776
_cell_angle_beta   90.00000000
_cell_angle_gamma   82.35855354
_symmetry_Int_Tables_number   1
_chemical_formula_structural   Pm
_chemical_formula_sum   Pm43
_cell_volume   3320.26757077
_cell_formula_units_Z   43
loop_
 _symmetry_equiv_pos_site_id
 _symmetry_equiv_pos_as_xyz
  1  'x, y, z'
loop_
 _atom_site_type_symbol
 _atom_site_label
 _atom_site_symmetry_multiplicity
 _atom_site_fract_x
 _atom_site_fract_y
 _atom_site_fract_z
 _atom_site_occupancy
  Pm  Pm0  1  0.99674200  0.00181900  0.42002600  1.0
  Pm  Pm1  1  0.49723800  0.00240200  0.33729000  1.0
  Pm  Pm2  1  0.25614500  0.49538900  0.37006900  1.0
  Pm  Pm3  1  0.40228800  0.88095300  0.40835100  1.0
  Pm  Pm4  1  0.68708900  0.37139900  0.36028100  1.0
  Pm  Pm5  1  0.93952000  0.88177900  0.32037900  1.0
  Pm  Pm6  1  0.61446300  0.76993300  0.31326500  1.0
  Pm  Pm7  1  0.38078000  0.24713800  0.35644200  1.0
  Pm  Pm8  1  0.11838500  0.75058600  0.38808600  1.0
  Pm  Pm9  1  0.81632700  0.62593700  0.37459100  1.0
  Pm  Pm10  1  0.06212000  0.12552100  0.34553900  1.0
  Pm  Pm11  1  0.75160500  0.49837300  0.45084200  1.0
  Pm  Pm12  1  0.99605200  0.99980200  0.58367400  1.0
  Pm  Pm13  1  0.49605200  0.00263200  0.49938500  1.0
  Pm  Pm14  1  0.25385600  0.49938200  0.53242100  1.0
  Pm  Pm15  1  0.40576700  0.87559600  0.57151900  1.0
  Pm  Pm16  1  0.66980800  0.37500000  0.52604200  1.0
  Pm  Pm17  1  0.17188400  0.37317800  0.44396000  1.0
  Pm  Pm18  1  0.90636400  0.87440400  0.48056400  1.0
  Pm  Pm19  1  0.62085400  0.75019800  0.46840900  1.0
  Pm  Pm20  1  0.87966800  0.24935200  0.43880900  1.0
  Pm  Pm21  1  0.37823800  0.25061800  0.51966200  1.0
  Pm  Pm22  1  0.12368400  0.74736800  0.55269900  1.0
  Pm  Pm23  1  0.83394700  0.62415100  0.54061400  1.0
  Pm  Pm24  1  0.08309900  0.12584900  0.51146900  1.0
  Pm  Pm25  1  0.58190100  0.12574400  0.43033500  1.0
  Pm  Pm26  1  0.33410200  0.62309400  0.45719100  1.0
  Pm  Pm27  1  0.75401900  0.50064800  0.61327500  1.0
  Pm  Pm28  1  0.00939600  0.98006700  0.73881900  1.0
  Pm  Pm29  1  0.49397200  0.99941400  0.66399700  1.0
  Pm  Pm30  1  0.25291800  0.50286200  0.69564100  1.0
  Pm  Pm31  1  0.44629900  0.86822100  0.73170400  1.0
  Pm  Pm32  1  0.68348800  0.37860100  0.69180200  1.0
  Pm  Pm33  1  0.17006200  0.37682200  0.60812300  1.0
  Pm  Pm34  1  0.90824100  0.86904700  0.64373300  1.0
  Pm  Pm35  1  0.62356100  0.74818100  0.63205700  1.0
  Pm  Pm36  1  0.87497800  0.25162700  0.60124100  1.0
  Pm  Pm37  1  0.37653300  0.25461100  0.68201500  1.0
  Pm  Pm38  1  0.12464000  0.74759800  0.71479300  1.0
  Pm  Pm39  1  0.81264100  0.62447900  0.70654500  1.0
  Pm  Pm40  1  0.06726400  0.12406300  0.67749200  1.0
  Pm  Pm41  1  0.58219700  0.12690600  0.59489300  1.0
  Pm  Pm42  1  0.33264500  0.62425600  0.62174800  1.0
