# generated using pymatgen
data_Be
_symmetry_space_group_name_H-M   'P 1'
_cell_length_a   2.16695900
_cell_length_b   2.16695955
_cell_length_c   35.38629500
_cell_angle_alpha   90.00000000
_cell_angle_beta   90.00000000
_cell_angle_gamma   109.47122487
_symmetry_Int_Tables_number   1
_chemical_formula_structural   Be
_chemical_formula_sum   Be10
_cell_volume   156.66079280
_cell_formula_units_Z   10
loop_
 _symmetry_equiv_pos_site_id
 _symmetry_equiv_pos_as_xyz
  1  'x, y, z'
loop_
 _atom_site_type_symbol
 _atom_site_label
 _atom_site_symmetry_multiplicity
 _atom_site_fract_x
 _atom_site_fract_y
 _atom_site_fract_z
 _atom_site_occupancy
  Be  Be0  1  0.50000000  0.50000000  0.72711600  1.0
  Be  Be1  1  0.00000000  0.00000000  0.67638100  1.0
  Be  Be2  1  0.50000000  0.50000000  0.62566600  1.0
  Be  Be3  1  0.00000000  0.00000000  0.57531300  1.0
  Be  Be4  1  0.50000000  0.50000000  0.52516600  1.0
  Be  Be5  1  0.00000000  0.00000000  0.47483400  1.0
  Be  Be6  1  0.50000000  0.50000000  0.42468700  1.0
  Be  Be7  1  0.00000000  0.00000000  0.37433400  1.0
  Be  Be8  1  0.50000000  0.50000000  0.32361900  1.0
  Be  Be9  1  0.00000000  0.00000000  0.27288400  1.0
