# generated using pymatgen
data_Zn
_symmetry_space_group_name_H-M   'P 1'
_cell_length_a   4.59376062
_cell_length_b   5.66297186
_cell_length_c   28.26609457
_cell_angle_alpha   82.19687645
_cell_angle_beta   90.00000937
_cell_angle_gamma   90.00000940
_symmetry_Int_Tables_number   1
_chemical_formula_structural   Zn
_chemical_formula_sum   Zn24
_cell_volume   728.51493946
_cell_formula_units_Z   24
loop_
 _symmetry_equiv_pos_site_id
 _symmetry_equiv_pos_as_xyz
  1  'x, y, z'
loop_
 _atom_site_type_symbol
 _atom_site_label
 _atom_site_symmetry_multiplicity
 _atom_site_fract_x
 _atom_site_fract_y
 _atom_site_fract_z
 _atom_site_occupancy
  Zn  Zn0  1  0.66383300  0.07087600  0.39352100  1.0
  Zn  Zn1  1  0.66500300  0.54758800  0.14019300  1.0
  Zn  Zn2  1  0.24133400  0.02184900  0.46244500  1.0
  Zn  Zn3  1  0.15432000  0.62659500  0.18724300  1.0
  Zn  Zn4  1  0.65432000  0.87340500  0.31275700  1.0
  Zn  Zn5  1  0.74133400  0.47815100  0.03755500  1.0
  Zn  Zn6  1  0.74688200  0.26421400  0.47468600  1.0
  Zn  Zn7  1  0.65622600  0.70356600  0.22857400  1.0
  Zn  Zn8  1  0.16500300  0.95241200  0.35980700  1.0
  Zn  Zn9  1  0.16383300  0.42912300  0.10647900  1.0
  Zn  Zn10  1  0.15622600  0.79643400  0.27142600  1.0
  Zn  Zn11  1  0.24688200  0.23578600  0.02531400  1.0
  Zn  Zn12  1  0.84568000  0.37340500  0.31275700  1.0
  Zn  Zn13  1  0.75866600  0.97815100  0.03755500  1.0
  Zn  Zn14  1  0.33499700  0.45241200  0.35980700  1.0
  Zn  Zn15  1  0.33616700  0.92912300  0.10647900  1.0
  Zn  Zn16  1  0.75311800  0.76421400  0.47468600  1.0
  Zn  Zn17  1  0.84377400  0.20356600  0.22857400  1.0
  Zn  Zn18  1  0.83616700  0.57087700  0.39352100  1.0
  Zn  Zn19  1  0.83499700  0.04758800  0.14019300  1.0
  Zn  Zn20  1  0.34377400  0.29643400  0.27142600  1.0
  Zn  Zn21  1  0.25311800  0.73578600  0.02531400  1.0
  Zn  Zn22  1  0.25866600  0.52184900  0.46244500  1.0
  Zn  Zn23  1  0.34568000  0.12659500  0.18724300  1.0
