# generated using pymatgen
data_Zn
_symmetry_space_group_name_H-M   'P 1'
_cell_length_a   2.65911549
_cell_length_b   5.60856078
_cell_length_c   26.59114700
_cell_angle_alpha   103.71299538
_cell_angle_beta   60.00001858
_cell_angle_gamma   76.28698106
_symmetry_Int_Tables_number   1
_chemical_formula_structural   Zn
_chemical_formula_sum   Zn10
_cell_volume   302.38962569
_cell_formula_units_Z   10
loop_
 _symmetry_equiv_pos_site_id
 _symmetry_equiv_pos_as_xyz
  1  'x, y, z'
loop_
 _atom_site_type_symbol
 _atom_site_label
 _atom_site_symmetry_multiplicity
 _atom_site_fract_x
 _atom_site_fract_y
 _atom_site_fract_z
 _atom_site_occupancy
  Zn  Zn0  1  0.02168400  0.27772500  0.06808400  1.0
  Zn  Zn1  1  0.95865100  0.81727700  0.02637500  1.0
  Zn  Zn2  1  0.01616600  0.24120300  0.17246600  1.0
  Zn  Zn3  1  0.02530100  0.74666400  0.12038400  1.0
  Zn  Zn4  1  0.99256600  0.25454500  0.27628700  1.0
  Zn  Zn5  1  0.00748500  0.74544500  0.22370800  1.0
  Zn  Zn6  1  0.97471000  0.25332800  0.37961500  1.0
  Zn  Zn7  1  0.98380700  0.75880700  0.32753800  1.0
  Zn  Zn8  1  0.04136200  0.18272500  0.47362600  1.0
  Zn  Zn9  1  0.97826700  0.72228100  0.43191800  1.0
