# generated using pymatgen
data_Zn
_symmetry_space_group_name_H-M   'P 1'
_cell_length_a   4.99382900
_cell_length_b   7.00939255
_cell_length_c   21.20770200
_cell_angle_alpha   79.09969358
_cell_angle_beta   90.00000000
_cell_angle_gamma   90.00000000
_symmetry_Int_Tables_number   1
_chemical_formula_structural   Zn
_chemical_formula_sum   Zn24
_cell_volume   728.95453571
_cell_formula_units_Z   24
loop_
 _symmetry_equiv_pos_site_id
 _symmetry_equiv_pos_as_xyz
  1  'x, y, z'
loop_
 _atom_site_type_symbol
 _atom_site_label
 _atom_site_symmetry_multiplicity
 _atom_site_fract_x
 _atom_site_fract_y
 _atom_site_fract_z
 _atom_site_occupancy
  Zn  Zn0  1  0.75000000  0.61109700  0.02239100  1.0
  Zn  Zn1  1  0.75000000  0.25862700  0.09235400  1.0
  Zn  Zn2  1  0.75000000  0.95273400  0.04410500  1.0
  Zn  Zn3  1  0.25000000  0.78325500  0.01902100  1.0
  Zn  Zn4  1  0.25000000  0.44369300  0.09240000  1.0
  Zn  Zn5  1  0.25000000  0.10608500  0.06029100  1.0
  Zn  Zn6  1  0.75000000  0.57578500  0.14736400  1.0
  Zn  Zn7  1  0.75000000  0.23654100  0.22566000  1.0
  Zn  Zn8  1  0.75000000  0.91126200  0.18129100  1.0
  Zn  Zn9  1  0.25000000  0.76189300  0.14780100  1.0
  Zn  Zn10  1  0.25000000  0.42600300  0.22771000  1.0
  Zn  Zn11  1  0.25000000  0.10071900  0.18634600  1.0
  Zn  Zn12  1  0.75000000  0.57399700  0.27229000  1.0
  Zn  Zn13  1  0.75000000  0.23810700  0.35219900  1.0
  Zn  Zn14  1  0.75000000  0.89928100  0.31365400  1.0
  Zn  Zn15  1  0.25000000  0.76345900  0.27434000  1.0
  Zn  Zn16  1  0.25000000  0.42421500  0.35263700  1.0
  Zn  Zn17  1  0.25000000  0.08873800  0.31870900  1.0
  Zn  Zn18  1  0.75000000  0.55630700  0.40760000  1.0
  Zn  Zn19  1  0.75000000  0.21674500  0.48097900  1.0
  Zn  Zn20  1  0.75000000  0.89391500  0.43970900  1.0
  Zn  Zn21  1  0.25000000  0.74137300  0.40764600  1.0
  Zn  Zn22  1  0.25000000  0.38890300  0.47760900  1.0
  Zn  Zn23  1  0.25000000  0.04726700  0.45589500  1.0
