# generated using pymatgen
data_Zn
_symmetry_space_group_name_H-M   'P 1'
_cell_length_a   5.03691300
_cell_length_b   4.56831700
_cell_length_c   21.20319700
_cell_angle_alpha   90.00000000
_cell_angle_beta   90.00000000
_cell_angle_gamma   90.00000000
_symmetry_Int_Tables_number   1
_chemical_formula_structural   Zn
_chemical_formula_sum   Zn16
_cell_volume   487.89012771
_cell_formula_units_Z   16
loop_
 _symmetry_equiv_pos_site_id
 _symmetry_equiv_pos_as_xyz
  1  'x, y, z'
loop_
 _atom_site_type_symbol
 _atom_site_label
 _atom_site_symmetry_multiplicity
 _atom_site_fract_x
 _atom_site_fract_y
 _atom_site_fract_z
 _atom_site_occupancy
  Zn  Zn0  1  0.75000000  0.37776800  0.99738800  1.0
  Zn  Zn1  1  0.75000000  0.86805700  0.05343700  1.0
  Zn  Zn2  1  0.25000000  0.62223200  0.99738800  1.0
  Zn  Zn3  1  0.25000000  0.13194300  0.05343700  1.0
  Zn  Zn4  1  0.75000000  0.35580100  0.12426900  1.0
  Zn  Zn5  1  0.75000000  0.85426800  0.18565000  1.0
  Zn  Zn6  1  0.25000000  0.64419900  0.12426900  1.0
  Zn  Zn7  1  0.25000000  0.14573200  0.18565000  1.0
  Zn  Zn8  1  0.75000000  0.35426800  0.25185000  1.0
  Zn  Zn9  1  0.75000000  0.85580100  0.31323100  1.0
  Zn  Zn10  1  0.25000000  0.64573200  0.25185000  1.0
  Zn  Zn11  1  0.25000000  0.14419900  0.31323100  1.0
  Zn  Zn12  1  0.75000000  0.36805700  0.38406300  1.0
  Zn  Zn13  1  0.75000000  0.87776800  0.44011200  1.0
  Zn  Zn14  1  0.25000000  0.63194300  0.38406300  1.0
  Zn  Zn15  1  0.25000000  0.12223200  0.44011200  1.0
