# generated using pymatgen
data_Zn
_symmetry_space_group_name_H-M   'P 1'
_cell_length_a   4.57904800
_cell_length_b   10.33350030
_cell_length_c   21.25762700
_cell_angle_alpha   97.38709375
_cell_angle_beta   90.00000000
_cell_angle_gamma   77.19913270
_symmetry_Int_Tables_number   1
_chemical_formula_structural   Zn
_chemical_formula_sum   Zn32
_cell_volume   972.29700542
_cell_formula_units_Z   32
loop_
 _symmetry_equiv_pos_site_id
 _symmetry_equiv_pos_as_xyz
  1  'x, y, z'
loop_
 _atom_site_type_symbol
 _atom_site_label
 _atom_site_symmetry_multiplicity
 _atom_site_fract_x
 _atom_site_fract_y
 _atom_site_fract_z
 _atom_site_occupancy
  Zn  Zn0  1  0.61317800  0.60048300  0.03281700  1.0
  Zn  Zn1  1  0.06949600  0.16303300  0.09148500  1.0
  Zn  Zn2  1  0.53034600  0.21716700  0.03096600  1.0
  Zn  Zn3  1  0.04267500  0.72188000  0.03387700  1.0
  Zn  Zn4  1  0.42537300  0.87321100  0.07292300  1.0
  Zn  Zn5  1  0.70580000  0.41164600  0.10586600  1.0
  Zn  Zn6  1  0.17888000  0.45505300  0.03983800  1.0
  Zn  Zn7  1  0.85102300  0.97659100  0.03295900  1.0
  Zn  Zn8  1  0.81420300  0.61493400  0.20508300  1.0
  Zn  Zn9  1  0.07273100  0.10627100  0.21728100  1.0
  Zn  Zn10  1  0.56901100  0.11713800  0.15442100  1.0
  Zn  Zn11  1  0.29827200  0.63672600  0.14682200  1.0
  Zn  Zn12  1  0.44131800  0.86402800  0.21458800  1.0
  Zn  Zn13  1  0.70264500  0.35796300  0.22776000  1.0
  Zn  Zn14  1  0.21009500  0.37580500  0.16542200  1.0
  Zn  Zn15  1  0.92482400  0.87215300  0.15141500  1.0
  Zn  Zn16  1  0.78990500  0.62419500  0.33457800  1.0
  Zn  Zn17  1  0.07517600  0.12784700  0.34858500  1.0
  Zn  Zn18  1  0.55868200  0.13597200  0.28541200  1.0
  Zn  Zn19  1  0.29735500  0.64203700  0.27224000  1.0
  Zn  Zn20  1  0.43098900  0.88286200  0.34557900  1.0
  Zn  Zn21  1  0.70172800  0.36327400  0.35317800  1.0
  Zn  Zn22  1  0.18579700  0.38506600  0.29491700  1.0
  Zn  Zn23  1  0.92726900  0.89372900  0.28271900  1.0
  Zn  Zn24  1  0.82112000  0.54494700  0.46016200  1.0
  Zn  Zn25  1  0.14897700  0.02340900  0.46704000  1.0
  Zn  Zn26  1  0.57462700  0.12678900  0.42707600  1.0
  Zn  Zn27  1  0.29420000  0.58835400  0.39413400  1.0
  Zn  Zn28  1  0.46965400  0.78283300  0.46903500  1.0
  Zn  Zn29  1  0.95732500  0.27812000  0.46612300  1.0
  Zn  Zn30  1  0.38682200  0.39951700  0.46718300  1.0
  Zn  Zn31  1  0.93050400  0.83696700  0.40851500  1.0
