# generated using pymatgen
data_Pm
_symmetry_space_group_name_H-M   'P 1'
_cell_length_a   3.67418254
_cell_length_b   3.67418254
_cell_length_c   35.44997700
_cell_angle_alpha   90.00000000
_cell_angle_beta   90.00000000
_cell_angle_gamma   119.99997377
_symmetry_Int_Tables_number   1
_chemical_formula_structural   Pm
_chemical_formula_sum   Pm8
_cell_volume   414.44620029
_cell_formula_units_Z   8
loop_
 _symmetry_equiv_pos_site_id
 _symmetry_equiv_pos_as_xyz
  1  'x, y, z'
loop_
 _atom_site_type_symbol
 _atom_site_label
 _atom_site_symmetry_multiplicity
 _atom_site_fract_x
 _atom_site_fract_y
 _atom_site_fract_z
 _atom_site_occupancy
  Pm  Pm0  1  0.00000000  0.00000000  0.29125200  1.0
  Pm  Pm1  1  0.66666667  0.33333333  0.20838300  1.0
  Pm  Pm2  1  0.00000000  0.00000000  0.12343100  1.0
  Pm  Pm3  1  0.33333333  0.66666667  0.04313300  1.0
  Pm  Pm4  1  0.00000000  0.00000000  0.62367000  1.0
  Pm  Pm5  1  0.66666667  0.33333333  0.54331400  1.0
  Pm  Pm6  1  0.00000000  0.00000000  0.45800400  1.0
  Pm  Pm7  1  0.33333333  0.66666667  0.37547900  1.0
