# generated using pymatgen
data_Zn
_symmetry_space_group_name_H-M   'P 1'
_cell_length_a   7.00370555
_cell_length_b   5.64909904
_cell_length_c   26.55704500
_cell_angle_alpha   103.59489641
_cell_angle_beta   79.07097978
_cell_angle_gamma   69.20080658
_symmetry_Int_Tables_number   1
_chemical_formula_structural   Zn
_chemical_formula_sum   Zn30
_cell_volume   910.59413570
_cell_formula_units_Z   30
loop_
 _symmetry_equiv_pos_site_id
 _symmetry_equiv_pos_as_xyz
  1  'x, y, z'
loop_
 _atom_site_type_symbol
 _atom_site_label
 _atom_site_symmetry_multiplicity
 _atom_site_fract_x
 _atom_site_fract_y
 _atom_site_fract_z
 _atom_site_occupancy
  Zn  Zn0  1  0.02829100  0.25334100  0.06215700  1.0
  Zn  Zn1  1  0.35476100  0.25718900  0.09415200  1.0
  Zn  Zn2  1  0.68922400  0.28208900  0.02982100  1.0
  Zn  Zn3  1  0.64377200  0.83066000  0.00939300  1.0
  Zn  Zn4  1  0.98915400  0.79722300  0.02987300  1.0
  Zn  Zn5  1  0.33048600  0.73424400  0.05655900  1.0
  Zn  Zn6  1  0.03272300  0.21645400  0.16231200  1.0
  Zn  Zn7  1  0.35593200  0.22844600  0.19753400  1.0
  Zn  Zn8  1  0.68875400  0.23058900  0.13125800  1.0
  Zn  Zn9  1  0.66106800  0.73719900  0.10157600  1.0
  Zn  Zn10  1  0.99940700  0.73376600  0.12995600  1.0
  Zn  Zn11  1  0.32766800  0.72574400  0.16545400  1.0
  Zn  Zn12  1  0.00787700  0.26676400  0.26667200  1.0
  Zn  Zn13  1  0.33367000  0.28450500  0.30074400  1.0
  Zn  Zn14  1  0.68872900  0.22771100  0.23092700  1.0
  Zn  Zn15  1  0.66633000  0.71549500  0.19925600  1.0
  Zn  Zn16  1  0.99212300  0.73323600  0.23332800  1.0
  Zn  Zn17  1  0.31127100  0.77228900  0.26907300  1.0
  Zn  Zn18  1  0.00059300  0.26623400  0.37004400  1.0
  Zn  Zn19  1  0.33893200  0.26280100  0.39842400  1.0
  Zn  Zn20  1  0.67233200  0.27425600  0.33454600  1.0
  Zn  Zn21  1  0.64406800  0.77155400  0.30246600  1.0
  Zn  Zn22  1  0.96727700  0.78354600  0.33768800  1.0
  Zn  Zn23  1  0.31124600  0.76941100  0.36874200  1.0
  Zn  Zn24  1  0.01084600  0.20277700  0.47012700  1.0
  Zn  Zn25  1  0.35622800  0.16934000  0.49060700  1.0
  Zn  Zn26  1  0.66951400  0.26575600  0.44344100  1.0
  Zn  Zn27  1  0.64523900  0.74281100  0.40584800  1.0
  Zn  Zn28  1  0.97170900  0.74665900  0.43784300  1.0
  Zn  Zn29  1  0.31077600  0.71791100  0.47017900  1.0
