# generated using pymatgen
data_Zn
_symmetry_space_group_name_H-M   'P 1'
_cell_length_a   2.66098286
_cell_length_b   4.92216800
_cell_length_c   26.60982500
_cell_angle_alpha   90.00000000
_cell_angle_beta   60.00001065
_cell_angle_gamma   90.00000000
_symmetry_Int_Tables_number   1
_chemical_formula_structural   Zn
_chemical_formula_sum   Zn10
_cell_volume   301.83611793
_cell_formula_units_Z   10
loop_
 _symmetry_equiv_pos_site_id
 _symmetry_equiv_pos_as_xyz
  1  'x, y, z'
loop_
 _atom_site_type_symbol
 _atom_site_label
 _atom_site_symmetry_multiplicity
 _atom_site_fract_x
 _atom_site_fract_y
 _atom_site_fract_z
 _atom_site_occupancy
  Zn  Zn0  1  0.29982700  0.25000000  0.04003400  1.0
  Zn  Zn1  1  0.79856300  0.75000000  0.04028800  1.0
  Zn  Zn2  1  0.26848700  0.25000000  0.14630200  1.0
  Zn  Zn3  1  0.76612500  0.75000000  0.14677500  1.0
  Zn  Zn4  1  0.25113500  0.25000000  0.24977300  1.0
  Zn  Zn5  1  0.74886500  0.75000000  0.25022700  1.0
  Zn  Zn6  1  0.23387500  0.25000000  0.35322500  1.0
  Zn  Zn7  1  0.73151300  0.75000000  0.35369800  1.0
  Zn  Zn8  1  0.20143700  0.25000000  0.45971200  1.0
  Zn  Zn9  1  0.70017300  0.75000000  0.45996600  1.0
