# generated using pymatgen
data_Zn
_symmetry_space_group_name_H-M   'P 1'
_cell_length_a   2.65716304
_cell_length_b   10.33397767
_cell_length_c   27.47409520
_cell_angle_alpha   102.80017596
_cell_angle_beta   90.00001879
_cell_angle_gamma   82.61335132
_symmetry_Int_Tables_number   1
_chemical_formula_structural   Zn
_chemical_formula_sum   Zn24
_cell_volume   729.24306913
_cell_formula_units_Z   24
loop_
 _symmetry_equiv_pos_site_id
 _symmetry_equiv_pos_as_xyz
  1  'x, y, z'
loop_
 _atom_site_type_symbol
 _atom_site_label
 _atom_site_symmetry_multiplicity
 _atom_site_fract_x
 _atom_site_fract_y
 _atom_site_fract_z
 _atom_site_occupancy
  Zn  Zn0  1  0.43623700  0.12752500  0.03670800  1.0
  Zn  Zn1  1  0.22730100  0.54539800  0.06433500  1.0
  Zn  Zn2  1  0.92843800  0.14312400  0.14298500  1.0
  Zn  Zn3  1  0.69329000  0.61342000  0.16184600  1.0
  Zn  Zn4  1  0.82925700  0.34148600  0.08802000  1.0
  Zn  Zn5  1  0.61513500  0.76973000  0.09546500  1.0
  Zn  Zn6  1  0.33673600  0.32652800  0.98724600  1.0
  Zn  Zn7  1  0.03368300  0.93263400  0.05650700  1.0
  Zn  Zn8  1  0.44928500  0.10143100  0.22388400  1.0
  Zn  Zn9  1  0.17293500  0.65413000  0.24818800  1.0
  Zn  Zn10  1  0.93212900  0.13574300  0.31595700  1.0
  Zn  Zn11  1  0.69790900  0.60418200  0.32411000  1.0
  Zn  Zn12  1  0.82706500  0.34587000  0.25181200  1.0
  Zn  Zn13  1  0.55071500  0.89856900  0.27611600  1.0
  Zn  Zn14  1  0.30209100  0.39581800  0.17589000  1.0
  Zn  Zn15  1  0.06787200  0.86425700  0.18404300  1.0
  Zn  Zn16  1  0.38486500  0.23027000  0.40453500  1.0
  Zn  Zn17  1  0.17074300  0.65851400  0.41198000  1.0
  Zn  Zn18  1  0.96631700  0.06736600  0.44349300  1.0
  Zn  Zn19  1  0.66326400  0.67347200  0.51275400  1.0
  Zn  Zn20  1  0.77269900  0.45460200  0.43566500  1.0
  Zn  Zn21  1  0.56376300  0.87247500  0.46329200  1.0
  Zn  Zn22  1  0.30671000  0.38658000  0.33815400  1.0
  Zn  Zn23  1  0.07156200  0.85687600  0.35701500  1.0
