# generated using pymatgen
data_Pb
_symmetry_space_group_name_H-M   'P 1'
_cell_length_a   6.01217100
_cell_length_b   6.05954400
_cell_length_c   21.06905500
_cell_angle_alpha   90.00000000
_cell_angle_beta   90.00000000
_cell_angle_gamma   90.00000000
_symmetry_Int_Tables_number   1
_chemical_formula_structural   Pb
_chemical_formula_sum   Pb12
_cell_volume   767.56705263
_cell_formula_units_Z   12
loop_
 _symmetry_equiv_pos_site_id
 _symmetry_equiv_pos_as_xyz
  1  'x, y, z'
loop_
 _atom_site_type_symbol
 _atom_site_label
 _atom_site_symmetry_multiplicity
 _atom_site_fract_x
 _atom_site_fract_y
 _atom_site_fract_z
 _atom_site_occupancy
  Pb  Pb0  1  0.75000000  0.35213100  0.00984000  1.0
  Pb  Pb1  1  0.75000000  0.83831800  0.08021500  1.0
  Pb  Pb2  1  0.25000000  0.64786900  0.00984000  1.0
  Pb  Pb3  1  0.25000000  0.16168200  0.08021500  1.0
  Pb  Pb4  1  0.75000000  0.32887600  0.17106400  1.0
  Pb  Pb5  1  0.75000000  0.82887600  0.24560300  1.0
  Pb  Pb6  1  0.25000000  0.67112400  0.17106400  1.0
  Pb  Pb7  1  0.25000000  0.17112400  0.24560300  1.0
  Pb  Pb8  1  0.75000000  0.33831800  0.33645100  1.0
  Pb  Pb9  1  0.75000000  0.85213100  0.40682700  1.0
  Pb  Pb10  1  0.25000000  0.66168200  0.33645100  1.0
  Pb  Pb11  1  0.25000000  0.14786900  0.40682700  1.0
