# generated using pymatgen
data_Pb
_symmetry_space_group_name_H-M   'P 1'
_cell_length_a   6.09401100
_cell_length_b   6.88791176
_cell_length_c   21.19902500
_cell_angle_alpha   104.86107082
_cell_angle_beta   90.00000000
_cell_angle_gamma   63.74481037
_symmetry_Int_Tables_number   1
_chemical_formula_structural   Pb
_chemical_formula_sum   Pb12
_cell_volume   764.69883029
_cell_formula_units_Z   12
loop_
 _symmetry_equiv_pos_site_id
 _symmetry_equiv_pos_as_xyz
  1  'x, y, z'
loop_
 _atom_site_type_symbol
 _atom_site_label
 _atom_site_symmetry_multiplicity
 _atom_site_fract_x
 _atom_site_fract_y
 _atom_site_fract_z
 _atom_site_occupancy
  Pb  Pb0  1  0.04478300  0.26895500  0.10616100  1.0
  Pb  Pb1  1  0.54627700  0.25796000  0.03735600  1.0
  Pb  Pb2  1  0.44796000  0.74841300  0.13889100  1.0
  Pb  Pb3  1  0.94635700  0.77235800  0.06850800  1.0
  Pb  Pb4  1  0.05628200  0.25462700  0.27273900  1.0
  Pb  Pb5  1  0.55480800  0.24956700  0.19311700  1.0
  Pb  Pb6  1  0.44519200  0.75043300  0.30688300  1.0
  Pb  Pb7  1  0.94371800  0.74537300  0.22726100  1.0
  Pb  Pb8  1  0.05364300  0.22764200  0.43149200  1.0
  Pb  Pb9  1  0.55204000  0.25158700  0.36110900  1.0
  Pb  Pb10  1  0.45372300  0.74204000  0.46264400  1.0
  Pb  Pb11  1  0.95521700  0.73104500  0.39383900  1.0
