# generated using pymatgen
data_Pb
_symmetry_space_group_name_H-M   'P 1'
_cell_length_a   3.50811277
_cell_length_b   6.01232700
_cell_length_c   28.06490019
_cell_angle_alpha   90.00000000
_cell_angle_beta   120.00000513
_cell_angle_gamma   90.00000000
_symmetry_Int_Tables_number   1
_chemical_formula_structural   Pb
_chemical_formula_sum   Pb8
_cell_volume   512.63735570
_cell_formula_units_Z   8
loop_
 _symmetry_equiv_pos_site_id
 _symmetry_equiv_pos_as_xyz
  1  'x, y, z'
loop_
 _atom_site_type_symbol
 _atom_site_label
 _atom_site_symmetry_multiplicity
 _atom_site_fract_x
 _atom_site_fract_y
 _atom_site_fract_z
 _atom_site_occupancy
  Pb  Pb0  1  0.73130900  0.25000000  0.05782800  1.0
  Pb  Pb1  1  0.29276800  0.75000000  0.07319200  1.0
  Pb  Pb2  1  0.70392200  0.25000000  0.17598100  1.0
  Pb  Pb3  1  0.27886500  0.75000000  0.19471600  1.0
  Pb  Pb4  1  0.72113500  0.25000000  0.30528400  1.0
  Pb  Pb5  1  0.29607800  0.75000000  0.32401900  1.0
  Pb  Pb6  1  0.70723200  0.25000000  0.42680800  1.0
  Pb  Pb7  1  0.26869100  0.75000000  0.44217200  1.0
