# generated using pymatgen
data_Pb
_symmetry_space_group_name_H-M   'P 1'
_cell_length_a   5.95949200
_cell_length_b   9.34212907
_cell_length_c   21.06793500
_cell_angle_alpha   79.16802725
_cell_angle_beta   90.00000000
_cell_angle_gamma   90.00000000
_symmetry_Int_Tables_number   1
_chemical_formula_structural   Pb
_chemical_formula_sum   Pb18
_cell_volume   1152.04456841
_cell_formula_units_Z   18
loop_
 _symmetry_equiv_pos_site_id
 _symmetry_equiv_pos_as_xyz
  1  'x, y, z'
loop_
 _atom_site_type_symbol
 _atom_site_label
 _atom_site_symmetry_multiplicity
 _atom_site_fract_x
 _atom_site_fract_y
 _atom_site_fract_z
 _atom_site_occupancy
  Pb  Pb0  1  0.75000000  0.56272100  0.04062900  1.0
  Pb  Pb1  1  0.75000000  0.22467300  0.13969600  1.0
  Pb  Pb2  1  0.75000000  0.88005400  0.08997100  1.0
  Pb  Pb3  1  0.25000000  0.75519900  0.03090100  1.0
  Pb  Pb4  1  0.25000000  0.43749300  0.13260300  1.0
  Pb  Pb5  1  0.25000000  0.07383500  0.08240500  1.0
  Pb  Pb6  1  0.75000000  0.56088700  0.20106500  1.0
  Pb  Pb7  1  0.75000000  0.22701300  0.30750100  1.0
  Pb  Pb8  1  0.75000000  0.88926200  0.25824600  1.0
  Pb  Pb9  1  0.25000000  0.77298700  0.19249900  1.0
  Pb  Pb10  1  0.25000000  0.43911300  0.29893500  1.0
  Pb  Pb11  1  0.25000000  0.11073800  0.24175400  1.0
  Pb  Pb12  1  0.75000000  0.56250700  0.36739700  1.0
  Pb  Pb13  1  0.75000000  0.24480100  0.46909900  1.0
  Pb  Pb14  1  0.75000000  0.92616500  0.41759500  1.0
  Pb  Pb15  1  0.25000000  0.77532700  0.36030400  1.0
  Pb  Pb16  1  0.25000000  0.43727900  0.45937100  1.0
  Pb  Pb17  1  0.25000000  0.11994600  0.41002900  1.0
