# generated using pymatgen
data_Pb
_symmetry_space_group_name_H-M   'P 1'
_cell_length_a   9.35834751
_cell_length_b   6.87415677
_cell_length_c   34.46171239
_cell_angle_alpha   88.51038481
_cell_angle_beta   90.11503138
_cell_angle_gamma   66.97042619
_symmetry_Int_Tables_number   1
_chemical_formula_structural   Pb
_chemical_formula_sum   Pb32
_cell_volume   2039.39558367
_cell_formula_units_Z   32
loop_
 _symmetry_equiv_pos_site_id
 _symmetry_equiv_pos_as_xyz
  1  'x, y, z'
loop_
 _atom_site_type_symbol
 _atom_site_label
 _atom_site_symmetry_multiplicity
 _atom_site_fract_x
 _atom_site_fract_y
 _atom_site_fract_z
 _atom_site_occupancy
  Pb  Pb0  1  0.51597200  0.44044700  0.33710900  1.0
  Pb  Pb1  1  0.51743200  0.91922100  0.08843800  1.0
  Pb  Pb2  1  0.14632500  0.47685200  0.37156600  1.0
  Pb  Pb3  1  0.13787100  0.99685200  0.11772500  1.0
  Pb  Pb4  1  0.88904600  0.37502900  0.30542100  1.0
  Pb  Pb5  1  0.90104100  0.86899600  0.05640200  1.0
  Pb  Pb6  1  0.77643100  0.53791000  0.39938200  1.0
  Pb  Pb7  1  0.77082400  0.05463700  0.14752300  1.0
  Pb  Pb8  1  0.39512600  0.61728500  0.43198600  1.0
  Pb  Pb9  1  0.39934100  0.10442300  0.18107000  1.0
  Pb  Pb10  1  0.01778300  0.67237500  0.46040700  1.0
  Pb  Pb11  1  0.02137200  0.17673000  0.21206400  1.0
  Pb  Pb12  1  0.65904400  0.73890700  0.48383600  1.0
  Pb  Pb13  1  0.64884100  0.23398400  0.24371400  1.0
  Pb  Pb14  1  0.26810000  0.29751800  0.27621900  1.0
  Pb  Pb15  1  0.26629200  0.80453600  0.02985600  1.0
  Pb  Pb16  1  0.86212900  0.00314800  0.38227500  1.0
  Pb  Pb17  1  0.85367500  0.52314800  0.12843400  1.0
  Pb  Pb18  1  0.48256800  0.08077900  0.41156200  1.0
  Pb  Pb19  1  0.48402800  0.55955300  0.16289100  1.0
  Pb  Pb20  1  0.22917600  0.94536300  0.35247700  1.0
  Pb  Pb21  1  0.22356900  0.46209100  0.10061800  1.0
  Pb  Pb22  1  0.09895900  0.13100400  0.44359800  1.0
  Pb  Pb23  1  0.11095400  0.62497100  0.19457900  1.0
  Pb  Pb24  1  0.73370800  0.19546400  0.47014400  1.0
  Pb  Pb25  1  0.73190000  0.70248200  0.22378100  1.0
  Pb  Pb26  1  0.35115800  0.76601600  0.25628600  1.0
  Pb  Pb27  1  0.34095600  0.26109300  0.01616400  1.0
  Pb  Pb28  1  0.97862800  0.82327000  0.28793600  1.0
  Pb  Pb29  1  0.98221700  0.32762500  0.03959300  1.0
  Pb  Pb30  1  0.60065900  0.89557700  0.31893000  1.0
  Pb  Pb31  1  0.60487400  0.38271500  0.06801400  1.0
