# generated using pymatgen
data_Au
_symmetry_space_group_name_H-M   'P 1'
_cell_length_a   2.96222304
_cell_length_b   8.27607500
_cell_length_c   23.69778716
_cell_angle_alpha   90.00000000
_cell_angle_beta   90.00000000
_cell_angle_gamma   90.00000000
_symmetry_Int_Tables_number   1
_chemical_formula_structural   Au
_chemical_formula_sum   Au14
_cell_volume   580.96499803
_cell_formula_units_Z   14
loop_
 _symmetry_equiv_pos_site_id
 _symmetry_equiv_pos_as_xyz
  1  'x, y, z'
loop_
 _atom_site_type_symbol
 _atom_site_label
 _atom_site_symmetry_multiplicity
 _atom_site_fract_x
 _atom_site_fract_y
 _atom_site_fract_z
 _atom_site_occupancy
  Au  Au0  1  0.00000000  0.99871600  0.60174200  1.0
  Au  Au1  1  0.00000000  0.49876500  0.58788700  1.0
  Au  Au2  1  0.00000000  0.49983100  0.70802400  1.0
  Au  Au3  1  0.50000000  0.24589500  0.65743400  1.0
  Au  Au4  1  0.50000000  0.75435100  0.65833800  1.0
  Au  Au5  1  0.50000000  0.23920800  0.53215600  1.0
  Au  Au6  1  0.50000000  0.75744400  0.53175700  1.0
  Au  Au7  1  0.00000000  0.99564900  0.34166200  1.0
  Au  Au8  1  0.00000000  0.50410500  0.34256600  1.0
  Au  Au9  1  0.00000000  0.99255600  0.46824300  1.0
  Au  Au10  1  0.00000000  0.51079200  0.46784400  1.0
  Au  Au11  1  0.50000000  0.25123500  0.41211300  1.0
  Au  Au12  1  0.50000000  0.75128400  0.39825800  1.0
  Au  Au13  1  0.50000000  0.25016900  0.29197600  1.0
