# generated using pymatgen
data_Pb
_symmetry_space_group_name_H-M   'P 1'
_cell_length_a   6.09488677
_cell_length_b   6.88475362
_cell_length_c   36.87400605
_cell_angle_alpha   81.39887558
_cell_angle_beta   90.00000061
_cell_angle_gamma   89.99999501
_symmetry_Int_Tables_number   1
_chemical_formula_structural   Pb
_chemical_formula_sum   Pb24
_cell_volume   1529.89765044
_cell_formula_units_Z   24
loop_
 _symmetry_equiv_pos_site_id
 _symmetry_equiv_pos_as_xyz
  1  'x, y, z'
loop_
 _atom_site_type_symbol
 _atom_site_label
 _atom_site_symmetry_multiplicity
 _atom_site_fract_x
 _atom_site_fract_y
 _atom_site_fract_z
 _atom_site_occupancy
  Pb  Pb0  1  0.33092800  0.17404000  0.14431200  1.0
  Pb  Pb1  1  0.83159600  0.00350600  0.18741000  1.0
  Pb  Pb2  1  0.32397500  0.49826400  0.06080400  1.0
  Pb  Pb3  1  0.33524600  0.83122500  0.22855400  1.0
  Pb  Pb4  1  0.83561300  0.32918800  0.10307300  1.0
  Pb  Pb5  1  0.82151100  0.66261100  0.02630000  1.0
  Pb  Pb6  1  0.17602500  0.99826400  0.06080400  1.0
  Pb  Pb7  1  0.66438700  0.82918800  0.10307300  1.0
  Pb  Pb8  1  0.16475400  0.33122500  0.22855400  1.0
  Pb  Pb9  1  0.16907200  0.67404000  0.14431200  1.0
  Pb  Pb10  1  0.67848900  0.16261100  0.02630000  1.0
  Pb  Pb11  1  0.66840400  0.50350600  0.18741000  1.0
  Pb  Pb12  1  0.33561300  0.17081200  0.39692700  1.0
  Pb  Pb13  1  0.82397500  0.00173600  0.43919600  1.0
  Pb  Pb14  1  0.33159600  0.49649400  0.31259000  1.0
  Pb  Pb15  1  0.32151100  0.83738900  0.47370000  1.0
  Pb  Pb16  1  0.83092800  0.32596000  0.35568800  1.0
  Pb  Pb17  1  0.83524600  0.66877500  0.27144600  1.0
  Pb  Pb18  1  0.16840400  0.99649400  0.31259000  1.0
  Pb  Pb19  1  0.66907200  0.82596000  0.35568800  1.0
  Pb  Pb20  1  0.17848900  0.33738900  0.47370000  1.0
  Pb  Pb21  1  0.16438700  0.67081200  0.39692700  1.0
  Pb  Pb22  1  0.66475400  0.16877500  0.27144600  1.0
  Pb  Pb23  1  0.67602500  0.50173600  0.43919600  1.0
