# generated using pymatgen
data_Pb
_symmetry_space_group_name_H-M   'P 1'
_cell_length_a   3.53178789
_cell_length_b   12.35118804
_cell_length_c   24.40036033
_cell_angle_alpha   104.29671564
_cell_angle_beta   89.99999851
_cell_angle_gamma   81.78005058
_symmetry_Int_Tables_number   1
_chemical_formula_structural   Pb
_chemical_formula_sum   Pb16
_cell_volume   1020.13461755
_cell_formula_units_Z   16
loop_
 _symmetry_equiv_pos_site_id
 _symmetry_equiv_pos_as_xyz
  1  'x, y, z'
loop_
 _atom_site_type_symbol
 _atom_site_label
 _atom_site_symmetry_multiplicity
 _atom_site_fract_x
 _atom_site_fract_y
 _atom_site_fract_z
 _atom_site_occupancy
  Pb  Pb0  1  0.43564600  0.12870700  0.05945200  1.0
  Pb  Pb1  1  0.18749800  0.62500500  0.11053400  1.0
  Pb  Pb2  1  0.93322500  0.13354900  0.17929400  1.0
  Pb  Pb3  1  0.68736800  0.62526500  0.23016300  1.0
  Pb  Pb4  1  0.81255600  0.37488900  0.13125800  1.0
  Pb  Pb5  1  0.55901700  0.88196600  0.19191500  1.0
  Pb  Pb6  1  0.31617700  0.36764500  0.01681000  1.0
  Pb  Pb7  1  0.05909300  0.88181300  0.07394700  1.0
  Pb  Pb8  1  0.44098300  0.11803400  0.30808500  1.0
  Pb  Pb9  1  0.18744400  0.62511100  0.36874200  1.0
  Pb  Pb10  1  0.94090700  0.11818700  0.42605300  1.0
  Pb  Pb11  1  0.68382300  0.63235500  0.48319000  1.0
  Pb  Pb12  1  0.81250200  0.37499500  0.38946600  1.0
  Pb  Pb13  1  0.56435400  0.87129300  0.44054800  1.0
  Pb  Pb14  1  0.31263200  0.37473500  0.26983700  1.0
  Pb  Pb15  1  0.06677500  0.86645100  0.32070600  1.0
