# generated using pymatgen
data_Pb
_symmetry_space_group_name_H-M   'P 1'
_cell_length_a   3.52295343
_cell_length_b   9.21129194
_cell_length_c   34.04389619
_cell_angle_alpha   92.33437771
_cell_angle_beta   89.99999464
_cell_angle_gamma   67.51383730
_symmetry_Int_Tables_number   1
_chemical_formula_structural   Pb
_chemical_formula_sum   Pb16
_cell_volume   1019.77201514
_cell_formula_units_Z   16
loop_
 _symmetry_equiv_pos_site_id
 _symmetry_equiv_pos_as_xyz
  1  'x, y, z'
loop_
 _atom_site_type_symbol
 _atom_site_label
 _atom_site_symmetry_multiplicity
 _atom_site_fract_x
 _atom_site_fract_y
 _atom_site_fract_z
 _atom_site_occupancy
  Pb  Pb0  1  0.20874600  0.79125400  0.11346500  1.0
  Pb  Pb1  1  0.46795900  0.03204100  0.05204300  1.0
  Pb  Pb2  1  0.96006700  0.53993300  0.17392500  1.0
  Pb  Pb3  1  0.70561900  0.29438100  0.23956000  1.0
  Pb  Pb4  1  0.54349000  0.95651000  0.20018100  1.0
  Pb  Pb5  1  0.79559400  0.20440600  0.13520900  1.0
  Pb  Pb6  1  0.28958800  0.71041200  0.01709300  1.0
  Pb  Pb7  1  0.04406000  0.45594000  0.07147900  1.0
  Pb  Pb8  1  0.20440600  0.79559400  0.36479100  1.0
  Pb  Pb9  1  0.45651000  0.04349000  0.29981900  1.0
  Pb  Pb10  1  0.95594000  0.54406000  0.42852100  1.0
  Pb  Pb11  1  0.71041200  0.28958800  0.48290700  1.0
  Pb  Pb12  1  0.53204100  0.96795900  0.44795700  1.0
  Pb  Pb13  1  0.79125400  0.20874600  0.38653500  1.0
  Pb  Pb14  1  0.29438100  0.70561900  0.26044000  1.0
  Pb  Pb15  1  0.03993300  0.46006700  0.32607500  1.0
