# generated using pymatgen
data_Pb
_symmetry_space_group_name_H-M   'P 1'
_cell_length_a   6.86313221
_cell_length_b   8.52552528
_cell_length_c   20.48933217
_cell_angle_alpha   84.75987944
_cell_angle_beta   85.99086935
_cell_angle_gamma   74.17749657
_symmetry_Int_Tables_number   1
_chemical_formula_structural   Pb
_chemical_formula_sum   Pb18
_cell_volume   1147.35490593
_cell_formula_units_Z   18
loop_
 _symmetry_equiv_pos_site_id
 _symmetry_equiv_pos_as_xyz
  1  'x, y, z'
loop_
 _atom_site_type_symbol
 _atom_site_label
 _atom_site_symmetry_multiplicity
 _atom_site_fract_x
 _atom_site_fract_y
 _atom_site_fract_z
 _atom_site_occupancy
  Pb  Pb0  1  0.98647300  0.83989700  0.93164600  1.0
  Pb  Pb1  1  0.40640900  0.47884100  0.87582500  1.0
  Pb  Pb2  1  0.61094400  0.14897000  0.97625100  1.0
  Pb  Pb3  1  0.47828000  0.87116200  0.89624100  1.0
  Pb  Pb4  1  0.89568700  0.53051900  0.84495900  1.0
  Pb  Pb5  1  0.10662300  0.19438400  0.95082000  1.0
  Pb  Pb6  1  0.16679800  0.80752000  0.76975200  1.0
  Pb  Pb7  1  0.55156200  0.47480600  0.71074300  1.0
  Pb  Pb8  1  0.79894900  0.15013100  0.82267600  1.0
  Pb  Pb9  1  0.66653500  0.85914700  0.73024700  1.0
  Pb  Pb10  1  0.03438400  0.51653600  0.67732400  1.0
  Pb  Pb11  1  0.28177200  0.19186000  0.78925700  1.0
  Pb  Pb12  1  0.35505300  0.79550500  0.60375900  1.0
  Pb  Pb13  1  0.72671100  0.47228200  0.54918000  1.0
  Pb  Pb14  1  0.93764600  0.13614800  0.65504100  1.0
  Pb  Pb15  1  0.84686100  0.82677000  0.56835400  1.0
  Pb  Pb16  1  0.22238900  0.51769700  0.52374900  1.0
  Pb  Pb17  1  0.42692500  0.18782500  0.62417500  1.0
