# generated using pymatgen
data_Pb
_symmetry_space_group_name_H-M   'P 1'
_cell_length_a   6.09863600
_cell_length_b   12.34920541
_cell_length_c   21.19506600
_cell_angle_alpha   98.22297438
_cell_angle_beta   90.00000000
_cell_angle_gamma   75.70442666
_symmetry_Int_Tables_number   1
_chemical_formula_structural   Pb
_chemical_formula_sum   Pb24
_cell_volume   1529.90027526
_cell_formula_units_Z   24
loop_
 _symmetry_equiv_pos_site_id
 _symmetry_equiv_pos_as_xyz
  1  'x, y, z'
loop_
 _atom_site_type_symbol
 _atom_site_label
 _atom_site_symmetry_multiplicity
 _atom_site_fract_x
 _atom_site_fract_y
 _atom_site_fract_z
 _atom_site_occupancy
  Pb  Pb0  1  0.82406900  0.64151300  0.38239900  1.0
  Pb  Pb1  1  0.13188800  0.13196600  0.34363400  1.0
  Pb  Pb2  1  0.62653300  0.14738100  0.27528600  1.0
  Pb  Pb3  1  0.31184900  0.62863900  0.31072600  1.0
  Pb  Pb4  1  0.35560000  0.87865500  0.40118200  1.0
  Pb  Pb5  1  0.67136900  0.38342200  0.36494400  1.0
  Pb  Pb6  1  0.18566800  0.38026700  0.29416400  1.0
  Pb  Pb7  1  0.85438700  0.89239000  0.32926600  1.0
  Pb  Pb8  1  0.84206000  0.62768000  0.54620700  1.0
  Pb  Pb9  1  0.14341200  0.12169000  0.50920400  1.0
  Pb  Pb10  1  0.63778800  0.12988300  0.43326300  1.0
  Pb  Pb11  1  0.34245900  0.62370400  0.46982200  1.0
  Pb  Pb12  1  0.36221200  0.87011700  0.56673700  1.0
  Pb  Pb13  1  0.65754100  0.37629600  0.53017800  1.0
  Pb  Pb14  1  0.15794000  0.37232000  0.45379300  1.0
  Pb  Pb15  1  0.85658800  0.87831000  0.49079600  1.0
  Pb  Pb16  1  0.81433200  0.61973300  0.70583600  1.0
  Pb  Pb17  1  0.14561400  0.10761000  0.67073400  1.0
  Pb  Pb18  1  0.64440000  0.12134500  0.59881800  1.0
  Pb  Pb19  1  0.32863100  0.61657800  0.63505600  1.0
  Pb  Pb20  1  0.37346700  0.85261900  0.72471400  1.0
  Pb  Pb21  1  0.68815100  0.37136100  0.68927400  1.0
  Pb  Pb22  1  0.17593100  0.35848700  0.61760100  1.0
  Pb  Pb23  1  0.86811200  0.86803400  0.65636600  1.0
