# generated using pymatgen
data_Sr
_symmetry_space_group_name_H-M   'P 1'
_cell_length_a   4.27514013
_cell_length_b   8.21070063
_cell_length_c   29.49027671
_cell_angle_alpha   63.32295380
_cell_angle_beta   89.99999976
_cell_angle_gamma   74.90978425
_symmetry_Int_Tables_number   1
_chemical_formula_structural   Sr
_chemical_formula_sum   Sr8
_cell_volume   884.84309553
_cell_formula_units_Z   8
loop_
 _symmetry_equiv_pos_site_id
 _symmetry_equiv_pos_as_xyz
  1  'x, y, z'
loop_
 _atom_site_type_symbol
 _atom_site_label
 _atom_site_symmetry_multiplicity
 _atom_site_fract_x
 _atom_site_fract_y
 _atom_site_fract_z
 _atom_site_occupancy
  Sr  Sr0  1  0.37602100  0.24795800  0.17831200  1.0
  Sr  Sr1  1  0.88173000  0.23654100  0.05789100  1.0
  Sr  Sr2  1  0.63006400  0.73987200  0.07409900  1.0
  Sr  Sr3  1  0.12611300  0.74777300  0.19691700  1.0
  Sr  Sr4  1  0.36993600  0.26012800  0.42590100  1.0
  Sr  Sr5  1  0.87388700  0.25222700  0.30308300  1.0
  Sr  Sr6  1  0.62397900  0.75204200  0.32168800  1.0
  Sr  Sr7  1  0.11827000  0.76345900  0.44210900  1.0
