# generated using pymatgen
data_Sr
_symmetry_space_group_name_H-M   'P 1'
_cell_length_a   7.03873600
_cell_length_b   7.36976200
_cell_length_c   25.60295200
_cell_angle_alpha   90.00000000
_cell_angle_beta   90.00000000
_cell_angle_gamma   90.00000000
_symmetry_Int_Tables_number   1
_chemical_formula_structural   Sr
_chemical_formula_sum   Sr12
_cell_volume   1328.12264447
_cell_formula_units_Z   12
loop_
 _symmetry_equiv_pos_site_id
 _symmetry_equiv_pos_as_xyz
  1  'x, y, z'
loop_
 _atom_site_type_symbol
 _atom_site_label
 _atom_site_symmetry_multiplicity
 _atom_site_fract_x
 _atom_site_fract_y
 _atom_site_fract_z
 _atom_site_occupancy
  Sr  Sr0  1  0.25000000  0.68630200  0.99970800  1.0
  Sr  Sr1  1  0.25000000  0.18013300  0.08384300  1.0
  Sr  Sr2  1  0.75000000  0.31369800  0.99970800  1.0
  Sr  Sr3  1  0.75000000  0.81986700  0.08384300  1.0
  Sr  Sr4  1  0.25000000  0.67530000  0.16471300  1.0
  Sr  Sr5  1  0.25000000  0.17530000  0.25195400  1.0
  Sr  Sr6  1  0.75000000  0.32470000  0.16471300  1.0
  Sr  Sr7  1  0.75000000  0.82470000  0.25195400  1.0
  Sr  Sr8  1  0.25000000  0.68013300  0.33282300  1.0
  Sr  Sr9  1  0.25000000  0.18630200  0.41695900  1.0
  Sr  Sr10  1  0.75000000  0.31986700  0.33282300  1.0
  Sr  Sr11  1  0.75000000  0.81369800  0.41695900  1.0
