# generated using pymatgen
data_Sr
_symmetry_space_group_name_H-M   'P 1'
_cell_length_a   7.38251429
_cell_length_b   8.21729578
_cell_length_c   22.09023611
_cell_angle_alpha   81.87217580
_cell_angle_beta   89.99999832
_cell_angle_gamma   90.00000293
_symmetry_Int_Tables_number   1
_chemical_formula_structural   Sr
_chemical_formula_sum   Sr12
_cell_volume   1326.62775177
_cell_formula_units_Z   12
loop_
 _symmetry_equiv_pos_site_id
 _symmetry_equiv_pos_as_xyz
  1  'x, y, z'
loop_
 _atom_site_type_symbol
 _atom_site_label
 _atom_site_symmetry_multiplicity
 _atom_site_fract_x
 _atom_site_fract_y
 _atom_site_fract_z
 _atom_site_occupancy
  Sr  Sr0  1  0.16775400  0.99835600  0.12791300  1.0
  Sr  Sr1  1  0.66976800  0.83650500  0.20815000  1.0
  Sr  Sr2  1  0.17342800  0.33211200  0.45284900  1.0
  Sr  Sr3  1  0.16976800  0.66349500  0.29185000  1.0
  Sr  Sr4  1  0.67342800  0.16788800  0.04715100  1.0
  Sr  Sr5  1  0.66775400  0.50164400  0.37208700  1.0
  Sr  Sr6  1  0.33023200  0.16349500  0.29185000  1.0
  Sr  Sr7  1  0.83224600  0.00164400  0.37208700  1.0
  Sr  Sr8  1  0.33224600  0.49835600  0.12791300  1.0
  Sr  Sr9  1  0.32657200  0.83211200  0.45284900  1.0
  Sr  Sr10  1  0.83023200  0.33650500  0.20815000  1.0
  Sr  Sr11  1  0.82657200  0.66788800  0.04715100  1.0
