# generated using pymatgen
data_Au
_symmetry_space_group_name_H-M   'P 1'
_cell_length_a   2.96222304
_cell_length_b   4.13803700
_cell_length_c   23.69778716
_cell_angle_alpha   90.00000000
_cell_angle_beta   90.00000000
_cell_angle_gamma   90.00000000
_symmetry_Int_Tables_number   1
_chemical_formula_structural   Au
_chemical_formula_sum   Au8
_cell_volume   290.48246392
_cell_formula_units_Z   8
loop_
 _symmetry_equiv_pos_site_id
 _symmetry_equiv_pos_as_xyz
  1  'x, y, z'
loop_
 _atom_site_type_symbol
 _atom_site_label
 _atom_site_symmetry_multiplicity
 _atom_site_fract_x
 _atom_site_fract_y
 _atom_site_fract_z
 _atom_site_occupancy
  Au  Au0  1  0.00000000  0.00000000  0.87408900  1.0
  Au  Au1  1  0.00000000  0.00000000  0.99660500  1.0
  Au  Au2  1  0.50000000  0.50000000  0.94183800  1.0
  Au  Au3  1  0.50000000  0.50000000  0.81367100  1.0
  Au  Au4  1  0.00000000  0.00000000  0.62066200  1.0
  Au  Au5  1  0.00000000  0.00000000  0.74882900  1.0
  Au  Au6  1  0.50000000  0.50000000  0.68841100  1.0
  Au  Au7  1  0.50000000  0.50000000  0.56589500  1.0
