# generated using pymatgen
data_Sr
_symmetry_space_group_name_H-M   'P 1'
_cell_length_a   4.27733905
_cell_length_b   11.04040229
_cell_length_c   20.35631101
_cell_angle_alpha   92.81685512
_cell_angle_beta   89.99999078
_cell_angle_gamma   67.20556754
_symmetry_Int_Tables_number   1
_chemical_formula_structural   Sr
_chemical_formula_sum   Sr8
_cell_volume   884.96056173
_cell_formula_units_Z   8
loop_
 _symmetry_equiv_pos_site_id
 _symmetry_equiv_pos_as_xyz
  1  'x, y, z'
loop_
 _atom_site_type_symbol
 _atom_site_label
 _atom_site_symmetry_multiplicity
 _atom_site_fract_x
 _atom_site_fract_y
 _atom_site_fract_z
 _atom_site_occupancy
  Sr  Sr0  1  0.54597400  0.95402600  0.39479200  1.0
  Sr  Sr1  1  0.79303000  0.20697000  0.27201000  1.0
  Sr  Sr2  1  0.28600100  0.71399900  0.02924800  1.0
  Sr  Sr3  1  0.04028400  0.45971600  0.14885800  1.0
  Sr  Sr4  1  0.20697000  0.79303000  0.22799000  1.0
  Sr  Sr5  1  0.45402600  0.04597400  0.10520800  1.0
  Sr  Sr6  1  0.95971600  0.54028400  0.35114200  1.0
  Sr  Sr7  1  0.71399900  0.28600100  0.47075200  1.0
