# generated using pymatgen
data_Sr
_symmetry_space_group_name_H-M   'P 1'
_cell_length_a   7.37840200
_cell_length_b   14.64759762
_cell_length_c   25.65477000
_cell_angle_alpha   98.39261227
_cell_angle_beta   90.00000000
_cell_angle_gamma   75.41216865
_symmetry_Int_Tables_number   1
_chemical_formula_structural   Sr
_chemical_formula_sum   Sr24
_cell_volume   2652.58594356
_cell_formula_units_Z   24
loop_
 _symmetry_equiv_pos_site_id
 _symmetry_equiv_pos_as_xyz
  1  'x, y, z'
loop_
 _atom_site_type_symbol
 _atom_site_label
 _atom_site_symmetry_multiplicity
 _atom_site_fract_x
 _atom_site_fract_y
 _atom_site_fract_z
 _atom_site_occupancy
  Sr  Sr0  1  0.38578100  0.87428100  0.15621400  1.0
  Sr  Sr1  1  0.62965600  0.37982000  0.11711300  1.0
  Sr  Sr2  1  0.11044700  0.37945700  0.03075700  1.0
  Sr  Sr3  1  0.87567800  0.87425200  0.07021600  1.0
  Sr  Sr4  1  0.87193500  0.62621200  0.13630200  1.0
  Sr  Sr5  1  0.11337000  0.12539400  0.09352300  1.0
  Sr  Sr6  1  0.61481400  0.14435400  0.01127500  1.0
  Sr  Sr7  1  0.38593200  0.62239900  0.04948300  1.0
  Sr  Sr8  1  0.38565300  0.87560200  0.32582600  1.0
  Sr  Sr9  1  0.63538600  0.37350100  0.28255200  1.0
  Sr  Sr10  1  0.13668500  0.37514700  0.19649000  1.0
  Sr  Sr11  1  0.88678000  0.87608000  0.23869100  1.0
  Sr  Sr12  1  0.86331500  0.62485300  0.30351100  1.0
  Sr  Sr13  1  0.11322000  0.12392000  0.26130900  1.0
  Sr  Sr14  1  0.61434700  0.12439800  0.17417400  1.0
  Sr  Sr15  1  0.36461400  0.62649900  0.21744800  1.0
  Sr  Sr16  1  0.38518600  0.85564600  0.48872500  1.0
  Sr  Sr17  1  0.61406800  0.37760100  0.45051700  1.0
  Sr  Sr18  1  0.12806500  0.37378800  0.36369800  1.0
  Sr  Sr19  1  0.88663000  0.87460600  0.40647700  1.0
  Sr  Sr20  1  0.88955300  0.62054300  0.46924300  1.0
  Sr  Sr21  1  0.12432200  0.12574800  0.42978400  1.0
  Sr  Sr22  1  0.61421900  0.12571900  0.34378600  1.0
  Sr  Sr23  1  0.37034400  0.62018000  0.38288700  1.0
