# generated using pymatgen
data_Sr
_symmetry_space_group_name_H-M   'P 1'
_cell_length_a   7.02424000
_cell_length_b   11.27860707
_cell_length_c   25.62981700
_cell_angle_alpha   79.08404075
_cell_angle_beta   90.00000000
_cell_angle_gamma   90.00000000
_symmetry_Int_Tables_number   1
_chemical_formula_structural   Sr
_chemical_formula_sum   Sr18
_cell_volume   1993.74783744
_cell_formula_units_Z   18
loop_
 _symmetry_equiv_pos_site_id
 _symmetry_equiv_pos_as_xyz
  1  'x, y, z'
loop_
 _atom_site_type_symbol
 _atom_site_label
 _atom_site_symmetry_multiplicity
 _atom_site_fract_x
 _atom_site_fract_y
 _atom_site_fract_z
 _atom_site_occupancy
  Sr  Sr0  1  0.25000000  0.77110100  0.02004800  1.0
  Sr  Sr1  1  0.25000000  0.44857900  0.13142900  1.0
  Sr  Sr2  1  0.25000000  0.12479000  0.07100600  1.0
  Sr  Sr3  1  0.75000000  0.53653100  0.03872900  1.0
  Sr  Sr4  1  0.75000000  0.21562900  0.15244900  1.0
  Sr  Sr5  1  0.75000000  0.88428700  0.09050400  1.0
  Sr  Sr6  1  0.25000000  0.78670100  0.18030800  1.0
  Sr  Sr7  1  0.25000000  0.44618300  0.29801100  1.0
  Sr  Sr8  1  0.25000000  0.11503900  0.24033300  1.0
  Sr  Sr9  1  0.75000000  0.55381700  0.20198900  1.0
  Sr  Sr10  1  0.75000000  0.21329900  0.31969200  1.0
  Sr  Sr11  1  0.75000000  0.88496100  0.25966700  1.0
  Sr  Sr12  1  0.25000000  0.78437100  0.34755100  1.0
  Sr  Sr13  1  0.25000000  0.46346900  0.46127100  1.0
  Sr  Sr14  1  0.25000000  0.11571300  0.40949600  1.0
  Sr  Sr15  1  0.75000000  0.55142100  0.36857100  1.0
  Sr  Sr16  1  0.75000000  0.22889900  0.47995200  1.0
  Sr  Sr17  1  0.75000000  0.87520900  0.42899400  1.0
