# generated using pymatgen
data_Sr
_symmetry_space_group_name_H-M   'P 1'
_cell_length_a   4.27616207
_cell_length_b   14.64722268
_cell_length_c   29.51411927
_cell_angle_alpha   104.58847282
_cell_angle_beta   89.99999685
_cell_angle_gamma   81.60644213
_symmetry_Int_Tables_number   1
_chemical_formula_structural   Sr
_chemical_formula_sum   Sr16
_cell_volume   1768.51792656
_cell_formula_units_Z   16
loop_
 _symmetry_equiv_pos_site_id
 _symmetry_equiv_pos_as_xyz
  1  'x, y, z'
loop_
 _atom_site_type_symbol
 _atom_site_label
 _atom_site_symmetry_multiplicity
 _atom_site_fract_x
 _atom_site_fract_y
 _atom_site_fract_z
 _atom_site_occupancy
  Sr  Sr0  1  0.81229100  0.37541900  0.13076600  1.0
  Sr  Sr1  1  0.56295700  0.87408500  0.19391100  1.0
  Sr  Sr2  1  0.31094200  0.37811700  0.01042300  1.0
  Sr  Sr3  1  0.06133000  0.87733900  0.07188300  1.0
  Sr  Sr4  1  0.43656000  0.12688000  0.05700300  1.0
  Sr  Sr5  1  0.18714200  0.62571600  0.11923200  1.0
  Sr  Sr6  1  0.93794200  0.12411500  0.18049000  1.0
  Sr  Sr7  1  0.68725100  0.62549800  0.24451200  1.0
  Sr  Sr8  1  0.81285800  0.37428400  0.38076800  1.0
  Sr  Sr9  1  0.56344000  0.87312000  0.44299700  1.0
  Sr  Sr10  1  0.31274900  0.37450200  0.25548800  1.0
  Sr  Sr11  1  0.06205800  0.87588500  0.31951000  1.0
  Sr  Sr12  1  0.43704300  0.12591500  0.30608900  1.0
  Sr  Sr13  1  0.18770900  0.62458100  0.36923400  1.0
  Sr  Sr14  1  0.93867000  0.12266100  0.42811700  1.0
  Sr  Sr15  1  0.68905800  0.62188300  0.48957700  1.0
