# generated using pymatgen
data_Sr
_symmetry_space_group_name_H-M   'P 1'
_cell_length_a   8.18987644
_cell_length_b   10.17309770
_cell_length_c   24.82721479
_cell_angle_alpha   85.11030096
_cell_angle_beta   86.57641109
_cell_angle_gamma   75.02519593
_symmetry_Int_Tables_number   1
_chemical_formula_structural   Sr
_chemical_formula_sum   Sr18
_cell_volume   1989.46719907
_cell_formula_units_Z   18
loop_
 _symmetry_equiv_pos_site_id
 _symmetry_equiv_pos_as_xyz
  1  'x, y, z'
loop_
 _atom_site_type_symbol
 _atom_site_label
 _atom_site_symmetry_multiplicity
 _atom_site_fract_x
 _atom_site_fract_y
 _atom_site_fract_z
 _atom_site_occupancy
  Sr  Sr0  1  0.51493100  0.87224500  0.86193900  1.0
  Sr  Sr1  1  0.68918700  0.55190700  0.97504700  1.0
  Sr  Sr2  1  0.11710400  0.21065900  0.92280300  1.0
  Sr  Sr3  1  0.04595100  0.79042100  0.91680100  1.0
  Sr  Sr4  1  0.42220000  0.46344100  0.85437000  1.0
  Sr  Sr5  1  0.64038700  0.12858200  0.96628700  1.0
  Sr  Sr6  1  0.68114700  0.87031800  0.69577700  1.0
  Sr  Sr7  1  0.89932100  0.53568900  0.81195800  1.0
  Sr  Sr8  1  0.29642500  0.20151600  0.75399700  1.0
  Sr  Sr9  1  0.20358300  0.79848600  0.74600900  1.0
  Sr  Sr10  1  0.60067000  0.46431100  0.68804800  1.0
  Sr  Sr11  1  0.81885000  0.12968400  0.80422600  1.0
  Sr  Sr12  1  0.85961700  0.87141500  0.53371000  1.0
  Sr  Sr13  1  0.07779600  0.53655500  0.64563200  1.0
  Sr  Sr14  1  0.45403900  0.20958500  0.58319100  1.0
  Sr  Sr15  1  0.38289200  0.78934100  0.57719900  1.0
  Sr  Sr16  1  0.81082900  0.44808900  0.52495000  1.0
  Sr  Sr17  1  0.98506900  0.12775800  0.63805400  1.0
