# generated using pymatgen
data_Sr
_symmetry_space_group_name_H-M   'P 1'
_cell_length_a   4.27204928
_cell_length_b   7.00995600
_cell_length_c   25.63229557
_cell_angle_alpha   90.00000000
_cell_angle_beta   60.00000609
_cell_angle_gamma   90.00000000
_symmetry_Int_Tables_number   1
_chemical_formula_structural   Sr
_chemical_formula_sum   Sr6
_cell_volume   664.76738914
_cell_formula_units_Z   6
loop_
 _symmetry_equiv_pos_site_id
 _symmetry_equiv_pos_as_xyz
  1  'x, y, z'
loop_
 _atom_site_type_symbol
 _atom_site_label
 _atom_site_symmetry_multiplicity
 _atom_site_fract_x
 _atom_site_fract_y
 _atom_site_fract_z
 _atom_site_occupancy
  Sr  Sr0  1  0.65672100  0.25000000  0.11442600  1.0
  Sr  Sr1  1  0.32617800  0.75000000  0.05794100  1.0
  Sr  Sr2  1  0.65972700  0.25000000  0.28009100  1.0
  Sr  Sr3  1  0.34027300  0.75000000  0.21990900  1.0
  Sr  Sr4  1  0.67382200  0.25000000  0.44205900  1.0
  Sr  Sr5  1  0.34327900  0.75000000  0.38557400  1.0
