# generated using pymatgen
data_Sr
_symmetry_space_group_name_H-M   'P 1'
_cell_length_a   11.29733916
_cell_length_b   8.21295473
_cell_length_c   41.54581491
_cell_angle_alpha   88.05965118
_cell_angle_beta   89.98090039
_cell_angle_gamma   66.75773752
_symmetry_Int_Tables_number   1
_chemical_formula_structural   Sr
_chemical_formula_sum   Sr32
_cell_volume   3539.58304565
_cell_formula_units_Z   32
loop_
 _symmetry_equiv_pos_site_id
 _symmetry_equiv_pos_as_xyz
  1  'x, y, z'
loop_
 _atom_site_type_symbol
 _atom_site_label
 _atom_site_symmetry_multiplicity
 _atom_site_fract_x
 _atom_site_fract_y
 _atom_site_fract_z
 _atom_site_occupancy
  Sr  Sr0  1  0.85836600  0.01185700  0.38175000  1.0
  Sr  Sr1  1  0.85838400  0.51102000  0.13000500  1.0
  Sr  Sr2  1  0.48214300  0.07477600  0.40903300  1.0
  Sr  Sr3  1  0.47848800  0.57372500  0.16198600  1.0
  Sr  Sr4  1  0.22987500  0.94773700  0.34904700  1.0
  Sr  Sr5  1  0.23198300  0.44717900  0.09818900  1.0
  Sr  Sr6  1  0.11765500  0.12989200  0.44434200  1.0
  Sr  Sr7  1  0.10350800  0.63793500  0.19284100  1.0
  Sr  Sr8  1  0.73259900  0.21049300  0.47303400  1.0
  Sr  Sr9  1  0.72843000  0.69901400  0.22372800  1.0
  Sr  Sr10  1  0.35399600  0.76105500  0.25537800  1.0
  Sr  Sr11  1  0.38352600  0.22603500  0.00894200  1.0
  Sr  Sr12  1  0.97990600  0.82271600  0.28664600  1.0
  Sr  Sr13  1  0.99243600  0.32005400  0.03681700  1.0
  Sr  Sr14  1  0.60768300  0.88267400  0.31755500  1.0
  Sr  Sr15  1  0.60769800  0.39081300  0.06979100  1.0
  Sr  Sr16  1  0.52151200  0.42627500  0.33801400  1.0
  Sr  Sr17  1  0.51785700  0.92522400  0.09096700  1.0
  Sr  Sr18  1  0.14161600  0.48898000  0.36999500  1.0
  Sr  Sr19  1  0.14163400  0.98814300  0.11825000  1.0
  Sr  Sr20  1  0.89649200  0.36206500  0.30715900  1.0
  Sr  Sr21  1  0.88234500  0.87010800  0.05565800  1.0
  Sr  Sr22  1  0.76801700  0.55282100  0.40181100  1.0
  Sr  Sr23  1  0.77012500  0.05226300  0.15095300  1.0
  Sr  Sr24  1  0.39230200  0.60918700  0.43020900  1.0
  Sr  Sr25  1  0.39231700  0.11732600  0.18244500  1.0
  Sr  Sr26  1  0.00756400  0.67994600  0.46318300  1.0
  Sr  Sr27  1  0.02009400  0.17728400  0.21335400  1.0
  Sr  Sr28  1  0.61647400  0.77396500  0.49105800  1.0
  Sr  Sr29  1  0.64600400  0.23894500  0.24462200  1.0
  Sr  Sr30  1  0.27157000  0.30098600  0.27627200  1.0
  Sr  Sr31  1  0.26740100  0.78950700  0.02696600  1.0
