# generated using pymatgen
data_Pr
_symmetry_space_group_name_H-M   'P 1'
_cell_length_a   6.47651600
_cell_length_b   12.61862631
_cell_length_c   22.43447300
_cell_angle_alpha   98.52014252
_cell_angle_beta   90.00000000
_cell_angle_gamma   75.13009510
_symmetry_Int_Tables_number   1
_chemical_formula_structural   Pr
_chemical_formula_sum   Pr24
_cell_volume   1751.10731575
_cell_formula_units_Z   24
loop_
 _symmetry_equiv_pos_site_id
 _symmetry_equiv_pos_as_xyz
  1  'x, y, z'
loop_
 _atom_site_type_symbol
 _atom_site_label
 _atom_site_symmetry_multiplicity
 _atom_site_fract_x
 _atom_site_fract_y
 _atom_site_fract_z
 _atom_site_occupancy
  Pr  Pr0  1  0.98376800  0.03289600  0.01171500  1.0
  Pr  Pr1  1  0.50872900  0.99520600  0.08437600  1.0
  Pr  Pr2  1  0.75359100  0.49301800  0.04587100  1.0
  Pr  Pr3  1  0.25535700  0.50004200  0.12807000  1.0
  Pr  Pr4  1  0.03210700  0.25549300  0.11259900  1.0
  Pr  Pr5  1  0.49303100  0.25241700  0.02411800  1.0
  Pr  Pr6  1  0.47546900  0.74789700  0.14480800  1.0
  Pr  Pr7  1  0.99703300  0.75128200  0.06023000  1.0
  Pr  Pr8  1  0.00337400  0.99853500  0.16712000  1.0
  Pr  Pr9  1  0.50593100  0.99837600  0.25048900  1.0
  Pr  Pr10  1  0.75178600  0.50000400  0.20748800  1.0
  Pr  Pr11  1  0.24935200  0.50084700  0.29239100  1.0
  Pr  Pr12  1  0.02583900  0.24903500  0.27496700  1.0
  Pr  Pr13  1  0.53242900  0.24656800  0.18526300  1.0
  Pr  Pr14  1  0.47622100  0.75010300  0.31182700  1.0
  Pr  Pr15  1  0.97339100  0.75065500  0.22606700  1.0
  Pr  Pr16  1  0.01159500  0.99811600  0.33305700  1.0
  Pr  Pr17  1  0.50844100  0.00184100  0.41385200  1.0
  Pr  Pr18  1  0.75236000  0.49746000  0.36932800  1.0
  Pr  Pr19  1  0.24268300  0.49839400  0.45289200  1.0
  Pr  Pr20  1  0.00544100  0.25096000  0.43705700  1.0
  Pr  Pr21  1  0.52774400  0.24744600  0.35238100  1.0
  Pr  Pr22  1  0.47251600  0.73669800  0.47007200  1.0
  Pr  Pr23  1  0.96181200  0.74671000  0.39396500  1.0
