# generated using pymatgen
data_Pr
_symmetry_space_group_name_H-M   'P 1'
_cell_length_a   12.02275800
_cell_length_b   9.90301729
_cell_length_c   22.45793400
_cell_angle_alpha   79.10660745
_cell_angle_beta   90.00000000
_cell_angle_gamma   90.00000000
_symmetry_Int_Tables_number   1
_chemical_formula_structural   Pr
_chemical_formula_sum   Pr36
_cell_volume   2625.69521946
_cell_formula_units_Z   36
loop_
 _symmetry_equiv_pos_site_id
 _symmetry_equiv_pos_as_xyz
  1  'x, y, z'
loop_
 _atom_site_type_symbol
 _atom_site_label
 _atom_site_symmetry_multiplicity
 _atom_site_fract_x
 _atom_site_fract_y
 _atom_site_fract_z
 _atom_site_occupancy
  Pr  Pr0  1  0.00096100  0.65777500  0.11795300  1.0
  Pr  Pr1  1  0.00374600  0.33791900  0.05747400  1.0
  Pr  Pr2  1  0.99726400  0.96646700  0.01063000  1.0
  Pr  Pr3  1  0.49903900  0.65777500  0.11795300  1.0
  Pr  Pr4  1  0.49625400  0.33791900  0.05747400  1.0
  Pr  Pr5  1  0.50273600  0.96646700  0.01063000  1.0
  Pr  Pr6  1  0.75000000  0.59897700  0.03284900  1.0
  Pr  Pr7  1  0.75000000  0.23395400  0.13849600  1.0
  Pr  Pr8  1  0.75000000  0.88484200  0.10061400  1.0
  Pr  Pr9  1  0.25000000  0.73862500  0.02348100  1.0
  Pr  Pr10  1  0.25000000  0.43478100  0.13695700  1.0
  Pr  Pr11  1  0.25000000  0.10093600  0.07109000  1.0
  Pr  Pr12  1  0.00205000  0.66708000  0.27667900  1.0
  Pr  Pr13  1  0.99661700  0.32464200  0.22365200  1.0
  Pr  Pr14  1  0.00144100  0.00445900  0.16413300  1.0
  Pr  Pr15  1  0.49795000  0.66708000  0.27667900  1.0
  Pr  Pr16  1  0.50338300  0.32464200  0.22365200  1.0
  Pr  Pr17  1  0.49855900  0.00445900  0.16413300  1.0
  Pr  Pr18  1  0.75000000  0.55881800  0.19939600  1.0
  Pr  Pr19  1  0.75000000  0.22767400  0.31901900  1.0
  Pr  Pr20  1  0.75000000  0.90634800  0.26015500  1.0
  Pr  Pr21  1  0.25000000  0.77531400  0.18219900  1.0
  Pr  Pr22  1  0.25000000  0.43535400  0.29966500  1.0
  Pr  Pr23  1  0.25000000  0.09965600  0.24142200  1.0
  Pr  Pr24  1  0.98848200  0.65356000  0.43907600  1.0
  Pr  Pr25  1  0.99907300  0.32948700  0.38660900  1.0
  Pr  Pr26  1  0.00026800  0.99133500  0.33109900  1.0
  Pr  Pr27  1  0.51151800  0.65356000  0.43907600  1.0
  Pr  Pr28  1  0.50092700  0.32948700  0.38660900  1.0
  Pr  Pr29  1  0.49973200  0.99133500  0.33109900  1.0
  Pr  Pr30  1  0.75000000  0.57131400  0.35534000  1.0
  Pr  Pr31  1  0.75000000  0.34573400  0.47981600  1.0
  Pr  Pr32  1  0.75000000  0.90852700  0.42346200  1.0
  Pr  Pr33  1  0.25000000  0.77067900  0.35365400  1.0
  Pr  Pr34  1  0.25000000  0.43639900  0.45888400  1.0
  Pr  Pr35  1  0.25000000  0.10662000  0.40889200  1.0
