# generated using pymatgen
data_Au
_symmetry_space_group_name_H-M   'P 1'
_cell_length_a   2.96291122
_cell_length_b   8.83343836
_cell_length_c   24.99653703
_cell_angle_alpha   90.15007158
_cell_angle_beta   90.04072133
_cell_angle_gamma   90.13670029
_symmetry_Int_Tables_number   1
_chemical_formula_structural   Au
_chemical_formula_sum   Au18
_cell_volume   654.22243111
_cell_formula_units_Z   18
loop_
 _symmetry_equiv_pos_site_id
 _symmetry_equiv_pos_as_xyz
  1  'x, y, z'
loop_
 _atom_site_type_symbol
 _atom_site_label
 _atom_site_symmetry_multiplicity
 _atom_site_fract_x
 _atom_site_fract_y
 _atom_site_fract_z
 _atom_site_occupancy
  Au  Au0  1  0.99956700  0.45205500  0.94701200  1.0
  Au  Au1  1  0.00027900  0.89530100  0.88490200  1.0
  Au  Au2  1  0.00032600  0.98313600  0.99344800  1.0
  Au  Au3  1  0.00002100  0.33201800  0.83622600  1.0
  Au  Au4  1  0.99994900  0.78114800  0.77580000  1.0
  Au  Au5  1  0.99999900  0.21731100  0.72238100  1.0
  Au  Au6  1  0.00008800  0.66272100  0.66795700  1.0
  Au  Au7  1  0.00036900  0.09651500  0.60335200  1.0
  Au  Au8  1  0.00006900  0.56249400  0.55512200  1.0
  Au  Au9  1  0.49993200  0.61508600  0.85980700  1.0
  Au  Au10  1  0.49999200  0.06049600  0.80540900  1.0
  Au  Au11  1  0.49969500  0.18124700  0.92443600  1.0
  Au  Au12  1  0.50009500  0.49671400  0.75197800  1.0
  Au  Au13  1  0.50001900  0.94579900  0.69154500  1.0
  Au  Au14  1  0.49961600  0.38243100  0.64288600  1.0
  Au  Au15  1  0.50049400  0.82567300  0.58075400  1.0
  Au  Au16  1  0.49956300  0.29460400  0.53434900  1.0
  Au  Au17  1  0.49992700  0.71525100  0.97263700  1.0
