# generated using pymatgen
data_Pr
_symmetry_space_group_name_H-M   'P 1'
_cell_length_a   3.74155639
_cell_length_b   24.35431180
_cell_length_c   25.91623932
_cell_angle_alpha   97.64395058
_cell_angle_beta   90.00000180
_cell_angle_gamma   85.59447903
_symmetry_Int_Tables_number   1
_chemical_formula_structural   Pr
_chemical_formula_sum   Pr32
_cell_volume   2333.54058300
_cell_formula_units_Z   32
loop_
 _symmetry_equiv_pos_site_id
 _symmetry_equiv_pos_as_xyz
  1  'x, y, z'
loop_
 _atom_site_type_symbol
 _atom_site_label
 _atom_site_symmetry_multiplicity
 _atom_site_fract_x
 _atom_site_fract_y
 _atom_site_fract_z
 _atom_site_occupancy
  Pr  Pr0  1  0.99710300  0.00579400  0.00966400  1.0
  Pr  Pr1  1  0.74989400  0.50021100  0.06453400  1.0
  Pr  Pr2  1  0.50093900  0.99812100  0.12557900  1.0
  Pr  Pr3  1  0.25010600  0.49978900  0.18533900  1.0
  Pr  Pr4  1  0.87433400  0.25133300  0.03332700  1.0
  Pr  Pr5  1  0.62574100  0.74851800  0.09620900  1.0
  Pr  Pr6  1  0.37470000  0.25060000  0.15430500  1.0
  Pr  Pr7  1  0.12529700  0.74940600  0.21662900  1.0
  Pr  Pr8  1  0.43736400  0.12527300  0.06339100  1.0
  Pr  Pr9  1  0.18756200  0.62487600  0.12596400  1.0
  Pr  Pr10  1  0.93749000  0.12502000  0.18184500  1.0
  Pr  Pr11  1  0.68766000  0.62468100  0.24528900  1.0
  Pr  Pr12  1  0.81250200  0.37499600  0.12942000  1.0
  Pr  Pr13  1  0.56305100  0.87389800  0.18990500  1.0
  Pr  Pr14  1  0.31219100  0.37561800  0.01130500  1.0
  Pr  Pr15  1  0.06181300  0.87637400  0.06835600  1.0
  Pr  Pr16  1  0.00002400  0.99995200  0.25034700  1.0
  Pr  Pr17  1  0.75010000  0.49980000  0.31495100  1.0
  Pr  Pr18  1  0.50040100  0.99919700  0.37074000  1.0
  Pr  Pr19  1  0.25037700  0.49924600  0.43620300  1.0
  Pr  Pr20  1  0.87551200  0.24897600  0.28366800  1.0
  Pr  Pr21  1  0.62455900  0.75088300  0.34579000  1.0
  Pr  Pr22  1  0.37537100  0.24925700  0.40475000  1.0
  Pr  Pr23  1  0.12466000  0.75068000  0.46515600  1.0
  Pr  Pr24  1  0.43782500  0.12435100  0.30847200  1.0
  Pr  Pr25  1  0.18728400  0.62543300  0.36982900  1.0
  Pr  Pr26  1  0.93780300  0.12439500  0.42764500  1.0
  Pr  Pr27  1  0.68791800  0.62416500  0.48696800  1.0
  Pr  Pr28  1  0.81272500  0.37454900  0.37338100  1.0
  Pr  Pr29  1  0.56258700  0.87482600  0.43888300  1.0
  Pr  Pr30  1  0.31261200  0.37477700  0.25462200  1.0
  Pr  Pr31  1  0.06249800  0.87500400  0.31753600  1.0
