# generated using pymatgen
data_Pr
_symmetry_space_group_name_H-M   'P 1'
_cell_length_a   9.89901538
_cell_length_b   12.60225494
_cell_length_c   22.44356800
_cell_angle_alpha   81.46522184
_cell_angle_beta   79.10920509
_cell_angle_gamma   73.70378113
_symmetry_Int_Tables_number   1
_chemical_formula_structural   Pr
_chemical_formula_sum   Pr36
_cell_volume   2625.39451372
_cell_formula_units_Z   36
loop_
 _symmetry_equiv_pos_site_id
 _symmetry_equiv_pos_as_xyz
  1  'x, y, z'
loop_
 _atom_site_type_symbol
 _atom_site_label
 _atom_site_symmetry_multiplicity
 _atom_site_fract_x
 _atom_site_fract_y
 _atom_site_fract_z
 _atom_site_occupancy
  Pr  Pr0  1  0.02855600  0.00747500  0.98757500  1.0
  Pr  Pr1  1  0.66624100  0.00276600  0.93933500  1.0
  Pr  Pr2  1  0.33943800  0.99838100  0.88296800  1.0
  Pr  Pr3  1  0.84207800  0.50982700  0.96592000  1.0
  Pr  Pr4  1  0.50058600  0.49702000  0.91954300  1.0
  Pr  Pr5  1  0.16582100  0.49927000  0.85584600  1.0
  Pr  Pr6  1  0.81611900  0.25031900  0.91382000  1.0
  Pr  Pr7  1  0.47831900  0.25119700  0.84996400  1.0
  Pr  Pr8  1  0.16852500  0.25031800  0.96259100  1.0
  Pr  Pr9  1  0.85597500  0.75326600  0.86556300  1.0
  Pr  Pr10  1  0.51076800  0.75580400  0.97381100  1.0
  Pr  Pr11  1  0.19084600  0.74770900  0.92003900  1.0
  Pr  Pr12  1  0.00151300  0.99883100  0.83318400  1.0
  Pr  Pr13  1  0.67189100  0.99862200  0.77615400  1.0
  Pr  Pr14  1  0.33799400  0.00237300  0.72176500  1.0
  Pr  Pr15  1  0.82717000  0.49912800  0.81010100  1.0
  Pr  Pr16  1  0.49917500  0.50150900  0.75097600  1.0
  Pr  Pr17  1  0.16920200  0.50216300  0.69254100  1.0
  Pr  Pr18  1  0.81223100  0.24783000  0.74706700  1.0
  Pr  Pr19  1  0.48458500  0.25332200  0.68559600  1.0
  Pr  Pr20  1  0.14345300  0.24966400  0.80361600  1.0
  Pr  Pr21  1  0.85135500  0.74818900  0.69754600  1.0
  Pr  Pr22  1  0.51907000  0.74603000  0.81431000  1.0
  Pr  Pr23  1  0.18469200  0.75081600  0.75196900  1.0
  Pr  Pr24  1  0.00213100  0.99800900  0.66666667  1.0
  Pr  Pr25  1  0.66785800  0.99786100  0.61338600  1.0
  Pr  Pr26  1  0.33746800  0.00296500  0.56162000  1.0
  Pr  Pr27  1  0.82997000  0.49549400  0.64717200  1.0
  Pr  Pr28  1  0.49920000  0.50964900  0.58074900  1.0
  Pr  Pr29  1  0.15372600  0.48930100  0.53815700  1.0
  Pr  Pr30  1  0.81161500  0.25620800  0.57697600  1.0
  Pr  Pr31  1  0.47227600  0.25084200  0.53162400  1.0
  Pr  Pr32  1  0.13916600  0.24700200  0.63897900  1.0
  Pr  Pr33  1  0.82751800  0.73044800  0.53852300  1.0
  Pr  Pr34  1  0.51799400  0.75189700  0.64880000  1.0
  Pr  Pr35  1  0.17547300  0.74849600  0.58552300  1.0
