# generated using pymatgen
data_Pr
_symmetry_space_group_name_H-M   'P 1'
_cell_length_a   6.47904200
_cell_length_b   24.35430262
_cell_length_c   22.44934000
_cell_angle_alpha   94.40552035
_cell_angle_beta   90.00000000
_cell_angle_gamma   82.35606805
_symmetry_Int_Tables_number   1
_chemical_formula_structural   Pr
_chemical_formula_sum   Pr48
_cell_volume   3500.30033678
_cell_formula_units_Z   48
loop_
 _symmetry_equiv_pos_site_id
 _symmetry_equiv_pos_as_xyz
  1  'x, y, z'
loop_
 _atom_site_type_symbol
 _atom_site_label
 _atom_site_symmetry_multiplicity
 _atom_site_fract_x
 _atom_site_fract_y
 _atom_site_fract_z
 _atom_site_occupancy
  Pr  Pr0  1  0.75186300  0.49845800  0.04515500  1.0
  Pr  Pr1  1  0.99139100  0.01768700  0.01052600  1.0
  Pr  Pr2  1  0.50757900  0.99851300  0.08514200  1.0
  Pr  Pr3  1  0.25111600  0.49932600  0.12793100  1.0
  Pr  Pr4  1  0.62278100  0.74768700  0.06491600  1.0
  Pr  Pr5  1  0.88026700  0.24958900  0.02783700  1.0
  Pr  Pr6  1  0.37945000  0.25063000  0.11020400  1.0
  Pr  Pr7  1  0.12647600  0.75016400  0.14682300  1.0
  Pr  Pr8  1  0.83992600  0.62379800  0.13660700  1.0
  Pr  Pr9  1  0.09577300  0.12918200  0.10331600  1.0
  Pr  Pr10  1  0.55745600  0.12835900  0.01505100  1.0
  Pr  Pr11  1  0.32115700  0.62350900  0.05239600  1.0
  Pr  Pr12  1  0.41214300  0.87424600  0.15468400  1.0
  Pr  Pr13  1  0.66292500  0.37510600  0.11797100  1.0
  Pr  Pr14  1  0.18602700  0.37419000  0.03266800  1.0
  Pr  Pr15  1  0.93200200  0.87700100  0.07013400  1.0
  Pr  Pr16  1  0.74963600  0.49986100  0.20688400  1.0
  Pr  Pr17  1  0.00394800  0.00008000  0.16688400  1.0
  Pr  Pr18  1  0.50400000  0.99960300  0.25087700  1.0
  Pr  Pr19  1  0.24994400  0.49938000  0.29242600  1.0
  Pr  Pr20  1  0.62619200  0.74896700  0.22540800  1.0
  Pr  Pr21  1  0.87541600  0.25105400  0.18940800  1.0
  Pr  Pr22  1  0.37630700  0.24935400  0.27390500  1.0
  Pr  Pr23  1  0.12293700  0.75070100  0.31163300  1.0
  Pr  Pr24  1  0.83783400  0.62429100  0.30278600  1.0
  Pr  Pr25  1  0.08764000  0.12525400  0.26619400  1.0
  Pr  Pr26  1  0.59561600  0.12393000  0.17601900  1.0
  Pr  Pr27  1  0.33586800  0.62472000  0.21563600  1.0
  Pr  Pr28  1  0.41358600  0.87471900  0.32155100  1.0
  Pr  Pr29  1  0.66183000  0.37527400  0.28403900  1.0
  Pr  Pr30  1  0.16280500  0.37498100  0.19598500  1.0
  Pr  Pr31  1  0.91055800  0.87551600  0.23581400  1.0
  Pr  Pr32  1  0.75001900  0.50000400  0.37129600  1.0
  Pr  Pr33  1  0.00969200  0.99913600  0.33342900  1.0
  Pr  Pr34  1  0.50751500  0.00103100  0.41386500  1.0
  Pr  Pr35  1  0.24861600  0.49977400  0.45380300  1.0
  Pr  Pr36  1  0.62613900  0.74760100  0.38781400  1.0
  Pr  Pr37  1  0.87472800  0.25066300  0.35296200  1.0
  Pr  Pr38  1  0.37554300  0.25050700  0.43465700  1.0
  Pr  Pr39  1  0.11453500  0.74757200  0.47214400  1.0
  Pr  Pr40  1  0.81796800  0.62364500  0.46608300  1.0
  Pr  Pr41  1  0.06959700  0.12618500  0.42829600  1.0
  Pr  Pr42  1  0.59244200  0.12437400  0.34366400  1.0
  Pr  Pr43  1  0.33610300  0.62406300  0.38145800  1.0
  Pr  Pr44  1  0.40803000  0.86663600  0.48007400  1.0
  Pr  Pr45  1  0.67785200  0.37599700  0.44724800  1.0
  Pr  Pr46  1  0.16068600  0.37504400  0.36264000  1.0
  Pr  Pr47  1  0.89808700  0.87263600  0.40376000  1.0
