# generated using pymatgen
data_Pr
_symmetry_space_group_name_H-M   'P 1'
_cell_length_a   3.73737502
_cell_length_b   12.62196303
_cell_length_c   29.89900389
_cell_angle_alpha   72.77643419
_cell_angle_beta   60.00000220
_cell_angle_gamma   81.48603027
_symmetry_Int_Tables_number   1
_chemical_formula_structural   Pr
_chemical_formula_sum   Pr16
_cell_volume   1166.69019993
_cell_formula_units_Z   16
loop_
 _symmetry_equiv_pos_site_id
 _symmetry_equiv_pos_as_xyz
  1  'x, y, z'
loop_
 _atom_site_type_symbol
 _atom_site_label
 _atom_site_symmetry_multiplicity
 _atom_site_fract_x
 _atom_site_fract_y
 _atom_site_fract_z
 _atom_site_occupancy
  Pr  Pr0  1  0.96298300  0.98873100  0.01066300  1.0
  Pr  Pr1  1  0.99077700  0.49998200  0.06480800  1.0
  Pr  Pr2  1  0.31174800  0.74954200  0.07837100  1.0
  Pr  Pr3  1  0.66447600  0.24670700  0.05304200  1.0
  Pr  Pr4  1  0.99603900  0.00363200  0.12553600  1.0
  Pr  Pr5  1  0.00889300  0.49920800  0.18537600  1.0
  Pr  Pr6  1  0.33668000  0.74983300  0.19710100  1.0
  Pr  Pr7  1  0.67497000  0.25186900  0.17477300  1.0
  Pr  Pr8  1  0.99830500  0.99910400  0.25053600  1.0
  Pr  Pr9  1  0.99288100  0.50066600  0.31419600  1.0
  Pr  Pr10  1  0.33107400  0.75029500  0.32344500  1.0
  Pr  Pr11  1  0.66602600  0.25069600  0.30215600  1.0
  Pr  Pr12  1  0.01625000  0.00242400  0.37063500  1.0
  Pr  Pr13  1  0.01308600  0.50103700  0.43409900  1.0
  Pr  Pr14  1  0.35530900  0.75261300  0.44209700  1.0
  Pr  Pr15  1  0.68050300  0.25366500  0.42316600  1.0
