# generated using pymatgen
data_Pr
_symmetry_space_group_name_H-M   'P 1'
_cell_length_a   9.89312918
_cell_length_b   12.61827215
_cell_length_c   22.42802200
_cell_angle_alpha   98.51791328
_cell_angle_beta   79.11028953
_cell_angle_gamma   77.03158116
_symmetry_Int_Tables_number   1
_chemical_formula_structural   Pr
_chemical_formula_sum   Pr36
_cell_volume   2625.60871079
_cell_formula_units_Z   36
loop_
 _symmetry_equiv_pos_site_id
 _symmetry_equiv_pos_as_xyz
  1  'x, y, z'
loop_
 _atom_site_type_symbol
 _atom_site_label
 _atom_site_symmetry_multiplicity
 _atom_site_fract_x
 _atom_site_fract_y
 _atom_site_fract_z
 _atom_site_occupancy
  Pr  Pr0  1  0.97610000  0.00297200  0.01296600  1.0
  Pr  Pr1  1  0.33122900  0.00512500  0.05979800  1.0
  Pr  Pr2  1  0.65908400  0.99780300  0.11588800  1.0
  Pr  Pr3  1  0.82221000  0.49626600  0.05312800  1.0
  Pr  Pr4  1  0.17052900  0.49939000  0.11658200  1.0
  Pr  Pr5  1  0.48389800  0.52701100  0.01113100  1.0
  Pr  Pr6  1  0.01771700  0.24631800  0.10132200  1.0
  Pr  Pr7  1  0.35482600  0.25133200  0.16260100  1.0
  Pr  Pr8  1  0.66309500  0.25113300  0.04838900  1.0
  Pr  Pr9  1  0.65240900  0.75469800  0.01215000  1.0
  Pr  Pr10  1  0.97340600  0.74736000  0.06960900  1.0
  Pr  Pr11  1  0.30461300  0.75751700  0.12225000  1.0
  Pr  Pr12  1  0.99960000  0.99808400  0.16681900  1.0
  Pr  Pr13  1  0.32760100  0.99934700  0.22296100  1.0
  Pr  Pr14  1  0.66592000  0.99959700  0.27660500  1.0
  Pr  Pr15  1  0.83724500  0.49783300  0.21828900  1.0
  Pr  Pr16  1  0.15983700  0.50292700  0.28093900  1.0
  Pr  Pr17  1  0.50175700  0.50053900  0.16630600  1.0
  Pr  Pr18  1  0.01633500  0.25368300  0.26992400  1.0
  Pr  Pr19  1  0.35775700  0.24613900  0.32266200  1.0
  Pr  Pr20  1  0.69377500  0.24817100  0.20807000  1.0
  Pr  Pr21  1  0.64670200  0.74448400  0.17186200  1.0
  Pr  Pr22  1  0.98119900  0.74862300  0.23434300  1.0
  Pr  Pr23  1  0.31353800  0.74786500  0.29015700  1.0
  Pr  Pr24  1  0.99750600  0.99950100  0.33246800  1.0
  Pr  Pr25  1  0.33417100  0.99590000  0.38507900  1.0
  Pr  Pr26  1  0.65874900  0.99951200  0.43697200  1.0
  Pr  Pr27  1  0.82472400  0.51344200  0.39171300  1.0
  Pr  Pr28  1  0.16986400  0.49506900  0.43621400  1.0
  Pr  Pr29  1  0.50296800  0.49153000  0.33151700  1.0
  Pr  Pr30  1  0.03460900  0.25159100  0.43300300  1.0
  Pr  Pr31  1  0.37145100  0.25234000  0.47661800  1.0
  Pr  Pr32  1  0.70035500  0.24233300  0.37667700  1.0
  Pr  Pr33  1  0.64691600  0.74887200  0.33561600  1.0
  Pr  Pr34  1  0.99035300  0.75116800  0.40011300  1.0
  Pr  Pr35  1  0.35795400  0.73452600  0.44926000  1.0
