# generated using pymatgen
data_Pr
_symmetry_space_group_name_H-M   'P 1'
_cell_length_a   3.74298826
_cell_length_b   12.02275800
_cell_length_c   29.94390400
_cell_angle_alpha   90.00000000
_cell_angle_beta   60.00000234
_cell_angle_gamma   90.00000000
_symmetry_Int_Tables_number   1
_chemical_formula_structural   Pr
_chemical_formula_sum   Pr16
_cell_volume   1166.97521993
_cell_formula_units_Z   16
loop_
 _symmetry_equiv_pos_site_id
 _symmetry_equiv_pos_as_xyz
  1  'x, y, z'
loop_
 _atom_site_type_symbol
 _atom_site_label
 _atom_site_symmetry_multiplicity
 _atom_site_fract_x
 _atom_site_fract_y
 _atom_site_fract_z
 _atom_site_occupancy
  Pr  Pr0  1  0.97123300  0.00194600  0.00719200  1.0
  Pr  Pr1  1  0.97123300  0.49805400  0.00719200  1.0
  Pr  Pr2  1  0.32181500  0.25000000  0.04454700  1.0
  Pr  Pr3  1  0.66676100  0.75000000  0.08330900  1.0
  Pr  Pr4  1  0.99966400  0.99902700  0.12508400  1.0
  Pr  Pr5  1  0.99966400  0.50097300  0.12508400  1.0
  Pr  Pr6  1  0.34163100  0.25000000  0.16459300  1.0
  Pr  Pr7  1  0.66806800  0.75000000  0.20798200  1.0
  Pr  Pr8  1  0.00234700  0.00250000  0.24941300  1.0
  Pr  Pr9  1  0.00234700  0.49750000  0.24941300  1.0
  Pr  Pr10  1  0.32138500  0.25000000  0.29465400  1.0
  Pr  Pr11  1  0.66750100  0.75000000  0.33312400  1.0
  Pr  Pr12  1  0.01587500  0.99936300  0.37103100  1.0
  Pr  Pr13  1  0.01587500  0.50063700  0.37103100  1.0
  Pr  Pr14  1  0.34184900  0.25000000  0.41453800  1.0
  Pr  Pr15  1  0.69275100  0.75000000  0.45181200  1.0
