# generated using pymatgen
data_Li
_symmetry_space_group_name_H-M   'P 1'
_cell_length_a   3.38295700
_cell_length_b   7.75798642
_cell_length_c   31.03194567
_cell_angle_alpha   90.00000000
_cell_angle_beta   90.00000000
_cell_angle_gamma   90.00000000
_symmetry_Int_Tables_number   1
_chemical_formula_structural   Li
_chemical_formula_sum   Li20
_cell_volume   814.43138044
_cell_formula_units_Z   20
loop_
 _symmetry_equiv_pos_site_id
 _symmetry_equiv_pos_as_xyz
  1  'x, y, z'
loop_
 _atom_site_type_symbol
 _atom_site_label
 _atom_site_symmetry_multiplicity
 _atom_site_fract_x
 _atom_site_fract_y
 _atom_site_fract_z
 _atom_site_occupancy
  Li  Li0  1  0.00000000  0.59420700  0.19979100  1.0
  Li  Li1  1  0.00000000  0.19407800  0.15404200  1.0
  Li  Li2  1  0.00000000  0.78352600  0.09759300  1.0
  Li  Li3  1  0.00000000  0.39661500  0.04909800  1.0
  Li  Li4  1  0.00000000  0.04771500  0.00326700  1.0
  Li  Li5  1  0.50000000  0.48714400  0.12433900  1.0
  Li  Li6  1  0.50000000  0.09118000  0.07986500  1.0
  Li  Li7  1  0.50000000  0.71778100  0.02326200  1.0
  Li  Li8  1  0.50000000  0.30302600  0.22816300  1.0
  Li  Li9  1  0.50000000  0.88876200  0.17210400  1.0
  Li  Li10  1  0.00000000  0.58221900  0.45173800  1.0
  Li  Li11  1  0.00000000  0.20882000  0.39513500  1.0
  Li  Li12  1  0.00000000  0.81285600  0.35066100  1.0
  Li  Li13  1  0.00000000  0.41123800  0.30289600  1.0
  Li  Li14  1  0.00000000  0.99697400  0.24683700  1.0
  Li  Li15  1  0.50000000  0.51647400  0.37740700  1.0
  Li  Li16  1  0.50000000  0.10592200  0.32095800  1.0
  Li  Li17  1  0.50000000  0.70579300  0.27520900  1.0
  Li  Li18  1  0.50000000  0.25228500  0.47173300  1.0
  Li  Li19  1  0.50000000  0.90338500  0.42590200  1.0
