# generated using pymatgen
data_Ni
_symmetry_space_group_name_H-M   'P 1'
_cell_length_a   2.47563902
_cell_length_b   4.76347460
_cell_length_c   25.74101310
_cell_angle_alpha   116.76417654
_cell_angle_beta   89.99998808
_cell_angle_gamma   74.93845660
_symmetry_Int_Tables_number   1
_chemical_formula_structural   Ni
_chemical_formula_sum   Ni12
_cell_volume   259.30155869
_cell_formula_units_Z   12
loop_
 _symmetry_equiv_pos_site_id
 _symmetry_equiv_pos_as_xyz
  1  'x, y, z'
loop_
 _atom_site_type_symbol
 _atom_site_label
 _atom_site_symmetry_multiplicity
 _atom_site_fract_x
 _atom_site_fract_y
 _atom_site_fract_z
 _atom_site_occupancy
  Ni  Ni0  1  0.12919100  0.74161900  0.08974800  1.0
  Ni  Ni1  1  0.61832500  0.76335000  0.01297200  1.0
  Ni  Ni2  1  0.87505500  0.24988900  0.07345900  1.0
  Ni  Ni3  1  0.37549200  0.24901700  0.15872800  1.0
  Ni  Ni4  1  0.12480000  0.75040000  0.25743100  1.0
  Ni  Ni5  1  0.62588700  0.74822600  0.17330700  1.0
  Ni  Ni6  1  0.87520000  0.24960000  0.24256900  1.0
  Ni  Ni7  1  0.37411300  0.25177400  0.32669300  1.0
  Ni  Ni8  1  0.12494500  0.75011100  0.42654100  1.0
  Ni  Ni9  1  0.62450800  0.75098300  0.34127200  1.0
  Ni  Ni10  1  0.87080900  0.25838100  0.41025200  1.0
  Ni  Ni11  1  0.38167500  0.23665000  0.48702800  1.0
