# generated using pymatgen
data_Ni
_symmetry_space_group_name_H-M   'P 1'
_cell_length_a   4.06882000
_cell_length_b   4.29278200
_cell_length_c   24.76785500
_cell_angle_alpha   90.00000000
_cell_angle_beta   90.00000000
_cell_angle_gamma   90.00000000
_symmetry_Int_Tables_number   1
_chemical_formula_structural   Ni
_chemical_formula_sum   Ni20
_cell_volume   432.60915750
_cell_formula_units_Z   20
loop_
 _symmetry_equiv_pos_site_id
 _symmetry_equiv_pos_as_xyz
  1  'x, y, z'
loop_
 _atom_site_type_symbol
 _atom_site_label
 _atom_site_symmetry_multiplicity
 _atom_site_fract_x
 _atom_site_fract_y
 _atom_site_fract_z
 _atom_site_occupancy
  Ni  Ni0  1  0.25000000  0.33971700  0.00207200  1.0
  Ni  Ni1  1  0.25000000  0.83871300  0.04725600  1.0
  Ni  Ni2  1  0.75000000  0.66028300  0.00207200  1.0
  Ni  Ni3  1  0.75000000  0.16128700  0.04725600  1.0
  Ni  Ni4  1  0.25000000  0.33255000  0.09888600  1.0
  Ni  Ni5  1  0.25000000  0.83269000  0.14961600  1.0
  Ni  Ni6  1  0.75000000  0.66745000  0.09888600  1.0
  Ni  Ni7  1  0.75000000  0.16731000  0.14961600  1.0
  Ni  Ni8  1  0.25000000  0.33286600  0.19946400  1.0
  Ni  Ni9  1  0.25000000  0.83286600  0.25053600  1.0
  Ni  Ni10  1  0.75000000  0.66713400  0.19946400  1.0
  Ni  Ni11  1  0.75000000  0.16713400  0.25053600  1.0
  Ni  Ni12  1  0.25000000  0.33269000  0.30038400  1.0
  Ni  Ni13  1  0.25000000  0.83255000  0.35111400  1.0
  Ni  Ni14  1  0.75000000  0.66731000  0.30038400  1.0
  Ni  Ni15  1  0.75000000  0.16745000  0.35111400  1.0
  Ni  Ni16  1  0.25000000  0.33871300  0.40274400  1.0
  Ni  Ni17  1  0.25000000  0.83971700  0.44792800  1.0
  Ni  Ni18  1  0.75000000  0.66128700  0.40274400  1.0
  Ni  Ni19  1  0.75000000  0.16028300  0.44792800  1.0
