# generated using pymatgen
data_Ni
_symmetry_space_group_name_H-M   'P 1'
_cell_length_a   4.29175674
_cell_length_b   4.76352806
_cell_length_c   25.64211910
_cell_angle_alpha   81.97589158
_cell_angle_beta   89.99999611
_cell_angle_gamma   90.00000119
_symmetry_Int_Tables_number   1
_chemical_formula_structural   Ni
_chemical_formula_sum   Ni24
_cell_volume   519.09254608
_cell_formula_units_Z   24
loop_
 _symmetry_equiv_pos_site_id
 _symmetry_equiv_pos_as_xyz
  1  'x, y, z'
loop_
 _atom_site_type_symbol
 _atom_site_label
 _atom_site_symmetry_multiplicity
 _atom_site_fract_x
 _atom_site_fract_y
 _atom_site_fract_z
 _atom_site_occupancy
  Ni  Ni0  1  0.33508800  0.83019500  0.10359800  1.0
  Ni  Ni1  1  0.83478300  0.66476100  0.14491200  1.0
  Ni  Ni2  1  0.33002400  0.16896500  0.02348000  1.0
  Ni  Ni3  1  0.33404300  0.49760800  0.18724700  1.0
  Ni  Ni4  1  0.82883300  0.00393100  0.05926000  1.0
  Ni  Ni5  1  0.83394600  0.33361300  0.22879200  1.0
  Ni  Ni6  1  0.16491200  0.33019500  0.10359800  1.0
  Ni  Ni7  1  0.66521700  0.16476100  0.14491200  1.0
  Ni  Ni8  1  0.16997600  0.66896500  0.02348000  1.0
  Ni  Ni9  1  0.16595700  0.99760800  0.18724700  1.0
  Ni  Ni10  1  0.67116700  0.50393100  0.05926000  1.0
  Ni  Ni11  1  0.66605400  0.83361300  0.22879200  1.0
  Ni  Ni12  1  0.33478300  0.83523900  0.35508800  1.0
  Ni  Ni13  1  0.83508800  0.66980500  0.39640200  1.0
  Ni  Ni14  1  0.33394600  0.16638700  0.27120800  1.0
  Ni  Ni15  1  0.32883300  0.49606900  0.44074000  1.0
  Ni  Ni16  1  0.83404300  0.00239200  0.31275300  1.0
  Ni  Ni17  1  0.83002400  0.33103500  0.47652000  1.0
  Ni  Ni18  1  0.16521700  0.33523900  0.35508800  1.0
  Ni  Ni19  1  0.66491200  0.16980500  0.39640200  1.0
  Ni  Ni20  1  0.16605400  0.66638700  0.27120800  1.0
  Ni  Ni21  1  0.17116700  0.99606900  0.44074000  1.0
  Ni  Ni22  1  0.66595700  0.50239200  0.31275300  1.0
  Ni  Ni23  1  0.66997600  0.83103500  0.47652000  1.0
