# generated using pymatgen
data_Ni
_symmetry_space_group_name_H-M   'P 1'
_cell_length_a   4.29228100
_cell_length_b   4.76438414
_cell_length_c   24.76974400
_cell_angle_alpha   105.06691280
_cell_angle_beta   90.00000000
_cell_angle_gamma   63.22711537
_symmetry_Int_Tables_number   1
_chemical_formula_structural   Ni
_chemical_formula_sum   Ni20
_cell_volume   432.64768902
_cell_formula_units_Z   20
loop_
 _symmetry_equiv_pos_site_id
 _symmetry_equiv_pos_as_xyz
  1  'x, y, z'
loop_
 _atom_site_type_symbol
 _atom_site_label
 _atom_site_symmetry_multiplicity
 _atom_site_fract_x
 _atom_site_fract_y
 _atom_site_fract_z
 _atom_site_occupancy
  Ni  Ni0  1  0.78758800  0.75090700  0.08445800  1.0
  Ni  Ni1  1  0.29137000  0.74955400  0.03724100  1.0
  Ni  Ni2  1  0.71363300  0.24475400  0.06000500  1.0
  Ni  Ni3  1  0.21076300  0.25742700  0.01722700  1.0
  Ni  Ni4  1  0.79169100  0.74893200  0.18707700  1.0
  Ni  Ni5  1  0.29311800  0.74677700  0.13659900  1.0
  Ni  Ni6  1  0.70905900  0.24622700  0.16210300  1.0
  Ni  Ni7  1  0.20841900  0.24866500  0.11210800  1.0
  Ni  Ni8  1  0.79253200  0.75082100  0.28789500  1.0
  Ni  Ni9  1  0.29237200  0.74907100  0.23704100  1.0
  Ni  Ni10  1  0.70762800  0.25092900  0.26295900  1.0
  Ni  Ni11  1  0.20746800  0.24917900  0.21210500  1.0
  Ni  Ni12  1  0.79158100  0.75133500  0.38789200  1.0
  Ni  Ni13  1  0.29094100  0.75377300  0.33789700  1.0
  Ni  Ni14  1  0.70688200  0.25322300  0.36340100  1.0
  Ni  Ni15  1  0.20830900  0.25106800  0.31292300  1.0
  Ni  Ni16  1  0.78923700  0.74257300  0.48277300  1.0
  Ni  Ni17  1  0.28636700  0.75524600  0.43999500  1.0
  Ni  Ni18  1  0.70863000  0.25044600  0.46275900  1.0
  Ni  Ni19  1  0.21241200  0.24909300  0.41554200  1.0
