# generated using pymatgen
data_Ni
_symmetry_space_group_name_H-M   'P 1'
_cell_length_a   2.47740641
_cell_length_b   4.07116000
_cell_length_c   24.77406800
_cell_angle_alpha   90.00000000
_cell_angle_beta   60.00000542
_cell_angle_gamma   90.00000000
_symmetry_Int_Tables_number   1
_chemical_formula_structural   Ni
_chemical_formula_sum   Ni10
_cell_volume   216.39309998
_cell_formula_units_Z   10
loop_
 _symmetry_equiv_pos_site_id
 _symmetry_equiv_pos_as_xyz
  1  'x, y, z'
loop_
 _atom_site_type_symbol
 _atom_site_label
 _atom_site_symmetry_multiplicity
 _atom_site_fract_x
 _atom_site_fract_y
 _atom_site_fract_z
 _atom_site_occupancy
  Ni  Ni0  1  0.31678000  0.75000000  0.03664400  1.0
  Ni  Ni1  1  0.68256400  0.25000000  0.06348800  1.0
  Ni  Ni2  1  0.33163900  0.75000000  0.13367200  1.0
  Ni  Ni3  1  0.67138000  0.25000000  0.16572400  1.0
  Ni  Ni4  1  0.33255100  0.75000000  0.23348900  1.0
  Ni  Ni5  1  0.66744900  0.25000000  0.26651100  1.0
  Ni  Ni6  1  0.32862000  0.75000000  0.33427600  1.0
  Ni  Ni7  1  0.66836100  0.25000000  0.36632800  1.0
  Ni  Ni8  1  0.31743600  0.75000000  0.43651200  1.0
  Ni  Ni9  1  0.68322000  0.25000000  0.46335600  1.0
