# generated using pymatgen
data_Ni
_symmetry_space_group_name_H-M   'P 1'
_cell_length_a   2.47711653
_cell_length_b   8.50474555
_cell_length_c   25.76022206
_cell_angle_alpha   104.62019017
_cell_angle_beta   90.00001475
_cell_angle_gamma   81.62615043
_symmetry_Int_Tables_number   1
_chemical_formula_structural   Ni
_chemical_formula_sum   Ni24
_cell_volume   519.14301529
_cell_formula_units_Z   24
loop_
 _symmetry_equiv_pos_site_id
 _symmetry_equiv_pos_as_xyz
  1  'x, y, z'
loop_
 _atom_site_type_symbol
 _atom_site_label
 _atom_site_symmetry_multiplicity
 _atom_site_fract_x
 _atom_site_fract_y
 _atom_site_fract_z
 _atom_site_occupancy
  Ni  Ni0  1  0.31328500  0.37343000  0.05755700  1.0
  Ni  Ni1  1  0.06225200  0.87549700  0.10084300  1.0
  Ni  Ni2  1  0.81341600  0.37316800  0.14079100  1.0
  Ni  Ni3  1  0.56383400  0.87233200  0.01984900  1.0
  Ni  Ni4  1  0.93751800  0.12496500  0.06247700  1.0
  Ni  Ni5  1  0.68930100  0.62139800  0.10689300  1.0
  Ni  Ni6  1  0.43779100  0.12441900  0.14768600  1.0
  Ni  Ni7  1  0.18656200  0.62687600  0.02552200  1.0
  Ni  Ni8  1  0.31257700  0.37484700  0.22472700  1.0
  Ni  Ni9  1  0.06256000  0.87488100  0.26795400  1.0
  Ni  Ni10  1  0.81244000  0.37511900  0.30880900  1.0
  Ni  Ni11  1  0.56285000  0.87430100  0.18404500  1.0
  Ni  Ni12  1  0.93744000  0.12511900  0.23204600  1.0
  Ni  Ni13  1  0.68742300  0.62515300  0.27527300  1.0
  Ni  Ni14  1  0.43715000  0.12569900  0.31595500  1.0
  Ni  Ni15  1  0.18756000  0.62488100  0.19119100  1.0
  Ni  Ni16  1  0.31069900  0.37860200  0.39310700  1.0
  Ni  Ni17  1  0.06248200  0.87503500  0.43752300  1.0
  Ni  Ni18  1  0.81343800  0.37312400  0.47447800  1.0
  Ni  Ni19  1  0.56220900  0.87558100  0.35231400  1.0
  Ni  Ni20  1  0.93774800  0.12450300  0.39915700  1.0
  Ni  Ni21  1  0.68671500  0.62657000  0.44244300  1.0
  Ni  Ni22  1  0.43616600  0.12766800  0.48015100  1.0
  Ni  Ni23  1  0.18658400  0.62683200  0.35920900  1.0
