# generated using pymatgen
data_Ni
_symmetry_space_group_name_H-M   'P 1'
_cell_length_a   4.06788000
_cell_length_b   6.55658738
_cell_length_c   24.77075300
_cell_angle_alpha   79.11141565
_cell_angle_beta   90.00000000
_cell_angle_gamma   90.00000000
_symmetry_Int_Tables_number   1
_chemical_formula_structural   Ni
_chemical_formula_sum   Ni30
_cell_volume   648.77645015
_cell_formula_units_Z   30
loop_
 _symmetry_equiv_pos_site_id
 _symmetry_equiv_pos_as_xyz
  1  'x, y, z'
loop_
 _atom_site_type_symbol
 _atom_site_label
 _atom_site_symmetry_multiplicity
 _atom_site_fract_x
 _atom_site_fract_y
 _atom_site_fract_z
 _atom_site_occupancy
  Ni  Ni0  1  0.25000000  0.56042600  0.02399400  1.0
  Ni  Ni1  1  0.25000000  0.22335400  0.08587800  1.0
  Ni  Ni2  1  0.25000000  0.89533900  0.05271600  1.0
  Ni  Ni3  1  0.75000000  0.77196300  0.01527500  1.0
  Ni  Ni4  1  0.75000000  0.43813000  0.07556500  1.0
  Ni  Ni5  1  0.75000000  0.10744200  0.04477000  1.0
  Ni  Ni6  1  0.25000000  0.55561000  0.12094600  1.0
  Ni  Ni7  1  0.25000000  0.22289300  0.18839300  1.0
  Ni  Ni8  1  0.25000000  0.89069400  0.15485400  1.0
  Ni  Ni9  1  0.75000000  0.77869000  0.11044000  1.0
  Ni  Ni10  1  0.75000000  0.44644800  0.17735500  1.0
  Ni  Ni11  1  0.75000000  0.11396300  0.14384400  1.0
  Ni  Ni12  1  0.25000000  0.55571700  0.22159100  1.0
  Ni  Ni13  1  0.25000000  0.22165200  0.28947200  1.0
  Ni  Ni14  1  0.25000000  0.88892100  0.25573800  1.0
  Ni  Ni15  1  0.75000000  0.77834800  0.21052800  1.0
  Ni  Ni16  1  0.75000000  0.44428300  0.27840900  1.0
  Ni  Ni17  1  0.75000000  0.11107900  0.24426200  1.0
  Ni  Ni18  1  0.25000000  0.55355200  0.32264500  1.0
  Ni  Ni19  1  0.25000000  0.22131000  0.38956000  1.0
  Ni  Ni20  1  0.25000000  0.88603700  0.35615600  1.0
  Ni  Ni21  1  0.75000000  0.77710700  0.31160700  1.0
  Ni  Ni22  1  0.75000000  0.44439000  0.37905400  1.0
  Ni  Ni23  1  0.75000000  0.10930600  0.34514600  1.0
  Ni  Ni24  1  0.25000000  0.56187000  0.42443500  1.0
  Ni  Ni25  1  0.25000000  0.22803700  0.48472500  1.0
  Ni  Ni26  1  0.25000000  0.89255800  0.45523000  1.0
  Ni  Ni27  1  0.75000000  0.77664600  0.41412200  1.0
  Ni  Ni28  1  0.75000000  0.43957400  0.47600600  1.0
  Ni  Ni29  1  0.75000000  0.10466100  0.44728400  1.0
