# generated using pymatgen
data_Ni
_symmetry_space_group_name_H-M   'P 1'
_cell_length_a   4.29322200
_cell_length_b   8.50509448
_cell_length_c   24.76833100
_cell_angle_alpha   98.37253774
_cell_angle_beta   90.00000000
_cell_angle_gamma   75.38094370
_symmetry_Int_Tables_number   1
_chemical_formula_structural   Ni
_chemical_formula_sum   Ni40
_cell_volume   865.15263925
_cell_formula_units_Z   40
loop_
 _symmetry_equiv_pos_site_id
 _symmetry_equiv_pos_as_xyz
  1  'x, y, z'
loop_
 _atom_site_type_symbol
 _atom_site_label
 _atom_site_symmetry_multiplicity
 _atom_site_fract_x
 _atom_site_fract_y
 _atom_site_fract_z
 _atom_site_occupancy
  Ni  Ni0  1  0.72572100  0.87616100  0.09031400  1.0
  Ni  Ni1  1  0.97377900  0.37477800  0.06588900  1.0
  Ni  Ni2  1  0.47587400  0.37403200  0.02104800  1.0
  Ni  Ni3  1  0.22654800  0.87406000  0.04323200  1.0
  Ni  Ni4  1  0.52513200  0.62597700  0.07810800  1.0
  Ni  Ni5  1  0.77669100  0.12117900  0.05412400  1.0
  Ni  Ni6  1  0.27593800  0.12734000  0.01139500  1.0
  Ni  Ni7  1  0.02880000  0.62433700  0.03283600  1.0
  Ni  Ni8  1  0.73029800  0.87453000  0.19280500  1.0
  Ni  Ni9  1  0.97999400  0.37461900  0.16856000  1.0
  Ni  Ni10  1  0.47974700  0.37522100  0.11788500  1.0
  Ni  Ni11  1  0.23082200  0.87341500  0.14242800  1.0
  Ni  Ni12  1  0.51979500  0.62449700  0.18061100  1.0
  Ni  Ni13  1  0.77113600  0.12380300  0.15608400  1.0
  Ni  Ni14  1  0.27135900  0.12506700  0.10621100  1.0
  Ni  Ni15  1  0.01965800  0.62442100  0.12974300  1.0
  Ni  Ni16  1  0.72948300  0.87543600  0.29386100  1.0
  Ni  Ni17  1  0.98019700  0.37498000  0.26945200  1.0
  Ni  Ni18  1  0.47981600  0.37482800  0.21836500  1.0
  Ni  Ni19  1  0.22994800  0.87487500  0.24324700  1.0
  Ni  Ni20  1  0.52018400  0.62517200  0.28163500  1.0
  Ni  Ni21  1  0.77005200  0.12512500  0.25675300  1.0
  Ni  Ni22  1  0.27051700  0.12456400  0.20613900  1.0
  Ni  Ni23  1  0.01980300  0.62502000  0.23054800  1.0
  Ni  Ni24  1  0.72864100  0.87493300  0.39378900  1.0
  Ni  Ni25  1  0.98034200  0.37557900  0.37025700  1.0
  Ni  Ni26  1  0.48020500  0.37550300  0.31938900  1.0
  Ni  Ni27  1  0.22886400  0.87619700  0.34391600  1.0
  Ni  Ni28  1  0.52025300  0.62477900  0.38211500  1.0
  Ni  Ni29  1  0.76917800  0.12658500  0.35757200  1.0
  Ni  Ni30  1  0.26970200  0.12547000  0.30719500  1.0
  Ni  Ni31  1  0.02000600  0.62538100  0.33144000  1.0
  Ni  Ni32  1  0.72406200  0.87266000  0.48860500  1.0
  Ni  Ni33  1  0.97120000  0.37566300  0.46716400  1.0
  Ni  Ni34  1  0.47486800  0.37402300  0.42189200  1.0
  Ni  Ni35  1  0.22330900  0.87882100  0.44587600  1.0
  Ni  Ni36  1  0.52412600  0.62596800  0.47895200  1.0
  Ni  Ni37  1  0.77345200  0.12594000  0.45676800  1.0
  Ni  Ni38  1  0.27427900  0.12383900  0.40968600  1.0
  Ni  Ni39  1  0.02622100  0.62522200  0.43411100  1.0
