# generated using pymatgen
data_Ni
_symmetry_space_group_name_H-M   'P 1'
_cell_length_a   2.47720125
_cell_length_b   6.41129609
_cell_length_c   23.65356267
_cell_angle_alpha   92.82991898
_cell_angle_beta   89.99999903
_cell_angle_gamma   67.27052356
_symmetry_Int_Tables_number   1
_chemical_formula_structural   Ni
_chemical_formula_sum   Ni16
_cell_volume   345.99624236
_cell_formula_units_Z   16
loop_
 _symmetry_equiv_pos_site_id
 _symmetry_equiv_pos_as_xyz
  1  'x, y, z'
loop_
 _atom_site_type_symbol
 _atom_site_label
 _atom_site_symmetry_multiplicity
 _atom_site_fract_x
 _atom_site_fract_y
 _atom_site_fract_z
 _atom_site_occupancy
  Ni  Ni0  1  0.95881900  0.04118100  0.17646200  1.0
  Ni  Ni1  1  0.20927000  0.29073000  0.11362900  1.0
  Ni  Ni2  1  0.70850700  0.79149300  0.23936100  1.0
  Ni  Ni3  1  0.45431000  0.54569000  0.05111600  1.0
  Ni  Ni4  1  0.79026900  0.70973100  0.13391600  1.0
  Ni  Ni5  1  0.04802700  0.95197300  0.06962200  1.0
  Ni  Ni6  1  0.54204000  0.45796000  0.19740000  1.0
  Ni  Ni7  1  0.28397500  0.21602500  0.01406200  1.0
  Ni  Ni8  1  0.95197300  0.04802700  0.43037800  1.0
  Ni  Ni9  1  0.20973100  0.29026900  0.36608400  1.0
  Ni  Ni10  1  0.71602500  0.78397500  0.48593800  1.0
  Ni  Ni11  1  0.45796000  0.54204000  0.30260000  1.0
  Ni  Ni12  1  0.79073000  0.70927000  0.38637100  1.0
  Ni  Ni13  1  0.04118100  0.95881900  0.32353800  1.0
  Ni  Ni14  1  0.54569000  0.45431000  0.44888400  1.0
  Ni  Ni15  1  0.29149300  0.20850700  0.26063900  1.0
