# generated using pymatgen
data_Ni
_symmetry_space_group_name_H-M   'P 1'
_cell_length_a   4.76332065
_cell_length_b   5.91328431
_cell_length_c   23.97590720
_cell_angle_alpha   92.96584738
_cell_angle_beta   94.00981326
_cell_angle_gamma   105.09580689
_symmetry_Int_Tables_number   1
_chemical_formula_structural   Ni
_chemical_formula_sum   Ni30
_cell_volume   648.70797547
_cell_formula_units_Z   30
loop_
 _symmetry_equiv_pos_site_id
 _symmetry_equiv_pos_as_xyz
  1  'x, y, z'
loop_
 _atom_site_type_symbol
 _atom_site_label
 _atom_site_symmetry_multiplicity
 _atom_site_fract_x
 _atom_site_fract_y
 _atom_site_fract_z
 _atom_site_occupancy
  Ni  Ni0  1  0.33754700  0.64288300  0.05188100  1.0
  Ni  Ni1  1  0.97707500  0.30868900  0.08276400  1.0
  Ni  Ni2  1  0.70036600  0.97459500  0.02205200  1.0
  Ni  Ni3  1  0.22677900  0.02495200  0.04563000  1.0
  Ni  Ni4  1  0.86534200  0.69293500  0.07768100  1.0
  Ni  Ni5  1  0.59097700  0.35598200  0.01776600  1.0
  Ni  Ni6  1  0.23256400  0.63786300  0.15220800  1.0
  Ni  Ni7  1  0.86949900  0.30486200  0.18546200  1.0
  Ni  Ni8  1  0.60347600  0.97245700  0.11857500  1.0
  Ni  Ni9  1  0.12837700  0.02807000  0.14627700  1.0
  Ni  Ni10  1  0.76365700  0.69492100  0.18005300  1.0
  Ni  Ni11  1  0.49706300  0.36193700  0.11327200  1.0
  Ni  Ni12  1  0.13550500  0.63864800  0.25278900  1.0
  Ni  Ni13  1  0.76823500  0.30510700  0.28645600  1.0
  Ni  Ni14  1  0.50276300  0.97189500  0.21877800  1.0
  Ni  Ni15  1  0.03116200  0.02801900  0.24721100  1.0
  Ni  Ni16  1  0.66390300  0.69477100  0.28122200  1.0
  Ni  Ni17  1  0.39843200  0.36156000  0.21354400  1.0
  Ni  Ni18  1  0.03829000  0.63859700  0.35372300  1.0
  Ni  Ni19  1  0.66960400  0.30473000  0.38672800  1.0
  Ni  Ni20  1  0.40300900  0.97174500  0.31994700  1.0
  Ni  Ni21  1  0.93410300  0.02880400  0.34779200  1.0
  Ni  Ni22  1  0.56319000  0.69420900  0.38142500  1.0
  Ni  Ni23  1  0.29716800  0.36180500  0.31453800  1.0
  Ni  Ni24  1  0.93988800  0.64171500  0.45437000  1.0
  Ni  Ni25  1  0.57569000  0.31068500  0.48223400  1.0
  Ni  Ni26  1  0.30132400  0.97373100  0.42231900  1.0
  Ni  Ni27  1  0.82912000  0.02378400  0.44811900  1.0
  Ni  Ni28  1  0.46630000  0.69207100  0.47794800  1.0
  Ni  Ni29  1  0.18959200  0.35797800  0.41723600  1.0
