# generated using pymatgen
data_Ni
_symmetry_space_group_name_H-M   'P 1'
_cell_length_a   6.55514281
_cell_length_b   4.76292498
_cell_length_c   24.11932295
_cell_angle_alpha   88.12501121
_cell_angle_beta   90.00605405
_cell_angle_gamma   66.83417490
_symmetry_Int_Tables_number   1
_chemical_formula_structural   Ni
_chemical_formula_sum   Ni32
_cell_volume   691.88753844
_cell_formula_units_Z   32
loop_
 _symmetry_equiv_pos_site_id
 _symmetry_equiv_pos_as_xyz
  1  'x, y, z'
loop_
 _atom_site_type_symbol
 _atom_site_label
 _atom_site_symmetry_multiplicity
 _atom_site_fract_x
 _atom_site_fract_y
 _atom_site_fract_z
 _atom_site_occupancy
  Ni  Ni0  1  0.64666100  0.98695600  0.35523500  1.0
  Ni  Ni1  1  0.64572200  0.49119800  0.10207800  1.0
  Ni  Ni2  1  0.27270100  0.04539800  0.38716800  1.0
  Ni  Ni3  1  0.26877400  0.55544300  0.13471200  1.0
  Ni  Ni4  1  0.01925300  0.92747400  0.32348600  1.0
  Ni  Ni5  1  0.02483400  0.42927500  0.06829000  1.0
  Ni  Ni6  1  0.89048400  0.12335300  0.42100100  1.0
  Ni  Ni7  1  0.89589200  0.61558100  0.16613300  1.0
  Ni  Ni8  1  0.51716400  0.17513900  0.45056000  1.0
  Ni  Ni9  1  0.52150700  0.67640700  0.19753000  1.0
  Ni  Ni10  1  0.14470800  0.24464200  0.47807000  1.0
  Ni  Ni11  1  0.14535300  0.73953700  0.22886800  1.0
  Ni  Ni12  1  0.76904600  0.80249900  0.26053300  1.0
  Ni  Ni13  1  0.77000200  0.30143000  0.01379800  1.0
  Ni  Ni14  1  0.39300800  0.86534900  0.29205100  1.0
  Ni  Ni15  1  0.39542300  0.36367600  0.04001000  1.0
  Ni  Ni16  1  0.72910800  0.44691900  0.33386700  1.0
  Ni  Ni17  1  0.73451600  0.93914700  0.07899900  1.0
  Ni  Ni18  1  0.35622600  0.50705700  0.36528800  1.0
  Ni  Ni19  1  0.35229900  0.01710200  0.11283200  1.0
  Ni  Ni20  1  0.10349300  0.38609300  0.30247000  1.0
  Ni  Ni21  1  0.10783600  0.88736100  0.04944000  1.0
  Ni  Ni22  1  0.97927800  0.57130200  0.39792200  1.0
  Ni  Ni23  1  0.97833900  0.07554400  0.14476500  1.0
  Ni  Ni24  1  0.60016600  0.63322500  0.43171000  1.0
  Ni  Ni25  1  0.60574700  0.13502600  0.17651400  1.0
  Ni  Ni26  1  0.22957700  0.69882400  0.45999000  1.0
  Ni  Ni27  1  0.23199200  0.19715100  0.20794900  1.0
  Ni  Ni28  1  0.85595400  0.26000100  0.23946700  1.0
  Ni  Ni29  1  0.85499800  0.76107000  0.48620200  1.0
  Ni  Ni30  1  0.47964700  0.32296300  0.27113200  1.0
  Ni  Ni31  1  0.48029200  0.81785800  0.02193000  1.0
