# generated using pymatgen
data_Ni
_symmetry_space_group_name_H-M   'P 1'
_cell_length_a   2.47690100
_cell_length_b   2.47690109
_cell_length_c   32.56265300
_cell_angle_alpha   90.00000000
_cell_angle_beta   90.00000000
_cell_angle_gamma   120.00001220
_symmetry_Int_Tables_number   1
_chemical_formula_structural   Ni
_chemical_formula_sum   Ni8
_cell_volume   173.00859223
_cell_formula_units_Z   8
loop_
 _symmetry_equiv_pos_site_id
 _symmetry_equiv_pos_as_xyz
  1  'x, y, z'
loop_
 _atom_site_type_symbol
 _atom_site_label
 _atom_site_symmetry_multiplicity
 _atom_site_fract_x
 _atom_site_fract_y
 _atom_site_fract_z
 _atom_site_occupancy
  Ni  Ni0  1  0.33333333  0.66666667  0.34256100  1.0
  Ni  Ni1  1  0.66666667  0.33333333  0.28063400  1.0
  Ni  Ni2  1  0.33333333  0.66666667  0.46855200  1.0
  Ni  Ni3  1  0.66666667  0.33333333  0.40550800  1.0
  Ni  Ni4  1  0.33333333  0.66666667  0.59449200  1.0
  Ni  Ni5  1  0.66666667  0.33333333  0.53144800  1.0
  Ni  Ni6  1  0.33333333  0.66666667  0.71936600  1.0
  Ni  Ni7  1  0.66666667  0.33333333  0.65743900  1.0
