# generated using pymatgen
data_La
_symmetry_space_group_name_H-M   'P 1'
_cell_length_a   12.06403000
_cell_length_b   6.52573500
_cell_length_c   22.58452800
_cell_angle_alpha   90.00000000
_cell_angle_beta   90.00000000
_cell_angle_gamma   90.00000000
_symmetry_Int_Tables_number   1
_chemical_formula_structural   La
_chemical_formula_sum   La24
_cell_volume   1778.00452063
_cell_formula_units_Z   24
loop_
 _symmetry_equiv_pos_site_id
 _symmetry_equiv_pos_as_xyz
  1  'x, y, z'
loop_
 _atom_site_type_symbol
 _atom_site_label
 _atom_site_symmetry_multiplicity
 _atom_site_fract_x
 _atom_site_fract_y
 _atom_site_fract_z
 _atom_site_occupancy
  La  La0  1  0.00000000  0.50000000  0.08536900  1.0
  La  La1  1  0.00000000  0.00000000  0.00639900  1.0
  La  La2  1  0.50000000  0.50000000  0.08536900  1.0
  La  La3  1  0.50000000  0.00000000  0.00639900  1.0
  La  La4  1  0.25000000  0.62150900  0.99976600  1.0
  La  La5  1  0.25000000  0.16013100  0.08747500  1.0
  La  La6  1  0.75000000  0.37849100  0.99976600  1.0
  La  La7  1  0.75000000  0.83986900  0.08747500  1.0
  La  La8  1  0.00000000  0.50000000  0.24868600  1.0
  La  La9  1  0.00000000  0.00000000  0.16798100  1.0
  La  La10  1  0.50000000  0.50000000  0.24868600  1.0
  La  La11  1  0.50000000  0.00000000  0.16798100  1.0
  La  La12  1  0.25000000  0.65297200  0.16160200  1.0
  La  La13  1  0.25000000  0.15297200  0.25506500  1.0
  La  La14  1  0.75000000  0.34702800  0.16160200  1.0
  La  La15  1  0.75000000  0.84702800  0.25506500  1.0
  La  La16  1  0.00000000  0.50000000  0.41026800  1.0
  La  La17  1  0.00000000  0.00000000  0.33129700  1.0
  La  La18  1  0.50000000  0.50000000  0.41026800  1.0
  La  La19  1  0.50000000  0.00000000  0.33129700  1.0
  La  La20  1  0.25000000  0.66013100  0.32919100  1.0
  La  La21  1  0.25000000  0.12150900  0.41690100  1.0
  La  La22  1  0.75000000  0.33986900  0.32919100  1.0
  La  La23  1  0.75000000  0.87849100  0.41690100  1.0
