# generated using pymatgen
data_La
_symmetry_space_group_name_H-M   'P 1'
_cell_length_a   6.51650709
_cell_length_b   12.65635231
_cell_length_c   22.55967172
_cell_angle_alpha   107.28228727
_cell_angle_beta   90.00001475
_cell_angle_gamma   89.99999665
_symmetry_Int_Tables_number   1
_chemical_formula_structural   La
_chemical_formula_sum   La24
_cell_volume   1776.61194388
_cell_formula_units_Z   24
loop_
 _symmetry_equiv_pos_site_id
 _symmetry_equiv_pos_as_xyz
  1  'x, y, z'
loop_
 _atom_site_type_symbol
 _atom_site_label
 _atom_site_symmetry_multiplicity
 _atom_site_fract_x
 _atom_site_fract_y
 _atom_site_fract_z
 _atom_site_occupancy
  La  La0  1  0.98973800  0.04619900  0.02233700  1.0
  La  La1  1  0.49597300  0.00043400  0.08589800  1.0
  La  La2  1  0.00702700  0.48535600  0.08759100  1.0
  La  La3  1  0.51499800  0.50330500  0.16783800  1.0
  La  La4  1  0.17572300  0.25943000  0.13760100  1.0
  La  La5  1  0.59799800  0.25483200  0.04224800  1.0
  La  La6  1  0.33078700  0.75013200  0.12088200  1.0
  La  La7  1  0.84790300  0.77118200  0.04972600  1.0
  La  La8  1  0.01368700  0.99961800  0.17204900  1.0
  La  La9  1  0.50827900  0.99478500  0.24476100  1.0
  La  La10  1  0.00827900  0.50521500  0.25523900  1.0
  La  La11  1  0.51368700  0.50038200  0.32795100  1.0
  La  La12  1  0.16858000  0.25168800  0.30010700  1.0
  La  La13  1  0.66858000  0.24831200  0.19989300  1.0
  La  La14  1  0.34930600  0.75060700  0.29243700  1.0
  La  La15  1  0.84930600  0.74939300  0.20756300  1.0
  La  La16  1  0.01499800  0.99669500  0.33216200  1.0
  La  La17  1  0.50702700  0.01464400  0.41240900  1.0
  La  La18  1  0.99597300  0.49956600  0.41410200  1.0
  La  La19  1  0.48973800  0.45380100  0.47766300  1.0
  La  La20  1  0.09799800  0.24516800  0.45775200  1.0
  La  La21  1  0.67572300  0.24057000  0.36239900  1.0
  La  La22  1  0.34790300  0.72881800  0.45027400  1.0
  La  La23  1  0.83078700  0.74986800  0.37911800  1.0
