# generated using pymatgen
data_La
_symmetry_space_group_name_H-M   'P 1'
_cell_length_a   12.06822600
_cell_length_b   9.95947582
_cell_length_c   22.57567800
_cell_angle_alpha   79.11162609
_cell_angle_beta   90.00000000
_cell_angle_gamma   90.00000000
_symmetry_Int_Tables_number   1
_chemical_formula_structural   La
_chemical_formula_sum   La36
_cell_volume   2664.59314829
_cell_formula_units_Z   36
loop_
 _symmetry_equiv_pos_site_id
 _symmetry_equiv_pos_as_xyz
  1  'x, y, z'
loop_
 _atom_site_type_symbol
 _atom_site_label
 _atom_site_symmetry_multiplicity
 _atom_site_fract_x
 _atom_site_fract_y
 _atom_site_fract_z
 _atom_site_occupancy
  La  La0  1  0.00767500  0.66902600  0.08184000  1.0
  La  La1  1  0.98613800  0.31652700  0.03684000  1.0
  La  La2  1  0.99939100  0.99700600  0.14463000  1.0
  La  La3  1  0.49232500  0.66902600  0.08184000  1.0
  La  La4  1  0.51386200  0.31652700  0.03684000  1.0
  La  La5  1  0.50060900  0.99700600  0.14463000  1.0
  La  La6  1  0.25000000  0.77553400  0.16207000  1.0
  La  La7  1  0.25000000  0.43004200  0.09856400  1.0
  La  La8  1  0.25000000  0.07674800  0.05100100  1.0
  La  La9  1  0.75000000  0.55399200  0.02106700  1.0
  La  La10  1  0.75000000  0.20971800  0.12783700  1.0
  La  La11  1  0.75000000  0.89570700  0.06438700  1.0
  La  La12  1  0.00000000  0.66666667  0.25000000  1.0
  La  La13  1  0.99882200  0.33766200  0.19179200  1.0
  La  La14  1  0.00117800  0.99567100  0.30820800  1.0
  La  La15  1  0.50000000  0.66666667  0.25000000  1.0
  La  La16  1  0.50117800  0.33766200  0.19179200  1.0
  La  La17  1  0.49882200  0.99567100  0.30820800  1.0
  La  La18  1  0.25000000  0.76497800  0.32830600  1.0
  La  La19  1  0.25000000  0.43966200  0.26509800  1.0
  La  La20  1  0.25000000  0.10274600  0.20967600  1.0
  La  La21  1  0.75000000  0.56835600  0.17169400  1.0
  La  La22  1  0.75000000  0.23058700  0.29032400  1.0
  La  La23  1  0.75000000  0.89367100  0.23490300  1.0
  La  La24  1  0.99232500  0.66430800  0.41816000  1.0
  La  La25  1  0.00060900  0.33632700  0.35537000  1.0
  La  La26  1  0.01386200  0.01680600  0.46316000  1.0
  La  La27  1  0.50767500  0.66430800  0.41816000  1.0
  La  La28  1  0.49939100  0.33632700  0.35537000  1.0
  La  La29  1  0.48613800  0.01680600  0.46316000  1.0
  La  La30  1  0.25000000  0.77934200  0.47893300  1.0
  La  La31  1  0.25000000  0.43762600  0.43561300  1.0
  La  La32  1  0.25000000  0.12361500  0.37216300  1.0
  La  La33  1  0.75000000  0.55780000  0.33793000  1.0
  La  La34  1  0.75000000  0.25658500  0.44899900  1.0
  La  La35  1  0.75000000  0.90329100  0.40143600  1.0
