# generated using pymatgen
data_La
_symmetry_space_group_name_H-M   'P 1'
_cell_length_a   6.52266700
_cell_length_b   12.65777218
_cell_length_c   22.53312500
_cell_angle_alpha   98.53122947
_cell_angle_beta   90.00000000
_cell_angle_gamma   75.06906127
_symmetry_Int_Tables_number   1
_chemical_formula_structural   La
_chemical_formula_sum   La24
_cell_volume   1776.26475306
_cell_formula_units_Z   24
loop_
 _symmetry_equiv_pos_site_id
 _symmetry_equiv_pos_as_xyz
  1  'x, y, z'
loop_
 _atom_site_type_symbol
 _atom_site_label
 _atom_site_symmetry_multiplicity
 _atom_site_fract_x
 _atom_site_fract_y
 _atom_site_fract_z
 _atom_site_occupancy
  La  La0  1  0.97406000  0.04855800  0.01656600  1.0
  La  La1  1  0.50539200  0.99447600  0.08335700  1.0
  La  La2  1  0.75934100  0.48387800  0.04827200  1.0
  La  La3  1  0.25788300  0.50037300  0.12692600  1.0
  La  La4  1  0.46950700  0.74783700  0.14485400  1.0
  La  La5  1  0.99829500  0.75439800  0.05966500  1.0
  La  La6  1  0.04574500  0.25528600  0.11567300  1.0
  La  La7  1  0.46875300  0.25422700  0.02193200  1.0
  La  La8  1  0.01021600  0.99550900  0.16971000  1.0
  La  La9  1  0.50808800  0.99780400  0.24845600  1.0
  La  La10  1  0.75724300  0.49965300  0.21136900  1.0
  La  La11  1  0.25459600  0.49886600  0.28956300  1.0
  La  La12  1  0.47278100  0.74993100  0.31377100  1.0
  La  La13  1  0.97114500  0.74990200  0.22504700  1.0
  La  La14  1  0.03091300  0.24913100  0.27795500  1.0
  La  La15  1  0.54055700  0.24516500  0.18051400  1.0
  La  La16  1  0.01087300  0.99739200  0.33418900  1.0
  La  La17  1  0.50813700  0.00721900  0.41238900  1.0
  La  La18  1  0.75569500  0.49697300  0.36981800  1.0
  La  La19  1  0.24547100  0.49610200  0.44889600  1.0
  La  La20  1  0.47042400  0.73546200  0.46830100  1.0
  La  La21  1  0.95222000  0.74455400  0.39360000  1.0
  La  La22  1  0.99138700  0.25030200  0.43906000  1.0
  La  La23  1  0.54127600  0.24700200  0.35011800  1.0
