# generated using pymatgen
data_La
_symmetry_space_group_name_H-M   'P 1'
_cell_length_a   9.94830747
_cell_length_b   12.65357754
_cell_length_c   22.54915500
_cell_angle_alpha   81.45980412
_cell_angle_beta   79.11221459
_cell_angle_gamma   73.68865194
_symmetry_Int_Tables_number   1
_chemical_formula_structural   La
_chemical_formula_sum   La36
_cell_volume   2661.47827567
_cell_formula_units_Z   36
loop_
 _symmetry_equiv_pos_site_id
 _symmetry_equiv_pos_as_xyz
  1  'x, y, z'
loop_
 _atom_site_type_symbol
 _atom_site_label
 _atom_site_symmetry_multiplicity
 _atom_site_fract_x
 _atom_site_fract_y
 _atom_site_fract_z
 _atom_site_occupancy
  La  La0  1  0.03262600  0.00673100  0.98472200  1.0
  La  La1  1  0.66369700  0.00323700  0.93814800  1.0
  La  La2  1  0.34143800  0.99740800  0.88336100  1.0
  La  La3  1  0.83627600  0.51517000  0.96464600  1.0
  La  La4  1  0.50159300  0.49427300  0.91916400  1.0
  La  La5  1  0.16437700  0.50014200  0.85643900  1.0
  La  La6  1  0.85998800  0.75493700  0.86632300  1.0
  La  La7  1  0.50454100  0.75622600  0.97410800  1.0
  La  La8  1  0.19783700  0.75247100  0.91764400  1.0
  La  La9  1  0.81297300  0.24992200  0.91576100  1.0
  La  La10  1  0.47187800  0.24953300  0.85104600  1.0
  La  La11  1  0.16875700  0.24921000  0.96364500  1.0
  La  La12  1  0.00293200  0.99889100  0.83167500  1.0
  La  La13  1  0.67340100  0.99671500  0.77491700  1.0
  La  La14  1  0.33728100  0.00445800  0.72364700  1.0
  La  La15  1  0.82972200  0.49802900  0.80917700  1.0
  La  La16  1  0.49881300  0.49960200  0.75159100  1.0
  La  La17  1  0.16848100  0.50332400  0.69315200  1.0
  La  La18  1  0.85394200  0.74716300  0.69697900  1.0
  La  La19  1  0.52110500  0.74708100  0.81456600  1.0
  La  La20  1  0.18591900  0.75189300  0.75038100  1.0
  La  La21  1  0.80991100  0.24716800  0.74788200  1.0
  La  La22  1  0.48490300  0.25201900  0.68462900  1.0
  La  La23  1  0.14349000  0.24969000  0.80493400  1.0
  La  La24  1  0.00269500  0.99816300  0.66533000  1.0
  La  La25  1  0.67159800  0.99579000  0.61327600  1.0
  La  La26  1  0.33945300  0.00419100  0.56304300  1.0
  La  La27  1  0.82851200  0.49560800  0.64728600  1.0
  La  La28  1  0.49915400  0.51211400  0.58148900  1.0
  La  La29  1  0.15310900  0.48544100  0.53975400  1.0
  La  La30  1  0.82739500  0.72672900  0.53880100  1.0
  La  La31  1  0.52190100  0.75163300  0.64875100  1.0
  La  La32  1  0.17565300  0.74883700  0.58333100  1.0
  La  La33  1  0.80874500  0.25894300  0.57657600  1.0
  La  La34  1  0.47384200  0.25071800  0.53309200  1.0
  La  La35  1  0.13206100  0.24654000  0.64073400  1.0
