# generated using pymatgen
data_Au
_symmetry_space_group_name_H-M   'P 1'
_cell_length_a   2.95808930
_cell_length_b   7.24408300
_cell_length_c   20.35204828
_cell_angle_alpha   90.14377855
_cell_angle_beta   90.00000000
_cell_angle_gamma   90.00000000
_symmetry_Int_Tables_number   1
_chemical_formula_structural   Au
_chemical_formula_sum   Au12
_cell_volume   436.11543248
_cell_formula_units_Z   12
loop_
 _symmetry_equiv_pos_site_id
 _symmetry_equiv_pos_as_xyz
  1  'x, y, z'
loop_
 _atom_site_type_symbol
 _atom_site_label
 _atom_site_symmetry_multiplicity
 _atom_site_fract_x
 _atom_site_fract_y
 _atom_site_fract_z
 _atom_site_occupancy
  Au  Au0  1  0.00000000  0.97320300  0.00903400  1.0
  Au  Au1  1  0.00000000  0.32794000  0.07620900  1.0
  Au  Au2  1  0.00000000  0.66478600  0.16627300  1.0
  Au  Au3  1  0.00000000  0.99691600  0.25105800  1.0
  Au  Au4  1  0.00000000  0.32650700  0.33014300  1.0
  Au  Au5  1  0.00000000  0.68534700  0.41826500  1.0
  Au  Au6  1  0.50000000  0.00677000  0.12817000  1.0
  Au  Au7  1  0.50000000  0.33642500  0.20728100  1.0
  Au  Au8  1  0.50000000  0.66853600  0.29205100  1.0
  Au  Au9  1  0.50000000  0.00539600  0.38215000  1.0
  Au  Au10  1  0.50000000  0.36013700  0.44929100  1.0
  Au  Au11  1  0.50000000  0.64803600  0.04007500  1.0
