# generated using pymatgen
data_La
_symmetry_space_group_name_H-M   'P 1'
_cell_length_a   6.51839500
_cell_length_b   24.45483472
_cell_length_c   22.54303000
_cell_angle_alpha   94.40572154
_cell_angle_beta   90.00000000
_cell_angle_gamma   82.34116656
_symmetry_Int_Tables_number   1
_chemical_formula_structural   La
_chemical_formula_sum   La48
_cell_volume   3550.72917560
_cell_formula_units_Z   48
loop_
 _symmetry_equiv_pos_site_id
 _symmetry_equiv_pos_as_xyz
  1  'x, y, z'
loop_
 _atom_site_type_symbol
 _atom_site_label
 _atom_site_symmetry_multiplicity
 _atom_site_fract_x
 _atom_site_fract_y
 _atom_site_fract_z
 _atom_site_occupancy
  La  La0  1  0.75091100  0.49889500  0.04792600  1.0
  La  La1  1  0.98624000  0.02559200  0.01435800  1.0
  La  La2  1  0.50390200  0.99940400  0.08477200  1.0
  La  La3  1  0.25222500  0.49897400  0.12655400  1.0
  La  La4  1  0.62406000  0.74664100  0.06702600  1.0
  La  La5  1  0.88289600  0.24580800  0.03071000  1.0
  La  La6  1  0.38545100  0.25083200  0.10915200  1.0
  La  La7  1  0.12465600  0.74951800  0.14512600  1.0
  La  La8  1  0.40438600  0.87465200  0.15491300  1.0
  La  La9  1  0.65398900  0.37474700  0.11898200  1.0
  La  La10  1  0.19450000  0.37393600  0.03056700  1.0
  La  La11  1  0.93517900  0.87843600  0.06936700  1.0
  La  La12  1  0.84974200  0.62395500  0.13804600  1.0
  La  La13  1  0.10700800  0.12905600  0.10666400  1.0
  La  La14  1  0.52988700  0.12948400  0.01254600  1.0
  La  La15  1  0.30992900  0.62313400  0.04962100  1.0
  La  La16  1  0.75024600  0.49956200  0.20994900  1.0
  La  La17  1  0.00615200  0.99901500  0.17002700  1.0
  La  La18  1  0.50564900  0.99963900  0.24863800  1.0
  La  La19  1  0.25060700  0.49936800  0.28962800  1.0
  La  La20  1  0.62481800  0.74920400  0.22853100  1.0
  La  La21  1  0.88126300  0.25077800  0.19337600  1.0
  La  La22  1  0.38109000  0.24913800  0.27061100  1.0
  La  La23  1  0.12324200  0.75024300  0.30946000  1.0
  La  La24  1  0.41103800  0.87500700  0.32332200  1.0
  La  La25  1  0.65823000  0.37552600  0.28732600  1.0
  La  La26  1  0.15963200  0.37496300  0.19249000  1.0
  La  La27  1  0.90863000  0.87456100  0.23476700  1.0
  La  La28  1  0.84284800  0.62413000  0.30551700  1.0
  La  La29  1  0.09072500  0.12562200  0.27004000  1.0
  La  La30  1  0.60114300  0.12392100  0.17158900  1.0
  La  La31  1  0.34036100  0.62435400  0.21173700  1.0
  La  La32  1  0.75206900  0.49970900  0.37203200  1.0
  La  La33  1  0.00864500  0.99862600  0.33543200  1.0
  La  La34  1  0.50897300  0.00400200  0.41237800  1.0
  La  La35  1  0.25083700  0.49919900  0.45106400  1.0
  La  La36  1  0.62763500  0.74775900  0.38886700  1.0
  La  La37  1  0.87635300  0.25056100  0.35400100  1.0
  La  La38  1  0.37413800  0.24926400  0.43185500  1.0
  La  La39  1  0.11702200  0.74751600  0.46919600  1.0
  La  La40  1  0.40513000  0.86704300  0.47849200  1.0
  La  La41  1  0.68982300  0.37532700  0.44952300  1.0
  La  La42  1  0.15226900  0.37450300  0.36079200  1.0
  La  La43  1  0.88926700  0.87148300  0.40394400  1.0
  La  La44  1  0.81364800  0.62303300  0.46734200  1.0
  La  La45  1  0.05131900  0.12600000  0.43115100  1.0
  La  La46  1  0.60237200  0.12442100  0.34146200  1.0
  La  La47  1  0.34986500  0.62345700  0.37913400  1.0
