# generated using pymatgen
data_La
_symmetry_space_group_name_H-M   'P 1'
_cell_length_a   3.76695909
_cell_length_b   12.06658900
_cell_length_c   30.13566909
_cell_angle_alpha   90.00000000
_cell_angle_beta   119.99998439
_cell_angle_gamma   90.00000000
_symmetry_Int_Tables_number   1
_chemical_formula_structural   La
_chemical_formula_sum   La16
_cell_volume   1186.27932820
_cell_formula_units_Z   16
loop_
 _symmetry_equiv_pos_site_id
 _symmetry_equiv_pos_as_xyz
  1  'x, y, z'
loop_
 _atom_site_type_symbol
 _atom_site_label
 _atom_site_symmetry_multiplicity
 _atom_site_fract_x
 _atom_site_fract_y
 _atom_site_fract_z
 _atom_site_occupancy
  La  La0  1  0.01623700  0.99876500  0.06655900  1.0
  La  La1  1  0.01623700  0.50123500  0.06655900  1.0
  La  La2  1  0.36099800  0.75000000  0.02774900  1.0
  La  La3  1  0.68800100  0.25000000  0.10950100  1.0
  La  La4  1  0.99208800  0.99841000  0.18552200  1.0
  La  La5  1  0.99208800  0.50159000  0.18552200  1.0
  La  La6  1  0.33797300  0.75000000  0.14699300  1.0
  La  La7  1  0.66399800  0.25000000  0.22850000  1.0
  La  La8  1  0.00791200  0.00159000  0.31447800  1.0
  La  La9  1  0.00791200  0.49841000  0.31447800  1.0
  La  La10  1  0.33600200  0.75000000  0.27150000  1.0
  La  La11  1  0.66202700  0.25000000  0.35300700  1.0
  La  La12  1  0.98376300  0.00123600  0.43344100  1.0
  La  La13  1  0.98376300  0.49876400  0.43344100  1.0
  La  La14  1  0.31199900  0.75000000  0.39049900  1.0
  La  La15  1  0.63900200  0.25000000  0.47225100  1.0
