# generated using pymatgen
data_La
_symmetry_space_group_name_H-M   'P 1'
_cell_length_a   9.95256381
_cell_length_b   12.65689988
_cell_length_c   22.54498300
_cell_angle_alpha   98.53634441
_cell_angle_beta   79.11896780
_cell_angle_gamma   76.98738068
_symmetry_Int_Tables_number   1
_chemical_formula_structural   La
_chemical_formula_sum   La36
_cell_volume   2662.62606800
_cell_formula_units_Z   36
loop_
 _symmetry_equiv_pos_site_id
 _symmetry_equiv_pos_as_xyz
  1  'x, y, z'
loop_
 _atom_site_type_symbol
 _atom_site_label
 _atom_site_symmetry_multiplicity
 _atom_site_fract_x
 _atom_site_fract_y
 _atom_site_fract_z
 _atom_site_occupancy
  La  La0  1  0.97635000  0.00278600  0.01609200  1.0
  La  La1  1  0.33530400  0.00630500  0.06120900  1.0
  La  La2  1  0.65975200  0.99696200  0.11544600  1.0
  La  La3  1  0.82230800  0.49427900  0.05444800  1.0
  La  La4  1  0.17179100  0.50054500  0.11689700  1.0
  La  La5  1  0.48948500  0.52643900  0.01325600  1.0
  La  La6  1  0.65781600  0.75445000  0.01203500  1.0
  La  La7  1  0.96313500  0.75099200  0.07212600  1.0
  La  La8  1  0.30084800  0.75723900  0.11972700  1.0
  La  La9  1  0.02379400  0.24449600  0.10042900  1.0
  La  La10  1  0.35952900  0.25220800  0.16137300  1.0
  La  La11  1  0.66433300  0.25144400  0.04715700  1.0
  La  La12  1  0.99958200  0.99695600  0.16821300  1.0
  La  La13  1  0.32680200  0.99869500  0.22322200  1.0
  La  La14  1  0.66576700  0.99964300  0.27496700  1.0
  La  La15  1  0.83850200  0.49690600  0.21779500  1.0
  La  La16  1  0.16114200  0.50205000  0.28057800  1.0
  La  La17  1  0.49960500  0.49997000  0.16736300  1.0
  La  La18  1  0.64292800  0.74563000  0.17186600  1.0
  La  La19  1  0.97914200  0.74905800  0.23541900  1.0
  La  La20  1  0.30955200  0.74724300  0.29050500  1.0
  La  La21  1  0.01859000  0.25353900  0.26979400  1.0
  La  La22  1  0.35983400  0.24568200  0.32241300  1.0
  La  La23  1  0.69688200  0.24741000  0.20714600  1.0
  La  La24  1  0.99578900  0.00200000  0.33395300  1.0
  La  La25  1  0.33163600  0.99415900  0.38282800  1.0
  La  La26  1  0.65531700  0.99936800  0.43550900  1.0
  La  La27  1  0.82542500  0.51640700  0.39122500  1.0
  La  La28  1  0.16790400  0.49555000  0.43527900  1.0
  La  La29  1  0.50288000  0.49168200  0.33216900  1.0
  La  La30  1  0.64188600  0.74761600  0.33497200  1.0
  La  La31  1  0.98790200  0.75248600  0.40117700  1.0
  La  La32  1  0.35830400  0.73637800  0.44852800  1.0
  La  La33  1  0.03912800  0.25312600  0.43322900  1.0
  La  La34  1  0.36850700  0.24934800  0.47464800  1.0
  La  La35  1  0.70254900  0.24095300  0.37700600  1.0
