# generated using pymatgen
data_La
_symmetry_space_group_name_H-M   'P 1'
_cell_length_a   3.75721830
_cell_length_b   24.45659195
_cell_length_c   26.07419986
_cell_angle_alpha   97.65846562
_cell_angle_beta   89.99998264
_cell_angle_gamma   85.59454347
_symmetry_Int_Tables_number   1
_chemical_formula_structural   La
_chemical_formula_sum   La32
_cell_volume   2367.41144869
_cell_formula_units_Z   32
loop_
 _symmetry_equiv_pos_site_id
 _symmetry_equiv_pos_as_xyz
  1  'x, y, z'
loop_
 _atom_site_type_symbol
 _atom_site_label
 _atom_site_symmetry_multiplicity
 _atom_site_fract_x
 _atom_site_fract_y
 _atom_site_fract_z
 _atom_site_occupancy
  La  La0  1  0.99678100  0.00643800  0.01283300  1.0
  La  La1  1  0.75013900  0.49972200  0.06719600  1.0
  La  La2  1  0.50090600  0.99818700  0.12718000  1.0
  La  La3  1  0.25096800  0.49806300  0.18511800  1.0
  La  La4  1  0.87393800  0.25212400  0.03674500  1.0
  La  La5  1  0.62532700  0.74934700  0.09674800  1.0
  La  La6  1  0.37398500  0.25203000  0.15481900  1.0
  La  La7  1  0.12525800  0.74948300  0.21711200  1.0
  La  La8  1  0.81239000  0.37521900  0.13235600  1.0
  La  La9  1  0.56317900  0.87364100  0.19026800  1.0
  La  La10  1  0.31192000  0.37615900  0.01269000  1.0
  La  La11  1  0.06094100  0.87811900  0.06876000  1.0
  La  La12  1  0.43726500  0.12547000  0.06024200  1.0
  La  La13  1  0.18750700  0.62498700  0.12408100  1.0
  La  La14  1  0.93769900  0.12460200  0.17898900  1.0
  La  La15  1  0.68762500  0.62474900  0.24353300  1.0
  La  La16  1  0.00025600  0.99948700  0.25057700  1.0
  La  La17  1  0.74963100  0.50073700  0.31494200  1.0
  La  La18  1  0.50015300  0.99969500  0.37099100  1.0
  La  La19  1  0.24979800  0.50040500  0.43355200  1.0
  La  La20  1  0.87635800  0.24728400  0.28276900  1.0
  La  La21  1  0.62512600  0.74974800  0.34516200  1.0
  La  La22  1  0.37565800  0.24868400  0.40264600  1.0
  La  La23  1  0.12460200  0.75079600  0.46369100  1.0
  La  La24  1  0.81305700  0.37388600  0.37524300  1.0
  La  La25  1  0.56315600  0.87368700  0.43925500  1.0
  La  La26  1  0.31276000  0.37448000  0.25666400  1.0
  La  La27  1  0.06264900  0.87470300  0.31842300  1.0
  La  La28  1  0.43789900  0.12420200  0.30637800  1.0
  La  La29  1  0.18734500  0.62531000  0.36782300  1.0
  La  La30  1  0.93808000  0.12383900  0.42694900  1.0
  La  La31  1  0.68764300  0.62471500  0.48626400  1.0
