# generated using pymatgen
data_Ir
_symmetry_space_group_name_H-M   'P 1'
_cell_length_a   2.74121399
_cell_length_b   3.87706400
_cell_length_c   21.92970908
_cell_angle_alpha   90.00000000
_cell_angle_beta   90.00000000
_cell_angle_gamma   90.00000000
_symmetry_Int_Tables_number   1
_chemical_formula_structural   Ir
_chemical_formula_sum   Ir8
_cell_volume   233.06592349
_cell_formula_units_Z   8
loop_
 _symmetry_equiv_pos_site_id
 _symmetry_equiv_pos_as_xyz
  1  'x, y, z'
loop_
 _atom_site_type_symbol
 _atom_site_label
 _atom_site_symmetry_multiplicity
 _atom_site_fract_x
 _atom_site_fract_y
 _atom_site_fract_z
 _atom_site_occupancy
  Ir  Ir0  1  0.00000000  0.00000000  0.87370000  1.0
  Ir  Ir1  1  0.00000000  0.00000000  0.99345200  1.0
  Ir  Ir2  1  0.50000000  0.50000000  0.94029300  1.0
  Ir  Ir3  1  0.50000000  0.50000000  0.81118300  1.0
  Ir  Ir4  1  0.00000000  0.00000000  0.62220700  1.0
  Ir  Ir5  1  0.00000000  0.00000000  0.75131700  1.0
  Ir  Ir6  1  0.50000000  0.50000000  0.68880000  1.0
  Ir  Ir7  1  0.50000000  0.50000000  0.56904800  1.0
