# generated using pymatgen
data_Ir
_symmetry_space_group_name_H-M   'P 1'
_cell_length_a   2.74130591
_cell_length_b   6.71474818
_cell_length_c   37.98418277
_cell_angle_alpha   89.99517184
_cell_angle_beta   90.00000000
_cell_angle_gamma   90.00000000
_symmetry_Int_Tables_number   1
_chemical_formula_structural   Ir
_chemical_formula_sum   Ir24
_cell_volume   699.18164400
_cell_formula_units_Z   24
loop_
 _symmetry_equiv_pos_site_id
 _symmetry_equiv_pos_as_xyz
  1  'x, y, z'
loop_
 _atom_site_type_symbol
 _atom_site_label
 _atom_site_symmetry_multiplicity
 _atom_site_fract_x
 _atom_site_fract_y
 _atom_site_fract_z
 _atom_site_occupancy
  Ir  Ir0  1  0.00000000  0.98686700  0.00403400  1.0
  Ir  Ir1  1  0.00000000  0.33595600  0.03999100  1.0
  Ir  Ir2  1  0.00000000  0.66461300  0.08436900  1.0
  Ir  Ir3  1  0.00000000  0.00195600  0.12489600  1.0
  Ir  Ir4  1  0.00000000  0.33327900  0.16625900  1.0
  Ir  Ir5  1  0.00000000  0.66690200  0.20831200  1.0
  Ir  Ir6  1  0.50000000  0.00358300  0.06320200  1.0
  Ir  Ir7  1  0.50000000  0.33345900  0.10361400  1.0
  Ir  Ir8  1  0.50000000  0.66804100  0.14586400  1.0
  Ir  Ir9  1  0.50000000  0.99954100  0.18781300  1.0
  Ir  Ir10  1  0.50000000  0.33333333  0.22873200  1.0
  Ir  Ir11  1  0.50000000  0.66625200  0.02307400  1.0
  Ir  Ir12  1  0.00000000  0.00000200  0.25043500  1.0
  Ir  Ir13  1  0.00000000  0.33379300  0.29135400  1.0
  Ir  Ir14  1  0.00000000  0.66529100  0.33333333  1.0
  Ir  Ir15  1  0.00000000  0.99987500  0.37555300  1.0
  Ir  Ir16  1  0.00000000  0.32975100  0.41596500  1.0
  Ir  Ir17  1  0.00000000  0.66708000  0.45609200  1.0
  Ir  Ir18  1  0.50000000  0.00005500  0.31290800  1.0
  Ir  Ir19  1  0.50000000  0.33137800  0.35427100  1.0
  Ir  Ir20  1  0.50000000  0.66871900  0.39479700  1.0
  Ir  Ir21  1  0.50000000  0.99737800  0.43917600  1.0
  Ir  Ir22  1  0.50000000  0.34646700  0.47513300  1.0
  Ir  Ir23  1  0.50000000  0.66643000  0.27085400  1.0
