# generated using pymatgen
data_Ir
_symmetry_space_group_name_H-M   'P 1'
_cell_length_a   2.74131400
_cell_length_b   2.74131438
_cell_length_c   40.28892900
_cell_angle_alpha   90.00000000
_cell_angle_beta   90.00000000
_cell_angle_gamma   119.99999544
_symmetry_Int_Tables_number   1
_chemical_formula_structural   Ir
_chemical_formula_sum   Ir9
_cell_volume   262.20079409
_cell_formula_units_Z   9
loop_
 _symmetry_equiv_pos_site_id
 _symmetry_equiv_pos_as_xyz
  1  'x, y, z'
loop_
 _atom_site_type_symbol
 _atom_site_label
 _atom_site_symmetry_multiplicity
 _atom_site_fract_x
 _atom_site_fract_y
 _atom_site_fract_z
 _atom_site_occupancy
  Ir  Ir0  1  0.66666667  0.33333333  0.33348400  1.0
  Ir  Ir1  1  0.33333333  0.66666667  0.27910500  1.0
  Ir  Ir2  1  0.00000000  0.00000000  0.38876900  1.0
  Ir  Ir3  1  0.66666667  0.33333333  0.50000000  1.0
  Ir  Ir4  1  0.33333333  0.66666667  0.44445700  1.0
  Ir  Ir5  1  0.00000000  0.00000000  0.55554300  1.0
  Ir  Ir6  1  0.66666667  0.33333333  0.66651600  1.0
  Ir  Ir7  1  0.33333333  0.66666667  0.61123100  1.0
  Ir  Ir8  1  0.00000000  0.00000000  0.72089500  1.0
