# generated using pymatgen
data_Au
_symmetry_space_group_name_H-M   'P 1'
_cell_length_a   2.95047800
_cell_length_b   2.95047809
_cell_length_c   43.36299000
_cell_angle_alpha   90.00000000
_cell_angle_beta   90.00000000
_cell_angle_gamma   119.99999904
_symmetry_Int_Tables_number   1
_chemical_formula_structural   Au
_chemical_formula_sum   Au9
_cell_volume   326.91483662
_cell_formula_units_Z   9
loop_
 _symmetry_equiv_pos_site_id
 _symmetry_equiv_pos_as_xyz
  1  'x, y, z'
loop_
 _atom_site_type_symbol
 _atom_site_label
 _atom_site_symmetry_multiplicity
 _atom_site_fract_x
 _atom_site_fract_y
 _atom_site_fract_z
 _atom_site_occupancy
  Au  Au0  1  0.66666667  0.33333333  0.33353900  1.0
  Au  Au1  1  0.33333333  0.66666667  0.27755800  1.0
  Au  Au2  1  0.00000000  0.00000000  0.38876700  1.0
  Au  Au3  1  0.66666667  0.33333333  0.50000000  1.0
  Au  Au4  1  0.33333333  0.66666667  0.44445400  1.0
  Au  Au5  1  0.00000000  0.00000000  0.55554600  1.0
  Au  Au6  1  0.66666667  0.33333333  0.66646100  1.0
  Au  Au7  1  0.33333333  0.66666667  0.61123300  1.0
  Au  Au8  1  0.00000000  0.00000000  0.72244200  1.0
