# generated using pymatgen
data_Ir
_symmetry_space_group_name_H-M   'P 1'
_cell_length_a   2.74121540
_cell_length_b   12.85852929
_cell_length_c   40.10038386
_cell_angle_alpha   98.37730424
_cell_angle_beta   90.00000000
_cell_angle_gamma   90.00000000
_symmetry_Int_Tables_number   1
_chemical_formula_structural   Ir
_chemical_formula_sum   Ir48
_cell_volume   1398.37684207
_cell_formula_units_Z   48
loop_
 _symmetry_equiv_pos_site_id
 _symmetry_equiv_pos_as_xyz
  1  'x, y, z'
loop_
 _atom_site_type_symbol
 _atom_site_label
 _atom_site_symmetry_multiplicity
 _atom_site_fract_x
 _atom_site_fract_y
 _atom_site_fract_z
 _atom_site_occupancy
  Ir  Ir0  1  0.00000000  0.11084300  0.73261700  1.0
  Ir  Ir1  1  0.00000000  0.94238100  0.56814800  1.0
  Ir  Ir2  1  0.00000000  0.77568700  0.40071300  1.0
  Ir  Ir3  1  0.00000000  0.81349100  0.69529900  1.0
  Ir  Ir4  1  0.00000000  0.65101200  0.52603500  1.0
  Ir  Ir5  1  0.00000000  0.48309100  0.35878400  1.0
  Ir  Ir6  1  0.00000000  0.46211000  0.71242900  1.0
  Ir  Ir7  1  0.00000000  0.29616100  0.54686500  1.0
  Ir  Ir8  1  0.00000000  0.13018800  0.37959600  1.0
  Ir  Ir9  1  0.00000000  0.17315900  0.67124800  1.0
  Ir  Ir10  1  0.00000000  0.00481900  0.50554800  1.0
  Ir  Ir11  1  0.00000000  0.83856500  0.33855300  1.0
  Ir  Ir12  1  0.00000000  0.87991900  0.63065000  1.0
  Ir  Ir13  1  0.00000000  0.71385900  0.46347700  1.0
  Ir  Ir14  1  0.00000000  0.55115200  0.29777500  1.0
  Ir  Ir15  1  0.00000000  0.24740000  0.25810200  1.0
  Ir  Ir16  1  0.00000000  0.58788900  0.58860100  1.0
  Ir  Ir17  1  0.00000000  0.42315600  0.42147600  1.0
  Ir  Ir18  1  0.00000000  0.52609600  0.65090900  1.0
  Ir  Ir19  1  0.00000000  0.35978900  0.48427600  1.0
  Ir  Ir20  1  0.00000000  0.19309100  0.31826600  1.0
  Ir  Ir21  1  0.00000000  0.23468500  0.60940900  1.0
  Ir  Ir22  1  0.00000000  0.06790800  0.44275100  1.0
  Ir  Ir23  1  0.00000000  0.90252700  0.27730300  1.0
  Ir  Ir24  1  0.50000000  0.99440900  0.68173400  1.0
  Ir  Ir25  1  0.50000000  0.82771100  0.51572400  1.0
  Ir  Ir26  1  0.50000000  0.66140400  0.34909100  1.0
  Ir  Ir27  1  0.50000000  0.70440900  0.64121600  1.0
  Ir  Ir28  1  0.50000000  0.53648800  0.47396500  1.0
  Ir  Ir29  1  0.50000000  0.37400900  0.30470100  1.0
  Ir  Ir30  1  0.50000000  0.34893500  0.66144700  1.0
  Ir  Ir31  1  0.50000000  0.18268100  0.49445200  1.0
  Ir  Ir32  1  0.50000000  0.01434100  0.32875200  1.0
  Ir  Ir33  1  0.50000000  0.05731200  0.62040400  1.0
  Ir  Ir34  1  0.50000000  0.89133900  0.45313500  1.0
  Ir  Ir35  1  0.50000000  0.72539000  0.28757100  1.0
  Ir  Ir36  1  0.50000000  0.94010000  0.74189800  1.0
  Ir  Ir37  1  0.50000000  0.76434400  0.57852400  1.0
  Ir  Ir38  1  0.50000000  0.59961100  0.41139900  1.0
  Ir  Ir39  1  0.50000000  0.63634800  0.70222500  1.0
  Ir  Ir40  1  0.50000000  0.47364100  0.53652300  1.0
  Ir  Ir41  1  0.50000000  0.30758100  0.36935000  1.0
  Ir  Ir42  1  0.50000000  0.41181300  0.59928700  1.0
  Ir  Ir43  1  0.50000000  0.24511900  0.43185200  1.0
  Ir  Ir44  1  0.50000000  0.07665700  0.26738300  1.0
  Ir  Ir45  1  0.50000000  0.28497300  0.72269700  1.0
  Ir  Ir46  1  0.50000000  0.11959200  0.55724900  1.0
  Ir  Ir47  1  0.50000000  0.95281500  0.39059100  1.0
