# generated using pymatgen
data_Ir
_symmetry_space_group_name_H-M   'P 1'
_cell_length_a   2.74132571
_cell_length_b   11.30295040
_cell_length_c   22.60466532
_cell_angle_alpha   93.36794789
_cell_angle_beta   90.00000000
_cell_angle_gamma   90.00000000
_symmetry_Int_Tables_number   1
_chemical_formula_structural   Ir
_chemical_formula_sum   Ir24
_cell_volume   699.19739493
_cell_formula_units_Z   24
loop_
 _symmetry_equiv_pos_site_id
 _symmetry_equiv_pos_as_xyz
  1  'x, y, z'
loop_
 _atom_site_type_symbol
 _atom_site_label
 _atom_site_symmetry_multiplicity
 _atom_site_fract_x
 _atom_site_fract_y
 _atom_site_fract_z
 _atom_site_occupancy
  Ir  Ir0  1  0.00000000  0.72552200  0.36541100  1.0
  Ir  Ir1  1  0.00000000  0.31191900  0.32545700  1.0
  Ir  Ir2  1  0.00000000  0.89634600  0.28422100  1.0
  Ir  Ir3  1  0.50000000  0.51765100  0.34145500  1.0
  Ir  Ir4  1  0.50000000  0.10253400  0.30434200  1.0
  Ir  Ir5  1  0.50000000  0.69699800  0.26583800  1.0
  Ir  Ir6  1  0.00000000  0.97987400  0.48956800  1.0
  Ir  Ir7  1  0.00000000  0.56252400  0.44772500  1.0
  Ir  Ir8  1  0.00000000  0.14635400  0.40644500  1.0
  Ir  Ir9  1  0.50000000  0.77161700  0.46865400  1.0
  Ir  Ir10  1  0.50000000  0.35472400  0.42741000  1.0
  Ir  Ir11  1  0.50000000  0.93849800  0.38642900  1.0
  Ir  Ir12  1  0.00000000  0.22816900  0.61357300  1.0
  Ir  Ir13  1  0.00000000  0.81194300  0.57258800  1.0
  Ir  Ir14  1  0.00000000  0.39505200  0.53134400  1.0
  Ir  Ir15  1  0.50000000  0.02031200  0.59355500  1.0
  Ir  Ir16  1  0.50000000  0.60414800  0.55226700  1.0
  Ir  Ir17  1  0.50000000  0.18679600  0.51043600  1.0
  Ir  Ir18  1  0.00000000  0.46966000  0.73415700  1.0
  Ir  Ir19  1  0.00000000  0.06412700  0.69566300  1.0
  Ir  Ir20  1  0.00000000  0.64901100  0.65854600  1.0
  Ir  Ir21  1  0.50000000  0.27033400  0.71578400  1.0
  Ir  Ir22  1  0.50000000  0.85473400  0.67454300  1.0
  Ir  Ir23  1  0.50000000  0.44115200  0.63459000  1.0
