# generated using pymatgen
data_Ir
_symmetry_space_group_name_H-M   'P 1'
_cell_length_a   2.74118429
_cell_length_b   4.74798845
_cell_length_c   28.09215562
_cell_angle_alpha   88.39216162
_cell_angle_beta   87.20347791
_cell_angle_gamma   73.22177442
_symmetry_Int_Tables_number   1
_chemical_formula_structural   Ir
_chemical_formula_sum   Ir15
_cell_volume   349.60349745
_cell_formula_units_Z   15
loop_
 _symmetry_equiv_pos_site_id
 _symmetry_equiv_pos_as_xyz
  1  'x, y, z'
loop_
 _atom_site_type_symbol
 _atom_site_label
 _atom_site_symmetry_multiplicity
 _atom_site_fract_x
 _atom_site_fract_y
 _atom_site_fract_z
 _atom_site_occupancy
  Ir  Ir0  1  0.28680100  0.13365600  0.29274200  1.0
  Ir  Ir1  1  0.87651900  0.03262200  0.21433900  1.0
  Ir  Ir2  1  0.58668800  0.57993400  0.24668800  1.0
  Ir  Ir3  1  0.41645400  0.75107700  0.41601600  1.0
  Ir  Ir4  1  0.99921200  0.66865000  0.33292600  1.0
  Ir  Ir5  1  0.70776000  0.20982300  0.37465700  1.0
  Ir  Ir6  1  0.54188400  0.37464200  0.54159000  1.0
  Ir  Ir7  1  0.12478300  0.29202500  0.45841000  1.0
  Ir  Ir8  1  0.83333300  0.83333300  0.50000000  1.0
  Ir  Ir9  1  0.66745500  0.99801700  0.66707400  1.0
  Ir  Ir10  1  0.25021300  0.91559000  0.58398400  1.0
  Ir  Ir11  1  0.95890600  0.45684300  0.62534300  1.0
  Ir  Ir12  1  0.79014800  0.63404500  0.78566100  1.0
  Ir  Ir13  1  0.37986600  0.53301100  0.70725800  1.0
  Ir  Ir14  1  0.07997800  0.08673200  0.75331200  1.0
