# generated using pymatgen
data_Ca
_symmetry_space_group_name_H-M   'P 1'
_cell_length_a   3.90826969
_cell_length_b   5.52712800
_cell_length_c   31.26615751
_cell_angle_alpha   90.00000000
_cell_angle_beta   90.00000000
_cell_angle_gamma   90.00000000
_symmetry_Int_Tables_number   1
_chemical_formula_structural   Ca
_chemical_formula_sum   Ca8
_cell_volume   675.39611516
_cell_formula_units_Z   8
loop_
 _symmetry_equiv_pos_site_id
 _symmetry_equiv_pos_as_xyz
  1  'x, y, z'
loop_
 _atom_site_type_symbol
 _atom_site_label
 _atom_site_symmetry_multiplicity
 _atom_site_fract_x
 _atom_site_fract_y
 _atom_site_fract_z
 _atom_site_occupancy
  Ca  Ca0  1  0.00000000  0.00000000  0.87586900  1.0
  Ca  Ca1  1  0.00000000  0.00000000  0.99873400  1.0
  Ca  Ca2  1  0.50000000  0.50000000  0.93734700  1.0
  Ca  Ca3  1  0.50000000  0.50000000  0.81258100  1.0
  Ca  Ca4  1  0.00000000  0.00000000  0.62515300  1.0
  Ca  Ca5  1  0.00000000  0.00000000  0.74991900  1.0
  Ca  Ca6  1  0.50000000  0.50000000  0.68663100  1.0
  Ca  Ca7  1  0.50000000  0.50000000  0.56376600  1.0
