# generated using pymatgen
data_Au
_symmetry_space_group_name_H-M   'P 1'
_cell_length_a   2.96787424
_cell_length_b   13.72582066
_cell_length_c   43.27496615
_cell_angle_alpha   98.56707245
_cell_angle_beta   90.00000000
_cell_angle_gamma   90.00000000
_symmetry_Int_Tables_number   1
_chemical_formula_structural   Au
_chemical_formula_sum   Au48
_cell_volume   1743.20122982
_cell_formula_units_Z   48
loop_
 _symmetry_equiv_pos_site_id
 _symmetry_equiv_pos_as_xyz
  1  'x, y, z'
loop_
 _atom_site_type_symbol
 _atom_site_label
 _atom_site_symmetry_multiplicity
 _atom_site_fract_x
 _atom_site_fract_y
 _atom_site_fract_z
 _atom_site_occupancy
  Au  Au0  1  0.00000000  0.11950100  0.73497100  1.0
  Au  Au1  1  0.00000000  0.94265700  0.56747700  1.0
  Au  Au2  1  0.00000000  0.77557000  0.40114200  1.0
  Au  Au3  1  0.00000000  0.80632700  0.69702800  1.0
  Au  Au4  1  0.00000000  0.65109600  0.52610400  1.0
  Au  Au5  1  0.00000000  0.48263100  0.35802300  1.0
  Au  Au6  1  0.00000000  0.46025400  0.71429300  1.0
  Au  Au7  1  0.00000000  0.29692000  0.54690700  1.0
  Au  Au8  1  0.00000000  0.13083900  0.38057000  1.0
  Au  Au9  1  0.00000000  0.17109400  0.67144400  1.0
  Au  Au10  1  0.00000000  0.00525000  0.50511000  1.0
  Au  Au11  1  0.00000000  0.83903400  0.33901500  1.0
  Au  Au12  1  0.00000000  0.87731300  0.63005100  1.0
  Au  Au13  1  0.00000000  0.71318100  0.46341300  1.0
  Au  Au14  1  0.00000000  0.55684500  0.29572400  1.0
  Au  Au15  1  0.00000000  0.24245100  0.25960600  1.0
  Au  Au16  1  0.00000000  0.59032600  0.58877100  1.0
  Au  Au17  1  0.00000000  0.42153200  0.42190400  1.0
  Au  Au18  1  0.00000000  0.52606200  0.65029300  1.0
  Au  Au19  1  0.00000000  0.35934000  0.48441900  1.0
  Au  Au20  1  0.00000000  0.19642700  0.32012000  1.0
  Au  Au21  1  0.00000000  0.23443700  0.60929000  1.0
  Au  Au22  1  0.00000000  0.06788800  0.44271800  1.0
  Au  Au23  1  0.00000000  0.89821600  0.27567500  1.0
  Au  Au24  1  0.50000000  0.99107300  0.67988000  1.0
  Au  Au25  1  0.50000000  0.82816000  0.51558100  1.0
  Au  Au26  1  0.50000000  0.66143800  0.34970700  1.0
  Au  Au27  1  0.50000000  0.70486900  0.64197700  1.0
  Au  Au28  1  0.50000000  0.53640400  0.47389600  1.0
  Au  Au29  1  0.50000000  0.38117300  0.30297200  1.0
  Au  Au30  1  0.50000000  0.34846600  0.66098500  1.0
  Au  Au31  1  0.50000000  0.18225000  0.49489000  1.0
  Au  Au32  1  0.50000000  0.01640600  0.32855600  1.0
  Au  Au33  1  0.50000000  0.05666100  0.61943000  1.0
  Au  Au34  1  0.50000000  0.89058000  0.45309300  1.0
  Au  Au35  1  0.50000000  0.72724600  0.28570700  1.0
  Au  Au36  1  0.50000000  0.94504900  0.74039400  1.0
  Au  Au37  1  0.50000000  0.76596800  0.57809600  1.0
  Au  Au38  1  0.50000000  0.59717400  0.41122900  1.0
  Au  Au39  1  0.50000000  0.63065500  0.70427600  1.0
  Au  Au40  1  0.50000000  0.47431900  0.53658700  1.0
  Au  Au41  1  0.50000000  0.31018700  0.36994900  1.0
  Au  Au42  1  0.50000000  0.41193000  0.59885800  1.0
  Au  Au43  1  0.50000000  0.24484300  0.43252300  1.0
  Au  Au44  1  0.50000000  0.06799900  0.26502900  1.0
  Au  Au45  1  0.50000000  0.28928400  0.72432500  1.0
  Au  Au46  1  0.50000000  0.11961200  0.55728200  1.0
  Au  Au47  1  0.50000000  0.95306300  0.39071000  1.0
