# generated using pymatgen
data_Ca
_symmetry_space_group_name_H-M   'P 1'
_cell_length_a   5.52712800
_cell_length_b   6.76932167
_cell_length_c   24.71806786
_cell_angle_alpha   90.00000000
_cell_angle_beta   90.00000000
_cell_angle_gamma   114.09484255
_symmetry_Int_Tables_number   1
_chemical_formula_structural   Ca
_chemical_formula_sum   Ca10
_cell_volume   844.24514385
_cell_formula_units_Z   10
loop_
 _symmetry_equiv_pos_site_id
 _symmetry_equiv_pos_as_xyz
  1  'x, y, z'
loop_
 _atom_site_type_symbol
 _atom_site_label
 _atom_site_symmetry_multiplicity
 _atom_site_fract_x
 _atom_site_fract_y
 _atom_site_fract_z
 _atom_site_occupancy
  Ca  Ca0  1  0.59597000  0.19194000  0.39555900  1.0
  Ca  Ca1  1  0.20213300  0.40426600  0.29987800  1.0
  Ca  Ca2  1  0.79991000  0.59982000  0.20072000  1.0
  Ca  Ca3  1  0.39978100  0.79956100  0.09964800  1.0
  Ca  Ca4  1  0.00854800  0.01709700  0.00415100  1.0
  Ca  Ca5  1  0.90021900  0.80043900  0.35035200  1.0
  Ca  Ca6  1  0.50009000  0.00018000  0.24928000  1.0
  Ca  Ca7  1  0.09786700  0.19573400  0.15012200  1.0
  Ca  Ca8  1  0.70403000  0.40806000  0.05444100  1.0
  Ca  Ca9  1  0.29145200  0.58290300  0.44584900  1.0
