# generated using pymatgen
data_Ca
_symmetry_space_group_name_H-M   'P 1'
_cell_length_a   12.35283092
_cell_length_b   12.35283092
_cell_length_c   27.10254842
_cell_angle_alpha   89.99069416
_cell_angle_beta   89.99069416
_cell_angle_gamma   78.52130755
_symmetry_Int_Tables_number   1
_chemical_formula_structural   Ca
_chemical_formula_sum   Ca48
_cell_volume   4052.92575627
_cell_formula_units_Z   48
loop_
 _symmetry_equiv_pos_site_id
 _symmetry_equiv_pos_as_xyz
  1  'x, y, z'
loop_
 _atom_site_type_symbol
 _atom_site_label
 _atom_site_symmetry_multiplicity
 _atom_site_fract_x
 _atom_site_fract_y
 _atom_site_fract_z
 _atom_site_occupancy
  Ca  Ca0  1  0.49539100  0.49074500  0.49216500  1.0
  Ca  Ca1  1  0.41020500  0.91741400  0.08100600  1.0
  Ca  Ca2  1  0.92191600  0.41768200  0.08769500  1.0
  Ca  Ca3  1  0.83123200  0.83184700  0.16560200  1.0
  Ca  Ca4  1  0.00925200  0.00460500  0.00782900  1.0
  Ca  Ca5  1  0.33261400  0.33311000  0.16756100  1.0
  Ca  Ca6  1  0.25088000  0.75052700  0.25063400  1.0
  Ca  Ca7  1  0.74947500  0.24912000  0.24936700  1.0
  Ca  Ca8  1  0.66815000  0.66877100  0.33440100  1.0
  Ca  Ca9  1  0.16688900  0.16738700  0.33243700  1.0
  Ca  Ca10  1  0.08231900  0.57808100  0.41230100  1.0
  Ca  Ca11  1  0.58258700  0.08979600  0.41900000  1.0
  Ca  Ca12  1  0.66741100  0.66020700  0.08100500  1.0
  Ca  Ca13  1  0.58184800  0.08123100  0.16560300  1.0
  Ca  Ca14  1  0.08311200  0.58261300  0.16756100  1.0
  Ca  Ca15  1  0.99912100  0.99947600  0.24936600  1.0
  Ca  Ca16  1  0.16768200  0.17191700  0.08769500  1.0
  Ca  Ca17  1  0.50052700  0.50088000  0.25063400  1.0
  Ca  Ca18  1  0.41876900  0.91815100  0.33440000  1.0
  Ca  Ca19  1  0.91738600  0.41689000  0.33243700  1.0
  Ca  Ca20  1  0.83979900  0.83258700  0.41900100  1.0
  Ca  Ca21  1  0.32808400  0.33231700  0.41230100  1.0
  Ca  Ca22  1  0.24074500  0.74539100  0.49216500  1.0
  Ca  Ca23  1  0.75460600  0.25925100  0.00782900  1.0
  Ca  Ca24  1  0.37540800  0.62540800  0.12830900  1.0
  Ca  Ca25  1  0.29328600  0.03940600  0.20854000  1.0
  Ca  Ca26  1  0.78940400  0.54328800  0.20853900  1.0
  Ca  Ca27  1  0.70829900  0.95830100  0.29316800  1.0
  Ca  Ca28  1  0.87480500  0.12480500  0.12536300  1.0
  Ca  Ca29  1  0.20916100  0.45915900  0.28989000  1.0
  Ca  Ca30  1  0.12476600  0.87663900  0.37274700  1.0
  Ca  Ca31  1  0.62663800  0.37476500  0.37274700  1.0
  Ca  Ca32  1  0.53823600  0.78823600  0.45706900  1.0
  Ca  Ca33  1  0.03470200  0.28470000  0.45311200  1.0
  Ca  Ca34  1  0.96056600  0.71071700  0.04575700  1.0
  Ca  Ca35  1  0.46071700  0.21056700  0.04575800  1.0
  Ca  Ca36  1  0.62336300  0.37523500  0.12725200  1.0
  Ca  Ca37  1  0.54169800  0.79170000  0.20683700  1.0
  Ca  Ca38  1  0.04084400  0.29084100  0.21010700  1.0
  Ca  Ca39  1  0.95671300  0.71059600  0.29146200  1.0
  Ca  Ca40  1  0.12523500  0.87336300  0.12725200  1.0
  Ca  Ca41  1  0.46059400  0.20671300  0.29146200  1.0
  Ca  Ca42  1  0.37519800  0.62519700  0.37463300  1.0
  Ca  Ca43  1  0.87459300  0.12459300  0.37169200  1.0
  Ca  Ca44  1  0.78928600  0.53943100  0.45424400  1.0
  Ca  Ca45  1  0.28943100  0.03928500  0.45424400  1.0
  Ca  Ca46  1  0.21529700  0.46529600  0.04688600  1.0
  Ca  Ca47  1  0.71176100  0.96176300  0.04293300  1.0
