# generated using pymatgen
data_Ca
_symmetry_space_group_name_H-M   'P 1'
_cell_length_a   7.81959553
_cell_length_b   12.35420050
_cell_length_c   33.18547093
_cell_angle_alpha   89.98003043
_cell_angle_beta   90.00187809
_cell_angle_gamma   71.50011656
_symmetry_Int_Tables_number   1
_chemical_formula_structural   Ca
_chemical_formula_sum   Ca36
_cell_volume   3040.21129504
_cell_formula_units_Z   36
loop_
 _symmetry_equiv_pos_site_id
 _symmetry_equiv_pos_as_xyz
  1  'x, y, z'
loop_
 _atom_site_type_symbol
 _atom_site_label
 _atom_site_symmetry_multiplicity
 _atom_site_fract_x
 _atom_site_fract_y
 _atom_site_fract_z
 _atom_site_occupancy
  Ca  Ca0  1  0.78173400  0.43762800  0.05413400  1.0
  Ca  Ca1  1  0.55470200  0.89109200  0.11169300  1.0
  Ca  Ca2  1  0.99437000  0.01226500  0.00785400  1.0
  Ca  Ca3  1  0.33307000  0.33389400  0.16744800  1.0
  Ca  Ca4  1  0.11255400  0.77469600  0.22151300  1.0
  Ca  Ca5  1  0.88745400  0.22500700  0.27886800  1.0
  Ca  Ca6  1  0.66734400  0.66497400  0.33205600  1.0
  Ca  Ca7  1  0.44431200  0.11087900  0.38741600  1.0
  Ca  Ca8  1  0.22177600  0.55580600  0.44348400  1.0
  Ca  Ca9  1  0.94421800  0.60842100  0.13741700  1.0
  Ca  Ca10  1  0.72156100  0.05599900  0.19570900  1.0
  Ca  Ca11  1  0.16601400  0.16744100  0.08778600  1.0
  Ca  Ca12  1  0.50045400  0.49996300  0.25000000  1.0
  Ca  Ca13  1  0.27762800  0.94397800  0.30430100  1.0
  Ca  Ca14  1  0.05238500  0.39152300  0.36260300  1.0
  Ca  Ca15  1  0.83269600  0.83259900  0.41218600  1.0
  Ca  Ca16  1  0.61017100  0.27258400  0.46864400  1.0
  Ca  Ca17  1  0.38362600  0.72738000  0.03133200  1.0
  Ca  Ca18  1  0.44761200  0.60847900  0.13739900  1.0
  Ca  Ca19  1  0.22236700  0.05603200  0.19569600  1.0
  Ca  Ca20  1  0.66730200  0.16740600  0.08781300  1.0
  Ca  Ca21  1  0.99954800  0.50003100  0.24999600  1.0
  Ca  Ca22  1  0.77843300  0.94401000  0.30428700  1.0
  Ca  Ca23  1  0.55578000  0.39158100  0.36258500  1.0
  Ca  Ca24  1  0.33398400  0.83256400  0.41221400  1.0
  Ca  Ca25  1  0.11638500  0.27262000  0.46867000  1.0
  Ca  Ca26  1  0.88982300  0.72741500  0.03135700  1.0
  Ca  Ca27  1  0.83265900  0.33501900  0.16794100  1.0
  Ca  Ca28  1  0.61254700  0.77499300  0.22113000  1.0
  Ca  Ca29  1  0.05568100  0.88913400  0.11258600  1.0
  Ca  Ca30  1  0.38744400  0.22530500  0.27848500  1.0
  Ca  Ca31  1  0.16693100  0.66610200  0.33254800  1.0
  Ca  Ca32  1  0.94529400  0.10891400  0.38830400  1.0
  Ca  Ca33  1  0.71826600  0.56237000  0.44587400  1.0
  Ca  Ca34  1  0.50564200  0.98771700  0.49214500  1.0
  Ca  Ca35  1  0.27823300  0.44417800  0.05652300  1.0
