# generated using pymatgen
data_Ca
_symmetry_space_group_name_H-M   'P 1'
_cell_length_a   3.92302418
_cell_length_b   8.69503226
_cell_length_c   30.61781046
_cell_angle_alpha   86.97627589
_cell_angle_beta   86.32686395
_cell_angle_gamma   76.96242691
_symmetry_Int_Tables_number   1
_chemical_formula_structural   Ca
_chemical_formula_sum   Ca12
_cell_volume   1014.59830047
_cell_formula_units_Z   12
loop_
 _symmetry_equiv_pos_site_id
 _symmetry_equiv_pos_as_xyz
  1  'x, y, z'
loop_
 _atom_site_type_symbol
 _atom_site_label
 _atom_site_symmetry_multiplicity
 _atom_site_fract_x
 _atom_site_fract_y
 _atom_site_fract_z
 _atom_site_occupancy
  Ca  Ca0  1  0.65614200  0.41240900  0.27557100  1.0
  Ca  Ca1  1  0.33914800  0.01191300  0.30976000  1.0
  Ca  Ca2  1  0.00071400  0.51920400  0.47930500  1.0
  Ca  Ca3  1  0.99780400  0.64621900  0.35781900  1.0
  Ca  Ca4  1  0.67042600  0.26470400  0.39402100  1.0
  Ca  Ca5  1  0.33247400  0.89733300  0.43729300  1.0
  Ca  Ca6  1  0.66595800  0.14748700  0.52070200  1.0
  Ca  Ca7  1  0.33427300  0.76933300  0.56270400  1.0
  Ca  Ca8  1  0.01059300  0.25423700  0.72443800  1.0
  Ca  Ca9  1  0.99613300  0.40197600  0.60598000  1.0
  Ca  Ca10  1  0.66875800  0.02045600  0.64217600  1.0
  Ca  Ca11  1  0.32757800  0.65472900  0.69023000  1.0
