# generated using pymatgen
data_Ca
_symmetry_space_group_name_H-M   'P 1'
_cell_length_a   5.52712800
_cell_length_b   8.73915575
_cell_length_c   26.21746978
_cell_angle_alpha   90.00000415
_cell_angle_beta   90.00000000
_cell_angle_gamma   90.00000000
_symmetry_Int_Tables_number   1
_chemical_formula_structural   Ca
_chemical_formula_sum   Ca18
_cell_volume   1266.36756285
_cell_formula_units_Z   18
loop_
 _symmetry_equiv_pos_site_id
 _symmetry_equiv_pos_as_xyz
  1  'x, y, z'
loop_
 _atom_site_type_symbol
 _atom_site_label
 _atom_site_symmetry_multiplicity
 _atom_site_fract_x
 _atom_site_fract_y
 _atom_site_fract_z
 _atom_site_occupancy
  Ca  Ca0  1  0.00000000  0.01602500  0.31540600  1.0
  Ca  Ca1  1  0.00000000  0.41825100  0.25143200  1.0
  Ca  Ca2  1  0.00000000  0.61579500  0.38296500  1.0
  Ca  Ca3  1  0.50000000  0.71589000  0.28410700  1.0
  Ca  Ca4  1  0.50000000  0.11979500  0.21892500  1.0
  Ca  Ca5  1  0.50000000  0.31530200  0.34789400  1.0
  Ca  Ca6  1  0.00000000  0.81749800  0.51664900  1.0
  Ca  Ca7  1  0.00000000  0.21641500  0.44991100  1.0
  Ca  Ca8  1  0.00000000  0.41653800  0.58387700  1.0
  Ca  Ca9  1  0.50000000  0.51583600  0.48335100  1.0
  Ca  Ca10  1  0.50000000  0.91679600  0.41612300  1.0
  Ca  Ca11  1  0.50000000  0.11691700  0.55008900  1.0
  Ca  Ca12  1  0.00000000  0.61744400  0.71589300  1.0
  Ca  Ca13  1  0.00000000  0.01803000  0.65210600  1.0
  Ca  Ca14  1  0.00000000  0.21353900  0.78107500  1.0
  Ca  Ca15  1  0.50000000  0.31730900  0.68459400  1.0
  Ca  Ca16  1  0.50000000  0.71753900  0.61703500  1.0
  Ca  Ca17  1  0.50000000  0.91508100  0.74856800  1.0
