# generated using pymatgen
data_Ca
_symmetry_space_group_name_H-M   'P 1'
_cell_length_a   5.52712800
_cell_length_b   10.34030885
_cell_length_c   31.02092941
_cell_angle_alpha   81.78678778
_cell_angle_beta   84.88891038
_cell_angle_gamma   74.49863920
_symmetry_Int_Tables_number   1
_chemical_formula_structural   Ca
_chemical_formula_sum   Ca20
_cell_volume   1688.49016527
_cell_formula_units_Z   20
loop_
 _symmetry_equiv_pos_site_id
 _symmetry_equiv_pos_as_xyz
  1  'x, y, z'
loop_
 _atom_site_type_symbol
 _atom_site_label
 _atom_site_symmetry_multiplicity
 _atom_site_fract_x
 _atom_site_fract_y
 _atom_site_fract_z
 _atom_site_occupancy
  Ca  Ca0  1  0.40012300  0.76262400  0.43713000  1.0
  Ca  Ca1  1  0.20124600  0.26063700  0.33687100  1.0
  Ca  Ca2  1  0.00003900  0.51239400  0.48752800  1.0
  Ca  Ca3  1  0.79979100  0.01403400  0.38638400  1.0
  Ca  Ca4  1  0.60116300  0.50970000  0.28797400  1.0
  Ca  Ca5  1  0.99949800  0.63876200  0.36224100  1.0
  Ca  Ca6  1  0.79964800  0.13639000  0.26431400  1.0
  Ca  Ca7  1  0.59978700  0.38903600  0.41139000  1.0
  Ca  Ca8  1  0.39900600  0.88813200  0.31385500  1.0
  Ca  Ca9  1  0.19990800  0.13782300  0.46236100  1.0
  Ca  Ca10  1  0.40099400  0.51186800  0.68614500  1.0
  Ca  Ca11  1  0.20021300  0.01096400  0.58861000  1.0
  Ca  Ca12  1  0.00035200  0.26361000  0.73568600  1.0
  Ca  Ca13  1  0.80050200  0.76123800  0.63775900  1.0
  Ca  Ca14  1  0.60009200  0.26217700  0.53763900  1.0
  Ca  Ca15  1  0.00020900  0.38596600  0.61361600  1.0
  Ca  Ca16  1  0.79996100  0.88760600  0.51247200  1.0
  Ca  Ca17  1  0.59875400  0.13936300  0.66312900  1.0
  Ca  Ca18  1  0.39987700  0.63737600  0.56287000  1.0
  Ca  Ca19  1  0.19883700  0.89030000  0.71202600  1.0
