# generated using pymatgen
data_Ca
_symmetry_space_group_name_H-M   'P 1'
_cell_length_a   3.90826969
_cell_length_b   6.76932167
_cell_length_c   30.01998855
_cell_angle_alpha   92.15381685
_cell_angle_beta   90.00000000
_cell_angle_gamma   106.77865488
_symmetry_Int_Tables_number   1
_chemical_formula_structural   Ca
_chemical_formula_sum   Ca9
_cell_volume   759.82061414
_cell_formula_units_Z   9
loop_
 _symmetry_equiv_pos_site_id
 _symmetry_equiv_pos_as_xyz
  1  'x, y, z'
loop_
 _atom_site_type_symbol
 _atom_site_label
 _atom_site_symmetry_multiplicity
 _atom_site_fract_x
 _atom_site_fract_y
 _atom_site_fract_z
 _atom_site_occupancy
  Ca  Ca0  1  0.60904200  0.21808400  0.38712100  1.0
  Ca  Ca1  1  0.05774800  0.11549500  0.27967300  1.0
  Ca  Ca2  1  0.33333333  0.66666667  0.33333333  1.0
  Ca  Ca3  1  0.44408200  0.88816500  0.55561100  1.0
  Ca  Ca4  1  0.88925100  0.77850200  0.44438900  1.0
  Ca  Ca5  1  0.16666700  0.33333333  0.50000000  1.0
  Ca  Ca6  1  0.27558600  0.55117200  0.72032700  1.0
  Ca  Ca7  1  0.72429100  0.44858300  0.61287900  1.0
  Ca  Ca8  1  0.99999600  0.99999200  0.66666667  1.0
