# generated using pymatgen
data_Ca
_symmetry_space_group_name_H-M   'P 1'
_cell_length_a   3.90826969
_cell_length_b   18.33140884
_cell_length_c   38.29306606
_cell_angle_alpha   100.02498653
_cell_angle_beta   90.00000000
_cell_angle_gamma   90.00000000
_symmetry_Int_Tables_number   1
_chemical_formula_structural   Ca
_chemical_formula_sum   Ca32
_cell_volume   2701.58433859
_cell_formula_units_Z   32
loop_
 _symmetry_equiv_pos_site_id
 _symmetry_equiv_pos_as_xyz
  1  'x, y, z'
loop_
 _atom_site_type_symbol
 _atom_site_label
 _atom_site_symmetry_multiplicity
 _atom_site_fract_x
 _atom_site_fract_y
 _atom_site_fract_z
 _atom_site_occupancy
  Ca  Ca0  1  0.00000000  0.63015800  0.72645000  1.0
  Ca  Ca1  1  0.00000000  0.87147800  0.66107900  1.0
  Ca  Ca2  1  0.00000000  0.24804500  0.69391000  1.0
  Ca  Ca3  1  0.00000000  0.50101600  0.63382800  1.0
  Ca  Ca4  1  0.00000000  0.74834300  0.57011000  1.0
  Ca  Ca5  1  0.00000000  0.00009300  0.50814400  1.0
  Ca  Ca6  1  0.00000000  0.12336700  0.60344300  1.0
  Ca  Ca7  1  0.00000000  0.37463400  0.53950000  1.0
  Ca  Ca8  1  0.50000000  0.68699400  0.64912300  1.0
  Ca  Ca9  1  0.50000000  0.93707600  0.58609100  1.0
  Ca  Ca10  1  0.50000000  0.31278400  0.61796600  1.0
  Ca  Ca11  1  0.50000000  0.56171800  0.55497800  1.0
  Ca  Ca12  1  0.50000000  0.82008600  0.73775700  1.0
  Ca  Ca13  1  0.50000000  0.05550800  0.68147600  1.0
  Ca  Ca14  1  0.50000000  0.18717500  0.52426000  1.0
  Ca  Ca15  1  0.50000000  0.43887100  0.70971400  1.0
  Ca  Ca16  1  0.00000000  0.62532500  0.47574000  1.0
  Ca  Ca17  1  0.00000000  0.87542400  0.41390900  1.0
  Ca  Ca18  1  0.00000000  0.25078200  0.44502200  1.0
  Ca  Ca19  1  0.00000000  0.49971600  0.38203400  1.0
  Ca  Ca20  1  0.00000000  0.75699200  0.31852400  1.0
  Ca  Ca21  1  0.00000000  0.99241400  0.26224300  1.0
  Ca  Ca22  1  0.00000000  0.12550600  0.35087700  1.0
  Ca  Ca23  1  0.00000000  0.37362900  0.29028600  1.0
  Ca  Ca24  1  0.50000000  0.68913300  0.39655700  1.0
  Ca  Ca25  1  0.50000000  0.94102200  0.33892100  1.0
  Ca  Ca26  1  0.50000000  0.31148400  0.36617100  1.0
  Ca  Ca27  1  0.50000000  0.56445500  0.30609000  1.0
  Ca  Ca28  1  0.50000000  0.81240700  0.49185600  1.0
  Ca  Ca29  1  0.50000000  0.06415700  0.42989000  1.0
  Ca  Ca30  1  0.50000000  0.18234200  0.27354900  1.0
  Ca  Ca31  1  0.50000000  0.43786600  0.46050000  1.0
