# generated using pymatgen
data_Au
_symmetry_space_group_name_H-M   'P 1'
_cell_length_a   2.95605848
_cell_length_b   5.11512333
_cell_length_c   22.59473471
_cell_angle_alpha   91.91664547
_cell_angle_beta   90.00000000
_cell_angle_gamma   106.79528074
_symmetry_Int_Tables_number   1
_chemical_formula_structural   Au
_chemical_formula_sum   Au9
_cell_volume   326.87287890
_cell_formula_units_Z   9
loop_
 _symmetry_equiv_pos_site_id
 _symmetry_equiv_pos_as_xyz
  1  'x, y, z'
loop_
 _atom_site_type_symbol
 _atom_site_label
 _atom_site_symmetry_multiplicity
 _atom_site_fract_x
 _atom_site_fract_y
 _atom_site_fract_z
 _atom_site_occupancy
  Au  Au0  1  0.61726300  0.23452500  0.39030000  1.0
  Au  Au1  1  0.05368600  0.10737000  0.28391000  1.0
  Au  Au2  1  0.32966100  0.65932300  0.32725000  1.0
  Au  Au3  1  0.44251100  0.88502300  0.55665000  1.0
  Au  Au4  1  0.89082200  0.78164400  0.44335000  1.0
  Au  Au5  1  0.16666700  0.33333333  0.50000000  1.0
  Au  Au6  1  0.27964800  0.55929700  0.71609000  1.0
  Au  Au7  1  0.71607000  0.43214200  0.60970000  1.0
  Au  Au8  1  0.00367200  0.00734400  0.67275000  1.0
