# generated using pymatgen
data_Ca
_symmetry_space_group_name_H-M   'P 1'
_cell_length_a   3.90826969
_cell_length_b   16.11420771
_cell_length_c   25.02513571
_cell_angle_alpha   105.37551024
_cell_angle_beta   90.00000000
_cell_angle_gamma   90.00000000
_symmetry_Int_Tables_number   1
_chemical_formula_structural   Ca
_chemical_formula_sum   Ca18
_cell_volume   1519.64107562
_cell_formula_units_Z   18
loop_
 _symmetry_equiv_pos_site_id
 _symmetry_equiv_pos_as_xyz
  1  'x, y, z'
loop_
 _atom_site_type_symbol
 _atom_site_label
 _atom_site_symmetry_multiplicity
 _atom_site_fract_x
 _atom_site_fract_y
 _atom_site_fract_z
 _atom_site_occupancy
  Ca  Ca0  1  0.99999900  0.59575700  0.40155800  1.0
  Ca  Ca1  1  0.00000000  0.98724100  0.34908600  1.0
  Ca  Ca2  1  0.00000000  0.37738200  0.29293800  1.0
  Ca  Ca3  1  0.49999900  0.79042000  0.37617500  1.0
  Ca  Ca4  1  0.49999800  0.18251600  0.32109300  1.0
  Ca  Ca5  1  0.49999900  0.57189200  0.26804400  1.0
  Ca  Ca6  1  0.00000200  0.43104700  0.57026100  1.0
  Ca  Ca7  1  0.00000000  0.82063800  0.51524700  1.0
  Ca  Ca8  1  0.00000000  0.20805100  0.45810100  1.0
  Ca  Ca9  1  0.49999900  0.62524400  0.54190500  1.0
  Ca  Ca10  1  0.49999800  0.01273400  0.48479900  1.0
  Ca  Ca11  1  0.50000100  0.40235700  0.42971400  1.0
  Ca  Ca12  1  0.00000100  0.26145300  0.73202600  1.0
  Ca  Ca13  1  0.99999900  0.65089700  0.67887700  1.0
  Ca  Ca14  1  0.99999900  0.04277000  0.62383400  1.0
  Ca  Ca15  1  0.49999900  0.45610300  0.70704600  1.0
  Ca  Ca16  1  0.50000100  0.84596800  0.65091400  1.0
  Ca  Ca17  1  0.50000500  0.23752800  0.59838200  1.0
