# generated using pymatgen
data_Ca
_symmetry_space_group_name_H-M   'P 1'
_cell_length_a   3.89397365
_cell_length_b   7.53639354
_cell_length_c   26.98662628
_cell_angle_alpha   116.59012884
_cell_angle_beta   89.99999667
_cell_angle_gamma   75.02813925
_symmetry_Int_Tables_number   1
_chemical_formula_structural   Ca
_chemical_formula_sum   Ca8
_cell_volume   678.00022267
_cell_formula_units_Z   8
loop_
 _symmetry_equiv_pos_site_id
 _symmetry_equiv_pos_as_xyz
  1  'x, y, z'
loop_
 _atom_site_type_symbol
 _atom_site_label
 _atom_site_symmetry_multiplicity
 _atom_site_fract_x
 _atom_site_fract_y
 _atom_site_fract_z
 _atom_site_occupancy
  Ca  Ca0  1  0.37120600  0.25758800  0.07420500  1.0
  Ca  Ca1  1  0.87479800  0.25040500  0.19672500  1.0
  Ca  Ca2  1  0.62563500  0.74873000  0.17835200  1.0
  Ca  Ca3  1  0.11904600  0.76190800  0.05830600  1.0
  Ca  Ca4  1  0.37436500  0.25127000  0.32164800  1.0
  Ca  Ca5  1  0.88095400  0.23809200  0.44169400  1.0
  Ca  Ca6  1  0.62879400  0.74241200  0.42579500  1.0
  Ca  Ca7  1  0.12520200  0.74959500  0.30327500  1.0
