# generated using pymatgen
data_Ca
_symmetry_space_group_name_H-M   'P 1'
_cell_length_a   10.30946636
_cell_length_b   7.53678584
_cell_length_c   37.97235006
_cell_angle_alpha   88.42573173
_cell_angle_beta   89.99999989
_cell_angle_gamma   66.99417760
_symmetry_Int_Tables_number   1
_chemical_formula_structural   Ca
_chemical_formula_sum   Ca32
_cell_volume   2714.58633625
_cell_formula_units_Z   32
loop_
 _symmetry_equiv_pos_site_id
 _symmetry_equiv_pos_as_xyz
  1  'x, y, z'
loop_
 _atom_site_type_symbol
 _atom_site_label
 _atom_site_symmetry_multiplicity
 _atom_site_fract_x
 _atom_site_fract_y
 _atom_site_fract_z
 _atom_site_occupancy
  Ca  Ca0  1  0.52159700  0.42634800  0.33814900  1.0
  Ca  Ca1  1  0.51800100  0.92303800  0.09113400  1.0
  Ca  Ca2  1  0.14137300  0.48894800  0.36993600  1.0
  Ca  Ca3  1  0.14134500  0.98680100  0.11819200  1.0
  Ca  Ca4  1  0.89642400  0.36165700  0.30701400  1.0
  Ca  Ca5  1  0.88211900  0.86590200  0.05551700  1.0
  Ca  Ca6  1  0.76633200  0.55474400  0.40168300  1.0
  Ca  Ca7  1  0.76911600  0.05352500  0.15072000  1.0
  Ca  Ca8  1  0.38935900  0.60999000  0.43082200  1.0
  Ca  Ca9  1  0.39184700  0.11736200  0.18257100  1.0
  Ca  Ca10  1  0.00367400  0.68659100  0.46286600  1.0
  Ca  Ca11  1  0.01985500  0.17700700  0.21339200  1.0
  Ca  Ca12  1  0.61303700  0.78191900  0.49003100  1.0
  Ca  Ca13  1  0.64570300  0.23908000  0.24459400  1.0
  Ca  Ca14  1  0.27177800  0.30068900  0.27629100  1.0
  Ca  Ca15  1  0.26945600  0.78368900  0.02740200  1.0
  Ca  Ca16  1  0.85865500  0.01319900  0.38180800  1.0
  Ca  Ca17  1  0.85862700  0.51105200  0.13006400  1.0
  Ca  Ca18  1  0.48199900  0.07696200  0.40886600  1.0
  Ca  Ca19  1  0.47840300  0.57365200  0.16185100  1.0
  Ca  Ca20  1  0.23088400  0.94647500  0.34928000  1.0
  Ca  Ca21  1  0.23366800  0.44525600  0.09831700  1.0
  Ca  Ca22  1  0.11788100  0.13409800  0.44448300  1.0
  Ca  Ca23  1  0.10357600  0.63834300  0.19298600  1.0
  Ca  Ca24  1  0.73054400  0.21631100  0.47259800  1.0
  Ca  Ca25  1  0.72822200  0.69931100  0.22370900  1.0
  Ca  Ca26  1  0.35429700  0.76092000  0.25540600  1.0
  Ca  Ca27  1  0.38696300  0.21808100  0.00996900  1.0
  Ca  Ca28  1  0.98014500  0.82299300  0.28660800  1.0
  Ca  Ca29  1  0.99632600  0.31340900  0.03713400  1.0
  Ca  Ca30  1  0.60815300  0.88263800  0.31742900  1.0
  Ca  Ca31  1  0.61064100  0.39001000  0.06917800  1.0
