# generated using pymatgen
data_Ca
_symmetry_space_group_name_H-M   'P 1'
_cell_length_a   6.43043900
_cell_length_b   10.31470320
_cell_length_c   23.37641600
_cell_angle_alpha   79.11373654
_cell_angle_beta   90.00000000
_cell_angle_gamma   90.00000000
_symmetry_Int_Tables_number   1
_chemical_formula_structural   Ca
_chemical_formula_sum   Ca18
_cell_volume   1522.60955719
_cell_formula_units_Z   18
loop_
 _symmetry_equiv_pos_site_id
 _symmetry_equiv_pos_as_xyz
  1  'x, y, z'
loop_
 _atom_site_type_symbol
 _atom_site_label
 _atom_site_symmetry_multiplicity
 _atom_site_fract_x
 _atom_site_fract_y
 _atom_site_fract_z
 _atom_site_occupancy
  Ca  Ca0  1  0.75000000  0.53363900  0.03887400  1.0
  Ca  Ca1  1  0.75000000  0.21211500  0.15168500  1.0
  Ca  Ca2  1  0.75000000  0.87998300  0.08996900  1.0
  Ca  Ca3  1  0.25000000  0.76699200  0.02094800  1.0
  Ca  Ca4  1  0.25000000  0.44658000  0.13115000  1.0
  Ca  Ca5  1  0.25000000  0.12184200  0.07062700  1.0
  Ca  Ca6  1  0.75000000  0.55055500  0.20170100  1.0
  Ca  Ca7  1  0.75000000  0.21344900  0.31959200  1.0
  Ca  Ca8  1  0.75000000  0.88318700  0.25989300  1.0
  Ca  Ca9  1  0.25000000  0.78655100  0.18040800  1.0
  Ca  Ca10  1  0.25000000  0.44944500  0.29829900  1.0
  Ca  Ca11  1  0.25000000  0.11681300  0.24010700  1.0
  Ca  Ca12  1  0.75000000  0.55342000  0.36885000  1.0
  Ca  Ca13  1  0.75000000  0.23300800  0.47905200  1.0
  Ca  Ca14  1  0.75000000  0.87815800  0.42937300  1.0
  Ca  Ca15  1  0.25000000  0.78788500  0.34831500  1.0
  Ca  Ca16  1  0.25000000  0.46636100  0.46112600  1.0
  Ca  Ca17  1  0.25000000  0.12001700  0.41003100  1.0
