# generated using pymatgen
data_Ca
_symmetry_space_group_name_H-M   'P 1'
_cell_length_a   3.89500228
_cell_length_b   6.43714000
_cell_length_c   23.37001600
_cell_angle_alpha   90.00000000
_cell_angle_beta   60.00000236
_cell_angle_gamma   90.00000000
_symmetry_Int_Tables_number   1
_chemical_formula_structural   Ca
_chemical_formula_sum   Ca6
_cell_volume   507.44657149
_cell_formula_units_Z   6
loop_
 _symmetry_equiv_pos_site_id
 _symmetry_equiv_pos_as_xyz
  1  'x, y, z'
loop_
 _atom_site_type_symbol
 _atom_site_label
 _atom_site_symmetry_multiplicity
 _atom_site_fract_x
 _atom_site_fract_y
 _atom_site_fract_z
 _atom_site_occupancy
  Ca  Ca0  1  0.32615300  0.25000000  0.05795000  1.0
  Ca  Ca1  1  0.65695400  0.75000000  0.11434800  1.0
  Ca  Ca2  1  0.34109800  0.25000000  0.21963400  1.0
  Ca  Ca3  1  0.65890200  0.75000000  0.28036600  1.0
  Ca  Ca4  1  0.34304600  0.25000000  0.38565200  1.0
  Ca  Ca5  1  0.67384700  0.75000000  0.44205000  1.0
