# generated using pymatgen
data_Ca
_symmetry_space_group_name_H-M   'P 1'
_cell_length_a   3.89661202
_cell_length_b   10.11701025
_cell_length_c   37.34601685
_cell_angle_alpha   92.38526553
_cell_angle_beta   90.00000021
_cell_angle_gamma   67.34666769
_symmetry_Int_Tables_number   1
_chemical_formula_structural   Ca
_chemical_formula_sum   Ca16
_cell_volume   1357.29316956
_cell_formula_units_Z   16
loop_
 _symmetry_equiv_pos_site_id
 _symmetry_equiv_pos_as_xyz
  1  'x, y, z'
loop_
 _atom_site_type_symbol
 _atom_site_label
 _atom_site_symmetry_multiplicity
 _atom_site_fract_x
 _atom_site_fract_y
 _atom_site_fract_z
 _atom_site_occupancy
  Ca  Ca0  1  0.20724400  0.79275600  0.11319800  1.0
  Ca  Ca1  1  0.45543600  0.04456400  0.05147900  1.0
  Ca  Ca2  1  0.95870400  0.54129600  0.17661300  1.0
  Ca  Ca3  1  0.70784300  0.29215700  0.23938700  1.0
  Ca  Ca4  1  0.54301800  0.95698200  0.19795400  1.0
  Ca  Ca5  1  0.79459900  0.20540100  0.13511100  1.0
  Ca  Ca6  1  0.29011700  0.70988300  0.01383700  1.0
  Ca  Ca7  1  0.04298700  0.45701300  0.07363100  1.0
  Ca  Ca8  1  0.20540100  0.79459900  0.36488900  1.0
  Ca  Ca9  1  0.45698200  0.04301800  0.30204600  1.0
  Ca  Ca10  1  0.95701300  0.54298700  0.42636900  1.0
  Ca  Ca11  1  0.70988300  0.29011700  0.48616300  1.0
  Ca  Ca12  1  0.54456400  0.95543600  0.44852100  1.0
  Ca  Ca13  1  0.79275600  0.20724400  0.38680200  1.0
  Ca  Ca14  1  0.29215700  0.70784300  0.26061300  1.0
  Ca  Ca15  1  0.04129600  0.45870400  0.32338700  1.0
