# generated using pymatgen
data_Ca
_symmetry_space_group_name_H-M   'P 1'
_cell_length_a   3.89380111
_cell_length_b   13.47445627
_cell_length_c   27.00165597
_cell_angle_alpha   104.50646920
_cell_angle_beta   90.00000948
_cell_angle_gamma   81.69235181
_symmetry_Int_Tables_number   1
_chemical_formula_structural   Ca
_chemical_formula_sum   Ca16
_cell_volume   1356.16583662
_cell_formula_units_Z   16
loop_
 _symmetry_equiv_pos_site_id
 _symmetry_equiv_pos_as_xyz
  1  'x, y, z'
loop_
 _atom_site_type_symbol
 _atom_site_label
 _atom_site_symmetry_multiplicity
 _atom_site_fract_x
 _atom_site_fract_y
 _atom_site_fract_z
 _atom_site_occupancy
  Ca  Ca0  1  0.43602600  0.12794800  0.05751800  1.0
  Ca  Ca1  1  0.18686100  0.62627800  0.11908400  1.0
  Ca  Ca2  1  0.93786900  0.12426100  0.18035000  1.0
  Ca  Ca3  1  0.68726400  0.62547100  0.24383100  1.0
  Ca  Ca4  1  0.81229600  0.37540800  0.13141900  1.0
  Ca  Ca5  1  0.56291100  0.87417800  0.19413800  1.0
  Ca  Ca6  1  0.31073300  0.37853400  0.01233000  1.0
  Ca  Ca7  1  0.06059800  0.87880400  0.07261600  1.0
  Ca  Ca8  1  0.43708900  0.12582200  0.30586200  1.0
  Ca  Ca9  1  0.18770400  0.62459200  0.36858100  1.0
  Ca  Ca10  1  0.93940200  0.12119600  0.42738400  1.0
  Ca  Ca11  1  0.68926700  0.62146600  0.48767000  1.0
  Ca  Ca12  1  0.81313900  0.37372200  0.38091600  1.0
  Ca  Ca13  1  0.56397400  0.87205200  0.44248200  1.0
  Ca  Ca14  1  0.31273600  0.37452900  0.25616900  1.0
  Ca  Ca15  1  0.06213100  0.87573900  0.31965000  1.0
