# generated using pymatgen
data_Ca
_symmetry_space_group_name_H-M   'P 1'
_cell_length_a   6.74703190
_cell_length_b   7.53367666
_cell_length_c   20.22750165
_cell_angle_alpha   81.52918040
_cell_angle_beta   89.99999799
_cell_angle_gamma   89.99999842
_symmetry_Int_Tables_number   1
_chemical_formula_structural   Ca
_chemical_formula_sum   Ca12
_cell_volume   1016.94681741
_cell_formula_units_Z   12
loop_
 _symmetry_equiv_pos_site_id
 _symmetry_equiv_pos_as_xyz
  1  'x, y, z'
loop_
 _atom_site_type_symbol
 _atom_site_label
 _atom_site_symmetry_multiplicity
 _atom_site_fract_x
 _atom_site_fract_y
 _atom_site_fract_z
 _atom_site_occupancy
  Ca  Ca0  1  0.32969500  0.16161200  0.29146700  1.0
  Ca  Ca1  1  0.82938500  0.99835600  0.37300600  1.0
  Ca  Ca2  1  0.32938500  0.50164400  0.12699400  1.0
  Ca  Ca3  1  0.32300300  0.82328600  0.45170700  1.0
  Ca  Ca4  1  0.82969400  0.33838900  0.20853300  1.0
  Ca  Ca5  1  0.82300200  0.67671400  0.04829200  1.0
  Ca  Ca6  1  0.17061500  0.00164400  0.12699400  1.0
  Ca  Ca7  1  0.67030500  0.83838800  0.20853300  1.0
  Ca  Ca8  1  0.17699800  0.32328600  0.45170700  1.0
  Ca  Ca9  1  0.17030600  0.66161100  0.29146700  1.0
  Ca  Ca10  1  0.67699700  0.17671400  0.04829300  1.0
  Ca  Ca11  1  0.67061500  0.49835600  0.37300600  1.0
