# generated using pymatgen
data_Ca
_symmetry_space_group_name_H-M   'P 1'
_cell_length_a   3.89517000
_cell_length_b   3.89516985
_cell_length_c   51.49504900
_cell_angle_alpha   90.00000000
_cell_angle_beta   90.00000000
_cell_angle_gamma   120.00000127
_symmetry_Int_Tables_number   1
_chemical_formula_structural   Ca
_chemical_formula_sum   Ca8
_cell_volume   676.62636855
_cell_formula_units_Z   8
loop_
 _symmetry_equiv_pos_site_id
 _symmetry_equiv_pos_as_xyz
  1  'x, y, z'
loop_
 _atom_site_type_symbol
 _atom_site_label
 _atom_site_symmetry_multiplicity
 _atom_site_fract_x
 _atom_site_fract_y
 _atom_site_fract_z
 _atom_site_occupancy
  Ca  Ca0  1  0.33333333  0.66666667  0.28218000  1.0
  Ca  Ca1  1  0.66666667  0.33333333  0.34300700  1.0
  Ca  Ca2  1  0.33333333  0.66666667  0.40584300  1.0
  Ca  Ca3  1  0.66666667  0.33333333  0.46851500  1.0
  Ca  Ca4  1  0.33333333  0.66666667  0.53148500  1.0
  Ca  Ca5  1  0.66666667  0.33333333  0.59415700  1.0
  Ca  Ca6  1  0.33333333  0.66666667  0.65699300  1.0
  Ca  Ca7  1  0.66666667  0.33333333  0.71782000  1.0
