# generated using pymatgen
data_Zr
_symmetry_space_group_name_H-M   'P 1'
_cell_length_a   5.18294000
_cell_length_b   5.60699000
_cell_length_c   25.90199100
_cell_angle_alpha   90.00000000
_cell_angle_beta   90.00000000
_cell_angle_gamma   90.00000000
_symmetry_Int_Tables_number   1
_chemical_formula_structural   Zr
_chemical_formula_sum   Zr16
_cell_volume   752.72980208
_cell_formula_units_Z   16
loop_
 _symmetry_equiv_pos_site_id
 _symmetry_equiv_pos_as_xyz
  1  'x, y, z'
loop_
 _atom_site_type_symbol
 _atom_site_label
 _atom_site_symmetry_multiplicity
 _atom_site_fract_x
 _atom_site_fract_y
 _atom_site_fract_z
 _atom_site_occupancy
  Zr  Zr0  1  0.25000000  0.31316400  0.00606700  1.0
  Zr  Zr1  1  0.25000000  0.83883100  0.06335600  1.0
  Zr  Zr2  1  0.75000000  0.68683600  0.00606700  1.0
  Zr  Zr3  1  0.75000000  0.16116900  0.06335600  1.0
  Zr  Zr4  1  0.25000000  0.33026800  0.12536800  1.0
  Zr  Zr5  1  0.25000000  0.83244700  0.18753300  1.0
  Zr  Zr6  1  0.75000000  0.66973200  0.12536800  1.0
  Zr  Zr7  1  0.75000000  0.16755300  0.18753300  1.0
  Zr  Zr8  1  0.25000000  0.33244700  0.24996700  1.0
  Zr  Zr9  1  0.25000000  0.83026800  0.31213200  1.0
  Zr  Zr10  1  0.75000000  0.66755300  0.24996700  1.0
  Zr  Zr11  1  0.75000000  0.16973200  0.31213200  1.0
  Zr  Zr12  1  0.25000000  0.33883100  0.37414400  1.0
  Zr  Zr13  1  0.25000000  0.81316400  0.43143300  1.0
  Zr  Zr14  1  0.75000000  0.66116900  0.37414400  1.0
  Zr  Zr15  1  0.75000000  0.18683600  0.43143300  1.0
