# generated using pymatgen
data_Zr
_symmetry_space_group_name_H-M   'P 1'
_cell_length_a   3.23450792
_cell_length_b   8.29388065
_cell_length_c   30.54869644
_cell_angle_alpha   94.13345636
_cell_angle_beta   90.00000232
_cell_angle_gamma   67.04629722
_symmetry_Int_Tables_number   1
_chemical_formula_structural   Zr
_chemical_formula_sum   Zr16
_cell_volume   752.31359845
_cell_formula_units_Z   16
loop_
 _symmetry_equiv_pos_site_id
 _symmetry_equiv_pos_as_xyz
  1  'x, y, z'
loop_
 _atom_site_type_symbol
 _atom_site_label
 _atom_site_symmetry_multiplicity
 _atom_site_fract_x
 _atom_site_fract_y
 _atom_site_fract_z
 _atom_site_occupancy
  Zr  Zr0  1  0.95662200  0.04337800  0.17723800  1.0
  Zr  Zr1  1  0.20912200  0.29087800  0.11609200  1.0
  Zr  Zr2  1  0.70612000  0.79388000  0.23926000  1.0
  Zr  Zr3  1  0.46932600  0.53067400  0.05206800  1.0
  Zr  Zr4  1  0.79290200  0.70709800  0.13347800  1.0
  Zr  Zr5  1  0.03350000  0.96650000  0.07436300  1.0
  Zr  Zr6  1  0.54299100  0.45700900  0.19863700  1.0
  Zr  Zr7  1  0.29251200  0.20748800  0.01599400  1.0
  Zr  Zr8  1  0.96650000  0.03350000  0.42563700  1.0
  Zr  Zr9  1  0.20709800  0.29290200  0.36652200  1.0
  Zr  Zr10  1  0.70748800  0.79251200  0.48400600  1.0
  Zr  Zr11  1  0.45700900  0.54299100  0.30136300  1.0
  Zr  Zr12  1  0.79087800  0.70912200  0.38390800  1.0
  Zr  Zr13  1  0.04337800  0.95662200  0.32276200  1.0
  Zr  Zr14  1  0.53067400  0.46932600  0.44793200  1.0
  Zr  Zr15  1  0.29388000  0.20612000  0.26074000  1.0
