# generated using pymatgen
data_Zr
_symmetry_space_group_name_H-M   'P 1'
_cell_length_a   3.23562076
_cell_length_b   10.85830369
_cell_length_c   22.43170765
_cell_angle_alpha   104.96519636
_cell_angle_beta   90.00001128
_cell_angle_gamma   81.43142844
_symmetry_Int_Tables_number   1
_chemical_formula_structural   Zr
_chemical_formula_sum   Zr16
_cell_volume   752.26188800
_cell_formula_units_Z   16
loop_
 _symmetry_equiv_pos_site_id
 _symmetry_equiv_pos_as_xyz
  1  'x, y, z'
loop_
 _atom_site_type_symbol
 _atom_site_label
 _atom_site_symmetry_multiplicity
 _atom_site_fract_x
 _atom_site_fract_y
 _atom_site_fract_z
 _atom_site_occupancy
  Zr  Zr0  1  0.31461100  0.37077700  0.09095300  1.0
  Zr  Zr1  1  0.06208600  0.87582800  0.15196600  1.0
  Zr  Zr2  1  0.81176500  0.37647100  0.21162000  1.0
  Zr  Zr3  1  0.56965800  0.86068500  0.03304100  1.0
  Zr  Zr4  1  0.94012700  0.11974700  0.10348300  1.0
  Zr  Zr5  1  0.68813900  0.62372200  0.15827300  1.0
  Zr  Zr6  1  0.43527500  0.12944900  0.22598300  1.0
  Zr  Zr7  1  0.18796400  0.62407100  0.04087600  1.0
  Zr  Zr8  1  0.31186100  0.37627800  0.34172700  1.0
  Zr  Zr9  1  0.05987300  0.88025300  0.39651700  1.0
  Zr  Zr10  1  0.81203600  0.37592900  0.45912400  1.0
  Zr  Zr11  1  0.56472500  0.87055100  0.27401700  1.0
  Zr  Zr12  1  0.93791400  0.12417200  0.34803400  1.0
  Zr  Zr13  1  0.68538900  0.62922300  0.40904700  1.0
  Zr  Zr14  1  0.43034200  0.13931500  0.46695900  1.0
  Zr  Zr15  1  0.18823500  0.62352900  0.28838000  1.0
