# generated using pymatgen
data_Zr
_symmetry_space_group_name_H-M   'P 1'
_cell_length_a   5.60754700
_cell_length_b   10.85947777
_cell_length_c   25.88315900
_cell_angle_alpha   98.56703637
_cell_angle_beta   90.00000000
_cell_angle_gamma   75.03749857
_symmetry_Int_Tables_number   1
_chemical_formula_structural   Zr
_chemical_formula_sum   Zr32
_cell_volume   1504.50536177
_cell_formula_units_Z   32
loop_
 _symmetry_equiv_pos_site_id
 _symmetry_equiv_pos_as_xyz
  1  'x, y, z'
loop_
 _atom_site_type_symbol
 _atom_site_label
 _atom_site_symmetry_multiplicity
 _atom_site_fract_x
 _atom_site_fract_y
 _atom_site_fract_z
 _atom_site_occupancy
  Zr  Zr0  1  0.73236100  0.87545000  0.11567000  1.0
  Zr  Zr1  1  0.96599400  0.37810500  0.08911400  1.0
  Zr  Zr2  1  0.49492300  0.37188600  0.03146900  1.0
  Zr  Zr3  1  0.26094000  0.87054500  0.05677800  1.0
  Zr  Zr4  1  0.51865500  0.62436200  0.10288400  1.0
  Zr  Zr5  1  0.79334200  0.12111900  0.06988900  1.0
  Zr  Zr6  1  0.25946800  0.14234700  0.01795600  1.0
  Zr  Zr7  1  0.98254500  0.62492700  0.04393700  1.0
  Zr  Zr8  1  0.73078100  0.87465300  0.24096100  1.0
  Zr  Zr9  1  0.98083500  0.37478900  0.21201700  1.0
  Zr  Zr10  1  0.48220000  0.37073100  0.14950800  1.0
  Zr  Zr11  1  0.23449700  0.87639700  0.17786800  1.0
  Zr  Zr12  1  0.51634500  0.62456100  0.22577600  1.0
  Zr  Zr13  1  0.77121900  0.12279800  0.19621400  1.0
  Zr  Zr14  1  0.27163100  0.12245500  0.13262300  1.0
  Zr  Zr15  1  0.01439200  0.62628500  0.16346400  1.0
  Zr  Zr16  1  0.72836900  0.87754500  0.36737700  1.0
  Zr  Zr17  1  0.98560800  0.37371500  0.33653600  1.0
  Zr  Zr18  1  0.48365500  0.37543900  0.27422400  1.0
  Zr  Zr19  1  0.22878100  0.87720200  0.30378600  1.0
  Zr  Zr20  1  0.51780000  0.62926900  0.35049200  1.0
  Zr  Zr21  1  0.76550300  0.12360300  0.32213200  1.0
  Zr  Zr22  1  0.26921900  0.12534700  0.25903900  1.0
  Zr  Zr23  1  0.01916500  0.62521100  0.28798300  1.0
  Zr  Zr24  1  0.74053200  0.85765300  0.48204500  1.0
  Zr  Zr25  1  0.01745500  0.37507300  0.45606400  1.0
  Zr  Zr26  1  0.48134500  0.37563800  0.39711600  1.0
  Zr  Zr27  1  0.20665800  0.87888100  0.43011200  1.0
  Zr  Zr28  1  0.50507700  0.62811400  0.46853000  1.0
  Zr  Zr29  1  0.73906000  0.12945500  0.44322200  1.0
  Zr  Zr30  1  0.26763900  0.12455000  0.38433000  1.0
  Zr  Zr31  1  0.03400600  0.62189500  0.41088500  1.0
