# generated using pymatgen
data_Zr
_symmetry_space_group_name_H-M   'P 1'
_cell_length_a   6.11100921
_cell_length_b   7.63540980
_cell_length_c   24.97067818
_cell_angle_alpha   93.34858944
_cell_angle_beta   91.69976673
_cell_angle_gamma   103.80843123
_symmetry_Int_Tables_number   1
_chemical_formula_structural   Zr
_chemical_formula_sum   Zr24
_cell_volume   1128.38509951
_cell_formula_units_Z   24
loop_
 _symmetry_equiv_pos_site_id
 _symmetry_equiv_pos_as_xyz
  1  'x, y, z'
loop_
 _atom_site_type_symbol
 _atom_site_label
 _atom_site_symmetry_multiplicity
 _atom_site_fract_x
 _atom_site_fract_y
 _atom_site_fract_z
 _atom_site_occupancy
  Zr  Zr0  1  0.29354600  0.63807700  0.08832700  1.0
  Zr  Zr1  1  0.05136500  0.29236200  0.01450900  1.0
  Zr  Zr2  1  0.69852700  0.98156500  0.04749500  1.0
  Zr  Zr3  1  0.21337100  0.03783400  0.08279100  1.0
  Zr  Zr4  1  0.81836200  0.69226800  0.12094400  1.0
  Zr  Zr5  1  0.57995900  0.37522000  0.04430500  1.0
  Zr  Zr6  1  0.17312000  0.63946000  0.21122600  1.0
  Zr  Zr7  1  0.92157000  0.30297400  0.12975200  1.0
  Zr  Zr8  1  0.54980400  0.97083400  0.16970300  1.0
  Zr  Zr9  1  0.07450800  0.03108700  0.20531900  1.0
  Zr  Zr10  1  0.69909800  0.69644200  0.24584600  1.0
  Zr  Zr11  1  0.44962700  0.36847700  0.16342500  1.0
  Zr  Zr12  1  0.05037300  0.63152300  0.33657500  1.0
  Zr  Zr13  1  0.80090200  0.30355800  0.25415400  1.0
  Zr  Zr14  1  0.42549200  0.96891300  0.29468100  1.0
  Zr  Zr15  1  0.95019600  0.02916600  0.33029700  1.0
  Zr  Zr16  1  0.57843000  0.69702600  0.37024800  1.0
  Zr  Zr17  1  0.32688000  0.36054000  0.28877400  1.0
  Zr  Zr18  1  0.92004100  0.62478000  0.45569500  1.0
  Zr  Zr19  1  0.68163800  0.30773200  0.37905600  1.0
  Zr  Zr20  1  0.28662900  0.96216600  0.41720900  1.0
  Zr  Zr21  1  0.80147300  0.01843500  0.45250500  1.0
  Zr  Zr22  1  0.44863500  0.70763800  0.48549100  1.0
  Zr  Zr23  1  0.20645400  0.36192300  0.41167300  1.0
