# generated using pymatgen
data_Au
_symmetry_space_group_name_H-M   'P 1'
_cell_length_a   4.18000100
_cell_length_b   6.57524417
_cell_length_c   23.82028685
_cell_angle_alpha   93.36136142
_cell_angle_beta   90.00000000
_cell_angle_gamma   90.00000000
_symmetry_Int_Tables_number   1
_chemical_formula_structural   Au
_chemical_formula_sum   Au18
_cell_volume   653.56299146
_cell_formula_units_Z   18
loop_
 _symmetry_equiv_pos_site_id
 _symmetry_equiv_pos_as_xyz
  1  'x, y, z'
loop_
 _atom_site_type_symbol
 _atom_site_label
 _atom_site_symmetry_multiplicity
 _atom_site_fract_x
 _atom_site_fract_y
 _atom_site_fract_z
 _atom_site_occupancy
  Au  Au0  1  0.00000000  0.96347700  0.34246000  1.0
  Au  Au1  1  0.00000000  0.37517200  0.29365000  1.0
  Au  Au2  1  0.00000000  0.60371400  0.40324000  1.0
  Au  Au3  1  0.50000000  0.66901800  0.31378200  1.0
  Au  Au4  1  0.50000000  0.08377100  0.27275500  1.0
  Au  Au5  1  0.50000000  0.29947800  0.37761300  1.0
  Au  Au6  1  0.00000000  0.81922100  0.51335600  1.0
  Au  Au7  1  0.00000000  0.20671000  0.45742500  1.0
  Au  Au8  1  0.00000000  0.42605100  0.57059700  1.0
  Au  Au9  1  0.50000000  0.51411300  0.48664400  1.0
  Au  Au10  1  0.50000000  0.90728300  0.42940300  1.0
  Au  Au11  1  0.50000000  0.12662200  0.54257500  1.0
  Au  Au12  1  0.00000000  0.66431600  0.68621800  1.0
  Au  Au13  1  0.00000000  0.03385400  0.62238700  1.0
  Au  Au14  1  0.00000000  0.24956300  0.72724500  1.0
  Au  Au15  1  0.50000000  0.36985700  0.65754000  1.0
  Au  Au16  1  0.50000000  0.72962000  0.59676000  1.0
  Au  Au17  1  0.50000000  0.95816000  0.70635000  1.0
