# generated using pymatgen
data_Zr
_symmetry_space_group_name_H-M   'P 1'
_cell_length_a   8.56421827
_cell_length_b   6.11143978
_cell_length_c   31.42608284
_cell_angle_alpha   87.27407760
_cell_angle_beta   90.03325037
_cell_angle_gamma   66.39498548
_symmetry_Int_Tables_number   1
_chemical_formula_structural   Zr
_chemical_formula_sum   Zr32
_cell_volume   1505.15346329
_cell_formula_units_Z   32
loop_
 _symmetry_equiv_pos_site_id
 _symmetry_equiv_pos_as_xyz
  1  'x, y, z'
loop_
 _atom_site_type_symbol
 _atom_site_label
 _atom_site_symmetry_multiplicity
 _atom_site_fract_x
 _atom_site_fract_y
 _atom_site_fract_z
 _atom_site_occupancy
  Zr  Zr0  1  0.63882800  0.99212800  0.37131800  1.0
  Zr  Zr1  1  0.64228500  0.48614600  0.11830300  1.0
  Zr  Zr2  1  0.27392400  0.05024200  0.40081100  1.0
  Zr  Zr3  1  0.27017300  0.55234200  0.14981300  1.0
  Zr  Zr4  1  0.01854000  0.92620800  0.33804800  1.0
  Zr  Zr5  1  0.02773500  0.41777400  0.08903500  1.0
  Zr  Zr6  1  0.90860700  0.11408200  0.43147200  1.0
  Zr  Zr7  1  0.89560200  0.61404800  0.18253400  1.0
  Zr  Zr8  1  0.51569000  0.16635300  0.46067700  1.0
  Zr  Zr9  1  0.52021900  0.67497600  0.21283100  1.0
  Zr  Zr10  1  0.13499100  0.25895600  0.48495400  1.0
  Zr  Zr11  1  0.14406300  0.73986800  0.24456700  1.0
  Zr  Zr12  1  0.76882500  0.80218100  0.27671600  1.0
  Zr  Zr13  1  0.75024000  0.31117000  0.02979900  1.0
  Zr  Zr14  1  0.39362200  0.86604800  0.30606300  1.0
  Zr  Zr15  1  0.38944600  0.38962400  0.05797000  1.0
  Zr  Zr16  1  0.72982700  0.44765800  0.35018700  1.0
  Zr  Zr17  1  0.72607600  0.94975800  0.09918900  1.0
  Zr  Zr18  1  0.35771500  0.51385400  0.38169700  1.0
  Zr  Zr19  1  0.36117200  0.00787200  0.12868200  1.0
  Zr  Zr20  1  0.10439800  0.38595200  0.31746600  1.0
  Zr  Zr21  1  0.09139300  0.88591800  0.06852800  1.0
  Zr  Zr22  1  0.97226500  0.58222600  0.41096500  1.0
  Zr  Zr23  1  0.98146000  0.07379200  0.16195200  1.0
  Zr  Zr24  1  0.61055400  0.61037600  0.44203000  1.0
  Zr  Zr25  1  0.60637800  0.13395200  0.19393700  1.0
  Zr  Zr26  1  0.24976000  0.68883000  0.47020100  1.0
  Zr  Zr27  1  0.23117500  0.19781900  0.22328400  1.0
  Zr  Zr28  1  0.85593700  0.26013200  0.25543300  1.0
  Zr  Zr29  1  0.86500900  0.74104400  0.01504600  1.0
  Zr  Zr30  1  0.47978100  0.32502400  0.28716900  1.0
  Zr  Zr31  1  0.48431000  0.83364700  0.03932300  1.0
