# generated using pymatgen
data_Zr
_symmetry_space_group_name_H-M   'P 1'
_cell_length_a   5.61076163
_cell_length_b   6.10782148
_cell_length_c   33.15952219
_cell_angle_alpha   83.26376294
_cell_angle_beta   89.99999776
_cell_angle_gamma   90.00000576
_symmetry_Int_Tables_number   1
_chemical_formula_structural   Zr
_chemical_formula_sum   Zr24
_cell_volume   1128.51656778
_cell_formula_units_Z   24
loop_
 _symmetry_equiv_pos_site_id
 _symmetry_equiv_pos_as_xyz
  1  'x, y, z'
loop_
 _atom_site_type_symbol
 _atom_site_label
 _atom_site_symmetry_multiplicity
 _atom_site_fract_x
 _atom_site_fract_y
 _atom_site_fract_z
 _atom_site_occupancy
  Zr  Zr0  1  0.34096000  0.83571400  0.10464600  1.0
  Zr  Zr1  1  0.83177000  0.66351600  0.14511600  1.0
  Zr  Zr2  1  0.33267900  0.14588300  0.02748400  1.0
  Zr  Zr3  1  0.33471700  0.49990600  0.18862100  1.0
  Zr  Zr4  1  0.85206500  0.98808400  0.06211700  1.0
  Zr  Zr5  1  0.83406100  0.33384400  0.22860000  1.0
  Zr  Zr6  1  0.15904000  0.33571400  0.10464600  1.0
  Zr  Zr7  1  0.66823000  0.16351600  0.14511600  1.0
  Zr  Zr8  1  0.16732100  0.64588300  0.02748400  1.0
  Zr  Zr9  1  0.16528300  0.99990600  0.18862100  1.0
  Zr  Zr10  1  0.64793500  0.48808400  0.06211700  1.0
  Zr  Zr11  1  0.66593900  0.83384400  0.22860000  1.0
  Zr  Zr12  1  0.33177000  0.83648400  0.35488400  1.0
  Zr  Zr13  1  0.84096000  0.66428600  0.39535400  1.0
  Zr  Zr14  1  0.33406100  0.16615600  0.27140000  1.0
  Zr  Zr15  1  0.35206500  0.51191600  0.43788300  1.0
  Zr  Zr16  1  0.83471700  0.00009400  0.31137900  1.0
  Zr  Zr17  1  0.83267900  0.35411700  0.47251600  1.0
  Zr  Zr18  1  0.16823000  0.33648400  0.35488400  1.0
  Zr  Zr19  1  0.65904000  0.16428600  0.39535400  1.0
  Zr  Zr20  1  0.16593900  0.66615600  0.27140000  1.0
  Zr  Zr21  1  0.14793500  0.01191600  0.43788300  1.0
  Zr  Zr22  1  0.66528300  0.50009400  0.31137900  1.0
  Zr  Zr23  1  0.66732100  0.85411700  0.47251600  1.0
