# generated using pymatgen
data_Zr
_symmetry_space_group_name_H-M   'P 1'
_cell_length_a   3.23538600
_cell_length_b   3.23538560
_cell_length_c   41.48491700
_cell_angle_alpha   90.00000000
_cell_angle_beta   90.00000000
_cell_angle_gamma   120.00000414
_symmetry_Int_Tables_number   1
_chemical_formula_structural   Zr
_chemical_formula_sum   Zr8
_cell_volume   376.07372277
_cell_formula_units_Z   8
loop_
 _symmetry_equiv_pos_site_id
 _symmetry_equiv_pos_as_xyz
  1  'x, y, z'
loop_
 _atom_site_type_symbol
 _atom_site_label
 _atom_site_symmetry_multiplicity
 _atom_site_fract_x
 _atom_site_fract_y
 _atom_site_fract_z
 _atom_site_occupancy
  Zr  Zr0  1  0.33333333  0.66666667  0.34194000  1.0
  Zr  Zr1  1  0.66666667  0.33333333  0.28334700  1.0
  Zr  Zr2  1  0.33333333  0.66666667  0.46896900  1.0
  Zr  Zr3  1  0.66666667  0.33333333  0.40584500  1.0
  Zr  Zr4  1  0.33333333  0.66666667  0.59415500  1.0
  Zr  Zr5  1  0.66666667  0.33333333  0.53103100  1.0
  Zr  Zr6  1  0.33333333  0.66666667  0.71665300  1.0
  Zr  Zr7  1  0.66666667  0.33333333  0.65806000  1.0
