# generated using pymatgen
data_In
_symmetry_space_group_name_H-M   'P 1'
_cell_length_a   7.51983764
_cell_length_b   5.79997496
_cell_length_c   36.21033675
_cell_angle_alpha   88.61848143
_cell_angle_beta   89.94266507
_cell_angle_gamma   77.04163185
_symmetry_Int_Tables_number   1
_chemical_formula_structural   In
_chemical_formula_sum   In28
_cell_volume   1538.62615793
_cell_formula_units_Z   28
loop_
 _symmetry_equiv_pos_site_id
 _symmetry_equiv_pos_as_xyz
  1  'x, y, z'
loop_
 _atom_site_type_symbol
 _atom_site_label
 _atom_site_symmetry_multiplicity
 _atom_site_fract_x
 _atom_site_fract_y
 _atom_site_fract_z
 _atom_site_occupancy
  In  In0  1  0.41624600  0.89233800  0.03828300  1.0
  In  In1  1  0.83807300  0.72374800  0.07064200  1.0
  In  In2  1  0.99357400  0.04822700  0.00802300  1.0
  In  In3  1  0.28482100  0.57114800  0.10859900  1.0
  In  In4  1  0.71382500  0.42435600  0.14089600  1.0
  In  In5  1  0.14629500  0.27394900  0.18035100  1.0
  In  In6  1  0.57632200  0.13731400  0.21310500  1.0
  In  In7  1  0.50485900  0.00027900  0.12547400  1.0
  In  In8  1  0.93537200  0.84237700  0.16071900  1.0
  In  In9  1  0.07066400  0.14519000  0.09401700  1.0
  In  In10  1  0.36326000  0.70332500  0.19676800  1.0
  In  In11  1  0.78724800  0.57093400  0.23101100  1.0
  In  In12  1  0.18452100  0.48179300  0.02142100  1.0
  In  In13  1  0.62607600  0.31696400  0.04855500  1.0
  In  In14  1  0.42199100  0.86835000  0.28532500  1.0
  In  In15  1  0.85006200  0.72914900  0.32138400  1.0
  In  In16  1  0.99791100  0.00090800  0.25117700  1.0
  In  In17  1  0.28085400  0.57151900  0.35666100  1.0
  In  In18  1  0.71568000  0.42552600  0.38812800  1.0
  In  In19  1  0.15976500  0.25370400  0.43371800  1.0
  In  In20  1  0.60153700  0.08937300  0.46071800  1.0
  In  In21  1  0.50098300  0.00036800  0.37355100  1.0
  In  In22  1  0.94784400  0.84711400  0.41145200  1.0
  In  In23  1  0.07216600  0.14754100  0.34123300  1.0
  In  In24  1  0.36977800  0.67866200  0.44380700  1.0
  In  In25  1  0.79262900  0.52329500  0.47417300  1.0
  In  In26  1  0.20899000  0.43476800  0.26898300  1.0
  In  In27  1  0.63865100  0.29778000  0.30182500  1.0
