# generated using pymatgen
data_In
_symmetry_space_group_name_H-M   'P 1'
_cell_length_a   3.40036608
_cell_length_b   3.40036608
_cell_length_c   28.48002669
_cell_angle_alpha   90.00000000
_cell_angle_beta   90.00000000
_cell_angle_gamma   91.47209708
_symmetry_Int_Tables_number   1
_chemical_formula_structural   In
_chemical_formula_sum   In6
_cell_volume   329.19132497
_cell_formula_units_Z   6
loop_
 _symmetry_equiv_pos_site_id
 _symmetry_equiv_pos_as_xyz
  1  'x, y, z'
loop_
 _atom_site_type_symbol
 _atom_site_label
 _atom_site_symmetry_multiplicity
 _atom_site_fract_x
 _atom_site_fract_y
 _atom_site_fract_z
 _atom_site_occupancy
  In  In0  1  0.50000000  0.50000000  0.08374400  1.0
  In  In1  1  0.00000000  0.00000000  0.00126000  1.0
  In  In2  1  0.50000000  0.50000000  0.25155100  1.0
  In  In3  1  0.00000000  0.00000000  0.16511600  1.0
  In  In4  1  0.50000000  0.50000000  0.41540700  1.0
  In  In5  1  0.00000000  0.00000000  0.33292200  1.0
