# generated using pymatgen
data_Au
_symmetry_space_group_name_H-M   'P 1'
_cell_length_a   4.17334600
_cell_length_b   7.75965206
_cell_length_c   23.55058270
_cell_angle_alpha   82.16981095
_cell_angle_beta   84.91670559
_cell_angle_gamma   74.40039281
_symmetry_Int_Tables_number   1
_chemical_formula_structural   Au
_chemical_formula_sum   Au20
_cell_volume   726.63345021
_cell_formula_units_Z   20
loop_
 _symmetry_equiv_pos_site_id
 _symmetry_equiv_pos_as_xyz
  1  'x, y, z'
loop_
 _atom_site_type_symbol
 _atom_site_label
 _atom_site_symmetry_multiplicity
 _atom_site_fract_x
 _atom_site_fract_y
 _atom_site_fract_z
 _atom_site_occupancy
  Au  Au0  1  0.40234400  0.75871000  0.43660200  1.0
  Au  Au1  1  0.19934800  0.26732800  0.33397700  1.0
  Au  Au2  1  0.99945800  0.51415200  0.48693200  1.0
  Au  Au3  1  0.80116500  0.00764900  0.39002200  1.0
  Au  Au4  1  0.59837500  0.51104500  0.29220500  1.0
  Au  Au5  1  0.99798000  0.64595500  0.35808500  1.0
  Au  Au6  1  0.79898600  0.13075300  0.27127500  1.0
  Au  Au7  1  0.60051100  0.38504400  0.41393500  1.0
  Au  Au8  1  0.40312100  0.88644600  0.30731200  1.0
  Au  Au9  1  0.20012700  0.13836700  0.46137900  1.0
  Au  Au10  1  0.39687900  0.51355400  0.69268800  1.0
  Au  Au11  1  0.19948900  0.01495600  0.58606500  1.0
  Au  Au12  1  0.00101400  0.26924700  0.72872500  1.0
  Au  Au13  1  0.80202000  0.75404500  0.64191500  1.0
  Au  Au14  1  0.59987300  0.26163300  0.53862100  1.0
  Au  Au15  1  0.99883500  0.39235100  0.60997800  1.0
  Au  Au16  1  0.80054200  0.88584800  0.51306800  1.0
  Au  Au17  1  0.60065200  0.13267200  0.66602300  1.0
  Au  Au18  1  0.39765600  0.64129000  0.56339800  1.0
  Au  Au19  1  0.20162500  0.88895500  0.70779500  1.0
