# generated using pymatgen
data_In
_symmetry_space_group_name_H-M   'P 1'
_cell_length_a   3.41887900
_cell_length_b   8.35429456
_cell_length_c   23.07680503
_cell_angle_alpha   91.53484130
_cell_angle_beta   90.00000000
_cell_angle_gamma   90.00000000
_symmetry_Int_Tables_number   1
_chemical_formula_structural   In
_chemical_formula_sum   In12
_cell_volume   658.89066106
_cell_formula_units_Z   12
loop_
 _symmetry_equiv_pos_site_id
 _symmetry_equiv_pos_as_xyz
  1  'x, y, z'
loop_
 _atom_site_type_symbol
 _atom_site_label
 _atom_site_symmetry_multiplicity
 _atom_site_fract_x
 _atom_site_fract_y
 _atom_site_fract_z
 _atom_site_occupancy
  In  In0  1  0.00000000  0.62909000  0.06760200  1.0
  In  In1  1  0.00000000  0.98829700  0.22395700  1.0
  In  In2  1  0.00000000  0.30839700  0.15548700  1.0
  In  In3  1  0.50000000  0.65114100  0.18935300  1.0
  In  In4  1  0.50000000  0.96304400  0.09667100  1.0
  In  In5  1  0.50000000  0.29699100  0.03321700  1.0
  In  In6  1  0.00000000  0.68219300  0.31064700  1.0
  In  In7  1  0.00000000  0.03634200  0.46678300  1.0
  In  In8  1  0.00000000  0.37028900  0.40332900  1.0
  In  In9  1  0.50000000  0.70424400  0.43239800  1.0
  In  In10  1  0.50000000  0.02493600  0.34451300  1.0
  In  In11  1  0.50000000  0.34503600  0.27604300  1.0
