# generated using pymatgen
data_Tl
_symmetry_space_group_name_H-M   'P 1'
_cell_length_a   4.05565300
_cell_length_b   8.78966123
_cell_length_c   35.15864490
_cell_angle_alpha   90.00000000
_cell_angle_beta   90.00000000
_cell_angle_gamma   90.00000000
_symmetry_Int_Tables_number   1
_chemical_formula_structural   Tl
_chemical_formula_sum   Tl20
_cell_volume   1253.32890197
_cell_formula_units_Z   20
loop_
 _symmetry_equiv_pos_site_id
 _symmetry_equiv_pos_as_xyz
  1  'x, y, z'
loop_
 _atom_site_type_symbol
 _atom_site_label
 _atom_site_symmetry_multiplicity
 _atom_site_fract_x
 _atom_site_fract_y
 _atom_site_fract_z
 _atom_site_occupancy
  Tl  Tl0  1  0.00000000  0.60314000  0.19882200  1.0
  Tl  Tl1  1  0.00000000  0.21022100  0.14939000  1.0
  Tl  Tl2  1  0.00000000  0.80365400  0.10000800  1.0
  Tl  Tl3  1  0.00000000  0.38726200  0.04442200  1.0
  Tl  Tl4  1  0.00000000  0.98953600  0.00427700  1.0
  Tl  Tl5  1  0.50000000  0.50529600  0.12222900  1.0
  Tl  Tl6  1  0.50000000  0.10189700  0.07672500  1.0
  Tl  Tl7  1  0.50000000  0.68697000  0.02563100  1.0
  Tl  Tl8  1  0.50000000  0.30287100  0.22486100  1.0
  Tl  Tl9  1  0.50000000  0.90727800  0.17467200  1.0
  Tl  Tl10  1  0.00000000  0.61303000  0.44936900  1.0
  Tl  Tl11  1  0.00000000  0.19810300  0.39827500  1.0
  Tl  Tl12  1  0.00000000  0.79470400  0.35277100  1.0
  Tl  Tl13  1  0.00000000  0.39272200  0.30032800  1.0
  Tl  Tl14  1  0.00000000  0.99712900  0.25013900  1.0
  Tl  Tl15  1  0.50000000  0.49634600  0.37499200  1.0
  Tl  Tl16  1  0.50000000  0.08977900  0.32561000  1.0
  Tl  Tl17  1  0.50000000  0.69686000  0.27617800  1.0
  Tl  Tl18  1  0.50000000  0.31046400  0.47072300  1.0
  Tl  Tl19  1  0.50000000  0.91273800  0.43057800  1.0
