# generated using pymatgen
data_Tl
_symmetry_space_group_name_H-M   'P 1'
_cell_length_a   5.64650221
_cell_length_b   5.64650221
_cell_length_c   27.29194536
_cell_angle_alpha   90.00000000
_cell_angle_beta   90.00000000
_cell_angle_gamma   60.00000000
_symmetry_Int_Tables_number   1
_chemical_formula_structural   Tl
_chemical_formula_sum   Tl12
_cell_volume   753.57091805
_cell_formula_units_Z   12
loop_
 _symmetry_equiv_pos_site_id
 _symmetry_equiv_pos_as_xyz
  1  'x, y, z'
loop_
 _atom_site_type_symbol
 _atom_site_label
 _atom_site_symmetry_multiplicity
 _atom_site_fract_x
 _atom_site_fract_y
 _atom_site_fract_z
 _atom_site_occupancy
  Tl  Tl0  1  0.66666667  0.66666667  0.07468100  1.0
  Tl  Tl1  1  0.00000000  0.00000000  0.01255800  1.0
  Tl  Tl2  1  0.33333333  0.33333333  0.16536200  1.0
  Tl  Tl3  1  0.66666667  0.66666667  0.20264400  1.0
  Tl  Tl4  1  0.00000000  0.00000000  0.13391700  1.0
  Tl  Tl5  1  0.33333333  0.33333333  0.04113700  1.0
  Tl  Tl6  1  0.66666667  0.66666667  0.32441600  1.0
  Tl  Tl7  1  0.00000000  0.00000000  0.25568900  1.0
  Tl  Tl8  1  0.33333333  0.33333333  0.41719700  1.0
  Tl  Tl9  1  0.66666667  0.66666667  0.44577500  1.0
  Tl  Tl10  1  0.00000000  0.00000000  0.38365200  1.0
  Tl  Tl11  1  0.33333333  0.33333333  0.29297200  1.0
