# generated using pymatgen
data_Tl
_symmetry_space_group_name_H-M   'P 1'
_cell_length_a   3.84873000
_cell_length_b   6.66075530
_cell_length_c   25.50685508
_cell_angle_alpha   89.99999728
_cell_angle_beta   90.00000000
_cell_angle_gamma   106.79276615
_symmetry_Int_Tables_number   1
_chemical_formula_structural   Tl
_chemical_formula_sum   Tl10
_cell_volume   625.99561904
_cell_formula_units_Z   10
loop_
 _symmetry_equiv_pos_site_id
 _symmetry_equiv_pos_as_xyz
  1  'x, y, z'
loop_
 _atom_site_type_symbol
 _atom_site_label
 _atom_site_symmetry_multiplicity
 _atom_site_fract_x
 _atom_site_fract_y
 _atom_site_fract_z
 _atom_site_occupancy
  Tl  Tl0  1  0.71292700  0.42585500  0.43658700  1.0
  Tl  Tl1  1  0.43856600  0.87713200  0.41734300  1.0
  Tl  Tl2  1  0.10129000  0.20257900  0.33646700  1.0
  Tl  Tl3  1  0.82626900  0.65253800  0.31398200  1.0
  Tl  Tl4  1  0.48666300  0.97332700  0.23773400  1.0
  Tl  Tl5  1  0.21333700  0.42667300  0.21226600  1.0
  Tl  Tl6  1  0.87373100  0.74746200  0.13601800  1.0
  Tl  Tl7  1  0.59871000  0.19742100  0.11353300  1.0
  Tl  Tl8  1  0.26143400  0.52286800  0.03265700  1.0
  Tl  Tl9  1  0.98707300  0.97414500  0.01341300  1.0
