# generated using pymatgen
data_Tl
_symmetry_space_group_name_H-M   'P 1'
_cell_length_a   3.44428328
_cell_length_b   5.66527023
_cell_length_c   38.58067499
_cell_angle_alpha   90.00000000
_cell_angle_beta   89.75399447
_cell_angle_gamma   90.00000000
_symmetry_Int_Tables_number   1
_chemical_formula_structural   Tl
_chemical_formula_sum   Tl12
_cell_volume   752.80988338
_cell_formula_units_Z   12
loop_
 _symmetry_equiv_pos_site_id
 _symmetry_equiv_pos_as_xyz
  1  'x, y, z'
loop_
 _atom_site_type_symbol
 _atom_site_label
 _atom_site_symmetry_multiplicity
 _atom_site_fract_x
 _atom_site_fract_y
 _atom_site_fract_z
 _atom_site_occupancy
  Tl  Tl0  1  0.00557400  0.99999600  0.99298300  1.0
  Tl  Tl1  1  0.50894700  0.49999500  0.96437900  1.0
  Tl  Tl2  1  0.53310800  0.00000700  0.91296500  1.0
  Tl  Tl3  1  0.01879600  0.50000500  0.88111600  1.0
  Tl  Tl4  1  0.31832400  0.00000000  0.82868000  1.0
  Tl  Tl5  1  0.79838500  0.49999800  0.79573700  1.0
  Tl  Tl6  1  0.87146400  0.99999500  0.74578900  1.0
  Tl  Tl7  1  0.34997700  0.49999800  0.71295800  1.0
  Tl  Tl8  1  0.64576600  0.00000200  0.66046200  1.0
  Tl  Tl9  1  0.13209900  0.50000500  0.62877900  1.0
  Tl  Tl10  1  0.15595200  0.99999800  0.57734200  1.0
  Tl  Tl11  1  0.66160800  0.50000000  0.54881200  1.0
