# generated using pymatgen
data_Tl
_symmetry_space_group_name_H-M   'P 1'
_cell_length_a   5.68140641
_cell_length_b   9.78595345
_cell_length_c   21.38736717
_cell_angle_alpha   87.04543751
_cell_angle_beta   82.36733066
_cell_angle_gamma   73.12505589
_symmetry_Int_Tables_number   1
_chemical_formula_structural   Tl
_chemical_formula_sum   Tl18
_cell_volume   1127.70520089
_cell_formula_units_Z   18
loop_
 _symmetry_equiv_pos_site_id
 _symmetry_equiv_pos_as_xyz
  1  'x, y, z'
loop_
 _atom_site_type_symbol
 _atom_site_label
 _atom_site_symmetry_multiplicity
 _atom_site_fract_x
 _atom_site_fract_y
 _atom_site_fract_z
 _atom_site_occupancy
  Tl  Tl0  1  0.60234200  0.38180400  0.41351200  1.0
  Tl  Tl1  1  0.37574100  0.95107600  0.29744100  1.0
  Tl  Tl2  1  0.97735000  0.69601800  0.34928100  1.0
  Tl  Tl3  1  0.79221100  0.04620600  0.36937400  1.0
  Tl  Tl4  1  0.56502500  0.58061100  0.28933800  1.0
  Tl  Tl5  1  0.18066500  0.32168100  0.31698900  1.0
  Tl  Tl6  1  0.43546900  0.56472600  0.56433700  1.0
  Tl  Tl7  1  0.20694600  0.13266200  0.45344600  1.0
  Tl  Tl8  1  0.81897800  0.84568500  0.51635800  1.0
  Tl  Tl9  1  0.62638700  0.20067100  0.54655400  1.0
  Tl  Tl10  1  0.39786500  0.76860700  0.43566300  1.0
  Tl  Tl11  1  0.01435500  0.48764800  0.48364200  1.0
  Tl  Tl12  1  0.26830800  0.75272200  0.71066200  1.0
  Tl  Tl13  1  0.04112300  0.28712800  0.63062600  1.0
  Tl  Tl14  1  0.65266900  0.01165200  0.68301100  1.0
  Tl  Tl15  1  0.45759200  0.38225700  0.70255900  1.0
  Tl  Tl16  1  0.23099100  0.95153000  0.58648800  1.0
  Tl  Tl17  1  0.85598300  0.63731600  0.65071900  1.0
