# generated using pymatgen
data_Tl
_symmetry_space_group_name_H-M   'P 1'
_cell_length_a   5.63483265
_cell_length_b   12.66014491
_cell_length_c   34.20393750
_cell_angle_alpha   89.07899360
_cell_angle_beta   89.59679221
_cell_angle_gamma   77.33260366
_symmetry_Int_Tables_number   1
_chemical_formula_structural   Tl
_chemical_formula_sum   Tl38
_cell_volume   2380.31892060
_cell_formula_units_Z   38
loop_
 _symmetry_equiv_pos_site_id
 _symmetry_equiv_pos_as_xyz
  1  'x, y, z'
loop_
 _atom_site_type_symbol
 _atom_site_label
 _atom_site_symmetry_multiplicity
 _atom_site_fract_x
 _atom_site_fract_y
 _atom_site_fract_z
 _atom_site_occupancy
  Tl  Tl0  1  0.83218500  0.34080500  0.01916400  1.0
  Tl  Tl1  1  0.68377900  0.63865900  0.04585100  1.0
  Tl  Tl2  1  0.53097200  0.94647000  0.07004300  1.0
  Tl  Tl3  1  0.01026500  0.97529900  0.48398500  1.0
  Tl  Tl4  1  0.36699700  0.27443900  0.10492200  1.0
  Tl  Tl5  1  0.21097100  0.58454800  0.12360600  1.0
  Tl  Tl6  1  0.04920700  0.90541000  0.14912300  1.0
  Tl  Tl7  1  0.89345800  0.21243000  0.17496700  1.0
  Tl  Tl8  1  0.73258900  0.53168300  0.20353700  1.0
  Tl  Tl9  1  0.57494400  0.84697500  0.23205800  1.0
  Tl  Tl10  1  0.42283300  0.15617800  0.25694400  1.0
  Tl  Tl11  1  0.26859100  0.46913200  0.28605300  1.0
  Tl  Tl12  1  0.11087100  0.78064300  0.30636900  1.0
  Tl  Tl13  1  0.94823700  0.10297800  0.33625800  1.0
  Tl  Tl14  1  0.79159900  0.41203400  0.36107800  1.0
  Tl  Tl15  1  0.62944000  0.73197500  0.38776700  1.0
  Tl  Tl16  1  0.47202400  0.04879600  0.42148900  1.0
  Tl  Tl17  1  0.31430800  0.36203100  0.44413500  1.0
  Tl  Tl18  1  0.15932700  0.67559700  0.46746000  1.0
  Tl  Tl19  1  0.79060800  0.42621500  0.11238900  1.0
  Tl  Tl20  1  0.62938600  0.74587200  0.13891300  1.0
  Tl  Tl21  1  0.47321900  0.05520400  0.16358400  1.0
  Tl  Tl22  1  0.94930300  0.10861900  0.07861100  1.0
  Tl  Tl23  1  0.31022200  0.37752100  0.19362000  1.0
  Tl  Tl24  1  0.15309500  0.68884400  0.21390400  1.0
  Tl  Tl25  1  0.99874200  0.00171900  0.24300700  1.0
  Tl  Tl26  1  0.84678200  0.31140400  0.26778900  1.0
  Tl  Tl27  1  0.68844200  0.62675300  0.29651200  1.0
  Tl  Tl28  1  0.52788800  0.94536500  0.32501900  1.0
  Tl  Tl29  1  0.37250500  0.25225500  0.35084600  1.0
  Tl  Tl30  1  0.20933900  0.57324900  0.37632900  1.0
  Tl  Tl31  1  0.05334600  0.88384200  0.39501400  1.0
  Tl  Tl32  1  0.89000900  0.21083100  0.42985800  1.0
  Tl  Tl33  1  0.73658500  0.51917200  0.45405400  1.0
  Tl  Tl34  1  0.58908200  0.81682600  0.48114800  1.0
  Tl  Tl35  1  0.41141900  0.18209900  0.01614700  1.0
  Tl  Tl36  1  0.26122600  0.48253100  0.03235500  1.0
  Tl  Tl37  1  0.10620600  0.79560000  0.05574700  1.0
