# generated using pymatgen
data_Tl
_symmetry_space_group_name_H-M   'P 1'
_cell_length_a   5.62949912
_cell_length_b   11.86398091
_cell_length_c   32.77797731
_cell_angle_alpha   90.50789358
_cell_angle_beta   90.00000000
_cell_angle_gamma   103.72438964
_symmetry_Int_Tables_number   1
_chemical_formula_structural   Tl
_chemical_formula_sum   Tl29
_cell_volume   2126.59074076
_cell_formula_units_Z   29
loop_
 _symmetry_equiv_pos_site_id
 _symmetry_equiv_pos_as_xyz
  1  'x, y, z'
loop_
 _atom_site_type_symbol
 _atom_site_label
 _atom_site_symmetry_multiplicity
 _atom_site_fract_x
 _atom_site_fract_y
 _atom_site_fract_z
 _atom_site_occupancy
  Tl  Tl0  1  0.88323100  0.77025300  0.33635800  1.0
  Tl  Tl1  1  0.99899100  0.99452200  0.73712200  1.0
  Tl  Tl2  1  0.16994400  0.35284200  0.37022800  1.0
  Tl  Tl3  1  0.76273300  0.52591200  0.41112500  1.0
  Tl  Tl4  1  0.94130500  0.88235900  0.53680200  1.0
  Tl  Tl5  1  0.46202000  0.93310100  0.38495000  1.0
  Tl  Tl6  1  0.06363200  0.12985900  0.45490100  1.0
  Tl  Tl7  1  0.64975200  0.29536100  0.50213000  1.0
  Tl  Tl8  1  0.23295100  0.46935000  0.57138400  1.0
  Tl  Tl9  1  0.81853600  0.63482600  0.61865000  1.0
  Tl  Tl10  1  0.35589300  0.71551600  0.47851700  1.0
  Tl  Tl11  1  0.52668500  0.04932200  0.59496600  1.0
  Tl  Tl12  1  0.11955300  0.23881500  0.66232700  1.0
  Tl  Tl13  1  0.71185000  0.41179500  0.70336800  1.0
  Tl  Tl14  1  0.42037800  0.83143100  0.68864000  1.0
  Tl  Tl15  1  0.32336800  0.64684300  0.37660000  1.0
  Tl  Tl16  1  0.91264900  0.83090000  0.43611000  1.0
  Tl  Tl17  1  0.02423400  0.06174800  0.35211500  1.0
  Tl  Tl18  1  0.60573200  0.22094900  0.39964000  1.0
  Tl  Tl19  1  0.21571700  0.42835100  0.46890900  1.0
  Tl  Tl20  1  0.79201800  0.58700700  0.51655600  1.0
  Tl  Tl21  1  0.96974500  0.93378000  0.63736000  1.0
  Tl  Tl22  1  0.50099500  0.00292600  0.49049100  1.0
  Tl  Tl23  1  0.09088700  0.17771400  0.55691500  1.0
  Tl  Tl24  1  0.66728600  0.33663300  0.60467000  1.0
  Tl  Tl25  1  0.27614300  0.54353900  0.67390300  1.0
  Tl  Tl26  1  0.85801000  0.70287500  0.72144700  1.0
  Tl  Tl27  1  0.38115100  0.76186600  0.58312300  1.0
  Tl  Tl28  1  0.55873100  0.11785200  0.69684100  1.0
