# generated using pymatgen
data_Cu
_symmetry_space_group_name_H-M   'P 1'
_cell_length_a   5.11437183
_cell_length_b   6.26380066
_cell_length_c   35.43340741
_cell_angle_alpha   90.00000000
_cell_angle_beta   90.00000000
_cell_angle_gamma   90.00000000
_symmetry_Int_Tables_number   1
_chemical_formula_structural   Cu
_chemical_formula_sum   Cu48
_cell_volume   1135.12357974
_cell_formula_units_Z   48
loop_
 _symmetry_equiv_pos_site_id
 _symmetry_equiv_pos_as_xyz
  1  'x, y, z'
loop_
 _atom_site_type_symbol
 _atom_site_label
 _atom_site_symmetry_multiplicity
 _atom_site_fract_x
 _atom_site_fract_y
 _atom_site_fract_z
 _atom_site_occupancy
  Cu  Cu0  1  0.00000000  0.99441800  0.00276300  1.0
  Cu  Cu1  1  0.50000000  0.33631300  0.03920000  1.0
  Cu  Cu2  1  0.00000000  0.66893500  0.08266600  1.0
  Cu  Cu3  1  0.50000000  0.99981400  0.12354300  1.0
  Cu  Cu4  1  0.00000000  0.33300600  0.16609600  1.0
  Cu  Cu5  1  0.50000000  0.66653700  0.20807300  1.0
  Cu  Cu6  1  0.00000000  0.33575800  0.03938600  1.0
  Cu  Cu7  1  0.50000000  0.66827100  0.08199800  1.0
  Cu  Cu8  1  0.00000000  0.00028100  0.12407300  1.0
  Cu  Cu9  1  0.50000000  0.33277500  0.16597100  1.0
  Cu  Cu10  1  0.00000000  0.66676200  0.20787500  1.0
  Cu  Cu11  1  0.50000000  0.99989200  0.25011800  1.0
  Cu  Cu12  1  0.74544700  0.00548900  0.06054600  1.0
  Cu  Cu13  1  0.25003100  0.33359300  0.10292000  1.0
  Cu  Cu14  1  0.74921200  0.66629900  0.14503400  1.0
  Cu  Cu15  1  0.25055800  0.99995100  0.18694300  1.0
  Cu  Cu16  1  0.74978500  0.33326600  0.22906600  1.0
  Cu  Cu17  1  0.24994900  0.66732600  0.02077900  1.0
  Cu  Cu18  1  0.25455300  0.00548900  0.06054600  1.0
  Cu  Cu19  1  0.74996900  0.33359300  0.10292000  1.0
  Cu  Cu20  1  0.25078800  0.66629900  0.14503400  1.0
  Cu  Cu21  1  0.74944200  0.99995100  0.18694300  1.0
  Cu  Cu22  1  0.25021500  0.33326600  0.22906600  1.0
  Cu  Cu23  1  0.75005100  0.66732600  0.02077900  1.0
  Cu  Cu24  1  0.00000000  0.00010800  0.24988200  1.0
  Cu  Cu25  1  0.50000000  0.33323800  0.29212500  1.0
  Cu  Cu26  1  0.00000000  0.66722500  0.33402900  1.0
  Cu  Cu27  1  0.50000000  0.99971900  0.37592700  1.0
  Cu  Cu28  1  0.00000000  0.33172900  0.41800200  1.0
  Cu  Cu29  1  0.50000000  0.66424200  0.46061400  1.0
  Cu  Cu30  1  0.00000000  0.33346300  0.29192700  1.0
  Cu  Cu31  1  0.50000000  0.66699400  0.33390400  1.0
  Cu  Cu32  1  0.00000000  0.00018600  0.37645700  1.0
  Cu  Cu33  1  0.50000000  0.33106500  0.41733400  1.0
  Cu  Cu34  1  0.00000000  0.66368700  0.46080000  1.0
  Cu  Cu35  1  0.50000000  0.00558200  0.49723700  1.0
  Cu  Cu36  1  0.75055800  0.00004900  0.31305700  1.0
  Cu  Cu37  1  0.24921200  0.33370100  0.35496600  1.0
  Cu  Cu38  1  0.75003100  0.66640700  0.39708000  1.0
  Cu  Cu39  1  0.24544700  0.99451100  0.43945400  1.0
  Cu  Cu40  1  0.74994900  0.33267400  0.47922100  1.0
  Cu  Cu41  1  0.24978500  0.66673400  0.27093400  1.0
  Cu  Cu42  1  0.24944200  0.00004900  0.31305700  1.0
  Cu  Cu43  1  0.75078800  0.33370100  0.35496600  1.0
  Cu  Cu44  1  0.24996900  0.66640700  0.39708000  1.0
  Cu  Cu45  1  0.75455300  0.99451100  0.43945400  1.0
  Cu  Cu46  1  0.25005100  0.33267400  0.47922100  1.0
  Cu  Cu47  1  0.75021500  0.66673400  0.27093400  1.0
