# generated using pymatgen
data_Cu
_symmetry_space_group_name_H-M   'P 1'
_cell_length_a   3.61640700
_cell_length_b   4.42917633
_cell_length_c   32.34612755
_cell_angle_alpha   90.00000579
_cell_angle_beta   90.00000000
_cell_angle_gamma   114.09484728
_symmetry_Int_Tables_number   1
_chemical_formula_structural   Cu
_chemical_formula_sum   Cu20
_cell_volume   472.96818399
_cell_formula_units_Z   20
loop_
 _symmetry_equiv_pos_site_id
 _symmetry_equiv_pos_as_xyz
  1  'x, y, z'
loop_
 _atom_site_type_symbol
 _atom_site_label
 _atom_site_symmetry_multiplicity
 _atom_site_fract_x
 _atom_site_fract_y
 _atom_site_fract_z
 _atom_site_occupancy
  Cu  Cu0  1  0.60000700  0.20001300  0.19969100  1.0
  Cu  Cu1  1  0.19955600  0.39911100  0.14904700  1.0
  Cu  Cu2  1  0.80170900  0.60341900  0.09901400  1.0
  Cu  Cu3  1  0.39883200  0.79766400  0.04692900  1.0
  Cu  Cu4  1  0.00278000  0.00556100  0.00169700  1.0
  Cu  Cu5  1  0.90024400  0.80048800  0.17465700  1.0
  Cu  Cu6  1  0.49993600  0.99987100  0.12383800  1.0
  Cu  Cu7  1  0.10240400  0.20480800  0.07370300  1.0
  Cu  Cu8  1  0.70103600  0.40207300  0.02316300  1.0
  Cu  Cu9  1  0.29983600  0.59967200  0.22460100  1.0
  Cu  Cu10  1  0.59896400  0.19792700  0.45183700  1.0
  Cu  Cu11  1  0.19759600  0.39519200  0.40129700  1.0
  Cu  Cu12  1  0.80006400  0.60012900  0.35116200  1.0
  Cu  Cu13  1  0.39975600  0.79951200  0.30034300  1.0
  Cu  Cu14  1  0.00016400  0.00032800  0.25039900  1.0
  Cu  Cu15  1  0.90116800  0.80233600  0.42807100  1.0
  Cu  Cu16  1  0.49829100  0.99658100  0.37598600  1.0
  Cu  Cu17  1  0.10044400  0.20088900  0.32595300  1.0
  Cu  Cu18  1  0.69999300  0.39998700  0.27530900  1.0
  Cu  Cu19  1  0.29722000  0.59443900  0.47330300  1.0
