# generated using pymatgen
data_Cu
_symmetry_space_group_name_H-M   'P 1'
_cell_length_a   2.55700136
_cell_length_b   5.71719057
_cell_length_c   29.92885335
_cell_angle_alpha   86.71251712
_cell_angle_beta   87.55169268
_cell_angle_gamma   77.07802593
_symmetry_Int_Tables_number   1
_chemical_formula_structural   Cu
_chemical_formula_sum   Cu18
_cell_volume   425.54298714
_cell_formula_units_Z   18
loop_
 _symmetry_equiv_pos_site_id
 _symmetry_equiv_pos_as_xyz
  1  'x, y, z'
loop_
 _atom_site_type_symbol
 _atom_site_label
 _atom_site_symmetry_multiplicity
 _atom_site_fract_x
 _atom_site_fract_y
 _atom_site_fract_z
 _atom_site_occupancy
  Cu  Cu0  1  0.06807400  0.59824900  0.26560600  1.0
  Cu  Cu1  1  0.37586400  0.95875800  0.28951300  1.0
  Cu  Cu2  1  0.59774300  0.40269200  0.40182200  1.0
  Cu  Cu3  1  0.68511200  0.31308300  0.31669400  1.0
  Cu  Cu4  1  0.98694500  0.67971800  0.34639500  1.0
  Cu  Cu5  1  0.29165300  0.04282400  0.37386800  1.0
  Cu  Cu6  1  0.90285300  0.76441000  0.42988700  1.0
  Cu  Cu7  1  0.20852100  0.12496600  0.45799000  1.0
  Cu  Cu8  1  0.43048100  0.56892400  0.57011400  1.0
  Cu  Cu9  1  0.51380600  0.48647800  0.48591100  1.0
  Cu  Cu10  1  0.81952800  0.84685600  0.51408900  1.0
  Cu  Cu11  1  0.12481100  0.20836600  0.54201000  1.0
  Cu  Cu12  1  0.73559100  0.93064200  0.59817800  1.0
  Cu  Cu13  1  0.04167900  0.29050800  0.62613200  1.0
  Cu  Cu14  1  0.26526000  0.73508500  0.73439400  1.0
  Cu  Cu15  1  0.34638900  0.65361600  0.65360500  1.0
  Cu  Cu16  1  0.64822200  0.02025100  0.68330600  1.0
  Cu  Cu17  1  0.95746800  0.37457400  0.71048700  1.0
