# generated using pymatgen
data_Cu
_symmetry_space_group_name_H-M   'P 1'
_cell_length_a   2.55691368
_cell_length_b   4.42859255
_cell_length_c   26.19734870
_cell_angle_alpha   88.37900301
_cell_angle_beta   87.20279759
_cell_angle_gamma   73.22089924
_symmetry_Int_Tables_number   1
_chemical_formula_structural   Cu
_chemical_formula_sum   Cu12
_cell_volume   283.64699486
_cell_formula_units_Z   12
loop_
 _symmetry_equiv_pos_site_id
 _symmetry_equiv_pos_as_xyz
  1  'x, y, z'
loop_
 _atom_site_type_symbol
 _atom_site_label
 _atom_site_symmetry_multiplicity
 _atom_site_fract_x
 _atom_site_fract_y
 _atom_site_fract_z
 _atom_site_occupancy
  Cu  Cu0  1  0.35168000  0.94404000  0.35260100  1.0
  Cu  Cu1  1  0.93596000  0.85584200  0.27223800  1.0
  Cu  Cu2  1  0.64662900  0.39781600  0.30892600  1.0
  Cu  Cu3  1  0.47903500  0.56268700  0.47924300  1.0
  Cu  Cu4  1  0.06193200  0.48140500  0.39473000  1.0
  Cu  Cu5  1  0.77079300  0.02191800  0.43649600  1.0
  Cu  Cu6  1  0.60473500  0.18526200  0.60527000  1.0
  Cu  Cu7  1  0.18763200  0.10398000  0.52075700  1.0
  Cu  Cu8  1  0.89587300  0.64474800  0.56350400  1.0
  Cu  Cu9  1  0.73070700  0.81082500  0.72776200  1.0
  Cu  Cu10  1  0.31498700  0.72262700  0.64739900  1.0
  Cu  Cu11  1  0.02003700  0.26885000  0.69107400  1.0
