# generated using pymatgen
data_Au
_symmetry_space_group_name_H-M   'P 1'
_cell_length_a   5.12223013
_cell_length_b   6.61831610
_cell_length_c   26.75116761
_cell_angle_alpha   92.45111450
_cell_angle_beta   93.16767464
_cell_angle_gamma   105.20724634
_symmetry_Int_Tables_number   1
_chemical_formula_structural   Au
_chemical_formula_sum   Au24
_cell_volume   872.24152760
_cell_formula_units_Z   24
loop_
 _symmetry_equiv_pos_site_id
 _symmetry_equiv_pos_as_xyz
  1  'x, y, z'
loop_
 _atom_site_type_symbol
 _atom_site_label
 _atom_site_symmetry_multiplicity
 _atom_site_fract_x
 _atom_site_fract_y
 _atom_site_fract_z
 _atom_site_occupancy
  Au  Au0  1  0.91806800  0.28027900  0.36775700  1.0
  Au  Au1  1  0.15846000  0.10394800  0.28372600  1.0
  Au  Au2  1  0.02569900  0.68859800  0.31723700  1.0
  Au  Au3  1  0.59189400  0.89196500  0.30076300  1.0
  Au  Au4  1  0.46165600  0.49291100  0.33967300  1.0
  Au  Au5  1  0.72208700  0.29747300  0.26889500  1.0
  Au  Au6  1  0.53117100  0.02189900  0.48990400  1.0
  Au  Au7  1  0.78328100  0.85320700  0.40603900  1.0
  Au  Au8  1  0.65323300  0.43864600  0.44716200  1.0
  Au  Au9  1  0.22251500  0.65015900  0.42687000  1.0
  Au  Au10  1  0.09102500  0.22953200  0.46916600  1.0
  Au  Au11  1  0.34840400  0.06411600  0.38605200  1.0
  Au  Au12  1  0.15159600  0.76921700  0.61394800  1.0
  Au  Au13  1  0.40897500  0.60380200  0.53083400  1.0
  Au  Au14  1  0.27748500  0.18317400  0.57313000  1.0
  Au  Au15  1  0.84676700  0.39468700  0.55283800  1.0
  Au  Au16  1  0.71671900  0.98012700  0.59396100  1.0
  Au  Au17  1  0.96882900  0.81143400  0.51009600  1.0
  Au  Au18  1  0.77791300  0.53586000  0.73110500  1.0
  Au  Au19  1  0.03834400  0.34042300  0.66032700  1.0
  Au  Au20  1  0.90810600  0.94136800  0.69923700  1.0
  Au  Au21  1  0.47430100  0.14473500  0.68276300  1.0
  Au  Au22  1  0.34154000  0.72938600  0.71627400  1.0
  Au  Au23  1  0.58193200  0.55305400  0.63224300  1.0
