# generated using pymatgen
data_Cu
_symmetry_space_group_name_H-M   'P 1'
_cell_length_a   4.42860193
_cell_length_b   5.71730504
_cell_length_c   23.29390424
_cell_angle_alpha   92.81334257
_cell_angle_beta   93.63299016
_cell_angle_gamma   104.96344386
_symmetry_Int_Tables_number   1
_chemical_formula_structural   Cu
_chemical_formula_sum   Cu24
_cell_volume   567.33793688
_cell_formula_units_Z   24
loop_
 _symmetry_equiv_pos_site_id
 _symmetry_equiv_pos_as_xyz
  1  'x, y, z'
loop_
 _atom_site_type_symbol
 _atom_site_label
 _atom_site_symmetry_multiplicity
 _atom_site_fract_x
 _atom_site_fract_y
 _atom_site_fract_z
 _atom_site_occupancy
  Cu  Cu0  1  0.90864600  0.27314000  0.36392500  1.0
  Cu  Cu1  1  0.15750700  0.10485000  0.28224400  1.0
  Cu  Cu2  1  0.03210300  0.68899200  0.32086600  1.0
  Cu  Cu3  1  0.59436500  0.89527700  0.30087300  1.0
  Cu  Cu4  1  0.46645900  0.48466400  0.34107000  1.0
  Cu  Cu5  1  0.71950100  0.30925700  0.26469100  1.0
  Cu  Cu6  1  0.53067500  0.02067300  0.48962200  1.0
  Cu  Cu7  1  0.77991200  0.85277000  0.40591900  1.0
  Cu  Cu8  1  0.65610100  0.43656500  0.44728000  1.0
  Cu  Cu9  1  0.21936600  0.64445300  0.42687400  1.0
  Cu  Cu10  1  0.09227400  0.22895600  0.46819400  1.0
  Cu  Cu11  1  0.34332400  0.06119400  0.38519600  1.0
  Cu  Cu12  1  0.15667600  0.77213900  0.61480400  1.0
  Cu  Cu13  1  0.40772600  0.60437800  0.53180600  1.0
  Cu  Cu14  1  0.28063400  0.18888000  0.57312600  1.0
  Cu  Cu15  1  0.84389900  0.39676800  0.55272000  1.0
  Cu  Cu16  1  0.72008800  0.98056400  0.59408100  1.0
  Cu  Cu17  1  0.96932500  0.81266000  0.51037800  1.0
  Cu  Cu18  1  0.78049900  0.52407600  0.73530900  1.0
  Cu  Cu19  1  0.03354100  0.34867000  0.65893000  1.0
  Cu  Cu20  1  0.90563500  0.93805600  0.69912700  1.0
  Cu  Cu21  1  0.46789700  0.14434100  0.67913400  1.0
  Cu  Cu22  1  0.34249300  0.72848400  0.71775600  1.0
  Cu  Cu23  1  0.59135400  0.56019300  0.63607500  1.0
