# generated using pymatgen
data_Cu
_symmetry_space_group_name_H-M   'P 1'
_cell_length_a   3.61507300
_cell_length_b   6.75955603
_cell_length_c   30.17108415
_cell_angle_alpha   88.20409201
_cell_angle_beta   86.56537912
_cell_angle_gamma   74.49011970
_symmetry_Int_Tables_number   1
_chemical_formula_structural   Cu
_chemical_formula_sum   Cu30
_cell_volume   709.05517946
_cell_formula_units_Z   30
loop_
 _symmetry_equiv_pos_site_id
 _symmetry_equiv_pos_as_xyz
  1  'x, y, z'
loop_
 _atom_site_type_symbol
 _atom_site_label
 _atom_site_symmetry_multiplicity
 _atom_site_fract_x
 _atom_site_fract_y
 _atom_site_fract_z
 _atom_site_occupancy
  Cu  Cu0  1  0.40103200  0.82377500  0.37416100  1.0
  Cu  Cu1  1  0.39994100  0.65823600  0.54188200  1.0
  Cu  Cu2  1  0.39820500  0.49367400  0.70991600  1.0
  Cu  Cu3  1  0.20108100  0.29227900  0.30555900  1.0
  Cu  Cu4  1  0.20008900  0.12500300  0.47481900  1.0
  Cu  Cu5  1  0.19944300  0.95858700  0.64252800  1.0
  Cu  Cu6  1  0.99996300  0.26077000  0.73930400  1.0
  Cu  Cu7  1  0.00024700  0.59211700  0.40739000  1.0
  Cu  Cu8  1  0.99977000  0.42491600  0.57554500  1.0
  Cu  Cu9  1  0.80164100  0.05588200  0.34083500  1.0
  Cu  Cu10  1  0.79989600  0.89168700  0.50852100  1.0
  Cu  Cu11  1  0.79921800  0.72335900  0.67820500  1.0
  Cu  Cu12  1  0.60075800  0.52283100  0.27565300  1.0
  Cu  Cu13  1  0.60026900  0.35823400  0.44122700  1.0
  Cu  Cu14  1  0.59961100  0.19143700  0.60934000  1.0
  Cu  Cu15  1  0.00078200  0.67664100  0.32179500  1.0
  Cu  Cu16  1  0.00010400  0.50831300  0.49147900  1.0
  Cu  Cu17  1  0.99835900  0.34411800  0.65916500  1.0
  Cu  Cu18  1  0.80003700  0.13923000  0.26069600  1.0
  Cu  Cu19  1  0.80023000  0.97508400  0.42445500  1.0
  Cu  Cu20  1  0.79975300  0.80788300  0.59261000  1.0
  Cu  Cu21  1  0.60055700  0.44141300  0.35747200  1.0
  Cu  Cu22  1  0.59991100  0.27499700  0.52518100  1.0
  Cu  Cu23  1  0.59891900  0.10772100  0.69444100  1.0
  Cu  Cu24  1  0.40179500  0.90632600  0.29008400  1.0
  Cu  Cu25  1  0.40005900  0.74176400  0.45811800  1.0
  Cu  Cu26  1  0.39896800  0.57622500  0.62583900  1.0
  Cu  Cu27  1  0.20038900  0.20856300  0.39066000  1.0
  Cu  Cu28  1  0.19973100  0.04176600  0.55877300  1.0
  Cu  Cu29  1  0.19924200  0.87716900  0.72434700  1.0
