# generated using pymatgen
data_Cu
_symmetry_space_group_name_H-M   'P 1'
_cell_length_a   2.55699287
_cell_length_b   11.99284469
_cell_length_c   37.40451397
_cell_angle_alpha   98.38132949
_cell_angle_beta   90.00000000
_cell_angle_gamma   90.00000000
_symmetry_Int_Tables_number   1
_chemical_formula_structural   Cu
_chemical_formula_sum   Cu48
_cell_volume   1134.78210900
_cell_formula_units_Z   48
loop_
 _symmetry_equiv_pos_site_id
 _symmetry_equiv_pos_as_xyz
  1  'x, y, z'
loop_
 _atom_site_type_symbol
 _atom_site_label
 _atom_site_symmetry_multiplicity
 _atom_site_fract_x
 _atom_site_fract_y
 _atom_site_fract_z
 _atom_site_occupancy
  Cu  Cu0  1  0.00000000  0.11107200  0.73456000  1.0
  Cu  Cu1  1  0.00000000  0.94287300  0.56810900  1.0
  Cu  Cu2  1  0.00000000  0.77533000  0.40054100  1.0
  Cu  Cu3  1  0.00000000  0.81275900  0.69435100  1.0
  Cu  Cu4  1  0.00000000  0.65080200  0.52613800  1.0
  Cu  Cu5  1  0.00000000  0.48270200  0.35877300  1.0
  Cu  Cu6  1  0.00000000  0.46321900  0.71397700  1.0
  Cu  Cu7  1  0.00000000  0.29688000  0.54706300  1.0
  Cu  Cu8  1  0.00000000  0.13014800  0.37987600  1.0
  Cu  Cu9  1  0.00000000  0.17188800  0.67230700  1.0
  Cu  Cu10  1  0.00000000  0.00538500  0.50537200  1.0
  Cu  Cu11  1  0.00000000  0.83780000  0.33804100  1.0
  Cu  Cu12  1  0.00000000  0.87992900  0.63063300  1.0
  Cu  Cu13  1  0.00000000  0.71365500  0.46345000  1.0
  Cu  Cu14  1  0.00000000  0.54853600  0.29559700  1.0
  Cu  Cu15  1  0.00000000  0.25245900  0.25738600  1.0
  Cu  Cu16  1  0.00000000  0.58885700  0.58895700  1.0
  Cu  Cu17  1  0.00000000  0.42170200  0.42168900  1.0
  Cu  Cu18  1  0.00000000  0.52801700  0.65173700  1.0
  Cu  Cu19  1  0.00000000  0.35933800  0.48424700  1.0
  Cu  Cu20  1  0.00000000  0.19444100  0.31785700  1.0
  Cu  Cu21  1  0.00000000  0.23482700  0.60986400  1.0
  Cu  Cu22  1  0.00000000  0.06749300  0.44236500  1.0
  Cu  Cu23  1  0.00000000  0.90080500  0.27573500  1.0
  Cu  Cu24  1  0.50000000  0.99305800  0.68214300  1.0
  Cu  Cu25  1  0.50000000  0.82816200  0.51575300  1.0
  Cu  Cu26  1  0.50000000  0.65948300  0.34826300  1.0
  Cu  Cu27  1  0.50000000  0.70479800  0.64122700  1.0
  Cu  Cu28  1  0.50000000  0.53669800  0.47386200  1.0
  Cu  Cu29  1  0.50000000  0.37474100  0.30564900  1.0
  Cu  Cu30  1  0.50000000  0.34970000  0.66195900  1.0
  Cu  Cu31  1  0.50000000  0.18211500  0.49462800  1.0
  Cu  Cu32  1  0.50000000  0.01561200  0.32769300  1.0
  Cu  Cu33  1  0.50000000  0.05735200  0.62012400  1.0
  Cu  Cu34  1  0.50000000  0.89062000  0.45293700  1.0
  Cu  Cu35  1  0.50000000  0.72428100  0.28602300  1.0
  Cu  Cu36  1  0.50000000  0.93504100  0.74261400  1.0
  Cu  Cu37  1  0.50000000  0.76579800  0.57831100  1.0
  Cu  Cu38  1  0.50000000  0.59864300  0.41104300  1.0
  Cu  Cu39  1  0.50000000  0.63896400  0.70440300  1.0
  Cu  Cu40  1  0.50000000  0.47384500  0.53655000  1.0
  Cu  Cu41  1  0.50000000  0.30757100  0.36936700  1.0
  Cu  Cu42  1  0.50000000  0.41217000  0.59945900  1.0
  Cu  Cu43  1  0.50000000  0.24462700  0.43189100  1.0
  Cu  Cu44  1  0.50000000  0.07642800  0.26544000  1.0
  Cu  Cu45  1  0.50000000  0.28669500  0.72426500  1.0
  Cu  Cu46  1  0.50000000  0.12000700  0.55763500  1.0
  Cu  Cu47  1  0.50000000  0.95267300  0.39013600  1.0
