# generated using pymatgen
data_Cu
_symmetry_space_group_name_H-M   'P 1'
_cell_length_a   3.61640700
_cell_length_b   5.71804217
_cell_length_c   27.54173556
_cell_angle_alpha   94.76364043
_cell_angle_beta   90.00000000
_cell_angle_gamma   90.00000000
_symmetry_Int_Tables_number   1
_chemical_formula_structural   Cu
_chemical_formula_sum   Cu30
_cell_volume   567.56186218
_cell_formula_units_Z   30
loop_
 _symmetry_equiv_pos_site_id
 _symmetry_equiv_pos_as_xyz
  1  'x, y, z'
loop_
 _atom_site_type_symbol
 _atom_site_label
 _atom_site_symmetry_multiplicity
 _atom_site_fract_x
 _atom_site_fract_y
 _atom_site_fract_z
 _atom_site_occupancy
  Cu  Cu0  1  0.00000000  0.19050000  0.25536900  1.0
  Cu  Cu1  1  0.00000000  0.76778100  0.21759800  1.0
  Cu  Cu2  1  0.00000000  0.59792000  0.29936600  1.0
  Cu  Cu3  1  0.50000000  0.47703100  0.23534200  1.0
  Cu  Cu4  1  0.50000000  0.05351000  0.19869800  1.0
  Cu  Cu5  1  0.50000000  0.89063000  0.27867600  1.0
  Cu  Cu6  1  0.00000000  0.43662500  0.38390900  1.0
  Cu  Cu7  1  0.00000000  0.01967800  0.34134400  1.0
  Cu  Cu8  1  0.00000000  0.85397700  0.42598600  1.0
  Cu  Cu9  1  0.50000000  0.72785600  0.36265000  1.0
  Cu  Cu10  1  0.50000000  0.30886000  0.32043600  1.0
  Cu  Cu11  1  0.50000000  0.14495700  0.40494800  1.0
  Cu  Cu12  1  0.00000000  0.68774000  0.51047300  1.0
  Cu  Cu13  1  0.00000000  0.27052000  0.46823200  1.0
  Cu  Cu14  1  0.00000000  0.10455900  0.55282800  1.0
  Cu  Cu15  1  0.50000000  0.97892600  0.48952700  1.0
  Cu  Cu16  1  0.50000000  0.56210700  0.44717200  1.0
  Cu  Cu17  1  0.50000000  0.39614800  0.53176800  1.0
  Cu  Cu18  1  0.00000000  0.93881000  0.63735000  1.0
  Cu  Cu19  1  0.00000000  0.52171100  0.59505200  1.0
  Cu  Cu20  1  0.00000000  0.35780600  0.67956400  1.0
  Cu  Cu21  1  0.50000000  0.23004100  0.61609100  1.0
  Cu  Cu22  1  0.50000000  0.81268900  0.57401400  1.0
  Cu  Cu23  1  0.50000000  0.64699000  0.65865600  1.0
  Cu  Cu24  1  0.00000000  0.18963500  0.76465800  1.0
  Cu  Cu25  1  0.00000000  0.77603800  0.72132400  1.0
  Cu  Cu26  1  0.00000000  0.61315600  0.80130200  1.0
  Cu  Cu27  1  0.50000000  0.47616600  0.74463100  1.0
  Cu  Cu28  1  0.50000000  0.06874600  0.70063400  1.0
  Cu  Cu29  1  0.50000000  0.89888700  0.78240200  1.0
