# generated using pymatgen
data_Cu
_symmetry_space_group_name_H-M   'P 1'
_cell_length_a   2.55671900
_cell_length_b   2.55671900
_cell_length_c   36.15746600
_cell_angle_alpha   90.00000000
_cell_angle_beta   90.00000000
_cell_angle_gamma   90.00000000
_symmetry_Int_Tables_number   1
_chemical_formula_structural   Cu
_chemical_formula_sum   Cu10
_cell_volume   236.35455926
_cell_formula_units_Z   10
loop_
 _symmetry_equiv_pos_site_id
 _symmetry_equiv_pos_as_xyz
  1  'x, y, z'
loop_
 _atom_site_type_symbol
 _atom_site_label
 _atom_site_symmetry_multiplicity
 _atom_site_fract_x
 _atom_site_fract_y
 _atom_site_fract_z
 _atom_site_occupancy
  Cu  Cu0  1  0.00000000  0.00000000  0.67750000  1.0
  Cu  Cu1  1  0.50000000  0.50000000  0.72664900  1.0
  Cu  Cu2  1  0.00000000  0.00000000  0.57608900  1.0
  Cu  Cu3  1  0.50000000  0.50000000  0.62678600  1.0
  Cu  Cu4  1  0.00000000  0.00000000  0.47454700  1.0
  Cu  Cu5  1  0.50000000  0.50000000  0.52545300  1.0
  Cu  Cu6  1  0.00000000  0.00000000  0.37321400  1.0
  Cu  Cu7  1  0.50000000  0.50000000  0.42391100  1.0
  Cu  Cu8  1  0.00000000  0.00000000  0.27335100  1.0
  Cu  Cu9  1  0.50000000  0.50000000  0.32250000  1.0
