# generated using pymatgen
data_Bi
_symmetry_space_group_name_H-M   'P 1'
_cell_length_a   4.63213490
_cell_length_b   4.63213490
_cell_length_c   22.67254854
_cell_angle_alpha   90.00000000
_cell_angle_beta   90.00000000
_cell_angle_gamma   60.00000000
_symmetry_Int_Tables_number   1
_chemical_formula_structural   Bi
_chemical_formula_sum   Bi6
_cell_volume   421.30185318
_cell_formula_units_Z   6
loop_
 _symmetry_equiv_pos_site_id
 _symmetry_equiv_pos_as_xyz
  1  'x, y, z'
loop_
 _atom_site_type_symbol
 _atom_site_label
 _atom_site_symmetry_multiplicity
 _atom_site_fract_x
 _atom_site_fract_y
 _atom_site_fract_z
 _atom_site_occupancy
  Bi  Bi0  1  0.66666667  0.66666667  0.21476100  1.0
  Bi  Bi1  1  0.00000000  0.00000000  0.10678900  1.0
  Bi  Bi2  1  0.33333333  0.33333333  0.03588300  1.0
  Bi  Bi3  1  0.66666667  0.66666667  0.46411700  1.0
  Bi  Bi4  1  0.00000000  0.00000000  0.39321100  1.0
  Bi  Bi5  1  0.33333333  0.33333333  0.28523900  1.0
