# generated using pymatgen
data_Bi
_symmetry_space_group_name_H-M   'P 1'
_cell_length_a   3.28317500
_cell_length_b   7.31277500
_cell_length_c   29.25109999
_cell_angle_alpha   90.00000000
_cell_angle_beta   90.00000000
_cell_angle_gamma   90.00000000
_symmetry_Int_Tables_number   1
_chemical_formula_structural   Bi
_chemical_formula_sum   Bi10
_cell_volume   702.29317157
_cell_formula_units_Z   10
loop_
 _symmetry_equiv_pos_site_id
 _symmetry_equiv_pos_as_xyz
  1  'x, y, z'
loop_
 _atom_site_type_symbol
 _atom_site_label
 _atom_site_symmetry_multiplicity
 _atom_site_fract_x
 _atom_site_fract_y
 _atom_site_fract_z
 _atom_site_occupancy
  Bi  Bi0  1  0.50000000  0.50859000  0.12314400  1.0
  Bi  Bi1  1  0.50000000  0.08450700  0.07562100  1.0
  Bi  Bi2  1  0.50000000  0.70305300  0.02920500  1.0
  Bi  Bi3  1  0.50000000  0.30041800  0.22535600  1.0
  Bi  Bi4  1  0.50000000  0.90560400  0.17417100  1.0
  Bi  Bi5  1  0.50000000  0.49141000  0.37685600  1.0
  Bi  Bi6  1  0.50000000  0.09439600  0.32582900  1.0
  Bi  Bi7  1  0.50000000  0.69958200  0.27464400  1.0
  Bi  Bi8  1  0.50000000  0.29694700  0.47079500  1.0
  Bi  Bi9  1  0.50000000  0.91549300  0.42437900  1.0
