# generated using pymatgen
data_Bi
_symmetry_space_group_name_H-M   'P 1'
_cell_length_a   3.28384300
_cell_length_b   10.31956557
_cell_length_c   26.27074200
_cell_angle_alpha   108.55502425
_cell_angle_beta   90.00000000
_cell_angle_gamma   90.00000000
_symmetry_Int_Tables_number   1
_chemical_formula_structural   Bi
_chemical_formula_sum   Bi12
_cell_volume   843.98154234
_cell_formula_units_Z   12
loop_
 _symmetry_equiv_pos_site_id
 _symmetry_equiv_pos_as_xyz
  1  'x, y, z'
loop_
 _atom_site_type_symbol
 _atom_site_label
 _atom_site_symmetry_multiplicity
 _atom_site_fract_x
 _atom_site_fract_y
 _atom_site_fract_z
 _atom_site_occupancy
  Bi  Bi0  1  0.50000000  0.50299300  0.35124700  1.0
  Bi  Bi1  1  0.50000000  0.14507200  0.31363300  1.0
  Bi  Bi2  1  0.50000000  0.83121800  0.27851900  1.0
  Bi  Bi3  1  0.50000000  0.49771300  0.46759400  1.0
  Bi  Bi4  1  0.50000000  0.17150800  0.43621100  1.0
  Bi  Bi5  1  0.50000000  0.82545100  0.39443600  1.0
  Bi  Bi6  1  0.50000000  0.50788200  0.60556400  1.0
  Bi  Bi7  1  0.50000000  0.16182600  0.56378900  1.0
  Bi  Bi8  1  0.50000000  0.83562000  0.53240600  1.0
  Bi  Bi9  1  0.50000000  0.50211500  0.72148100  1.0
  Bi  Bi10  1  0.50000000  0.18826200  0.68636700  1.0
  Bi  Bi11  1  0.50000000  0.83034000  0.64875300  1.0
