# generated using pymatgen
data_Bi
_symmetry_space_group_name_H-M   'P 1'
_cell_length_a   4.63187044
_cell_length_b   10.35149853
_cell_length_c   27.79122266
_cell_angle_alpha   102.92817735
_cell_angle_beta   90.00000000
_cell_angle_gamma   77.07182265
_symmetry_Int_Tables_number   1
_chemical_formula_structural   Bi
_chemical_formula_sum   Bi18
_cell_volume   1264.04360451
_cell_formula_units_Z   18
loop_
 _symmetry_equiv_pos_site_id
 _symmetry_equiv_pos_as_xyz
  1  'x, y, z'
loop_
 _atom_site_type_symbol
 _atom_site_label
 _atom_site_symmetry_multiplicity
 _atom_site_fract_x
 _atom_site_fract_y
 _atom_site_fract_z
 _atom_site_occupancy
  Bi  Bi0  1  0.84216000  0.31567900  0.26618900  1.0
  Bi  Bi1  1  0.68625300  0.62749400  0.28896900  1.0
  Bi  Bi2  1  0.00695800  0.98608500  0.37954200  1.0
  Bi  Bi3  1  0.49996100  0.00007800  0.30708400  1.0
  Bi  Bi4  1  0.34597900  0.30804100  0.33903200  1.0
  Bi  Bi5  1  0.16436800  0.67126500  0.36492100  1.0
  Bi  Bi6  1  0.83291800  0.33416400  0.44288000  1.0
  Bi  Bi7  1  0.67630900  0.64738200  0.46186800  1.0
  Bi  Bi8  1  0.00041500  0.99916900  0.55712000  1.0
  Bi  Bi9  1  0.49379200  0.01241600  0.48472500  1.0
  Bi  Bi10  1  0.33954100  0.32091700  0.51527500  1.0
  Bi  Bi11  1  0.15702500  0.68595200  0.53813200  1.0
  Bi  Bi12  1  0.82637600  0.34724800  0.62045800  1.0
  Bi  Bi13  1  0.66896600  0.66206900  0.63507900  1.0
  Bi  Bi14  1  0.99117300  0.01765400  0.73381100  1.0
  Bi  Bi15  1  0.48735400  0.02529200  0.66096800  1.0
  Bi  Bi16  1  0.33337200  0.33325500  0.69291600  1.0
  Bi  Bi17  1  0.14708100  0.70584000  0.71103100  1.0
