# generated using pymatgen
data_Bi
_symmetry_space_group_name_H-M   'P 1'
_cell_length_a   3.28842900
_cell_length_b   11.78133963
_cell_length_c   27.76990198
_cell_angle_alpha   78.67197706
_cell_angle_beta   90.00000000
_cell_angle_gamma   90.00000000
_symmetry_Int_Tables_number   1
_chemical_formula_structural   Bi
_chemical_formula_sum   Bi15
_cell_volume   1054.90505980
_cell_formula_units_Z   15
loop_
 _symmetry_equiv_pos_site_id
 _symmetry_equiv_pos_as_xyz
  1  'x, y, z'
loop_
 _atom_site_type_symbol
 _atom_site_label
 _atom_site_symmetry_multiplicity
 _atom_site_fract_x
 _atom_site_fract_y
 _atom_site_fract_z
 _atom_site_occupancy
  Bi  Bi0  1  0.50000000  0.40144400  0.30167100  1.0
  Bi  Bi1  1  0.50000000  0.20968000  0.39695300  1.0
  Bi  Bi2  1  0.50000000  0.98822600  0.33231900  1.0
  Bi  Bi3  1  0.50000000  0.79493200  0.27079300  1.0
  Bi  Bi4  1  0.50000000  0.59591200  0.36192900  1.0
  Bi  Bi5  1  0.50000000  0.39645900  0.46911600  1.0
  Bi  Bi6  1  0.50000000  0.19264100  0.56713700  1.0
  Bi  Bi7  1  0.50000000  0.00000000  0.50000000  1.0
  Bi  Bi8  1  0.50000000  0.80735900  0.43286300  1.0
  Bi  Bi9  1  0.50000000  0.60354100  0.53088400  1.0
  Bi  Bi10  1  0.50000000  0.40408800  0.63807100  1.0
  Bi  Bi11  1  0.50000000  0.20506800  0.72920700  1.0
  Bi  Bi12  1  0.50000000  0.01177400  0.66768100  1.0
  Bi  Bi13  1  0.50000000  0.79032000  0.60304700  1.0
  Bi  Bi14  1  0.50000000  0.59855600  0.69832900  1.0
