# generated using pymatgen
data_Bi
_symmetry_space_group_name_H-M   'P 1'
_cell_length_a   3.27486300
_cell_length_b   3.27486300
_cell_length_c   52.39780400
_cell_angle_alpha   90.00000000
_cell_angle_beta   90.00000000
_cell_angle_gamma   90.00000000
_symmetry_Int_Tables_number   1
_chemical_formula_structural   Bi
_chemical_formula_sum   Bi8
_cell_volume   561.95217834
_cell_formula_units_Z   8
loop_
 _symmetry_equiv_pos_site_id
 _symmetry_equiv_pos_as_xyz
  1  'x, y, z'
loop_
 _atom_site_type_symbol
 _atom_site_label
 _atom_site_symmetry_multiplicity
 _atom_site_fract_x
 _atom_site_fract_y
 _atom_site_fract_z
 _atom_site_occupancy
  Bi  Bi0  1  0.50000000  0.50000000  0.28278200  1.0
  Bi  Bi1  1  0.50000000  0.50000000  0.34168200  1.0
  Bi  Bi2  1  0.50000000  0.50000000  0.40728700  1.0
  Bi  Bi3  1  0.50000000  0.50000000  0.46785100  1.0
  Bi  Bi4  1  0.50000000  0.50000000  0.53214900  1.0
  Bi  Bi5  1  0.50000000  0.50000000  0.59271300  1.0
  Bi  Bi6  1  0.50000000  0.50000000  0.65831800  1.0
  Bi  Bi7  1  0.50000000  0.50000000  0.71721800  1.0
