# generated using pymatgen
data_Tm
_symmetry_space_group_name_H-M   'P 1'
_cell_length_a   5.52132600
_cell_length_b   6.17562800
_cell_length_c   21.39347100
_cell_angle_alpha   90.00000000
_cell_angle_beta   90.00000000
_cell_angle_gamma   90.00000000
_symmetry_Int_Tables_number   1
_chemical_formula_structural   Tm
_chemical_formula_sum   Tm12
_cell_volume   729.46720288
_cell_formula_units_Z   12
loop_
 _symmetry_equiv_pos_site_id
 _symmetry_equiv_pos_as_xyz
  1  'x, y, z'
loop_
 _atom_site_type_symbol
 _atom_site_label
 _atom_site_symmetry_multiplicity
 _atom_site_fract_x
 _atom_site_fract_y
 _atom_site_fract_z
 _atom_site_occupancy
  Tm  Tm0  1  0.25000000  0.32379800  0.12763100  1.0
  Tm  Tm1  1  0.25000000  0.81880100  0.04611000  1.0
  Tm  Tm2  1  0.75000000  0.67620200  0.12763100  1.0
  Tm  Tm3  1  0.75000000  0.18119900  0.04611000  1.0
  Tm  Tm4  1  0.25000000  0.32966500  0.29275800  1.0
  Tm  Tm5  1  0.25000000  0.82966500  0.20724200  1.0
  Tm  Tm6  1  0.75000000  0.67033500  0.29275800  1.0
  Tm  Tm7  1  0.75000000  0.17033500  0.20724200  1.0
  Tm  Tm8  1  0.25000000  0.31880100  0.45389000  1.0
  Tm  Tm9  1  0.25000000  0.82379800  0.37236900  1.0
  Tm  Tm10  1  0.75000000  0.68119900  0.45389000  1.0
  Tm  Tm11  1  0.75000000  0.17620200  0.37236900  1.0
