# generated using pymatgen
data_Ag
_symmetry_space_group_name_H-M   'P 1'
_cell_length_a   2.94511530
_cell_length_b   8.28377600
_cell_length_c   23.56092099
_cell_angle_alpha   90.00000000
_cell_angle_beta   90.00000000
_cell_angle_gamma   90.00000000
_symmetry_Int_Tables_number   1
_chemical_formula_structural   Ag
_chemical_formula_sum   Ag14
_cell_volume   574.80814245
_cell_formula_units_Z   14
loop_
 _symmetry_equiv_pos_site_id
 _symmetry_equiv_pos_as_xyz
  1  'x, y, z'
loop_
 _atom_site_type_symbol
 _atom_site_label
 _atom_site_symmetry_multiplicity
 _atom_site_fract_x
 _atom_site_fract_y
 _atom_site_fract_z
 _atom_site_occupancy
  Ag  Ag0  1  0.00000000  0.00024600  0.59641000  1.0
  Ag  Ag1  1  0.00000000  0.49991900  0.59229700  1.0
  Ag  Ag2  1  0.00000000  0.50084000  0.71241800  1.0
  Ag  Ag3  1  0.50000000  0.24576900  0.65624900  1.0
  Ag  Ag4  1  0.50000000  0.75531700  0.65675700  1.0
  Ag  Ag5  1  0.50000000  0.24717800  0.53104900  1.0
  Ag  Ag6  1  0.50000000  0.75289900  0.53150700  1.0
  Ag  Ag7  1  0.00000000  0.99468300  0.34324300  1.0
  Ag  Ag8  1  0.00000000  0.50423100  0.34375100  1.0
  Ag  Ag9  1  0.00000000  0.99710100  0.46849300  1.0
  Ag  Ag10  1  0.00000000  0.50282200  0.46895100  1.0
  Ag  Ag11  1  0.50000000  0.25008100  0.40770300  1.0
  Ag  Ag12  1  0.50000000  0.74975400  0.40359000  1.0
  Ag  Ag13  1  0.50000000  0.24916000  0.28758200  1.0
