# generated using pymatgen
data_Tm
_symmetry_space_group_name_H-M   'P 1'
_cell_length_a   3.56355375
_cell_length_b   6.57188472
_cell_length_c   24.69597213
_cell_angle_alpha   118.01662090
_cell_angle_beta   89.99998945
_cell_angle_gamma   74.26901153
_symmetry_Int_Tables_number   1
_chemical_formula_structural   Tm
_chemical_formula_sum   Tm8
_cell_volume   485.90945231
_cell_formula_units_Z   8
loop_
 _symmetry_equiv_pos_site_id
 _symmetry_equiv_pos_as_xyz
  1  'x, y, z'
loop_
 _atom_site_type_symbol
 _atom_site_label
 _atom_site_symmetry_multiplicity
 _atom_site_fract_x
 _atom_site_fract_y
 _atom_site_fract_z
 _atom_site_occupancy
  Tm  Tm0  1  0.12381300  0.75237400  0.07783700  1.0
  Tm  Tm1  1  0.62635200  0.74729700  0.19788700  1.0
  Tm  Tm2  1  0.86915400  0.26169100  0.05886100  1.0
  Tm  Tm3  1  0.37748600  0.24502800  0.17548300  1.0
  Tm  Tm4  1  0.12251400  0.75497200  0.32451700  1.0
  Tm  Tm5  1  0.63084600  0.73830900  0.44113900  1.0
  Tm  Tm6  1  0.87364800  0.25270300  0.30211300  1.0
  Tm  Tm7  1  0.37618700  0.24762600  0.42216300  1.0
