# generated using pymatgen
data_Tm
_symmetry_space_group_name_H-M   'P 1'
_cell_length_a   6.17438700
_cell_length_b   6.57320651
_cell_length_c   21.37812000
_cell_angle_alpha   105.72533920
_cell_angle_beta   90.00000000
_cell_angle_gamma   61.98756566
_symmetry_Int_Tables_number   1
_chemical_formula_structural   Tm
_chemical_formula_sum   Tm12
_cell_volume   729.00597482
_cell_formula_units_Z   12
loop_
 _symmetry_equiv_pos_site_id
 _symmetry_equiv_pos_as_xyz
  1  'x, y, z'
loop_
 _atom_site_type_symbol
 _atom_site_label
 _atom_site_symmetry_multiplicity
 _atom_site_fract_x
 _atom_site_fract_y
 _atom_site_fract_z
 _atom_site_occupancy
  Tm  Tm0  1  0.78867600  0.75676600  0.15122600  1.0
  Tm  Tm1  1  0.31782400  0.75275800  0.06720900  1.0
  Tm  Tm2  1  0.70940300  0.23500400  0.10379900  1.0
  Tm  Tm3  1  0.16518400  0.29019300  0.02964400  1.0
  Tm  Tm4  1  0.79712600  0.75235100  0.31402200  1.0
  Tm  Tm5  1  0.29582800  0.74179700  0.22690200  1.0
  Tm  Tm6  1  0.70417200  0.25820300  0.27309800  1.0
  Tm  Tm7  1  0.20287400  0.24764900  0.18597800  1.0
  Tm  Tm8  1  0.83481600  0.70980700  0.47035600  1.0
  Tm  Tm9  1  0.29059700  0.76499600  0.39620100  1.0
  Tm  Tm10  1  0.68217600  0.24724200  0.43279100  1.0
  Tm  Tm11  1  0.21132400  0.24323400  0.34877400  1.0
