# generated using pymatgen
data_Tm
_symmetry_space_group_name_H-M   'P 1'
_cell_length_a   3.56478047
_cell_length_b   5.52243600
_cell_length_c   28.51824173
_cell_angle_alpha   90.00000000
_cell_angle_beta   119.99997850
_cell_angle_gamma   90.00000000
_symmetry_Int_Tables_number   1
_chemical_formula_structural   Tm
_chemical_formula_sum   Tm8
_cell_volume   486.20223739
_cell_formula_units_Z   8
loop_
 _symmetry_equiv_pos_site_id
 _symmetry_equiv_pos_as_xyz
  1  'x, y, z'
loop_
 _atom_site_type_symbol
 _atom_site_label
 _atom_site_symmetry_multiplicity
 _atom_site_fract_x
 _atom_site_fract_y
 _atom_site_fract_z
 _atom_site_occupancy
  Tm  Tm0  1  0.68158100  0.75000000  0.04539600  1.0
  Tm  Tm1  1  0.35496200  0.25000000  0.08874000  1.0
  Tm  Tm2  1  0.65819600  0.75000000  0.16454900  1.0
  Tm  Tm3  1  0.33085900  0.25000000  0.20771400  1.0
  Tm  Tm4  1  0.66914100  0.75000000  0.29228600  1.0
  Tm  Tm5  1  0.34180400  0.25000000  0.33545100  1.0
  Tm  Tm6  1  0.64503800  0.75000000  0.41126000  1.0
  Tm  Tm7  1  0.31841900  0.25000000  0.45460400  1.0
