# generated using pymatgen
data_Tm
_symmetry_space_group_name_H-M   'P 1'
_cell_length_a   3.56407706
_cell_length_b   11.60651806
_cell_length_c   24.69347901
_cell_angle_alpha   105.42306076
_cell_angle_beta   89.99998721
_cell_angle_gamma   81.16800485
_symmetry_Int_Tables_number   1
_chemical_formula_structural   Tm
_chemical_formula_sum   Tm16
_cell_volume   972.12805114
_cell_formula_units_Z   16
loop_
 _symmetry_equiv_pos_site_id
 _symmetry_equiv_pos_as_xyz
  1  'x, y, z'
loop_
 _atom_site_type_symbol
 _atom_site_label
 _atom_site_symmetry_multiplicity
 _atom_site_fract_x
 _atom_site_fract_y
 _atom_site_fract_z
 _atom_site_occupancy
  Tm  Tm0  1  0.31396400  0.37207200  0.34005100  1.0
  Tm  Tm1  1  0.06265900  0.87468200  0.39984800  1.0
  Tm  Tm2  1  0.81297200  0.37405600  0.46298300  1.0
  Tm  Tm3  1  0.55878700  0.88242600  0.28183800  1.0
  Tm  Tm4  1  0.93798900  0.12402200  0.35655100  1.0
  Tm  Tm5  1  0.69008000  0.61984000  0.40837200  1.0
  Tm  Tm6  1  0.43721500  0.12557000  0.47368700  1.0
  Tm  Tm7  1  0.18188400  0.63623100  0.29147500  1.0
  Tm  Tm8  1  0.30992000  0.38016000  0.59162800  1.0
  Tm  Tm9  1  0.06201100  0.87597800  0.64344900  1.0
  Tm  Tm10  1  0.81811600  0.36376900  0.70852500  1.0
  Tm  Tm11  1  0.56278500  0.87443000  0.52631300  1.0
  Tm  Tm12  1  0.93734100  0.12531800  0.60015200  1.0
  Tm  Tm13  1  0.68603600  0.62792800  0.65994900  1.0
  Tm  Tm14  1  0.44121300  0.11757400  0.71816200  1.0
  Tm  Tm15  1  0.18702800  0.62594400  0.53701700  1.0
