# generated using pymatgen
data_Tm
_symmetry_space_group_name_H-M   'P 1'
_cell_length_a   6.17336900
_cell_length_b   11.60652637
_cell_length_c   21.38446300
_cell_angle_alpha   98.83199567
_cell_angle_beta   90.00000000
_cell_angle_gamma   74.57695753
_symmetry_Int_Tables_number   1
_chemical_formula_structural   Tm
_chemical_formula_sum   Tm24
_cell_volume   1458.19313085
_cell_formula_units_Z   24
loop_
 _symmetry_equiv_pos_site_id
 _symmetry_equiv_pos_as_xyz
  1  'x, y, z'
loop_
 _atom_site_type_symbol
 _atom_site_label
 _atom_site_symmetry_multiplicity
 _atom_site_fract_x
 _atom_site_fract_y
 _atom_site_fract_z
 _atom_site_occupancy
  Tm  Tm0  1  0.73608600  0.87435600  0.40803700  1.0
  Tm  Tm1  1  0.98341400  0.37715800  0.36967700  1.0
  Tm  Tm2  1  0.49539300  0.38486200  0.28671400  1.0
  Tm  Tm3  1  0.25180800  0.87131600  0.32543000  1.0
  Tm  Tm4  1  0.50822700  0.62596500  0.39008800  1.0
  Tm  Tm5  1  0.76984900  0.12445500  0.34435600  1.0
  Tm  Tm6  1  0.25293700  0.14733600  0.26873300  1.0
  Tm  Tm7  1  0.99630200  0.61972400  0.30565200  1.0
  Tm  Tm8  1  0.73287800  0.87707300  0.57430700  1.0
  Tm  Tm9  1  0.98121500  0.37436300  0.53224900  1.0
  Tm  Tm10  1  0.48245300  0.37299900  0.44657800  1.0
  Tm  Tm11  1  0.23106400  0.87571500  0.48906500  1.0
  Tm  Tm12  1  0.51754700  0.62700100  0.55342200  1.0
  Tm  Tm13  1  0.76893600  0.12428500  0.51093500  1.0
  Tm  Tm14  1  0.26712200  0.12292700  0.42569300  1.0
  Tm  Tm15  1  0.01878500  0.62563700  0.46775100  1.0
  Tm  Tm16  1  0.74706300  0.85266400  0.73126700  1.0
  Tm  Tm17  1  0.00369800  0.38027600  0.69434800  1.0
  Tm  Tm18  1  0.49177300  0.37403500  0.60991200  1.0
  Tm  Tm19  1  0.23015100  0.87554500  0.65564400  1.0
  Tm  Tm20  1  0.50460700  0.61513800  0.71328600  1.0
  Tm  Tm21  1  0.74819200  0.12868400  0.67457000  1.0
  Tm  Tm22  1  0.26391400  0.12564400  0.59196300  1.0
  Tm  Tm23  1  0.01658600  0.62284200  0.63032300  1.0
