# generated using pymatgen
data_Tm
_symmetry_space_group_name_H-M   'P 1'
_cell_length_a   6.17307941
_cell_length_b   6.57303075
_cell_length_c   36.07053413
_cell_angle_alpha   85.08703493
_cell_angle_beta   90.00000630
_cell_angle_gamma   89.99999266
_symmetry_Int_Tables_number   1
_chemical_formula_structural   Tm
_chemical_formula_sum   Tm24
_cell_volume   1458.21492744
_cell_formula_units_Z   24
loop_
 _symmetry_equiv_pos_site_id
 _symmetry_equiv_pos_as_xyz
  1  'x, y, z'
loop_
 _atom_site_type_symbol
 _atom_site_label
 _atom_site_symmetry_multiplicity
 _atom_site_fract_x
 _atom_site_fract_y
 _atom_site_fract_z
 _atom_site_occupancy
  Tm  Tm0  1  0.33209000  0.83542100  0.35410000  1.0
  Tm  Tm1  1  0.83367400  0.66987500  0.39564300  1.0
  Tm  Tm2  1  0.34126300  0.15020300  0.27594400  1.0
  Tm  Tm3  1  0.33403900  0.49863800  0.43755000  1.0
  Tm  Tm4  1  0.84288400  0.00618400  0.31365300  1.0
  Tm  Tm5  1  0.83327400  0.33342300  0.47904100  1.0
  Tm  Tm6  1  0.16791000  0.33542100  0.35410000  1.0
  Tm  Tm7  1  0.66632600  0.16987500  0.39564300  1.0
  Tm  Tm8  1  0.15873700  0.65020300  0.27594400  1.0
  Tm  Tm9  1  0.16596100  0.99863800  0.43755000  1.0
  Tm  Tm10  1  0.65711600  0.50618400  0.31365300  1.0
  Tm  Tm11  1  0.66666667  0.83342300  0.47904100  1.0
  Tm  Tm12  1  0.33367400  0.83012500  0.60435700  1.0
  Tm  Tm13  1  0.83209000  0.66457900  0.64590000  1.0
  Tm  Tm14  1  0.33327400  0.16657700  0.52095900  1.0
  Tm  Tm15  1  0.34288400  0.49381600  0.68634700  1.0
  Tm  Tm16  1  0.83403900  0.00136200  0.56245000  1.0
  Tm  Tm17  1  0.84126300  0.34979700  0.72405600  1.0
  Tm  Tm18  1  0.16632600  0.33012500  0.60435700  1.0
  Tm  Tm19  1  0.66791000  0.16457900  0.64590000  1.0
  Tm  Tm20  1  0.16672600  0.66657700  0.52095900  1.0
  Tm  Tm21  1  0.15711600  0.99381600  0.68634700  1.0
  Tm  Tm22  1  0.66596100  0.50136200  0.56245000  1.0
  Tm  Tm23  1  0.65873700  0.84979700  0.72405600  1.0
