# generated using pymatgen
data_Tm
_symmetry_space_group_name_H-M   'P 1'
_cell_length_a   3.56269492
_cell_length_b   9.01819235
_cell_length_c   33.13849689
_cell_angle_alpha   95.84691935
_cell_angle_beta   89.99999093
_cell_angle_gamma   66.73051222
_symmetry_Int_Tables_number   1
_chemical_formula_structural   Tm
_chemical_formula_sum   Tm16
_cell_volume   972.06988139
_cell_formula_units_Z   16
loop_
 _symmetry_equiv_pos_site_id
 _symmetry_equiv_pos_as_xyz
  1  'x, y, z'
loop_
 _atom_site_type_symbol
 _atom_site_label
 _atom_site_symmetry_multiplicity
 _atom_site_fract_x
 _atom_site_fract_y
 _atom_site_fract_z
 _atom_site_occupancy
  Tm  Tm0  1  0.96280000  0.03720000  0.39513300  1.0
  Tm  Tm1  1  0.21050200  0.28949800  0.33742900  1.0
  Tm  Tm2  1  0.70856200  0.79143800  0.45849900  1.0
  Tm  Tm3  1  0.48538800  0.51461200  0.27582300  1.0
  Tm  Tm4  1  0.79295400  0.70704600  0.35178400  1.0
  Tm  Tm5  1  0.04083400  0.95916600  0.29258100  1.0
  Tm  Tm6  1  0.53935600  0.46064400  0.41743500  1.0
  Tm  Tm7  1  0.29033700  0.20966300  0.47902700  1.0
  Tm  Tm8  1  0.95704200  0.04295800  0.64822000  1.0
  Tm  Tm9  1  0.21062900  0.28937100  0.58257200  1.0
  Tm  Tm10  1  0.70924800  0.79075200  0.70741200  1.0
  Tm  Tm11  1  0.45964500  0.54035500  0.52098700  1.0
  Tm  Tm12  1  0.78716300  0.71283700  0.60486500  1.0
  Tm  Tm13  1  0.04140200  0.95859800  0.54149800  1.0
  Tm  Tm14  1  0.53951200  0.46048800  0.66256900  1.0
  Tm  Tm15  1  0.26462700  0.23537300  0.72416500  1.0
