# generated using pymatgen
data_Tm
_symmetry_space_group_name_H-M   'P 1'
_cell_length_a   5.52121300
_cell_length_b   9.43325181
_cell_length_c   28.52009600
_cell_angle_alpha   79.10791060
_cell_angle_beta   90.00000000
_cell_angle_gamma   90.00000000
_symmetry_Int_Tables_number   1
_chemical_formula_structural   Tm
_chemical_formula_sum   Tm30
_cell_volume   1458.65196982
_cell_formula_units_Z   30
loop_
 _symmetry_equiv_pos_site_id
 _symmetry_equiv_pos_as_xyz
  1  'x, y, z'
loop_
 _atom_site_type_symbol
 _atom_site_label
 _atom_site_symmetry_multiplicity
 _atom_site_fract_x
 _atom_site_fract_y
 _atom_site_fract_z
 _atom_site_occupancy
  Tm  Tm0  1  0.25000000  0.53433100  0.22148600  1.0
  Tm  Tm1  1  0.25000000  0.21642800  0.30245500  1.0
  Tm  Tm2  1  0.25000000  0.87898600  0.25779600  1.0
  Tm  Tm3  1  0.75000000  0.76497800  0.20594200  1.0
  Tm  Tm4  1  0.75000000  0.44649100  0.28852000  1.0
  Tm  Tm5  1  0.75000000  0.12428600  0.24243100  1.0
  Tm  Tm6  1  0.25000000  0.55630500  0.34001900  1.0
  Tm  Tm7  1  0.25000000  0.22229100  0.42429100  1.0
  Tm  Tm8  1  0.25000000  0.89039500  0.38091600  1.0
  Tm  Tm9  1  0.75000000  0.78507300  0.32381100  1.0
  Tm  Tm10  1  0.75000000  0.44640600  0.41045200  1.0
  Tm  Tm11  1  0.75000000  0.11380300  0.36808800  1.0
  Tm  Tm12  1  0.25000000  0.55641200  0.46585700  1.0
  Tm  Tm13  1  0.25000000  0.22159100  0.54933600  1.0
  Tm  Tm14  1  0.25000000  0.88941200  0.50606200  1.0
  Tm  Tm15  1  0.75000000  0.77840900  0.45066400  1.0
  Tm  Tm16  1  0.75000000  0.44358800  0.53414300  1.0
  Tm  Tm17  1  0.75000000  0.11058800  0.49393800  1.0
  Tm  Tm18  1  0.25000000  0.55359400  0.58954800  1.0
  Tm  Tm19  1  0.25000000  0.21492600  0.67618900  1.0
  Tm  Tm20  1  0.25000000  0.88619700  0.63191200  1.0
  Tm  Tm21  1  0.75000000  0.77770900  0.57570900  1.0
  Tm  Tm22  1  0.75000000  0.44369500  0.65998100  1.0
  Tm  Tm23  1  0.75000000  0.10960500  0.61908400  1.0
  Tm  Tm24  1  0.25000000  0.55350900  0.71148000  1.0
  Tm  Tm25  1  0.25000000  0.23502200  0.79405800  1.0
  Tm  Tm26  1  0.25000000  0.87571400  0.75756900  1.0
  Tm  Tm27  1  0.75000000  0.78357200  0.69754500  1.0
  Tm  Tm28  1  0.75000000  0.46566900  0.77851400  1.0
  Tm  Tm29  1  0.75000000  0.12101400  0.74220400  1.0
