# generated using pymatgen
data_Tm
_symmetry_space_group_name_H-M   'P 1'
_cell_length_a   9.42931857
_cell_length_b   6.57392696
_cell_length_c   34.47839699
_cell_angle_alpha   86.14423163
_cell_angle_beta   89.99213524
_cell_angle_gamma   65.79138432
_symmetry_Int_Tables_number   1
_chemical_formula_structural   Tm
_chemical_formula_sum   Tm32
_cell_volume   1943.98669253
_cell_formula_units_Z   32
loop_
 _symmetry_equiv_pos_site_id
 _symmetry_equiv_pos_as_xyz
  1  'x, y, z'
loop_
 _atom_site_type_symbol
 _atom_site_label
 _atom_site_symmetry_multiplicity
 _atom_site_fract_x
 _atom_site_fract_y
 _atom_site_fract_z
 _atom_site_occupancy
  Tm  Tm0  1  0.64806500  0.98934900  0.58864200  1.0
  Tm  Tm1  1  0.64279300  0.49605800  0.34226900  1.0
  Tm  Tm2  1  0.27102800  0.05193700  0.62030200  1.0
  Tm  Tm3  1  0.26613600  0.55366700  0.36908300  1.0
  Tm  Tm4  1  0.02249100  0.92676500  0.55739200  1.0
  Tm  Tm5  1  0.01313100  0.43563100  0.30783700  1.0
  Tm  Tm6  1  0.89695700  0.11367800  0.65184000  1.0
  Tm  Tm7  1  0.89304600  0.61778900  0.40058700  1.0
  Tm  Tm8  1  0.52315800  0.16122200  0.68061400  1.0
  Tm  Tm9  1  0.51911000  0.67833900  0.43311200  1.0
  Tm  Tm10  1  0.13090400  0.24655200  0.71205700  1.0
  Tm  Tm11  1  0.14504600  0.73955600  0.46384100  1.0
  Tm  Tm12  1  0.77119200  0.80253400  0.49456500  1.0
  Tm  Tm13  1  0.74532600  0.32871600  0.73787900  1.0
  Tm  Tm14  1  0.39553400  0.86431000  0.52591000  1.0
  Tm  Tm15  1  0.39126300  0.36385000  0.28106200  1.0
  Tm  Tm16  1  0.73089000  0.44666100  0.56688800  1.0
  Tm  Tm17  1  0.72684200  0.96377800  0.31938600  1.0
  Tm  Tm18  1  0.35695400  0.50721100  0.59941300  1.0
  Tm  Tm19  1  0.35304300  0.01132200  0.34816000  1.0
  Tm  Tm20  1  0.10495400  0.38544400  0.53615900  1.0
  Tm  Tm21  1  0.11909600  0.87844800  0.28794300  1.0
  Tm  Tm22  1  0.98386400  0.57133300  0.63091700  1.0
  Tm  Tm23  1  0.97897200  0.07306300  0.37969800  1.0
  Tm  Tm24  1  0.60720700  0.62894200  0.65773100  1.0
  Tm  Tm25  1  0.60193500  0.13565100  0.41135800  1.0
  Tm  Tm26  1  0.23686900  0.68936900  0.69216300  1.0
  Tm  Tm27  1  0.22750900  0.19823500  0.44260800  1.0
  Tm  Tm28  1  0.85446600  0.26069000  0.47409000  1.0
  Tm  Tm29  1  0.85873700  0.76115000  0.71893800  1.0
  Tm  Tm30  1  0.47880800  0.32246600  0.50543500  1.0
  Tm  Tm31  1  0.50467400  0.79628400  0.26212100  1.0
