# generated using pymatgen
data_Tm
_symmetry_space_group_name_H-M   'P 1'
_cell_length_a   6.57230043
_cell_length_b   8.28296850
_cell_length_c   27.47236409
_cell_angle_alpha   92.88401828
_cell_angle_beta   92.42157647
_cell_angle_gamma   102.14082246
_symmetry_Int_Tables_number   1
_chemical_formula_structural   Tm
_chemical_formula_sum   Tm30
_cell_volume   1458.10377168
_cell_formula_units_Z   30
loop_
 _symmetry_equiv_pos_site_id
 _symmetry_equiv_pos_as_xyz
  1  'x, y, z'
loop_
 _atom_site_type_symbol
 _atom_site_label
 _atom_site_symmetry_multiplicity
 _atom_site_fract_x
 _atom_site_fract_y
 _atom_site_fract_z
 _atom_site_occupancy
  Tm  Tm0  1  0.11302500  0.63407500  0.25307700  1.0
  Tm  Tm1  1  0.76196400  0.30067600  0.29918400  1.0
  Tm  Tm2  1  0.50983300  0.96641500  0.21753900  1.0
  Tm  Tm3  1  0.03997200  0.04481900  0.24823500  1.0
  Tm  Tm4  1  0.64711200  0.69911500  0.29214700  1.0
  Tm  Tm5  1  0.46222800  0.38149700  0.21194900  1.0
  Tm  Tm6  1  0.00514000  0.63601700  0.37798300  1.0
  Tm  Tm7  1  0.63337500  0.30419900  0.42085200  1.0
  Tm  Tm8  1  0.37329200  0.96830700  0.33560600  1.0
  Tm  Tm9  1  0.90226600  0.02508100  0.37091600  1.0
  Tm  Tm10  1  0.52790200  0.69258300  0.41365100  1.0
  Tm  Tm11  1  0.28479400  0.36475500  0.32892600  1.0
  Tm  Tm12  1  0.88615800  0.63868600  0.50309500  1.0
  Tm  Tm13  1  0.51065300  0.30663500  0.54505400  1.0
  Tm  Tm14  1  0.25866200  0.97088300  0.46179800  1.0
  Tm  Tm15  1  0.78030200  0.02795200  0.49685700  1.0
  Tm  Tm16  1  0.40804800  0.69571000  0.53818000  1.0
  Tm  Tm17  1  0.15625900  0.35993400  0.45492500  1.0
  Tm  Tm18  1  0.76411000  0.64162200  0.62904000  1.0
  Tm  Tm19  1  0.38160100  0.30146600  0.67098200  1.0
  Tm  Tm20  1  0.13869500  0.97379000  0.58624000  1.0
  Tm  Tm21  1  0.66165900  0.03043400  0.62194100  1.0
  Tm  Tm22  1  0.29302500  0.69805100  0.66442000  1.0
  Tm  Tm23  1  0.03319400  0.36264800  0.57910400  1.0
  Tm  Tm24  1  0.62558900  0.62117700  0.75207800  1.0
  Tm  Tm25  1  0.20594200  0.28676300  0.78814000  1.0
  Tm  Tm26  1  0.01885000  0.96732700  0.70788800  1.0
  Tm  Tm27  1  0.55379800  0.03327700  0.74691800  1.0
  Tm  Tm28  1  0.15839400  0.69982300  0.78254700  1.0
  Tm  Tm29  1  0.90415500  0.36628500  0.70072600  1.0
