# generated using pymatgen
data_Tm
_symmetry_space_group_name_H-M   'P 1'
_cell_length_a   3.56478100
_cell_length_b   3.56478083
_cell_length_c   44.17946400
_cell_angle_alpha   90.00000000
_cell_angle_beta   90.00000000
_cell_angle_gamma   119.99999228
_symmetry_Int_Tables_number   1
_chemical_formula_structural   Tm
_chemical_formula_sum   Tm8
_cell_volume   486.20206175
_cell_formula_units_Z   8
loop_
 _symmetry_equiv_pos_site_id
 _symmetry_equiv_pos_as_xyz
  1  'x, y, z'
loop_
 _atom_site_type_symbol
 _atom_site_label
 _atom_site_symmetry_multiplicity
 _atom_site_fract_x
 _atom_site_fract_y
 _atom_site_fract_z
 _atom_site_occupancy
  Tm  Tm0  1  0.33333333  0.66666667  0.34318800  1.0
  Tm  Tm1  1  0.66666667  0.33333333  0.28175000  1.0
  Tm  Tm2  1  0.33333333  0.66666667  0.46889500  1.0
  Tm  Tm3  1  0.66666667  0.33333333  0.40632700  1.0
  Tm  Tm4  1  0.33333333  0.66666667  0.59367300  1.0
  Tm  Tm5  1  0.66666667  0.33333333  0.53110500  1.0
  Tm  Tm6  1  0.33333333  0.66666667  0.71825000  1.0
  Tm  Tm7  1  0.66666667  0.33333333  0.65681200  1.0
