# generated using pymatgen
data_Sc
_symmetry_space_group_name_H-M   'P 1'
_cell_length_a   5.15635600
_cell_length_b   8.78105329
_cell_length_c   26.55275500
_cell_angle_alpha   79.10604779
_cell_angle_beta   90.00000000
_cell_angle_gamma   90.00000000
_symmetry_Int_Tables_number   1
_chemical_formula_structural   Sc
_chemical_formula_sum   Sc24
_cell_volume   1180.59556646
_cell_formula_units_Z   24
loop_
 _symmetry_equiv_pos_site_id
 _symmetry_equiv_pos_as_xyz
  1  'x, y, z'
loop_
 _atom_site_type_symbol
 _atom_site_label
 _atom_site_symmetry_multiplicity
 _atom_site_fract_x
 _atom_site_fract_y
 _atom_site_fract_z
 _atom_site_occupancy
  Sc  Sc0  1  0.75000000  0.53067900  0.03294700  1.0
  Sc  Sc1  1  0.75000000  0.21620400  0.11523300  1.0
  Sc  Sc2  1  0.75000000  0.87845000  0.06968300  1.0
  Sc  Sc3  1  0.25000000  0.76566700  0.01751700  1.0
  Sc  Sc4  1  0.25000000  0.44827200  0.10050000  1.0
  Sc  Sc5  1  0.25000000  0.12700400  0.05446600  1.0
  Sc  Sc6  1  0.75000000  0.55579300  0.15198700  1.0
  Sc  Sc7  1  0.75000000  0.22175500  0.23684200  1.0
  Sc  Sc8  1  0.75000000  0.88970900  0.19335400  1.0
  Sc  Sc9  1  0.25000000  0.78825600  0.13536000  1.0
  Sc  Sc10  1  0.25000000  0.44706400  0.22246400  1.0
  Sc  Sc11  1  0.25000000  0.11558800  0.18001400  1.0
  Sc  Sc12  1  0.75000000  0.55293600  0.27753600  1.0
  Sc  Sc13  1  0.75000000  0.21174400  0.36464000  1.0
  Sc  Sc14  1  0.75000000  0.88441200  0.31998600  1.0
  Sc  Sc15  1  0.25000000  0.77824500  0.26315800  1.0
  Sc  Sc16  1  0.25000000  0.44420700  0.34801300  1.0
  Sc  Sc17  1  0.25000000  0.11029100  0.30664600  1.0
  Sc  Sc18  1  0.75000000  0.55172800  0.39950000  1.0
  Sc  Sc19  1  0.75000000  0.23433300  0.48248300  1.0
  Sc  Sc20  1  0.75000000  0.87299600  0.44553400  1.0
  Sc  Sc21  1  0.25000000  0.78379600  0.38476700  1.0
  Sc  Sc22  1  0.25000000  0.46932100  0.46705300  1.0
  Sc  Sc23  1  0.25000000  0.12155000  0.43031700  1.0
