# generated using pymatgen
data_Sc
_symmetry_space_group_name_H-M   'P 1'
_cell_length_a   5.74857100
_cell_length_b   10.83232324
_cell_length_c   26.55547700
_cell_angle_alpha   98.81351474
_cell_angle_beta   90.00000000
_cell_angle_gamma   74.61264395
_symmetry_Int_Tables_number   1
_chemical_formula_structural   Sc
_chemical_formula_sum   Sc32
_cell_volume   1574.08334476
_cell_formula_units_Z   32
loop_
 _symmetry_equiv_pos_site_id
 _symmetry_equiv_pos_as_xyz
  1  'x, y, z'
loop_
 _atom_site_type_symbol
 _atom_site_label
 _atom_site_symmetry_multiplicity
 _atom_site_fract_x
 _atom_site_fract_y
 _atom_site_fract_z
 _atom_site_occupancy
  Sc  Sc0  1  0.86868200  0.62575200  0.10536300  1.0
  Sc  Sc1  1  0.10592300  0.12248500  0.07017200  1.0
  Sc  Sc2  1  0.60429000  0.15336000  0.01287500  1.0
  Sc  Sc3  1  0.39322600  0.61725400  0.04103400  1.0
  Sc  Sc4  1  0.38588600  0.87229500  0.11837700  1.0
  Sc  Sc5  1  0.63742600  0.37716400  0.08992100  1.0
  Sc  Sc6  1  0.11035200  0.38674800  0.02658900  1.0
  Sc  Sc7  1  0.86964200  0.86790100  0.05496300  1.0
  Sc  Sc8  1  0.85575500  0.62505100  0.22712000  1.0
  Sc  Sc9  1  0.10732800  0.12375500  0.19462100  1.0
  Sc  Sc10  1  0.61190900  0.12177700  0.13042800  1.0
  Sc  Sc11  1  0.35969400  0.62464400  0.16373400  1.0
  Sc  Sc12  1  0.39311000  0.87572400  0.24223300  1.0
  Sc  Sc13  1  0.64627200  0.37288400  0.21119600  1.0
  Sc  Sc14  1  0.14345900  0.37176500  0.14694800  1.0
  Sc  Sc15  1  0.89110100  0.87574500  0.17863100  1.0
  Sc  Sc16  1  0.85654100  0.62823500  0.35305200  1.0
  Sc  Sc17  1  0.10889900  0.12425500  0.32136900  1.0
  Sc  Sc18  1  0.60688900  0.12427600  0.25776700  1.0
  Sc  Sc19  1  0.35372800  0.62711600  0.28880400  1.0
  Sc  Sc20  1  0.38809100  0.87822300  0.36957200  1.0
  Sc  Sc21  1  0.64030600  0.37535600  0.33626600  1.0
  Sc  Sc22  1  0.14424500  0.37494900  0.27288000  1.0
  Sc  Sc23  1  0.89267200  0.87624500  0.30537900  1.0
  Sc  Sc24  1  0.88964800  0.61325200  0.47341100  1.0
  Sc  Sc25  1  0.13035800  0.13209900  0.44503700  1.0
  Sc  Sc26  1  0.61411400  0.12770500  0.38162300  1.0
  Sc  Sc27  1  0.36257400  0.62283600  0.41007800  1.0
  Sc  Sc28  1  0.39571000  0.84664000  0.48712500  1.0
  Sc  Sc29  1  0.60677400  0.38274600  0.45896700  1.0
  Sc  Sc30  1  0.13131800  0.37424800  0.39463700  1.0
  Sc  Sc31  1  0.89407700  0.87751500  0.42982800  1.0
