# generated using pymatgen
data_Sc
_symmetry_space_group_name_H-M   'P 1'
_cell_length_a   5.74926500
_cell_length_b   6.13141749
_cell_length_c   26.55693300
_cell_angle_alpha   105.70624828
_cell_angle_beta   90.00000000
_cell_angle_gamma   62.04120562
_symmetry_Int_Tables_number   1
_chemical_formula_structural   Sc
_chemical_formula_sum   Sc16
_cell_volume   787.10648266
_cell_formula_units_Z   16
loop_
 _symmetry_equiv_pos_site_id
 _symmetry_equiv_pos_as_xyz
  1  'x, y, z'
loop_
 _atom_site_type_symbol
 _atom_site_label
 _atom_site_symmetry_multiplicity
 _atom_site_fract_x
 _atom_site_fract_y
 _atom_site_fract_z
 _atom_site_occupancy
  Sc  Sc0  1  0.05589900  0.23012900  0.07744200  1.0
  Sc  Sc1  1  0.54660100  0.29558000  0.02184000  1.0
  Sc  Sc2  1  0.45224000  0.75419500  0.11334300  1.0
  Sc  Sc3  1  0.91961300  0.75114300  0.04956800  1.0
  Sc  Sc4  1  0.04173700  0.24913700  0.20354900  1.0
  Sc  Sc5  1  0.55037200  0.24829400  0.13953600  1.0
  Sc  Sc6  1  0.45523400  0.75339300  0.23529500  1.0
  Sc  Sc7  1  0.95912200  0.73809300  0.16941400  1.0
  Sc  Sc8  1  0.04087800  0.26190700  0.33058600  1.0
  Sc  Sc9  1  0.54476600  0.24660700  0.26470500  1.0
  Sc  Sc10  1  0.44962800  0.75170600  0.36046400  1.0
  Sc  Sc11  1  0.95826300  0.75086300  0.29645100  1.0
  Sc  Sc12  1  0.08038700  0.24885700  0.45043200  1.0
  Sc  Sc13  1  0.54776000  0.24580500  0.38665700  1.0
  Sc  Sc14  1  0.45339900  0.70442000  0.47816000  1.0
  Sc  Sc15  1  0.94410100  0.76987100  0.42255800  1.0
