# generated using pymatgen
data_Sc
_symmetry_space_group_name_H-M   'P 1'
_cell_length_a   8.78319588
_cell_length_b   6.13257499
_cell_length_c   32.12486426
_cell_angle_alpha   86.22582179
_cell_angle_beta   89.99453617
_cell_angle_gamma   65.83930858
_symmetry_Int_Tables_number   1
_chemical_formula_structural   Sc
_chemical_formula_sum   Sc32
_cell_volume   1574.67434156
_cell_formula_units_Z   32
loop_
 _symmetry_equiv_pos_site_id
 _symmetry_equiv_pos_as_xyz
  1  'x, y, z'
loop_
 _atom_site_type_symbol
 _atom_site_label
 _atom_site_symmetry_multiplicity
 _atom_site_fract_x
 _atom_site_fract_y
 _atom_site_fract_z
 _atom_site_occupancy
  Sc  Sc0  1  0.52347700  0.42543400  0.33837900  1.0
  Sc  Sc1  1  0.51836600  0.93013500  0.09246800  1.0
  Sc  Sc2  1  0.14407300  0.48899100  0.37014300  1.0
  Sc  Sc3  1  0.13989300  0.99090800  0.11811100  1.0
  Sc  Sc4  1  0.89815300  0.36322200  0.30741700  1.0
  Sc  Sc5  1  0.88537300  0.87368900  0.05768800  1.0
  Sc  Sc6  1  0.77078400  0.55168100  0.40293300  1.0
  Sc  Sc7  1  0.76704900  0.05868300  0.15025600  1.0
  Sc  Sc8  1  0.39992800  0.59559700  0.43048900  1.0
  Sc  Sc9  1  0.39273800  0.11708300  0.18300900  1.0
  Sc  Sc10  1  0.00602500  0.68210300  0.46271900  1.0
  Sc  Sc11  1  0.02037300  0.17614100  0.21375900  1.0
  Sc  Sc12  1  0.60416400  0.78222500  0.48760300  1.0
  Sc  Sc13  1  0.64590300  0.23958300  0.24468300  1.0
  Sc  Sc14  1  0.27087000  0.30178500  0.27606800  1.0
  Sc  Sc15  1  0.26522400  0.79877500  0.03009200  1.0
  Sc  Sc16  1  0.86010700  0.00909200  0.38188900  1.0
  Sc  Sc17  1  0.85592700  0.51100900  0.12985700  1.0
  Sc  Sc18  1  0.48163400  0.06986500  0.40753200  1.0
  Sc  Sc19  1  0.47652300  0.57456600  0.16162100  1.0
  Sc  Sc20  1  0.23295100  0.94131700  0.34974400  1.0
  Sc  Sc21  1  0.22921600  0.44831900  0.09706700  1.0
  Sc  Sc22  1  0.11462700  0.12631100  0.44231200  1.0
  Sc  Sc23  1  0.10184700  0.63677800  0.19258300  1.0
  Sc  Sc24  1  0.73477600  0.20122500  0.46990800  1.0
  Sc  Sc25  1  0.72913000  0.69821500  0.22393200  1.0
  Sc  Sc26  1  0.35409700  0.76041700  0.25531700  1.0
  Sc  Sc27  1  0.39583600  0.21777500  0.01239700  1.0
  Sc  Sc28  1  0.97962700  0.82385900  0.28624100  1.0
  Sc  Sc29  1  0.99397500  0.31789700  0.03728100  1.0
  Sc  Sc30  1  0.60726200  0.88291700  0.31699100  1.0
  Sc  Sc31  1  0.60007200  0.40440300  0.06951100  1.0
