# generated using pymatgen
data_Sc
_symmetry_space_group_name_H-M   'P 1'
_cell_length_a   3.31744506
_cell_length_b   6.13555628
_cell_length_c   22.98659420
_cell_angle_alpha   117.92446464
_cell_angle_beta   90.00001313
_cell_angle_gamma   74.31514554
_symmetry_Int_Tables_number   1
_chemical_formula_structural   Sc
_chemical_formula_sum   Sc8
_cell_volume   393.57427226
_cell_formula_units_Z   8
loop_
 _symmetry_equiv_pos_site_id
 _symmetry_equiv_pos_as_xyz
  1  'x, y, z'
loop_
 _atom_site_type_symbol
 _atom_site_label
 _atom_site_symmetry_multiplicity
 _atom_site_fract_x
 _atom_site_fract_y
 _atom_site_fract_z
 _atom_site_occupancy
  Sc  Sc0  1  0.37238100  0.25523800  0.07813100  1.0
  Sc  Sc1  1  0.87664300  0.24671400  0.19715400  1.0
  Sc  Sc2  1  0.62745200  0.74509500  0.17532100  1.0
  Sc  Sc3  1  0.11911100  0.76177800  0.05828200  1.0
  Sc  Sc4  1  0.37254800  0.25490500  0.32467900  1.0
  Sc  Sc5  1  0.88088900  0.23822200  0.44171800  1.0
  Sc  Sc6  1  0.62761900  0.74476200  0.42186900  1.0
  Sc  Sc7  1  0.12335700  0.75328600  0.30284600  1.0
