# generated using pymatgen
data_Sc
_symmetry_space_group_name_H-M   'P 1'
_cell_length_a   6.13174573
_cell_length_b   7.72069777
_cell_length_c   25.58270856
_cell_angle_alpha   92.92057864
_cell_angle_beta   92.36175847
_cell_angle_gamma   102.27353721
_symmetry_Int_Tables_number   1
_chemical_formula_structural   Sc
_chemical_formula_sum   Sc24
_cell_volume   1180.21973425
_cell_formula_units_Z   24
loop_
 _symmetry_equiv_pos_site_id
 _symmetry_equiv_pos_as_xyz
  1  'x, y, z'
loop_
 _atom_site_type_symbol
 _atom_site_label
 _atom_site_symmetry_multiplicity
 _atom_site_fract_x
 _atom_site_fract_y
 _atom_site_fract_z
 _atom_site_occupancy
  Sc  Sc0  1  0.96674300  0.80176100  0.06455600  1.0
  Sc  Sc1  1  0.61655100  0.46803400  0.11127600  1.0
  Sc  Sc2  1  0.36885100  0.13076800  0.02941600  1.0
  Sc  Sc3  1  0.50593400  0.86945000  0.10495700  1.0
  Sc  Sc4  1  0.34490800  0.56492600  0.02327400  1.0
  Sc  Sc5  1  0.89890200  0.21643100  0.05959700  1.0
  Sc  Sc6  1  0.86234200  0.80281500  0.18999100  1.0
  Sc  Sc7  1  0.48769600  0.47175700  0.23386400  1.0
  Sc  Sc8  1  0.22563500  0.13458100  0.14711800  1.0
  Sc  Sc9  1  0.38581800  0.86231700  0.22659000  1.0
  Sc  Sc10  1  0.14354300  0.53524200  0.14071100  1.0
  Sc  Sc11  1  0.75924700  0.19491800  0.18291400  1.0
  Sc  Sc12  1  0.74075300  0.80508200  0.31708600  1.0
  Sc  Sc13  1  0.35645700  0.46475800  0.35928900  1.0
  Sc  Sc14  1  0.11418200  0.13768300  0.27341000  1.0
  Sc  Sc15  1  0.27436500  0.86541900  0.35288200  1.0
  Sc  Sc16  1  0.01230400  0.52824300  0.26613600  1.0
  Sc  Sc17  1  0.63765800  0.19718500  0.31000900  1.0
  Sc  Sc18  1  0.60109800  0.78356900  0.44040300  1.0
  Sc  Sc19  1  0.15509200  0.43507400  0.47672600  1.0
  Sc  Sc20  1  0.99406600  0.13055000  0.39504300  1.0
  Sc  Sc21  1  0.13114900  0.86923200  0.47058400  1.0
  Sc  Sc22  1  0.88344900  0.53196600  0.38872400  1.0
  Sc  Sc23  1  0.53325700  0.19823900  0.43544400  1.0
