# generated using pymatgen
data_Sc
_symmetry_space_group_name_H-M   'P 1'
_cell_length_a   3.31999524
_cell_length_b   8.40549803
_cell_length_c   30.88819036
_cell_angle_alpha   95.73359677
_cell_angle_beta   89.99999269
_cell_angle_gamma   66.73533400
_symmetry_Int_Tables_number   1
_chemical_formula_structural   Sc
_chemical_formula_sum   Sc16
_cell_volume   787.18940867
_cell_formula_units_Z   16
loop_
 _symmetry_equiv_pos_site_id
 _symmetry_equiv_pos_as_xyz
  1  'x, y, z'
loop_
 _atom_site_type_symbol
 _atom_site_label
 _atom_site_symmetry_multiplicity
 _atom_site_fract_x
 _atom_site_fract_y
 _atom_site_fract_z
 _atom_site_occupancy
  Sc  Sc0  1  0.20864600  0.79135400  0.11423500  1.0
  Sc  Sc1  1  0.46979500  0.03020500  0.05303300  1.0
  Sc  Sc2  1  0.95907800  0.54092200  0.17767700  1.0
  Sc  Sc3  1  0.70936600  0.29063400  0.23936900  1.0
  Sc  Sc4  1  0.54231300  0.95768700  0.19786500  1.0
  Sc  Sc5  1  0.79541200  0.20458800  0.13405400  1.0
  Sc  Sc6  1  0.30184400  0.69815600  0.01614200  1.0
  Sc  Sc7  1  0.03935000  0.46065000  0.07446100  1.0
  Sc  Sc8  1  0.20458800  0.79541200  0.36594600  1.0
  Sc  Sc9  1  0.45768700  0.04231300  0.30213500  1.0
  Sc  Sc10  1  0.96065000  0.53935000  0.42553900  1.0
  Sc  Sc11  1  0.69815600  0.30184400  0.48385800  1.0
  Sc  Sc12  1  0.53020500  0.96979500  0.44696700  1.0
  Sc  Sc13  1  0.79135400  0.20864600  0.38576500  1.0
  Sc  Sc14  1  0.29063400  0.70936600  0.26063100  1.0
  Sc  Sc15  1  0.04092200  0.45907800  0.32232300  1.0
