# generated using pymatgen
data_Sc
_symmetry_space_group_name_H-M   'P 1'
_cell_length_a   5.15674400
_cell_length_b   5.75008400
_cell_length_c   26.55866900
_cell_angle_alpha   90.00000000
_cell_angle_beta   90.00000000
_cell_angle_gamma   90.00000000
_symmetry_Int_Tables_number   1
_chemical_formula_structural   Sc
_chemical_formula_sum   Sc16
_cell_volume   787.50998215
_cell_formula_units_Z   16
loop_
 _symmetry_equiv_pos_site_id
 _symmetry_equiv_pos_as_xyz
  1  'x, y, z'
loop_
 _atom_site_type_symbol
 _atom_site_label
 _atom_site_symmetry_multiplicity
 _atom_site_fract_x
 _atom_site_fract_y
 _atom_site_fract_z
 _atom_site_occupancy
  Sc  Sc0  1  0.75000000  0.31340600  0.00221300  1.0
  Sc  Sc1  1  0.75000000  0.82180500  0.06408700  1.0
  Sc  Sc2  1  0.25000000  0.68659400  0.00221300  1.0
  Sc  Sc3  1  0.25000000  0.17819500  0.06408700  1.0
  Sc  Sc4  1  0.75000000  0.32707700  0.12367200  1.0
  Sc  Sc5  1  0.75000000  0.83056900  0.18756500  1.0
  Sc  Sc6  1  0.25000000  0.67292300  0.12367200  1.0
  Sc  Sc7  1  0.25000000  0.16943100  0.18756500  1.0
  Sc  Sc8  1  0.75000000  0.33056900  0.24993500  1.0
  Sc  Sc9  1  0.75000000  0.82707700  0.31382800  1.0
  Sc  Sc10  1  0.25000000  0.66943100  0.24993500  1.0
  Sc  Sc11  1  0.25000000  0.17292300  0.31382800  1.0
  Sc  Sc12  1  0.75000000  0.32180500  0.37341300  1.0
  Sc  Sc13  1  0.75000000  0.81340600  0.43528700  1.0
  Sc  Sc14  1  0.25000000  0.67819500  0.37341300  1.0
  Sc  Sc15  1  0.25000000  0.18659400  0.43528700  1.0
