# generated using pymatgen
data_Sc
_symmetry_space_group_name_H-M   'P 1'
_cell_length_a   3.31950418
_cell_length_b   5.15415100
_cell_length_c   26.55602900
_cell_angle_alpha   90.00000000
_cell_angle_beta   60.00000180
_cell_angle_gamma   90.00000000
_symmetry_Int_Tables_number   1
_chemical_formula_structural   Sc
_chemical_formula_sum   Sc8
_cell_volume   393.48133075
_cell_formula_units_Z   8
loop_
 _symmetry_equiv_pos_site_id
 _symmetry_equiv_pos_as_xyz
  1  'x, y, z'
loop_
 _atom_site_type_symbol
 _atom_site_label
 _atom_site_symmetry_multiplicity
 _atom_site_fract_x
 _atom_site_fract_y
 _atom_site_fract_z
 _atom_site_occupancy
  Sc  Sc0  1  0.32069200  0.25000000  0.04482700  1.0
  Sc  Sc1  1  0.64461500  0.75000000  0.08884600  1.0
  Sc  Sc2  1  0.34479500  0.25000000  0.16380200  1.0
  Sc  Sc3  1  0.66818000  0.75000000  0.20795500  1.0
  Sc  Sc4  1  0.33182000  0.25000000  0.29204500  1.0
  Sc  Sc5  1  0.65520500  0.75000000  0.33619800  1.0
  Sc  Sc6  1  0.35538500  0.25000000  0.41115400  1.0
  Sc  Sc7  1  0.67930800  0.75000000  0.45517300  1.0
