# generated using pymatgen
data_Zr
_symmetry_space_group_name_H-M   'P 1'
_cell_length_a   3.20686077
_cell_length_b   4.53461700
_cell_length_c   25.65488478
_cell_angle_alpha   90.00000000
_cell_angle_beta   90.00000000
_cell_angle_gamma   90.00000000
_symmetry_Int_Tables_number   1
_chemical_formula_structural   Zr
_chemical_formula_sum   Zr8
_cell_volume   373.07039350
_cell_formula_units_Z   8
loop_
 _symmetry_equiv_pos_site_id
 _symmetry_equiv_pos_as_xyz
  1  'x, y, z'
loop_
 _atom_site_type_symbol
 _atom_site_label
 _atom_site_symmetry_multiplicity
 _atom_site_fract_x
 _atom_site_fract_y
 _atom_site_fract_z
 _atom_site_occupancy
  Zr  Zr0  1  0.00000000  0.00000000  0.87432800  1.0
  Zr  Zr1  1  0.00000000  0.00000000  0.99429700  1.0
  Zr  Zr2  1  0.50000000  0.50000000  0.93849500  1.0
  Zr  Zr3  1  0.50000000  0.50000000  0.81192000  1.0
  Zr  Zr4  1  0.00000000  0.00000000  0.62400500  1.0
  Zr  Zr5  1  0.00000000  0.00000000  0.75058000  1.0
  Zr  Zr6  1  0.50000000  0.50000000  0.68817200  1.0
  Zr  Zr7  1  0.50000000  0.50000000  0.56820300  1.0
