# generated using pymatgen
data_Zr
_symmetry_space_group_name_H-M   'P 1'
_cell_length_a   4.53509400
_cell_length_b   5.55484956
_cell_length_c   20.28381984
_cell_angle_alpha   90.00000000
_cell_angle_beta   90.00000000
_cell_angle_gamma   114.09246034
_symmetry_Int_Tables_number   1
_chemical_formula_structural   Zr
_chemical_formula_sum   Zr10
_cell_volume   466.47222641
_cell_formula_units_Z   10
loop_
 _symmetry_equiv_pos_site_id
 _symmetry_equiv_pos_as_xyz
  1  'x, y, z'
loop_
 _atom_site_type_symbol
 _atom_site_label
 _atom_site_symmetry_multiplicity
 _atom_site_fract_x
 _atom_site_fract_y
 _atom_site_fract_z
 _atom_site_occupancy
  Zr  Zr0  1  0.58978600  0.17957300  0.39200000  1.0
  Zr  Zr1  1  0.19313500  0.38627100  0.30133200  1.0
  Zr  Zr2  1  0.80109600  0.60219300  0.20342800  1.0
  Zr  Zr3  1  0.40926800  0.81853700  0.09298300  1.0
  Zr  Zr4  1  0.02436500  0.04872900  0.00665800  1.0
  Zr  Zr5  1  0.89073200  0.78146300  0.35701700  1.0
  Zr  Zr6  1  0.49890400  0.99780700  0.24657200  1.0
  Zr  Zr7  1  0.10686500  0.21372900  0.14866800  1.0
  Zr  Zr8  1  0.71021400  0.42042700  0.05800000  1.0
  Zr  Zr9  1  0.27563500  0.55127100  0.44334200  1.0
