# generated using pymatgen
data_Zr
_symmetry_space_group_name_H-M   'P 1'
_cell_length_a   3.20741232
_cell_length_b   7.85652357
_cell_length_c   22.22160601
_cell_angle_alpha   89.99999851
_cell_angle_beta   90.00000000
_cell_angle_gamma   90.00000000
_symmetry_Int_Tables_number   1
_chemical_formula_structural   Zr
_chemical_formula_sum   Zr12
_cell_volume   559.96470513
_cell_formula_units_Z   12
loop_
 _symmetry_equiv_pos_site_id
 _symmetry_equiv_pos_as_xyz
  1  'x, y, z'
loop_
 _atom_site_type_symbol
 _atom_site_label
 _atom_site_symmetry_multiplicity
 _atom_site_fract_x
 _atom_site_fract_y
 _atom_site_fract_z
 _atom_site_occupancy
  Zr  Zr0  1  0.00000000  0.99746300  0.01193400  1.0
  Zr  Zr1  1  0.00000000  0.32864700  0.08490200  1.0
  Zr  Zr2  1  0.00000000  0.66444200  0.16329700  1.0
  Zr  Zr3  1  0.00000000  0.00032700  0.25352300  1.0
  Zr  Zr4  1  0.00000000  0.33393600  0.33006400  1.0
  Zr  Zr5  1  0.00000000  0.65276900  0.41559700  1.0
  Zr  Zr6  1  0.50000000  0.99941500  0.12826400  1.0
  Zr  Zr7  1  0.50000000  0.33304100  0.20481100  1.0
  Zr  Zr8  1  0.50000000  0.66891000  0.29503200  1.0
  Zr  Zr9  1  0.50000000  0.00467000  0.37343600  1.0
  Zr  Zr10  1  0.50000000  0.33583000  0.44640500  1.0
  Zr  Zr11  1  0.50000000  0.68055000  0.04273500  1.0
