# generated using pymatgen
data_Zr
_symmetry_space_group_name_H-M   'P 1'
_cell_length_a   4.53679800
_cell_length_b   7.17330748
_cell_length_c   25.86372794
_cell_angle_alpha   93.17983012
_cell_angle_beta   90.00000000
_cell_angle_gamma   90.00000000
_symmetry_Int_Tables_number   1
_chemical_formula_structural   Zr
_chemical_formula_sum   Zr18
_cell_volume   840.40927695
_cell_formula_units_Z   18
loop_
 _symmetry_equiv_pos_site_id
 _symmetry_equiv_pos_as_xyz
  1  'x, y, z'
loop_
 _atom_site_type_symbol
 _atom_site_label
 _atom_site_symmetry_multiplicity
 _atom_site_fract_x
 _atom_site_fract_y
 _atom_site_fract_z
 _atom_site_occupancy
  Zr  Zr0  1  0.00000000  0.98488600  0.34397700  1.0
  Zr  Zr1  1  0.00000000  0.81870900  0.51372200  1.0
  Zr  Zr2  1  0.00000000  0.64757300  0.67815400  1.0
  Zr  Zr3  1  0.00000000  0.37331400  0.29701100  1.0
  Zr  Zr4  1  0.00000000  0.20448400  0.45649000  1.0
  Zr  Zr5  1  0.00000000  0.04207500  0.62565800  1.0
  Zr  Zr6  1  0.00000000  0.25167400  0.73039600  1.0
  Zr  Zr7  1  0.00000000  0.59618300  0.40114900  1.0
  Zr  Zr8  1  0.00000000  0.43338800  0.57116000  1.0
  Zr  Zr9  1  0.50000000  0.68576100  0.32184600  1.0
  Zr  Zr10  1  0.50000000  0.51462500  0.48627800  1.0
  Zr  Zr11  1  0.50000000  0.34844800  0.65602300  1.0
  Zr  Zr12  1  0.50000000  0.08166000  0.26960400  1.0
  Zr  Zr13  1  0.50000000  0.89994600  0.42884000  1.0
  Zr  Zr14  1  0.50000000  0.73715100  0.59885100  1.0
  Zr  Zr15  1  0.50000000  0.29125700  0.37434200  1.0
  Zr  Zr16  1  0.50000000  0.12884800  0.54351000  1.0
  Zr  Zr17  1  0.50000000  0.96001800  0.70298900  1.0
