# generated using pymatgen
data_Ag
_symmetry_space_group_name_H-M   'P 1'
_cell_length_a   9.30848007
_cell_length_b   9.30848007
_cell_length_c   20.31422132
_cell_angle_alpha   90.06342450
_cell_angle_beta   90.06342450
_cell_angle_gamma   78.53427690
_symmetry_Int_Tables_number   1
_chemical_formula_structural   Ag
_chemical_formula_sum   Ag48
_cell_volume   1725.05429135
_cell_formula_units_Z   48
loop_
 _symmetry_equiv_pos_site_id
 _symmetry_equiv_pos_as_xyz
  1  'x, y, z'
loop_
 _atom_site_type_symbol
 _atom_site_label
 _atom_site_symmetry_multiplicity
 _atom_site_fract_x
 _atom_site_fract_y
 _atom_site_fract_z
 _atom_site_occupancy
  Ag  Ag0  1  0.49721400  0.49721400  0.00598100  1.0
  Ag  Ag1  1  0.41777800  0.91826000  0.08022700  1.0
  Ag  Ag2  1  0.91826000  0.41777800  0.08022700  1.0
  Ag  Ag3  1  0.83442300  0.83442300  0.16598600  1.0
  Ag  Ag4  1  0.00527200  0.00527200  0.49161500  1.0
  Ag  Ag5  1  0.33358700  0.33358700  0.16757000  1.0
  Ag  Ag6  1  0.24919400  0.75006300  0.25045300  1.0
  Ag  Ag7  1  0.75006300  0.24919400  0.25045300  1.0
  Ag  Ag8  1  0.66450600  0.66450600  0.33339800  1.0
  Ag  Ag9  1  0.16457100  0.16457100  0.33144900  1.0
  Ag  Ag10  1  0.08297300  0.58159200  0.41746500  1.0
  Ag  Ag11  1  0.58159200  0.08297300  0.41746500  1.0
  Ag  Ag12  1  0.66931100  0.66931100  0.08013600  1.0
  Ag  Ag13  1  0.58408400  0.08376200  0.16709100  1.0
  Ag  Ag14  1  0.08376200  0.58408400  0.16709100  1.0
  Ag  Ag15  1  0.99968500  0.99968500  0.24931100  1.0
  Ag  Ag16  1  0.16800200  0.16800200  0.08143900  1.0
  Ag  Ag17  1  0.49977300  0.49977300  0.25041400  1.0
  Ag  Ag18  1  0.41461700  0.91448600  0.33267500  1.0
  Ag  Ag19  1  0.91448600  0.41461700  0.33267500  1.0
  Ag  Ag20  1  0.83360600  0.83360600  0.41944300  1.0
  Ag  Ag21  1  0.33218700  0.33218700  0.41689600  1.0
  Ag  Ag22  1  0.25213600  0.74203900  0.00658600  1.0
  Ag  Ag23  1  0.74203900  0.25213600  0.00658600  1.0
  Ag  Ag24  1  0.37784600  0.62868500  0.12705600  1.0
  Ag  Ag25  1  0.29285200  0.04088500  0.20765900  1.0
  Ag  Ag26  1  0.79200600  0.54346300  0.20849200  1.0
  Ag  Ag27  1  0.70888500  0.95699200  0.29144100  1.0
  Ag  Ag28  1  0.88067800  0.12508900  0.12308300  1.0
  Ag  Ag29  1  0.20778700  0.45879500  0.29207200  1.0
  Ag  Ag30  1  0.12604100  0.86797700  0.37584300  1.0
  Ag  Ag31  1  0.62149500  0.37417400  0.37832700  1.0
  Ag  Ag32  1  0.54313100  0.79299100  0.45401800  1.0
  Ag  Ag33  1  0.04134100  0.29299900  0.45539800  1.0
  Ag  Ag34  1  0.95920200  0.71014100  0.04319400  1.0
  Ag  Ag35  1  0.45632500  0.20710100  0.04210300  1.0
  Ag  Ag36  1  0.62868500  0.37784600  0.12705600  1.0
  Ag  Ag37  1  0.54346300  0.79200600  0.20849200  1.0
  Ag  Ag38  1  0.04088500  0.29285200  0.20765900  1.0
  Ag  Ag39  1  0.95699200  0.70888500  0.29144100  1.0
  Ag  Ag40  1  0.12508900  0.88067800  0.12308300  1.0
  Ag  Ag41  1  0.45879500  0.20778700  0.29207200  1.0
  Ag  Ag42  1  0.37417400  0.62149500  0.37832700  1.0
  Ag  Ag43  1  0.86797700  0.12604100  0.37584300  1.0
  Ag  Ag44  1  0.79299100  0.54313100  0.45401800  1.0
  Ag  Ag45  1  0.29299900  0.04134100  0.45539800  1.0
  Ag  Ag46  1  0.20710100  0.45632500  0.04210300  1.0
  Ag  Ag47  1  0.71014100  0.95920200  0.04319400  1.0
