# generated using pymatgen
data_Zr
_symmetry_space_group_name_H-M   'P 1'
_cell_length_a   3.20702058
_cell_length_b   7.16884492
_cell_length_c   25.04697861
_cell_angle_alpha   86.72673876
_cell_angle_beta   86.32940769
_cell_angle_gamma   77.07486936
_symmetry_Int_Tables_number   1
_chemical_formula_structural   Zr
_chemical_formula_sum   Zr12
_cell_volume   559.56247574
_cell_formula_units_Z   12
loop_
 _symmetry_equiv_pos_site_id
 _symmetry_equiv_pos_as_xyz
  1  'x, y, z'
loop_
 _atom_site_type_symbol
 _atom_site_label
 _atom_site_symmetry_multiplicity
 _atom_site_fract_x
 _atom_site_fract_y
 _atom_site_fract_z
 _atom_site_occupancy
  Zr  Zr0  1  0.65893400  0.40357500  0.27855500  1.0
  Zr  Zr1  1  0.32554100  0.03433900  0.31458100  1.0
  Zr  Zr2  1  0.99955200  0.52116100  0.47973500  1.0
  Zr  Zr3  1  0.00323700  0.63854400  0.35498200  1.0
  Zr  Zr4  1  0.66815600  0.26598200  0.39770400  1.0
  Zr  Zr5  1  0.33420300  0.89523000  0.43636600  1.0
  Zr  Zr6  1  0.66711400  0.14550500  0.52026500  1.0
  Zr  Zr7  1  0.33246500  0.77143800  0.56363400  1.0
  Zr  Zr8  1  0.00773200  0.26309100  0.72144500  1.0
  Zr  Zr9  1  0.99851000  0.40068400  0.60229600  1.0
  Zr  Zr10  1  0.66342900  0.02812300  0.64501800  1.0
  Zr  Zr11  1  0.34112700  0.63232900  0.68541900  1.0
