# generated using pymatgen
data_Zr
_symmetry_space_group_name_H-M   'P 1'
_cell_length_a   4.53465200
_cell_length_b   8.48483459
_cell_length_c   25.45534162
_cell_angle_alpha   81.78787602
_cell_angle_beta   84.88985055
_cell_angle_gamma   74.50103304
_symmetry_Int_Tables_number   1
_chemical_formula_structural   Zr
_chemical_formula_sum   Zr20
_cell_volume   932.78885187
_cell_formula_units_Z   20
loop_
 _symmetry_equiv_pos_site_id
 _symmetry_equiv_pos_as_xyz
  1  'x, y, z'
loop_
 _atom_site_type_symbol
 _atom_site_label
 _atom_site_symmetry_multiplicity
 _atom_site_fract_x
 _atom_site_fract_y
 _atom_site_fract_z
 _atom_site_occupancy
  Zr  Zr0  1  0.39974500  0.76195300  0.43855800  1.0
  Zr  Zr1  1  0.19961100  0.26384200  0.33693600  1.0
  Zr  Zr2  1  0.00192800  0.51343200  0.48271200  1.0
  Zr  Zr3  1  0.80228300  0.00429700  0.39113700  1.0
  Zr  Zr4  1  0.60679600  0.49646800  0.28993900  1.0
  Zr  Zr5  1  0.00198300  0.63906400  0.35697100  1.0
  Zr  Zr6  1  0.79796100  0.13115700  0.27292100  1.0
  Zr  Zr7  1  0.60128400  0.38714600  0.41028700  1.0
  Zr  Zr8  1  0.39317100  0.89434200  0.31931700  1.0
  Zr  Zr9  1  0.20006400  0.13660200  0.46327000  1.0
  Zr  Zr10  1  0.40682900  0.50565800  0.68068300  1.0
  Zr  Zr11  1  0.19871600  0.01285400  0.58971300  1.0
  Zr  Zr12  1  0.00203900  0.26884300  0.72707900  1.0
  Zr  Zr13  1  0.79801700  0.76093600  0.64302900  1.0
  Zr  Zr14  1  0.59993600  0.26339800  0.53673000  1.0
  Zr  Zr15  1  0.99771700  0.39570300  0.60886300  1.0
  Zr  Zr16  1  0.79807200  0.88656800  0.51728800  1.0
  Zr  Zr17  1  0.60038900  0.13615800  0.66306400  1.0
  Zr  Zr18  1  0.40025500  0.63804700  0.56144200  1.0
  Zr  Zr19  1  0.19320400  0.90353200  0.71006100  1.0
