# generated using pymatgen
data_Zr
_symmetry_space_group_name_H-M   'P 1'
_cell_length_a   3.19938524
_cell_length_b   5.54839564
_cell_length_c   24.73011316
_cell_angle_alpha   92.45736061
_cell_angle_beta   90.00000000
_cell_angle_gamma   106.75717153
_symmetry_Int_Tables_number   1
_chemical_formula_structural   Zr
_chemical_formula_sum   Zr9
_cell_volume   419.93205516
_cell_formula_units_Z   9
loop_
 _symmetry_equiv_pos_site_id
 _symmetry_equiv_pos_as_xyz
  1  'x, y, z'
loop_
 _atom_site_type_symbol
 _atom_site_label
 _atom_site_symmetry_multiplicity
 _atom_site_fract_x
 _atom_site_fract_y
 _atom_site_fract_z
 _atom_site_occupancy
  Zr  Zr0  1  0.61308300  0.22616600  0.38903800  1.0
  Zr  Zr1  1  0.05250300  0.10500400  0.28736300  1.0
  Zr  Zr2  1  0.33412500  0.66825000  0.33284000  1.0
  Zr  Zr3  1  0.44290600  0.88581300  0.55772000  1.0
  Zr  Zr4  1  0.89042700  0.78085400  0.44228000  1.0
  Zr  Zr5  1  0.16666700  0.33333333  0.50000000  1.0
  Zr  Zr6  1  0.28083100  0.56166300  0.71263700  1.0
  Zr  Zr7  1  0.72025000  0.44050100  0.61096200  1.0
  Zr  Zr8  1  0.99920800  0.99841700  0.66716000  1.0
