# generated using pymatgen
data_Zr
_symmetry_space_group_name_H-M   'P 1'
_cell_length_a   3.20630923
_cell_length_b   13.22097693
_cell_length_c   39.65796806
_cell_angle_alpha   93.34363010
_cell_angle_beta   89.99999898
_cell_angle_gamma   90.00000000
_symmetry_Int_Tables_number   1
_chemical_formula_structural   Zr
_chemical_formula_sum   Zr36
_cell_volume   1678.26090838
_cell_formula_units_Z   36
loop_
 _symmetry_equiv_pos_site_id
 _symmetry_equiv_pos_as_xyz
  1  'x, y, z'
loop_
 _atom_site_type_symbol
 _atom_site_label
 _atom_site_symmetry_multiplicity
 _atom_site_fract_x
 _atom_site_fract_y
 _atom_site_fract_z
 _atom_site_occupancy
  Zr  Zr0  1  0.00000000  0.47947300  0.49366100  1.0
  Zr  Zr1  1  0.00000000  0.97972600  0.32824200  1.0
  Zr  Zr2  1  0.00000000  0.22882600  0.40868200  1.0
  Zr  Zr3  1  0.00000000  0.55820000  0.29891600  1.0
  Zr  Zr4  1  0.00000000  0.81122300  0.38109700  1.0
  Zr  Zr5  1  0.00000000  0.06271800  0.46573000  1.0
  Zr  Zr6  1  0.00000000  0.13711300  0.27118600  1.0
  Zr  Zr7  1  0.00000000  0.39602400  0.35468700  1.0
  Zr  Zr8  1  0.00000000  0.64562600  0.43650900  1.0
  Zr  Zr9  1  0.50000000  0.77385500  0.31302600  1.0
  Zr  Zr10  1  0.50000000  0.02134900  0.39693700  1.0
  Zr  Zr11  1  0.50000000  0.27133100  0.47878100  1.0
  Zr  Zr12  1  0.50000000  0.35733000  0.28888800  1.0
  Zr  Zr13  1  0.50000000  0.60313700  0.36507200  1.0
  Zr  Zr14  1  0.50000000  0.85366000  0.45134400  1.0
  Zr  Zr15  1  0.50000000  0.94288900  0.26318600  1.0
  Zr  Zr16  1  0.50000000  0.18641200  0.33733700  1.0
  Zr  Zr17  1  0.50000000  0.43792600  0.42380100  1.0
  Zr  Zr18  1  0.00000000  0.22376600  0.73680900  1.0
  Zr  Zr19  1  0.00000000  0.72874000  0.57620100  1.0
  Zr  Zr20  1  0.00000000  0.98025400  0.66266100  1.0
  Zr  Zr21  1  0.00000000  0.31300600  0.54865700  1.0
  Zr  Zr22  1  0.00000000  0.56353500  0.63492800  1.0
  Zr  Zr23  1  0.00000000  0.80933600  0.71110900  1.0
  Zr  Zr24  1  0.00000000  0.89533700  0.52122000  1.0
  Zr  Zr25  1  0.00000000  0.14531600  0.60306500  1.0
  Zr  Zr26  1  0.00000000  0.39281700  0.68697500  1.0
  Zr  Zr27  1  0.50000000  0.52103900  0.56349200  1.0
  Zr  Zr28  1  0.50000000  0.77064600  0.64531400  1.0
  Zr  Zr29  1  0.50000000  0.02954400  0.72881100  1.0
  Zr  Zr30  1  0.50000000  0.10395300  0.53427200  1.0
  Zr  Zr31  1  0.50000000  0.35545000  0.61890500  1.0
  Zr  Zr32  1  0.50000000  0.60846900  0.70108300  1.0
  Zr  Zr33  1  0.50000000  0.68718900  0.50633900  1.0
  Zr  Zr34  1  0.50000000  0.93784400  0.59132200  1.0
  Zr  Zr35  1  0.50000000  0.18694000  0.67175600  1.0
