# generated using pymatgen
data_Zr
_symmetry_space_group_name_H-M   'P 1'
_cell_length_a   3.20983062
_cell_length_b   15.03104334
_cell_length_c   46.89366767
_cell_angle_alpha   98.54467683
_cell_angle_beta   90.00000000
_cell_angle_gamma   90.00000000
_symmetry_Int_Tables_number   1
_chemical_formula_structural   Zr
_chemical_formula_sum   Zr48
_cell_volume   2237.37074853
_cell_formula_units_Z   48
loop_
 _symmetry_equiv_pos_site_id
 _symmetry_equiv_pos_as_xyz
  1  'x, y, z'
loop_
 _atom_site_type_symbol
 _atom_site_label
 _atom_site_symmetry_multiplicity
 _atom_site_fract_x
 _atom_site_fract_y
 _atom_site_fract_z
 _atom_site_occupancy
  Zr  Zr0  1  0.00000000  0.09152300  0.73114000  1.0
  Zr  Zr1  1  0.00000000  0.94253300  0.56754600  1.0
  Zr  Zr2  1  0.00000000  0.77326600  0.39965600  1.0
  Zr  Zr3  1  0.00000000  0.81966300  0.69017300  1.0
  Zr  Zr4  1  0.00000000  0.64975500  0.52577400  1.0
  Zr  Zr5  1  0.00000000  0.48633600  0.36027700  1.0
  Zr  Zr6  1  0.00000000  0.45951800  0.71226200  1.0
  Zr  Zr7  1  0.00000000  0.29747100  0.54761200  1.0
  Zr  Zr8  1  0.00000000  0.12731000  0.38000700  1.0
  Zr  Zr9  1  0.00000000  0.17563300  0.67402300  1.0
  Zr  Zr10  1  0.00000000  0.00489700  0.50500300  1.0
  Zr  Zr11  1  0.00000000  0.83671900  0.33774800  1.0
  Zr  Zr12  1  0.00000000  0.87947500  0.62793500  1.0
  Zr  Zr13  1  0.00000000  0.71445700  0.46328300  1.0
  Zr  Zr14  1  0.00000000  0.53485600  0.29609500  1.0
  Zr  Zr15  1  0.00000000  0.26801300  0.26106000  1.0
  Zr  Zr16  1  0.00000000  0.58707200  0.58880000  1.0
  Zr  Zr17  1  0.00000000  0.42460400  0.42293700  1.0
  Zr  Zr18  1  0.00000000  0.53268400  0.65494800  1.0
  Zr  Zr19  1  0.00000000  0.35925800  0.48469500  1.0
  Zr  Zr20  1  0.00000000  0.19260000  0.32006000  1.0
  Zr  Zr21  1  0.00000000  0.23647800  0.60994000  1.0
  Zr  Zr22  1  0.00000000  0.06767500  0.44274600  1.0
  Zr  Zr23  1  0.00000000  0.89977800  0.27735300  1.0
  Zr  Zr24  1  0.50000000  0.99490000  0.67994000  1.0
  Zr  Zr25  1  0.50000000  0.82824200  0.51530500  1.0
  Zr  Zr26  1  0.50000000  0.65481600  0.34505200  1.0
  Zr  Zr27  1  0.50000000  0.70116400  0.63972300  1.0
  Zr  Zr28  1  0.50000000  0.53774500  0.47422600  1.0
  Zr  Zr29  1  0.50000000  0.36783700  0.30982700  1.0
  Zr  Zr30  1  0.50000000  0.35078100  0.66225200  1.0
  Zr  Zr31  1  0.50000000  0.18260300  0.49499700  1.0
  Zr  Zr32  1  0.50000000  0.01186700  0.32597700  1.0
  Zr  Zr33  1  0.50000000  0.06019000  0.61999300  1.0
  Zr  Zr34  1  0.50000000  0.89003000  0.45238800  1.0
  Zr  Zr35  1  0.50000000  0.72798200  0.28773800  1.0
  Zr  Zr36  1  0.50000000  0.91948700  0.73894000  1.0
  Zr  Zr37  1  0.50000000  0.76289600  0.57706300  1.0
  Zr  Zr38  1  0.50000000  0.60042800  0.41120000  1.0
  Zr  Zr39  1  0.50000000  0.65264400  0.70390500  1.0
  Zr  Zr40  1  0.50000000  0.47304300  0.53671700  1.0
  Zr  Zr41  1  0.50000000  0.30802500  0.37206500  1.0
  Zr  Zr42  1  0.50000000  0.41423400  0.60034400  1.0
  Zr  Zr43  1  0.50000000  0.24496700  0.43245400  1.0
  Zr  Zr44  1  0.50000000  0.09597700  0.26886000  1.0
  Zr  Zr45  1  0.50000000  0.28772200  0.72264700  1.0
  Zr  Zr46  1  0.50000000  0.11982500  0.55725400  1.0
  Zr  Zr47  1  0.50000000  0.95102200  0.39006000  1.0
