# generated using pymatgen
data_Zr
_symmetry_space_group_name_H-M   'P 1'
_cell_length_a   3.20741300
_cell_length_b   3.20741300
_cell_length_c   36.28773100
_cell_angle_alpha   90.00000000
_cell_angle_beta   90.00000000
_cell_angle_gamma   90.00000000
_symmetry_Int_Tables_number   1
_chemical_formula_structural   Zr
_chemical_formula_sum   Zr8
_cell_volume   373.30996562
_cell_formula_units_Z   8
loop_
 _symmetry_equiv_pos_site_id
 _symmetry_equiv_pos_as_xyz
  1  'x, y, z'
loop_
 _atom_site_type_symbol
 _atom_site_label
 _atom_site_symmetry_multiplicity
 _atom_site_fract_x
 _atom_site_fract_y
 _atom_site_fract_z
 _atom_site_occupancy
  Zr  Zr0  1  0.00000000  0.00000000  0.65840900  1.0
  Zr  Zr1  1  0.50000000  0.50000000  0.71648300  1.0
  Zr  Zr2  1  0.00000000  0.00000000  0.53107800  1.0
  Zr  Zr3  1  0.50000000  0.50000000  0.59419500  1.0
  Zr  Zr4  1  0.00000000  0.00000000  0.40580500  1.0
  Zr  Zr5  1  0.50000000  0.50000000  0.46892200  1.0
  Zr  Zr6  1  0.00000000  0.00000000  0.28351700  1.0
  Zr  Zr7  1  0.50000000  0.50000000  0.34159100  1.0
