# generated using pymatgen
data_Sr
_symmetry_space_group_name_H-M   'P 1'
_cell_length_a   6.02206200
_cell_length_b   7.37173304
_cell_length_c   26.91501851
_cell_angle_alpha   90.00000174
_cell_angle_beta   90.00000000
_cell_angle_gamma   114.10790049
_symmetry_Int_Tables_number   1
_chemical_formula_structural   Sr
_chemical_formula_sum   Sr10
_cell_volume   1090.62287879
_cell_formula_units_Z   10
loop_
 _symmetry_equiv_pos_site_id
 _symmetry_equiv_pos_as_xyz
  1  'x, y, z'
loop_
 _atom_site_type_symbol
 _atom_site_label
 _atom_site_symmetry_multiplicity
 _atom_site_fract_x
 _atom_site_fract_y
 _atom_site_fract_z
 _atom_site_occupancy
  Sr  Sr0  1  0.59835100  0.19670200  0.39621800  1.0
  Sr  Sr1  1  0.20383100  0.40766100  0.30073400  1.0
  Sr  Sr2  1  0.79926800  0.59853700  0.20113800  1.0
  Sr  Sr3  1  0.39749300  0.79498500  0.09857300  1.0
  Sr  Sr4  1  0.00709500  0.01418900  0.00105800  1.0
  Sr  Sr5  1  0.90250700  0.80501500  0.35142700  1.0
  Sr  Sr6  1  0.50073200  0.00146300  0.24886200  1.0
  Sr  Sr7  1  0.09616900  0.19233900  0.14926600  1.0
  Sr  Sr8  1  0.70164900  0.40329800  0.05378200  1.0
  Sr  Sr9  1  0.29290500  0.58581100  0.44894200  1.0
