# generated using pymatgen
data_Sr
_symmetry_space_group_name_H-M   'P 1'
_cell_length_a   13.47766822
_cell_length_b   13.47766822
_cell_length_c   29.52726907
_cell_angle_alpha   90.01249387
_cell_angle_beta   90.01249387
_cell_angle_gamma   78.45215254
_symmetry_Int_Tables_number   1
_chemical_formula_structural   Sr
_chemical_formula_sum   Sr48
_cell_volume   5254.98581529
_cell_formula_units_Z   48
loop_
 _symmetry_equiv_pos_site_id
 _symmetry_equiv_pos_as_xyz
  1  'x, y, z'
loop_
 _atom_site_type_symbol
 _atom_site_label
 _atom_site_symmetry_multiplicity
 _atom_site_fract_x
 _atom_site_fract_y
 _atom_site_fract_z
 _atom_site_occupancy
  Sr  Sr0  1  0.49697200  0.49697100  0.49566600  1.0
  Sr  Sr1  1  0.41141000  0.91876400  0.08076000  1.0
  Sr  Sr2  1  0.91876400  0.41141100  0.08076100  1.0
  Sr  Sr3  1  0.83317900  0.83317800  0.16709100  1.0
  Sr  Sr4  1  0.01156200  0.01156100  0.00606500  1.0
  Sr  Sr5  1  0.33447600  0.33447600  0.16745800  1.0
  Sr  Sr6  1  0.24858000  0.74819400  0.25039300  1.0
  Sr  Sr7  1  0.74819500  0.24858000  0.25039300  1.0
  Sr  Sr8  1  0.66984000  0.66983900  0.33598900  1.0
  Sr  Sr9  1  0.16930700  0.16930700  0.33284700  1.0
  Sr  Sr10  1  0.08223500  0.57955300  0.41170800  1.0
  Sr  Sr11  1  0.57955300  0.08223500  0.41170800  1.0
  Sr  Sr12  1  0.66854200  0.66854200  0.08507300  1.0
  Sr  Sr13  1  0.58018300  0.08081700  0.16585400  1.0
  Sr  Sr14  1  0.08081700  0.58018300  0.16585400  1.0
  Sr  Sr15  1  0.00080100  0.00080100  0.25013600  1.0
  Sr  Sr16  1  0.17161100  0.17161100  0.08958600  1.0
  Sr  Sr17  1  0.50170500  0.50170500  0.25154700  1.0
  Sr  Sr18  1  0.41671500  0.91590800  0.33291100  1.0
  Sr  Sr19  1  0.91590800  0.41671500  0.33291100  1.0
  Sr  Sr20  1  0.83982400  0.83982300  0.42249500  1.0
  Sr  Sr21  1  0.33270700  0.33270600  0.41443900  1.0
  Sr  Sr22  1  0.23643000  0.74738300  0.49460900  1.0
  Sr  Sr23  1  0.74738400  0.23643000  0.49460800  1.0
  Sr  Sr24  1  0.37490400  0.62510500  0.12796900  1.0
  Sr  Sr25  1  0.29206000  0.03899200  0.20896800  1.0
  Sr  Sr26  1  0.79085800  0.54093800  0.20761800  1.0
  Sr  Sr27  1  0.71021800  0.95693100  0.29160500  1.0
  Sr  Sr28  1  0.87481100  0.12429200  0.12657500  1.0
  Sr  Sr29  1  0.20864900  0.45899300  0.29011000  1.0
  Sr  Sr30  1  0.12487600  0.87665400  0.37289700  1.0
  Sr  Sr31  1  0.62642400  0.37402000  0.37547100  1.0
  Sr  Sr32  1  0.53699500  0.79057700  0.45779400  1.0
  Sr  Sr33  1  0.03821800  0.28746000  0.45487000  1.0
  Sr  Sr34  1  0.96090600  0.71385500  0.04517700  1.0
  Sr  Sr35  1  0.46366200  0.21290500  0.04551300  1.0
  Sr  Sr36  1  0.62510500  0.37490400  0.12796900  1.0
  Sr  Sr37  1  0.54093700  0.79085900  0.20761900  1.0
  Sr  Sr38  1  0.03899200  0.29206000  0.20896800  1.0
  Sr  Sr39  1  0.95693100  0.71021800  0.29160500  1.0
  Sr  Sr40  1  0.12429300  0.87481000  0.12657400  1.0
  Sr  Sr41  1  0.45899300  0.20864800  0.29011000  1.0
  Sr  Sr42  1  0.37402100  0.62642300  0.37547100  1.0
  Sr  Sr43  1  0.87665500  0.12487600  0.37289800  1.0
  Sr  Sr44  1  0.79057700  0.53699600  0.45779400  1.0
  Sr  Sr45  1  0.28745600  0.03821800  0.45487100  1.0
  Sr  Sr46  1  0.21290400  0.46366300  0.04551300  1.0
  Sr  Sr47  1  0.71385500  0.96090600  0.04517700  1.0
