# generated using pymatgen
data_Sr
_symmetry_space_group_name_H-M   'P 1'
_cell_length_a   4.25826350
_cell_length_b   7.37538300
_cell_length_c   32.70505803
_cell_angle_alpha   92.14896492
_cell_angle_beta   90.00000000
_cell_angle_gamma   106.77899624
_symmetry_Int_Tables_number   1
_chemical_formula_structural   Sr
_chemical_formula_sum   Sr9
_cell_volume   982.66080372
_cell_formula_units_Z   9
loop_
 _symmetry_equiv_pos_site_id
 _symmetry_equiv_pos_as_xyz
  1  'x, y, z'
loop_
 _atom_site_type_symbol
 _atom_site_label
 _atom_site_symmetry_multiplicity
 _atom_site_fract_x
 _atom_site_fract_y
 _atom_site_fract_z
 _atom_site_occupancy
  Sr  Sr0  1  0.27156900  0.54313900  0.71930200  1.0
  Sr  Sr1  1  0.61005500  0.22011000  0.38892100  1.0
  Sr  Sr2  1  0.44473200  0.88946400  0.55501200  1.0
  Sr  Sr3  1  0.06176500  0.12352800  0.28069800  1.0
  Sr  Sr4  1  0.88860100  0.77720300  0.44498800  1.0
  Sr  Sr5  1  0.72327800  0.44655700  0.61107900  1.0
  Sr  Sr6  1  0.33525600  0.67051300  0.33481900  1.0
  Sr  Sr7  1  0.16666700  0.33333333  0.50000000  1.0
  Sr  Sr8  1  0.99807700  0.99615400  0.66518100  1.0
