# generated using pymatgen
data_Sr
_symmetry_space_group_name_H-M   'P 1'
_cell_length_a   6.02372600
_cell_length_b   9.52004681
_cell_length_c   22.93588090
_cell_angle_alpha   94.74460529
_cell_angle_beta   90.00000000
_cell_angle_gamma   90.00000000
_symmetry_Int_Tables_number   1
_chemical_formula_structural   Sr
_chemical_formula_sum   Sr12
_cell_volume   1310.77745430
_cell_formula_units_Z   12
loop_
 _symmetry_equiv_pos_site_id
 _symmetry_equiv_pos_as_xyz
  1  'x, y, z'
loop_
 _atom_site_type_symbol
 _atom_site_label
 _atom_site_symmetry_multiplicity
 _atom_site_fract_x
 _atom_site_fract_y
 _atom_site_fract_z
 _atom_site_occupancy
  Sr  Sr0  1  0.00000000  0.06459600  0.39422300  1.0
  Sr  Sr1  1  0.00000000  0.64126400  0.31679100  1.0
  Sr  Sr2  1  0.00000000  0.47809000  0.48068700  1.0
  Sr  Sr3  1  0.50000000  0.35549600  0.35470600  1.0
  Sr  Sr4  1  0.50000000  0.92767700  0.27359000  1.0
  Sr  Sr5  1  0.50000000  0.77055800  0.43788000  1.0
  Sr  Sr6  1  0.00000000  0.31117000  0.64529400  1.0
  Sr  Sr7  1  0.00000000  0.89611000  0.56212000  1.0
  Sr  Sr8  1  0.00000000  0.73898900  0.72641000  1.0
  Sr  Sr9  1  0.50000000  0.60207000  0.60577700  1.0
  Sr  Sr10  1  0.50000000  0.18857600  0.51931300  1.0
  Sr  Sr11  1  0.50000000  0.02540400  0.68320900  1.0
