# generated using pymatgen
data_Sr
_symmetry_space_group_name_H-M   'P 1'
_cell_length_a   6.01496600
_cell_length_b   11.26476280
_cell_length_c   33.78267779
_cell_angle_alpha   81.77542106
_cell_angle_beta   84.89251532
_cell_angle_gamma   74.51527426
_symmetry_Int_Tables_number   1
_chemical_formula_structural   Sr
_chemical_formula_sum   Sr20
_cell_volume   2180.14006967
_cell_formula_units_Z   20
loop_
 _symmetry_equiv_pos_site_id
 _symmetry_equiv_pos_as_xyz
  1  'x, y, z'
loop_
 _atom_site_type_symbol
 _atom_site_label
 _atom_site_symmetry_multiplicity
 _atom_site_fract_x
 _atom_site_fract_y
 _atom_site_fract_z
 _atom_site_occupancy
  Sr  Sr0  1  0.39911000  0.76376200  0.43801800  1.0
  Sr  Sr1  1  0.20054500  0.26236400  0.33654500  1.0
  Sr  Sr2  1  0.00029600  0.51229300  0.48711500  1.0
  Sr  Sr3  1  0.79829900  0.01603400  0.38736800  1.0
  Sr  Sr4  1  0.60171400  0.51029500  0.28627700  1.0
  Sr  Sr5  1  0.99893600  0.64042600  0.36170200  1.0
  Sr  Sr6  1  0.80436000  0.12723900  0.26404100  1.0
  Sr  Sr7  1  0.59833100  0.39248800  0.41084900  1.0
  Sr  Sr8  1  0.39937100  0.88528300  0.31597400  1.0
  Sr  Sr9  1  0.19960400  0.13870100  0.46209100  1.0
  Sr  Sr10  1  0.40062800  0.51471700  0.68402600  1.0
  Sr  Sr11  1  0.20166900  0.00751200  0.58915100  1.0
  Sr  Sr12  1  0.99564000  0.27276100  0.73595900  1.0
  Sr  Sr13  1  0.80106400  0.75957400  0.63829800  1.0
  Sr  Sr14  1  0.60039600  0.26129900  0.53790900  1.0
  Sr  Sr15  1  0.00170100  0.38396600  0.61263200  1.0
  Sr  Sr16  1  0.79970400  0.88770700  0.51288500  1.0
  Sr  Sr17  1  0.59945500  0.13763600  0.66345500  1.0
  Sr  Sr18  1  0.40089000  0.63623800  0.56198200  1.0
  Sr  Sr19  1  0.19828600  0.88970500  0.71372300  1.0
