# generated using pymatgen
data_Sr
_symmetry_space_group_name_H-M   'P 1'
_cell_length_a   7.38159287
_cell_length_b   9.52953196
_cell_length_c   29.21822724
_cell_angle_alpha   93.73735407
_cell_angle_beta   94.82716700
_cell_angle_gamma   104.96126983
_symmetry_Int_Tables_number   1
_chemical_formula_structural   Sr
_chemical_formula_sum   Sr18
_cell_volume   1970.50573815
_cell_formula_units_Z   18
loop_
 _symmetry_equiv_pos_site_id
 _symmetry_equiv_pos_as_xyz
  1  'x, y, z'
loop_
 _atom_site_type_symbol
 _atom_site_label
 _atom_site_symmetry_multiplicity
 _atom_site_fract_x
 _atom_site_fract_y
 _atom_site_fract_z
 _atom_site_occupancy
  Sr  Sr0  1  0.21099800  0.80634000  0.40074700  1.0
  Sr  Sr1  1  0.87536700  0.91491500  0.29400200  1.0
  Sr  Sr2  1  0.04075500  0.36277600  0.34917500  1.0
  Sr  Sr3  1  0.45543300  0.14027300  0.31867400  1.0
  Sr  Sr4  1  0.62621100  0.58525600  0.37486200  1.0
  Sr  Sr5  1  0.29051000  0.68680100  0.26648500  1.0
  Sr  Sr6  1  0.70783300  0.13816000  0.57084000  1.0
  Sr  Sr7  1  0.37746900  0.24984400  0.45757600  1.0
  Sr  Sr8  1  0.54003000  0.69464800  0.51392400  1.0
  Sr  Sr9  1  0.95997000  0.47201900  0.48607600  1.0
  Sr  Sr10  1  0.12253100  0.91682300  0.54242400  1.0
  Sr  Sr11  1  0.79216700  0.02850700  0.42916000  1.0
  Sr  Sr12  1  0.20949000  0.47986600  0.73351500  1.0
  Sr  Sr13  1  0.87378900  0.58141000  0.62513800  1.0
  Sr  Sr14  1  0.04456700  0.02639400  0.68132600  1.0
  Sr  Sr15  1  0.45924500  0.80389100  0.65082500  1.0
  Sr  Sr16  1  0.62463300  0.25175200  0.70599800  1.0
  Sr  Sr17  1  0.28900200  0.36032700  0.59925300  1.0
