# generated using pymatgen
data_Sr
_symmetry_space_group_name_H-M   'P 1'
_cell_length_a   4.25830027
_cell_length_b   17.54526645
_cell_length_c   27.23591469
_cell_angle_alpha   105.29946489
_cell_angle_beta   90.00000000
_cell_angle_gamma   90.00000000
_symmetry_Int_Tables_number   1
_chemical_formula_structural   Sr
_chemical_formula_sum   Sr18
_cell_volume   1962.76095657
_cell_formula_units_Z   18
loop_
 _symmetry_equiv_pos_site_id
 _symmetry_equiv_pos_as_xyz
  1  'x, y, z'
loop_
 _atom_site_type_symbol
 _atom_site_label
 _atom_site_symmetry_multiplicity
 _atom_site_fract_x
 _atom_site_fract_y
 _atom_site_fract_z
 _atom_site_occupancy
  Sr  Sr0  1  0.00000100  0.59859000  0.40385600  1.0
  Sr  Sr1  1  0.99999700  0.98782500  0.34855600  1.0
  Sr  Sr2  1  0.99999900  0.38068800  0.29558500  1.0
  Sr  Sr3  1  0.50000300  0.79294800  0.37801500  1.0
  Sr  Sr4  1  0.50000100  0.18466800  0.32327400  1.0
  Sr  Sr5  1  0.49999800  0.57725300  0.26988700  1.0
  Sr  Sr6  1  0.00000000  0.42988700  0.56894600  1.0
  Sr  Sr7  1  0.00000400  0.82069200  0.51569300  1.0
  Sr  Sr8  1  0.99999900  0.20789400  0.45828300  1.0
  Sr  Sr9  1  0.50000200  0.62543800  0.54173900  1.0
  Sr  Sr10  1  0.50000100  0.01266400  0.48431500  1.0
  Sr  Sr11  1  0.49999900  0.40344900  0.43107600  1.0
  Sr  Sr12  1  0.00000000  0.25611000  0.73011400  1.0
  Sr  Sr13  1  0.00000100  0.64863300  0.67674300  1.0
  Sr  Sr14  1  0.00000100  0.04039800  0.62195300  1.0
  Sr  Sr15  1  0.50000300  0.45260800  0.70443000  1.0
  Sr  Sr16  1  0.50000300  0.84554900  0.65143700  1.0
  Sr  Sr17  1  0.49998900  0.23470900  0.59609700  1.0
