# generated using pymatgen
data_Sr
_symmetry_space_group_name_H-M   'P 1'
_cell_length_a   4.25934114
_cell_length_b   9.51313720
_cell_length_c   33.26335755
_cell_angle_alpha   86.75144498
_cell_angle_beta   86.32915430
_cell_angle_gamma   77.06378011
_symmetry_Int_Tables_number   1
_chemical_formula_structural   Sr
_chemical_formula_sum   Sr12
_cell_volume   1309.67578688
_cell_formula_units_Z   12
loop_
 _symmetry_equiv_pos_site_id
 _symmetry_equiv_pos_as_xyz
  1  'x, y, z'
loop_
 _atom_site_type_symbol
 _atom_site_label
 _atom_site_symmetry_multiplicity
 _atom_site_fract_x
 _atom_site_fract_y
 _atom_site_fract_z
 _atom_site_occupancy
  Sr  Sr0  1  0.65571100  0.41431200  0.27448900  1.0
  Sr  Sr1  1  0.33703800  0.01656300  0.30969800  1.0
  Sr  Sr2  1  0.00092100  0.51879800  0.47936100  1.0
  Sr  Sr3  1  0.99768800  0.64779600  0.35750200  1.0
  Sr  Sr4  1  0.66948600  0.26760400  0.39401100  1.0
  Sr  Sr5  1  0.33258500  0.89763000  0.43754400  1.0
  Sr  Sr6  1  0.66578400  0.14787200  0.52064000  1.0
  Sr  Sr7  1  0.33408900  0.76912000  0.56248000  1.0
  Sr  Sr8  1  0.01092200  0.25233700  0.72552900  1.0
  Sr  Sr9  1  0.99719300  0.39905800  0.60597400  1.0
  Sr  Sr10  1  0.66898000  0.01887700  0.64248600  1.0
  Sr  Sr11  1  0.32960300  0.65003200  0.69028600  1.0
