# generated using pymatgen
data_Sr
_symmetry_space_group_name_H-M   'P 1'
_cell_length_a   4.25908799
_cell_length_b   19.96811214
_cell_length_c   62.11306763
_cell_angle_alpha   98.47909879
_cell_angle_beta   90.00000065
_cell_angle_gamma   89.99999797
_symmetry_Int_Tables_number   1
_chemical_formula_structural   Sr
_chemical_formula_sum   Sr48
_cell_volume   5224.72580294
_cell_formula_units_Z   48
loop_
 _symmetry_equiv_pos_site_id
 _symmetry_equiv_pos_as_xyz
  1  'x, y, z'
loop_
 _atom_site_type_symbol
 _atom_site_label
 _atom_site_symmetry_multiplicity
 _atom_site_fract_x
 _atom_site_fract_y
 _atom_site_fract_z
 _atom_site_occupancy
  Sr  Sr0  1  0.00000000  0.10507500  0.73402600  1.0
  Sr  Sr1  1  0.00000000  0.94280000  0.56780300  1.0
  Sr  Sr2  1  0.00000000  0.77535600  0.40066300  1.0
  Sr  Sr3  1  0.00000000  0.81925100  0.69162600  1.0
  Sr  Sr4  1  0.00000000  0.65103100  0.52599700  1.0
  Sr  Sr5  1  0.00000000  0.48372900  0.35884700  1.0
  Sr  Sr6  1  0.00000000  0.46385500  0.71249200  1.0
  Sr  Sr7  1  0.00000000  0.29709800  0.54693800  1.0
  Sr  Sr8  1  0.00000000  0.12933400  0.37978200  1.0
  Sr  Sr9  1  0.00000000  0.17162700  0.67255200  1.0
  Sr  Sr10  1  0.00000000  0.00516800  0.50519300  1.0
  Sr  Sr11  1  0.00000000  0.83818200  0.33801800  1.0
  Sr  Sr12  1  0.00000000  0.88124300  0.63029500  1.0
  Sr  Sr13  1  0.00000000  0.71345700  0.46356600  1.0
  Sr  Sr14  1  0.00000000  0.54058100  0.29591200  1.0
  Sr  Sr15  1  0.00000000  0.26297500  0.25717200  1.0
  Sr  Sr16  1  0.00000000  0.58871100  0.58878000  1.0
  Sr  Sr17  1  0.00000000  0.42211000  0.42185100  1.0
  Sr  Sr18  1  0.00000000  0.52808700  0.65212200  1.0
  Sr  Sr19  1  0.00000000  0.35934200  0.48437700  1.0
  Sr  Sr20  1  0.00000000  0.19276900  0.31695800  1.0
  Sr  Sr21  1  0.00000000  0.23506900  0.60971600  1.0
  Sr  Sr22  1  0.00000000  0.06758300  0.44267400  1.0
  Sr  Sr23  1  0.00000000  0.90283000  0.27691600  1.0
  Sr  Sr24  1  0.50000000  0.99473100  0.68304200  1.0
  Sr  Sr25  1  0.50000000  0.82815800  0.51562300  1.0
  Sr  Sr26  1  0.50000000  0.65941300  0.34787800  1.0
  Sr  Sr27  1  0.50000000  0.70377100  0.64115300  1.0
  Sr  Sr28  1  0.50000000  0.53646900  0.47400300  1.0
  Sr  Sr29  1  0.50000000  0.36824900  0.30837400  1.0
  Sr  Sr30  1  0.50000000  0.34931800  0.66198200  1.0
  Sr  Sr31  1  0.50000000  0.18233200  0.49480700  1.0
  Sr  Sr32  1  0.50000000  0.01587300  0.32744800  1.0
  Sr  Sr33  1  0.50000000  0.05816600  0.62021800  1.0
  Sr  Sr34  1  0.50000000  0.89040200  0.45306200  1.0
  Sr  Sr35  1  0.50000000  0.72364500  0.28750800  1.0
  Sr  Sr36  1  0.50000000  0.92452500  0.74282800  1.0
  Sr  Sr37  1  0.50000000  0.76539000  0.57814900  1.0
  Sr  Sr38  1  0.50000000  0.59878900  0.41122000  1.0
  Sr  Sr39  1  0.50000000  0.64691900  0.70408800  1.0
  Sr  Sr40  1  0.50000000  0.47404300  0.53643400  1.0
  Sr  Sr41  1  0.50000000  0.30625700  0.36970500  1.0
  Sr  Sr42  1  0.50000000  0.41214400  0.59933700  1.0
  Sr  Sr43  1  0.50000000  0.24470000  0.43219700  1.0
  Sr  Sr44  1  0.50000000  0.08242500  0.26597400  1.0
  Sr  Sr45  1  0.50000000  0.28467000  0.72308400  1.0
  Sr  Sr46  1  0.50000000  0.11991700  0.55732600  1.0
  Sr  Sr47  1  0.50000000  0.95243100  0.39028400  1.0
