# generated using pymatgen
data_Ag
_symmetry_space_group_name_H-M   'P 1'
_cell_length_a   2.93979361
_cell_length_b   5.09180659
_cell_length_c   22.57952817
_cell_angle_alpha   92.15071142
_cell_angle_beta   90.00000000
_cell_angle_gamma   106.77886818
_symmetry_Int_Tables_number   1
_chemical_formula_structural   Ag
_chemical_formula_sum   Ag9
_cell_volume   323.35155454
_cell_formula_units_Z   9
loop_
 _symmetry_equiv_pos_site_id
 _symmetry_equiv_pos_as_xyz
  1  'x, y, z'
loop_
 _atom_site_type_symbol
 _atom_site_label
 _atom_site_symmetry_multiplicity
 _atom_site_fract_x
 _atom_site_fract_y
 _atom_site_fract_z
 _atom_site_occupancy
  Ag  Ag0  1  0.61411600  0.22823200  0.38888600  1.0
  Ag  Ag1  1  0.05629300  0.11258500  0.28157800  1.0
  Ag  Ag2  1  0.33266800  0.66533600  0.33024200  1.0
  Ag  Ag3  1  0.44373700  0.88747500  0.55607600  1.0
  Ag  Ag4  1  0.88959600  0.77919200  0.44392400  1.0
  Ag  Ag5  1  0.16666700  0.33333333  0.50000000  1.0
  Ag  Ag6  1  0.27704100  0.55408200  0.71842200  1.0
  Ag  Ag7  1  0.71921700  0.43843500  0.61111400  1.0
  Ag  Ag8  1  0.00066500  0.00133100  0.66975800  1.0
