# generated using pymatgen
data_Ga
_symmetry_space_group_name_H-M   'P 1'
_cell_length_a   2.77529300
_cell_length_b   4.81602956
_cell_length_c   23.68072000
_cell_angle_alpha   90.00000000
_cell_angle_beta   90.00000000
_cell_angle_gamma   106.74607719
_symmetry_Int_Tables_number   1
_chemical_formula_structural   Ga
_chemical_formula_sum   Ga8
_cell_volume   303.09096014
_cell_formula_units_Z   8
loop_
 _symmetry_equiv_pos_site_id
 _symmetry_equiv_pos_as_xyz
  1  'x, y, z'
loop_
 _atom_site_type_symbol
 _atom_site_label
 _atom_site_symmetry_multiplicity
 _atom_site_fract_x
 _atom_site_fract_y
 _atom_site_fract_z
 _atom_site_occupancy
  Ga  Ga0  1  0.13048600  0.26097300  0.03281300  1.0
  Ga  Ga1  1  0.86862700  0.73725300  0.08891300  1.0
  Ga  Ga2  1  0.13234900  0.26469800  0.15595700  1.0
  Ga  Ga3  1  0.86787200  0.73574200  0.21630400  1.0
  Ga  Ga4  1  0.13212800  0.26425800  0.28369600  1.0
  Ga  Ga5  1  0.86765100  0.73530200  0.34404300  1.0
  Ga  Ga6  1  0.13137300  0.26274700  0.41108700  1.0
  Ga  Ga7  1  0.86951400  0.73902700  0.46718700  1.0
