# generated using pymatgen
data_Ga
_symmetry_space_group_name_H-M   'P 1'
_cell_length_a   9.18051500
_cell_length_b   6.28157339
_cell_length_c   26.31811707
_cell_angle_alpha   86.90473855
_cell_angle_beta   90.00000000
_cell_angle_gamma   90.00000000
_symmetry_Int_Tables_number   1
_chemical_formula_structural   Ga
_chemical_formula_sum   Ga40
_cell_volume   1515.50111227
_cell_formula_units_Z   40
loop_
 _symmetry_equiv_pos_site_id
 _symmetry_equiv_pos_as_xyz
  1  'x, y, z'
loop_
 _atom_site_type_symbol
 _atom_site_label
 _atom_site_symmetry_multiplicity
 _atom_site_fract_x
 _atom_site_fract_y
 _atom_site_fract_z
 _atom_site_occupancy
  Ga  Ga0  1  0.11370600  0.64955200  0.06570000  1.0
  Ga  Ga1  1  0.13523300  0.85194300  0.16993900  1.0
  Ga  Ga2  1  0.15371600  0.06788300  0.02752000  1.0
  Ga  Ga3  1  0.13054200  0.26339000  0.12749100  1.0
  Ga  Ga4  1  0.13241500  0.44994600  0.22719800  1.0
  Ga  Ga5  1  0.86945800  0.76339000  0.12749100  1.0
  Ga  Ga6  1  0.86758500  0.94994600  0.22719800  1.0
  Ga  Ga7  1  0.88629400  0.14955200  0.06570000  1.0
  Ga  Ga8  1  0.86476700  0.35194300  0.16993900  1.0
  Ga  Ga9  1  0.84628400  0.56788300  0.02752000  1.0
  Ga  Ga10  1  0.61251600  0.48191000  0.10382400  1.0
  Ga  Ga11  1  0.62756800  0.66081800  0.20037600  1.0
  Ga  Ga12  1  0.65139300  0.87237800  0.04196400  1.0
  Ga  Ga13  1  0.64866900  0.06168900  0.14442900  1.0
  Ga  Ga14  1  0.62517500  0.28977200  0.00955200  1.0
  Ga  Ga15  1  0.35133100  0.56168900  0.14442900  1.0
  Ga  Ga16  1  0.37482500  0.78977200  0.00955200  1.0
  Ga  Ga17  1  0.38748400  0.98191000  0.10382400  1.0
  Ga  Ga18  1  0.37243200  0.16081800  0.20037600  1.0
  Ga  Ga19  1  0.34860700  0.37237800  0.04196400  1.0
  Ga  Ga20  1  0.14866900  0.63831100  0.33057100  1.0
  Ga  Ga21  1  0.15139300  0.82762200  0.43303600  1.0
  Ga  Ga22  1  0.12756800  0.03918200  0.27462400  1.0
  Ga  Ga23  1  0.11251600  0.21809000  0.37117600  1.0
  Ga  Ga24  1  0.12517500  0.41022800  0.46544800  1.0
  Ga  Ga25  1  0.88748400  0.71809000  0.37117600  1.0
  Ga  Ga26  1  0.87482500  0.91022800  0.46544800  1.0
  Ga  Ga27  1  0.85133100  0.13831100  0.33057100  1.0
  Ga  Ga28  1  0.84860700  0.32762200  0.43303600  1.0
  Ga  Ga29  1  0.87243200  0.53918200  0.27462400  1.0
  Ga  Ga30  1  0.63054200  0.43661000  0.34750900  1.0
  Ga  Ga31  1  0.65371600  0.63211700  0.44748000  1.0
  Ga  Ga32  1  0.63523300  0.84805700  0.30506100  1.0
  Ga  Ga33  1  0.61370600  0.05044800  0.40930000  1.0
  Ga  Ga34  1  0.63241500  0.25005400  0.24780200  1.0
  Ga  Ga35  1  0.38629400  0.55044800  0.40930000  1.0
  Ga  Ga36  1  0.36758500  0.75005400  0.24780200  1.0
  Ga  Ga37  1  0.36945800  0.93661000  0.34750900  1.0
  Ga  Ga38  1  0.34628400  0.13211700  0.44748000  1.0
  Ga  Ga39  1  0.36476700  0.34805700  0.30506100  1.0
