# generated using pymatgen
data_Ga
_symmetry_space_group_name_H-M   'P 1'
_cell_length_a   3.06958300
_cell_length_b   10.49706812
_cell_length_c   37.82176496
_cell_angle_alpha   86.09235285
_cell_angle_beta   90.00000000
_cell_angle_gamma   90.00000000
_symmetry_Int_Tables_number   1
_chemical_formula_structural   Ga
_chemical_formula_sum   Ga32
_cell_volume   1215.84541461
_cell_formula_units_Z   32
loop_
 _symmetry_equiv_pos_site_id
 _symmetry_equiv_pos_as_xyz
  1  'x, y, z'
loop_
 _atom_site_type_symbol
 _atom_site_label
 _atom_site_symmetry_multiplicity
 _atom_site_fract_x
 _atom_site_fract_y
 _atom_site_fract_z
 _atom_site_occupancy
  Ga  Ga0  1  0.25000000  0.96977400  0.42729200  1.0
  Ga  Ga1  1  0.25000000  0.48101800  0.17144200  1.0
  Ga  Ga2  1  0.25000000  0.84971100  0.36317700  1.0
  Ga  Ga3  1  0.25000000  0.35859200  0.11032700  1.0
  Ga  Ga4  1  0.25000000  0.11042600  0.48719100  1.0
  Ga  Ga5  1  0.25000000  0.60273500  0.23596600  1.0
  Ga  Ga6  1  0.25000000  0.72622100  0.29887800  1.0
  Ga  Ga7  1  0.25000000  0.23581200  0.04777500  1.0
  Ga  Ga8  1  0.75000000  0.51898200  0.32855800  1.0
  Ga  Ga9  1  0.75000000  0.03022600  0.07270800  1.0
  Ga  Ga10  1  0.75000000  0.39726500  0.26403400  1.0
  Ga  Ga11  1  0.75000000  0.88957400  0.01280900  1.0
  Ga  Ga12  1  0.75000000  0.64140800  0.38967300  1.0
  Ga  Ga13  1  0.75000000  0.15028900  0.13682300  1.0
  Ga  Ga14  1  0.75000000  0.76418800  0.45222500  1.0
  Ga  Ga15  1  0.75000000  0.27377900  0.20112200  1.0
  Ga  Ga16  1  0.25000000  0.28817200  0.32892600  1.0
  Ga  Ga17  1  0.25000000  0.80136000  0.08079600  1.0
  Ga  Ga18  1  0.25000000  0.16590300  0.26592400  1.0
  Ga  Ga19  1  0.25000000  0.66272600  0.02159700  1.0
  Ga  Ga20  1  0.25000000  0.40781000  0.39496800  1.0
  Ga  Ga21  1  0.25000000  0.91916200  0.14153200  1.0
  Ga  Ga22  1  0.25000000  0.54592400  0.45684100  1.0
  Ga  Ga23  1  0.25000000  0.03981100  0.20418000  1.0
  Ga  Ga24  1  0.75000000  0.08083800  0.35846800  1.0
  Ga  Ga25  1  0.75000000  0.59219000  0.10503200  1.0
  Ga  Ga26  1  0.75000000  0.96018900  0.29582000  1.0
  Ga  Ga27  1  0.75000000  0.45407600  0.04315900  1.0
  Ga  Ga28  1  0.75000000  0.19864000  0.41920400  1.0
  Ga  Ga29  1  0.75000000  0.71182800  0.17107400  1.0
  Ga  Ga30  1  0.75000000  0.33727400  0.47840300  1.0
  Ga  Ga31  1  0.75000000  0.83409700  0.23407600  1.0
