# generated using pymatgen
data_Ga
_symmetry_space_group_name_H-M   'P 1'
_cell_length_a   4.87402808
_cell_length_b   6.25109164
_cell_length_c   25.81389778
_cell_angle_alpha   84.64721234
_cell_angle_beta   86.19988731
_cell_angle_gamma   75.49526477
_symmetry_Int_Tables_number   1
_chemical_formula_structural   Ga
_chemical_formula_sum   Ga20
_cell_volume   757.35759257
_cell_formula_units_Z   20
loop_
 _symmetry_equiv_pos_site_id
 _symmetry_equiv_pos_as_xyz
  1  'x, y, z'
loop_
 _atom_site_type_symbol
 _atom_site_label
 _atom_site_symmetry_multiplicity
 _atom_site_fract_x
 _atom_site_fract_y
 _atom_site_fract_z
 _atom_site_occupancy
  Ga  Ga0  1  0.16855200  0.61348700  0.07838400  1.0
  Ga  Ga1  1  0.10739300  0.79167500  0.18270500  1.0
  Ga  Ga2  1  0.27338800  0.01346100  0.03098000  1.0
  Ga  Ga3  1  0.10700900  0.20508200  0.12792600  1.0
  Ga  Ga4  1  0.01749600  0.40116200  0.22835100  1.0
  Ga  Ga5  1  0.55555600  0.40576300  0.15762300  1.0
  Ga  Ga6  1  0.69652700  0.62533500  0.02729200  1.0
  Ga  Ga7  1  0.63285700  0.83836900  0.12448000  1.0
  Ga  Ga8  1  0.51515200  0.01824300  0.21981200  1.0
  Ga  Ga9  1  0.69736400  0.19430600  0.05164200  1.0
  Ga  Ga10  1  0.94444400  0.59423700  0.34237700  1.0
  Ga  Ga11  1  0.80263600  0.80569400  0.44835800  1.0
  Ga  Ga12  1  0.98484800  0.98175700  0.28018800  1.0
  Ga  Ga13  1  0.86714300  0.16163100  0.37552000  1.0
  Ga  Ga14  1  0.80347300  0.37466500  0.47270800  1.0
  Ga  Ga15  1  0.33144800  0.38651300  0.42161500  1.0
  Ga  Ga16  1  0.48250400  0.59883800  0.27164900  1.0
  Ga  Ga17  1  0.39299100  0.79491800  0.37207400  1.0
  Ga  Ga18  1  0.22661200  0.98653900  0.46902000  1.0
  Ga  Ga19  1  0.39260700  0.20832500  0.31729500  1.0
