# generated using pymatgen
data_Ga
_symmetry_space_group_name_H-M   'P 1'
_cell_length_a   4.07162451
_cell_length_b   4.79077989
_cell_length_c   23.84010067
_cell_angle_alpha   87.98903370
_cell_angle_beta   86.63933130
_cell_angle_gamma   78.61262705
_symmetry_Int_Tables_number   1
_chemical_formula_structural   Ga
_chemical_formula_sum   Ga12
_cell_volume   454.96147014
_cell_formula_units_Z   12
loop_
 _symmetry_equiv_pos_site_id
 _symmetry_equiv_pos_as_xyz
  1  'x, y, z'
loop_
 _atom_site_type_symbol
 _atom_site_label
 _atom_site_symmetry_multiplicity
 _atom_site_fract_x
 _atom_site_fract_y
 _atom_site_fract_z
 _atom_site_occupancy
  Ga  Ga0  1  0.06082800  0.30363200  0.97106000  1.0
  Ga  Ga1  1  0.67643800  0.14363400  0.88900600  1.0
  Ga  Ga2  1  0.06145200  0.58701200  0.86403400  1.0
  Ga  Ga3  1  0.43496000  0.72171700  0.95395600  1.0
  Ga  Ga4  1  0.26475000  0.03982700  0.80572800  1.0
  Ga  Ga5  1  0.83947300  0.99848700  0.71883200  1.0
  Ga  Ga6  1  0.23525000  0.46017300  0.69427200  1.0
  Ga  Ga7  1  0.66052700  0.50151300  0.78116800  1.0
  Ga  Ga8  1  0.43854800  0.91298800  0.63596600  1.0
  Ga  Ga9  1  0.06504000  0.77828300  0.54604400  1.0
  Ga  Ga10  1  0.43917200  0.19636800  0.52894000  1.0
  Ga  Ga11  1  0.82356200  0.35636600  0.61099400  1.0
