# generated using pymatgen
data_Ga
_symmetry_space_group_name_H-M   'P 1'
_cell_length_a   6.61317786
_cell_length_b   9.64413603
_cell_length_c   25.08504992
_cell_angle_alpha   98.48554169
_cell_angle_beta   92.89041989
_cell_angle_gamma   73.32663510
_symmetry_Int_Tables_number   1
_chemical_formula_structural   Ga
_chemical_formula_sum   Ga40
_cell_volume   1515.78584202
_cell_formula_units_Z   40
loop_
 _symmetry_equiv_pos_site_id
 _symmetry_equiv_pos_as_xyz
  1  'x, y, z'
loop_
 _atom_site_type_symbol
 _atom_site_label
 _atom_site_symmetry_multiplicity
 _atom_site_fract_x
 _atom_site_fract_y
 _atom_site_fract_z
 _atom_site_occupancy
  Ga  Ga0  1  0.75999200  0.18731000  0.02276200  1.0
  Ga  Ga1  1  0.41740200  0.11912500  0.07316000  1.0
  Ga  Ga2  1  0.04570400  0.10537000  0.11450700  1.0
  Ga  Ga3  1  0.65775800  0.14140600  0.16342700  1.0
  Ga  Ga4  1  0.26351000  0.14440900  0.21115200  1.0
  Ga  Ga5  1  0.48298200  0.82851900  0.06646500  1.0
  Ga  Ga6  1  0.98414200  0.84853000  0.13907900  1.0
  Ga  Ga7  1  0.57967900  0.87722600  0.17821600  1.0
  Ga  Ga8  1  0.18546200  0.89167200  0.23271800  1.0
  Ga  Ga9  1  0.83201200  0.90494600  0.03606200  1.0
  Ga  Ga10  1  0.84815400  0.61380400  0.07139500  1.0
  Ga  Ga11  1  0.38424600  0.65098900  0.13998200  1.0
  Ga  Ga12  1  0.92147100  0.61539200  0.18549600  1.0
  Ga  Ga13  1  0.55079400  0.62931000  0.24277000  1.0
  Ga  Ga14  1  0.19753000  0.69452000  0.03579900  1.0
  Ga  Ga15  1  0.72298600  0.39884500  0.12176700  1.0
  Ga  Ga16  1  0.26500900  0.38711000  0.15103800  1.0
  Ga  Ga17  1  0.86568400  0.35202800  0.22114600  1.0
  Ga  Ga18  1  0.40294900  0.41264300  0.04216400  1.0
  Ga  Ga19  1  0.05401900  0.32172700  0.04241500  1.0
  Ga  Ga20  1  0.81453800  0.10832800  0.26728200  1.0
  Ga  Ga21  1  0.42032100  0.12277400  0.32178400  1.0
  Ga  Ga22  1  0.01585800  0.15147000  0.36092100  1.0
  Ga  Ga23  1  0.51701800  0.17148100  0.43353500  1.0
  Ga  Ga24  1  0.16798800  0.09505400  0.46393800  1.0
  Ga  Ga25  1  0.34224200  0.85859400  0.33657300  1.0
  Ga  Ga26  1  0.95429600  0.89463000  0.38549300  1.0
  Ga  Ga27  1  0.58259800  0.88087500  0.42684000  1.0
  Ga  Ga28  1  0.24000800  0.81269000  0.47723800  1.0
  Ga  Ga29  1  0.73649000  0.85559100  0.28884800  1.0
  Ga  Ga30  1  0.73499100  0.61289000  0.34896200  1.0
  Ga  Ga31  1  0.27701400  0.60115500  0.37823300  1.0
  Ga  Ga32  1  0.94598100  0.67827300  0.45758500  1.0
  Ga  Ga33  1  0.59705100  0.58735700  0.45783600  1.0
  Ga  Ga34  1  0.13431600  0.64797200  0.27885400  1.0
  Ga  Ga35  1  0.61575400  0.34901100  0.36001800  1.0
  Ga  Ga36  1  0.15184600  0.38619600  0.42860500  1.0
  Ga  Ga37  1  0.80247000  0.30548000  0.46420100  1.0
  Ga  Ga38  1  0.44920600  0.37069000  0.25723000  1.0
  Ga  Ga39  1  0.07852900  0.38460800  0.31450400  1.0
