# generated using pymatgen
data_Ga
_symmetry_space_group_name_H-M   'P 1'
_cell_length_a   4.09156401
_cell_length_b   10.01410053
_cell_length_c   44.47042766
_cell_angle_alpha   89.55776694
_cell_angle_beta   88.61680169
_cell_angle_gamma   87.36643463
_symmetry_Int_Tables_number   1
_chemical_formula_structural   Ga
_chemical_formula_sum   Ga48
_cell_volume   1819.60696547
_cell_formula_units_Z   48
loop_
 _symmetry_equiv_pos_site_id
 _symmetry_equiv_pos_as_xyz
  1  'x, y, z'
loop_
 _atom_site_type_symbol
 _atom_site_label
 _atom_site_symmetry_multiplicity
 _atom_site_fract_x
 _atom_site_fract_y
 _atom_site_fract_z
 _atom_site_occupancy
  Ga  Ga0  1  0.07516600  0.49762400  0.31277600  1.0
  Ga  Ga1  1  0.30395200  0.01979500  0.06537700  1.0
  Ga  Ga2  1  0.53549200  0.43298000  0.35689700  1.0
  Ga  Ga3  1  0.74967400  0.90872700  0.10500800  1.0
  Ga  Ga4  1  0.60368000  0.58601300  0.27189200  1.0
  Ga  Ga5  1  0.85026900  0.10729600  0.02189300  1.0
  Ga  Ga6  1  0.96666800  0.36287800  0.40024800  1.0
  Ga  Ga7  1  0.24213100  0.81692000  0.14462500  1.0
  Ga  Ga8  1  0.42354500  0.24760700  0.43602200  1.0
  Ga  Ga9  1  0.69658900  0.75663600  0.18822300  1.0
  Ga  Ga10  1  0.91585000  0.14309400  0.47909200  1.0
  Ga  Ga11  1  0.13978600  0.67594000  0.23105500  1.0
  Ga  Ga12  1  0.75033000  0.09128000  0.39499300  1.0
  Ga  Ga13  1  0.96450000  0.56702800  0.14310300  1.0
  Ga  Ga14  1  0.19604100  0.98020000  0.43462300  1.0
  Ga  Ga15  1  0.42484300  0.50237900  0.18722100  1.0
  Ga  Ga16  1  0.25787500  0.18308200  0.35537400  1.0
  Ga  Ga17  1  0.53332300  0.63712400  0.09975100  1.0
  Ga  Ga18  1  0.64970400  0.89269500  0.47810900  1.0
  Ga  Ga19  1  0.89633500  0.41399600  0.22810500  1.0
  Ga  Ga20  1  0.36022900  0.32406600  0.26894300  1.0
  Ga  Ga21  1  0.58415500  0.85689400  0.02091000  1.0
  Ga  Ga22  1  0.80341600  0.24337000  0.31177600  1.0
  Ga  Ga23  1  0.07643900  0.75239100  0.06398100  1.0
  Ga  Ga24  1  0.26665900  0.89033500  0.37436700  1.0
  Ga  Ga25  1  0.48049600  0.36950000  0.12423400  1.0
  Ga  Ga26  1  0.71418400  0.79668300  0.41753400  1.0
  Ga  Ga27  1  0.94728700  0.29940100  0.16748400  1.0
  Ga  Ga28  1  0.79122000  0.96671100  0.33450400  1.0
  Ga  Ga29  1  0.04736000  0.45638700  0.07737100  1.0
  Ga  Ga30  1  0.16836200  0.71450800  0.46661300  1.0
  Ga  Ga31  1  0.42029800  0.21605400  0.20830900  1.0
  Ga  Ga32  1  0.88480200  0.12782300  0.25011000  1.0
  Ga  Ga33  1  0.10122700  0.68275600  0.00391800  1.0
  Ga  Ga34  1  0.32565000  0.04661900  0.29356500  1.0
  Ga  Ga35  1  0.59403800  0.54327300  0.03498300  1.0
  Ga  Ga36  1  0.01949900  0.63050200  0.37576800  1.0
  Ga  Ga37  1  0.23334600  0.10966600  0.12563100  1.0
  Ga  Ga38  1  0.45264100  0.54360500  0.42263200  1.0
  Ga  Ga39  1  0.70878300  0.03329500  0.16549500  1.0
  Ga  Ga40  1  0.55273400  0.70059500  0.33251400  1.0
  Ga  Ga41  1  0.78579800  0.20331700  0.08246700  1.0
  Ga  Ga42  1  0.90596100  0.45671500  0.46502000  1.0
  Ga  Ga43  1  0.17435500  0.95338700  0.20643300  1.0
  Ga  Ga44  1  0.39877700  0.31724000  0.49608600  1.0
  Ga  Ga45  1  0.61520800  0.87218300  0.24988900  1.0
  Ga  Ga46  1  0.07972100  0.78395400  0.29169000  1.0
  Ga  Ga47  1  0.33160000  0.28548300  0.03338600  1.0
