# generated using pymatgen
data_Ag
_symmetry_space_group_name_H-M   'P 1'
_cell_length_a   2.94164906
_cell_length_b   12.12490644
_cell_length_c   24.24961154
_cell_angle_alpha   93.41159726
_cell_angle_beta   90.00000000
_cell_angle_gamma   90.00000000
_symmetry_Int_Tables_number   1
_chemical_formula_structural   Ag
_chemical_formula_sum   Ag24
_cell_volume   863.38341907
_cell_formula_units_Z   24
loop_
 _symmetry_equiv_pos_site_id
 _symmetry_equiv_pos_as_xyz
  1  'x, y, z'
loop_
 _atom_site_type_symbol
 _atom_site_label
 _atom_site_symmetry_multiplicity
 _atom_site_fract_x
 _atom_site_fract_y
 _atom_site_fract_z
 _atom_site_occupancy
  Ag  Ag0  1  0.00000000  0.72504600  0.36567500  1.0
  Ag  Ag1  1  0.00000000  0.30980000  0.32259600  1.0
  Ag  Ag2  1  0.00000000  0.89909700  0.28208800  1.0
  Ag  Ag3  1  0.50000000  0.51638700  0.34015000  1.0
  Ag  Ag4  1  0.50000000  0.10386100  0.30273400  1.0
  Ag  Ag5  1  0.50000000  0.69469000  0.26491500  1.0
  Ag  Ag6  1  0.00000000  0.97874800  0.49000700  1.0
  Ag  Ag7  1  0.00000000  0.56156700  0.44737000  1.0
  Ag  Ag8  1  0.00000000  0.14499300  0.40648800  1.0
  Ag  Ag9  1  0.50000000  0.77015000  0.46922700  1.0
  Ag  Ag10  1  0.50000000  0.35473500  0.42629100  1.0
  Ag  Ag11  1  0.50000000  0.93578100  0.38606100  1.0
  Ag  Ag12  1  0.00000000  0.23088900  0.61394800  1.0
  Ag  Ag13  1  0.00000000  0.81195200  0.57371000  1.0
  Ag  Ag14  1  0.00000000  0.39655600  0.53077200  1.0
  Ag  Ag15  1  0.50000000  0.02170500  0.59352200  1.0
  Ag  Ag16  1  0.50000000  0.60509400  0.55261000  1.0
  Ag  Ag17  1  0.50000000  0.18793600  0.51000400  1.0
  Ag  Ag18  1  0.00000000  0.47197800  0.73507500  1.0
  Ag  Ag19  1  0.00000000  0.06278200  0.69727400  1.0
  Ag  Ag20  1  0.00000000  0.65025700  0.65982300  1.0
  Ag  Ag21  1  0.50000000  0.26754300  0.71792800  1.0
  Ag  Ag22  1  0.50000000  0.85684600  0.67740800  1.0
  Ag  Ag23  1  0.50000000  0.44160800  0.63432300  1.0
