# generated using pymatgen
data_Ga
_symmetry_space_group_name_H-M   'P 1'
_cell_length_a   2.97911300
_cell_length_b   18.56891870
_cell_length_c   22.15561500
_cell_angle_alpha   98.57735205
_cell_angle_beta   90.00000000
_cell_angle_gamma   90.00000000
_symmetry_Int_Tables_number   1
_chemical_formula_structural   Ga
_chemical_formula_sum   Ga32
_cell_volume   1211.91630417
_cell_formula_units_Z   32
loop_
 _symmetry_equiv_pos_site_id
 _symmetry_equiv_pos_as_xyz
  1  'x, y, z'
loop_
 _atom_site_type_symbol
 _atom_site_label
 _atom_site_symmetry_multiplicity
 _atom_site_fract_x
 _atom_site_fract_y
 _atom_site_fract_z
 _atom_site_occupancy
  Ga  Ga0  1  0.75000000  0.45060900  0.07094300  1.0
  Ga  Ga1  1  0.75000000  0.91851000  0.12627000  1.0
  Ga  Ga2  1  0.25000000  0.09537800  0.01186200  1.0
  Ga  Ga3  1  0.25000000  0.56992400  0.04608000  1.0
  Ga  Ga4  1  0.75000000  0.21138500  0.07214500  1.0
  Ga  Ga5  1  0.75000000  0.68149500  0.99949400  1.0
  Ga  Ga6  1  0.25000000  0.33595500  0.11263100  1.0
  Ga  Ga7  1  0.25000000  0.80021400  0.06398100  1.0
  Ga  Ga8  1  0.75000000  0.43816200  0.20332500  1.0
  Ga  Ga9  1  0.75000000  0.93535900  0.25653300  1.0
  Ga  Ga10  1  0.25000000  0.04764200  0.11938900  1.0
  Ga  Ga11  1  0.25000000  0.56327900  0.17245200  1.0
  Ga  Ga12  1  0.75000000  0.18173500  0.18533700  1.0
  Ga  Ga13  1  0.75000000  0.68607500  0.13068700  1.0
  Ga  Ga14  1  0.25000000  0.31285900  0.24164900  1.0
  Ga  Ga15  1  0.25000000  0.81002000  0.19171400  1.0
  Ga  Ga16  1  0.75000000  0.43672100  0.32754800  1.0
  Ga  Ga17  1  0.75000000  0.95235800  0.38061100  1.0
  Ga  Ga18  1  0.25000000  0.06464100  0.24346700  1.0
  Ga  Ga19  1  0.25000000  0.56183800  0.29667500  1.0
  Ga  Ga20  1  0.75000000  0.18998000  0.30828600  1.0
  Ga  Ga21  1  0.75000000  0.68714100  0.25835100  1.0
  Ga  Ga22  1  0.25000000  0.31392500  0.36931300  1.0
  Ga  Ga23  1  0.25000000  0.81826500  0.31466300  1.0
  Ga  Ga24  1  0.75000000  0.43007600  0.45392000  1.0
  Ga  Ga25  1  0.75000000  0.90462200  0.48813800  1.0
  Ga  Ga26  1  0.25000000  0.08149000  0.37373000  1.0
  Ga  Ga27  1  0.25000000  0.54939100  0.42905700  1.0
  Ga  Ga28  1  0.75000000  0.19978600  0.43601900  1.0
  Ga  Ga29  1  0.75000000  0.66404500  0.38736900  1.0
  Ga  Ga30  1  0.25000000  0.31850500  0.50050600  1.0
  Ga  Ga31  1  0.25000000  0.78861500  0.42785500  1.0
