# generated using pymatgen
data_Ga
_symmetry_space_group_name_H-M   'P 1'
_cell_length_a   4.78237375
_cell_length_b   6.58931134
_cell_length_c   24.32247516
_cell_angle_alpha   94.53858579
_cell_angle_beta   93.40627417
_cell_angle_gamma   96.75684685
_symmetry_Int_Tables_number   1
_chemical_formula_structural   Ga
_chemical_formula_sum   Ga20
_cell_volume   756.92223314
_cell_formula_units_Z   20
loop_
 _symmetry_equiv_pos_site_id
 _symmetry_equiv_pos_as_xyz
  1  'x, y, z'
loop_
 _atom_site_type_symbol
 _atom_site_label
 _atom_site_symmetry_multiplicity
 _atom_site_fract_x
 _atom_site_fract_y
 _atom_site_fract_z
 _atom_site_occupancy
  Ga  Ga0  1  0.60397600  0.02200100  0.97413500  1.0
  Ga  Ga1  1  0.70961900  0.45333500  0.93658100  1.0
  Ga  Ga2  1  0.85376900  0.85792700  0.88083200  1.0
  Ga  Ga3  1  0.92285600  0.28781300  0.83547800  1.0
  Ga  Ga4  1  0.97260300  0.67013100  0.77717100  1.0
  Ga  Ga5  1  0.39067900  0.08625100  0.86377400  1.0
  Ga  Ga6  1  0.45089600  0.52182300  0.82743500  1.0
  Ga  Ga7  1  0.49686100  0.90507500  0.76679400  1.0
  Ga  Ga8  1  0.13892600  0.21908100  0.96048700  1.0
  Ga  Ga9  1  0.26417300  0.66686000  0.93426000  1.0
  Ga  Ga10  1  0.00313900  0.09492500  0.73320600  1.0
  Ga  Ga11  1  0.04910400  0.47817700  0.67256500  1.0
  Ga  Ga12  1  0.10932100  0.91374900  0.63622600  1.0
  Ga  Ga13  1  0.23582700  0.33314000  0.56574000  1.0
  Ga  Ga14  1  0.36107400  0.78091900  0.53951300  1.0
  Ga  Ga15  1  0.64623100  0.14207300  0.61916800  1.0
  Ga  Ga16  1  0.79038100  0.54666500  0.56341900  1.0
  Ga  Ga17  1  0.89602400  0.97799900  0.52586500  1.0
  Ga  Ga18  1  0.52739700  0.32986900  0.72282900  1.0
  Ga  Ga19  1  0.57714400  0.71218700  0.66452200  1.0
