# generated using pymatgen
data_Ga
_symmetry_space_group_name_H-M   'P 1'
_cell_length_a   18.57697590
_cell_length_b   4.06946949
_cell_length_c   24.41681770
_cell_angle_alpha   86.47938048
_cell_angle_beta   95.90065671
_cell_angle_gamma   84.09934275
_symmetry_Int_Tables_number   1
_chemical_formula_structural   Ga
_chemical_formula_sum   Ga48
_cell_volume   1821.52600743
_cell_formula_units_Z   48
loop_
 _symmetry_equiv_pos_site_id
 _symmetry_equiv_pos_as_xyz
  1  'x, y, z'
loop_
 _atom_site_type_symbol
 _atom_site_label
 _atom_site_symmetry_multiplicity
 _atom_site_fract_x
 _atom_site_fract_y
 _atom_site_fract_z
 _atom_site_occupancy
  Ga  Ga0  1  0.57237700  0.78781000  0.05880300  1.0
  Ga  Ga1  1  0.07412500  0.10121400  0.02484300  1.0
  Ga  Ga2  1  0.05929800  0.59484200  0.10762000  1.0
  Ga  Ga3  1  0.57048000  0.31611200  0.14815400  1.0
  Ga  Ga4  1  0.92705900  0.88818500  0.14019400  1.0
  Ga  Ga5  1  0.43821200  0.17396600  0.10310600  1.0
  Ga  Ga6  1  0.42592900  0.72676300  0.01910000  1.0
  Ga  Ga7  1  0.93186900  0.38053500  0.05097000  1.0
  Ga  Ga8  1  0.80973100  0.45075300  0.12614600  1.0
  Ga  Ga9  1  0.31249000  0.73887000  0.09463700  1.0
  Ga  Ga10  1  0.32202500  0.27829200  0.01032600  1.0
  Ga  Ga11  1  0.82406000  0.95547400  0.04308200  1.0
  Ga  Ga12  1  0.68143800  0.75871800  0.15582100  1.0
  Ga  Ga13  1  0.17941300  0.02703100  0.12128600  1.0
  Ga  Ga14  1  0.18140800  0.53587300  0.03268300  1.0
  Ga  Ga15  1  0.68118400  0.23190300  0.06624600  1.0
  Ga  Ga16  1  0.56647500  0.83667000  0.23132000  1.0
  Ga  Ga17  1  0.05882800  0.08012200  0.19014500  1.0
  Ga  Ga18  1  0.06865300  0.60009700  0.27739700  1.0
  Ga  Ga19  1  0.56394900  0.35119300  0.31677900  1.0
  Ga  Ga20  1  0.94117200  0.91987800  0.30985500  1.0
  Ga  Ga21  1  0.43352500  0.16333000  0.26868000  1.0
  Ga  Ga22  1  0.43605100  0.64880700  0.18322100  1.0
  Ga  Ga23  1  0.93134700  0.39990300  0.22260300  1.0
  Ga  Ga24  1  0.82107800  0.48219600  0.29917000  1.0
  Ga  Ga25  1  0.31256100  0.70976100  0.25601000  1.0
  Ga  Ga26  1  0.31452000  0.21403300  0.17326800  1.0
  Ga  Ga27  1  0.81243200  0.95056000  0.21104700  1.0
  Ga  Ga28  1  0.68548000  0.78596700  0.32673200  1.0
  Ga  Ga29  1  0.18756800  0.04944000  0.28895300  1.0
  Ga  Ga30  1  0.17892200  0.51780400  0.20083000  1.0
  Ga  Ga31  1  0.68743900  0.29023900  0.24399000  1.0
  Ga  Ga32  1  0.56178800  0.82603400  0.39689400  1.0
  Ga  Ga33  1  0.07294100  0.11181500  0.35980600  1.0
  Ga  Ga34  1  0.06813100  0.61946500  0.44903000  1.0
  Ga  Ga35  1  0.57407100  0.27323700  0.48090000  1.0
  Ga  Ga36  1  0.92587500  0.89878600  0.47515700  1.0
  Ga  Ga37  1  0.42762300  0.21219000  0.44119700  1.0
  Ga  Ga38  1  0.42952000  0.68388800  0.35184600  1.0
  Ga  Ga39  1  0.94070200  0.40515800  0.39238000  1.0
  Ga  Ga40  1  0.81859200  0.46412700  0.46731700  1.0
  Ga  Ga41  1  0.31881600  0.76809700  0.43375400  1.0
  Ga  Ga42  1  0.31856200  0.24128200  0.34417900  1.0
  Ga  Ga43  1  0.82058700  0.97296900  0.37871400  1.0
  Ga  Ga44  1  0.67797500  0.72170800  0.48967400  1.0
  Ga  Ga45  1  0.17594000  0.04452600  0.45691800  1.0
  Ga  Ga46  1  0.19026900  0.54924700  0.37385400  1.0
  Ga  Ga47  1  0.68751000  0.26113000  0.40536300  1.0
