# generated using pymatgen
data_Ga
_symmetry_space_group_name_H-M   'P 1'
_cell_length_a   3.01572200
_cell_length_b   4.74136032
_cell_length_c   21.27186470
_cell_angle_alpha   94.68319342
_cell_angle_beta   90.00000000
_cell_angle_gamma   90.00000000
_symmetry_Int_Tables_number   1
_chemical_formula_structural   Ga
_chemical_formula_sum   Ga8
_cell_volume   303.14293880
_cell_formula_units_Z   8
loop_
 _symmetry_equiv_pos_site_id
 _symmetry_equiv_pos_as_xyz
  1  'x, y, z'
loop_
 _atom_site_type_symbol
 _atom_site_label
 _atom_site_symmetry_multiplicity
 _atom_site_fract_x
 _atom_site_fract_y
 _atom_site_fract_z
 _atom_site_occupancy
  Ga  Ga0  1  0.75000000  0.77708400  0.06614400  1.0
  Ga  Ga1  1  0.25000000  0.27692100  0.06590700  1.0
  Ga  Ga2  1  0.75000000  0.49292100  0.18497000  1.0
  Ga  Ga3  1  0.25000000  0.99385200  0.18646300  1.0
  Ga  Ga4  1  0.75000000  0.50614800  0.31353800  1.0
  Ga  Ga5  1  0.25000000  0.00707900  0.31503000  1.0
  Ga  Ga6  1  0.75000000  0.22307900  0.43409300  1.0
  Ga  Ga7  1  0.25000000  0.72291600  0.43385600  1.0
