# generated using pymatgen
data_Ga
_symmetry_space_group_name_H-M   'P 1'
_cell_length_a   10.81156857
_cell_length_b   6.27543653
_cell_length_c   25.87954579
_cell_angle_alpha   87.52081068
_cell_angle_beta   101.86180963
_cell_angle_gamma   63.16144271
_symmetry_Int_Tables_number   1
_chemical_formula_structural   Ga
_chemical_formula_sum   Ga40
_cell_volume   1514.53912065
_cell_formula_units_Z   40
loop_
 _symmetry_equiv_pos_site_id
 _symmetry_equiv_pos_as_xyz
  1  'x, y, z'
loop_
 _atom_site_type_symbol
 _atom_site_label
 _atom_site_symmetry_multiplicity
 _atom_site_fract_x
 _atom_site_fract_y
 _atom_site_fract_z
 _atom_site_occupancy
  Ga  Ga0  1  0.13467600  0.56398300  0.08168100  1.0
  Ga  Ga1  1  0.13787100  0.72842700  0.18690500  1.0
  Ga  Ga2  1  0.19574700  0.88146200  0.02720100  1.0
  Ga  Ga3  1  0.12758100  0.12699100  0.13221200  1.0
  Ga  Ga4  1  0.13801900  0.32640000  0.24020900  1.0
  Ga  Ga5  1  0.86533800  0.07777000  0.21561600  1.0
  Ga  Ga6  1  0.92985200  0.09028000  0.03674800  1.0
  Ga  Ga7  1  0.87883700  0.47296000  0.16523200  1.0
  Ga  Ga8  1  0.89149800  0.52550800  0.05670900  1.0
  Ga  Ga9  1  0.86647000  0.89908200  0.12018100  1.0
  Ga  Ga10  1  0.61329200  0.97824900  0.15914000  1.0
  Ga  Ga11  1  0.66444400  0.15440500  0.01895800  1.0
  Ga  Ga12  1  0.64505900  0.38481400  0.11461800  1.0
  Ga  Ga13  1  0.63133200  0.56637500  0.21426400  1.0
  Ga  Ga14  1  0.61831300  0.79662700  0.06210900  1.0
  Ga  Ga15  1  0.35272100  0.24689200  0.18090800  1.0
  Ga  Ga16  1  0.40340100  0.42261700  0.03894600  1.0
  Ga  Ga17  1  0.37576000  0.64800300  0.13885000  1.0
  Ga  Ga18  1  0.37444300  0.84648100  0.23949000  1.0
  Ga  Ga19  1  0.34804500  0.07701200  0.07637700  1.0
  Ga  Ga20  1  0.12116300  0.52704000  0.33476800  1.0
  Ga  Ga21  1  0.07014800  0.90972000  0.46325200  1.0
  Ga  Ga22  1  0.13466200  0.92223000  0.28438400  1.0
  Ga  Ga23  1  0.13353000  0.10091800  0.37981900  1.0
  Ga  Ga24  1  0.10850200  0.47449200  0.44329100  1.0
  Ga  Ga25  1  0.80425300  0.11853800  0.47279900  1.0
  Ga  Ga26  1  0.86212900  0.27157300  0.31309500  1.0
  Ga  Ga27  1  0.86532400  0.43601700  0.41831900  1.0
  Ga  Ga28  1  0.86198100  0.67360000  0.25979100  1.0
  Ga  Ga29  1  0.87241900  0.87300900  0.36778800  1.0
  Ga  Ga30  1  0.65195500  0.92298800  0.42362300  1.0
  Ga  Ga31  1  0.62555700  0.15351900  0.26051000  1.0
  Ga  Ga32  1  0.62424000  0.35199700  0.36115000  1.0
  Ga  Ga33  1  0.59659900  0.57738300  0.46105400  1.0
  Ga  Ga34  1  0.64727900  0.75310800  0.31909200  1.0
  Ga  Ga35  1  0.38168700  0.20337300  0.43789100  1.0
  Ga  Ga36  1  0.36866800  0.43362500  0.28573600  1.0
  Ga  Ga37  1  0.35494100  0.61518600  0.38538200  1.0
  Ga  Ga38  1  0.33555600  0.84559500  0.48104200  1.0
  Ga  Ga39  1  0.38670800  0.02175100  0.34086000  1.0
