# generated using pymatgen
data_Ga
_symmetry_space_group_name_H-M   'P 1'
_cell_length_a   2.76823500
_cell_length_b   9.66904616
_cell_length_c   23.82202100
_cell_angle_alpha   72.06320840
_cell_angle_beta   90.00000000
_cell_angle_gamma   90.00000000
_symmetry_Int_Tables_number   1
_chemical_formula_structural   Ga
_chemical_formula_sum   Ga16
_cell_volume   606.63421042
_cell_formula_units_Z   16
loop_
 _symmetry_equiv_pos_site_id
 _symmetry_equiv_pos_as_xyz
  1  'x, y, z'
loop_
 _atom_site_type_symbol
 _atom_site_label
 _atom_site_symmetry_multiplicity
 _atom_site_fract_x
 _atom_site_fract_y
 _atom_site_fract_z
 _atom_site_occupancy
  Ga  Ga0  1  0.00000000  0.12745200  0.07999800  1.0
  Ga  Ga1  1  0.00000000  0.87557200  0.04924700  1.0
  Ga  Ga2  1  0.50000000  0.64351000  0.02047300  1.0
  Ga  Ga3  1  0.50000000  0.37154400  0.10426800  1.0
  Ga  Ga4  1  0.00000000  0.13218700  0.20175700  1.0
  Ga  Ga5  1  0.00000000  0.86545700  0.17448500  1.0
  Ga  Ga6  1  0.50000000  0.63337900  0.14239900  1.0
  Ga  Ga7  1  0.50000000  0.37072900  0.23129100  1.0
  Ga  Ga8  1  0.00000000  0.13454300  0.32551500  1.0
  Ga  Ga9  1  0.00000000  0.86781300  0.29824300  1.0
  Ga  Ga10  1  0.50000000  0.62927100  0.26870900  1.0
  Ga  Ga11  1  0.50000000  0.36662100  0.35760100  1.0
  Ga  Ga12  1  0.00000000  0.12442800  0.45075300  1.0
  Ga  Ga13  1  0.00000000  0.87254800  0.42000200  1.0
  Ga  Ga14  1  0.50000000  0.62845500  0.39573200  1.0
  Ga  Ga15  1  0.50000000  0.35649000  0.47952700  1.0
