# generated using pymatgen
data_Ga
_symmetry_space_group_name_H-M   'P 1'
_cell_length_a   9.22436400
_cell_length_b   2.96116000
_cell_length_c   22.18142000
_cell_angle_alpha   90.00000000
_cell_angle_beta   90.00000000
_cell_angle_gamma   90.00000000
_symmetry_Int_Tables_number   1
_chemical_formula_structural   Ga
_chemical_formula_sum   Ga16
_cell_volume   605.88144368
_cell_formula_units_Z   16
loop_
 _symmetry_equiv_pos_site_id
 _symmetry_equiv_pos_as_xyz
  1  'x, y, z'
loop_
 _atom_site_type_symbol
 _atom_site_label
 _atom_site_symmetry_multiplicity
 _atom_site_fract_x
 _atom_site_fract_y
 _atom_site_fract_z
 _atom_site_occupancy
  Ga  Ga0  1  0.13129000  0.25000000  0.00358200  1.0
  Ga  Ga1  1  0.86871000  0.75000000  0.00358200  1.0
  Ga  Ga2  1  0.63283200  0.25000000  0.05464100  1.0
  Ga  Ga3  1  0.36716800  0.75000000  0.05464100  1.0
  Ga  Ga4  1  0.13085700  0.25000000  0.12820200  1.0
  Ga  Ga5  1  0.86914300  0.75000000  0.12820200  1.0
  Ga  Ga6  1  0.63055000  0.25000000  0.18323100  1.0
  Ga  Ga7  1  0.36945000  0.75000000  0.18323100  1.0
  Ga  Ga8  1  0.13055000  0.25000000  0.25426900  1.0
  Ga  Ga9  1  0.86945000  0.75000000  0.25426900  1.0
  Ga  Ga10  1  0.63085700  0.25000000  0.30929800  1.0
  Ga  Ga11  1  0.36914300  0.75000000  0.30929800  1.0
  Ga  Ga12  1  0.13283200  0.25000000  0.38285900  1.0
  Ga  Ga13  1  0.86716800  0.75000000  0.38285900  1.0
  Ga  Ga14  1  0.63129000  0.25000000  0.43391800  1.0
  Ga  Ga15  1  0.36871000  0.75000000  0.43391800  1.0
