# generated using pymatgen
data_Ga
_symmetry_space_group_name_H-M   'P 1'
_cell_length_a   2.76625000
_cell_length_b   18.50072783
_cell_length_c   24.01094500
_cell_angle_alpha   80.66365877
_cell_angle_beta   90.00000000
_cell_angle_gamma   90.00000000
_symmetry_Int_Tables_number   1
_chemical_formula_structural   Ga
_chemical_formula_sum   Ga32
_cell_volume   1212.54525614
_cell_formula_units_Z   32
loop_
 _symmetry_equiv_pos_site_id
 _symmetry_equiv_pos_as_xyz
  1  'x, y, z'
loop_
 _atom_site_type_symbol
 _atom_site_label
 _atom_site_symmetry_multiplicity
 _atom_site_fract_x
 _atom_site_fract_y
 _atom_site_fract_z
 _atom_site_occupancy
  Ga  Ga0  1  0.00000000  0.06558500  0.30454800  1.0
  Ga  Ga1  1  0.00000000  0.56473000  0.36206900  1.0
  Ga  Ga2  1  0.50000000  0.18261300  0.34648700  1.0
  Ga  Ga3  1  0.50000000  0.68514900  0.29337400  1.0
  Ga  Ga4  1  0.50000000  0.31731200  0.27801100  1.0
  Ga  Ga5  1  0.50000000  0.81635400  0.33102200  1.0
  Ga  Ga6  1  0.00000000  0.43554600  0.31918400  1.0
  Ga  Ga7  1  0.00000000  0.93686700  0.26187800  1.0
  Ga  Ga8  1  0.00000000  0.06604500  0.42816400  1.0
  Ga  Ga9  1  0.00000000  0.56534100  0.48971700  1.0
  Ga  Ga10  1  0.50000000  0.18419000  0.47367300  1.0
  Ga  Ga11  1  0.50000000  0.68553700  0.41496500  1.0
  Ga  Ga12  1  0.50000000  0.31538700  0.39877600  1.0
  Ga  Ga13  1  0.50000000  0.81666200  0.45729100  1.0
  Ga  Ga14  1  0.00000000  0.43400400  0.44406800  1.0
  Ga  Ga15  1  0.00000000  0.93410300  0.38348400  1.0
  Ga  Ga16  1  0.00000000  0.06599600  0.55593200  1.0
  Ga  Ga17  1  0.00000000  0.56589700  0.61651600  1.0
  Ga  Ga18  1  0.50000000  0.18461300  0.60122400  1.0
  Ga  Ga19  1  0.50000000  0.68333800  0.54270900  1.0
  Ga  Ga20  1  0.50000000  0.31581000  0.52632700  1.0
  Ga  Ga21  1  0.50000000  0.81446300  0.58503500  1.0
  Ga  Ga22  1  0.00000000  0.43395500  0.57183600  1.0
  Ga  Ga23  1  0.00000000  0.93465900  0.51028300  1.0
  Ga  Ga24  1  0.00000000  0.06445400  0.68081600  1.0
  Ga  Ga25  1  0.00000000  0.56313300  0.73812200  1.0
  Ga  Ga26  1  0.50000000  0.18268800  0.72198900  1.0
  Ga  Ga27  1  0.50000000  0.68364600  0.66897800  1.0
  Ga  Ga28  1  0.50000000  0.31738700  0.65351300  1.0
  Ga  Ga29  1  0.50000000  0.81485100  0.70662600  1.0
  Ga  Ga30  1  0.00000000  0.43441500  0.69545200  1.0
  Ga  Ga31  1  0.00000000  0.93527000  0.63793100  1.0
