# generated using pymatgen
data_Ga
_symmetry_space_group_name_H-M   'P 1'
_cell_length_a   5.62319879
_cell_length_b   5.62319879
_cell_length_c   25.27960916
_cell_angle_alpha   92.15251165
_cell_angle_beta   92.15251165
_cell_angle_gamma   107.76459970
_symmetry_Int_Tables_number   1
_chemical_formula_structural   Ga
_chemical_formula_sum   Ga24
_cell_volume   759.68892066
_cell_formula_units_Z   24
loop_
 _symmetry_equiv_pos_site_id
 _symmetry_equiv_pos_as_xyz
  1  'x, y, z'
loop_
 _atom_site_type_symbol
 _atom_site_label
 _atom_site_symmetry_multiplicity
 _atom_site_fract_x
 _atom_site_fract_y
 _atom_site_fract_z
 _atom_site_occupancy
  Ga  Ga0  1  0.39120300  0.34702300  0.25124900  1.0
  Ga  Ga1  1  0.89611200  0.06390700  0.25251200  1.0
  Ga  Ga2  1  0.39120000  0.84702400  0.25135100  1.0
  Ga  Ga3  1  0.89644700  0.56389700  0.25240900  1.0
  Ga  Ga4  1  0.46128400  0.63470300  0.35006200  1.0
  Ga  Ga5  1  0.97259300  0.33780700  0.35128900  1.0
  Ga  Ga6  1  0.46140400  0.13478900  0.35014300  1.0
  Ga  Ga7  1  0.97320400  0.83779400  0.35121200  1.0
  Ga  Ga8  1  0.73153700  0.76512600  0.44848500  1.0
  Ga  Ga9  1  0.24162900  0.47219500  0.45088900  1.0
  Ga  Ga10  1  0.73168300  0.26522700  0.44863400  1.0
  Ga  Ga11  1  0.24071500  0.97235900  0.45106800  1.0
  Ga  Ga12  1  0.75928500  0.02764100  0.54893200  1.0
  Ga  Ga13  1  0.26831700  0.73477300  0.55136600  1.0
  Ga  Ga14  1  0.75837100  0.52780500  0.54911100  1.0
  Ga  Ga15  1  0.26846300  0.23487400  0.55151500  1.0
  Ga  Ga16  1  0.02679600  0.16220600  0.64878800  1.0
  Ga  Ga17  1  0.53859600  0.86521100  0.64985700  1.0
  Ga  Ga18  1  0.02740700  0.66219300  0.64871100  1.0
  Ga  Ga19  1  0.53871600  0.36529700  0.64993800  1.0
  Ga  Ga20  1  0.10355300  0.43610300  0.74759100  1.0
  Ga  Ga21  1  0.60880000  0.15297600  0.74864900  1.0
  Ga  Ga22  1  0.10388800  0.93609300  0.74748800  1.0
  Ga  Ga23  1  0.60879700  0.65297700  0.74875100  1.0
