# generated using pymatgen
data_Ag
_symmetry_space_group_name_H-M   'P 1'
_cell_length_a   4.15304700
_cell_length_b   7.77128958
_cell_length_c   34.73078654
_cell_angle_alpha   88.23574884
_cell_angle_beta   86.57229177
_cell_angle_gamma   74.50201839
_symmetry_Int_Tables_number   1
_chemical_formula_structural   Ag
_chemical_formula_sum   Ag30
_cell_volume   1078.10284459
_cell_formula_units_Z   30
loop_
 _symmetry_equiv_pos_site_id
 _symmetry_equiv_pos_as_xyz
  1  'x, y, z'
loop_
 _atom_site_type_symbol
 _atom_site_label
 _atom_site_symmetry_multiplicity
 _atom_site_fract_x
 _atom_site_fract_y
 _atom_site_fract_z
 _atom_site_occupancy
  Ag  Ag0  1  0.40053700  0.82434200  0.37458400  1.0
  Ag  Ag1  1  0.40015900  0.65789600  0.54178500  1.0
  Ag  Ag2  1  0.39836700  0.49390800  0.70935700  1.0
  Ag  Ag3  1  0.20056700  0.29220900  0.30665700  1.0
  Ag  Ag4  1  0.19999100  0.12511200  0.47490600  1.0
  Ag  Ag5  1  0.19977700  0.95861800  0.64182800  1.0
  Ag  Ag6  1  0.00053000  0.26043900  0.73850100  1.0
  Ag  Ag7  1  0.99973900  0.59275000  0.40777300  1.0
  Ag  Ag8  1  0.00019400  0.42428100  0.57533100  1.0
  Ag  Ag9  1  0.80089000  0.05647900  0.34174200  1.0
  Ag  Ag10  1  0.79997600  0.89165600  0.50839200  1.0
  Ag  Ag11  1  0.80008000  0.72272300  0.67711700  1.0
  Ag  Ag12  1  0.60011200  0.52308800  0.27668700  1.0
  Ag  Ag13  1  0.59988100  0.35879700  0.44144000  1.0
  Ag  Ag14  1  0.60009300  0.19095800  0.60885500  1.0
  Ag  Ag15  1  0.99992000  0.67727700  0.32288300  1.0
  Ag  Ag16  1  0.00002400  0.50834400  0.49160800  1.0
  Ag  Ag17  1  0.99911000  0.34352100  0.65825800  1.0
  Ag  Ag18  1  0.79947000  0.13956100  0.26149900  1.0
  Ag  Ag19  1  0.79980600  0.97571900  0.42466900  1.0
  Ag  Ag20  1  0.80026100  0.80725000  0.59222700  1.0
  Ag  Ag21  1  0.60022300  0.44138200  0.35817200  1.0
  Ag  Ag22  1  0.60000900  0.27488800  0.52509400  1.0
  Ag  Ag23  1  0.59943300  0.10779100  0.69334300  1.0
  Ag  Ag24  1  0.40163300  0.90609200  0.29064300  1.0
  Ag  Ag25  1  0.39984100  0.74210400  0.45821500  1.0
  Ag  Ag26  1  0.39946300  0.57565800  0.62541600  1.0
  Ag  Ag27  1  0.19990700  0.20904200  0.39114500  1.0
  Ag  Ag28  1  0.20011900  0.04120300  0.55856000  1.0
  Ag  Ag29  1  0.19988800  0.87691200  0.72331300  1.0
