# generated using pymatgen
data_Yb
_symmetry_space_group_name_H-M   'P 1'
_cell_length_a   5.46281700
_cell_length_b   6.65685981
_cell_length_c   24.28273136
_cell_angle_alpha   89.99999904
_cell_angle_beta   90.00000000
_cell_angle_gamma   114.22461062
_symmetry_Int_Tables_number   1
_chemical_formula_structural   Yb
_chemical_formula_sum   Yb10
_cell_volume   805.28896424
_cell_formula_units_Z   10
loop_
 _symmetry_equiv_pos_site_id
 _symmetry_equiv_pos_as_xyz
  1  'x, y, z'
loop_
 _atom_site_type_symbol
 _atom_site_label
 _atom_site_symmetry_multiplicity
 _atom_site_fract_x
 _atom_site_fract_y
 _atom_site_fract_z
 _atom_site_occupancy
  Yb  Yb0  1  0.60279600  0.20559200  0.37633300  1.0
  Yb  Yb1  1  0.20075200  0.40150400  0.27330400  1.0
  Yb  Yb2  1  0.79616500  0.59233000  0.17405500  1.0
  Yb  Yb3  1  0.40152400  0.80304900  0.07950100  1.0
  Yb  Yb4  1  0.99244000  0.98487900  0.47604400  1.0
  Yb  Yb5  1  0.90383500  0.80767000  0.32594500  1.0
  Yb  Yb6  1  0.49924800  0.99849600  0.22669600  1.0
  Yb  Yb7  1  0.09720400  0.19440800  0.12366700  1.0
  Yb  Yb8  1  0.70756000  0.41512100  0.02395600  1.0
  Yb  Yb9  1  0.29847600  0.59695100  0.42049900  1.0
