# generated using pymatgen
data_Yb
_symmetry_space_group_name_H-M   'P 1'
_cell_length_a   3.85247472
_cell_length_b   5.42452200
_cell_length_c   30.81979353
_cell_angle_alpha   90.00000000
_cell_angle_beta   90.00000000
_cell_angle_gamma   90.00000000
_symmetry_Int_Tables_number   1
_chemical_formula_structural   Yb
_chemical_formula_sum   Yb8
_cell_volume   644.06692519
_cell_formula_units_Z   8
loop_
 _symmetry_equiv_pos_site_id
 _symmetry_equiv_pos_as_xyz
  1  'x, y, z'
loop_
 _atom_site_type_symbol
 _atom_site_label
 _atom_site_symmetry_multiplicity
 _atom_site_fract_x
 _atom_site_fract_y
 _atom_site_fract_z
 _atom_site_occupancy
  Yb  Yb0  1  0.00000000  0.00000000  0.90544200  1.0
  Yb  Yb1  1  0.00000000  0.00000000  0.78127400  1.0
  Yb  Yb2  1  0.50000000  0.50000000  0.96881900  1.0
  Yb  Yb3  1  0.50000000  0.50000000  0.84467900  1.0
  Yb  Yb4  1  0.00000000  0.00000000  0.65532100  1.0
  Yb  Yb5  1  0.00000000  0.00000000  0.53118100  1.0
  Yb  Yb6  1  0.50000000  0.50000000  0.71872600  1.0
  Yb  Yb7  1  0.50000000  0.50000000  0.59455800  1.0
