# generated using pymatgen
data_Yb
_symmetry_space_group_name_H-M   'P 1'
_cell_length_a   3.85133800
_cell_length_b   3.85133753
_cell_length_c   56.60287300
_cell_angle_alpha   90.00000000
_cell_angle_beta   90.00000000
_cell_angle_gamma   120.00000407
_symmetry_Int_Tables_number   1
_chemical_formula_structural   Yb
_chemical_formula_sum   Yb9
_cell_volume   727.09692110
_cell_formula_units_Z   9
loop_
 _symmetry_equiv_pos_site_id
 _symmetry_equiv_pos_as_xyz
  1  'x, y, z'
loop_
 _atom_site_type_symbol
 _atom_site_label
 _atom_site_symmetry_multiplicity
 _atom_site_fract_x
 _atom_site_fract_y
 _atom_site_fract_z
 _atom_site_occupancy
  Yb  Yb0  1  0.66666667  0.33333333  0.33299000  1.0
  Yb  Yb1  1  0.33333333  0.66666667  0.27882800  1.0
  Yb  Yb2  1  0.00000000  0.00000000  0.38859200  1.0
  Yb  Yb3  1  0.66666667  0.33333333  0.50000000  1.0
  Yb  Yb4  1  0.33333333  0.66666667  0.44439800  1.0
  Yb  Yb5  1  0.00000000  0.00000000  0.55560200  1.0
  Yb  Yb6  1  0.66666667  0.33333333  0.66701000  1.0
  Yb  Yb7  1  0.33333333  0.66666667  0.61140800  1.0
  Yb  Yb8  1  0.00000000  0.00000000  0.72117200  1.0
