# generated using pymatgen
data_Yb
_symmetry_space_group_name_H-M   'P 1'
_cell_length_a   3.85133769
_cell_length_b   9.43439329
_cell_length_c   35.69242371
_cell_angle_alpha   95.02573027
_cell_angle_beta   90.00000000
_cell_angle_gamma   90.00000000
_symmetry_Int_Tables_number   1
_chemical_formula_structural   Yb
_chemical_formula_sum   Yb16
_cell_volume   1291.89951480
_cell_formula_units_Z   16
loop_
 _symmetry_equiv_pos_site_id
 _symmetry_equiv_pos_as_xyz
  1  'x, y, z'
loop_
 _atom_site_type_symbol
 _atom_site_label
 _atom_site_symmetry_multiplicity
 _atom_site_fract_x
 _atom_site_fract_y
 _atom_site_fract_z
 _atom_site_occupancy
  Yb  Yb0  1  0.00000000  0.51591100  0.48403300  1.0
  Yb  Yb1  1  0.00000000  0.44880900  0.29700900  1.0
  Yb  Yb2  1  0.00000000  0.14213900  0.35918800  1.0
  Yb  Yb3  1  0.00000000  0.83057700  0.42293000  1.0
  Yb  Yb4  1  0.50000000  0.79805700  0.33027900  1.0
  Yb  Yb5  1  0.50000000  0.48743900  0.39008200  1.0
  Yb  Yb6  1  0.50000000  0.17275000  0.45318500  1.0
  Yb  Yb7  1  0.50000000  0.09832800  0.26747400  1.0
  Yb  Yb8  1  0.00000000  0.27667200  0.73252600  1.0
  Yb  Yb9  1  0.00000000  0.20225000  0.54681500  1.0
  Yb  Yb10  1  0.00000000  0.88756100  0.60991800  1.0
  Yb  Yb11  1  0.00000000  0.57694300  0.66972100  1.0
  Yb  Yb12  1  0.50000000  0.54442300  0.57707000  1.0
  Yb  Yb13  1  0.50000000  0.23286100  0.64081200  1.0
  Yb  Yb14  1  0.50000000  0.92619100  0.70299100  1.0
  Yb  Yb15  1  0.50000000  0.85908900  0.51596700  1.0
