# generated using pymatgen
data_Yb
_symmetry_space_group_name_H-M   'P 1'
_cell_length_a   3.84975519
_cell_length_b   6.66817246
_cell_length_c   29.57506036
_cell_angle_alpha   92.16121115
_cell_angle_beta   90.00000000
_cell_angle_gamma   106.77813448
_symmetry_Int_Tables_number   1
_chemical_formula_structural   Yb
_chemical_formula_sum   Yb9
_cell_volume   726.33226555
_cell_formula_units_Z   9
loop_
 _symmetry_equiv_pos_site_id
 _symmetry_equiv_pos_as_xyz
  1  'x, y, z'
loop_
 _atom_site_type_symbol
 _atom_site_label
 _atom_site_symmetry_multiplicity
 _atom_site_fract_x
 _atom_site_fract_y
 _atom_site_fract_z
 _atom_site_occupancy
  Yb  Yb0  1  0.60944300  0.21888500  0.38740800  1.0
  Yb  Yb1  1  0.05852900  0.11705700  0.27854000  1.0
  Yb  Yb2  1  0.33248700  0.66497600  0.33420400  1.0
  Yb  Yb3  1  0.44427900  0.88855900  0.55551600  1.0
  Yb  Yb4  1  0.88905400  0.77810800  0.44448500  1.0
  Yb  Yb5  1  0.16666700  0.33333333  0.50000000  1.0
  Yb  Yb6  1  0.27480500  0.54961000  0.72146000  1.0
  Yb  Yb7  1  0.72389000  0.44778200  0.61259200  1.0
  Yb  Yb8  1  0.00084600  0.00169100  0.66579600  1.0
