# generated using pymatgen
data_Yb
_symmetry_space_group_name_H-M   'P 1'
_cell_length_a   3.85223713
_cell_length_b   8.58481518
_cell_length_c   45.08373636
_cell_angle_alpha   86.62884078
_cell_angle_beta   87.55139938
_cell_angle_gamma   77.03455170
_symmetry_Int_Tables_number   1
_chemical_formula_structural   Yb
_chemical_formula_sum   Yb18
_cell_volume   1449.75905301
_cell_formula_units_Z   18
loop_
 _symmetry_equiv_pos_site_id
 _symmetry_equiv_pos_as_xyz
  1  'x, y, z'
loop_
 _atom_site_type_symbol
 _atom_site_label
 _atom_site_symmetry_multiplicity
 _atom_site_fract_x
 _atom_site_fract_y
 _atom_site_fract_z
 _atom_site_occupancy
  Yb  Yb0  1  0.07929900  0.57589300  0.26524200  1.0
  Yb  Yb1  1  0.90214200  0.76576000  0.43018400  1.0
  Yb  Yb2  1  0.73769100  0.92803500  0.59714200  1.0
  Yb  Yb3  1  0.37120100  0.96769600  0.29005000  1.0
  Yb  Yb4  1  0.20827700  0.12501400  0.45834800  1.0
  Yb  Yb5  1  0.04108200  0.29216100  0.62563500  1.0
  Yb  Yb6  1  0.25400200  0.75745600  0.73475400  1.0
  Yb  Yb7  1  0.59572300  0.40530300  0.40285600  1.0
  Yb  Yb8  1  0.43123800  0.56755200  0.56981600  1.0
  Yb  Yb9  1  0.67913900  0.31997900  0.32172200  1.0
  Yb  Yb10  1  0.51349100  0.48648900  0.48605000  1.0
  Yb  Yb11  1  0.34928800  0.64722700  0.65405100  1.0
  Yb  Yb12  1  0.98412800  0.68609300  0.34595300  1.0
  Yb  Yb13  1  0.81975500  0.84682300  0.51395400  1.0
  Yb  Yb14  1  0.65413000  0.01340700  0.67827400  1.0
  Yb  Yb15  1  0.29225900  0.04114200  0.37437100  1.0
  Yb  Yb16  1  0.12507700  0.20831600  0.54165400  1.0
  Yb  Yb17  1  0.96207900  0.36565200  0.70994400  1.0
