# generated using pymatgen
data_Yb
_symmetry_space_group_name_H-M   'P 1'
_cell_length_a   5.44485200
_cell_length_b   10.18362800
_cell_length_c   30.57928701
_cell_angle_alpha   81.81752203
_cell_angle_beta   84.89228398
_cell_angle_gamma   74.49433768
_symmetry_Int_Tables_number   1
_chemical_formula_structural   Yb
_chemical_formula_sum   Yb20
_cell_volume   1614.91424614
_cell_formula_units_Z   20
loop_
 _symmetry_equiv_pos_site_id
 _symmetry_equiv_pos_as_xyz
  1  'x, y, z'
loop_
 _atom_site_type_symbol
 _atom_site_label
 _atom_site_symmetry_multiplicity
 _atom_site_fract_x
 _atom_site_fract_y
 _atom_site_fract_z
 _atom_site_occupancy
  Yb  Yb0  1  0.39994100  0.76302600  0.43709100  1.0
  Yb  Yb1  1  0.20056100  0.26099400  0.33788400  1.0
  Yb  Yb2  1  0.99993500  0.51286000  0.48727100  1.0
  Yb  Yb3  1  0.80006300  0.01342300  0.38645200  1.0
  Yb  Yb4  1  0.59983700  0.51320600  0.28712000  1.0
  Yb  Yb5  1  0.99907700  0.63905700  0.36278900  1.0
  Yb  Yb6  1  0.80168800  0.13433100  0.26229200  1.0
  Yb  Yb7  1  0.59950200  0.38937300  0.41162400  1.0
  Yb  Yb8  1  0.39906600  0.88737500  0.31449300  1.0
  Yb  Yb9  1  0.20037300  0.13734400  0.46191000  1.0
  Yb  Yb10  1  0.40093400  0.51262500  0.68550700  1.0
  Yb  Yb11  1  0.20049800  0.01062700  0.58837600  1.0
  Yb  Yb12  1  0.99831200  0.26566900  0.73770800  1.0
  Yb  Yb13  1  0.80092300  0.76094300  0.63721100  1.0
  Yb  Yb14  1  0.59962700  0.26265600  0.53809000  1.0
  Yb  Yb15  1  0.99993800  0.38657700  0.61354800  1.0
  Yb  Yb16  1  0.80006500  0.88714000  0.51272900  1.0
  Yb  Yb17  1  0.59943900  0.13900600  0.66211500  1.0
  Yb  Yb18  1  0.40005900  0.63697400  0.56290900  1.0
  Yb  Yb19  1  0.20016300  0.88679400  0.71288000  1.0
