# generated using pymatgen
data_Yb
_symmetry_space_group_name_H-M   'P 1'
_cell_length_a   3.84864645
_cell_length_b   15.87353572
_cell_length_c   24.65966863
_cell_angle_alpha   105.36246959
_cell_angle_beta   90.00000000
_cell_angle_gamma   89.99999745
_symmetry_Int_Tables_number   1
_chemical_formula_structural   Yb
_chemical_formula_sum   Yb18
_cell_volume   1452.67076731
_cell_formula_units_Z   18
loop_
 _symmetry_equiv_pos_site_id
 _symmetry_equiv_pos_as_xyz
  1  'x, y, z'
loop_
 _atom_site_type_symbol
 _atom_site_label
 _atom_site_symmetry_multiplicity
 _atom_site_fract_x
 _atom_site_fract_y
 _atom_site_fract_z
 _atom_site_occupancy
  Yb  Yb0  1  0.00000000  0.59655200  0.40167400  1.0
  Yb  Yb1  1  0.00000000  0.98704900  0.34881100  1.0
  Yb  Yb2  1  0.00000000  0.37755600  0.29364000  1.0
  Yb  Yb3  1  0.50000000  0.79124100  0.37697600  1.0
  Yb  Yb4  1  0.50000000  0.18272500  0.32198900  1.0
  Yb  Yb5  1  0.50000000  0.57443500  0.26685600  1.0
  Yb  Yb6  1  0.00000000  0.43071300  0.57019800  1.0
  Yb  Yb7  1  0.00000000  0.82073900  0.51538600  1.0
  Yb  Yb8  1  0.00000000  0.20750800  0.45796200  1.0
  Yb  Yb9  1  0.50000000  0.62582600  0.54203900  1.0
  Yb  Yb10  1  0.50000000  0.01259400  0.48461500  1.0
  Yb  Yb11  1  0.50000000  0.40262200  0.42980300  1.0
  Yb  Yb12  1  0.00000000  0.25889700  0.73314300  1.0
  Yb  Yb13  1  0.00000000  0.65060800  0.67800900  1.0
  Yb  Yb14  1  0.00000000  0.04209100  0.62302300  1.0
  Yb  Yb15  1  0.50000000  0.45577700  0.70635900  1.0
  Yb  Yb16  1  0.50000000  0.84628400  0.65118800  1.0
  Yb  Yb17  1  0.50000000  0.23678200  0.59832600  1.0
