# generated using pymatgen
data_Yb
_symmetry_space_group_name_H-M   'P 1'
_cell_length_a   3.85511647
_cell_length_b   18.04197428
_cell_length_c   37.67951172
_cell_angle_alpha   99.99646135
_cell_angle_beta   90.00000000
_cell_angle_gamma   90.00000000
_symmetry_Int_Tables_number   1
_chemical_formula_structural   Yb
_chemical_formula_sum   Yb32
_cell_volume   2580.97035729
_cell_formula_units_Z   32
loop_
 _symmetry_equiv_pos_site_id
 _symmetry_equiv_pos_as_xyz
  1  'x, y, z'
loop_
 _atom_site_type_symbol
 _atom_site_label
 _atom_site_symmetry_multiplicity
 _atom_site_fract_x
 _atom_site_fract_y
 _atom_site_fract_z
 _atom_site_occupancy
  Yb  Yb0  1  0.00000000  0.63810800  0.72548600  1.0
  Yb  Yb1  1  0.00000000  0.86889500  0.65835100  1.0
  Yb  Yb2  1  0.00000000  0.24629500  0.69336500  1.0
  Yb  Yb3  1  0.00000000  0.50282700  0.63265000  1.0
  Yb  Yb4  1  0.00000000  0.74688000  0.56809200  1.0
  Yb  Yb5  1  0.00000000  0.00014800  0.50854800  1.0
  Yb  Yb6  1  0.00000000  0.12047700  0.60382300  1.0
  Yb  Yb7  1  0.00000000  0.37490800  0.53874100  1.0
  Yb  Yb8  1  0.50000000  0.68898900  0.64767100  1.0
  Yb  Yb9  1  0.50000000  0.93511200  0.58506000  1.0
  Yb  Yb10  1  0.50000000  0.31298400  0.61713900  1.0
  Yb  Yb11  1  0.50000000  0.56150600  0.55375600  1.0
  Yb  Yb12  1  0.50000000  0.83538700  0.73762400  1.0
  Yb  Yb13  1  0.50000000  0.04937300  0.68421300  1.0
  Yb  Yb14  1  0.50000000  0.18715200  0.52449600  1.0
  Yb  Yb15  1  0.50000000  0.44110500  0.70848700  1.0
  Yb  Yb16  1  0.00000000  0.62534800  0.47550400  1.0
  Yb  Yb17  1  0.00000000  0.87738800  0.41494000  1.0
  Yb  Yb18  1  0.00000000  0.25099400  0.44624400  1.0
  Yb  Yb19  1  0.00000000  0.49951600  0.38286100  1.0
  Yb  Yb20  1  0.00000000  0.76312700  0.31578700  1.0
  Yb  Yb21  1  0.00000000  0.97711300  0.26237700  1.0
  Yb  Yb22  1  0.00000000  0.12351100  0.35232900  1.0
  Yb  Yb23  1  0.00000000  0.37139500  0.29151300  1.0
  Yb  Yb24  1  0.50000000  0.69202300  0.39617700  1.0
  Yb  Yb25  1  0.50000000  0.94360500  0.34164900  1.0
  Yb  Yb26  1  0.50000000  0.30967300  0.36735000  1.0
  Yb  Yb27  1  0.50000000  0.56620500  0.30663500  1.0
  Yb  Yb28  1  0.50000000  0.81235200  0.49145200  1.0
  Yb  Yb29  1  0.50000000  0.06562000  0.43190800  1.0
  Yb  Yb30  1  0.50000000  0.17439200  0.27451400  1.0
  Yb  Yb31  1  0.50000000  0.43759200  0.46125900  1.0
