# generated using pymatgen
data_Yb
_symmetry_space_group_name_H-M   'P 1'
_cell_length_a   5.44520200
_cell_length_b   8.61010036
_cell_length_c   25.82902287
_cell_angle_alpha   89.99787177
_cell_angle_beta   90.00000000
_cell_angle_gamma   90.00000000
_symmetry_Int_Tables_number   1
_chemical_formula_structural   Yb
_chemical_formula_sum   Yb18
_cell_volume   1210.96108080
_cell_formula_units_Z   18
loop_
 _symmetry_equiv_pos_site_id
 _symmetry_equiv_pos_as_xyz
  1  'x, y, z'
loop_
 _atom_site_type_symbol
 _atom_site_label
 _atom_site_symmetry_multiplicity
 _atom_site_fract_x
 _atom_site_fract_y
 _atom_site_fract_z
 _atom_site_occupancy
  Yb  Yb0  1  0.00000000  0.01557900  0.31633600  1.0
  Yb  Yb1  1  0.00000000  0.42041400  0.25136800  1.0
  Yb  Yb2  1  0.00000000  0.61625800  0.38341900  1.0
  Yb  Yb3  1  0.50000000  0.71424800  0.28422200  1.0
  Yb  Yb4  1  0.50000000  0.11872300  0.21658700  1.0
  Yb  Yb5  1  0.50000000  0.31603300  0.34853000  1.0
  Yb  Yb6  1  0.00000000  0.81668500  0.51671200  1.0
  Yb  Yb7  1  0.00000000  0.21647100  0.44948700  1.0
  Yb  Yb8  1  0.00000000  0.41778500  0.58346100  1.0
  Yb  Yb9  1  0.50000000  0.51664900  0.48328800  1.0
  Yb  Yb10  1  0.50000000  0.91554900  0.41653900  1.0
  Yb  Yb11  1  0.50000000  0.11686100  0.55051300  1.0
  Yb  Yb12  1  0.00000000  0.61908600  0.71577800  1.0
  Yb  Yb13  1  0.00000000  0.01729900  0.65147000  1.0
  Yb  Yb14  1  0.00000000  0.21461100  0.78341300  1.0
  Yb  Yb15  1  0.50000000  0.31775500  0.68366400  1.0
  Yb  Yb16  1  0.50000000  0.71707600  0.61658100  1.0
  Yb  Yb17  1  0.50000000  0.91291800  0.74863200  1.0
