# generated using pymatgen
data_Al
_symmetry_space_group_name_H-M   'P 1'
_cell_length_a   4.06597300
_cell_length_b   4.93801972
_cell_length_c   36.00088987
_cell_angle_alpha   89.99999741
_cell_angle_beta   90.00000000
_cell_angle_gamma   114.31172547
_symmetry_Int_Tables_number   1
_chemical_formula_structural   Al
_chemical_formula_sum   Al20
_cell_volume   658.72021447
_cell_formula_units_Z   20
loop_
 _symmetry_equiv_pos_site_id
 _symmetry_equiv_pos_as_xyz
  1  'x, y, z'
loop_
 _atom_site_type_symbol
 _atom_site_label
 _atom_site_symmetry_multiplicity
 _atom_site_fract_x
 _atom_site_fract_y
 _atom_site_fract_z
 _atom_site_occupancy
  Al  Al0  1  0.59699000  0.19397900  0.19980600  1.0
  Al  Al1  1  0.19462400  0.38924900  0.14999900  1.0
  Al  Al2  1  0.79551900  0.59103900  0.09956100  1.0
  Al  Al3  1  0.39937200  0.79874300  0.04962000  1.0
  Al  Al4  1  0.00397500  0.00795000  0.00281500  1.0
  Al  Al5  1  0.89514100  0.79028300  0.17479600  1.0
  Al  Al6  1  0.49364600  0.98729200  0.12479100  1.0
  Al  Al7  1  0.10119100  0.20238200  0.07518800  1.0
  Al  Al8  1  0.70370800  0.40741600  0.02105600  1.0
  Al  Al9  1  0.29820900  0.59641700  0.22507000  1.0
  Al  Al10  1  0.59629200  0.19258400  0.45394400  1.0
  Al  Al11  1  0.19880900  0.39761800  0.39981200  1.0
  Al  Al12  1  0.80635400  0.61270800  0.35020900  1.0
  Al  Al13  1  0.40485900  0.80971700  0.30020400  1.0
  Al  Al14  1  0.00179100  0.00358300  0.24993000  1.0
  Al  Al15  1  0.90062800  0.80125700  0.42538000  1.0
  Al  Al16  1  0.50448100  0.00896100  0.37543900  1.0
  Al  Al17  1  0.10537600  0.21075100  0.32500100  1.0
  Al  Al18  1  0.70301000  0.40602100  0.27519400  1.0
  Al  Al19  1  0.29602500  0.59205000  0.47218500  1.0
