# generated using pymatgen
data_Al
_symmetry_space_group_name_H-M   'P 1'
_cell_length_a   9.03132114
_cell_length_b   9.03132114
_cell_length_c   39.57326716
_cell_angle_alpha   90.00000000
_cell_angle_beta   90.00000000
_cell_angle_gamma   78.46303865
_symmetry_Int_Tables_number   1
_chemical_formula_structural   Al
_chemical_formula_sum   Al96
_cell_volume   3162.56959088
_cell_formula_units_Z   96
loop_
 _symmetry_equiv_pos_site_id
 _symmetry_equiv_pos_as_xyz
  1  'x, y, z'
loop_
 _atom_site_type_symbol
 _atom_site_label
 _atom_site_symmetry_multiplicity
 _atom_site_fract_x
 _atom_site_fract_y
 _atom_site_fract_z
 _atom_site_occupancy
  Al  Al0  1  0.50017600  0.50017600  0.24993500  1.0
  Al  Al1  1  0.41751400  0.91901400  0.04151400  1.0
  Al  Al2  1  0.91901400  0.41751400  0.04151400  1.0
  Al  Al3  1  0.83461800  0.83461800  0.08382400  1.0
  Al  Al4  1  0.99068300  0.99068300  0.00429200  1.0
  Al  Al5  1  0.33356700  0.33356700  0.08370100  1.0
  Al  Al6  1  0.25176700  0.74774400  0.12478100  1.0
  Al  Al7  1  0.74774400  0.25176700  0.12478100  1.0
  Al  Al8  1  0.66495000  0.66495000  0.16665000  1.0
  Al  Al9  1  0.16475800  0.16475800  0.16678700  1.0
  Al  Al10  1  0.08253200  0.58236200  0.20838400  1.0
  Al  Al11  1  0.58236200  0.08253200  0.20838400  1.0
  Al  Al12  1  0.67296600  0.67296600  0.04098600  1.0
  Al  Al13  1  0.58321100  0.08445800  0.08434900  1.0
  Al  Al14  1  0.08445800  0.58321100  0.08434900  1.0
  Al  Al15  1  0.99785900  0.99785900  0.12470400  1.0
  Al  Al16  1  0.16352900  0.16352900  0.03711700  1.0
  Al  Al17  1  0.49951000  0.49951000  0.12333000  1.0
  Al  Al18  1  0.41383000  0.91572400  0.16657900  1.0
  Al  Al19  1  0.91572400  0.41383000  0.16657900  1.0
  Al  Al20  1  0.83199100  0.83199100  0.20866100  1.0
  Al  Al21  1  0.33285200  0.33285200  0.20852100  1.0
  Al  Al22  1  0.24987700  0.74975700  0.24990100  1.0
  Al  Al23  1  0.74975700  0.24987700  0.24990100  1.0
  Al  Al24  1  0.38015300  0.62651800  0.05852100  1.0
  Al  Al25  1  0.28916300  0.04343800  0.10374000  1.0
  Al  Al26  1  0.79218400  0.54166400  0.10420800  1.0
  Al  Al27  1  0.70669500  0.95716900  0.14612600  1.0
  Al  Al28  1  0.87111200  0.13152600  0.06262700  1.0
  Al  Al29  1  0.20874400  0.45709300  0.14595200  1.0
  Al  Al30  1  0.12361000  0.87358400  0.18759900  1.0
  Al  Al31  1  0.62323100  0.37418000  0.18727900  1.0
  Al  Al32  1  0.54023300  0.79119600  0.22933800  1.0
  Al  Al33  1  0.04103600  0.29093500  0.22914000  1.0
  Al  Al34  1  0.96606000  0.70362700  0.02180100  1.0
  Al  Al35  1  0.45507900  0.20841600  0.02198900  1.0
  Al  Al36  1  0.62651800  0.38015300  0.05852100  1.0
  Al  Al37  1  0.54166400  0.79218400  0.10420800  1.0
  Al  Al38  1  0.04343800  0.28916300  0.10374000  1.0
  Al  Al39  1  0.95716900  0.70669500  0.14612600  1.0
  Al  Al40  1  0.13152600  0.87111200  0.06262700  1.0
  Al  Al41  1  0.45709300  0.20874400  0.14595200  1.0
  Al  Al42  1  0.37418000  0.62323100  0.18727900  1.0
  Al  Al43  1  0.87358400  0.12361000  0.18759900  1.0
  Al  Al44  1  0.79119600  0.54023300  0.22933800  1.0
  Al  Al45  1  0.29093500  0.04103600  0.22914000  1.0
  Al  Al46  1  0.20841600  0.45507900  0.02198900  1.0
  Al  Al47  1  0.70362700  0.96606000  0.02180100  1.0
  Al  Al48  1  0.50349600  0.50349600  0.49795700  1.0
  Al  Al49  1  0.41690100  0.91775000  0.29154400  1.0
  Al  Al50  1  0.91775000  0.41690100  0.29154400  1.0
  Al  Al51  1  0.83512600  0.83512600  0.33363700  1.0
  Al  Al52  1  0.99987400  0.99987400  0.25017200  1.0
  Al  Al53  1  0.33414800  0.33414800  0.33363400  1.0
  Al  Al54  1  0.25008300  0.75250800  0.37520800  1.0
  Al  Al55  1  0.75250800  0.25008300  0.37520800  1.0
  Al  Al56  1  0.66773100  0.66773100  0.41522900  1.0
  Al  Al57  1  0.16479900  0.16479900  0.41694900  1.0
  Al  Al58  1  0.08285900  0.58081600  0.46251500  1.0
  Al  Al59  1  0.58081600  0.08285900  0.46251500  1.0
  Al  Al60  1  0.66726400  0.66726400  0.29172200  1.0
  Al  Al61  1  0.58412100  0.08620100  0.33359600  1.0
  Al  Al62  1  0.08620100  0.58412100  0.33359600  1.0
  Al  Al63  1  0.00009800  0.00009800  0.37522700  1.0
  Al  Al64  1  0.16751600  0.16751600  0.29157300  1.0
  Al  Al65  1  0.50034600  0.50034600  0.37423000  1.0
  Al  Al66  1  0.41639200  0.91718500  0.41643100  1.0
  Al  Al67  1  0.91718500  0.41639200  0.41643100  1.0
  Al  Al68  1  0.83368300  0.83368300  0.45880900  1.0
  Al  Al69  1  0.33019400  0.33019400  0.46171100  1.0
  Al  Al70  1  0.26351600  0.74466000  0.49770700  1.0
  Al  Al71  1  0.74466000  0.26351600  0.49770700  1.0
  Al  Al72  1  0.37541100  0.62590800  0.31217200  1.0
  Al  Al73  1  0.29215200  0.04294000  0.35427700  1.0
  Al  Al74  1  0.79478600  0.54254400  0.35369600  1.0
  Al  Al75  1  0.70663200  0.96135600  0.39658600  1.0
  Al  Al76  1  0.87589300  0.12602500  0.31245200  1.0
  Al  Al77  1  0.20841300  0.45753200  0.39705800  1.0
  Al  Al78  1  0.12024000  0.87509400  0.43862000  1.0
  Al  Al79  1  0.62483400  0.37539300  0.43586200  1.0
  Al  Al80  1  0.54716100  0.79086600  0.47759000  1.0
  Al  Al81  1  0.03653400  0.28746700  0.47941000  1.0
  Al  Al82  1  0.95857700  0.70860800  0.27085900  1.0
  Al  Al83  1  0.45825100  0.20822000  0.27090700  1.0
  Al  Al84  1  0.62590800  0.37541100  0.31217200  1.0
  Al  Al85  1  0.54254400  0.79478600  0.35369600  1.0
  Al  Al86  1  0.04294000  0.29215200  0.35427700  1.0
  Al  Al87  1  0.96135600  0.70663200  0.39658600  1.0
  Al  Al88  1  0.12602500  0.87589300  0.31245200  1.0
  Al  Al89  1  0.45753200  0.20841300  0.39705800  1.0
  Al  Al90  1  0.37539300  0.62483400  0.43586200  1.0
  Al  Al91  1  0.87509400  0.12024000  0.43862000  1.0
  Al  Al92  1  0.79086600  0.54716100  0.47759000  1.0
  Al  Al93  1  0.28746700  0.03653400  0.47941000  1.0
  Al  Al94  1  0.20822000  0.45825100  0.27090700  1.0
  Al  Al95  1  0.70860800  0.95857700  0.27085900  1.0
