# generated using pymatgen
data_Al
_symmetry_space_group_name_H-M   'P 1'
_cell_length_a   2.85706163
_cell_length_b   8.51465865
_cell_length_c   24.36998300
_cell_angle_alpha   90.08308413
_cell_angle_beta   89.57254783
_cell_angle_gamma   90.08144139
_symmetry_Int_Tables_number   1
_chemical_formula_structural   Al
_chemical_formula_sum   Al18
_cell_volume   592.82853818
_cell_formula_units_Z   18
loop_
 _symmetry_equiv_pos_site_id
 _symmetry_equiv_pos_as_xyz
  1  'x, y, z'
loop_
 _atom_site_type_symbol
 _atom_site_label
 _atom_site_symmetry_multiplicity
 _atom_site_fract_x
 _atom_site_fract_y
 _atom_site_fract_z
 _atom_site_occupancy
  Al  Al0  1  0.99564300  0.44385100  0.94602000  1.0
  Al  Al1  1  0.99719900  0.89142800  0.88850400  1.0
  Al  Al2  1  0.99384900  0.98804100  0.99858700  1.0
  Al  Al3  1  0.99839900  0.33373200  0.83518200  1.0
  Al  Al4  1  0.99991200  0.78029400  0.77703800  1.0
  Al  Al5  1  0.00068700  0.21859900  0.72056400  1.0
  Al  Al6  1  0.00211700  0.66431300  0.66684100  1.0
  Al  Al7  1  0.00342700  0.10648600  0.60623800  1.0
  Al  Al8  1  0.00473900  0.56148200  0.55593900  1.0
  Al  Al9  1  0.49789900  0.61346600  0.86093500  1.0
  Al  Al10  1  0.49925000  0.05906000  0.80721900  1.0
  Al  Al11  1  0.49663600  0.17136200  0.92152500  1.0
  Al  Al12  1  0.50015500  0.49736600  0.75074700  1.0
  Al  Al13  1  0.50151000  0.94396900  0.69258000  1.0
  Al  Al14  1  0.50284500  0.38629700  0.63929500  1.0
  Al  Al15  1  0.50430900  0.83403200  0.58173200  1.0
  Al  Al16  1  0.50620500  0.28985100  0.52919500  1.0
  Al  Al17  1  0.49521800  0.71637200  0.97185900  1.0
