# generated using pymatgen
data_Al
_symmetry_space_group_name_H-M   'P 1'
_cell_length_a   2.84643006
_cell_length_b   13.38712032
_cell_length_c   41.98960174
_cell_angle_alpha   98.61752893
_cell_angle_beta   90.00000000
_cell_angle_gamma   90.00000000
_symmetry_Int_Tables_number   1
_chemical_formula_structural   Al
_chemical_formula_sum   Al48
_cell_volume   1581.97138506
_cell_formula_units_Z   48
loop_
 _symmetry_equiv_pos_site_id
 _symmetry_equiv_pos_as_xyz
  1  'x, y, z'
loop_
 _atom_site_type_symbol
 _atom_site_label
 _atom_site_symmetry_multiplicity
 _atom_site_fract_x
 _atom_site_fract_y
 _atom_site_fract_z
 _atom_site_occupancy
  Al  Al0  1  0.00000000  0.11588800  0.73400900  1.0
  Al  Al1  1  0.00000000  0.94209800  0.56752800  1.0
  Al  Al2  1  0.00000000  0.77540000  0.40108800  1.0
  Al  Al3  1  0.00000000  0.81064800  0.69456300  1.0
  Al  Al4  1  0.00000000  0.65016900  0.52593000  1.0
  Al  Al5  1  0.00000000  0.48422100  0.35922200  1.0
  Al  Al6  1  0.00000000  0.46334600  0.71366800  1.0
  Al  Al7  1  0.00000000  0.29610800  0.54675700  1.0
  Al  Al8  1  0.00000000  0.13033900  0.38084400  1.0
  Al  Al9  1  0.00000000  0.17012600  0.67153900  1.0
  Al  Al10  1  0.00000000  0.00505500  0.50533900  1.0
  Al  Al11  1  0.00000000  0.83977800  0.33852200  1.0
  Al  Al12  1  0.00000000  0.87902700  0.63063300  1.0
  Al  Al13  1  0.00000000  0.71430100  0.46356100  1.0
  Al  Al14  1  0.00000000  0.55139100  0.29655200  1.0
  Al  Al15  1  0.00000000  0.24677000  0.25770400  1.0
  Al  Al16  1  0.00000000  0.58936000  0.58836100  1.0
  Al  Al17  1  0.00000000  0.42148900  0.42193400  1.0
  Al  Al18  1  0.00000000  0.52538500  0.65068900  1.0
  Al  Al19  1  0.00000000  0.35993500  0.48448100  1.0
  Al  Al20  1  0.00000000  0.19469900  0.31884500  1.0
  Al  Al21  1  0.00000000  0.23557900  0.60943400  1.0
  Al  Al22  1  0.00000000  0.06805300  0.44282000  1.0
  Al  Al23  1  0.00000000  0.89753200  0.27582700  1.0
  Al  Al24  1  0.50000000  0.99280100  0.68115500  1.0
  Al  Al25  1  0.50000000  0.82756500  0.51551900  1.0
  Al  Al26  1  0.50000000  0.66211500  0.34931100  1.0
  Al  Al27  1  0.50000000  0.70327900  0.64077800  1.0
  Al  Al28  1  0.50000000  0.53733100  0.47407000  1.0
  Al  Al29  1  0.50000000  0.37685200  0.30543700  1.0
  Al  Al30  1  0.50000000  0.34772200  0.66147800  1.0
  Al  Al31  1  0.50000000  0.18244500  0.49466100  1.0
  Al  Al32  1  0.50000000  0.01737400  0.32846100  1.0
  Al  Al33  1  0.50000000  0.05716100  0.61915600  1.0
  Al  Al34  1  0.50000000  0.89139200  0.45324300  1.0
  Al  Al35  1  0.50000000  0.72415400  0.28633200  1.0
  Al  Al36  1  0.50000000  0.94073000  0.74229600  1.0
  Al  Al37  1  0.50000000  0.76601100  0.57806600  1.0
  Al  Al38  1  0.50000000  0.59814000  0.41163900  1.0
  Al  Al39  1  0.50000000  0.63610900  0.70344800  1.0
  Al  Al40  1  0.50000000  0.47319900  0.53643900  1.0
  Al  Al41  1  0.50000000  0.30847300  0.36936700  1.0
  Al  Al42  1  0.50000000  0.41210000  0.59891200  1.0
  Al  Al43  1  0.50000000  0.24540200  0.43247200  1.0
  Al  Al44  1  0.50000000  0.07161200  0.26599100  1.0
  Al  Al45  1  0.50000000  0.28996800  0.72417300  1.0
  Al  Al46  1  0.50000000  0.11944700  0.55718000  1.0
  Al  Al47  1  0.50000000  0.95192100  0.39056600  1.0
