# generated using pymatgen
data_Al
_symmetry_space_group_name_H-M   'P 1'
_cell_length_a   4.06091500
_cell_length_b   7.52555917
_cell_length_c   22.66052441
_cell_angle_alpha   81.90934183
_cell_angle_beta   84.85921630
_cell_angle_gamma   74.34715058
_symmetry_Int_Tables_number   1
_chemical_formula_structural   Al
_chemical_formula_sum   Al20
_cell_volume   659.23153414
_cell_formula_units_Z   20
loop_
 _symmetry_equiv_pos_site_id
 _symmetry_equiv_pos_as_xyz
  1  'x, y, z'
loop_
 _atom_site_type_symbol
 _atom_site_label
 _atom_site_symmetry_multiplicity
 _atom_site_fract_x
 _atom_site_fract_y
 _atom_site_fract_z
 _atom_site_occupancy
  Al  Al0  1  0.40038900  0.76303200  0.43619100  1.0
  Al  Al1  1  0.19909400  0.26429100  0.33752100  1.0
  Al  Al2  1  0.99980900  0.51254200  0.48784000  1.0
  Al  Al3  1  0.80178700  0.00947200  0.38695400  1.0
  Al  Al4  1  0.60164900  0.50722900  0.28947200  1.0
  Al  Al5  1  0.00086400  0.63858100  0.35969200  1.0
  Al  Al6  1  0.79610300  0.14107200  0.26672300  1.0
  Al  Al7  1  0.59887100  0.38922200  0.41303600  1.0
  Al  Al8  1  0.40337700  0.88725300  0.30599300  1.0
  Al  Al9  1  0.19892500  0.14059800  0.46155100  1.0
  Al  Al10  1  0.39662300  0.51274700  0.69400700  1.0
  Al  Al11  1  0.20112900  0.01077800  0.58696400  1.0
  Al  Al12  1  0.00389700  0.25892800  0.73327700  1.0
  Al  Al13  1  0.79913600  0.76141900  0.64030800  1.0
  Al  Al14  1  0.60107500  0.25940200  0.53844900  1.0
  Al  Al15  1  0.99821300  0.39052800  0.61304600  1.0
  Al  Al16  1  0.80019100  0.88745800  0.51216000  1.0
  Al  Al17  1  0.60090600  0.13570900  0.66247900  1.0
  Al  Al18  1  0.39961100  0.63696800  0.56380900  1.0
  Al  Al19  1  0.19835100  0.89277100  0.71052800  1.0
