# generated using pymatgen
data_Al
_symmetry_space_group_name_H-M   'P 1'
_cell_length_a   2.88013643
_cell_length_b   6.30474850
_cell_length_c   22.45618537
_cell_angle_alpha   87.34061400
_cell_angle_beta   86.32321846
_cell_angle_gamma   76.79651444
_symmetry_Int_Tables_number   1
_chemical_formula_structural   Al
_chemical_formula_sum   Al12
_cell_volume   395.96326437
_cell_formula_units_Z   12
loop_
 _symmetry_equiv_pos_site_id
 _symmetry_equiv_pos_as_xyz
  1  'x, y, z'
loop_
 _atom_site_type_symbol
 _atom_site_label
 _atom_site_symmetry_multiplicity
 _atom_site_fract_x
 _atom_site_fract_y
 _atom_site_fract_z
 _atom_site_occupancy
  Al  Al0  1  0.67047100  0.38465200  0.27440500  1.0
  Al  Al1  1  0.33539700  0.01710300  0.31210400  1.0
  Al  Al2  1  0.99976900  0.52312000  0.47734300  1.0
  Al  Al3  1  0.99888200  0.65094400  0.35129200  1.0
  Al  Al4  1  0.66541600  0.27302900  0.39613800  1.0
  Al  Al5  1  0.33192100  0.89883600  0.43732400  1.0
  Al  Al6  1  0.66689700  0.14354600  0.52265700  1.0
  Al  Al7  1  0.33474700  0.76783200  0.56267600  1.0
  Al  Al8  1  0.99619500  0.28201400  0.72559500  1.0
  Al  Al9  1  0.00125100  0.39363700  0.60386200  1.0
  Al  Al10  1  0.66778400  0.01572200  0.64870800  1.0
  Al  Al11  1  0.33127100  0.64956500  0.68789600  1.0
