# generated using pymatgen
data_Al
_symmetry_space_group_name_H-M   'P 1'
_cell_length_a   2.85595479
_cell_length_b   11.77540207
_cell_length_c   35.32621032
_cell_angle_alpha   93.37228196
_cell_angle_beta   89.99999885
_cell_angle_gamma   90.00000344
_symmetry_Int_Tables_number   1
_chemical_formula_structural   Al
_chemical_formula_sum   Al36
_cell_volume   1185.96384134
_cell_formula_units_Z   36
loop_
 _symmetry_equiv_pos_site_id
 _symmetry_equiv_pos_as_xyz
  1  'x, y, z'
loop_
 _atom_site_type_symbol
 _atom_site_label
 _atom_site_symmetry_multiplicity
 _atom_site_fract_x
 _atom_site_fract_y
 _atom_site_fract_z
 _atom_site_occupancy
  Al  Al0  1  0.00000000  0.47915800  0.49310700  1.0
  Al  Al1  1  0.00000000  0.98103500  0.32732700  1.0
  Al  Al2  1  0.00000000  0.22962300  0.40995700  1.0
  Al  Al3  1  0.00000000  0.55884100  0.29824500  1.0
  Al  Al4  1  0.00000000  0.81133000  0.38053000  1.0
  Al  Al5  1  0.00000000  0.06233600  0.46545800  1.0
  Al  Al6  1  0.00000000  0.14628300  0.27071300  1.0
  Al  Al7  1  0.00000000  0.39650300  0.35449000  1.0
  Al  Al8  1  0.00000000  0.64689800  0.43750900  1.0
  Al  Al9  1  0.50000000  0.76595600  0.30872100  1.0
  Al  Al10  1  0.50000000  0.02060600  0.39598100  1.0
  Al  Al11  1  0.50000000  0.27085100  0.47899400  1.0
  Al  Al12  1  0.50000000  0.35342400  0.28384900  1.0
  Al  Al13  1  0.50000000  0.60377900  0.36815400  1.0
  Al  Al14  1  0.50000000  0.85489400  0.45119900  1.0
  Al  Al15  1  0.50000000  0.94155000  0.25842800  1.0
  Al  Al16  1  0.50000000  0.18946800  0.34073700  1.0
  Al  Al17  1  0.50000000  0.43824400  0.42363600  1.0
  Al  Al18  1  0.00000000  0.22515200  0.74157800  1.0
  Al  Al19  1  0.00000000  0.72844100  0.57636400  1.0
  Al  Al20  1  0.00000000  0.97718900  0.65925900  1.0
  Al  Al21  1  0.00000000  0.31174500  0.54880500  1.0
  Al  Al22  1  0.00000000  0.56292500  0.63184400  1.0
  Al  Al23  1  0.00000000  0.81322400  0.71615100  1.0
  Al  Al24  1  0.00000000  0.89582000  0.52100100  1.0
  Al  Al25  1  0.00000000  0.14606800  0.60401200  1.0
  Al  Al26  1  0.00000000  0.40071100  0.69128200  1.0
  Al  Al27  1  0.50000000  0.51978900  0.56248100  1.0
  Al  Al28  1  0.50000000  0.77016400  0.64551200  1.0
  Al  Al29  1  0.50000000  0.02040900  0.72927400  1.0
  Al  Al30  1  0.50000000  0.10429800  0.53454600  1.0
  Al  Al31  1  0.50000000  0.35535800  0.61947300  1.0
  Al  Al32  1  0.50000000  0.60780800  0.70176400  1.0
  Al  Al33  1  0.50000000  0.68750100  0.50689300  1.0
  Al  Al34  1  0.50000000  0.93701700  0.59004800  1.0
  Al  Al35  1  0.50000000  0.18560300  0.67267700  1.0
