# generated using pymatgen
data_Al
_symmetry_space_group_name_H-M   'P 1'
_cell_length_a   4.92943177
_cell_length_b   6.35477262
_cell_length_c   26.23886376
_cell_angle_alpha   93.42134853
_cell_angle_beta   94.41236775
_cell_angle_gamma   104.54746106
_symmetry_Int_Tables_number   1
_chemical_formula_structural   Al
_chemical_formula_sum   Al24
_cell_volume   790.57143237
_cell_formula_units_Z   24
loop_
 _symmetry_equiv_pos_site_id
 _symmetry_equiv_pos_as_xyz
  1  'x, y, z'
loop_
 _atom_site_type_symbol
 _atom_site_label
 _atom_site_symmetry_multiplicity
 _atom_site_fract_x
 _atom_site_fract_y
 _atom_site_fract_z
 _atom_site_occupancy
  Al  Al0  1  0.90420800  0.27125900  0.36647100  1.0
  Al  Al1  1  0.15906700  0.10633000  0.28165000  1.0
  Al  Al2  1  0.02835000  0.68768600  0.31713900  1.0
  Al  Al3  1  0.59146600  0.89088700  0.30251700  1.0
  Al  Al4  1  0.46240700  0.48304800  0.34231700  1.0
  Al  Al5  1  0.71909600  0.29739700  0.26549300  1.0
  Al  Al6  1  0.53152600  0.02204800  0.49023500  1.0
  Al  Al7  1  0.78026000  0.85290100  0.40558200  1.0
  Al  Al8  1  0.65068800  0.43579300  0.44687200  1.0
  Al  Al9  1  0.21554200  0.64799900  0.42545600  1.0
  Al  Al10  1  0.09371400  0.22996900  0.46944200  1.0
  Al  Al11  1  0.33946900  0.06135000  0.38580000  1.0
  Al  Al12  1  0.16053100  0.77198300  0.61420000  1.0
  Al  Al13  1  0.40628600  0.60336500  0.53055800  1.0
  Al  Al14  1  0.28445800  0.18533400  0.57454400  1.0
  Al  Al15  1  0.84931200  0.39754000  0.55312800  1.0
  Al  Al16  1  0.71974000  0.98043300  0.59441800  1.0
  Al  Al17  1  0.96847400  0.81128500  0.50976500  1.0
  Al  Al18  1  0.78090400  0.53593600  0.73450700  1.0
  Al  Al19  1  0.03759300  0.35028600  0.65768300  1.0
  Al  Al20  1  0.90853400  0.94244600  0.69748300  1.0
  Al  Al21  1  0.47165000  0.14564700  0.68286100  1.0
  Al  Al22  1  0.34093300  0.72700400  0.71835000  1.0
  Al  Al23  1  0.59579200  0.56207400  0.63352900  1.0
