# generated using pymatgen
data_Rh
_symmetry_space_group_name_H-M   'P 1'
_cell_length_a   2.71783987
_cell_length_b   3.84359200
_cell_length_c   21.74272459
_cell_angle_alpha   90.00000000
_cell_angle_beta   90.00000000
_cell_angle_gamma   90.00000000
_symmetry_Int_Tables_number   1
_chemical_formula_structural   Rh
_chemical_formula_sum   Rh8
_cell_volume   227.13031902
_cell_formula_units_Z   8
loop_
 _symmetry_equiv_pos_site_id
 _symmetry_equiv_pos_as_xyz
  1  'x, y, z'
loop_
 _atom_site_type_symbol
 _atom_site_label
 _atom_site_symmetry_multiplicity
 _atom_site_fract_x
 _atom_site_fract_y
 _atom_site_fract_z
 _atom_site_occupancy
  Rh  Rh0  1  0.00000000  0.00000000  0.87467200  1.0
  Rh  Rh1  1  0.00000000  0.00000000  0.99503000  1.0
  Rh  Rh2  1  0.50000000  0.50000000  0.93906900  1.0
  Rh  Rh3  1  0.50000000  0.50000000  0.81125900  1.0
  Rh  Rh4  1  0.00000000  0.00000000  0.62343100  1.0
  Rh  Rh5  1  0.00000000  0.00000000  0.75124100  1.0
  Rh  Rh6  1  0.50000000  0.50000000  0.68782800  1.0
  Rh  Rh7  1  0.50000000  0.50000000  0.56747000  1.0
