# generated using pymatgen
data_Rh
_symmetry_space_group_name_H-M   'P 1'
_cell_length_a   2.71845011
_cell_length_b   8.15515964
_cell_length_c   23.05785700
_cell_angle_alpha   89.99801022
_cell_angle_beta   90.00092749
_cell_angle_gamma   89.99228491
_symmetry_Int_Tables_number   1
_chemical_formula_structural   Rh
_chemical_formula_sum   Rh18
_cell_volume   511.17872592
_cell_formula_units_Z   18
loop_
 _symmetry_equiv_pos_site_id
 _symmetry_equiv_pos_as_xyz
  1  'x, y, z'
loop_
 _atom_site_type_symbol
 _atom_site_label
 _atom_site_symmetry_multiplicity
 _atom_site_fract_x
 _atom_site_fract_y
 _atom_site_fract_z
 _atom_site_occupancy
  Rh  Rh0  1  0.00004900  0.44830100  0.94288900  1.0
  Rh  Rh1  1  0.00002000  0.89011000  0.88828400  1.0
  Rh  Rh2  1  0.00001000  0.99344000  0.99547900  1.0
  Rh  Rh3  1  0.00000300  0.33036200  0.83365600  1.0
  Rh  Rh4  1  0.99999900  0.77616900  0.77854100  1.0
  Rh  Rh5  1  0.00000000  0.22497000  0.72256500  1.0
  Rh  Rh6  1  0.99998000  0.66844100  0.66735600  1.0
  Rh  Rh7  1  0.99998400  0.10719700  0.60884900  1.0
  Rh  Rh8  1  0.99996600  0.55577200  0.55778100  1.0
  Rh  Rh9  1  0.50002000  0.60935200  0.86041600  1.0
  Rh  Rh10  1  0.49999900  0.05282200  0.80522200  1.0
  Rh  Rh11  1  0.50001500  0.17056300  0.91893400  1.0
  Rh  Rh12  1  0.50000000  0.50163200  0.74923600  1.0
  Rh  Rh13  1  0.49999600  0.94743700  0.69411800  1.0
  Rh  Rh14  1  0.49998000  0.38765200  0.63950200  1.0
  Rh  Rh15  1  0.49995000  0.82946400  0.58488200  1.0
  Rh  Rh16  1  0.49999200  0.28432700  0.53228800  1.0
  Rh  Rh17  1  0.50003700  0.72198900  0.97000100  1.0
