# generated using pymatgen
data_Rh
_symmetry_space_group_name_H-M   'P 1'
_cell_length_a   2.71811422
_cell_length_b   6.65799291
_cell_length_c   37.66329876
_cell_angle_alpha   90.00000088
_cell_angle_beta   90.00000000
_cell_angle_gamma   90.00000000
_symmetry_Int_Tables_number   1
_chemical_formula_structural   Rh
_chemical_formula_sum   Rh24
_cell_volume   681.59969310
_cell_formula_units_Z   24
loop_
 _symmetry_equiv_pos_site_id
 _symmetry_equiv_pos_as_xyz
  1  'x, y, z'
loop_
 _atom_site_type_symbol
 _atom_site_label
 _atom_site_symmetry_multiplicity
 _atom_site_fract_x
 _atom_site_fract_y
 _atom_site_fract_z
 _atom_site_occupancy
  Rh  Rh0  1  0.00000000  0.99258800  0.00285400  1.0
  Rh  Rh1  1  0.00000000  0.33600800  0.03994900  1.0
  Rh  Rh2  1  0.00000000  0.66479500  0.08376800  1.0
  Rh  Rh3  1  0.00000000  0.00169500  0.12456700  1.0
  Rh  Rh4  1  0.00000000  0.33367000  0.16609700  1.0
  Rh  Rh5  1  0.00000000  0.66697300  0.20820600  1.0
  Rh  Rh6  1  0.50000000  0.00221500  0.06272200  1.0
  Rh  Rh7  1  0.50000000  0.33307600  0.10343400  1.0
  Rh  Rh8  1  0.50000000  0.66798600  0.14549500  1.0
  Rh  Rh9  1  0.50000000  0.99993300  0.18759300  1.0
  Rh  Rh10  1  0.50000000  0.33322500  0.22878200  1.0
  Rh  Rh11  1  0.50000000  0.66676400  0.02229800  1.0
  Rh  Rh12  1  0.00000000  0.00010600  0.25038300  1.0
  Rh  Rh13  1  0.00000000  0.33341700  0.29157300  1.0
  Rh  Rh14  1  0.00000000  0.66533100  0.33366500  1.0
  Rh  Rh15  1  0.00000000  0.00027600  0.37571500  1.0
  Rh  Rh16  1  0.00000000  0.33108400  0.41647400  1.0
  Rh  Rh17  1  0.00000000  0.66651900  0.45687100  1.0
  Rh  Rh18  1  0.50000000  0.99968600  0.31306300  1.0
  Rh  Rh19  1  0.49999900  0.33167800  0.35460900  1.0
  Rh  Rh20  1  0.50000000  0.66856500  0.39539600  1.0
  Rh  Rh21  1  0.50000000  0.99729400  0.43919500  1.0
  Rh  Rh22  1  0.50000000  0.34073400  0.47633400  1.0
  Rh  Rh23  1  0.50000000  0.66638200  0.27095600  1.0
