# generated using pymatgen
data_Ag
_symmetry_space_group_name_H-M   'P 1'
_cell_length_a   2.94713904
_cell_length_b   13.76536030
_cell_length_c   43.00533639
_cell_angle_alpha   98.62526091
_cell_angle_beta   90.00000000
_cell_angle_gamma   90.00000000
_symmetry_Int_Tables_number   1
_chemical_formula_structural   Ag
_chemical_formula_sum   Ag48
_cell_volume   1724.92754004
_cell_formula_units_Z   48
loop_
 _symmetry_equiv_pos_site_id
 _symmetry_equiv_pos_as_xyz
  1  'x, y, z'
loop_
 _atom_site_type_symbol
 _atom_site_label
 _atom_site_symmetry_multiplicity
 _atom_site_fract_x
 _atom_site_fract_y
 _atom_site_fract_z
 _atom_site_occupancy
  Ag  Ag0  1  0.00000000  0.11134400  0.73439200  1.0
  Ag  Ag1  1  0.00000000  0.94285000  0.56783500  1.0
  Ag  Ag2  1  0.00000000  0.77548300  0.40078000  1.0
  Ag  Ag3  1  0.00000000  0.81323100  0.69409300  1.0
  Ag  Ag4  1  0.00000000  0.65115000  0.52605700  1.0
  Ag  Ag5  1  0.00000000  0.48282100  0.35896000  1.0
  Ag  Ag6  1  0.00000000  0.46310300  0.71345300  1.0
  Ag  Ag7  1  0.00000000  0.29689600  0.54707200  1.0
  Ag  Ag8  1  0.00000000  0.13003000  0.38000600  1.0
  Ag  Ag9  1  0.00000000  0.17123700  0.67208300  1.0
  Ag  Ag10  1  0.00000000  0.00528800  0.50522000  1.0
  Ag  Ag11  1  0.00000000  0.83851500  0.33841200  1.0
  Ag  Ag12  1  0.00000000  0.88008200  0.63047200  1.0
  Ag  Ag13  1  0.00000000  0.71351300  0.46344000  1.0
  Ag  Ag14  1  0.00000000  0.54882300  0.29646600  1.0
  Ag  Ag15  1  0.00000000  0.25209400  0.25732900  1.0
  Ag  Ag16  1  0.00000000  0.58917000  0.58877800  1.0
  Ag  Ag17  1  0.00000000  0.42151400  0.42180600  1.0
  Ag  Ag18  1  0.00000000  0.52696400  0.65118600  1.0
  Ag  Ag19  1  0.00000000  0.35910000  0.48444100  1.0
  Ag  Ag20  1  0.00000000  0.19458800  0.31811300  1.0
  Ag  Ag21  1  0.00000000  0.23458300  0.60963000  1.0
  Ag  Ag22  1  0.00000000  0.06758100  0.44256400  1.0
  Ag  Ag23  1  0.00000000  0.90087300  0.27611200  1.0
  Ag  Ag24  1  0.50000000  0.99291200  0.68188700  1.0
  Ag  Ag25  1  0.50000000  0.82840000  0.51555900  1.0
  Ag  Ag26  1  0.50000000  0.66053600  0.34881400  1.0
  Ag  Ag27  1  0.50000000  0.70467900  0.64104000  1.0
  Ag  Ag28  1  0.50000000  0.53635000  0.47394300  1.0
  Ag  Ag29  1  0.50000000  0.37426900  0.30590700  1.0
  Ag  Ag30  1  0.50000000  0.34898500  0.66158800  1.0
  Ag  Ag31  1  0.50000000  0.18221200  0.49478000  1.0
  Ag  Ag32  1  0.50000000  0.01626300  0.32791700  1.0
  Ag  Ag33  1  0.50000000  0.05747000  0.61999400  1.0
  Ag  Ag34  1  0.50000000  0.89060400  0.45292800  1.0
  Ag  Ag35  1  0.50000000  0.72439700  0.28654700  1.0
  Ag  Ag36  1  0.50000000  0.93540600  0.74267100  1.0
  Ag  Ag37  1  0.50000000  0.76598600  0.57819400  1.0
  Ag  Ag38  1  0.50000000  0.59833000  0.41122200  1.0
  Ag  Ag39  1  0.50000000  0.63867700  0.70353400  1.0
  Ag  Ag40  1  0.50000000  0.47398700  0.53656000  1.0
  Ag  Ag41  1  0.50000000  0.30741800  0.36952800  1.0
  Ag  Ag42  1  0.50000000  0.41201700  0.59922000  1.0
  Ag  Ag43  1  0.50000000  0.24465000  0.43216500  1.0
  Ag  Ag44  1  0.50000000  0.07615600  0.26560800  1.0
  Ag  Ag45  1  0.50000000  0.28662700  0.72388800  1.0
  Ag  Ag46  1  0.50000000  0.11991900  0.55743600  1.0
  Ag  Ag47  1  0.50000000  0.95291700  0.39037000  1.0
