# generated using pymatgen
data_Rh
_symmetry_space_group_name_H-M   'P 1'
_cell_length_a   2.71801900
_cell_length_b   2.71801968
_cell_length_c   39.94655900
_cell_angle_alpha   90.00000000
_cell_angle_beta   90.00000000
_cell_angle_gamma   120.00000388
_symmetry_Int_Tables_number   1
_chemical_formula_structural   Rh
_chemical_formula_sum   Rh9
_cell_volume   255.57306130
_cell_formula_units_Z   9
loop_
 _symmetry_equiv_pos_site_id
 _symmetry_equiv_pos_as_xyz
  1  'x, y, z'
loop_
 _atom_site_type_symbol
 _atom_site_label
 _atom_site_symmetry_multiplicity
 _atom_site_fract_x
 _atom_site_fract_y
 _atom_site_fract_z
 _atom_site_occupancy
  Rh  Rh0  1  0.33333333  0.66666667  0.27834500  1.0
  Rh  Rh1  1  0.00000000  0.00000000  0.38833100  1.0
  Rh  Rh2  1  0.66666667  0.33333333  0.33306100  1.0
  Rh  Rh3  1  0.33333333  0.66666667  0.44427900  1.0
  Rh  Rh4  1  0.00000000  0.00000000  0.55572100  1.0
  Rh  Rh5  1  0.66666667  0.33333333  0.50000000  1.0
  Rh  Rh6  1  0.33333333  0.66666667  0.61166900  1.0
  Rh  Rh7  1  0.00000000  0.00000000  0.72165500  1.0
  Rh  Rh8  1  0.66666667  0.33333333  0.66693900  1.0
