# generated using pymatgen
data_Rh
_symmetry_space_group_name_H-M   'P 1'
_cell_length_a   3.84388500
_cell_length_b   6.07710140
_cell_length_c   21.91334330
_cell_angle_alpha   93.18338774
_cell_angle_beta   90.00000000
_cell_angle_gamma   90.00000000
_symmetry_Int_Tables_number   1
_chemical_formula_structural   Rh
_chemical_formula_sum   Rh18
_cell_volume   511.09877164
_cell_formula_units_Z   18
loop_
 _symmetry_equiv_pos_site_id
 _symmetry_equiv_pos_as_xyz
  1  'x, y, z'
loop_
 _atom_site_type_symbol
 _atom_site_label
 _atom_site_symmetry_multiplicity
 _atom_site_fract_x
 _atom_site_fract_y
 _atom_site_fract_z
 _atom_site_occupancy
  Rh  Rh0  1  0.00000000  0.98275700  0.34543600  1.0
  Rh  Rh1  1  0.00000000  0.37315800  0.29517000  1.0
  Rh  Rh2  1  0.00000000  0.60251500  0.40257800  1.0
  Rh  Rh3  1  0.50000000  0.67942500  0.32039900  1.0
  Rh  Rh4  1  0.50000000  0.07343600  0.26993800  1.0
  Rh  Rh5  1  0.50000000  0.29421200  0.37525900  1.0
  Rh  Rh6  1  0.00000000  0.81824100  0.51468800  1.0
  Rh  Rh7  1  0.00000000  0.21086500  0.45852500  1.0
  Rh  Rh8  1  0.00000000  0.42846300  0.56962500  1.0
  Rh  Rh9  1  0.50000000  0.51509300  0.48531200  1.0
  Rh  Rh10  1  0.50000000  0.90487100  0.43037500  1.0
  Rh  Rh11  1  0.50000000  0.12246700  0.54147500  1.0
  Rh  Rh12  1  0.00000000  0.65390900  0.67960100  1.0
  Rh  Rh13  1  0.00000000  0.03912000  0.62474100  1.0
  Rh  Rh14  1  0.00000000  0.25989800  0.73006200  1.0
  Rh  Rh15  1  0.50000000  0.35057700  0.65456400  1.0
  Rh  Rh16  1  0.50000000  0.73081900  0.59742200  1.0
  Rh  Rh17  1  0.50000000  0.96017400  0.70483000  1.0
