# generated using pymatgen
data_Rh
_symmetry_space_group_name_H-M   'P 1'
_cell_length_a   2.71790775
_cell_length_b   12.74649370
_cell_length_c   26.62892613
_cell_angle_alpha   100.02454485
_cell_angle_beta   90.00000000
_cell_angle_gamma   90.00000000
_symmetry_Int_Tables_number   1
_chemical_formula_structural   Rh
_chemical_formula_sum   Rh32
_cell_volume   908.44306400
_cell_formula_units_Z   32
loop_
 _symmetry_equiv_pos_site_id
 _symmetry_equiv_pos_as_xyz
  1  'x, y, z'
loop_
 _atom_site_type_symbol
 _atom_site_label
 _atom_site_symmetry_multiplicity
 _atom_site_fract_x
 _atom_site_fract_y
 _atom_site_fract_z
 _atom_site_occupancy
  Rh  Rh0  1  0.00000000  0.62315200  0.72474000  1.0
  Rh  Rh1  1  0.00000000  0.88009200  0.66616300  1.0
  Rh  Rh2  1  0.00000000  0.25092000  0.69426200  1.0
  Rh  Rh3  1  0.00000000  0.49867700  0.63240900  1.0
  Rh  Rh4  1  0.00000000  0.74911500  0.57076200  1.0
  Rh  Rh5  1  0.00000000  0.99926500  0.50754200  1.0
  Rh  Rh6  1  0.00000000  0.12414200  0.60144300  1.0
  Rh  Rh7  1  0.00000000  0.37445900  0.53947200  1.0
  Rh  Rh8  1  0.50000000  0.68811600  0.64809500  1.0
  Rh  Rh9  1  0.50000000  0.93636200  0.58665900  1.0
  Rh  Rh10  1  0.50000000  0.31136400  0.61702700  1.0
  Rh  Rh11  1  0.50000000  0.56195400  0.55548100  1.0
  Rh  Rh12  1  0.50000000  0.80574400  0.73853300  1.0
  Rh  Rh13  1  0.50000000  0.06502900  0.67889500  1.0
  Rh  Rh14  1  0.50000000  0.18630700  0.52349900  1.0
  Rh  Rh15  1  0.50000000  0.43868700  0.70982500  1.0
  Rh  Rh16  1  0.00000000  0.62619300  0.47650100  1.0
  Rh  Rh17  1  0.00000000  0.87613800  0.41334000  1.0
  Rh  Rh18  1  0.00000000  0.25054600  0.44451900  1.0
  Rh  Rh19  1  0.00000000  0.50113600  0.38297300  1.0
  Rh  Rh20  1  0.00000000  0.74747100  0.32110500  1.0
  Rh  Rh21  1  0.00000000  0.00675600  0.26146700  1.0
  Rh  Rh22  1  0.00000000  0.12438400  0.35190500  1.0
  Rh  Rh23  1  0.00000000  0.37381300  0.29017500  1.0
  Rh  Rh24  1  0.50000000  0.68835800  0.39855700  1.0
  Rh  Rh25  1  0.50000000  0.93240800  0.33383700  1.0
  Rh  Rh26  1  0.50000000  0.31382300  0.36759100  1.0
  Rh  Rh27  1  0.50000000  0.56158000  0.30573800  1.0
  Rh  Rh28  1  0.50000000  0.81323500  0.49245800  1.0
  Rh  Rh29  1  0.50000000  0.06338500  0.42923800  1.0
  Rh  Rh30  1  0.50000000  0.18934800  0.27526000  1.0
  Rh  Rh31  1  0.50000000  0.43804100  0.46052800  1.0
