# generated using pymatgen
data_Rh
_symmetry_space_group_name_H-M   'P 1'
_cell_length_a   2.71836030
_cell_length_b   11.20628234
_cell_length_c   22.41045868
_cell_angle_alpha   93.38214674
_cell_angle_beta   89.99999277
_cell_angle_gamma   89.99999638
_symmetry_Int_Tables_number   1
_chemical_formula_structural   Rh
_chemical_formula_sum   Rh24
_cell_volume   681.49431403
_cell_formula_units_Z   24
loop_
 _symmetry_equiv_pos_site_id
 _symmetry_equiv_pos_as_xyz
  1  'x, y, z'
loop_
 _atom_site_type_symbol
 _atom_site_label
 _atom_site_symmetry_multiplicity
 _atom_site_fract_x
 _atom_site_fract_y
 _atom_site_fract_z
 _atom_site_occupancy
  Rh  Rh0  1  0.00000200  0.72716000  0.36529300  1.0
  Rh  Rh1  1  0.00000100  0.31169700  0.32445400  1.0
  Rh  Rh2  1  0.00000200  0.89567100  0.28353400  1.0
  Rh  Rh3  1  0.49999900  0.51878900  0.34177400  1.0
  Rh  Rh4  1  0.49999800  0.10214900  0.30343200  1.0
  Rh  Rh5  1  0.49999800  0.69305800  0.26483600  1.0
  Rh  Rh6  1  0.00000100  0.98002600  0.48958400  1.0
  Rh  Rh7  1  0.00000000  0.56333300  0.44791800  1.0
  Rh  Rh8  1  0.00000200  0.14676200  0.40620300  1.0
  Rh  Rh9  1  0.50000000  0.77215900  0.46895400  1.0
  Rh  Rh10  1  0.49999900  0.35524700  0.42663600  1.0
  Rh  Rh11  1  0.49999800  0.93850300  0.38625200  1.0
  Rh  Rh12  1  0.00000000  0.22816700  0.61375700  1.0
  Rh  Rh13  1  0.99999800  0.81139700  0.57337200  1.0
  Rh  Rh14  1  0.00000100  0.39452000  0.53106100  1.0
  Rh  Rh15  1  0.50000100  0.01989900  0.59380600  1.0
  Rh  Rh16  1  0.50000000  0.60334000  0.55209400  1.0
  Rh  Rh17  1  0.50000000  0.18659600  0.51041100  1.0
  Rh  Rh18  1  0.00000000  0.47351900  0.73510900  1.0
  Rh  Rh19  1  0.99999900  0.06460900  0.69658000  1.0
  Rh  Rh20  1  0.00000000  0.64785700  0.65822900  1.0
  Rh  Rh21  1  0.49999900  0.27107300  0.71644800  1.0
  Rh  Rh22  1  0.50000000  0.85496900  0.67554800  1.0
  Rh  Rh23  1  0.50000000  0.43950100  0.63471600  1.0
