# generated using pymatgen
data_Rh
_symmetry_space_group_name_H-M   'P 1'
_cell_length_a   3.84395100
_cell_length_b   7.19103868
_cell_length_c   32.04722140
_cell_angle_alpha   88.16519615
_cell_angle_beta   86.56172270
_cell_angle_gamma   74.49789569
_symmetry_Int_Tables_number   1
_chemical_formula_structural   Rh
_chemical_formula_sum   Rh30
_cell_volume   851.96841550
_cell_formula_units_Z   30
loop_
 _symmetry_equiv_pos_site_id
 _symmetry_equiv_pos_as_xyz
  1  'x, y, z'
loop_
 _atom_site_type_symbol
 _atom_site_label
 _atom_site_symmetry_multiplicity
 _atom_site_fract_x
 _atom_site_fract_y
 _atom_site_fract_z
 _atom_site_occupancy
  Rh  Rh0  1  0.40175900  0.82139500  0.37508700  1.0
  Rh  Rh1  1  0.40044200  0.65729900  0.54181700  1.0
  Rh  Rh2  1  0.39986600  0.49254500  0.70772300  1.0
  Rh  Rh3  1  0.19906500  0.29474400  0.30712600  1.0
  Rh  Rh4  1  0.19999700  0.12520000  0.47480500  1.0
  Rh  Rh5  1  0.19839400  0.96136500  0.64184700  1.0
  Rh  Rh6  1  0.00242400  0.25723300  0.73791800  1.0
  Rh  Rh7  1  0.00035900  0.59130000  0.40798100  1.0
  Rh  Rh8  1  0.00007800  0.42464300  0.57520100  1.0
  Rh  Rh9  1  0.80047600  0.05763800  0.34141000  1.0
  Rh  Rh10  1  0.79992100  0.89131100  0.50884800  1.0
  Rh  Rh11  1  0.80096700  0.72153800  0.67652700  1.0
  Rh  Rh12  1  0.59896400  0.52398900  0.27808300  1.0
  Rh  Rh13  1  0.59981500  0.35912300  0.44124700  1.0
  Rh  Rh14  1  0.59875100  0.19425000  0.60824700  1.0
  Rh  Rh15  1  0.99903300  0.67846200  0.32347300  1.0
  Rh  Rh16  1  0.00007900  0.50868900  0.49115200  1.0
  Rh  Rh17  1  0.99952400  0.34236200  0.65859000  1.0
  Rh  Rh18  1  0.79757600  0.14276700  0.26208200  1.0
  Rh  Rh19  1  0.79992200  0.97535700  0.42479900  1.0
  Rh  Rh20  1  0.79964100  0.80870000  0.59201900  1.0
  Rh  Rh21  1  0.60160600  0.43863500  0.35815300  1.0
  Rh  Rh22  1  0.60000300  0.27480000  0.52519500  1.0
  Rh  Rh23  1  0.60093500  0.10525600  0.69287400  1.0
  Rh  Rh24  1  0.40013400  0.90745500  0.29227700  1.0
  Rh  Rh25  1  0.39955800  0.74270100  0.45818300  1.0
  Rh  Rh26  1  0.39824100  0.57860500  0.62491300  1.0
  Rh  Rh27  1  0.20124900  0.20575000  0.39175300  1.0
  Rh  Rh28  1  0.20018500  0.04087700  0.55875300  1.0
  Rh  Rh29  1  0.20103600  0.87601100  0.72191700  1.0
