# generated using pymatgen
data_Rh
_symmetry_space_group_name_H-M   'P 1'
_cell_length_a   4.70765148
_cell_length_b   6.07759156
_cell_length_c   37.06619715
_cell_angle_alpha   86.24235087
_cell_angle_beta   89.99620621
_cell_angle_gamma   75.03488527
_symmetry_Int_Tables_number   1
_chemical_formula_structural   Rh
_chemical_formula_sum   Rh36
_cell_volume   1022.17986116
_cell_formula_units_Z   36
loop_
 _symmetry_equiv_pos_site_id
 _symmetry_equiv_pos_as_xyz
  1  'x, y, z'
loop_
 _atom_site_type_symbol
 _atom_site_label
 _atom_site_symmetry_multiplicity
 _atom_site_fract_x
 _atom_site_fract_y
 _atom_site_fract_z
 _atom_site_occupancy
  Rh  Rh0  1  0.46506900  0.52050500  0.50691100  1.0
  Rh  Rh1  1  0.63201900  0.02409300  0.67373800  1.0
  Rh  Rh2  1  0.04832800  0.77054500  0.59118400  1.0
  Rh  Rh3  1  0.35221300  0.85532100  0.72743200  1.0
  Rh  Rh4  1  0.77031100  0.60164600  0.64618700  1.0
  Rh  Rh5  1  0.18907700  0.35457900  0.56292400  1.0
  Rh  Rh6  1  0.49441200  0.43741200  0.70223300  1.0
  Rh  Rh7  1  0.90739800  0.18769500  0.61823900  1.0
  Rh  Rh8  1  0.32709900  0.93663400  0.53475100  1.0
  Rh  Rh9  1  0.92359500  0.64853300  0.71481700  1.0
  Rh  Rh10  1  0.33885200  0.39289800  0.63237400  1.0
  Rh  Rh11  1  0.75852300  0.14512200  0.54901000  1.0
  Rh  Rh12  1  0.06430000  0.23517900  0.68910800  1.0
  Rh  Rh13  1  0.47707700  0.97875500  0.60486700  1.0
  Rh  Rh14  1  0.89595900  0.72841500  0.52075700  1.0
  Rh  Rh15  1  0.78504400  0.05597900  0.73987500  1.0
  Rh  Rh16  1  0.20162900  0.81084300  0.65986400  1.0
  Rh  Rh17  1  0.61860500  0.56418100  0.57676600  1.0
  Rh  Rh18  1  0.71495600  0.77735400  0.26012500  1.0
  Rh  Rh19  1  0.88139500  0.26915200  0.42323400  1.0
  Rh  Rh20  1  0.29837100  0.02249000  0.34013600  1.0
  Rh  Rh21  1  0.60404100  0.10491900  0.47924300  1.0
  Rh  Rh22  1  0.02292300  0.85457900  0.39513300  1.0
  Rh  Rh23  1  0.43570000  0.59815500  0.31089200  1.0
  Rh  Rh24  1  0.74147700  0.68821100  0.45099000  1.0
  Rh  Rh25  1  0.16114800  0.44043500  0.36762600  1.0
  Rh  Rh26  1  0.57640500  0.18480000  0.28518300  1.0
  Rh  Rh27  1  0.17290100  0.89669900  0.46524900  1.0
  Rh  Rh28  1  0.59260200  0.64563800  0.38176100  1.0
  Rh  Rh29  1  0.00558700  0.39592100  0.29776700  1.0
  Rh  Rh30  1  0.31092300  0.47875500  0.43707600  1.0
  Rh  Rh31  1  0.72968900  0.23168800  0.35381300  1.0
  Rh  Rh32  1  0.14778700  0.97801200  0.27256800  1.0
  Rh  Rh33  1  0.03493100  0.31282800  0.49308900  1.0
  Rh  Rh34  1  0.45167200  0.06278800  0.40881600  1.0
  Rh  Rh35  1  0.86798100  0.80924000  0.32626200  1.0
