# generated using pymatgen
data_Tl
_symmetry_space_group_name_H-M   'P 1'
_cell_length_a   3.59534826
_cell_length_b   11.76660759
_cell_length_c   24.96230352
_cell_angle_alpha   105.37774007
_cell_angle_beta   89.99999770
_cell_angle_gamma   81.21207252
_symmetry_Int_Tables_number   1
_chemical_formula_structural   Tl
_chemical_formula_sum   Tl16
_cell_volume   1005.36075670
_cell_formula_units_Z   16
loop_
 _symmetry_equiv_pos_site_id
 _symmetry_equiv_pos_as_xyz
  1  'x, y, z'
loop_
 _atom_site_type_symbol
 _atom_site_label
 _atom_site_symmetry_multiplicity
 _atom_site_fract_x
 _atom_site_fract_y
 _atom_site_fract_z
 _atom_site_occupancy
  Tl  Tl0  1  0.31142800  0.37714400  0.08501600  1.0
  Tl  Tl1  1  0.06153800  0.87692500  0.15779500  1.0
  Tl  Tl2  1  0.81240000  0.37520000  0.21098600  1.0
  Tl  Tl3  1  0.56071500  0.87856900  0.03714300  1.0
  Tl  Tl4  1  0.93477000  0.13046000  0.09589200  1.0
  Tl  Tl5  1  0.68672200  0.62655600  0.16597100  1.0
  Tl  Tl6  1  0.43767500  0.12465000  0.21937600  1.0
  Tl  Tl7  1  0.18639700  0.62720500  0.04304300  1.0
  Tl  Tl8  1  0.31327800  0.37344400  0.33402900  1.0
  Tl  Tl9  1  0.06523000  0.86954000  0.40410800  1.0
  Tl  Tl10  1  0.81360300  0.37279500  0.45695700  1.0
  Tl  Tl11  1  0.56232500  0.87535000  0.28062400  1.0
  Tl  Tl12  1  0.93846200  0.12307500  0.34220500  1.0
  Tl  Tl13  1  0.68857200  0.62285600  0.41498400  1.0
  Tl  Tl14  1  0.43928500  0.12143100  0.46285700  1.0
  Tl  Tl15  1  0.18760000  0.62480000  0.28901400  1.0
