# generated using pymatgen
data_Tl
_symmetry_space_group_name_H-M   'P 1'
_cell_length_a   6.66715579
_cell_length_b   8.38134596
_cell_length_c   20.73280251
_cell_angle_alpha   86.05660710
_cell_angle_beta   87.54907279
_cell_angle_gamma   77.65156663
_symmetry_Int_Tables_number   1
_chemical_formula_structural   Tl
_chemical_formula_sum   Tl18
_cell_volume   1128.59345206
_cell_formula_units_Z   18
loop_
 _symmetry_equiv_pos_site_id
 _symmetry_equiv_pos_as_xyz
  1  'x, y, z'
loop_
 _atom_site_type_symbol
 _atom_site_label
 _atom_site_symmetry_multiplicity
 _atom_site_fract_x
 _atom_site_fract_y
 _atom_site_fract_z
 _atom_site_occupancy
  Tl  Tl0  1  0.71838800  0.64789000  0.88592800  1.0
  Tl  Tl1  1  0.96153100  0.32848900  0.97540800  1.0
  Tl  Tl2  1  0.33535200  0.97019500  0.93410500  1.0
  Tl  Tl3  1  0.83271600  0.02397500  0.89217100  1.0
  Tl  Tl4  1  0.20477400  0.68784100  0.84277700  1.0
  Tl  Tl5  1  0.45655700  0.34966900  0.94094200  1.0
  Tl  Tl6  1  0.88256800  0.64370200  0.71854400  1.0
  Tl  Tl7  1  0.12138900  0.30839800  0.81845600  1.0
  Tl  Tl8  1  0.50130300  0.97463400  0.77316800  1.0
  Tl  Tl9  1  0.99869700  0.02536600  0.72683200  1.0
  Tl  Tl10  1  0.37861100  0.69160200  0.68154400  1.0
  Tl  Tl11  1  0.61743200  0.35629800  0.78145600  1.0
  Tl  Tl12  1  0.04344300  0.65033100  0.55905800  1.0
  Tl  Tl13  1  0.29522600  0.31215900  0.65722300  1.0
  Tl  Tl14  1  0.66728400  0.97602500  0.60782900  1.0
  Tl  Tl15  1  0.16464800  0.02980500  0.56589500  1.0
  Tl  Tl16  1  0.53846900  0.67151100  0.52459200  1.0
  Tl  Tl17  1  0.78161200  0.35211000  0.61407200  1.0
