# generated using pymatgen
data_Tl
_symmetry_space_group_name_H-M   'P 1'
_cell_length_a   5.68400200
_cell_length_b   9.48344942
_cell_length_c   21.31353500
_cell_angle_alpha   79.20549994
_cell_angle_beta   90.00000000
_cell_angle_gamma   90.00000000
_symmetry_Int_Tables_number   1
_chemical_formula_structural   Tl
_chemical_formula_sum   Tl18
_cell_volume   1128.55440067
_cell_formula_units_Z   18
loop_
 _symmetry_equiv_pos_site_id
 _symmetry_equiv_pos_as_xyz
  1  'x, y, z'
loop_
 _atom_site_type_symbol
 _atom_site_label
 _atom_site_symmetry_multiplicity
 _atom_site_fract_x
 _atom_site_fract_y
 _atom_site_fract_z
 _atom_site_occupancy
  Tl  Tl0  1  0.25000000  0.55579200  0.04567500  1.0
  Tl  Tl1  1  0.25000000  0.21667500  0.14596900  1.0
  Tl  Tl2  1  0.25000000  0.89276700  0.09254400  1.0
  Tl  Tl3  1  0.75000000  0.76217900  0.03279300  1.0
  Tl  Tl4  1  0.75000000  0.43827000  0.13088000  1.0
  Tl  Tl5  1  0.75000000  0.10658600  0.07688100  1.0
  Tl  Tl6  1  0.25000000  0.55972900  0.20538600  1.0
  Tl  Tl7  1  0.25000000  0.22624900  0.30958900  1.0
  Tl  Tl8  1  0.25000000  0.89109700  0.25839200  1.0
  Tl  Tl9  1  0.75000000  0.77375100  0.19041100  1.0
  Tl  Tl10  1  0.75000000  0.44027100  0.29461400  1.0
  Tl  Tl11  1  0.75000000  0.10890300  0.24160800  1.0
  Tl  Tl12  1  0.25000000  0.56173000  0.36912000  1.0
  Tl  Tl13  1  0.25000000  0.23782100  0.46720700  1.0
  Tl  Tl14  1  0.25000000  0.89341400  0.42311900  1.0
  Tl  Tl15  1  0.75000000  0.78332500  0.35403100  1.0
  Tl  Tl16  1  0.75000000  0.44420800  0.45432500  1.0
  Tl  Tl17  1  0.75000000  0.10723300  0.40745600  1.0
