# generated using pymatgen
data_Tl
_symmetry_space_group_name_H-M   'P 1'
_cell_length_a   5.68144600
_cell_length_b   6.18697200
_cell_length_c   21.43154500
_cell_angle_alpha   90.00000000
_cell_angle_beta   90.00000000
_cell_angle_gamma   90.00000000
_symmetry_Int_Tables_number   1
_chemical_formula_structural   Tl
_chemical_formula_sum   Tl12
_cell_volume   753.33910931
_cell_formula_units_Z   12
loop_
 _symmetry_equiv_pos_site_id
 _symmetry_equiv_pos_as_xyz
  1  'x, y, z'
loop_
 _atom_site_type_symbol
 _atom_site_label
 _atom_site_symmetry_multiplicity
 _atom_site_fract_x
 _atom_site_fract_y
 _atom_site_fract_z
 _atom_site_occupancy
  Tl  Tl0  1  0.25000000  0.33846400  0.00997700  1.0
  Tl  Tl1  1  0.25000000  0.83622300  0.08070900  1.0
  Tl  Tl2  1  0.75000000  0.66153600  0.00997700  1.0
  Tl  Tl3  1  0.75000000  0.16377700  0.08070900  1.0
  Tl  Tl4  1  0.25000000  0.33691500  0.17075200  1.0
  Tl  Tl5  1  0.25000000  0.83691500  0.24591500  1.0
  Tl  Tl6  1  0.75000000  0.66308500  0.17075200  1.0
  Tl  Tl7  1  0.75000000  0.16308500  0.24591500  1.0
  Tl  Tl8  1  0.25000000  0.33622300  0.33595700  1.0
  Tl  Tl9  1  0.25000000  0.83846400  0.40669000  1.0
  Tl  Tl10  1  0.75000000  0.66377700  0.33595700  1.0
  Tl  Tl11  1  0.75000000  0.16153600  0.40669000  1.0
