# generated using pymatgen
data_Tl
_symmetry_space_group_name_H-M   'P 1'
_cell_length_a   9.46937358
_cell_length_b   6.66671250
_cell_length_c   34.75215250
_cell_angle_alpha   86.95599783
_cell_angle_beta   89.96241747
_cell_angle_gamma   66.37581155
_symmetry_Int_Tables_number   1
_chemical_formula_structural   Tl
_chemical_formula_sum   Tl32
_cell_volume   2006.68118340
_cell_formula_units_Z   32
loop_
 _symmetry_equiv_pos_site_id
 _symmetry_equiv_pos_as_xyz
  1  'x, y, z'
loop_
 _atom_site_type_symbol
 _atom_site_label
 _atom_site_symmetry_multiplicity
 _atom_site_fract_x
 _atom_site_fract_y
 _atom_site_fract_z
 _atom_site_occupancy
  Tl  Tl0  1  0.64648700  0.98817100  0.36925500  1.0
  Tl  Tl1  1  0.64618000  0.48883800  0.11969800  1.0
  Tl  Tl2  1  0.26829000  0.06337200  0.39719200  1.0
  Tl  Tl3  1  0.26741000  0.55527200  0.14960300  1.0
  Tl  Tl4  1  0.01694200  0.91709700  0.34108000  1.0
  Tl  Tl5  1  0.02861200  0.42239500  0.08389400  1.0
  Tl  Tl6  1  0.88848800  0.12023000  0.43596600  1.0
  Tl  Tl7  1  0.89931600  0.61715400  0.18249500  1.0
  Tl  Tl8  1  0.52775400  0.18368600  0.46114100  1.0
  Tl  Tl9  1  0.51979800  0.67717800  0.21294400  1.0
  Tl  Tl10  1  0.17814700  0.21488000  0.48932000  1.0
  Tl  Tl11  1  0.14302100  0.74400800  0.24499900  1.0
  Tl  Tl12  1  0.76652700  0.79794500  0.27594600  1.0
  Tl  Tl13  1  0.77594600  0.29872500  0.02877700  1.0
  Tl  Tl14  1  0.39292400  0.86019500  0.30772200  1.0
  Tl  Tl15  1  0.40470200  0.34551200  0.05565600  1.0
  Tl  Tl16  1  0.73259000  0.44472800  0.35039700  1.0
  Tl  Tl17  1  0.73171000  0.93662800  0.10280800  1.0
  Tl  Tl18  1  0.35382000  0.51116200  0.38030200  1.0
  Tl  Tl19  1  0.35351300  0.01182900  0.13074500  1.0
  Tl  Tl20  1  0.10068400  0.38284600  0.31750500  1.0
  Tl  Tl21  1  0.11151200  0.87977000  0.06403400  1.0
  Tl  Tl22  1  0.97138800  0.57760500  0.41610600  1.0
  Tl  Tl23  1  0.98305800  0.08290300  0.15892000  1.0
  Tl  Tl24  1  0.59529800  0.65448800  0.44434400  1.0
  Tl  Tl25  1  0.60707600  0.13980500  0.19227800  1.0
  Tl  Tl26  1  0.22405400  0.70127500  0.47122300  1.0
  Tl  Tl27  1  0.23347300  0.20205500  0.22405400  1.0
  Tl  Tl28  1  0.85697900  0.25599300  0.25500100  1.0
  Tl  Tl29  1  0.82185300  0.78512000  0.01068100  1.0
  Tl  Tl30  1  0.48020200  0.32282200  0.28705600  1.0
  Tl  Tl31  1  0.47224600  0.81631400  0.03885900  1.0
