# generated using pymatgen
data_Tl
_symmetry_space_group_name_H-M   'P 1'
_cell_length_a   3.57754401
_cell_length_b   9.12294291
_cell_length_c   33.56885251
_cell_angle_alpha   95.00587183
_cell_angle_beta   89.99999779
_cell_angle_gamma   66.91177011
_symmetry_Int_Tables_number   1
_chemical_formula_structural   Tl
_chemical_formula_sum   Tl16
_cell_volume   1003.31058346
_cell_formula_units_Z   16
loop_
 _symmetry_equiv_pos_site_id
 _symmetry_equiv_pos_as_xyz
  1  'x, y, z'
loop_
 _atom_site_type_symbol
 _atom_site_label
 _atom_site_symmetry_multiplicity
 _atom_site_fract_x
 _atom_site_fract_y
 _atom_site_fract_z
 _atom_site_occupancy
  Tl  Tl0  1  0.95449900  0.04550100  0.17699900  1.0
  Tl  Tl1  1  0.20808100  0.29191900  0.11558700  1.0
  Tl  Tl2  1  0.70702400  0.79297600  0.23941000  1.0
  Tl  Tl3  1  0.45346700  0.54653300  0.05286500  1.0
  Tl  Tl4  1  0.78586300  0.71413700  0.13569100  1.0
  Tl  Tl5  1  0.04833500  0.95166500  0.07053800  1.0
  Tl  Tl6  1  0.53808200  0.46191800  0.19742900  1.0
  Tl  Tl7  1  0.28921000  0.21079000  0.01490800  1.0
  Tl  Tl8  1  0.95166500  0.04833500  0.42946200  1.0
  Tl  Tl9  1  0.21413700  0.28586300  0.36430900  1.0
  Tl  Tl10  1  0.71079000  0.78921000  0.48509200  1.0
  Tl  Tl11  1  0.46191800  0.53808200  0.30257100  1.0
  Tl  Tl12  1  0.79191900  0.70808100  0.38441300  1.0
  Tl  Tl13  1  0.04550100  0.95449900  0.32300100  1.0
  Tl  Tl14  1  0.54653300  0.45346700  0.44713500  1.0
  Tl  Tl15  1  0.29297600  0.20702400  0.26059000  1.0
