# generated using pymatgen
data_Tl
_symmetry_space_group_name_H-M   'P 1'
_cell_length_a   3.59154594
_cell_length_b   6.67641826
_cell_length_c   24.80070923
_cell_angle_alpha   117.66713769
_cell_angle_beta   90.00000043
_cell_angle_gamma   74.39686070
_symmetry_Int_Tables_number   1
_chemical_formula_structural   Tl
_chemical_formula_sum   Tl8
_cell_volume   501.81490867
_cell_formula_units_Z   8
loop_
 _symmetry_equiv_pos_site_id
 _symmetry_equiv_pos_as_xyz
  1  'x, y, z'
loop_
 _atom_site_type_symbol
 _atom_site_label
 _atom_site_symmetry_multiplicity
 _atom_site_fract_x
 _atom_site_fract_y
 _atom_site_fract_z
 _atom_site_occupancy
  Tl  Tl0  1  0.13111300  0.73777500  0.13335700  1.0
  Tl  Tl1  1  0.61371800  0.77256400  0.02109300  1.0
  Tl  Tl2  1  0.86540200  0.26919600  0.11753500  1.0
  Tl  Tl3  1  0.37842100  0.24315700  0.23720800  1.0
  Tl  Tl4  1  0.13459800  0.73080400  0.38246500  1.0
  Tl  Tl5  1  0.62157900  0.75684200  0.26279200  1.0
  Tl  Tl6  1  0.86888700  0.26222500  0.36664300  1.0
  Tl  Tl7  1  0.38628200  0.22743600  0.47890700  1.0
