# generated using pymatgen
data_Tl
_symmetry_space_group_name_H-M   'P 1'
_cell_length_a   3.57071200
_cell_length_b   3.57071260
_cell_length_c   45.46975300
_cell_angle_alpha   90.00000000
_cell_angle_beta   90.00000000
_cell_angle_gamma   119.99999440
_symmetry_Int_Tables_number   1
_chemical_formula_structural   Tl
_chemical_formula_sum   Tl8
_cell_volume   502.06849533
_cell_formula_units_Z   8
loop_
 _symmetry_equiv_pos_site_id
 _symmetry_equiv_pos_as_xyz
  1  'x, y, z'
loop_
 _atom_site_type_symbol
 _atom_site_label
 _atom_site_symmetry_multiplicity
 _atom_site_fract_x
 _atom_site_fract_y
 _atom_site_fract_z
 _atom_site_occupancy
  Tl  Tl0  1  0.33333333  0.66666667  0.34432800  1.0
  Tl  Tl1  1  0.66666667  0.33333333  0.28170600  1.0
  Tl  Tl2  1  0.33333333  0.66666667  0.46828800  1.0
  Tl  Tl3  1  0.66666667  0.33333333  0.40556600  1.0
  Tl  Tl4  1  0.33333333  0.66666667  0.59443400  1.0
  Tl  Tl5  1  0.66666667  0.33333333  0.53171200  1.0
  Tl  Tl6  1  0.33333333  0.66666667  0.71829400  1.0
  Tl  Tl7  1  0.66666667  0.33333333  0.65567200  1.0
