# generated using pymatgen
data_Sr
_symmetry_space_group_name_H-M   'P 1'
_cell_length_a   7.37844232
_cell_length_b   14.61187355
_cell_length_c   25.57789352
_cell_angle_alpha   106.96262446
_cell_angle_beta   89.99999049
_cell_angle_gamma   90.00000278
_symmetry_Int_Tables_number   1
_chemical_formula_structural   Sr
_chemical_formula_sum   Sr22
_cell_volume   2637.65624770
_cell_formula_units_Z   22
loop_
 _symmetry_equiv_pos_site_id
 _symmetry_equiv_pos_as_xyz
  1  'x, y, z'
loop_
 _atom_site_type_symbol
 _atom_site_label
 _atom_site_symmetry_multiplicity
 _atom_site_fract_x
 _atom_site_fract_y
 _atom_site_fract_z
 _atom_site_occupancy
  Sr  Sr0  1  0.00714200  0.99967700  0.39800200  1.0
  Sr  Sr1  1  0.51743100  0.00768600  0.31692100  1.0
  Sr  Sr2  1  0.14769600  0.24711600  0.35489500  1.0
  Sr  Sr3  1  0.98256900  0.50768600  0.31692100  1.0
  Sr  Sr4  1  0.49285800  0.49967700  0.39800200  1.0
  Sr  Sr5  1  0.35230400  0.74711600  0.35489600  1.0
  Sr  Sr6  1  0.00048600  0.99971500  0.56408300  1.0
  Sr  Sr7  1  0.49951400  0.00028500  0.47758400  1.0
  Sr  Sr8  1  0.16279600  0.25000000  0.52083300  1.0
  Sr  Sr9  1  0.65850500  0.25296900  0.43838700  1.0
  Sr  Sr10  1  0.00048600  0.50028500  0.47758400  1.0
  Sr  Sr11  1  0.49951400  0.49971500  0.56408300  1.0
  Sr  Sr12  1  0.33720400  0.75000000  0.52083300  1.0
  Sr  Sr13  1  0.84149600  0.75296900  0.43838700  1.0
  Sr  Sr14  1  0.98256900  0.99231400  0.72474600  1.0
  Sr  Sr15  1  0.49285800  0.00032300  0.64366400  1.0
  Sr  Sr16  1  0.14769600  0.25288400  0.68677100  1.0
  Sr  Sr17  1  0.65850500  0.24703100  0.60328000  1.0
  Sr  Sr18  1  0.00714200  0.50032300  0.64366400  1.0
  Sr  Sr19  1  0.51743100  0.49231400  0.72474600  1.0
  Sr  Sr20  1  0.35230400  0.75288400  0.68677100  1.0
  Sr  Sr21  1  0.84149600  0.74703100  0.60328000  1.0
