# generated using pymatgen
data_Sr
_symmetry_space_group_name_H-M   'P 1'
_cell_length_a   11.27394968
_cell_length_b   14.60833698
_cell_length_c   25.57810300
_cell_angle_alpha   81.60999521
_cell_angle_beta   79.10177783
_cell_angle_gamma   73.97540385
_symmetry_Int_Tables_number   1
_chemical_formula_structural   Sr
_chemical_formula_sum   Sr35
_cell_volume   3956.19242409
_cell_formula_units_Z   35
loop_
 _symmetry_equiv_pos_site_id
 _symmetry_equiv_pos_as_xyz
  1  'x, y, z'
loop_
 _atom_site_type_symbol
 _atom_site_label
 _atom_site_symmetry_multiplicity
 _atom_site_fract_x
 _atom_site_fract_y
 _atom_site_fract_z
 _atom_site_occupancy
  Sr  Sr0  1  0.99844500  0.00020300  0.59108800  1.0
  Sr  Sr1  1  0.66222300  0.00464400  0.70076400  1.0
  Sr  Sr2  1  0.32935200  0.00004000  0.64891600  1.0
  Sr  Sr3  1  0.84113700  0.75477700  0.62141300  1.0
  Sr  Sr4  1  0.52285600  0.74706600  0.73321800  1.0
  Sr  Sr5  1  0.16392000  0.74378500  0.68809400  1.0
  Sr  Sr6  1  0.85535300  0.51118000  0.72635200  1.0
  Sr  Sr7  1  0.49637600  0.48845800  0.68008300  1.0
  Sr  Sr8  1  0.17122100  0.50631300  0.61242200  1.0
  Sr  Sr9  1  0.83708100  0.25068000  0.67078200  1.0
  Sr  Sr10  1  0.50084300  0.24823100  0.60604900  1.0
  Sr  Sr11  1  0.19151600  0.26938700  0.72125300  1.0
  Sr  Sr12  1  0.00155500  0.99979700  0.42280100  1.0
  Sr  Sr13  1  0.66524000  0.99728000  0.53370200  1.0
  Sr  Sr14  1  0.33476000  0.00272000  0.48018700  1.0
  Sr  Sr15  1  0.83975300  0.74730300  0.45608400  1.0
  Sr  Sr16  1  0.49909900  0.74548100  0.57555500  1.0
  Sr  Sr17  1  0.17214900  0.75339700  0.51336700  1.0
  Sr  Sr18  1  0.83001200  0.49966400  0.56626900  1.0
  Sr  Sr19  1  0.50000000  0.50000000  0.50694400  1.0
  Sr  Sr20  1  0.16998800  0.50033600  0.44762000  1.0
  Sr  Sr21  1  0.82785100  0.24660300  0.50052200  1.0
  Sr  Sr22  1  0.50090100  0.25451900  0.43833400  1.0
  Sr  Sr23  1  0.16024700  0.25269700  0.55780500  1.0
  Sr  Sr24  1  0.67064800  0.99996000  0.36497300  1.0
  Sr  Sr25  1  0.33777700  0.99535600  0.31312500  1.0
  Sr  Sr26  1  0.80848400  0.73061300  0.29263600  1.0
  Sr  Sr27  1  0.49915700  0.75176900  0.40783900  1.0
  Sr  Sr28  1  0.16291900  0.74932000  0.34310700  1.0
  Sr  Sr29  1  0.82877900  0.49368700  0.40146700  1.0
  Sr  Sr30  1  0.50362400  0.51154200  0.33380600  1.0
  Sr  Sr31  1  0.14464700  0.48882000  0.28753700  1.0
  Sr  Sr32  1  0.83608000  0.25621500  0.32579500  1.0
  Sr  Sr33  1  0.47714400  0.25293400  0.28067100  1.0
  Sr  Sr34  1  0.15886300  0.24522300  0.39247600  1.0
