# generated using pymatgen
data_Sr
_symmetry_space_group_name_H-M   'P 1'
_cell_length_a   4.26257145
_cell_length_b   16.36550580
_cell_length_c   29.53195307
_cell_angle_alpha   63.18371868
_cell_angle_beta   89.99999428
_cell_angle_gamma   74.90259890
_symmetry_Int_Tables_number   1
_chemical_formula_structural   Sr
_chemical_formula_sum   Sr14
_cell_volume   1758.53108900
_cell_formula_units_Z   14
loop_
 _symmetry_equiv_pos_site_id
 _symmetry_equiv_pos_as_xyz
  1  'x, y, z'
loop_
 _atom_site_type_symbol
 _atom_site_label
 _atom_site_symmetry_multiplicity
 _atom_site_fract_x
 _atom_site_fract_y
 _atom_site_fract_z
 _atom_site_occupancy
  Sr  Sr0  1  0.50008600  0.99991400  0.34646600  1.0
  Sr  Sr1  1  0.00076100  0.99923900  0.46757300  1.0
  Sr  Sr2  1  0.24926400  0.25073700  0.36424000  1.0
  Sr  Sr3  1  0.49879000  0.50121000  0.34797400  1.0
  Sr  Sr4  1  0.00503400  0.49496600  0.47171800  1.0
  Sr  Sr5  1  0.25131100  0.74868900  0.44660000  1.0
  Sr  Sr6  1  0.49923900  0.00076100  0.59492700  1.0
  Sr  Sr7  1  0.99991400  0.00008600  0.71603400  1.0
  Sr  Sr8  1  0.24869000  0.25131100  0.61590000  1.0
  Sr  Sr9  1  0.74885200  0.25114900  0.48820400  1.0
  Sr  Sr10  1  0.49496600  0.50503400  0.59078200  1.0
  Sr  Sr11  1  0.00121000  0.49879000  0.71452600  1.0
  Sr  Sr12  1  0.25073700  0.74926300  0.69826000  1.0
  Sr  Sr13  1  0.75114800  0.74885100  0.57429600  1.0
