# generated using pymatgen
data_Sr
_symmetry_space_group_name_H-M   'P 1'
_cell_length_a   4.26393026
_cell_length_b   13.98156600
_cell_length_c   25.58357400
_cell_angle_alpha   90.00000000
_cell_angle_beta   60.00000202
_cell_angle_gamma   90.00000000
_symmetry_Int_Tables_number   1
_chemical_formula_structural   Sr
_chemical_formula_sum   Sr10
_cell_volume   1320.86297109
_cell_formula_units_Z   10
loop_
 _symmetry_equiv_pos_site_id
 _symmetry_equiv_pos_as_xyz
  1  'x, y, z'
loop_
 _atom_site_type_symbol
 _atom_site_label
 _atom_site_symmetry_multiplicity
 _atom_site_fract_x
 _atom_site_fract_y
 _atom_site_fract_z
 _atom_site_occupancy
  Sr  Sr0  1  0.98543500  0.99682900  0.37985500  1.0
  Sr  Sr1  1  0.98543500  0.50317100  0.37985500  1.0
  Sr  Sr2  1  0.00000000  0.00000000  0.54166700  1.0
  Sr  Sr3  1  0.66948800  0.75000000  0.48517000  1.0
  Sr  Sr4  1  0.00000000  0.50000000  0.54166700  1.0
  Sr  Sr5  1  0.32675000  0.25000000  0.43275000  1.0
  Sr  Sr6  1  0.01456500  0.00317100  0.70347800  1.0
  Sr  Sr7  1  0.67325000  0.75000000  0.65058300  1.0
  Sr  Sr8  1  0.01456500  0.49682900  0.70347800  1.0
  Sr  Sr9  1  0.33051200  0.25000000  0.59816300  1.0
