# generated using pymatgen
data_Sr
_symmetry_space_group_name_H-M   'P 1'
_cell_length_a   14.01888800
_cell_length_b   7.35596000
_cell_length_c   25.55885500
_cell_angle_alpha   90.00000000
_cell_angle_beta   90.00000000
_cell_angle_gamma   90.00000000
_symmetry_Int_Tables_number   1
_chemical_formula_structural   Sr
_chemical_formula_sum   Sr24
_cell_volume   2635.68994164
_cell_formula_units_Z   24
loop_
 _symmetry_equiv_pos_site_id
 _symmetry_equiv_pos_as_xyz
  1  'x, y, z'
loop_
 _atom_site_type_symbol
 _atom_site_label
 _atom_site_symmetry_multiplicity
 _atom_site_fract_x
 _atom_site_fract_y
 _atom_site_fract_z
 _atom_site_occupancy
  Sr  Sr0  1  0.00000000  0.50000000  0.29244200  1.0
  Sr  Sr1  1  0.00000000  0.00000000  0.37572000  1.0
  Sr  Sr2  1  0.25000000  0.65449400  0.37604600  1.0
  Sr  Sr3  1  0.25000000  0.14133000  0.29133200  1.0
  Sr  Sr4  1  0.50000000  0.50000000  0.29244200  1.0
  Sr  Sr5  1  0.50000000  0.00000000  0.37572000  1.0
  Sr  Sr6  1  0.75000000  0.34550600  0.37604600  1.0
  Sr  Sr7  1  0.75000000  0.85867000  0.29133200  1.0
  Sr  Sr8  1  0.00000000  0.50000000  0.45689800  1.0
  Sr  Sr9  1  0.00000000  0.00000000  0.54310200  1.0
  Sr  Sr10  1  0.25000000  0.65874600  0.54405800  1.0
  Sr  Sr11  1  0.25000000  0.15874600  0.45594200  1.0
  Sr  Sr12  1  0.50000000  0.50000000  0.45689800  1.0
  Sr  Sr13  1  0.50000000  0.00000000  0.54310200  1.0
  Sr  Sr14  1  0.75000000  0.34125400  0.54405800  1.0
  Sr  Sr15  1  0.75000000  0.84125400  0.45594200  1.0
  Sr  Sr16  1  0.00000000  0.50000000  0.62428000  1.0
  Sr  Sr17  1  0.00000000  0.00000000  0.70755800  1.0
  Sr  Sr18  1  0.25000000  0.64133000  0.70866800  1.0
  Sr  Sr19  1  0.25000000  0.15449400  0.62395400  1.0
  Sr  Sr20  1  0.50000000  0.50000000  0.62428000  1.0
  Sr  Sr21  1  0.50000000  0.00000000  0.70755800  1.0
  Sr  Sr22  1  0.75000000  0.35867000  0.70866800  1.0
  Sr  Sr23  1  0.75000000  0.84550600  0.62395400  1.0
