# generated using pymatgen
data_Sr
_symmetry_space_group_name_H-M   'P 1'
_cell_length_a   11.26427471
_cell_length_b   14.59079277
_cell_length_c   25.57488700
_cell_angle_alpha   98.39910213
_cell_angle_beta   79.09369083
_cell_angle_gamma   77.27513364
_symmetry_Int_Tables_number   1
_chemical_formula_structural   Sr
_chemical_formula_sum   Sr34
_cell_volume   3947.95905567
_cell_formula_units_Z   34
loop_
 _symmetry_equiv_pos_site_id
 _symmetry_equiv_pos_as_xyz
  1  'x, y, z'
loop_
 _atom_site_type_symbol
 _atom_site_label
 _atom_site_symmetry_multiplicity
 _atom_site_fract_x
 _atom_site_fract_y
 _atom_site_fract_z
 _atom_site_occupancy
  Sr  Sr0  1  0.00063100  0.99792300  0.40478800  1.0
  Sr  Sr1  1  0.32729600  0.99347800  0.29512100  1.0
  Sr  Sr2  1  0.67095900  0.00419300  0.34826000  1.0
  Sr  Sr3  1  0.97945400  0.75470900  0.30198100  1.0
  Sr  Sr4  1  0.31607300  0.74481200  0.35674800  1.0
  Sr  Sr5  1  0.82048300  0.50897100  0.29559800  1.0
  Sr  Sr6  1  0.16039400  0.50101400  0.34775200  1.0
  Sr  Sr7  1  0.49701400  0.50096700  0.40726200  1.0
  Sr  Sr8  1  0.01585000  0.24797500  0.34047100  1.0
  Sr  Sr9  1  0.35529100  0.24878800  0.39448500  1.0
  Sr  Sr10  1  0.99942500  0.99876300  0.57132500  1.0
  Sr  Sr11  1  0.33390800  0.00123700  0.45645200  1.0
  Sr  Sr12  1  0.66666667  0.00000000  0.51388900  1.0
  Sr  Sr13  1  0.64297500  0.75406100  0.40908400  1.0
  Sr  Sr14  1  0.97575800  0.74985200  0.46521400  1.0
  Sr  Sr15  1  0.30972100  0.75166100  0.52317100  1.0
  Sr  Sr16  1  0.83352500  0.50037200  0.45601400  1.0
  Sr  Sr17  1  0.16666700  0.50000000  0.51388900  1.0
  Sr  Sr18  1  0.49980800  0.49962800  0.57176300  1.0
  Sr  Sr19  1  0.02361200  0.24833900  0.50460700  1.0
  Sr  Sr20  1  0.35757500  0.25014800  0.56256300  1.0
  Sr  Sr21  1  0.68867200  0.25222100  0.45274200  1.0
  Sr  Sr22  1  0.00603700  0.00652200  0.73265700  1.0
  Sr  Sr23  1  0.33270200  0.00207700  0.62299000  1.0
  Sr  Sr24  1  0.66237500  0.99580700  0.67951800  1.0
  Sr  Sr25  1  0.64466200  0.74777900  0.57503600  1.0
  Sr  Sr26  1  0.97804200  0.75121200  0.63329300  1.0
  Sr  Sr27  1  0.31748300  0.75202500  0.68730700  1.0
  Sr  Sr28  1  0.83631900  0.49903300  0.62051600  1.0
  Sr  Sr29  1  0.17294000  0.49898600  0.68002600  1.0
  Sr  Sr30  1  0.51285000  0.49102900  0.73218000  1.0
  Sr  Sr31  1  0.01726000  0.25518800  0.67103000  1.0
  Sr  Sr32  1  0.35387900  0.24529100  0.72579700  1.0
  Sr  Sr33  1  0.69035900  0.24593900  0.61869400  1.0
