# generated using pymatgen
data_Sr
_symmetry_space_group_name_H-M   'P 1'
_cell_length_a   4.26225602
_cell_length_b   28.21600288
_cell_length_c   29.52976855
_cell_angle_alpha   82.48301046
_cell_angle_beta   89.99998923
_cell_angle_gamma   85.66837885
_symmetry_Int_Tables_number   1
_chemical_formula_structural   Sr
_chemical_formula_sum   Sr29
_cell_volume   3510.61071013
_cell_formula_units_Z   29
loop_
 _symmetry_equiv_pos_site_id
 _symmetry_equiv_pos_as_xyz
  1  'x, y, z'
loop_
 _atom_site_type_symbol
 _atom_site_label
 _atom_site_symmetry_multiplicity
 _atom_site_fract_x
 _atom_site_fract_y
 _atom_site_fract_z
 _atom_site_occupancy
  Sr  Sr0  1  0.49960800  0.00078500  0.36804900  1.0
  Sr  Sr1  1  0.00021600  0.99956800  0.49131600  1.0
  Sr  Sr2  1  0.75007400  0.49985200  0.42807800  1.0
  Sr  Sr3  1  0.24974000  0.50052000  0.30687700  1.0
  Sr  Sr4  1  0.18816300  0.62367500  0.37253900  1.0
  Sr  Sr5  1  0.43748900  0.12502300  0.43260200  1.0
  Sr  Sr6  1  0.93752600  0.12495100  0.31154700  1.0
  Sr  Sr7  1  0.62532400  0.74935300  0.40006700  1.0
  Sr  Sr8  1  0.87482800  0.25034500  0.45989700  1.0
  Sr  Sr9  1  0.37539200  0.24921600  0.33708600  1.0
  Sr  Sr10  1  0.06241100  0.87517800  0.42643100  1.0
  Sr  Sr11  1  0.31244000  0.37512000  0.48718400  1.0
  Sr  Sr12  1  0.81226600  0.37546500  0.36344000  1.0
  Sr  Sr13  1  0.49992600  0.00014800  0.61879800  1.0
  Sr  Sr14  1  0.00026000  0.99948000  0.73999900  1.0
  Sr  Sr15  1  0.75039200  0.49921500  0.67882700  1.0
  Sr  Sr16  1  0.24978400  0.50043200  0.55556000  1.0
  Sr  Sr17  1  0.18759000  0.62482200  0.62044400  1.0
  Sr  Sr18  1  0.68729000  0.62542200  0.49611600  1.0
  Sr  Sr19  1  0.43773400  0.12453500  0.68343500  1.0
  Sr  Sr20  1  0.93756100  0.12488000  0.55969100  1.0
  Sr  Sr21  1  0.62467600  0.75064700  0.64680900  1.0
  Sr  Sr22  1  0.12500000  0.75000000  0.52343800  1.0
  Sr  Sr23  1  0.87460800  0.25078400  0.70979000  1.0
  Sr  Sr24  1  0.37517200  0.24965500  0.58697900  1.0
  Sr  Sr25  1  0.06183800  0.87632500  0.67433600  1.0
  Sr  Sr26  1  0.56271100  0.87457800  0.55075900  1.0
  Sr  Sr27  1  0.31247500  0.37504900  0.73532800  1.0
  Sr  Sr28  1  0.81251100  0.37497700  0.61427300  1.0
