# generated using pymatgen
data_Sc
_symmetry_space_group_name_H-M   'P 1'
_cell_length_a   3.26566441
_cell_length_b   4.61684584
_cell_length_c   26.13160654
_cell_angle_alpha   90.00000000
_cell_angle_beta   90.09615520
_cell_angle_gamma   90.00000000
_symmetry_Int_Tables_number   1
_chemical_formula_structural   Sc
_chemical_formula_sum   Sc8
_cell_volume   393.98748388
_cell_formula_units_Z   8
loop_
 _symmetry_equiv_pos_site_id
 _symmetry_equiv_pos_as_xyz
  1  'x, y, z'
loop_
 _atom_site_type_symbol
 _atom_site_label
 _atom_site_symmetry_multiplicity
 _atom_site_fract_x
 _atom_site_fract_y
 _atom_site_fract_z
 _atom_site_occupancy
  Sc  Sc0  1  0.49980200  0.50000000  0.06469500  1.0
  Sc  Sc1  1  0.99978700  0.00000000  0.12408900  1.0
  Sc  Sc2  1  0.99937000  0.00000000  0.00458000  1.0
  Sc  Sc3  1  0.50002500  0.50000000  0.18842300  1.0
  Sc  Sc4  1  0.50021300  0.50000000  0.31341100  1.0
  Sc  Sc5  1  0.00019800  0.00000000  0.37280500  1.0
  Sc  Sc6  1  0.99997500  0.00000000  0.24907700  1.0
  Sc  Sc7  1  0.50063000  0.50000000  0.43292000  1.0
