# generated using pymatgen
data_Sc
_symmetry_space_group_name_H-M   'P 1'
_cell_length_a   7.29567537
_cell_length_b   9.80630504
_cell_length_c   34.54687885
_cell_angle_alpha   75.32782618
_cell_angle_beta   89.99792305
_cell_angle_gamma   81.43177457
_symmetry_Int_Tables_number   1
_chemical_formula_structural   Sc
_chemical_formula_sum   Sc48
_cell_volume   2362.48912612
_cell_formula_units_Z   48
loop_
 _symmetry_equiv_pos_site_id
 _symmetry_equiv_pos_as_xyz
  1  'x, y, z'
loop_
 _atom_site_type_symbol
 _atom_site_label
 _atom_site_symmetry_multiplicity
 _atom_site_fract_x
 _atom_site_fract_y
 _atom_site_fract_z
 _atom_site_occupancy
  Sc  Sc0  1  0.48875300  0.50082300  0.00697300  1.0
  Sc  Sc1  1  0.40938600  0.91634700  0.04455300  1.0
  Sc  Sc2  1  0.91728100  0.42487300  0.03868600  1.0
  Sc  Sc3  1  0.82503400  0.83307600  0.08479700  1.0
  Sc  Sc4  1  0.99887200  0.00041100  0.24966900  1.0
  Sc  Sc5  1  0.33265600  0.33361600  0.08397400  1.0
  Sc  Sc6  1  0.24907700  0.75257500  0.12564800  1.0
  Sc  Sc7  1  0.75501500  0.24968500  0.12171800  1.0
  Sc  Sc8  1  0.66786400  0.66468300  0.16754800  1.0
  Sc  Sc9  1  0.16811600  0.16646500  0.16673200  1.0
  Sc  Sc10  1  0.08527800  0.58209600  0.20875100  1.0
  Sc  Sc11  1  0.58421400  0.08404400  0.20779000  1.0
  Sc  Sc12  1  0.57694000  0.58946000  0.08160300  1.0
  Sc  Sc13  1  0.50013100  0.99971300  0.12395000  1.0
  Sc  Sc14  1  0.00036100  0.49989900  0.12401800  1.0
  Sc  Sc15  1  0.91499000  0.91751100  0.16660800  1.0
  Sc  Sc16  1  0.08334700  0.08312300  0.08544300  1.0
  Sc  Sc17  1  0.41835900  0.41650200  0.16618400  1.0
  Sc  Sc18  1  0.33467700  0.83234700  0.20860000  1.0
  Sc  Sc19  1  0.83484500  0.33298100  0.20789500  1.0
  Sc  Sc20  1  0.73648500  0.75223000  0.00660300  1.0
  Sc  Sc21  1  0.25012900  0.25018100  0.24986200  1.0
  Sc  Sc22  1  0.16740600  0.66435800  0.04669200  1.0
  Sc  Sc23  1  0.67562100  0.15862000  0.04259500  1.0
  Sc  Sc24  1  0.49986100  0.49984600  0.25013600  1.0
  Sc  Sc25  1  0.41531900  0.91762500  0.29140000  1.0
  Sc  Sc26  1  0.91515800  0.41705500  0.29210200  1.0
  Sc  Sc27  1  0.83500900  0.83245800  0.33339700  1.0
  Sc  Sc28  1  0.01350500  0.99777300  0.49339800  1.0
  Sc  Sc29  1  0.33163300  0.33351900  0.33381700  1.0
  Sc  Sc30  1  0.24986300  0.75025700  0.37605700  1.0
  Sc  Sc31  1  0.74964100  0.25011200  0.37598100  1.0
  Sc  Sc32  1  0.66666667  0.66685900  0.41455900  1.0
  Sc  Sc33  1  0.17305100  0.16057400  0.41839400  1.0
  Sc  Sc34  1  0.07437800  0.59137700  0.45740000  1.0
  Sc  Sc35  1  0.58259700  0.08563200  0.45330700  1.0
  Sc  Sc36  1  0.58187600  0.58353500  0.33326700  1.0
  Sc  Sc37  1  0.50091500  0.99741400  0.37435900  1.0
  Sc  Sc38  1  0.99498900  0.50032900  0.37828400  1.0
  Sc  Sc39  1  0.92497800  0.91691000  0.41520800  1.0
  Sc  Sc40  1  0.08213600  0.08531400  0.33245700  1.0
  Sc  Sc41  1  0.41734800  0.41640600  0.41601800  1.0
  Sc  Sc42  1  0.34062800  0.83365100  0.45544800  1.0
  Sc  Sc43  1  0.83272500  0.32513800  0.46131100  1.0
  Sc  Sc44  1  0.75113500  0.74957000  0.25032900  1.0
  Sc  Sc45  1  0.26124900  0.24916900  0.49302300  1.0
  Sc  Sc46  1  0.16579100  0.66594300  0.29220800  1.0
  Sc  Sc47  1  0.66471700  0.16791800  0.29125000  1.0
