# generated using pymatgen
data_Sc
_symmetry_space_group_name_H-M   'P 1'
_cell_length_a   4.61429601
_cell_length_b   5.65804064
_cell_length_c   26.12745327
_cell_angle_alpha   73.13944496
_cell_angle_beta   90.00000000
_cell_angle_gamma   65.93551202
_symmetry_Int_Tables_number   1
_chemical_formula_structural   Sc
_chemical_formula_sum   Sc12
_cell_volume   590.58744024
_cell_formula_units_Z   12
loop_
 _symmetry_equiv_pos_site_id
 _symmetry_equiv_pos_as_xyz
  1  'x, y, z'
loop_
 _atom_site_type_symbol
 _atom_site_label
 _atom_site_symmetry_multiplicity
 _atom_site_fract_x
 _atom_site_fract_y
 _atom_site_fract_z
 _atom_site_occupancy
  Sc  Sc0  1  0.66114700  0.67770700  0.08310200  1.0
  Sc  Sc1  1  0.99701000  0.00598000  0.00497500  1.0
  Sc  Sc2  1  0.33243200  0.33513400  0.16714800  1.0
  Sc  Sc3  1  0.66635400  0.66729400  0.20862700  1.0
  Sc  Sc4  1  0.00074500  0.99850900  0.12365600  1.0
  Sc  Sc5  1  0.33813600  0.32372700  0.04732300  1.0
  Sc  Sc6  1  0.66592200  0.66815800  0.33467700  1.0
  Sc  Sc7  1  0.00031300  0.99937300  0.24970600  1.0
  Sc  Sc8  1  0.32853000  0.34293900  0.41101100  1.0
  Sc  Sc9  1  0.66965700  0.66068700  0.45335800  1.0
  Sc  Sc10  1  0.00552000  0.98896000  0.37523100  1.0
  Sc  Sc11  1  0.33423400  0.33153200  0.29118600  1.0
