# generated using pymatgen
data_Sc
_symmetry_space_group_name_H-M   'P 1'
_cell_length_a   3.26501714
_cell_length_b   3.26501714
_cell_length_c   27.67932160
_cell_angle_alpha   90.00000000
_cell_angle_beta   90.00000000
_cell_angle_gamma   89.89555954
_symmetry_Int_Tables_number   1
_chemical_formula_structural   Sc
_chemical_formula_sum   Sc6
_cell_volume   295.07040388
_cell_formula_units_Z   6
loop_
 _symmetry_equiv_pos_site_id
 _symmetry_equiv_pos_as_xyz
  1  'x, y, z'
loop_
 _atom_site_type_symbol
 _atom_site_label
 _atom_site_symmetry_multiplicity
 _atom_site_fract_x
 _atom_site_fract_y
 _atom_site_fract_z
 _atom_site_occupancy
  Sc  Sc0  1  0.50000000  0.50000000  0.91706600  1.0
  Sc  Sc1  1  0.00000000  0.00000000  0.99412200  1.0
  Sc  Sc2  1  0.50000000  0.50000000  0.75024800  1.0
  Sc  Sc3  1  0.00000000  0.00000000  0.83308500  1.0
  Sc  Sc4  1  0.50000000  0.50000000  0.58921100  1.0
  Sc  Sc5  1  0.00000000  0.00000000  0.66626800  1.0
