# generated using pymatgen
data_Sc
_symmetry_space_group_name_H-M   'P 1'
_cell_length_a   7.29443256
_cell_length_b   5.65748359
_cell_length_c   34.53812044
_cell_angle_alpha   89.90396628
_cell_angle_beta   89.99821495
_cell_angle_gamma   75.04688536
_symmetry_Int_Tables_number   1
_chemical_formula_structural   Sc
_chemical_formula_sum   Sc28
_cell_volume   1377.05636142
_cell_formula_units_Z   28
loop_
 _symmetry_equiv_pos_site_id
 _symmetry_equiv_pos_as_xyz
  1  'x, y, z'
loop_
 _atom_site_type_symbol
 _atom_site_label
 _atom_site_symmetry_multiplicity
 _atom_site_fract_x
 _atom_site_fract_y
 _atom_site_fract_z
 _atom_site_occupancy
  Sc  Sc0  1  0.43113700  0.86351200  0.03296300  1.0
  Sc  Sc1  1  0.85809200  0.71643200  0.07241500  1.0
  Sc  Sc2  1  0.97471400  0.01484200  0.00566400  1.0
  Sc  Sc3  1  0.28968500  0.57124100  0.10581800  1.0
  Sc  Sc4  1  0.71557300  0.42674600  0.14357300  1.0
  Sc  Sc5  1  0.14461000  0.28201800  0.17793900  1.0
  Sc  Sc6  1  0.57257300  0.14187000  0.21428800  1.0
  Sc  Sc7  1  0.50293600  0.99643600  0.12420100  1.0
  Sc  Sc8  1  0.93142100  0.85337800  0.16059100  1.0
  Sc  Sc9  1  0.07185500  0.13977400  0.08699600  1.0
  Sc  Sc10  1  0.35802700  0.71266400  0.19617900  1.0
  Sc  Sc11  1  0.78620300  0.57112900  0.23218300  1.0
  Sc  Sc12  1  0.21424600  0.43228900  0.02128700  1.0
  Sc  Sc13  1  0.63900200  0.28929200  0.05746900  1.0
  Sc  Sc14  1  0.42770700  0.85880500  0.28594300  1.0
  Sc  Sc15  1  0.85428700  0.71807500  0.32154300  1.0
  Sc  Sc16  1  0.99955600  0.00034200  0.24995000  1.0
  Sc  Sc17  1  0.28281700  0.57501700  0.35793900  1.0
  Sc  Sc18  1  0.71386900  0.43162600  0.39514700  1.0
  Sc  Sc19  1  0.14671100  0.28207700  0.42468400  1.0
  Sc  Sc20  1  0.57142100  0.13905600  0.46086500  1.0
  Sc  Sc21  1  0.49602200  0.00018900  0.37632300  1.0
  Sc  Sc22  1  0.92766800  0.85498600  0.40973900  1.0
  Sc  Sc23  1  0.07013400  0.14469600  0.33856400  1.0
  Sc  Sc24  1  0.35459000  0.70787400  0.44918700  1.0
  Sc  Sc25  1  0.81089900  0.55653100  0.47649900  1.0
  Sc  Sc26  1  0.21315000  0.42965000  0.26785200  1.0
  Sc  Sc27  1  0.64109800  0.28945600  0.30419900  1.0
