# generated using pymatgen
data_Sc
_symmetry_space_group_name_H-M   'P 1'
_cell_length_a   3.26260300
_cell_length_b   3.26260300
_cell_length_c   27.72980700
_cell_angle_alpha   90.00000000
_cell_angle_beta   90.00000000
_cell_angle_gamma   90.00000000
_symmetry_Int_Tables_number   1
_chemical_formula_structural   Sc
_chemical_formula_sum   Sc6
_cell_volume   295.17210284
_cell_formula_units_Z   6
loop_
 _symmetry_equiv_pos_site_id
 _symmetry_equiv_pos_as_xyz
  1  'x, y, z'
loop_
 _atom_site_type_symbol
 _atom_site_label
 _atom_site_symmetry_multiplicity
 _atom_site_fract_x
 _atom_site_fract_y
 _atom_site_fract_z
 _atom_site_occupancy
  Sc  Sc0  1  0.00000000  0.00000000  0.00612000  1.0
  Sc  Sc1  1  0.50000000  0.50000000  0.08319700  1.0
  Sc  Sc2  1  0.00000000  0.00000000  0.16703300  1.0
  Sc  Sc3  1  0.50000000  0.50000000  0.24963400  1.0
  Sc  Sc4  1  0.00000000  0.00000000  0.33346900  1.0
  Sc  Sc5  1  0.50000000  0.50000000  0.41054700  1.0
