# generated using pymatgen
data_Sc
_symmetry_space_group_name_H-M   'P 1'
_cell_length_a   3.26267200
_cell_length_b   7.99716051
_cell_length_c   22.63512545
_cell_angle_alpha   89.89249410
_cell_angle_beta   90.00000000
_cell_angle_gamma   90.00000000
_symmetry_Int_Tables_number   1
_chemical_formula_structural   Sc
_chemical_formula_sum   Sc12
_cell_volume   590.59718139
_cell_formula_units_Z   12
loop_
 _symmetry_equiv_pos_site_id
 _symmetry_equiv_pos_as_xyz
  1  'x, y, z'
loop_
 _atom_site_type_symbol
 _atom_site_label
 _atom_site_symmetry_multiplicity
 _atom_site_fract_x
 _atom_site_fract_y
 _atom_site_fract_z
 _atom_site_occupancy
  Sc  Sc0  1  0.00000000  0.66636500  0.08818700  1.0
  Sc  Sc1  1  0.00000000  0.99423100  0.01004300  1.0
  Sc  Sc2  1  0.00000000  0.33729800  0.16379200  1.0
  Sc  Sc3  1  0.50000000  0.66423500  0.20995300  1.0
  Sc  Sc4  1  0.50000000  0.99975700  0.12425600  1.0
  Sc  Sc5  1  0.50000000  0.33245800  0.03982400  1.0
  Sc  Sc6  1  0.00000000  0.66691000  0.33407700  1.0
  Sc  Sc7  1  0.00000000  0.00243200  0.24838000  1.0
  Sc  Sc8  1  0.00000000  0.33420800  0.41851000  1.0
  Sc  Sc9  1  0.50000000  0.67243600  0.44829000  1.0
  Sc  Sc10  1  0.50000000  0.00030200  0.37014600  1.0
  Sc  Sc11  1  0.50000000  0.32936800  0.29454200  1.0
