# generated using pymatgen
data_Sc
_symmetry_space_group_name_H-M   'P 1'
_cell_length_a   4.61335631
_cell_length_b   9.80505194
_cell_length_c   20.63654442
_cell_angle_alpha   77.78465261
_cell_angle_beta   90.00164587
_cell_angle_gamma   76.37863773
_symmetry_Int_Tables_number   1
_chemical_formula_structural   Sc
_chemical_formula_sum   Sc18
_cell_volume   885.45936322
_cell_formula_units_Z   18
loop_
 _symmetry_equiv_pos_site_id
 _symmetry_equiv_pos_as_xyz
  1  'x, y, z'
loop_
 _atom_site_type_symbol
 _atom_site_label
 _atom_site_symmetry_multiplicity
 _atom_site_fract_x
 _atom_site_fract_y
 _atom_site_fract_z
 _atom_site_occupancy
  Sc  Sc0  1  0.77879700  0.44241100  0.06187000  1.0
  Sc  Sc1  1  0.55373900  0.89255200  0.11186600  1.0
  Sc  Sc2  1  0.00007900  0.99986800  0.00906700  1.0
  Sc  Sc3  1  0.33026800  0.33954200  0.16452200  1.0
  Sc  Sc4  1  0.11060000  0.77882700  0.22130400  1.0
  Sc  Sc5  1  0.88921900  0.22156200  0.27630400  1.0
  Sc  Sc6  1  0.66825300  0.66336000  0.33648400  1.0
  Sc  Sc7  1  0.44210900  0.11583600  0.38164200  1.0
  Sc  Sc8  1  0.22109200  0.55780500  0.43805000  1.0
  Sc  Sc9  1  0.72189900  0.55622200  0.19591600  1.0
  Sc  Sc10  1  0.50050900  0.99894300  0.25091400  1.0
  Sc  Sc11  1  0.94283200  0.11441500  0.13574300  1.0
  Sc  Sc12  1  0.28085000  0.43824300  0.30770000  1.0
  Sc  Sc13  1  0.05737200  0.88522500  0.36035900  1.0
  Sc  Sc14  1  0.83232100  0.33535500  0.41035000  1.0
  Sc  Sc15  1  0.61100500  0.77792900  0.46316000  1.0
  Sc  Sc16  1  0.39002800  0.21998300  0.03417700  1.0
  Sc  Sc17  1  0.16902600  0.66192200  0.09057100  1.0
