# generated using pymatgen
data_Sc
_symmetry_space_group_name_H-M   'P 1'
_cell_length_a   3.26269600
_cell_length_b   3.26564628
_cell_length_c   21.40441308
_cell_angle_alpha   85.72239670
_cell_angle_beta   85.62893488
_cell_angle_gamma   60.02988073
_symmetry_Int_Tables_number   1
_chemical_formula_structural   Sc
_chemical_formula_sum   Sc4
_cell_volume   196.81442536
_cell_formula_units_Z   4
loop_
 _symmetry_equiv_pos_site_id
 _symmetry_equiv_pos_as_xyz
  1  'x, y, z'
loop_
 _atom_site_type_symbol
 _atom_site_label
 _atom_site_symmetry_multiplicity
 _atom_site_fract_x
 _atom_site_fract_y
 _atom_site_fract_z
 _atom_site_occupancy
  Sc  Sc0  1  0.99925100  0.99831700  0.00318100  1.0
  Sc  Sc1  1  0.62539600  0.62557700  0.12363000  1.0
  Sc  Sc2  1  0.24960400  0.24942300  0.25137000  1.0
  Sc  Sc3  1  0.87574900  0.87668300  0.37181900  1.0
