# generated using pymatgen
data_Sr
_symmetry_space_group_name_H-M   'P 1'
_cell_length_a   4.75354900
_cell_length_b   4.75354900
_cell_length_c   28.52129400
_cell_angle_alpha   90.00000000
_cell_angle_beta   90.00000000
_cell_angle_gamma   90.00000000
_symmetry_Int_Tables_number   1
_chemical_formula_structural   Sr
_chemical_formula_sum   Sr6
_cell_volume   644.47366480
_cell_formula_units_Z   6
loop_
 _symmetry_equiv_pos_site_id
 _symmetry_equiv_pos_as_xyz
  1  'x, y, z'
loop_
 _atom_site_type_symbol
 _atom_site_label
 _atom_site_symmetry_multiplicity
 _atom_site_fract_x
 _atom_site_fract_y
 _atom_site_fract_z
 _atom_site_occupancy
  Sr  Sr0  1  0.00000000  0.00000000  0.37654600  1.0
  Sr  Sr1  1  0.50000000  0.50000000  0.29078000  1.0
  Sr  Sr2  1  0.00000000  0.00000000  0.54224900  1.0
  Sr  Sr3  1  0.50000000  0.50000000  0.45775100  1.0
  Sr  Sr4  1  0.00000000  0.00000000  0.70922000  1.0
  Sr  Sr5  1  0.50000000  0.50000000  0.62345400  1.0
