# generated using pymatgen
data_Sr
_symmetry_space_group_name_H-M   'P 1'
_cell_length_a   4.75354900
_cell_length_b   7.88286938
_cell_length_c   27.20342715
_cell_angle_alpha   85.46722252
_cell_angle_beta   84.98765461
_cell_angle_gamma   72.45160354
_symmetry_Int_Tables_number   1
_chemical_formula_structural   Sr
_chemical_formula_sum   Sr9
_cell_volume   966.71053123
_cell_formula_units_Z   9
loop_
 _symmetry_equiv_pos_site_id
 _symmetry_equiv_pos_as_xyz
  1  'x, y, z'
loop_
 _atom_site_type_symbol
 _atom_site_label
 _atom_site_symmetry_multiplicity
 _atom_site_fract_x
 _atom_site_fract_y
 _atom_site_fract_z
 _atom_site_occupancy
  Sr  Sr0  1  0.32875200  0.01131600  0.33118000  1.0
  Sr  Sr1  1  0.06932300  0.58279400  0.27856000  1.0
  Sr  Sr2  1  0.60426400  0.39845200  0.39302000  1.0
  Sr  Sr3  1  0.16666700  0.16666600  0.50000000  1.0
  Sr  Sr4  1  0.88460300  0.78679000  0.44400400  1.0
  Sr  Sr5  1  0.44873000  0.54654400  0.55599600  1.0
  Sr  Sr6  1  0.00458200  0.32201600  0.66882000  1.0
  Sr  Sr7  1  0.72906900  0.93488200  0.60698000  1.0
  Sr  Sr8  1  0.26401000  0.75054000  0.72144000  1.0
