# generated using pymatgen
data_Sr
_symmetry_space_group_name_H-M   'P 1'
_cell_length_a   6.72253347
_cell_length_b   15.03204181
_cell_length_c   26.89013386
_cell_angle_alpha   102.92096638
_cell_angle_beta   90.00000000
_cell_angle_gamma   77.07903362
_symmetry_Int_Tables_number   1
_chemical_formula_structural   Sr
_chemical_formula_sum   Sr24
_cell_volume   2577.89466113
_cell_formula_units_Z   24
loop_
 _symmetry_equiv_pos_site_id
 _symmetry_equiv_pos_as_xyz
  1  'x, y, z'
loop_
 _atom_site_type_symbol
 _atom_site_label
 _atom_site_symmetry_multiplicity
 _atom_site_fract_x
 _atom_site_fract_y
 _atom_site_fract_z
 _atom_site_occupancy
  Sr  Sr0  1  0.82746200  0.34500400  0.28672700  1.0
  Sr  Sr1  1  0.66651800  0.66673400  0.32873800  1.0
  Sr  Sr2  1  0.00027200  0.99930600  0.48572300  1.0
  Sr  Sr3  1  0.50132800  0.99707400  0.37308700  1.0
  Sr  Sr4  1  0.33466300  0.33028300  0.40614600  1.0
  Sr  Sr5  1  0.16562400  0.66866100  0.44868700  1.0
  Sr  Sr6  1  0.74913800  0.50168900  0.42802800  1.0
  Sr  Sr7  1  0.58214900  0.83559400  0.47278900  1.0
  Sr  Sr8  1  0.92070900  0.15856600  0.37729200  1.0
  Sr  Sr9  1  0.41757500  0.16496800  0.26505300  1.0
  Sr  Sr10  1  0.24863600  0.50309900  0.30606900  1.0
  Sr  Sr11  1  0.08380700  0.83219100  0.34353400  1.0
  Sr  Sr12  1  0.83448600  0.33092100  0.52718300  1.0
  Sr  Sr13  1  0.66738000  0.66523900  0.57198100  1.0
  Sr  Sr14  1  0.99920200  0.00157200  0.73492100  1.0
  Sr  Sr15  1  0.49606900  0.00788400  0.62270000  1.0
  Sr  Sr16  1  0.33289200  0.33442700  0.65652900  1.0
  Sr  Sr17  1  0.16815400  0.66367700  0.69392000  1.0
  Sr  Sr18  1  0.74999800  0.50012900  0.67133000  1.0
  Sr  Sr19  1  0.58900600  0.82166100  0.71322300  1.0
  Sr  Sr20  1  0.91537400  0.16952000  0.62692900  1.0
  Sr  Sr21  1  0.41645800  0.16722200  0.51422300  1.0
  Sr  Sr22  1  0.25114800  0.49815600  0.55127600  1.0
  Sr  Sr23  1  0.08195000  0.83642100  0.59391000  1.0
