# generated using pymatgen
data_Sr
_symmetry_space_group_name_H-M   'P 1'
_cell_length_a   4.75354900
_cell_length_b   17.13916466
_cell_length_c   26.89013386
_cell_angle_alpha   78.69006753
_cell_angle_beta   90.00000000
_cell_angle_gamma   90.00000000
_symmetry_Int_Tables_number   1
_chemical_formula_structural   Sr
_chemical_formula_sum   Sr20
_cell_volume   2148.24554931
_cell_formula_units_Z   20
loop_
 _symmetry_equiv_pos_site_id
 _symmetry_equiv_pos_as_xyz
  1  'x, y, z'
loop_
 _atom_site_type_symbol
 _atom_site_label
 _atom_site_symmetry_multiplicity
 _atom_site_fract_x
 _atom_site_fract_y
 _atom_site_fract_z
 _atom_site_occupancy
  Sr  Sr0  1  0.00000000  0.39964600  0.43806900  1.0
  Sr  Sr1  1  0.00000000  0.19565000  0.34164100  1.0
  Sr  Sr2  1  0.00000000  0.00006700  0.48504000  1.0
  Sr  Sr3  1  0.00000000  0.78951200  0.39167700  1.0
  Sr  Sr4  1  0.00000000  0.60803200  0.29020300  1.0
  Sr  Sr5  1  0.50000000  0.40104500  0.31621300  1.0
  Sr  Sr6  1  0.50000000  0.20087700  0.46317800  1.0
  Sr  Sr7  1  0.50000000  0.98930200  0.36049400  1.0
  Sr  Sr8  1  0.50000000  0.81611100  0.26594700  1.0
  Sr  Sr9  1  0.50000000  0.59570500  0.41324800  1.0
  Sr  Sr10  1  0.00000000  0.39895500  0.68378700  1.0
  Sr  Sr11  1  0.00000000  0.20429500  0.58675200  1.0
  Sr  Sr12  1  0.00000000  0.98388900  0.73405300  1.0
  Sr  Sr13  1  0.00000000  0.81069800  0.63950600  1.0
  Sr  Sr14  1  0.00000000  0.59912300  0.53682200  1.0
  Sr  Sr15  1  0.50000000  0.40035400  0.56193100  1.0
  Sr  Sr16  1  0.50000000  0.19196800  0.70979700  1.0
  Sr  Sr17  1  0.50000000  0.01048800  0.60832300  1.0
  Sr  Sr18  1  0.50000000  0.79993300  0.51496000  1.0
  Sr  Sr19  1  0.50000000  0.60435000  0.65835900  1.0
