# generated using pymatgen
data_Sr
_symmetry_space_group_name_H-M   'P 1'
_cell_length_a   4.75354900
_cell_length_b   10.62925870
_cell_length_c   26.89013386
_cell_angle_alpha   71.56505118
_cell_angle_beta   90.00000000
_cell_angle_gamma   90.00000000
_symmetry_Int_Tables_number   1
_chemical_formula_structural   Sr
_chemical_formula_sum   Sr12
_cell_volume   1288.94732978
_cell_formula_units_Z   12
loop_
 _symmetry_equiv_pos_site_id
 _symmetry_equiv_pos_as_xyz
  1  'x, y, z'
loop_
 _atom_site_type_symbol
 _atom_site_label
 _atom_site_symmetry_multiplicity
 _atom_site_fract_x
 _atom_site_fract_y
 _atom_site_fract_z
 _atom_site_occupancy
  Sr  Sr0  1  0.00000000  0.65154800  0.40143100  1.0
  Sr  Sr1  1  0.00000000  0.34037500  0.31532600  1.0
  Sr  Sr2  1  0.00000000  0.99758000  0.47666200  1.0
  Sr  Sr3  1  0.50000000  0.68912600  0.27313700  1.0
  Sr  Sr4  1  0.50000000  0.32537100  0.43918300  1.0
  Sr  Sr5  1  0.50000000  0.98929900  0.35307200  1.0
  Sr  Sr6  1  0.00000000  0.67736800  0.64692800  1.0
  Sr  Sr7  1  0.00000000  0.34129500  0.56081700  1.0
  Sr  Sr8  1  0.00000000  0.97754100  0.72686300  1.0
  Sr  Sr9  1  0.50000000  0.66908700  0.52333800  1.0
  Sr  Sr10  1  0.50000000  0.32629100  0.68467400  1.0
  Sr  Sr11  1  0.50000000  0.01511900  0.59856900  1.0
