# generated using pymatgen
data_Sr
_symmetry_space_group_name_H-M   'P 1'
_cell_length_a   4.11923973
_cell_length_b   6.72516532
_cell_length_c   31.06558390
_cell_angle_alpha   90.00000000
_cell_angle_beta   92.60749104
_cell_angle_gamma   90.00000000
_symmetry_Int_Tables_number   1
_chemical_formula_structural   Sr
_chemical_formula_sum   Sr8
_cell_volume   859.70542049
_cell_formula_units_Z   8
loop_
 _symmetry_equiv_pos_site_id
 _symmetry_equiv_pos_as_xyz
  1  'x, y, z'
loop_
 _atom_site_type_symbol
 _atom_site_label
 _atom_site_symmetry_multiplicity
 _atom_site_fract_x
 _atom_site_fract_y
 _atom_site_fract_z
 _atom_site_occupancy
  Sr  Sr0  1  0.60263100  0.00000000  0.53359100  1.0
  Sr  Sr1  1  0.60936000  0.50000000  0.71439800  1.0
  Sr  Sr2  1  0.02675000  0.00000000  0.65747200  1.0
  Sr  Sr3  1  0.26593400  0.50000000  0.59141400  1.0
  Sr  Sr4  1  0.89064000  0.00000000  0.28560200  1.0
  Sr  Sr5  1  0.89736900  0.50000000  0.46640900  1.0
  Sr  Sr6  1  0.23406600  0.00000000  0.40858600  1.0
  Sr  Sr7  1  0.47325000  0.50000000  0.34252800  1.0
