# generated using pymatgen
data_Sr
_symmetry_space_group_name_H-M   'P 1'
_cell_length_a   6.72253347
_cell_length_b   7.88286938
_cell_length_c   32.50190162
_cell_angle_alpha   86.20734553
_cell_angle_beta   90.00000000
_cell_angle_gamma   90.00000000
_symmetry_Int_Tables_number   1
_chemical_formula_structural   Sr
_chemical_formula_sum   Sr16
_cell_volume   1718.59644110
_cell_formula_units_Z   16
loop_
 _symmetry_equiv_pos_site_id
 _symmetry_equiv_pos_as_xyz
  1  'x, y, z'
loop_
 _atom_site_type_symbol
 _atom_site_label
 _atom_site_symmetry_multiplicity
 _atom_site_fract_x
 _atom_site_fract_y
 _atom_site_fract_z
 _atom_site_occupancy
  Sr  Sr0  1  0.50000000  0.49422300  0.73008900  1.0
  Sr  Sr1  1  0.50000000  0.06496700  0.66221000  1.0
  Sr  Sr2  1  0.00000000  0.82270900  0.70467900  1.0
  Sr  Sr3  1  0.00000000  0.36191400  0.64879400  1.0
  Sr  Sr4  1  0.00000000  0.93008000  0.58108700  1.0
  Sr  Sr5  1  0.00000000  0.48812200  0.51916100  1.0
  Sr  Sr6  1  0.50000000  0.62625300  0.60748600  1.0
  Sr  Sr7  1  0.50000000  0.20089600  0.54162700  1.0
  Sr  Sr8  1  0.50000000  0.76187800  0.48083900  1.0
  Sr  Sr9  1  0.50000000  0.31992000  0.41891300  1.0
  Sr  Sr10  1  0.00000000  0.04910400  0.45837300  1.0
  Sr  Sr11  1  0.00000000  0.62374700  0.39251400  1.0
  Sr  Sr12  1  0.00000000  0.18503300  0.33779000  1.0
  Sr  Sr13  1  0.00000000  0.75577700  0.26991100  1.0
  Sr  Sr14  1  0.50000000  0.88808600  0.35120600  1.0
  Sr  Sr15  1  0.50000000  0.42729100  0.29532100  1.0
