# generated using pymatgen
data_Sr
_symmetry_space_group_name_H-M   'P 1'
_cell_length_a   6.72253347
_cell_length_b   14.26064700
_cell_length_c   21.78349811
_cell_angle_alpha   73.08472990
_cell_angle_beta   81.12360492
_cell_angle_gamma   76.36697777
_symmetry_Int_Tables_number   1
_chemical_formula_structural   Sr
_chemical_formula_sum   Sr18
_cell_volume   1933.42099553
_cell_formula_units_Z   18
loop_
 _symmetry_equiv_pos_site_id
 _symmetry_equiv_pos_as_xyz
  1  'x, y, z'
loop_
 _atom_site_type_symbol
 _atom_site_label
 _atom_site_symmetry_multiplicity
 _atom_site_fract_x
 _atom_site_fract_y
 _atom_site_fract_z
 _atom_site_occupancy
  Sr  Sr0  1  0.59184200  0.41465100  0.40166600  1.0
  Sr  Sr1  1  0.31671800  0.00429000  0.36227300  1.0
  Sr  Sr2  1  0.04370300  0.61649000  0.29610500  1.0
  Sr  Sr3  1  0.89869200  0.93571000  0.26690700  1.0
  Sr  Sr4  1  0.45484700  0.71513900  0.37516700  1.0
  Sr  Sr5  1  0.18618300  0.30570800  0.32192500  1.0
  Sr  Sr6  1  0.43371000  0.55718100  0.57539900  1.0
  Sr  Sr7  1  0.15465100  0.17760000  0.51309800  1.0
  Sr  Sr8  1  0.87315200  0.80105100  0.45264500  1.0
  Sr  Sr9  1  0.73295700  0.10948500  0.42460100  1.0
  Sr  Sr10  1  0.29351500  0.86561600  0.54735500  1.0
  Sr  Sr11  1  0.01201600  0.48906700  0.48690200  1.0
  Sr  Sr12  1  0.26797500  0.73095700  0.73309300  1.0
  Sr  Sr13  1  0.98048400  0.36095800  0.67807500  1.0
  Sr  Sr14  1  0.71181900  0.95152700  0.62483300  1.0
  Sr  Sr15  1  0.57482400  0.25201600  0.59833400  1.0
  Sr  Sr16  1  0.12296400  0.05017700  0.70389500  1.0
  Sr  Sr17  1  0.84994800  0.66237700  0.63772700  1.0
