# generated using pymatgen
data_Sr
_symmetry_space_group_name_H-M   'P 1'
_cell_length_a   6.72253347
_cell_length_b   11.64376952
_cell_length_c   26.03626016
_cell_angle_alpha   85.72546058
_cell_angle_beta   82.58244421
_cell_angle_gamma   73.22134512
_symmetry_Int_Tables_number   1
_chemical_formula_structural   Sr
_chemical_formula_sum   Sr18
_cell_volume   1933.42099660
_cell_formula_units_Z   18
loop_
 _symmetry_equiv_pos_site_id
 _symmetry_equiv_pos_as_xyz
  1  'x, y, z'
loop_
 _atom_site_type_symbol
 _atom_site_label
 _atom_site_symmetry_multiplicity
 _atom_site_fract_x
 _atom_site_fract_y
 _atom_site_fract_z
 _atom_site_occupancy
  Sr  Sr0  1  0.58917100  0.41172800  0.40992900  1.0
  Sr  Sr1  1  0.38447300  0.93816400  0.29288900  1.0
  Sr  Sr2  1  0.98003000  0.69240100  0.34754000  1.0
  Sr  Sr3  1  0.78234300  0.06271100  0.37260400  1.0
  Sr  Sr4  1  0.58825800  0.55640000  0.26708300  1.0
  Sr  Sr5  1  0.17694600  0.32438400  0.32172400  1.0
  Sr  Sr6  1  0.43304100  0.56534000  0.56857800  1.0
  Sr  Sr7  1  0.20643000  0.12960400  0.45753400  1.0
  Sr  Sr8  1  0.82056900  0.84676500  0.51209600  1.0
  Sr  Sr9  1  0.62690300  0.20372900  0.54246600  1.0
  Sr  Sr10  1  0.40029300  0.76799300  0.43142200  1.0
  Sr  Sr11  1  0.01276400  0.48656800  0.48790400  1.0
  Sr  Sr12  1  0.24507500  0.77693300  0.73291700  1.0
  Sr  Sr13  1  0.05099100  0.27062300  0.62739600  1.0
  Sr  Sr14  1  0.65638800  0.00894900  0.67827600  1.0
  Sr  Sr15  1  0.44886000  0.39516900  0.70711100  1.0
  Sr  Sr16  1  0.24416200  0.92160600  0.59007100  1.0
  Sr  Sr17  1  0.85330300  0.64093300  0.65246000  1.0
