# generated using pymatgen
data_Sr
_symmetry_space_group_name_H-M   'P 1'
_cell_length_a   4.11669390
_cell_length_b   10.36011905
_cell_length_c   25.48806617
_cell_angle_alpha   86.32026483
_cell_angle_beta   86.91381037
_cell_angle_gamma   82.38863324
_symmetry_Int_Tables_number   1
_chemical_formula_structural   Sr
_chemical_formula_sum   Sr10
_cell_volume   1074.12261496
_cell_formula_units_Z   10
loop_
 _symmetry_equiv_pos_site_id
 _symmetry_equiv_pos_as_xyz
  1  'x, y, z'
loop_
 _atom_site_type_symbol
 _atom_site_label
 _atom_site_symmetry_multiplicity
 _atom_site_fract_x
 _atom_site_fract_y
 _atom_site_fract_z
 _atom_site_occupancy
  Sr  Sr0  1  0.99470200  0.47726600  0.52473500  1.0
  Sr  Sr1  1  0.84956300  0.87905900  0.71962200  1.0
  Sr  Sr2  1  0.59225300  0.52682100  0.67358400  1.0
  Sr  Sr3  1  0.34316900  0.17531200  0.62312300  1.0
  Sr  Sr4  1  0.20759000  0.82318800  0.57443900  1.0
  Sr  Sr5  1  0.95053900  0.72094400  0.28042300  1.0
  Sr  Sr6  1  0.80541300  0.12272800  0.47523600  1.0
  Sr  Sr7  1  0.59199600  0.77682700  0.42555900  1.0
  Sr  Sr8  1  0.45672300  0.42463900  0.37689000  1.0
  Sr  Sr9  1  0.20805100  0.07321700  0.32639000  1.0
