# generated using pymatgen
data_Dy
_symmetry_space_group_name_H-M   'P 1'
_cell_length_a   3.57378783
_cell_length_b   25.67470700
_cell_length_c   28.59030488
_cell_angle_alpha   90.00000000
_cell_angle_beta   119.99999713
_cell_angle_gamma   90.00000000
_symmetry_Int_Tables_number   1
_chemical_formula_structural   Dy
_chemical_formula_sum   Dy36
_cell_volume   2271.87112897
_cell_formula_units_Z   36
loop_
 _symmetry_equiv_pos_site_id
 _symmetry_equiv_pos_as_xyz
  1  'x, y, z'
loop_
 _atom_site_type_symbol
 _atom_site_label
 _atom_site_symmetry_multiplicity
 _atom_site_fract_x
 _atom_site_fract_y
 _atom_site_fract_z
 _atom_site_occupancy
  Dy  Dy0  1  0.03237200  0.99674300  0.00809300  1.0
  Dy  Dy1  1  0.69393100  0.88784100  0.04848300  1.0
  Dy  Dy2  1  0.33556100  0.11264500  0.08389000  1.0
  Dy  Dy3  1  0.35238900  0.33370300  0.08809700  1.0
  Dy  Dy4  1  0.02653800  0.22635500  0.00663400  1.0
  Dy  Dy5  1  0.67412700  0.44561000  0.04353200  1.0
  Dy  Dy6  1  0.66977700  0.66708500  0.04244400  1.0
  Dy  Dy7  1  0.35368100  0.55440300  0.08842000  1.0
  Dy  Dy8  1  0.01636100  0.77915500  0.00409000  1.0
  Dy  Dy9  1  0.99639700  0.99976000  0.12409900  1.0
  Dy  Dy10  1  0.66839100  0.88808400  0.16709800  1.0
  Dy  Dy11  1  0.33354800  0.11140400  0.20838700  1.0
  Dy  Dy12  1  0.33535800  0.33382400  0.20883900  1.0
  Dy  Dy13  1  0.99582100  0.22216700  0.12395500  1.0
  Dy  Dy14  1  0.65222900  0.44416000  0.16305700  1.0
  Dy  Dy15  1  0.65841500  0.66543800  0.16460400  1.0
  Dy  Dy16  1  0.33357900  0.55597700  0.20839500  1.0
  Dy  Dy17  1  0.99443000  0.77720500  0.12360800  1.0
  Dy  Dy18  1  0.99797500  0.99950900  0.24949400  1.0
  Dy  Dy19  1  0.68110500  0.88917300  0.29527700  1.0
  Dy  Dy20  1  0.33751200  0.11116700  0.33437800  1.0
  Dy  Dy21  1  0.33693600  0.33357300  0.33423400  1.0
  Dy  Dy22  1  0.99978500  0.22193000  0.24994600  1.0
  Dy  Dy23  1  0.66494300  0.44524900  0.29123600  1.0
  Dy  Dy24  1  0.67491900  0.66789600  0.29373000  1.0
  Dy  Dy25  1  0.33890300  0.55612800  0.33472500  1.0
  Dy  Dy26  1  0.99975400  0.77735600  0.24993800  1.0
  Dy  Dy27  1  0.98094400  0.99963000  0.37023600  1.0
  Dy  Dy28  1  0.65920700  0.88772300  0.41480200  1.0
  Dy  Dy29  1  0.30679500  0.10697900  0.45169900  1.0
  Dy  Dy30  1  0.30096100  0.33659000  0.45024000  1.0
  Dy  Dy31  1  0.99777200  0.22068900  0.37444300  1.0
  Dy  Dy32  1  0.63940300  0.44549200  0.40985100  1.0
  Dy  Dy33  1  0.66355700  0.66624900  0.41589000  1.0
  Dy  Dy34  1  0.31697200  0.55417800  0.45424300  1.0
  Dy  Dy35  1  0.97965200  0.77893000  0.36991300  1.0
