# generated using pymatgen
data_Dy
_symmetry_space_group_name_H-M   'P 1'
_cell_length_a   8.80702177
_cell_length_b   9.45722692
_cell_length_c   21.44245600
_cell_angle_alpha   100.89106938
_cell_angle_beta   90.00000000
_cell_angle_gamma   103.30135662
_symmetry_Int_Tables_number   1
_chemical_formula_structural   Dy
_chemical_formula_sum   Dy27
_cell_volume   1704.95973199
_cell_formula_units_Z   27
loop_
 _symmetry_equiv_pos_site_id
 _symmetry_equiv_pos_as_xyz
  1  'x, y, z'
loop_
 _atom_site_type_symbol
 _atom_site_label
 _atom_site_symmetry_multiplicity
 _atom_site_fract_x
 _atom_site_fract_y
 _atom_site_fract_z
 _atom_site_occupancy
  Dy  Dy0  1  0.00025400  0.00210200  0.14512500  1.0
  Dy  Dy1  1  0.00511500  0.68391600  0.03517600  1.0
  Dy  Dy2  1  0.99580500  0.32754000  0.08053500  1.0
  Dy  Dy3  1  0.66719200  0.49456800  0.09626700  1.0
  Dy  Dy4  1  0.66473500  0.15530100  0.15725100  1.0
  Dy  Dy5  1  0.66510600  0.84427500  0.04653000  1.0
  Dy  Dy6  1  0.33749300  0.17364500  0.06919400  1.0
  Dy  Dy7  1  0.33470100  0.85257400  0.13008600  1.0
  Dy  Dy8  1  0.34338900  0.52971800  0.02217200  1.0
  Dy  Dy9  1  0.00106600  0.00393400  0.30920700  1.0
  Dy  Dy10  1  0.99893400  0.66273300  0.19079300  1.0
  Dy  Dy11  1  0.00000000  0.33333333  0.25000000  1.0
  Dy  Dy12  1  0.66686500  0.48344100  0.26147400  1.0
  Dy  Dy13  1  0.66728900  0.15819300  0.32188900  1.0
  Dy  Dy14  1  0.66548900  0.81792200  0.20587800  1.0
  Dy  Dy15  1  0.33313500  0.18322600  0.23852600  1.0
  Dy  Dy16  1  0.33451100  0.84874400  0.29412200  1.0
  Dy  Dy17  1  0.33271100  0.50847400  0.17811100  1.0
  Dy  Dy18  1  0.99488500  0.98275100  0.46482400  1.0
  Dy  Dy19  1  0.99974600  0.66456500  0.35487500  1.0
  Dy  Dy20  1  0.00419500  0.33912600  0.41946500  1.0
  Dy  Dy21  1  0.66250700  0.49302200  0.43080700  1.0
  Dy  Dy22  1  0.65661100  0.13694900  0.47782800  1.0
  Dy  Dy23  1  0.66529900  0.81409200  0.36991400  1.0
  Dy  Dy24  1  0.33280800  0.17209900  0.40373300  1.0
  Dy  Dy25  1  0.33489400  0.82239100  0.45347000  1.0
  Dy  Dy26  1  0.33526500  0.51136600  0.34274900  1.0
