# generated using pymatgen
data_Dy
_symmetry_space_group_name_H-M   'P 1'
_cell_length_a   3.57439946
_cell_length_b   26.66080442
_cell_length_c   24.76334020
_cell_angle_alpha   103.42302892
_cell_angle_beta   90.00450481
_cell_angle_gamma   82.28470641
_symmetry_Int_Tables_number   1
_chemical_formula_structural   Dy
_chemical_formula_sum   Dy36
_cell_volume   2273.42876900
_cell_formula_units_Z   36
loop_
 _symmetry_equiv_pos_site_id
 _symmetry_equiv_pos_as_xyz
  1  'x, y, z'
loop_
 _atom_site_type_symbol
 _atom_site_label
 _atom_site_symmetry_multiplicity
 _atom_site_fract_x
 _atom_site_fract_y
 _atom_site_fract_z
 _atom_site_occupancy
  Dy  Dy0  1  0.00090100  0.99904200  0.22607400  1.0
  Dy  Dy1  1  0.50175500  0.99823500  0.10531900  1.0
  Dy  Dy2  1  0.61106300  0.88918400  0.24434800  1.0
  Dy  Dy3  1  0.11270800  0.88737400  0.12461100  1.0
  Dy  Dy4  1  0.88717000  0.11261200  0.09411700  1.0
  Dy  Dy5  1  0.38973100  0.11012300  0.21428800  1.0
  Dy  Dy6  1  0.66730600  0.33289900  0.14469600  1.0
  Dy  Dy7  1  0.16452800  0.33546500  0.02439900  1.0
  Dy  Dy8  1  0.77387200  0.22600000  0.03958300  1.0
  Dy  Dy9  1  0.27889900  0.22112900  0.15902900  1.0
  Dy  Dy10  1  0.05470500  0.44530900  0.13037900  1.0
  Dy  Dy11  1  0.55235300  0.44763400  0.01171800  1.0
  Dy  Dy12  1  0.83411500  0.66584500  0.18513200  1.0
  Dy  Dy13  1  0.33278700  0.66722100  0.06307200  1.0
  Dy  Dy14  1  0.44368600  0.55635000  0.20260700  1.0
  Dy  Dy15  1  0.94459200  0.55529100  0.08275800  1.0
  Dy  Dy16  1  0.22244600  0.77742700  0.17172400  1.0
  Dy  Dy17  1  0.72042100  0.77945500  0.05294500  1.0
  Dy  Dy18  1  0.00215200  0.99786600  0.47557500  1.0
  Dy  Dy19  1  0.49940600  0.00039800  0.35534200  1.0
  Dy  Dy20  1  0.61429700  0.88571900  0.48829400  1.0
  Dy  Dy21  1  0.11196700  0.88801500  0.36959600  1.0
  Dy  Dy22  1  0.88783000  0.11213900  0.34098400  1.0
  Dy  Dy23  1  0.39274300  0.10737500  0.46046900  1.0
  Dy  Dy24  1  0.66470600  0.33529300  0.39475400  1.0
  Dy  Dy25  1  0.16576800  0.33428200  0.27394300  1.0
  Dy  Dy26  1  0.77687600  0.22324700  0.28577400  1.0
  Dy  Dy27  1  0.27966200  0.22057300  0.40572300  1.0
  Dy  Dy28  1  0.05397000  0.44595000  0.37533800  1.0
  Dy  Dy29  1  0.55562800  0.44414000  0.25562000  1.0
  Dy  Dy30  1  0.83388900  0.66610600  0.43691400  1.0
  Dy  Dy31  1  0.33254400  0.66748800  0.31487700  1.0
  Dy  Dy32  1  0.44626700  0.55386300  0.44705400  1.0
  Dy  Dy33  1  0.94423200  0.55590900  0.32828100  1.0
  Dy  Dy34  1  0.22205600  0.77805100  0.41724800  1.0
  Dy  Dy35  1  0.72297100  0.77699300  0.29740000  1.0
