# generated using pymatgen
data_Dy
_symmetry_space_group_name_H-M   'P 1'
_cell_length_a   3.57378920
_cell_length_b   3.57378920
_cell_length_c   51.34940800
_cell_angle_alpha   90.00000000
_cell_angle_beta   90.00000000
_cell_angle_gamma   119.99998513
_symmetry_Int_Tables_number   1
_chemical_formula_structural   Dy
_chemical_formula_sum   Dy9
_cell_volume   567.96817551
_cell_formula_units_Z   9
loop_
 _symmetry_equiv_pos_site_id
 _symmetry_equiv_pos_as_xyz
  1  'x, y, z'
loop_
 _atom_site_type_symbol
 _atom_site_label
 _atom_site_symmetry_multiplicity
 _atom_site_fract_x
 _atom_site_fract_y
 _atom_site_fract_z
 _atom_site_occupancy
  Dy  Dy0  1  0.00000000  0.00000000  0.41762100  1.0
  Dy  Dy1  1  0.33333333  0.66666667  0.36108400  1.0
  Dy  Dy2  1  0.66666667  0.33333333  0.47106300  1.0
  Dy  Dy3  1  0.66666667  0.33333333  0.08237800  1.0
  Dy  Dy4  1  0.00000000  0.00000000  0.02893700  1.0
  Dy  Dy5  1  0.33333333  0.66666667  0.13891500  1.0
  Dy  Dy6  1  0.33333333  0.66666667  0.25000000  1.0
  Dy  Dy7  1  0.66666667  0.33333333  0.19428200  1.0
  Dy  Dy8  1  0.00000000  0.00000000  0.30571800  1.0
