# generated using pymatgen
data_Dy
_symmetry_space_group_name_H-M   'P 1'
_cell_length_a   6.19045946
_cell_length_b   25.93215432
_cell_length_c   21.44059617
_cell_angle_alpha   97.92052169
_cell_angle_beta   89.99999687
_cell_angle_gamma   90.00112208
_symmetry_Int_Tables_number   1
_chemical_formula_structural   Dy
_chemical_formula_sum   Dy54
_cell_volume   3409.06556820
_cell_formula_units_Z   54
loop_
 _symmetry_equiv_pos_site_id
 _symmetry_equiv_pos_as_xyz
  1  'x, y, z'
loop_
 _atom_site_type_symbol
 _atom_site_label
 _atom_site_symmetry_multiplicity
 _atom_site_fract_x
 _atom_site_fract_y
 _atom_site_fract_z
 _atom_site_occupancy
  Dy  Dy0  1  0.00728400  0.99976900  0.15561000  1.0
  Dy  Dy1  1  0.50766800  0.99966400  0.07267600  1.0
  Dy  Dy2  1  0.34625400  0.12078100  0.01099000  1.0
  Dy  Dy3  1  0.83491600  0.11174700  0.09003800  1.0
  Dy  Dy4  1  0.13820700  0.88511100  0.05164600  1.0
  Dy  Dy5  1  0.65567500  0.88940800  0.13663700  1.0
  Dy  Dy6  1  0.15753800  0.67842800  0.02280900  1.0
  Dy  Dy7  1  0.65650900  0.66679600  0.09942700  1.0
  Dy  Dy8  1  0.00229000  0.77973400  0.12163300  1.0
  Dy  Dy9  1  0.53080200  0.78131700  0.03672500  1.0
  Dy  Dy10  1  0.30788400  0.55405900  0.07776100  1.0
  Dy  Dy11  1  0.82460400  0.55532000  0.16251000  1.0
  Dy  Dy12  1  0.33423800  0.33202300  0.04599700  1.0
  Dy  Dy13  1  0.83359700  0.33336800  0.12878700  1.0
  Dy  Dy14  1  0.18317500  0.44412500  0.14471900  1.0
  Dy  Dy15  1  0.70081200  0.44497800  0.06178200  1.0
  Dy  Dy16  1  0.96404500  0.22308300  0.02657100  1.0
  Dy  Dy17  1  0.48816200  0.22329300  0.11122600  1.0
  Dy  Dy18  1  0.00230100  0.00071300  0.32149500  1.0
  Dy  Dy19  1  0.50260100  0.00032000  0.23518500  1.0
  Dy  Dy20  1  0.33992400  0.11123500  0.17027600  1.0
  Dy  Dy21  1  0.84011500  0.11148200  0.25701000  1.0
  Dy  Dy22  1  0.16249700  0.88885400  0.21525700  1.0
  Dy  Dy23  1  0.66709700  0.88922500  0.30177200  1.0
  Dy  Dy24  1  0.16434700  0.66595400  0.17849500  1.0
  Dy  Dy25  1  0.66401400  0.66634600  0.26480700  1.0
  Dy  Dy26  1  0.00424100  0.77780700  0.28473000  1.0
  Dy  Dy27  1  0.49963900  0.77744000  0.19821000  1.0
  Dy  Dy28  1  0.32649400  0.55517900  0.24299900  1.0
  Dy  Dy29  1  0.82670800  0.55542000  0.32973800  1.0
  Dy  Dy30  1  0.33211300  0.33339500  0.20694100  1.0
  Dy  Dy31  1  0.83454700  0.33327200  0.29306100  1.0
  Dy  Dy32  1  0.17570000  0.44539500  0.31107600  1.0
  Dy  Dy33  1  0.67741000  0.44487700  0.22432700  1.0
  Dy  Dy34  1  0.99092800  0.22127000  0.18893100  1.0
  Dy  Dy35  1  0.48925000  0.22178800  0.27567400  1.0
  Dy  Dy36  1  0.00919400  0.98825200  0.47716500  1.0
  Dy  Dy37  1  0.51022000  0.99987200  0.40055200  1.0
  Dy  Dy38  1  0.34200900  0.11135300  0.33750000  1.0
  Dy  Dy39  1  0.85870800  0.11261900  0.42224100  1.0
  Dy  Dy40  1  0.16444300  0.88693400  0.37835200  1.0
  Dy  Dy41  1  0.63588700  0.88535900  0.46326800  1.0
  Dy  Dy42  1  0.15933100  0.66689400  0.34438500  1.0
  Dy  Dy43  1  0.65893100  0.66699900  0.42732100  1.0
  Dy  Dy44  1  0.02854700  0.78154400  0.44834500  1.0
  Dy  Dy45  1  0.51106300  0.77726600  0.36335200  1.0
  Dy  Dy46  1  0.33170700  0.55491700  0.40998300  1.0
  Dy  Dy47  1  0.82029200  0.54585900  0.48902400  1.0
  Dy  Dy48  1  0.33308900  0.33333333  0.37122100  1.0
  Dy  Dy49  1  0.83242900  0.33465300  0.45401700  1.0
  Dy  Dy50  1  0.20264200  0.44358200  0.47345100  1.0
  Dy  Dy51  1  0.67848600  0.44336500  0.38877100  1.0
  Dy  Dy52  1  0.98350700  0.22254600  0.35529200  1.0
  Dy  Dy53  1  0.46592800  0.22170500  0.43822900  1.0
