# generated using pymatgen
data_Dy
_symmetry_space_group_name_H-M   'P 1'
_cell_length_a   9.45601923
_cell_length_b   25.92947053
_cell_length_c   21.43872600
_cell_angle_alpha   93.95085246
_cell_angle_beta   79.10944163
_cell_angle_gamma   84.01767238
_symmetry_Int_Tables_number   1
_chemical_formula_structural   Dy
_chemical_formula_sum   Dy81
_cell_volume   5112.60467488
_cell_formula_units_Z   81
loop_
 _symmetry_equiv_pos_site_id
 _symmetry_equiv_pos_as_xyz
  1  'x, y, z'
loop_
 _atom_site_type_symbol
 _atom_site_label
 _atom_site_symmetry_multiplicity
 _atom_site_fract_x
 _atom_site_fract_y
 _atom_site_fract_z
 _atom_site_occupancy
  Dy  Dy0  1  0.00595400  0.99748400  0.16625900  1.0
  Dy  Dy1  1  0.34597100  0.99490900  0.05658800  1.0
  Dy  Dy2  1  0.66402900  0.99991300  0.11079100  1.0
  Dy  Dy3  1  0.68903200  0.89383200  0.00309300  1.0
  Dy  Dy4  1  0.13075800  0.88748700  0.06083800  1.0
  Dy  Dy5  1  0.46670000  0.89014400  0.12813200  1.0
  Dy  Dy6  1  0.86023700  0.11140900  0.10028600  1.0
  Dy  Dy7  1  0.19118100  0.11097300  0.15611500  1.0
  Dy  Dy8  1  0.53191400  0.11345400  0.04954400  1.0
  Dy  Dy9  1  0.76911500  0.33524600  0.13538300  1.0
  Dy  Dy10  1  0.08655500  0.33851700  0.02549300  1.0
  Dy  Dy11  1  0.44700600  0.33006500  0.06816600  1.0
  Dy  Dy12  1  0.86897500  0.23204500  0.02712400  1.0
  Dy  Dy13  1  0.23846800  0.22115100  0.07557300  1.0
  Dy  Dy14  1  0.58362400  0.22158900  0.13798700  1.0
  Dy  Dy15  1  0.96097600  0.44578300  0.12596000  1.0
  Dy  Dy16  1  0.28507800  0.44755100  0.01611700  1.0
  Dy  Dy17  1  0.64218200  0.44502500  0.06335500  1.0
  Dy  Dy18  1  0.89118200  0.66644600  0.15171200  1.0
  Dy  Dy19  1  0.20749400  0.66870400  0.04090700  1.0
  Dy  Dy20  1  0.56273000  0.66610400  0.08738800  1.0
  Dy  Dy21  1  0.69742300  0.55515500  0.15698500  1.0
  Dy  Dy22  1  0.00992300  0.55512100  0.04683400  1.0
  Dy  Dy23  1  0.36018400  0.55528200  0.09436300  1.0
  Dy  Dy24  1  0.74684200  0.77856000  0.08239200  1.0
  Dy  Dy25  1  0.07949300  0.77883900  0.14048700  1.0
  Dy  Dy26  1  0.42160100  0.78600900  0.03446400  1.0
  Dy  Dy27  1  0.99675400  0.00169600  0.33246500  1.0
  Dy  Dy28  1  0.33397700  0.00159200  0.21882400  1.0
  Dy  Dy29  1  0.67341900  0.99855200  0.27358600  1.0
  Dy  Dy30  1  0.80984800  0.88798200  0.16662400  1.0
  Dy  Dy31  1  0.14043200  0.88789800  0.22499200  1.0
  Dy  Dy32  1  0.47994900  0.88818100  0.28415300  1.0
  Dy  Dy33  1  0.85780700  0.11135500  0.26827200  1.0
  Dy  Dy34  1  0.19087800  0.11233500  0.32650800  1.0
  Dy  Dy35  1  0.52653400  0.11066600  0.21006800  1.0
  Dy  Dy36  1  0.77153700  0.33430900  0.29774000  1.0
  Dy  Dy37  1  0.11348700  0.33232400  0.17877100  1.0
  Dy  Dy38  1  0.44026600  0.33333333  0.23790100  1.0
  Dy  Dy39  1  0.91825800  0.22154800  0.18567600  1.0
  Dy  Dy40  1  0.25307500  0.22098700  0.24180700  1.0
  Dy  Dy41  1  0.58374700  0.22424400  0.30149400  1.0
  Dy  Dy42  1  0.96513000  0.44498000  0.28855200  1.0
  Dy  Dy43  1  0.30524500  0.44360200  0.17179100  1.0
  Dy  Dy44  1  0.63003200  0.44499500  0.23333900  1.0
  Dy  Dy45  1  0.88612200  0.66771200  0.31581200  1.0
  Dy  Dy46  1  0.22960300  0.66552600  0.19618500  1.0
  Dy  Dy47  1  0.56094400  0.66666667  0.25593800  1.0
  Dy  Dy48  1  0.69503800  0.55620100  0.32239800  1.0
  Dy  Dy49  1  0.03536000  0.55532500  0.20596500  1.0
  Dy  Dy50  1  0.37049900  0.55528300  0.26100600  1.0
  Dy  Dy51  1  0.74777700  0.77926800  0.25234300  1.0
  Dy  Dy52  1  0.07970600  0.77644400  0.30744100  1.0
  Dy  Dy53  1  0.41660000  0.77622000  0.19281300  1.0
  Dy  Dy54  1  0.03794200  0.99592900  0.48536800  1.0
  Dy  Dy55  1  0.34070500  0.99918800  0.37700000  1.0
  Dy  Dy56  1  0.66083200  0.00519200  0.43906900  1.0
  Dy  Dy57  1  0.80822200  0.88992200  0.34124800  1.0
  Dy  Dy58  1  0.14921900  0.88555400  0.38584800  1.0
  Dy  Dy59  1  0.44562600  0.88999800  0.44919700  1.0
  Dy  Dy60  1  0.87300800  0.11163100  0.43646100  1.0
  Dy  Dy61  1  0.24814000  0.10086800  0.48491200  1.0
  Dy  Dy62  1  0.52837600  0.11211600  0.37132000  1.0
  Dy  Dy63  1  0.79266000  0.33086700  0.45307600  1.0
  Dy  Dy64  1  0.10984700  0.33374700  0.34218500  1.0
  Dy  Dy65  1  0.43820500  0.33439900  0.40655100  1.0
  Dy  Dy66  1  0.92188900  0.22058900  0.35370000  1.0
  Dy  Dy67  1  0.25211400  0.22234000  0.41067900  1.0
  Dy  Dy68  1  0.58208000  0.21774600  0.45987600  1.0
  Dy  Dy69  1  0.99314100  0.44421100  0.44758100  1.0
  Dy  Dy70  1  0.30352400  0.44515000  0.33721400  1.0
  Dy  Dy71  1  0.64170400  0.44447000  0.39981900  1.0
  Dy  Dy72  1  0.91336900  0.66332500  0.46900700  1.0
  Dy  Dy73  1  0.23142300  0.66531900  0.35945300  1.0
  Dy  Dy74  1  0.55528300  0.66942400  0.42637900  1.0
  Dy  Dy75  1  0.71780100  0.55241100  0.47742300  1.0
  Dy  Dy76  1  0.03976900  0.55471100  0.36888400  1.0
  Dy  Dy77  1  0.35920800  0.55465900  0.43083500  1.0
  Dy  Dy78  1  0.75705800  0.77896600  0.41954600  1.0
  Dy  Dy79  1  0.12304000  0.77358900  0.46701000  1.0
  Dy  Dy80  1  0.41916600  0.77767300  0.35630100  1.0
