# generated using pymatgen
data_Dy
_symmetry_space_group_name_H-M   'P 1'
_cell_length_a   3.57409160
_cell_length_b   51.50798927
_cell_length_c   24.76571679
_cell_angle_alpha   93.45571145
_cell_angle_beta   89.99999533
_cell_angle_gamma   88.01175049
_symmetry_Int_Tables_number   1
_chemical_formula_structural   Dy
_chemical_formula_sum   Dy72
_cell_volume   4548.18668313
_cell_formula_units_Z   72
loop_
 _symmetry_equiv_pos_site_id
 _symmetry_equiv_pos_as_xyz
  1  'x, y, z'
loop_
 _atom_site_type_symbol
 _atom_site_label
 _atom_site_symmetry_multiplicity
 _atom_site_fract_x
 _atom_site_fract_y
 _atom_site_fract_z
 _atom_site_occupancy
  Dy  Dy0  1  0.99968100  0.00063900  0.24010400  1.0
  Dy  Dy1  1  0.74987800  0.50024500  0.05318200  1.0
  Dy  Dy2  1  0.50033100  0.99933900  0.12126800  1.0
  Dy  Dy3  1  0.25034300  0.49931500  0.17538700  1.0
  Dy  Dy4  1  0.27802900  0.44394300  0.09277500  1.0
  Dy  Dy5  1  0.02782900  0.94434300  0.14821700  1.0
  Dy  Dy6  1  0.77771600  0.44456800  0.21265000  1.0
  Dy  Dy7  1  0.52654900  0.94690300  0.03114300  1.0
  Dy  Dy8  1  0.97202700  0.05594500  0.08051800  1.0
  Dy  Dy9  1  0.72236900  0.55526100  0.14099500  1.0
  Dy  Dy10  1  0.47225600  0.05548700  0.20275100  1.0
  Dy  Dy11  1  0.22191300  0.55617500  0.02174800  1.0
  Dy  Dy12  1  0.91670100  0.16659900  0.10029200  1.0
  Dy  Dy13  1  0.66691900  0.66616300  0.15518400  1.0
  Dy  Dy14  1  0.41649700  0.16700700  0.22042800  1.0
  Dy  Dy15  1  0.16750800  0.66498500  0.03856200  1.0
  Dy  Dy16  1  0.94268100  0.11463600  0.01124800  1.0
  Dy  Dy17  1  0.69470300  0.61059200  0.07243500  1.0
  Dy  Dy18  1  0.44494100  0.11011600  0.12695100  1.0
  Dy  Dy19  1  0.19465400  0.61069100  0.19099400  1.0
  Dy  Dy20  1  0.38889800  0.22220500  0.06125300  1.0
  Dy  Dy21  1  0.13875700  0.72248700  0.12226700  1.0
  Dy  Dy22  1  0.88897200  0.22205700  0.18066900  1.0
  Dy  Dy23  1  0.63898700  0.72202600  0.24618700  1.0
  Dy  Dy24  1  0.33314900  0.33370100  0.07382400  1.0
  Dy  Dy25  1  0.08321300  0.83357400  0.13566100  1.0
  Dy  Dy26  1  0.83359600  0.33280700  0.19558900  1.0
  Dy  Dy27  1  0.58362600  0.83274600  0.02115200  1.0
  Dy  Dy28  1  0.86150500  0.27698900  0.11234200  1.0
  Dy  Dy29  1  0.61136800  0.77726300  0.16891700  1.0
  Dy  Dy30  1  0.36105300  0.27789200  0.23250900  1.0
  Dy  Dy31  1  0.11073900  0.77852100  0.04751100  1.0
  Dy  Dy32  1  0.80506800  0.38986600  0.04212400  1.0
  Dy  Dy33  1  0.55505000  0.88990200  0.10209700  1.0
  Dy  Dy34  1  0.30557200  0.38885900  0.16128600  1.0
  Dy  Dy35  1  0.05556700  0.88886800  0.22634100  1.0
  Dy  Dy36  1  0.99970700  0.00058700  0.47884800  1.0
  Dy  Dy37  1  0.74973700  0.50052600  0.30441000  1.0
  Dy  Dy38  1  0.50012000  0.99975900  0.36433800  1.0
  Dy  Dy39  1  0.25018400  0.49963200  0.42617500  1.0
  Dy  Dy40  1  0.27776200  0.44447500  0.33871400  1.0
  Dy  Dy41  1  0.02828400  0.94343200  0.39790300  1.0
  Dy  Dy42  1  0.77826600  0.44346800  0.45787600  1.0
  Dy  Dy43  1  0.52776700  0.94446600  0.27365900  1.0
  Dy  Dy44  1  0.97196500  0.05607000  0.33108300  1.0
  Dy  Dy45  1  0.72182800  0.55634400  0.38765800  1.0
  Dy  Dy46  1  0.47259400  0.05481200  0.45248900  1.0
  Dy  Dy47  1  0.22228000  0.55544100  0.26749100  1.0
  Dy  Dy48  1  0.91641500  0.16717100  0.34481600  1.0
  Dy  Dy49  1  0.66666667  0.66673500  0.39970800  1.0
  Dy  Dy50  1  0.41582600  0.16834900  0.46143800  1.0
  Dy  Dy51  1  0.16683700  0.66632700  0.27957200  1.0
  Dy  Dy52  1  0.94434600  0.11130700  0.25381300  1.0
  Dy  Dy53  1  0.69436100  0.61127600  0.31933100  1.0
  Dy  Dy54  1  0.44457600  0.11084600  0.37773300  1.0
  Dy  Dy55  1  0.19443500  0.61112800  0.43874700  1.0
  Dy  Dy56  1  0.38867900  0.22264200  0.30900600  1.0
  Dy  Dy57  1  0.13839200  0.72321700  0.37304900  1.0
  Dy  Dy58  1  0.88863000  0.22274100  0.42756500  1.0
  Dy  Dy59  1  0.64065200  0.71869700  0.48875200  1.0
  Dy  Dy60  1  0.33299000  0.33401800  0.32461200  1.0
  Dy  Dy61  1  0.08300200  0.83399400  0.37873100  1.0
  Dy  Dy62  1  0.83345500  0.33308800  0.44681700  1.0
  Dy  Dy63  1  0.58365200  0.83269400  0.25989500  1.0
  Dy  Dy64  1  0.86096400  0.27807200  0.35900500  1.0
  Dy  Dy65  1  0.61130600  0.77738800  0.41948200  1.0
  Dy  Dy66  1  0.36142000  0.27715800  0.47825200  1.0
  Dy  Dy67  1  0.11107700  0.77784600  0.29724900  1.0
  Dy  Dy68  1  0.80561800  0.38876600  0.28735000  1.0
  Dy  Dy69  1  0.55550500  0.88899100  0.35178300  1.0
  Dy  Dy70  1  0.30530500  0.38939100  0.40722500  1.0
  Dy  Dy71  1  0.05678500  0.88643100  0.46885700  1.0
