# generated using pymatgen
data_Dy
_symmetry_space_group_name_H-M   'P 1'
_cell_length_a   6.19043600
_cell_length_b   8.80576307
_cell_length_c   28.58008600
_cell_angle_alpha   90.00000000
_cell_angle_beta   90.00000000
_cell_angle_gamma   103.55075822
_symmetry_Int_Tables_number   1
_chemical_formula_structural   Dy
_chemical_formula_sum   Dy30
_cell_volume   1514.57482150
_cell_formula_units_Z   30
loop_
 _symmetry_equiv_pos_site_id
 _symmetry_equiv_pos_as_xyz
  1  'x, y, z'
loop_
 _atom_site_type_symbol
 _atom_site_label
 _atom_site_symmetry_multiplicity
 _atom_site_fract_x
 _atom_site_fract_y
 _atom_site_fract_z
 _atom_site_occupancy
  Dy  Dy0  1  0.50000000  0.00000000  0.22182700  1.0
  Dy  Dy1  1  0.00000000  0.00000000  0.28345200  1.0
  Dy  Dy2  1  0.23276900  0.66686400  0.28220700  1.0
  Dy  Dy3  1  0.74388800  0.66078900  0.22014700  1.0
  Dy  Dy4  1  0.76723100  0.33313600  0.28220700  1.0
  Dy  Dy5  1  0.25611200  0.33921100  0.22014700  1.0
  Dy  Dy6  1  0.50000000  0.00000000  0.34222100  1.0
  Dy  Dy7  1  0.00000000  0.00000000  0.40648000  1.0
  Dy  Dy8  1  0.22596100  0.66615600  0.40610700  1.0
  Dy  Dy9  1  0.72649200  0.66529600  0.34226100  1.0
  Dy  Dy10  1  0.77403900  0.33384400  0.40610700  1.0
  Dy  Dy11  1  0.27350800  0.33470400  0.34226100  1.0
  Dy  Dy12  1  0.50000000  0.00000000  0.46871300  1.0
  Dy  Dy13  1  0.00000000  0.00000000  0.53128700  1.0
  Dy  Dy14  1  0.22381800  0.66615200  0.53119200  1.0
  Dy  Dy15  1  0.72381800  0.66615200  0.46880800  1.0
  Dy  Dy16  1  0.77618200  0.33384800  0.53119200  1.0
  Dy  Dy17  1  0.27618200  0.33384800  0.46880800  1.0
  Dy  Dy18  1  0.50000000  0.00000000  0.59352000  1.0
  Dy  Dy19  1  0.00000000  0.00000000  0.65777900  1.0
  Dy  Dy20  1  0.22649200  0.66529600  0.65773900  1.0
  Dy  Dy21  1  0.72596100  0.66615600  0.59389300  1.0
  Dy  Dy22  1  0.77350800  0.33470400  0.65773900  1.0
  Dy  Dy23  1  0.27403900  0.33384400  0.59389300  1.0
  Dy  Dy24  1  0.50000000  0.00000000  0.71654800  1.0
  Dy  Dy25  1  0.00000000  0.00000000  0.77817300  1.0
  Dy  Dy26  1  0.24388800  0.66078900  0.77985300  1.0
  Dy  Dy27  1  0.73276900  0.66686400  0.71779300  1.0
  Dy  Dy28  1  0.75611200  0.33921100  0.77985300  1.0
  Dy  Dy29  1  0.26723100  0.33313600  0.71779300  1.0
