# generated using pymatgen
data_Dy
_symmetry_space_group_name_H-M   'P 1'
_cell_length_a   6.19077300
_cell_length_b   25.93139358
_cell_length_c   21.44394601
_cell_angle_alpha   93.94810026
_cell_angle_beta   89.99916933
_cell_angle_gamma   83.14056645
_symmetry_Int_Tables_number   1
_chemical_formula_structural   Dy
_chemical_formula_sum   Dy49
_cell_volume   3409.64172909
_cell_formula_units_Z   49
loop_
 _symmetry_equiv_pos_site_id
 _symmetry_equiv_pos_as_xyz
  1  'x, y, z'
loop_
 _atom_site_type_symbol
 _atom_site_label
 _atom_site_symmetry_multiplicity
 _atom_site_fract_x
 _atom_site_fract_y
 _atom_site_fract_z
 _atom_site_occupancy
  Dy  Dy0  1  0.99664900  0.00073600  0.41946400  1.0
  Dy  Dy1  1  0.49804400  0.00143100  0.33719900  1.0
  Dy  Dy2  1  0.70833300  0.89053700  0.40688200  1.0
  Dy  Dy3  1  0.19220400  0.88846100  0.32260800  1.0
  Dy  Dy4  1  0.80091700  0.11308700  0.34573100  1.0
  Dy  Dy5  1  0.67194000  0.33050400  0.36155700  1.0
  Dy  Dy6  1  0.36481400  0.21842100  0.35290000  1.0
  Dy  Dy7  1  0.97320500  0.44333800  0.36556800  1.0
  Dy  Dy8  1  0.82570900  0.66795700  0.38363400  1.0
  Dy  Dy9  1  0.32213300  0.67969700  0.30641700  1.0
  Dy  Dy10  1  0.53478200  0.55457300  0.37126400  1.0
  Dy  Dy11  1  0.63416400  0.78454700  0.31310500  1.0
  Dy  Dy12  1  0.11123600  0.78080300  0.39736200  1.0
  Dy  Dy13  1  0.00125900  0.00011700  0.58417200  1.0
  Dy  Dy14  1  0.49765900  0.00104800  0.49776400  1.0
  Dy  Dy15  1  0.72109400  0.88885100  0.57174700  1.0
  Dy  Dy16  1  0.21863600  0.88899800  0.48508300  1.0
  Dy  Dy17  1  0.78500000  0.11148400  0.50986700  1.0
  Dy  Dy18  1  0.28779600  0.11115500  0.42821600  1.0
  Dy  Dy19  1  0.66666667  0.33333333  0.52315800  1.0
  Dy  Dy20  1  0.16804600  0.33204600  0.44209700  1.0
  Dy  Dy21  1  0.87514900  0.22124700  0.43616900  1.0
  Dy  Dy22  1  0.37836300  0.22236000  0.51724900  1.0
  Dy  Dy23  1  0.95512200  0.44431600  0.52906400  1.0
  Dy  Dy24  1  0.46084900  0.44378900  0.44682800  1.0
  Dy  Dy25  1  0.83562800  0.66560600  0.54852000  1.0
  Dy  Dy26  1  0.33204600  0.66654600  0.46211500  1.0
  Dy  Dy27  1  0.54829500  0.55519200  0.53644600  1.0
  Dy  Dy28  1  0.04666100  0.55484900  0.45393300  1.0
  Dy  Dy29  1  0.61221600  0.77781800  0.47452300  1.0
  Dy  Dy30  1  0.11466700  0.77765600  0.56119000  1.0
  Dy  Dy31  1  0.01124500  0.98693900  0.73987900  1.0
  Dy  Dy32  1  0.50766900  0.99869300  0.66265200  1.0
  Dy  Dy33  1  0.69915500  0.88211900  0.73317300  1.0
  Dy  Dy34  1  0.22209500  0.88582100  0.64887900  1.0
  Dy  Dy35  1  0.79861800  0.11209500  0.67505000  1.0
  Dy  Dy36  1  0.28669300  0.11181700  0.59234900  1.0
  Dy  Dy37  1  0.66134200  0.33615700  0.68476300  1.0
  Dy  Dy38  1  0.16526100  0.33460400  0.60422500  1.0
  Dy  Dy39  1  0.87252900  0.22288000  0.59947700  1.0
  Dy  Dy40  1  0.36007700  0.22331400  0.68074600  1.0
  Dy  Dy41  1  0.96854900  0.44828300  0.69343300  1.0
  Dy  Dy42  1  0.45833300  0.44543700  0.61016500  1.0
  Dy  Dy43  1  0.83523000  0.66525000  0.70910200  1.0
  Dy  Dy44  1  0.33662800  0.66594400  0.62683100  1.0
  Dy  Dy45  1  0.53237000  0.55360700  0.70058100  1.0
  Dy  Dy46  1  0.04554000  0.55553000  0.61809900  1.0
  Dy  Dy47  1  0.62500400  0.77612100  0.63937400  1.0
  Dy  Dy48  1  0.14103000  0.77821000  0.72364800  1.0
