# generated using pymatgen
data_Dy
_symmetry_space_group_name_H-M   'P 1'
_cell_length_a   25.67857112
_cell_length_b   9.45520831
_cell_length_c   21.43827813
_cell_angle_alpha   79.11730512
_cell_angle_beta   89.99084174
_cell_angle_gamma   89.99191108
_symmetry_Int_Tables_number   1
_chemical_formula_structural   Dy
_chemical_formula_sum   Dy81
_cell_volume   5111.52294454
_cell_formula_units_Z   81
loop_
 _symmetry_equiv_pos_site_id
 _symmetry_equiv_pos_as_xyz
  1  'x, y, z'
loop_
 _atom_site_type_symbol
 _atom_site_label
 _atom_site_symmetry_multiplicity
 _atom_site_fract_x
 _atom_site_fract_y
 _atom_site_fract_z
 _atom_site_occupancy
  Dy  Dy0  1  0.99990600  0.66543900  0.35249300  1.0
  Dy  Dy1  1  0.99523700  0.34043200  0.30105400  1.0
  Dy  Dy2  1  0.99850900  0.00395500  0.40990100  1.0
  Dy  Dy3  1  0.11317800  0.55012000  0.28092700  1.0
  Dy  Dy4  1  0.11066600  0.22582800  0.38980800  1.0
  Dy  Dy5  1  0.11281800  0.90367400  0.33016000  1.0
  Dy  Dy6  1  0.89173400  0.64772100  0.25711700  1.0
  Dy  Dy7  1  0.88966600  0.42705700  0.38349200  1.0
  Dy  Dy8  1  0.88669800  0.09579700  0.31662600  1.0
  Dy  Dy9  1  0.66348000  0.75111100  0.26783700  1.0
  Dy  Dy10  1  0.66666667  0.44281100  0.37592200  1.0
  Dy  Dy11  1  0.66372300  0.11370900  0.31922600  1.0
  Dy  Dy12  1  0.78099900  0.67294600  0.35162300  1.0
  Dy  Dy13  1  0.78358500  0.36460100  0.29584300  1.0
  Dy  Dy14  1  0.77776100  0.00898300  0.40558100  1.0
  Dy  Dy15  1  0.55407900  0.52023800  0.28532900  1.0
  Dy  Dy16  1  0.55379100  0.21325700  0.39822200  1.0
  Dy  Dy17  1  0.55570800  0.87671700  0.33551200  1.0
  Dy  Dy18  1  0.33493500  0.53803700  0.28504000  1.0
  Dy  Dy19  1  0.33350600  0.21981700  0.39485900  1.0
  Dy  Dy20  1  0.33250200  0.89206800  0.33069300  1.0
  Dy  Dy21  1  0.44816100  0.76687300  0.26626200  1.0
  Dy  Dy22  1  0.44448400  0.44324700  0.37485300  1.0
  Dy  Dy23  1  0.44663200  0.12358200  0.31362800  1.0
  Dy  Dy24  1  0.22193600  0.65379000  0.35128600  1.0
  Dy  Dy25  1  0.22157900  0.30369100  0.30212900  1.0
  Dy  Dy26  1  0.22182700  0.99323900  0.41250700  1.0
  Dy  Dy27  1  0.99923200  0.66970800  0.51680800  1.0
  Dy  Dy28  1  0.00137900  0.33445400  0.46252400  1.0
  Dy  Dy29  1  0.00033000  0.99820700  0.57688800  1.0
  Dy  Dy30  1  0.11165800  0.56435700  0.43904700  1.0
  Dy  Dy31  1  0.11138000  0.22403000  0.55620400  1.0
  Dy  Dy32  1  0.11055700  0.89338200  0.49833700  1.0
  Dy  Dy33  1  0.88938900  0.77322400  0.42307100  1.0
  Dy  Dy34  1  0.88903700  0.44076000  0.54047400  1.0
  Dy  Dy35  1  0.88768200  0.10092500  0.48155400  1.0
  Dy  Dy36  1  0.66633300  0.77960600  0.42311600  1.0
  Dy  Dy37  1  0.66528100  0.44331900  0.53746200  1.0
  Dy  Dy38  1  0.66743800  0.10811400  0.48318800  1.0
  Dy  Dy39  1  0.77897900  0.67685500  0.51842900  1.0
  Dy  Dy40  1  0.77762300  0.33704700  0.45951300  1.0
  Dy  Dy41  1  0.77727600  0.00453600  0.57691500  1.0
  Dy  Dy42  1  0.55528200  0.55374400  0.44379500  1.0
  Dy  Dy43  1  0.55500500  0.21337700  0.56096900  1.0
  Dy  Dy44  1  0.55611300  0.88436700  0.50166700  1.0
  Dy  Dy45  1  0.33310100  0.55933900  0.44059200  1.0
  Dy  Dy46  1  0.33356000  0.21842500  0.55943700  1.0
  Dy  Dy47  1  0.33333333  0.88889100  0.50002200  1.0
  Dy  Dy48  1  0.44472100  0.78778100  0.42238200  1.0
  Dy  Dy49  1  0.44484200  0.44843900  0.53857000  1.0
  Dy  Dy50  1  0.44389800  0.11138500  0.48346600  1.0
  Dy  Dy51  1  0.22276900  0.66636700  0.51654900  1.0
  Dy  Dy52  1  0.22181900  0.32930900  0.46143300  1.0
  Dy  Dy53  1  0.22194600  0.98995300  0.57764400  1.0
  Dy  Dy54  1  0.00293700  0.66411600  0.68076700  1.0
  Dy  Dy55  1  0.99995200  0.33503500  0.62405700  1.0
  Dy  Dy56  1  0.00318200  0.02676100  0.73214600  1.0
  Dy  Dy57  1  0.11287600  0.56452000  0.60180100  1.0
  Dy  Dy58  1  0.11258600  0.25751900  0.71465700  1.0
  Dy  Dy59  1  0.11095600  0.90108100  0.66448700  1.0
  Dy  Dy60  1  0.88890700  0.76882400  0.59439800  1.0
  Dy  Dy61  1  0.88308300  0.41318700  0.70413800  1.0
  Dy  Dy62  1  0.88568100  0.10487100  0.64834500  1.0
  Dy  Dy63  1  0.66815700  0.77382500  0.59009900  1.0
  Dy  Dy64  1  0.67144300  0.43734400  0.69894300  1.0
  Dy  Dy65  1  0.66676000  0.11233600  0.64749200  1.0
  Dy  Dy66  1  0.77996300  0.68198800  0.68335100  1.0
  Dy  Dy67  1  0.77699700  0.35069700  0.61649900  1.0
  Dy  Dy68  1  0.77492600  0.13003400  0.74287000  1.0
  Dy  Dy69  1  0.55600400  0.55190300  0.61018400  1.0
  Dy  Dy70  1  0.55350300  0.22763400  0.71908000  1.0
  Dy  Dy71  1  0.55384600  0.87407000  0.66984800  1.0
  Dy  Dy72  1  0.33316700  0.55797600  0.60514200  1.0
  Dy  Dy73  1  0.33173000  0.23978200  0.71497700  1.0
  Dy  Dy74  1  0.33416900  0.88572700  0.66935200  1.0
  Dy  Dy75  1  0.44484000  0.78454200  0.58750800  1.0
  Dy  Dy76  1  0.44510600  0.47406100  0.69787700  1.0
  Dy  Dy77  1  0.44472400  0.12397600  0.64872100  1.0
  Dy  Dy78  1  0.22005100  0.65417600  0.68637200  1.0
  Dy  Dy79  1  0.22217500  0.33450100  0.62514700  1.0
  Dy  Dy80  1  0.21849600  0.01087500  0.73375400  1.0
