# generated using pymatgen
data_Dy
_symmetry_space_group_name_H-M   'P 1'
_cell_length_a   6.19158404
_cell_length_b   51.50301287
_cell_length_c   21.44277847
_cell_angle_alpha   92.00970772
_cell_angle_beta   90.01219844
_cell_angle_gamma   86.55432024
_symmetry_Int_Tables_number   1
_chemical_formula_structural   Dy
_chemical_formula_sum   Dy108
_cell_volume   6821.21361453
_cell_formula_units_Z   108
loop_
 _symmetry_equiv_pos_site_id
 _symmetry_equiv_pos_as_xyz
  1  'x, y, z'
loop_
 _atom_site_type_symbol
 _atom_site_label
 _atom_site_symmetry_multiplicity
 _atom_site_fract_x
 _atom_site_fract_y
 _atom_site_fract_z
 _atom_site_occupancy
  Dy  Dy0  1  0.74979500  0.49997700  0.38532500  1.0
  Dy  Dy1  1  0.00078400  0.00091300  0.34498400  1.0
  Dy  Dy2  1  0.50428600  0.00136900  0.26160600  1.0
  Dy  Dy3  1  0.24999200  0.49992100  0.30313700  1.0
  Dy  Dy4  1  0.69150100  0.94397200  0.33530400  1.0
  Dy  Dy5  1  0.92014000  0.44344300  0.29672100  1.0
  Dy  Dy6  1  0.43461900  0.44444400  0.37949100  1.0
  Dy  Dy7  1  0.18562500  0.94769700  0.25942000  1.0
  Dy  Dy8  1  0.57946100  0.55647400  0.30597600  1.0
  Dy  Dy9  1  0.83037600  0.05682900  0.26459500  1.0
  Dy  Dy10  1  0.31585900  0.05577000  0.34748100  1.0
  Dy  Dy11  1  0.06556200  0.55545000  0.38876300  1.0
  Dy  Dy12  1  0.49927200  0.66654800  0.31698000  1.0
  Dy  Dy13  1  0.74982300  0.16672400  0.27531000  1.0
  Dy  Dy14  1  0.24970800  0.16669500  0.35760500  1.0
  Dy  Dy15  1  0.00051400  0.66666667  0.39919400  1.0
  Dy  Dy16  1  0.68469500  0.61110300  0.39346500  1.0
  Dy  Dy17  1  0.93318200  0.11117400  0.35191900  1.0
  Dy  Dy18  1  0.41901600  0.11017400  0.26914100  1.0
  Dy  Dy19  1  0.17054100  0.61000600  0.31054900  1.0
  Dy  Dy20  1  0.82995500  0.72323100  0.31996800  1.0
  Dy  Dy21  1  0.08026800  0.22316900  0.27815100  1.0
  Dy  Dy22  1  0.56573800  0.22222600  0.36107500  1.0
  Dy  Dy23  1  0.31611400  0.72201600  0.40267500  1.0
  Dy  Dy24  1  0.74392700  0.83239100  0.33143300  1.0
  Dy  Dy25  1  0.00005000  0.33333333  0.28913100  1.0
  Dy  Dy26  1  0.50006100  0.33337700  0.37138500  1.0
  Dy  Dy27  1  0.24866500  0.83282400  0.41407800  1.0
  Dy  Dy28  1  0.41887100  0.77652700  0.32445400  1.0
  Dy  Dy29  1  0.66978400  0.27685700  0.28261000  1.0
  Dy  Dy30  1  0.18384800  0.27780700  0.36566600  1.0
  Dy  Dy31  1  0.93365900  0.77768200  0.40702500  1.0
  Dy  Dy32  1  0.56224100  0.88889500  0.41476200  1.0
  Dy  Dy33  1  0.81539400  0.38886300  0.37470300  1.0
  Dy  Dy34  1  0.32970500  0.38984900  0.29211300  1.0
  Dy  Dy35  1  0.07873100  0.88893800  0.33378900  1.0
  Dy  Dy36  1  0.75006200  0.50003000  0.55029300  1.0
  Dy  Dy37  1  0.00343100  0.00017900  0.50901000  1.0
  Dy  Dy38  1  0.50399200  0.99952700  0.42122100  1.0
  Dy  Dy39  1  0.25009800  0.49998700  0.46351800  1.0
  Dy  Dy40  1  0.69000800  0.94433800  0.50270100  1.0
  Dy  Dy41  1  0.93811000  0.44416400  0.45905900  1.0
  Dy  Dy42  1  0.43813200  0.44422300  0.54539700  1.0
  Dy  Dy43  1  0.18580500  0.94391100  0.41828700  1.0
  Dy  Dy44  1  0.56165200  0.55582100  0.46845100  1.0
  Dy  Dy45  1  0.81017600  0.05585900  0.42695100  1.0
  Dy  Dy46  1  0.31093300  0.05603200  0.51286100  1.0
  Dy  Dy47  1  0.06196700  0.55580500  0.55473500  1.0
  Dy  Dy48  1  0.50048100  0.66659900  0.47748500  1.0
  Dy  Dy49  1  0.74930000  0.16668900  0.43577900  1.0
  Dy  Dy50  1  0.24951400  0.16672000  0.52261800  1.0
  Dy  Dy51  1  0.00068700  0.66666667  0.56436900  1.0
  Dy  Dy52  1  0.68831500  0.61087900  0.55949500  1.0
  Dy  Dy53  1  0.93784700  0.11092700  0.51763500  1.0
  Dy  Dy54  1  0.43729400  0.11104300  0.43146100  1.0
  Dy  Dy55  1  0.18826600  0.61086500  0.47307000  1.0
  Dy  Dy56  1  0.81219300  0.72243700  0.48237300  1.0
  Dy  Dy57  1  0.06175900  0.22242800  0.44068400  1.0
  Dy  Dy58  1  0.56173300  0.22242100  0.52710900  1.0
  Dy  Dy59  1  0.31269400  0.72228600  0.56856400  1.0
  Dy  Dy60  1  0.74660300  0.83317700  0.49089200  1.0
  Dy  Dy61  1  0.99994200  0.33333333  0.44960100  1.0
  Dy  Dy62  1  0.49988700  0.33333333  0.53639000  1.0
  Dy  Dy63  1  0.24594800  0.83381300  0.57867500  1.0
  Dy  Dy64  1  0.43897900  0.77735500  0.48707200  1.0
  Dy  Dy65  1  0.68790500  0.27754400  0.44534100  1.0
  Dy  Dy66  1  0.18837700  0.27745800  0.53163900  1.0
  Dy  Dy67  1  0.93985600  0.77748800  0.57297600  1.0
  Dy  Dy68  1  0.56414400  0.88940500  0.58165000  1.0
  Dy  Dy69  1  0.81193500  0.38917400  0.54072400  1.0
  Dy  Dy70  1  0.31190700  0.38915100  0.45438100  1.0
  Dy  Dy71  1  0.05993600  0.88898400  0.49722100  1.0
  Dy  Dy72  1  0.75015500  0.50008900  0.71087600  1.0
  Dy  Dy73  1  0.00616400  0.00098700  0.66858900  1.0
  Dy  Dy74  1  0.50148900  0.00052500  0.58586200  1.0
  Dy  Dy75  1  0.25013400  0.50003500  0.62852200  1.0
  Dy  Dy76  1  0.67126400  0.94435300  0.66612300  1.0
  Dy  Dy77  1  0.93435900  0.44452400  0.62511500  1.0
  Dy  Dy78  1  0.42025300  0.44357800  0.70789200  1.0
  Dy  Dy79  1  0.18774400  0.94441700  0.58517300  1.0
  Dy  Dy80  1  0.56593400  0.55555400  0.63438000  1.0
  Dy  Dy81  1  0.81628000  0.05571000  0.59292700  1.0
  Dy  Dy82  1  0.33085800  0.05693700  0.67557900  1.0
  Dy  Dy83  1  0.08017000  0.55653300  0.71737400  1.0
  Dy  Dy84  1  0.50029700  0.66658100  0.64253500  1.0
  Dy  Dy85  1  0.74953200  0.16670000  0.60088000  1.0
  Dy  Dy86  1  0.25081100  0.16680700  0.68304600  1.0
  Dy  Dy87  1  0.00014200  0.66656000  0.72478600  1.0
  Dy  Dy88  1  0.66998600  0.61013800  0.72189900  1.0
  Dy  Dy89  1  0.92032900  0.11021600  0.68014900  1.0
  Dy  Dy90  1  0.43406700  0.11139900  0.59734400  1.0
  Dy  Dy91  1  0.18458400  0.61107900  0.63908000  1.0
  Dy  Dy92  1  0.81671800  0.72212400  0.64815200  1.0
  Dy  Dy93  1  0.06506700  0.22216700  0.60665700  1.0
  Dy  Dy94  1  0.57938300  0.22322600  0.68952100  1.0
  Dy  Dy95  1  0.33066900  0.72313700  0.73101900  1.0
  Dy  Dy96  1  0.74909700  0.83243300  0.65494500  1.0
  Dy  Dy97  1  0.00000800  0.33329400  0.61462500  1.0
  Dy  Dy98  1  0.49986700  0.33333333  0.69688700  1.0
  Dy  Dy99  1  0.24559000  0.83194600  0.73835200  1.0
  Dy  Dy100  1  0.43416000  0.77757400  0.65249400  1.0
  Dy  Dy101  1  0.68457900  0.27780400  0.61131000  1.0
  Dy  Dy102  1  0.17075000  0.27670900  0.69400700  1.0
  Dy  Dy103  1  0.91976900  0.77648700  0.73548500  1.0
  Dy  Dy104  1  0.56437800  0.88559400  0.74045200  1.0
  Dy  Dy105  1  0.82972700  0.38989800  0.70328200  1.0
  Dy  Dy106  1  0.31566000  0.38889800  0.62038600  1.0
  Dy  Dy107  1  0.05839300  0.88932500  0.66462600  1.0
