# generated using pymatgen
data_Be
_symmetry_space_group_name_H-M   'P 1'
_cell_length_a   3.56808600
_cell_length_b   3.92731700
_cell_length_c   22.61669400
_cell_angle_alpha   90.00000000
_cell_angle_beta   90.00000000
_cell_angle_gamma   90.00000000
_symmetry_Int_Tables_number   1
_chemical_formula_structural   Be
_chemical_formula_sum   Be20
_cell_volume   316.92784170
_cell_formula_units_Z   20
loop_
 _symmetry_equiv_pos_site_id
 _symmetry_equiv_pos_as_xyz
  1  'x, y, z'
loop_
 _atom_site_type_symbol
 _atom_site_label
 _atom_site_symmetry_multiplicity
 _atom_site_fract_x
 _atom_site_fract_y
 _atom_site_fract_z
 _atom_site_occupancy
  Be  Be0  1  0.25000000  0.33648400  0.00295700  1.0
  Be  Be1  1  0.25000000  0.83862400  0.04766200  1.0
  Be  Be2  1  0.75000000  0.66351600  0.00295700  1.0
  Be  Be3  1  0.75000000  0.16137600  0.04766200  1.0
  Be  Be4  1  0.25000000  0.33327200  0.09889100  1.0
  Be  Be5  1  0.25000000  0.83236300  0.14987000  1.0
  Be  Be6  1  0.75000000  0.66666667  0.09889100  1.0
  Be  Be7  1  0.75000000  0.16763700  0.14987000  1.0
  Be  Be8  1  0.25000000  0.33377800  0.20001500  1.0
  Be  Be9  1  0.25000000  0.83377800  0.24998500  1.0
  Be  Be10  1  0.75000000  0.66622200  0.20001500  1.0
  Be  Be11  1  0.75000000  0.16622200  0.24998500  1.0
  Be  Be12  1  0.25000000  0.33236300  0.30013000  1.0
  Be  Be13  1  0.25000000  0.83327200  0.35110900  1.0
  Be  Be14  1  0.75000000  0.66763700  0.30013000  1.0
  Be  Be15  1  0.75000000  0.16672800  0.35110900  1.0
  Be  Be16  1  0.25000000  0.33862400  0.40233800  1.0
  Be  Be17  1  0.25000000  0.83648400  0.44704300  1.0
  Be  Be18  1  0.75000000  0.66137600  0.40233800  1.0
  Be  Be19  1  0.75000000  0.16351600  0.44704300  1.0
