# generated using pymatgen
data_Be
_symmetry_space_group_name_H-M   'P 1'
_cell_length_a   5.99149589
_cell_length_b   4.22588168
_cell_length_c   21.94726259
_cell_angle_alpha   86.71574707
_cell_angle_beta   90.01703016
_cell_angle_gamma   66.10129477
_symmetry_Int_Tables_number   1
_chemical_formula_structural   Be
_chemical_formula_sum   Be32
_cell_volume   507.04466638
_cell_formula_units_Z   32
loop_
 _symmetry_equiv_pos_site_id
 _symmetry_equiv_pos_as_xyz
  1  'x, y, z'
loop_
 _atom_site_type_symbol
 _atom_site_label
 _atom_site_symmetry_multiplicity
 _atom_site_fract_x
 _atom_site_fract_y
 _atom_site_fract_z
 _atom_site_occupancy
  Be  Be0  1  0.64876400  0.99198900  0.37206400  1.0
  Be  Be1  1  0.65062900  0.49255200  0.12138700  1.0
  Be  Be2  1  0.27474600  0.04289800  0.39984800  1.0
  Be  Be3  1  0.27228900  0.54903200  0.15134500  1.0
  Be  Be4  1  0.01965500  0.92599700  0.33925600  1.0
  Be  Be5  1  0.02807700  0.42276000  0.08854200  1.0
  Be  Be6  1  0.90235700  0.10733300  0.43530900  1.0
  Be  Be7  1  0.89968200  0.61583900  0.18326000  1.0
  Be  Be8  1  0.51348400  0.18636000  0.46325700  1.0
  Be  Be9  1  0.52083900  0.67842800  0.21345400  1.0
  Be  Be10  1  0.15702200  0.24233100  0.48773400  1.0
  Be  Be11  1  0.14644300  0.74025400  0.24489600  1.0
  Be  Be12  1  0.77219100  0.80302600  0.27604400  1.0
  Be  Be13  1  0.75373200  0.31209300  0.02748400  1.0
  Be  Be14  1  0.39530500  0.86316800  0.30683200  1.0
  Be  Be15  1  0.39093000  0.37851300  0.05740800  1.0
  Be  Be16  1  0.72771100  0.45096800  0.34865500  1.0
  Be  Be17  1  0.72525400  0.95710200  0.10015200  1.0
  Be  Be18  1  0.34937100  0.50744800  0.37861300  1.0
  Be  Be19  1  0.35123600  0.00801100  0.12793600  1.0
  Be  Be20  1  0.10031800  0.38416100  0.31674000  1.0
  Be  Be21  1  0.09764300  0.89266700  0.06469100  1.0
  Be  Be22  1  0.97192300  0.57724000  0.41145800  1.0
  Be  Be23  1  0.98034500  0.07400300  0.16074400  1.0
  Be  Be24  1  0.60907000  0.62148700  0.44259200  1.0
  Be  Be25  1  0.60469500  0.13683200  0.19316800  1.0
  Be  Be26  1  0.24626800  0.68790700  0.47251600  1.0
  Be  Be27  1  0.22780900  0.19697400  0.22395600  1.0
  Be  Be28  1  0.85355700  0.25974600  0.25510400  1.0
  Be  Be29  1  0.84297800  0.75766900  0.01226600  1.0
  Be  Be30  1  0.47916100  0.32157200  0.28654600  1.0
  Be  Be31  1  0.48651600  0.81364000  0.03674300  1.0
