# generated using pymatgen
data_Be
_symmetry_space_group_name_H-M   'P 1'
_cell_length_a   2.26201212
_cell_length_b   4.22610865
_cell_length_c   23.57527124
_cell_angle_alpha   117.70204240
_cell_angle_beta   90.00000570
_cell_angle_gamma   74.47710007
_symmetry_Int_Tables_number   1
_chemical_formula_structural   Be
_chemical_formula_sum   Be12
_cell_volume   190.20182371
_cell_formula_units_Z   12
loop_
 _symmetry_equiv_pos_site_id
 _symmetry_equiv_pos_as_xyz
  1  'x, y, z'
loop_
 _atom_site_type_symbol
 _atom_site_label
 _atom_site_symmetry_multiplicity
 _atom_site_fract_x
 _atom_site_fract_y
 _atom_site_fract_z
 _atom_site_occupancy
  Be  Be0  1  0.13201400  0.73597300  0.11583100  1.0
  Be  Be1  1  0.62510500  0.74979000  0.03633700  1.0
  Be  Be2  1  0.88570800  0.22858500  0.04723400  1.0
  Be  Be3  1  0.37704100  0.24591800  0.13346300  1.0
  Be  Be4  1  0.12481500  0.75036900  0.28399500  1.0
  Be  Be5  1  0.62655400  0.74689300  0.20062800  1.0
  Be  Be6  1  0.87518500  0.24963100  0.21600500  1.0
  Be  Be7  1  0.37344600  0.25310700  0.29937200  1.0
  Be  Be8  1  0.11429200  0.77141500  0.45276600  1.0
  Be  Be9  1  0.62295900  0.75408200  0.36653700  1.0
  Be  Be10  1  0.86798600  0.26402700  0.38416900  1.0
  Be  Be11  1  0.37489500  0.25021000  0.46366300  1.0
