# generated using pymatgen
data_Be
_symmetry_space_group_name_H-M   'P 1'
_cell_length_a   3.56819500
_cell_length_b   5.99958825
_cell_length_c   22.61092300
_cell_angle_alpha   79.13840120
_cell_angle_beta   90.00000000
_cell_angle_gamma   90.00000000
_symmetry_Int_Tables_number   1
_chemical_formula_structural   Be
_chemical_formula_sum   Be30
_cell_volume   475.37626752
_cell_formula_units_Z   30
loop_
 _symmetry_equiv_pos_site_id
 _symmetry_equiv_pos_as_xyz
  1  'x, y, z'
loop_
 _atom_site_type_symbol
 _atom_site_label
 _atom_site_symmetry_multiplicity
 _atom_site_fract_x
 _atom_site_fract_y
 _atom_site_fract_z
 _atom_site_occupancy
  Be  Be0  1  0.25000000  0.55316700  0.02705600  1.0
  Be  Be1  1  0.25000000  0.22142600  0.08835900  1.0
  Be  Be2  1  0.25000000  0.89280900  0.05114300  1.0
  Be  Be3  1  0.75000000  0.76697300  0.01649200  1.0
  Be  Be4  1  0.75000000  0.43432800  0.07639300  1.0
  Be  Be5  1  0.75000000  0.10242600  0.04813700  1.0
  Be  Be6  1  0.25000000  0.54836800  0.12243300  1.0
  Be  Be7  1  0.25000000  0.22061700  0.18958400  1.0
  Be  Be8  1  0.25000000  0.89344300  0.15303100  1.0
  Be  Be9  1  0.75000000  0.76898400  0.11166100  1.0
  Be  Be10  1  0.75000000  0.43903100  0.17909800  1.0
  Be  Be11  1  0.75000000  0.11097800  0.14535800  1.0
  Be  Be12  1  0.25000000  0.55604300  0.22121200  1.0
  Be  Be13  1  0.25000000  0.22365000  0.28962900  1.0
  Be  Be14  1  0.25000000  0.88967900  0.25455100  1.0
  Be  Be15  1  0.75000000  0.77635100  0.21037100  1.0
  Be  Be16  1  0.75000000  0.44395700  0.27878800  1.0
  Be  Be17  1  0.75000000  0.11032100  0.24544900  1.0
  Be  Be18  1  0.25000000  0.56096900  0.32090200  1.0
  Be  Be19  1  0.25000000  0.23101600  0.38833900  1.0
  Be  Be20  1  0.25000000  0.88902200  0.35464200  1.0
  Be  Be21  1  0.75000000  0.77938300  0.31041600  1.0
  Be  Be22  1  0.75000000  0.45163200  0.37756700  1.0
  Be  Be23  1  0.75000000  0.10655700  0.34696900  1.0
  Be  Be24  1  0.25000000  0.56567200  0.42360700  1.0
  Be  Be25  1  0.25000000  0.23302700  0.48350800  1.0
  Be  Be26  1  0.25000000  0.89757400  0.45186300  1.0
  Be  Be27  1  0.75000000  0.77857400  0.41164100  1.0
  Be  Be28  1  0.75000000  0.44683300  0.47294400  1.0
  Be  Be29  1  0.75000000  0.10719100  0.44885700  1.0
