# generated using pymatgen
data_Be
_symmetry_space_group_name_H-M   'P 1'
_cell_length_a   4.22656885
_cell_length_b   5.30663677
_cell_length_c   21.87022867
_cell_angle_alpha   92.48542554
_cell_angle_beta   94.78844503
_cell_angle_gamma   102.96712571
_symmetry_Int_Tables_number   1
_chemical_formula_structural   Be
_chemical_formula_sum   Be30
_cell_volume   475.37225492
_cell_formula_units_Z   30
loop_
 _symmetry_equiv_pos_site_id
 _symmetry_equiv_pos_as_xyz
  1  'x, y, z'
loop_
 _atom_site_type_symbol
 _atom_site_label
 _atom_site_symmetry_multiplicity
 _atom_site_fract_x
 _atom_site_fract_y
 _atom_site_fract_z
 _atom_site_occupancy
  Be  Be0  1  0.33538400  0.64891800  0.06850800  1.0
  Be  Be1  1  0.06923900  0.31358600  0.01325800  1.0
  Be  Be2  1  0.69016200  0.99116100  0.03878800  1.0
  Be  Be3  1  0.21569100  0.02912800  0.06481200  1.0
  Be  Be4  1  0.85668900  0.69337300  0.09467300  1.0
  Be  Be5  1  0.58051200  0.36749200  0.03340800  1.0
  Be  Be6  1  0.22304100  0.64625900  0.16979000  1.0
  Be  Be7  1  0.95873400  0.31660700  0.10633800  1.0
  Be  Be8  1  0.58594700  0.97677200  0.13586500  1.0
  Be  Be9  1  0.11031700  0.02811700  0.16395000  1.0
  Be  Be10  1  0.74809400  0.69390000  0.19617700  1.0
  Be  Be11  1  0.48133600  0.36353900  0.13000700  1.0
  Be  Be12  1  0.12184100  0.64001900  0.27054900  1.0
  Be  Be13  1  0.85511300  0.30879900  0.20451600  1.0
  Be  Be14  1  0.48618900  0.97283300  0.23605300  1.0
  Be  Be15  1  0.01381100  0.02716700  0.26394700  1.0
  Be  Be16  1  0.64488700  0.69120100  0.29548400  1.0
  Be  Be17  1  0.37815900  0.35998100  0.22945100  1.0
  Be  Be18  1  0.01866400  0.63646100  0.36999300  1.0
  Be  Be19  1  0.75190600  0.30610000  0.30382300  1.0
  Be  Be20  1  0.38968300  0.97188300  0.33605000  1.0
  Be  Be21  1  0.91405300  0.02322800  0.36413500  1.0
  Be  Be22  1  0.54126600  0.68339300  0.39366200  1.0
  Be  Be23  1  0.27695900  0.35374100  0.33021000  1.0
  Be  Be24  1  0.91948800  0.63250800  0.46659200  1.0
  Be  Be25  1  0.64331100  0.30662700  0.40532700  1.0
  Be  Be26  1  0.28430900  0.97087200  0.43518800  1.0
  Be  Be27  1  0.80983800  0.00883900  0.46121200  1.0
  Be  Be28  1  0.43076100  0.68641400  0.48674200  1.0
  Be  Be29  1  0.16461600  0.35108200  0.43149200  1.0
