# generated using pymatgen
data_Be
_symmetry_space_group_name_H-M   'P 1'
_cell_length_a   3.92417400
_cell_length_b   7.49058270
_cell_length_c   22.62250400
_cell_angle_alpha   98.68524623
_cell_angle_beta   90.00000000
_cell_angle_gamma   74.81476406
_symmetry_Int_Tables_number   1
_chemical_formula_structural   Be
_chemical_formula_sum   Be40
_cell_volume   633.85094409
_cell_formula_units_Z   40
loop_
 _symmetry_equiv_pos_site_id
 _symmetry_equiv_pos_as_xyz
  1  'x, y, z'
loop_
 _atom_site_type_symbol
 _atom_site_label
 _atom_site_symmetry_multiplicity
 _atom_site_fract_x
 _atom_site_fract_y
 _atom_site_fract_z
 _atom_site_occupancy
  Be  Be0  1  0.73085400  0.87240200  0.09195300  1.0
  Be  Be1  1  0.96683900  0.38198700  0.07180500  1.0
  Be  Be2  1  0.49767900  0.37254200  0.02238100  1.0
  Be  Be3  1  0.24687200  0.87129700  0.04302000  1.0
  Be  Be4  1  0.52836400  0.62582200  0.08040400  1.0
  Be  Be5  1  0.77080300  0.11489700  0.04912800  1.0
  Be  Be6  1  0.23884500  0.15199600  0.00973800  1.0
  Be  Be7  1  0.02910100  0.62113300  0.03559000  1.0
  Be  Be8  1  0.73161700  0.87516600  0.19379800  1.0
  Be  Be9  1  0.97795000  0.37500900  0.16944100  1.0
  Be  Be10  1  0.46995600  0.37803100  0.11873300  1.0
  Be  Be11  1  0.23314500  0.87213300  0.14221100  1.0
  Be  Be12  1  0.52048100  0.62694700  0.18267200  1.0
  Be  Be13  1  0.77808800  0.12084700  0.15352600  1.0
  Be  Be14  1  0.27607500  0.12230500  0.10309800  1.0
  Be  Be15  1  0.02023000  0.62569400  0.13312800  1.0
  Be  Be16  1  0.72704400  0.87695200  0.29501200  1.0
  Be  Be17  1  0.97840600  0.37317600  0.26728600  1.0
  Be  Be18  1  0.47733700  0.37305700  0.21779700  1.0
  Be  Be19  1  0.22810400  0.87596700  0.24392800  1.0
  Be  Be20  1  0.52266300  0.62694300  0.28220300  1.0
  Be  Be21  1  0.77189600  0.12403300  0.25607200  1.0
  Be  Be22  1  0.27295600  0.12304800  0.20498800  1.0
  Be  Be23  1  0.02159400  0.62682400  0.23271400  1.0
  Be  Be24  1  0.72392500  0.87769500  0.39690200  1.0
  Be  Be25  1  0.97977000  0.37430600  0.36687200  1.0
  Be  Be26  1  0.47951900  0.37305300  0.31732800  1.0
  Be  Be27  1  0.22191200  0.87915300  0.34647500  1.0
  Be  Be28  1  0.53004400  0.62196900  0.38126700  1.0
  Be  Be29  1  0.76685500  0.12786700  0.35778900  1.0
  Be  Be30  1  0.26838300  0.12483400  0.30620200  1.0
  Be  Be31  1  0.02205000  0.62499100  0.33055900  1.0
  Be  Be32  1  0.76115500  0.84800400  0.49026200  1.0
  Be  Be33  1  0.97089900  0.37886700  0.46441000  1.0
  Be  Be34  1  0.47163600  0.37417800  0.41959600  1.0
  Be  Be35  1  0.22919700  0.88510300  0.45087200  1.0
  Be  Be36  1  0.50232100  0.62745800  0.47761900  1.0
  Be  Be37  1  0.75312800  0.12870300  0.45698000  1.0
  Be  Be38  1  0.26914600  0.12759800  0.40804700  1.0
  Be  Be39  1  0.03316100  0.61801300  0.42819500  1.0
