# generated using pymatgen
data_Be
_symmetry_space_group_name_H-M   'P 1'
_cell_length_a   2.26255300
_cell_length_b   2.26255292
_cell_length_c   35.73402700
_cell_angle_alpha   90.00000000
_cell_angle_beta   90.00000000
_cell_angle_gamma   120.00001572
_symmetry_Int_Tables_number   1
_chemical_formula_structural   Be
_chemical_formula_sum   Be10
_cell_volume   158.42000816
_cell_formula_units_Z   10
loop_
 _symmetry_equiv_pos_site_id
 _symmetry_equiv_pos_as_xyz
  1  'x, y, z'
loop_
 _atom_site_type_symbol
 _atom_site_label
 _atom_site_symmetry_multiplicity
 _atom_site_fract_x
 _atom_site_fract_y
 _atom_site_fract_z
 _atom_site_occupancy
  Be  Be0  1  0.33333333  0.66666667  0.32496900  1.0
  Be  Be1  1  0.66666667  0.33333333  0.27367100  1.0
  Be  Be2  1  0.33333333  0.66666667  0.42547900  1.0
  Be  Be3  1  0.66666667  0.33333333  0.37537200  1.0
  Be  Be4  1  0.33333333  0.66666667  0.52481700  1.0
  Be  Be5  1  0.66666667  0.33333333  0.47518300  1.0
  Be  Be6  1  0.33333333  0.66666667  0.62462800  1.0
  Be  Be7  1  0.66666667  0.33333333  0.57452100  1.0
  Be  Be8  1  0.33333333  0.66666667  0.72632900  1.0
  Be  Be9  1  0.66666667  0.33333333  0.67503100  1.0
