# generated using pymatgen
data_Yb
_symmetry_space_group_name_H-M   'P 1'
_cell_length_a   3.87302745
_cell_length_b   28.29282700
_cell_length_c   23.23816605
_cell_angle_alpha   90.00000000
_cell_angle_beta   119.99998967
_cell_angle_gamma   90.00000000
_symmetry_Int_Tables_number   1
_chemical_formula_structural   Yb
_chemical_formula_sum   Yb27
_cell_volume   2205.25820519
_cell_formula_units_Z   27
loop_
 _symmetry_equiv_pos_site_id
 _symmetry_equiv_pos_as_xyz
  1  'x, y, z'
loop_
 _atom_site_type_symbol
 _atom_site_label
 _atom_site_symmetry_multiplicity
 _atom_site_fract_x
 _atom_site_fract_y
 _atom_site_fract_z
 _atom_site_occupancy
  Yb  Yb0  1  0.01192800  0.99956400  0.39286500  1.0
  Yb  Yb1  1  0.33370400  0.11137800  0.33345700  1.0
  Yb  Yb2  1  0.01707800  0.22249000  0.39458200  1.0
  Yb  Yb3  1  0.34424800  0.33362200  0.33697100  1.0
  Yb  Yb4  1  0.66975100  0.44499800  0.27880600  1.0
  Yb  Yb5  1  0.34719800  0.55630700  0.33795500  1.0
  Yb  Yb6  1  0.67716900  0.66926400  0.28127900  1.0
  Yb  Yb7  1  0.00229300  0.77786400  0.38965300  1.0
  Yb  Yb8  1  0.68178800  0.88825900  0.28281800  1.0
  Yb  Yb9  1  0.00491600  0.00051400  0.55719500  1.0
  Yb  Yb10  1  0.32434100  0.11091000  0.49700300  1.0
  Yb  Yb11  1  0.00926200  0.22191900  0.55864300  1.0
  Yb  Yb12  1  0.33333333  0.33333333  0.50000000  1.0
  Yb  Yb13  1  0.65740500  0.44474700  0.44135700  1.0
  Yb  Yb14  1  0.34232500  0.55575700  0.50299700  1.0
  Yb  Yb15  1  0.66175100  0.66615300  0.44280500  1.0
  Yb  Yb16  1  0.99678400  0.77778000  0.55448400  1.0
  Yb  Yb17  1  0.66988300  0.88888700  0.44551600  1.0
  Yb  Yb18  1  0.98949800  0.99740300  0.71872100  1.0
  Yb  Yb19  1  0.31946800  0.11036000  0.66204500  1.0
  Yb  Yb20  1  0.99691600  0.22166800  0.72119400  1.0
  Yb  Yb21  1  0.32241800  0.33304400  0.66302900  1.0
  Yb  Yb22  1  0.64958900  0.44417600  0.60541800  1.0
  Yb  Yb23  1  0.33296200  0.55528900  0.66654300  1.0
  Yb  Yb24  1  0.65473900  0.66710300  0.60713500  1.0
  Yb  Yb25  1  0.98487900  0.77840800  0.71718200  1.0
  Yb  Yb26  1  0.66437400  0.88880300  0.61034700  1.0
