# generated using pymatgen
data_Ce
_symmetry_space_group_name_H-M   'P 1'
_cell_length_a   3.33312604
_cell_length_b   9.96307521
_cell_length_c   31.35404757
_cell_angle_alpha   92.05659260
_cell_angle_beta   89.99601917
_cell_angle_gamma   89.98277409
_symmetry_Int_Tables_number   1
_chemical_formula_structural   Ce
_chemical_formula_sum   Ce20
_cell_volume   1040.54029803
_cell_formula_units_Z   20
loop_
 _symmetry_equiv_pos_site_id
 _symmetry_equiv_pos_as_xyz
  1  'x, y, z'
loop_
 _atom_site_type_symbol
 _atom_site_label
 _atom_site_symmetry_multiplicity
 _atom_site_fract_x
 _atom_site_fract_y
 _atom_site_fract_z
 _atom_site_occupancy
  Ce  Ce0  1  0.99973600  0.29949100  0.71414900  1.0
  Ce  Ce1  1  0.99979300  0.85525700  0.66497500  1.0
  Ce  Ce2  1  0.99999300  0.51156200  0.51342200  1.0
  Ce  Ce3  1  0.99992500  0.41293100  0.61582100  1.0
  Ce  Ce4  1  0.99996500  0.95947000  0.56389700  1.0
  Ce  Ce5  1  0.49987000  0.13382800  0.63501000  1.0
  Ce  Ce6  1  0.49996000  0.68623100  0.58641900  1.0
  Ce  Ce7  1  0.49976000  0.60176700  0.69109100  1.0
  Ce  Ce8  1  0.49998900  0.23967200  0.53727000  1.0
  Ce  Ce9  1  0.49986100  0.01303400  0.73168100  1.0
  Ce  Ce10  1  0.00004100  0.06002300  0.46281900  1.0
  Ce  Ce11  1  0.00003400  0.61346100  0.41360700  1.0
  Ce  Ce12  1  0.00009700  0.28741000  0.26822200  1.0
  Ce  Ce13  1  0.00014500  0.16636600  0.36501600  1.0
  Ce  Ce14  1  0.00023300  0.69837600  0.30885400  1.0
  Ce  Ce15  1  0.50007700  0.88701300  0.38420400  1.0
  Ce  Ce16  1  0.50019000  0.44481200  0.33495400  1.0
  Ce  Ce17  1  0.50005500  0.34024800  0.43615100  1.0
  Ce  Ce18  1  0.50024200  0.00118700  0.28579800  1.0
  Ce  Ce19  1  0.50003400  0.78786200  0.48663900  1.0
