# generated using pymatgen
data_Li
_symmetry_space_group_name_H-M   'P 1'
_cell_length_a   4.84994610
_cell_length_b   5.69339534
_cell_length_c   32.30965146
_cell_angle_alpha   90.20161603
_cell_angle_beta   90.06922754
_cell_angle_gamma   90.03363049
_symmetry_Int_Tables_number   1
_chemical_formula_structural   Li
_chemical_formula_sum   Li22
_cell_volume   892.14910681
_cell_formula_units_Z   22
loop_
 _symmetry_equiv_pos_site_id
 _symmetry_equiv_pos_as_xyz
  1  'x, y, z'
loop_
 _atom_site_type_symbol
 _atom_site_label
 _atom_site_symmetry_multiplicity
 _atom_site_fract_x
 _atom_site_fract_y
 _atom_site_fract_z
 _atom_site_occupancy
  Li  Li0  1  0.50034000  0.32531200  0.98100800  1.0
  Li  Li1  1  0.50011200  0.84135500  0.93807600  1.0
  Li  Li2  1  0.00009500  0.52551900  0.94368200  1.0
  Li  Li3  1  0.99996500  0.06797400  0.90899200  1.0
  Li  Li4  1  0.99986600  0.63431400  0.85714000  1.0
  Li  Li5  1  0.49991000  0.46596200  0.79558900  1.0
  Li  Li6  1  0.00034600  0.95098100  0.99720100  1.0
  Li  Li7  1  0.49992500  0.37953600  0.88798100  1.0
  Li  Li8  1  0.49989700  0.91595400  0.84561800  1.0
  Li  Li9  1  0.99989100  0.17211300  0.81855200  1.0
  Li  Li10  1  0.99997900  0.72511300  0.76779900  1.0
  Li  Li11  1  0.00009100  0.26142500  0.72711800  1.0
  Li  Li12  1  0.00014600  0.81130500  0.67711200  1.0
  Li  Li13  1  0.50009300  0.09304600  0.66557200  1.0
  Li  Li14  1  0.49995600  0.65953100  0.61376200  1.0
  Li  Li15  1  0.50001400  0.00222800  0.75492800  1.0
  Li  Li16  1  0.50007200  0.55556100  0.70420300  1.0
  Li  Li17  1  0.00013400  0.34758200  0.63476100  1.0
  Li  Li18  1  0.99999500  0.88584300  0.58461000  1.0
  Li  Li19  1  0.99968500  0.40180100  0.54169900  1.0
  Li  Li20  1  0.49984000  0.20151400  0.57903700  1.0
  Li  Li21  1  0.49964900  0.77603200  0.52555900  1.0
