# generated using pymatgen
data_Yb
_symmetry_space_group_name_H-M   'P 1'
_cell_length_a   6.69473814
_cell_length_b   28.57003527
_cell_length_c   23.22248553
_cell_angle_alpha   93.84236447
_cell_angle_beta   89.99354179
_cell_angle_gamma   83.29423859
_symmetry_Int_Tables_number   1
_chemical_formula_structural   Yb
_chemical_formula_sum   Yb54
_cell_volume   4401.29596035
_cell_formula_units_Z   54
loop_
 _symmetry_equiv_pos_site_id
 _symmetry_equiv_pos_as_xyz
  1  'x, y, z'
loop_
 _atom_site_type_symbol
 _atom_site_label
 _atom_site_symmetry_multiplicity
 _atom_site_fract_x
 _atom_site_fract_y
 _atom_site_fract_z
 _atom_site_occupancy
  Yb  Yb0  1  0.99849800  0.99914200  0.40513200  1.0
  Yb  Yb1  1  0.49478000  0.99889100  0.31900800  1.0
  Yb  Yb2  1  0.79995600  0.10942900  0.32896000  1.0
  Yb  Yb3  1  0.28533700  0.11092000  0.41448000  1.0
  Yb  Yb4  1  0.86530000  0.22561800  0.25326900  1.0
  Yb  Yb5  1  0.38093700  0.22199900  0.33981800  1.0
  Yb  Yb6  1  0.66614000  0.33438800  0.34825500  1.0
  Yb  Yb7  1  0.16952800  0.33489800  0.26439800  1.0
  Yb  Yb8  1  0.95892100  0.44442400  0.35876500  1.0
  Yb  Yb9  1  0.48074700  0.44635300  0.27029900  1.0
  Yb  Yb10  1  0.54137500  0.55592200  0.36810500  1.0
  Yb  Yb11  1  0.01912800  0.55408600  0.27941900  1.0
  Yb  Yb12  1  0.83373600  0.66666667  0.37610500  1.0
  Yb  Yb13  1  0.33333333  0.66666667  0.29085200  1.0
  Yb  Yb14  1  0.64768600  0.77933200  0.29810900  1.0
  Yb  Yb15  1  0.12583200  0.77746000  0.38647400  1.0
  Yb  Yb16  1  0.70730800  0.88915600  0.39597600  1.0
  Yb  Yb17  1  0.18495500  0.88730100  0.30716900  1.0
  Yb  Yb18  1  0.00012200  0.99977000  0.57023000  1.0
  Yb  Yb19  1  0.49919100  0.00044200  0.48627700  1.0
  Yb  Yb20  1  0.78386800  0.11104300  0.49471300  1.0
  Yb  Yb21  1  0.28472200  0.11058300  0.58150500  1.0
  Yb  Yb22  1  0.88194200  0.22275500  0.41848100  1.0
  Yb  Yb23  1  0.38281100  0.22229300  0.50528600  1.0
  Yb  Yb24  1  0.66747200  0.33288600  0.51373400  1.0
  Yb  Yb25  1  0.16656600  0.33356400  0.42976900  1.0
  Yb  Yb26  1  0.95204400  0.44437600  0.52456400  1.0
  Yb  Yb27  1  0.45218800  0.44408100  0.43821500  1.0
  Yb  Yb28  1  0.54721100  0.55587700  0.53400200  1.0
  Yb  Yb29  1  0.04760500  0.55591000  0.44760200  1.0
  Yb  Yb30  1  0.83321400  0.66666667  0.54217000  1.0
  Yb  Yb31  1  0.33342500  0.66666667  0.45782300  1.0
  Yb  Yb32  1  0.61943300  0.77745500  0.46598700  1.0
  Yb  Yb33  1  0.11902500  0.77742600  0.55240100  1.0
  Yb  Yb34  1  0.71448900  0.88924800  0.56178500  1.0
  Yb  Yb35  1  0.21462700  0.88895200  0.47543800  1.0
  Yb  Yb36  1  0.99710200  0.99843600  0.73559100  1.0
  Yb  Yb37  1  0.50053900  0.99893900  0.65173500  1.0
  Yb  Yb38  1  0.78570100  0.11132900  0.66016600  1.0
  Yb  Yb39  1  0.30136700  0.10770100  0.74670800  1.0
  Yb  Yb40  1  0.88132800  0.22241700  0.58552900  1.0
  Yb  Yb41  1  0.36677200  0.22389100  0.67103700  1.0
  Yb  Yb42  1  0.67188700  0.33444900  0.68101800  1.0
  Yb  Yb43  1  0.16816700  0.33419000  0.59487700  1.0
  Yb  Yb44  1  0.98176500  0.44605500  0.69285300  1.0
  Yb  Yb45  1  0.45936600  0.44416900  0.60402700  1.0
  Yb  Yb46  1  0.51893200  0.55399700  0.70188600  1.0
  Yb  Yb47  1  0.04083300  0.55587600  0.61351900  1.0
  Yb  Yb48  1  0.83338200  0.66666667  0.70914400  1.0
  Yb  Yb49  1  0.33292500  0.66666667  0.62389200  1.0
  Yb  Yb50  1  0.62531300  0.77741300  0.63189900  1.0
  Yb  Yb51  1  0.14757900  0.77925300  0.72059700  1.0
  Yb  Yb52  1  0.68586300  0.88699700  0.72970800  1.0
  Yb  Yb53  1  0.20772500  0.88890500  0.64123300  1.0
