# generated using pymatgen
data_Nd
_symmetry_space_group_name_H-M   'P 1'
_cell_length_a   11.91667700
_cell_length_b   6.42062400
_cell_length_c   22.23746300
_cell_angle_alpha   90.00000000
_cell_angle_beta   90.00000000
_cell_angle_gamma   90.00000000
_symmetry_Int_Tables_number   1
_chemical_formula_structural   Nd
_chemical_formula_sum   Nd24
_cell_volume   1701.44393997
_cell_formula_units_Z   24
loop_
 _symmetry_equiv_pos_site_id
 _symmetry_equiv_pos_as_xyz
  1  'x, y, z'
loop_
 _atom_site_type_symbol
 _atom_site_label
 _atom_site_symmetry_multiplicity
 _atom_site_fract_x
 _atom_site_fract_y
 _atom_site_fract_z
 _atom_site_occupancy
  Nd  Nd0  1  0.00000000  0.50000000  0.08687500  1.0
  Nd  Nd1  1  0.00000000  0.00000000  0.00402800  1.0
  Nd  Nd2  1  0.50000000  0.50000000  0.08687500  1.0
  Nd  Nd3  1  0.50000000  0.00000000  0.00402800  1.0
  Nd  Nd4  1  0.75000000  0.36726900  0.00140200  1.0
  Nd  Nd5  1  0.75000000  0.84959100  0.08542000  1.0
  Nd  Nd6  1  0.25000000  0.63273100  0.00140200  1.0
  Nd  Nd7  1  0.25000000  0.15040900  0.08542000  1.0
  Nd  Nd8  1  0.00000000  0.50000000  0.25171200  1.0
  Nd  Nd9  1  0.00000000  0.00000000  0.16495500  1.0
  Nd  Nd10  1  0.50000000  0.50000000  0.25171200  1.0
  Nd  Nd11  1  0.50000000  0.00000000  0.16495500  1.0
  Nd  Nd12  1  0.75000000  0.35039100  0.16465500  1.0
  Nd  Nd13  1  0.75000000  0.85039100  0.25201200  1.0
  Nd  Nd14  1  0.25000000  0.64960900  0.16465500  1.0
  Nd  Nd15  1  0.25000000  0.14960900  0.25201200  1.0
  Nd  Nd16  1  0.00000000  0.50000000  0.41263900  1.0
  Nd  Nd17  1  0.00000000  0.00000000  0.32979100  1.0
  Nd  Nd18  1  0.50000000  0.50000000  0.41263900  1.0
  Nd  Nd19  1  0.50000000  0.00000000  0.32979100  1.0
  Nd  Nd20  1  0.75000000  0.34959100  0.33124600  1.0
  Nd  Nd21  1  0.75000000  0.86726900  0.41526500  1.0
  Nd  Nd22  1  0.25000000  0.65040900  0.33124600  1.0
  Nd  Nd23  1  0.25000000  0.13273100  0.41526500  1.0
