# generated using pymatgen
data_Nd
_symmetry_space_group_name_H-M   'P 1'
_cell_length_a   9.80497493
_cell_length_b   12.49154639
_cell_length_c   22.23299300
_cell_angle_alpha   98.52959380
_cell_angle_beta   79.10789721
_cell_angle_gamma   77.03263062
_symmetry_Int_Tables_number   1
_chemical_formula_structural   Nd
_chemical_formula_sum   Nd36
_cell_volume   2553.55273836
_cell_formula_units_Z   36
loop_
 _symmetry_equiv_pos_site_id
 _symmetry_equiv_pos_as_xyz
  1  'x, y, z'
loop_
 _atom_site_type_symbol
 _atom_site_label
 _atom_site_symmetry_multiplicity
 _atom_site_fract_x
 _atom_site_fract_y
 _atom_site_fract_z
 _atom_site_occupancy
  Nd  Nd0  1  0.97621200  0.00250800  0.01236300  1.0
  Nd  Nd1  1  0.33144700  0.00465400  0.05960600  1.0
  Nd  Nd2  1  0.65976500  0.99762200  0.11599100  1.0
  Nd  Nd3  1  0.82195500  0.49617000  0.05307700  1.0
  Nd  Nd4  1  0.17037300  0.49867700  0.11665800  1.0
  Nd  Nd5  1  0.48293500  0.52608500  0.01083900  1.0
  Nd  Nd6  1  0.01667600  0.24628600  0.10153200  1.0
  Nd  Nd7  1  0.35433300  0.25108900  0.16307200  1.0
  Nd  Nd8  1  0.66276900  0.25045000  0.04889600  1.0
  Nd  Nd9  1  0.65218900  0.75439300  0.01223800  1.0
  Nd  Nd10  1  0.97592600  0.74612200  0.06896100  1.0
  Nd  Nd11  1  0.30557200  0.75719000  0.12248300  1.0
  Nd  Nd12  1  0.99996400  0.99817500  0.16626700  1.0
  Nd  Nd13  1  0.32778800  0.99951100  0.22281200  1.0
  Nd  Nd14  1  0.66584800  0.99990900  0.27681400  1.0
  Nd  Nd15  1  0.83680300  0.49775200  0.21838400  1.0
  Nd  Nd16  1  0.15940300  0.50335400  0.28112500  1.0
  Nd  Nd17  1  0.50189800  0.50069200  0.16603200  1.0
  Nd  Nd18  1  0.01585900  0.25402400  0.27020800  1.0
  Nd  Nd19  1  0.35688100  0.24637700  0.32314800  1.0
  Nd  Nd20  1  0.69322900  0.24819500  0.20835000  1.0
  Nd  Nd21  1  0.64744800  0.74432400  0.17173000  1.0
  Nd  Nd22  1  0.98150800  0.74850800  0.23408200  1.0
  Nd  Nd23  1  0.31408200  0.74832300  0.29016800  1.0
  Nd  Nd24  1  0.99768600  0.99929900  0.33183000  1.0
  Nd  Nd25  1  0.33470200  0.99654300  0.38507900  1.0
  Nd  Nd26  1  0.65946700  0.99960700  0.43693300  1.0
  Nd  Nd27  1  0.82411700  0.51362800  0.39171800  1.0
  Nd  Nd28  1  0.16922700  0.49543900  0.43636100  1.0
  Nd  Nd29  1  0.50198700  0.49177600  0.33123300  1.0
  Nd  Nd30  1  0.03373700  0.25120700  0.43330700  1.0
  Nd  Nd31  1  0.37161400  0.25364100  0.47703100  1.0
  Nd  Nd32  1  0.69931800  0.24292800  0.37668800  1.0
  Nd  Nd33  1  0.64746900  0.74927300  0.33571700  1.0
  Nd  Nd34  1  0.99117100  0.75149800  0.39986600  1.0
  Nd  Nd35  1  0.35864400  0.73477000  0.44940400  1.0
