# generated using pymatgen
data_Nd
_symmetry_space_group_name_H-M   'P 1'
_cell_length_a   11.91086800
_cell_length_b   9.80801142
_cell_length_c   22.24248000
_cell_angle_alpha   79.10660495
_cell_angle_beta   90.00000000
_cell_angle_gamma   90.00000000
_symmetry_Int_Tables_number   1
_chemical_formula_structural   Nd
_chemical_formula_sum   Nd36
_cell_volume   2551.58740112
_cell_formula_units_Z   36
loop_
 _symmetry_equiv_pos_site_id
 _symmetry_equiv_pos_as_xyz
  1  'x, y, z'
loop_
 _atom_site_type_symbol
 _atom_site_label
 _atom_site_symmetry_multiplicity
 _atom_site_fract_x
 _atom_site_fract_y
 _atom_site_fract_z
 _atom_site_occupancy
  Nd  Nd0  1  0.00096700  0.65832600  0.11794000  1.0
  Nd  Nd1  1  0.00394000  0.33746900  0.05726700  1.0
  Nd  Nd2  1  0.99747200  0.96607100  0.00993300  1.0
  Nd  Nd3  1  0.49903300  0.65832600  0.11794000  1.0
  Nd  Nd4  1  0.49606000  0.33746900  0.05726700  1.0
  Nd  Nd5  1  0.50252800  0.96607100  0.00993300  1.0
  Nd  Nd6  1  0.75000000  0.59864700  0.03281300  1.0
  Nd  Nd7  1  0.75000000  0.23430900  0.13913400  1.0
  Nd  Nd8  1  0.75000000  0.88647000  0.10006800  1.0
  Nd  Nd9  1  0.25000000  0.73812600  0.02374700  1.0
  Nd  Nd10  1  0.25000000  0.43366400  0.13706200  1.0
  Nd  Nd11  1  0.25000000  0.09941600  0.07112300  1.0
  Nd  Nd12  1  0.00197000  0.66645200  0.27698400  1.0
  Nd  Nd13  1  0.99666400  0.32519400  0.22335200  1.0
  Nd  Nd14  1  0.00182300  0.00424200  0.16374000  1.0
  Nd  Nd15  1  0.49803000  0.66645200  0.27698400  1.0
  Nd  Nd16  1  0.50333600  0.32519400  0.22335200  1.0
  Nd  Nd17  1  0.49817700  0.00424200  0.16374000  1.0
  Nd  Nd18  1  0.75000000  0.55954500  0.19930700  1.0
  Nd  Nd19  1  0.75000000  0.22889400  0.31863400  1.0
  Nd  Nd20  1  0.75000000  0.90615700  0.26002900  1.0
  Nd  Nd21  1  0.25000000  0.77456200  0.18269500  1.0
  Nd  Nd22  1  0.25000000  0.43459800  0.29998500  1.0
  Nd  Nd23  1  0.25000000  0.10001200  0.24172800  1.0
  Nd  Nd24  1  0.98795600  0.65400300  0.43940600  1.0
  Nd  Nd25  1  0.99904400  0.32996100  0.38665800  1.0
  Nd  Nd26  1  0.00017200  0.99186500  0.33067600  1.0
  Nd  Nd27  1  0.51204400  0.65400300  0.43940600  1.0
  Nd  Nd28  1  0.50095600  0.32996100  0.38665800  1.0
  Nd  Nd29  1  0.49982800  0.99186500  0.33067600  1.0
  Nd  Nd30  1  0.75000000  0.57204100  0.35559100  1.0
  Nd  Nd31  1  0.75000000  0.34566300  0.48028900  1.0
  Nd  Nd32  1  0.75000000  0.91005600  0.42329300  1.0
  Nd  Nd33  1  0.25000000  0.76953000  0.35396900  1.0
  Nd  Nd34  1  0.25000000  0.43647400  0.45926200  1.0
  Nd  Nd35  1  0.25000000  0.10467400  0.40936200  1.0
