# generated using pymatgen
data_Nd
_symmetry_space_group_name_H-M   'P 1'
_cell_length_a   6.41433916
_cell_length_b   12.50456534
_cell_length_c   22.24240818
_cell_angle_alpha   107.24493575
_cell_angle_beta   90.00000871
_cell_angle_gamma   89.99999808
_symmetry_Int_Tables_number   1
_chemical_formula_structural   Nd
_chemical_formula_sum   Nd24
_cell_volume   1703.83166468
_cell_formula_units_Z   24
loop_
 _symmetry_equiv_pos_site_id
 _symmetry_equiv_pos_as_xyz
  1  'x, y, z'
loop_
 _atom_site_type_symbol
 _atom_site_label
 _atom_site_symmetry_multiplicity
 _atom_site_fract_x
 _atom_site_fract_y
 _atom_site_fract_z
 _atom_site_occupancy
  Nd  Nd0  1  0.01615900  0.01984000  0.01157200  1.0
  Nd  Nd1  1  0.51128500  0.99568200  0.08612200  1.0
  Nd  Nd2  1  0.98871500  0.49568200  0.08612200  1.0
  Nd  Nd3  1  0.48384100  0.51984000  0.01157200  1.0
  Nd  Nd4  1  0.33950300  0.75246100  0.12882000  1.0
  Nd  Nd5  1  0.86934100  0.74890300  0.04153400  1.0
  Nd  Nd6  1  0.16049700  0.25246100  0.12882000  1.0
  Nd  Nd7  1  0.63065900  0.24890300  0.04153400  1.0
  Nd  Nd8  1  0.00618600  0.99818300  0.16592600  1.0
  Nd  Nd9  1  0.51002600  0.00079700  0.25154900  1.0
  Nd  Nd10  1  0.98997400  0.50079700  0.25154900  1.0
  Nd  Nd11  1  0.49381400  0.49818300  0.16592600  1.0
  Nd  Nd12  1  0.34918300  0.74902200  0.29250000  1.0
  Nd  Nd13  1  0.84115400  0.74743600  0.20562200  1.0
  Nd  Nd14  1  0.15081700  0.24902200  0.29250000  1.0
  Nd  Nd15  1  0.65884600  0.24743600  0.20562200  1.0
  Nd  Nd16  1  0.01220600  0.99700200  0.32985400  1.0
  Nd  Nd17  1  0.52200600  0.00262900  0.41369400  1.0
  Nd  Nd18  1  0.97799400  0.50262900  0.41369400  1.0
  Nd  Nd19  1  0.48779400  0.49700200  0.32985400  1.0
  Nd  Nd20  1  0.34147500  0.74099900  0.44990700  1.0
  Nd  Nd21  1  0.83252900  0.74704600  0.37289900  1.0
  Nd  Nd22  1  0.15852500  0.24099900  0.44990700  1.0
  Nd  Nd23  1  0.66747100  0.24704600  0.37289900  1.0
