# generated using pymatgen
data_Nd
_symmetry_space_group_name_H-M   'P 1'
_cell_length_a   9.80633828
_cell_length_b   12.48742636
_cell_length_c   22.23556500
_cell_angle_alpha   81.46657348
_cell_angle_beta   79.10815079
_cell_angle_gamma   73.70674345
_symmetry_Int_Tables_number   1
_chemical_formula_structural   Nd
_chemical_formula_sum   Nd36
_cell_volume   2553.26779233
_cell_formula_units_Z   36
loop_
 _symmetry_equiv_pos_site_id
 _symmetry_equiv_pos_as_xyz
  1  'x, y, z'
loop_
 _atom_site_type_symbol
 _atom_site_label
 _atom_site_symmetry_multiplicity
 _atom_site_fract_x
 _atom_site_fract_y
 _atom_site_fract_z
 _atom_site_occupancy
  Nd  Nd0  1  0.02877400  0.00764500  0.98846800  1.0
  Nd  Nd1  1  0.66666667  0.00299700  0.93979100  1.0
  Nd  Nd2  1  0.33857700  0.99869000  0.88307300  1.0
  Nd  Nd3  1  0.84293400  0.50949300  0.96617500  1.0
  Nd  Nd4  1  0.50023700  0.49713100  0.91965600  1.0
  Nd  Nd5  1  0.16570600  0.49924300  0.85559700  1.0
  Nd  Nd6  1  0.81820700  0.25025800  0.91369000  1.0
  Nd  Nd7  1  0.47989000  0.25116900  0.84957300  1.0
  Nd  Nd8  1  0.17074800  0.25044000  0.96240300  1.0
  Nd  Nd9  1  0.85480400  0.75313500  0.86544900  1.0
  Nd  Nd10  1  0.51051100  0.75610000  0.97388100  1.0
  Nd  Nd11  1  0.18876100  0.74691900  0.92068900  1.0
  Nd  Nd12  1  0.00117500  0.99901800  0.83382800  1.0
  Nd  Nd13  1  0.67181700  0.99863600  0.77637300  1.0
  Nd  Nd14  1  0.33853800  0.00233900  0.72157800  1.0
  Nd  Nd15  1  0.82670300  0.49901200  0.81038600  1.0
  Nd  Nd16  1  0.49901300  0.50172200  0.75098900  1.0
  Nd  Nd17  1  0.16922400  0.50247600  0.69221800  1.0
  Nd  Nd18  1  0.81266600  0.24800600  0.74683400  1.0
  Nd  Nd19  1  0.48555500  0.25344200  0.68524900  1.0
  Nd  Nd20  1  0.14425900  0.24977700  0.80331900  1.0
  Nd  Nd21  1  0.85046200  0.74831500  0.69732100  1.0
  Nd  Nd22  1  0.51827000  0.74589100  0.81451500  1.0
  Nd  Nd23  1  0.18449800  0.75087700  0.75213900  1.0
  Nd  Nd24  1  0.00211900  0.99807700  0.66739600  1.0
  Nd  Nd25  1  0.66766100  0.99791500  0.61313700  1.0
  Nd  Nd26  1  0.33680400  0.00257300  0.56152500  1.0
  Nd  Nd27  1  0.83025700  0.49551100  0.64736800  1.0
  Nd  Nd28  1  0.49905700  0.50962900  0.58068800  1.0
  Nd  Nd29  1  0.15352200  0.48941800  0.53776500  1.0
  Nd  Nd30  1  0.81415400  0.25587100  0.57648900  1.0
  Nd  Nd31  1  0.47269500  0.25080400  0.53115000  1.0
  Nd  Nd32  1  0.14075300  0.24717600  0.63870900  1.0
  Nd  Nd33  1  0.82440500  0.72954100  0.53807100  1.0
  Nd  Nd34  1  0.51685700  0.75200000  0.64893000  1.0
  Nd  Nd35  1  0.17377000  0.74875300  0.58557600  1.0
