# generated using pymatgen
data_Nd
_symmetry_space_group_name_H-M   'P 1'
_cell_length_a   6.41821900
_cell_length_b   24.13488662
_cell_length_c   22.24087700
_cell_angle_alpha   94.40428808
_cell_angle_beta   90.00000000
_cell_angle_gamma   82.35900243
_symmetry_Int_Tables_number   1
_chemical_formula_structural   Nd
_chemical_formula_sum   Nd48
_cell_volume   3404.32235837
_cell_formula_units_Z   48
loop_
 _symmetry_equiv_pos_site_id
 _symmetry_equiv_pos_as_xyz
  1  'x, y, z'
loop_
 _atom_site_type_symbol
 _atom_site_label
 _atom_site_symmetry_multiplicity
 _atom_site_fract_x
 _atom_site_fract_y
 _atom_site_fract_z
 _atom_site_occupancy
  Nd  Nd0  1  0.75184000  0.49872900  0.04495200  1.0
  Nd  Nd1  1  0.99271900  0.01694200  0.00990900  1.0
  Nd  Nd2  1  0.50786200  0.99856200  0.08510400  1.0
  Nd  Nd3  1  0.25130800  0.49927000  0.12825500  1.0
  Nd  Nd4  1  0.62133800  0.74777600  0.06511700  1.0
  Nd  Nd5  1  0.88012200  0.24975800  0.02712700  1.0
  Nd  Nd6  1  0.37935600  0.25046800  0.10991000  1.0
  Nd  Nd7  1  0.12562100  0.74988600  0.14765200  1.0
  Nd  Nd8  1  0.83798900  0.62387500  0.13673600  1.0
  Nd  Nd9  1  0.09432000  0.12907900  0.10250500  1.0
  Nd  Nd10  1  0.55799200  0.12806900  0.01465400  1.0
  Nd  Nd11  1  0.31875900  0.62352300  0.05254300  1.0
  Nd  Nd12  1  0.41228300  0.87417700  0.15523000  1.0
  Nd  Nd13  1  0.66433000  0.37513000  0.11765500  1.0
  Nd  Nd14  1  0.18700800  0.37439200  0.03268500  1.0
  Nd  Nd15  1  0.93302800  0.87641900  0.07053600  1.0
  Nd  Nd16  1  0.74987600  0.49990200  0.20659300  1.0
  Nd  Nd17  1  0.00371400  0.00005200  0.16633400  1.0
  Nd  Nd18  1  0.50420800  0.99965600  0.25107100  1.0
  Nd  Nd19  1  0.24987800  0.49937400  0.29277200  1.0
  Nd  Nd20  1  0.62553400  0.74907000  0.22548900  1.0
  Nd  Nd21  1  0.87562400  0.25105200  0.18866700  1.0
  Nd  Nd22  1  0.37664600  0.24948000  0.27382700  1.0
  Nd  Nd23  1  0.12213800  0.75091700  0.31227700  1.0
  Nd  Nd24  1  0.83701400  0.62433400  0.30292600  1.0
  Nd  Nd25  1  0.08850800  0.12527000  0.26552700  1.0
  Nd  Nd26  1  0.59544400  0.12397100  0.17586800  1.0
  Nd  Nd27  1  0.33557600  0.62454600  0.21592700  1.0
  Nd  Nd28  1  0.41342900  0.87474500  0.32216400  1.0
  Nd  Nd29  1  0.66250500  0.37524300  0.28372100  1.0
  Nd  Nd30  1  0.16311600  0.37489000  0.19597300  1.0
  Nd  Nd31  1  0.90967800  0.87554000  0.23622800  1.0
  Nd  Nd32  1  0.74999100  0.50002000  0.37109400  1.0
  Nd  Nd33  1  0.01045800  0.99930400  0.33289700  1.0
  Nd  Nd34  1  0.50848700  0.00094400  0.41400900  1.0
  Nd  Nd35  1  0.24897100  0.49958300  0.45407700  1.0
  Nd  Nd36  1  0.62543100  0.74770000  0.38820600  1.0
  Nd  Nd37  1  0.87579100  0.25079000  0.35235100  1.0
  Nd  Nd38  1  0.37674100  0.25062700  0.43469400  1.0
  Nd  Nd39  1  0.11427200  0.74762400  0.47271400  1.0
  Nd  Nd40  1  0.81638500  0.62364300  0.46627700  1.0
  Nd  Nd41  1  0.06933800  0.12640100  0.42780800  1.0
  Nd  Nd42  1  0.59171000  0.12448900  0.34328100  1.0
  Nd  Nd43  1  0.33404400  0.62415400  0.38190400  1.0
  Nd  Nd44  1  0.40800900  0.86681100  0.48086200  1.0
  Nd  Nd45  1  0.68030200  0.37587800  0.44702200  1.0
  Nd  Nd46  1  0.16268300  0.37502700  0.36258200  1.0
  Nd  Nd47  1  0.89862200  0.87290800  0.40429100  1.0
