# generated using pymatgen
data_Nd
_symmetry_space_group_name_H-M   'P 1'
_cell_length_a   3.70369665
_cell_length_b   12.49993403
_cell_length_c   29.62957382
_cell_angle_alpha   107.23534523
_cell_angle_beta   119.99998553
_cell_angle_gamma   81.48035303
_symmetry_Int_Tables_number   1
_chemical_formula_structural   Nd
_chemical_formula_sum   Nd16
_cell_volume   1134.60879835
_cell_formula_units_Z   16
loop_
 _symmetry_equiv_pos_site_id
 _symmetry_equiv_pos_as_xyz
  1  'x, y, z'
loop_
 _atom_site_type_symbol
 _atom_site_label
 _atom_site_symmetry_multiplicity
 _atom_site_fract_x
 _atom_site_fract_y
 _atom_site_fract_z
 _atom_site_occupancy
  Nd  Nd0  1  0.03362700  0.01113200  0.00979800  1.0
  Nd  Nd1  1  0.00859300  0.49955500  0.06459300  1.0
  Nd  Nd2  1  0.69155100  0.25011100  0.07915200  1.0
  Nd  Nd3  1  0.33634800  0.75285900  0.05319400  1.0
  Nd  Nd4  1  0.00074600  0.99662700  0.12476500  1.0
  Nd  Nd5  1  0.99032200  0.50040000  0.18513100  1.0
  Nd  Nd6  1  0.66588500  0.25024500  0.19775200  1.0
  Nd  Nd7  1  0.32553800  0.74810000  0.17489700  1.0
  Nd  Nd8  1  0.00005600  0.00086700  0.25012200  1.0
  Nd  Nd9  1  0.00734600  0.50010100  0.31434900  1.0
  Nd  Nd10  1  0.67182100  0.24960900  0.32415700  1.0
  Nd  Nd11  1  0.33397800  0.74925600  0.30215100  1.0
  Nd  Nd12  1  0.98227000  0.99749000  0.37025400  1.0
  Nd  Nd13  1  0.98609100  0.49898000  0.43389500  1.0
  Nd  Nd14  1  0.64637600  0.24745300  0.44252600  1.0
  Nd  Nd15  1  0.31945200  0.74721500  0.42326500  1.0
