# generated using pymatgen
data_Ce
_symmetry_space_group_name_H-M   'P 1'
_cell_length_a   3.33309489
_cell_length_b   5.76669883
_cell_length_c   25.45753000
_cell_angle_alpha   91.88038880
_cell_angle_beta   90.00000000
_cell_angle_gamma   106.79780835
_symmetry_Int_Tables_number   1
_chemical_formula_structural   Ce
_chemical_formula_sum   Ce9
_cell_volume   468.16384773
_cell_formula_units_Z   9
loop_
 _symmetry_equiv_pos_site_id
 _symmetry_equiv_pos_as_xyz
  1  'x, y, z'
loop_
 _atom_site_type_symbol
 _atom_site_label
 _atom_site_symmetry_multiplicity
 _atom_site_fract_x
 _atom_site_fract_y
 _atom_site_fract_z
 _atom_site_occupancy
  Ce  Ce0  1  0.61922800  0.23845500  0.38989600  1.0
  Ce  Ce1  1  0.04633700  0.09267400  0.28600500  1.0
  Ce  Ce2  1  0.33846000  0.67692100  0.32715000  1.0
  Ce  Ce3  1  0.44167500  0.88335100  0.55796800  1.0
  Ce  Ce4  1  0.89165800  0.78331600  0.44203200  1.0
  Ce  Ce5  1  0.16666700  0.33333333  0.50000000  1.0
  Ce  Ce6  1  0.28699700  0.57399300  0.71399500  1.0
  Ce  Ce7  1  0.71410500  0.42821200  0.61010400  1.0
  Ce  Ce8  1  0.99487300  0.98974600  0.67285000  1.0
