# generated using pymatgen
data_Nd
_symmetry_space_group_name_H-M   'P 1'
_cell_length_a   3.70490985
_cell_length_b   14.04807949
_cell_length_c   25.66309493
_cell_angle_alpha   117.17443988
_cell_angle_beta   89.99999484
_cell_angle_gamma   74.70845562
_symmetry_Int_Tables_number   1
_chemical_formula_structural   Nd
_chemical_formula_sum   Nd16
_cell_volume   1134.83621682
_cell_formula_units_Z   16
loop_
 _symmetry_equiv_pos_site_id
 _symmetry_equiv_pos_as_xyz
  1  'x, y, z'
loop_
 _atom_site_type_symbol
 _atom_site_label
 _atom_site_symmetry_multiplicity
 _atom_site_fract_x
 _atom_site_fract_y
 _atom_site_fract_z
 _atom_site_occupancy
  Nd  Nd0  1  0.00720800  0.99279200  0.00488100  1.0
  Nd  Nd1  1  0.50796400  0.99203600  0.12034300  1.0
  Nd  Nd2  1  0.49079700  0.50920300  0.14029500  1.0
  Nd  Nd3  1  0.01740100  0.48259900  0.01858200  1.0
  Nd  Nd4  1  0.25236900  0.24763100  0.09233100  1.0
  Nd  Nd5  1  0.75007200  0.24992800  0.21604200  1.0
  Nd  Nd6  1  0.26335800  0.73664200  0.02622900  1.0
  Nd  Nd7  1  0.75715600  0.74284400  0.14895000  1.0
  Nd  Nd8  1  0.00804600  0.99195400  0.24501600  1.0
  Nd  Nd9  1  0.47624400  0.02375600  0.37631400  1.0
  Nd  Nd10  1  0.50755500  0.49244500  0.37894300  1.0
  Nd  Nd11  1  0.99455900  0.50544100  0.26132300  1.0
  Nd  Nd12  1  0.26610000  0.23390000  0.33279600  1.0
  Nd  Nd13  1  0.70567500  0.29432500  0.45616700  1.0
  Nd  Nd14  1  0.24158700  0.75841300  0.28256700  1.0
  Nd  Nd15  1  0.75390900  0.74609100  0.39921800  1.0
