# generated using pymatgen
data_Nd
_symmetry_space_group_name_H-M   'P 1'
_cell_length_a   3.70681169
_cell_length_b   24.13488281
_cell_length_c   25.67288820
_cell_angle_alpha   97.64100147
_cell_angle_beta   89.99999440
_cell_angle_gamma   85.59571238
_symmetry_Int_Tables_number   1
_chemical_formula_structural   Nd
_chemical_formula_sum   Nd32
_cell_volume   2269.54823738
_cell_formula_units_Z   32
loop_
 _symmetry_equiv_pos_site_id
 _symmetry_equiv_pos_as_xyz
  1  'x, y, z'
loop_
 _atom_site_type_symbol
 _atom_site_label
 _atom_site_symmetry_multiplicity
 _atom_site_fract_x
 _atom_site_fract_y
 _atom_site_fract_z
 _atom_site_occupancy
  Nd  Nd0  1  0.99691600  0.00616700  0.00939000  1.0
  Nd  Nd1  1  0.74995900  0.50008200  0.06435000  1.0
  Nd  Nd2  1  0.50090100  0.99819700  0.12515400  1.0
  Nd  Nd3  1  0.24996500  0.50007000  0.18531500  1.0
  Nd  Nd4  1  0.87428200  0.25143700  0.03318600  1.0
  Nd  Nd5  1  0.62576000  0.74847900  0.09617600  1.0
  Nd  Nd6  1  0.37471600  0.25056900  0.15423000  1.0
  Nd  Nd7  1  0.12538200  0.74923500  0.21636400  1.0
  Nd  Nd8  1  0.43734800  0.12530500  0.06397800  1.0
  Nd  Nd9  1  0.18762400  0.62475200  0.12600100  1.0
  Nd  Nd10  1  0.93739200  0.12521700  0.18225300  1.0
  Nd  Nd11  1  0.68767500  0.62464900  0.24535600  1.0
  Nd  Nd12  1  0.81245900  0.37508200  0.12923000  1.0
  Nd  Nd13  1  0.56310500  0.87379000  0.18985400  1.0
  Nd  Nd14  1  0.31218300  0.37563400  0.01101000  1.0
  Nd  Nd15  1  0.06183200  0.87633600  0.06827400  1.0
  Nd  Nd16  1  0.99999800  0.00000500  0.25018900  1.0
  Nd  Nd17  1  0.75024800  0.49950500  0.31495200  1.0
  Nd  Nd18  1  0.50043900  0.99912200  0.37048100  1.0
  Nd  Nd19  1  0.25034700  0.49930500  0.43626300  1.0
  Nd  Nd20  1  0.87533000  0.24933900  0.28385300  1.0
  Nd  Nd21  1  0.62450400  0.75099200  0.34582800  1.0
  Nd  Nd22  1  0.37548700  0.24902600  0.40483800  1.0
  Nd  Nd23  1  0.12472200  0.75055700  0.46499900  1.0
  Nd  Nd24  1  0.43786600  0.12426800  0.30889200  1.0
  Nd  Nd25  1  0.18732000  0.62536000  0.37008000  1.0
  Nd  Nd26  1  0.93792800  0.12414300  0.42791400  1.0
  Nd  Nd27  1  0.68791200  0.62417600  0.48729900  1.0
  Nd  Nd28  1  0.81273800  0.37452500  0.37349600  1.0
  Nd  Nd29  1  0.56247700  0.87504700  0.43877900  1.0
  Nd  Nd30  1  0.31263400  0.37473200  0.25459300  1.0
  Nd  Nd31  1  0.06255100  0.87489800  0.31742400  1.0
