# generated using pymatgen
data_Nd
_symmetry_space_group_name_H-M   'P 1'
_cell_length_a   3.70707961
_cell_length_b   11.91086800
_cell_length_c   29.65663686
_cell_angle_alpha   90.00000000
_cell_angle_beta   119.99999299
_cell_angle_gamma   90.00000000
_symmetry_Int_Tables_number   1
_chemical_formula_structural   Nd
_chemical_formula_sum   Nd16
_cell_volume   1134.03872769
_cell_formula_units_Z   16
loop_
 _symmetry_equiv_pos_site_id
 _symmetry_equiv_pos_as_xyz
  1  'x, y, z'
loop_
 _atom_site_type_symbol
 _atom_site_label
 _atom_site_symmetry_multiplicity
 _atom_site_fract_x
 _atom_site_fract_y
 _atom_site_fract_z
 _atom_site_occupancy
  Nd  Nd0  1  0.02637000  0.00259100  0.00659200  1.0
  Nd  Nd1  1  0.02637000  0.49740900  0.00659200  1.0
  Nd  Nd2  1  0.68209600  0.25000000  0.04552400  1.0
  Nd  Nd3  1  0.33315400  0.75000000  0.08328800  1.0
  Nd  Nd4  1  0.99808400  0.99933700  0.12452100  1.0
  Nd  Nd5  1  0.99808400  0.50066300  0.12452100  1.0
  Nd  Nd6  1  0.66060300  0.25000000  0.16515100  1.0
  Nd  Nd7  1  0.33192000  0.75000000  0.20798000  1.0
  Nd  Nd8  1  0.99736000  0.00207500  0.24934000  1.0
  Nd  Nd9  1  0.99736000  0.49792500  0.24934000  1.0
  Nd  Nd10  1  0.68045900  0.25000000  0.29511500  1.0
  Nd  Nd11  1  0.33371600  0.75000000  0.33342900  1.0
  Nd  Nd12  1  0.98363800  0.99942000  0.37090900  1.0
  Nd  Nd13  1  0.98363800  0.50058000  0.37090900  1.0
  Nd  Nd14  1  0.65928000  0.25000000  0.41482000  1.0
  Nd  Nd15  1  0.30786800  0.75000000  0.45196700  1.0
