# generated using pymatgen
data_Nd
_symmetry_space_group_name_H-M   'P 1'
_cell_length_a   3.70708000
_cell_length_b   3.70707911
_cell_length_c   71.46520800
_cell_angle_alpha   90.00000000
_cell_angle_beta   90.00000000
_cell_angle_gamma   119.99999012
_symmetry_Int_Tables_number   1
_chemical_formula_structural   Nd
_chemical_formula_sum   Nd11
_cell_volume   850.52904570
_cell_formula_units_Z   11
loop_
 _symmetry_equiv_pos_site_id
 _symmetry_equiv_pos_as_xyz
  1  'x, y, z'
loop_
 _atom_site_type_symbol
 _atom_site_label
 _atom_site_symmetry_multiplicity
 _atom_site_fract_x
 _atom_site_fract_y
 _atom_site_fract_z
 _atom_site_occupancy
  Nd  Nd0  1  0.00000000  0.00000000  0.39566400  1.0
  Nd  Nd1  1  0.00000000  0.00000000  0.31155100  1.0
  Nd  Nd2  1  0.33333333  0.66666667  0.27160600  1.0
  Nd  Nd3  1  0.66666667  0.33333333  0.35425000  1.0
  Nd  Nd4  1  0.00000000  0.00000000  0.56266900  1.0
  Nd  Nd5  1  0.00000000  0.00000000  0.47916700  1.0
  Nd  Nd6  1  0.33333333  0.66666667  0.43757800  1.0
  Nd  Nd7  1  0.66666667  0.33333333  0.52075500  1.0
  Nd  Nd8  1  0.00000000  0.00000000  0.64678200  1.0
  Nd  Nd9  1  0.33333333  0.66666667  0.60408400  1.0
  Nd  Nd10  1  0.66666667  0.33333333  0.68672700  1.0
