# generated using pymatgen
data_In
_symmetry_space_group_name_H-M   'P 1'
_cell_length_a   3.39880347
_cell_length_b   5.52939500
_cell_length_c   27.19042593
_cell_angle_alpha   90.00000000
_cell_angle_beta   119.99999237
_cell_angle_gamma   90.00000000
_symmetry_Int_Tables_number   1
_chemical_formula_structural   In
_chemical_formula_sum   In8
_cell_volume   442.53777123
_cell_formula_units_Z   8
loop_
 _symmetry_equiv_pos_site_id
 _symmetry_equiv_pos_as_xyz
  1  'x, y, z'
loop_
 _atom_site_type_symbol
 _atom_site_label
 _atom_site_symmetry_multiplicity
 _atom_site_fract_x
 _atom_site_fract_y
 _atom_site_fract_z
 _atom_site_occupancy
  In  In0  1  0.32568500  0.75000000  0.33142100  1.0
  In  In1  1  0.68414300  0.25000000  0.29603600  1.0
  In  In2  1  0.33768700  0.75000000  0.45942100  1.0
  In  In3  1  0.67315900  0.25000000  0.41829000  1.0
  In  In4  1  0.32684100  0.75000000  0.58171000  1.0
  In  In5  1  0.66231300  0.25000000  0.54057800  1.0
  In  In6  1  0.31585700  0.75000000  0.70396400  1.0
  In  In7  1  0.67431500  0.25000000  0.66857900  1.0
