# generated using pymatgen
data_In
_symmetry_space_group_name_H-M   'P 1'
_cell_length_a   3.39599084
_cell_length_b   6.52243299
_cell_length_c   29.25373231
_cell_angle_alpha   116.64809768
_cell_angle_beta   89.99998606
_cell_angle_gamma   74.91026531
_symmetry_Int_Tables_number   1
_chemical_formula_structural   In
_chemical_formula_sum   In12
_cell_volume   554.03334022
_cell_formula_units_Z   12
loop_
 _symmetry_equiv_pos_site_id
 _symmetry_equiv_pos_as_xyz
  1  'x, y, z'
loop_
 _atom_site_type_symbol
 _atom_site_label
 _atom_site_symmetry_multiplicity
 _atom_site_fract_x
 _atom_site_fract_y
 _atom_site_fract_z
 _atom_site_occupancy
  In  In0  1  0.62354100  0.75291500  0.34216000  1.0
  In  In1  1  0.12594000  0.74811700  0.24187000  1.0
  In  In2  1  0.37425700  0.25148500  0.25748400  1.0
  In  In3  1  0.87519200  0.24961800  0.35877300  1.0
  In  In4  1  0.62516900  0.74966000  0.54195700  1.0
  In  In5  1  0.12667300  0.74665100  0.44091800  1.0
  In  In6  1  0.37483000  0.25034000  0.45804300  1.0
  In  In7  1  0.87332500  0.25335000  0.55908200  1.0
  In  In8  1  0.62574200  0.74851500  0.74251600  1.0
  In  In9  1  0.12480800  0.75038300  0.64122700  1.0
  In  In10  1  0.37645800  0.24708500  0.65784000  1.0
  In  In11  1  0.87405900  0.25188400  0.75813000  1.0
