# generated using pymatgen
data_Sm
_symmetry_space_group_name_H-M   'P 1'
_cell_length_a   3.64932152
_cell_length_b   13.83834560
_cell_length_c   25.28495927
_cell_angle_alpha   117.18026622
_cell_angle_beta   89.99999134
_cell_angle_gamma   74.70963365
_symmetry_Int_Tables_number   1
_chemical_formula_structural   Sm
_chemical_formula_sum   Sm16
_cell_volume   1084.84176864
_cell_formula_units_Z   16
loop_
 _symmetry_equiv_pos_site_id
 _symmetry_equiv_pos_as_xyz
  1  'x, y, z'
loop_
 _atom_site_type_symbol
 _atom_site_label
 _atom_site_symmetry_multiplicity
 _atom_site_fract_x
 _atom_site_fract_y
 _atom_site_fract_z
 _atom_site_occupancy
  Sm  Sm0  1  0.00181600  0.99818400  0.18580300  1.0
  Sm  Sm1  1  0.48918800  0.01081200  0.06975200  1.0
  Sm  Sm2  1  0.49919900  0.50080100  0.06858600  1.0
  Sm  Sm3  1  0.00028900  0.49971100  0.18555200  1.0
  Sm  Sm4  1  0.24589600  0.25410400  0.04559700  1.0
  Sm  Sm5  1  0.75010100  0.24989900  0.16623100  1.0
  Sm  Sm6  1  0.25193900  0.74806100  0.20702400  1.0
  Sm  Sm7  1  0.74578600  0.75421400  0.08676500  1.0
  Sm  Sm8  1  0.01082900  0.98917100  0.43024000  1.0
  Sm  Sm9  1  0.49821300  0.00178700  0.31418800  1.0
  Sm  Sm10  1  0.49968500  0.50031500  0.31445600  1.0
  Sm  Sm11  1  0.00076800  0.49923200  0.43142000  1.0
  Sm  Sm12  1  0.24806100  0.25193900  0.29297600  1.0
  Sm  Sm13  1  0.75422600  0.24577400  0.41324400  1.0
  Sm  Sm14  1  0.25410300  0.74589700  0.45439600  1.0
  Sm  Sm15  1  0.74990000  0.75010000  0.33377000  1.0
