# generated using pymatgen
data_Sm
_symmetry_space_group_name_H-M   'P 1'
_cell_length_a   3.64896801
_cell_length_b   12.30869313
_cell_length_c   29.19174906
_cell_angle_alpha   107.24477873
_cell_angle_beta   119.99999905
_cell_angle_gamma   81.47579160
_symmetry_Int_Tables_number   1
_chemical_formula_structural   Sm
_chemical_formula_sum   Sm16
_cell_volume   1084.41990719
_cell_formula_units_Z   16
loop_
 _symmetry_equiv_pos_site_id
 _symmetry_equiv_pos_as_xyz
  1  'x, y, z'
loop_
 _atom_site_type_symbol
 _atom_site_label
 _atom_site_symmetry_multiplicity
 _atom_site_fract_x
 _atom_site_fract_y
 _atom_site_fract_z
 _atom_site_occupancy
  Sm  Sm0  1  0.01977500  0.00274000  0.10427500  1.0
  Sm  Sm1  1  0.01350000  0.50094600  0.03993500  1.0
  Sm  Sm2  1  0.68067600  0.25175500  0.05062700  1.0
  Sm  Sm3  1  0.35096900  0.75294100  0.03079700  1.0
  Sm  Sm4  1  0.00219700  0.99912300  0.22432400  1.0
  Sm  Sm5  1  0.99301400  0.49858000  0.15940400  1.0
  Sm  Sm6  1  0.66650400  0.25105500  0.17201100  1.0
  Sm  Sm7  1  0.32486700  0.75058100  0.14900600  1.0
  Sm  Sm8  1  0.00325600  0.00297200  0.35010100  1.0
  Sm  Sm9  1  0.01067500  0.50051000  0.28915100  1.0
  Sm  Sm10  1  0.67394100  0.25210200  0.29896700  1.0
  Sm  Sm11  1  0.32975100  0.74924500  0.27514500  1.0
  Sm  Sm12  1  0.97058600  0.98799800  0.46509400  1.0
  Sm  Sm13  1  0.99321400  0.50138900  0.40998200  1.0
  Sm  Sm14  1  0.66185100  0.24805000  0.42049900  1.0
  Sm  Sm15  1  0.30522700  0.75001300  0.39401100  1.0
