# generated using pymatgen
data_Sm
_symmetry_space_group_name_H-M   'P 1'
_cell_length_a   6.32031308
_cell_length_b   12.30869487
_cell_length_c   21.90026092
_cell_angle_alpha   107.25001715
_cell_angle_beta   90.00000728
_cell_angle_gamma   89.99999639
_symmetry_Int_Tables_number   1
_chemical_formula_structural   Sm
_chemical_formula_sum   Sm24
_cell_volume   1627.09266651
_cell_formula_units_Z   24
loop_
 _symmetry_equiv_pos_site_id
 _symmetry_equiv_pos_as_xyz
  1  'x, y, z'
loop_
 _atom_site_type_symbol
 _atom_site_label
 _atom_site_symmetry_multiplicity
 _atom_site_fract_x
 _atom_site_fract_y
 _atom_site_fract_z
 _atom_site_occupancy
  Sm  Sm0  1  0.98785700  0.00241400  0.14979700  1.0
  Sm  Sm1  1  0.47783400  0.99876300  0.06541400  1.0
  Sm  Sm2  1  0.02216600  0.49876300  0.06541400  1.0
  Sm  Sm3  1  0.51214300  0.50241400  0.14979700  1.0
  Sm  Sm4  1  0.33747700  0.75161700  0.10590300  1.0
  Sm  Sm5  1  0.84690800  0.76049800  0.02822600  1.0
  Sm  Sm6  1  0.16252300  0.25161700  0.10590300  1.0
  Sm  Sm7  1  0.65309200  0.26049800  0.02822600  1.0
  Sm  Sm8  1  0.99292000  0.00178600  0.31368900  1.0
  Sm  Sm9  1  0.49012000  0.99838800  0.22738000  1.0
  Sm  Sm10  1  0.00988000  0.49838800  0.22738000  1.0
  Sm  Sm11  1  0.50708000  0.50178600  0.31368900  1.0
  Sm  Sm12  1  0.34152800  0.75234400  0.27316100  1.0
  Sm  Sm13  1  0.84951500  0.75002400  0.18629900  1.0
  Sm  Sm14  1  0.15847200  0.25234400  0.27316100  1.0
  Sm  Sm15  1  0.65048500  0.25002400  0.18629900  1.0
  Sm  Sm16  1  0.98246000  0.98171700  0.46851000  1.0
  Sm  Sm17  1  0.48639400  0.00360400  0.39294700  1.0
  Sm  Sm18  1  0.01360600  0.50360400  0.39294700  1.0
  Sm  Sm19  1  0.51754000  0.48171700  0.46851000  1.0
  Sm  Sm20  1  0.36821300  0.75103000  0.43782800  1.0
  Sm  Sm21  1  0.84134300  0.74781600  0.35084600  1.0
  Sm  Sm22  1  0.13178700  0.25103000  0.43782800  1.0
  Sm  Sm23  1  0.65865700  0.24781600  0.35084600  1.0
