# generated using pymatgen
data_Sm
_symmetry_space_group_name_H-M   'P 1'
_cell_length_a   11.74654200
_cell_length_b   6.32225300
_cell_length_c   29.20123200
_cell_angle_alpha   90.00000000
_cell_angle_beta   90.00000000
_cell_angle_gamma   90.00000000
_symmetry_Int_Tables_number   1
_chemical_formula_structural   Sm
_chemical_formula_sum   Sm40
_cell_volume   2168.61811765
_cell_formula_units_Z   40
loop_
 _symmetry_equiv_pos_site_id
 _symmetry_equiv_pos_as_xyz
  1  'x, y, z'
loop_
 _atom_site_type_symbol
 _atom_site_label
 _atom_site_symmetry_multiplicity
 _atom_site_fract_x
 _atom_site_fract_y
 _atom_site_fract_z
 _atom_site_occupancy
  Sm  Sm0  1  0.00000000  0.50000000  0.22146400  1.0
  Sm  Sm1  1  0.00000000  0.00000000  0.28406900  1.0
  Sm  Sm2  1  0.50000000  0.50000000  0.22146400  1.0
  Sm  Sm3  1  0.50000000  0.00000000  0.28406900  1.0
  Sm  Sm4  1  0.75000000  0.35003800  0.28232000  1.0
  Sm  Sm5  1  0.75000000  0.86862200  0.21946700  1.0
  Sm  Sm6  1  0.25000000  0.64996200  0.28232000  1.0
  Sm  Sm7  1  0.25000000  0.13137800  0.21946700  1.0
  Sm  Sm8  1  0.00000000  0.50000000  0.34226200  1.0
  Sm  Sm9  1  0.00000000  0.00000000  0.40707400  1.0
  Sm  Sm10  1  0.50000000  0.50000000  0.34226200  1.0
  Sm  Sm11  1  0.50000000  0.00000000  0.40707400  1.0
  Sm  Sm12  1  0.75000000  0.34197800  0.40610500  1.0
  Sm  Sm13  1  0.75000000  0.84328400  0.34214900  1.0
  Sm  Sm14  1  0.25000000  0.65802200  0.40610500  1.0
  Sm  Sm15  1  0.25000000  0.15671600  0.34214900  1.0
  Sm  Sm16  1  0.00000000  0.50000000  0.46844300  1.0
  Sm  Sm17  1  0.00000000  0.00000000  0.53155700  1.0
  Sm  Sm18  1  0.50000000  0.50000000  0.46844300  1.0
  Sm  Sm19  1  0.50000000  0.00000000  0.53155700  1.0
  Sm  Sm20  1  0.75000000  0.33676700  0.53069100  1.0
  Sm  Sm21  1  0.75000000  0.83676700  0.46930900  1.0
  Sm  Sm22  1  0.25000000  0.66323300  0.53069100  1.0
  Sm  Sm23  1  0.25000000  0.16323300  0.46930900  1.0
  Sm  Sm24  1  0.00000000  0.50000000  0.59292600  1.0
  Sm  Sm25  1  0.00000000  0.00000000  0.65773800  1.0
  Sm  Sm26  1  0.50000000  0.50000000  0.59292600  1.0
  Sm  Sm27  1  0.50000000  0.00000000  0.65773800  1.0
  Sm  Sm28  1  0.75000000  0.34328400  0.65785100  1.0
  Sm  Sm29  1  0.75000000  0.84197800  0.59389500  1.0
  Sm  Sm30  1  0.25000000  0.65671600  0.65785100  1.0
  Sm  Sm31  1  0.25000000  0.15802200  0.59389500  1.0
  Sm  Sm32  1  0.00000000  0.50000000  0.71593100  1.0
  Sm  Sm33  1  0.00000000  0.00000000  0.77853600  1.0
  Sm  Sm34  1  0.50000000  0.50000000  0.71593100  1.0
  Sm  Sm35  1  0.50000000  0.00000000  0.77853600  1.0
  Sm  Sm36  1  0.75000000  0.36862200  0.78053300  1.0
  Sm  Sm37  1  0.75000000  0.85003800  0.71768000  1.0
  Sm  Sm38  1  0.25000000  0.63137800  0.78053300  1.0
  Sm  Sm39  1  0.25000000  0.14996200  0.71768000  1.0
