# generated using pymatgen
data_Sm
_symmetry_space_group_name_H-M   'P 1'
_cell_length_a   3.65015392
_cell_length_b   11.74654200
_cell_length_c   29.20123136
_cell_angle_alpha   90.00000000
_cell_angle_beta   119.99999856
_cell_angle_gamma   90.00000000
_symmetry_Int_Tables_number   1
_chemical_formula_structural   Sm
_chemical_formula_sum   Sm11
_cell_volume   1084.30888699
_cell_formula_units_Z   11
loop_
 _symmetry_equiv_pos_site_id
 _symmetry_equiv_pos_as_xyz
  1  'x, y, z'
loop_
 _atom_site_type_symbol
 _atom_site_label
 _atom_site_symmetry_multiplicity
 _atom_site_fract_x
 _atom_site_fract_y
 _atom_site_fract_z
 _atom_site_occupancy
  Sm  Sm0  1  0.00677300  0.00061900  0.47044300  1.0
  Sm  Sm1  1  0.00677300  0.49938100  0.47044300  1.0
  Sm  Sm2  1  0.35374700  0.75000000  0.43218700  1.0
  Sm  Sm3  1  0.99605900  0.00264300  0.59276500  1.0
  Sm  Sm4  1  0.99605900  0.49735700  0.59276500  1.0
  Sm  Sm5  1  0.69892600  0.25000000  0.51848200  1.0
  Sm  Sm6  1  0.33067400  0.75000000  0.55141800  1.0
  Sm  Sm7  1  0.97363400  0.98518700  0.71215900  1.0
  Sm  Sm8  1  0.97363400  0.51481300  0.71215900  1.0
  Sm  Sm9  1  0.69025100  0.25000000  0.64131300  1.0
  Sm  Sm10  1  0.30680200  0.75000000  0.67045000  1.0
