# generated using pymatgen
data_Sm
_symmetry_space_group_name_H-M   'P 1'
_cell_length_a   3.65015392
_cell_length_b   23.77495881
_cell_length_c   25.28900855
_cell_angle_alpha   97.64069131
_cell_angle_beta   89.99999856
_cell_angle_gamma   85.59737715
_symmetry_Int_Tables_number   1
_chemical_formula_structural   Sm
_chemical_formula_sum   Sm32
_cell_volume   2168.61786650
_cell_formula_units_Z   32
loop_
 _symmetry_equiv_pos_site_id
 _symmetry_equiv_pos_as_xyz
  1  'x, y, z'
loop_
 _atom_site_type_symbol
 _atom_site_label
 _atom_site_symmetry_multiplicity
 _atom_site_fract_x
 _atom_site_fract_y
 _atom_site_fract_z
 _atom_site_occupancy
  Sm  Sm0  1  0.99994700  0.00010500  0.23201800  1.0
  Sm  Sm1  1  0.49962900  0.00074100  0.11115400  1.0
  Sm  Sm2  1  0.74875300  0.50249300  0.05154100  1.0
  Sm  Sm3  1  0.24977100  0.50045800  0.16865800  1.0
  Sm  Sm4  1  0.87619400  0.24761200  0.02083600  1.0
  Sm  Sm5  1  0.37517000  0.24966000  0.13762100  1.0
  Sm  Sm6  1  0.62400200  0.75199600  0.07651700  1.0
  Sm  Sm7  1  0.12491600  0.75016900  0.19797100  1.0
  Sm  Sm8  1  0.43683300  0.12633400  0.04135500  1.0
  Sm  Sm9  1  0.93766000  0.12468000  0.16347500  1.0
  Sm  Sm10  1  0.18793500  0.62413000  0.10668500  1.0
  Sm  Sm11  1  0.68705000  0.62590100  0.22675000  1.0
  Sm  Sm12  1  0.31232600  0.37534500  0.23640900  1.0
  Sm  Sm13  1  0.81265100  0.37469600  0.11242300  1.0
  Sm  Sm14  1  0.06204000  0.87591900  0.05303500  1.0
  Sm  Sm15  1  0.56231600  0.87536800  0.17196800  1.0
  Sm  Sm16  1  0.00299100  0.99401900  0.47358000  1.0
  Sm  Sm17  1  0.49890200  0.00219500  0.35822700  1.0
  Sm  Sm18  1  0.74951600  0.50096700  0.29374400  1.0
  Sm  Sm19  1  0.25057100  0.49885900  0.41421500  1.0
  Sm  Sm20  1  0.87542600  0.24914800  0.26323700  1.0
  Sm  Sm21  1  0.37385200  0.25229600  0.38372900  1.0
  Sm  Sm22  1  0.62496100  0.75007900  0.32808800  1.0
  Sm  Sm23  1  0.12594400  0.74811200  0.44984600  1.0
  Sm  Sm24  1  0.43684100  0.12631800  0.29210100  1.0
  Sm  Sm25  1  0.93760200  0.12479600  0.41549300  1.0
  Sm  Sm26  1  0.18761200  0.62477600  0.35416200  1.0
  Sm  Sm27  1  0.68818900  0.62362200  0.47280700  1.0
  Sm  Sm28  1  0.31254600  0.37490700  0.48039900  1.0
  Sm  Sm29  1  0.81259100  0.37481500  0.36201700  1.0
  Sm  Sm30  1  0.06261600  0.87476800  0.29889400  1.0
  Sm  Sm31  1  0.56264200  0.87471600  0.41770900  1.0
