# generated using pymatgen
data_Sm
_symmetry_space_group_name_H-M   'P 1'
_cell_length_a   11.74654200
_cell_length_b   9.65740044
_cell_length_c   21.90092400
_cell_angle_alpha   79.10660616
_cell_angle_beta   90.00000000
_cell_angle_gamma   90.00000000
_symmetry_Int_Tables_number   1
_chemical_formula_structural   Sm
_chemical_formula_sum   Sm36
_cell_volume   2439.69525298
_cell_formula_units_Z   36
loop_
 _symmetry_equiv_pos_site_id
 _symmetry_equiv_pos_as_xyz
  1  'x, y, z'
loop_
 _atom_site_type_symbol
 _atom_site_label
 _atom_site_symmetry_multiplicity
 _atom_site_fract_x
 _atom_site_fract_y
 _atom_site_fract_z
 _atom_site_occupancy
  Sm  Sm0  1  0.00503800  0.67099600  0.33066300  1.0
  Sm  Sm1  1  0.99436300  0.31583700  0.28462200  1.0
  Sm  Sm2  1  0.99951100  0.99818300  0.39551000  1.0
  Sm  Sm3  1  0.49496200  0.67099600  0.33066300  1.0
  Sm  Sm4  1  0.50563700  0.31583700  0.28462200  1.0
  Sm  Sm5  1  0.50048900  0.99818300  0.39551000  1.0
  Sm  Sm6  1  0.75000000  0.55153600  0.26935300  1.0
  Sm  Sm7  1  0.75000000  0.22193400  0.37472300  1.0
  Sm  Sm8  1  0.75000000  0.90086500  0.31259700  1.0
  Sm  Sm9  1  0.25000000  0.76865600  0.41292600  1.0
  Sm  Sm10  1  0.25000000  0.42819200  0.35118900  1.0
  Sm  Sm11  1  0.25000000  0.07729400  0.30217500  1.0
  Sm  Sm12  1  0.00000000  0.66666667  0.50000000  1.0
  Sm  Sm13  1  0.00018500  0.33999300  0.44022900  1.0
  Sm  Sm14  1  0.99981500  0.99334000  0.55977100  1.0
  Sm  Sm15  1  0.50000000  0.66666667  0.50000000  1.0
  Sm  Sm16  1  0.49981500  0.33999300  0.44022900  1.0
  Sm  Sm17  1  0.50018500  0.99334000  0.55977100  1.0
  Sm  Sm18  1  0.75000000  0.57139700  0.42202000  1.0
  Sm  Sm19  1  0.75000000  0.23085400  0.53807500  1.0
  Sm  Sm20  1  0.75000000  0.89473200  0.48317600  1.0
  Sm  Sm21  1  0.25000000  0.76193700  0.57798000  1.0
  Sm  Sm22  1  0.25000000  0.43860100  0.51682500  1.0
  Sm  Sm23  1  0.25000000  0.10247900  0.46192500  1.0
  Sm  Sm24  1  0.99496200  0.66233800  0.66933700  1.0
  Sm  Sm25  1  0.00048900  0.33515000  0.60449000  1.0
  Sm  Sm26  1  0.00563700  0.01749600  0.71537800  1.0
  Sm  Sm27  1  0.50503800  0.66233800  0.66933700  1.0
  Sm  Sm28  1  0.49951100  0.33515000  0.60449000  1.0
  Sm  Sm29  1  0.49436300  0.01749600  0.71537800  1.0
  Sm  Sm30  1  0.75000000  0.56467800  0.58707400  1.0
  Sm  Sm31  1  0.75000000  0.25603900  0.69782500  1.0
  Sm  Sm32  1  0.75000000  0.90514100  0.64881100  1.0
  Sm  Sm33  1  0.25000000  0.78179800  0.73064700  1.0
  Sm  Sm34  1  0.25000000  0.43246800  0.68740300  1.0
  Sm  Sm35  1  0.25000000  0.11139900  0.62527700  1.0
