# generated using pymatgen
data_Sm
_symmetry_space_group_name_H-M   'P 1'
_cell_length_a   9.65740044
_cell_length_b   12.30060552
_cell_length_c   21.90092400
_cell_angle_alpha   81.46735221
_cell_angle_beta   79.10660616
_cell_angle_gamma   73.71601067
_symmetry_Int_Tables_number   1
_chemical_formula_structural   Sm
_chemical_formula_sum   Sm31
_cell_volume   2439.69546118
_cell_formula_units_Z   31
loop_
 _symmetry_equiv_pos_site_id
 _symmetry_equiv_pos_as_xyz
  1  'x, y, z'
loop_
 _atom_site_type_symbol
 _atom_site_label
 _atom_site_symmetry_multiplicity
 _atom_site_fract_x
 _atom_site_fract_y
 _atom_site_fract_z
 _atom_site_occupancy
  Sm  Sm0  1  0.00000600  0.00409200  0.58800700  1.0
  Sm  Sm1  1  0.66266300  0.99791900  0.69560600  1.0
  Sm  Sm2  1  0.33446400  0.00022500  0.64346800  1.0
  Sm  Sm3  1  0.84568400  0.50666100  0.71978200  1.0
  Sm  Sm4  1  0.49922500  0.49215400  0.67658700  1.0
  Sm  Sm5  1  0.16944400  0.50210200  0.61332600  1.0
  Sm  Sm6  1  0.82693000  0.24956000  0.67027800  1.0
  Sm  Sm7  1  0.48966600  0.24883800  0.60895500  1.0
  Sm  Sm8  1  0.17807800  0.26220900  0.72016500  1.0
  Sm  Sm9  1  0.85455600  0.75076300  0.62036300  1.0
  Sm  Sm10  1  0.52495000  0.74972900  0.72594800  1.0
  Sm  Sm11  1  0.18163200  0.74733500  0.68033000  1.0
  Sm  Sm12  1  0.99886900  0.99977500  0.42597600  1.0
  Sm  Sm13  1  0.66666667  0.00000000  0.53472200  1.0
  Sm  Sm14  1  0.33333333  0.99590800  0.48143800  1.0
  Sm  Sm15  1  0.82939200  0.49753100  0.56491000  1.0
  Sm  Sm16  1  0.50394100  0.50246900  0.50453400  1.0
  Sm  Sm17  1  0.16389000  0.49789800  0.45611900  1.0
  Sm  Sm18  1  0.82003900  0.25370600  0.49962400  1.0
  Sm  Sm19  1  0.47877700  0.24923700  0.44908100  1.0
  Sm  Sm20  1  0.15276500  0.24909800  0.55993500  1.0
  Sm  Sm21  1  0.84366700  0.75116200  0.46048900  1.0
  Sm  Sm22  1  0.51329500  0.74629400  0.56982100  1.0
  Sm  Sm23  1  0.18056800  0.75090200  0.50950900  1.0
  Sm  Sm24  1  0.67067100  0.00208100  0.37383900  1.0
  Sm  Sm25  1  0.83410800  0.50784600  0.39285700  1.0
  Sm  Sm26  1  0.48764900  0.49333900  0.34966300  1.0
  Sm  Sm27  1  0.80838400  0.25027100  0.34349600  1.0
  Sm  Sm28  1  0.15170100  0.25266500  0.38911500  1.0
  Sm  Sm29  1  0.50640400  0.75044000  0.39916600  1.0
  Sm  Sm30  1  0.15525500  0.73779100  0.34927900  1.0
