# generated using pymatgen
data_Sm
_symmetry_space_group_name_H-M   'P 1'
_cell_length_a   9.65402672
_cell_length_b   12.31295072
_cell_length_c   21.88991200
_cell_angle_alpha   98.51970967
_cell_angle_beta   79.10830100
_cell_angle_gamma   77.04509791
_symmetry_Int_Tables_number   1
_chemical_formula_structural   Sm
_chemical_formula_sum   Sm36
_cell_volume   2440.29370546
_cell_formula_units_Z   36
loop_
 _symmetry_equiv_pos_site_id
 _symmetry_equiv_pos_as_xyz
  1  'x, y, z'
loop_
 _atom_site_type_symbol
 _atom_site_label
 _atom_site_symmetry_multiplicity
 _atom_site_fract_x
 _atom_site_fract_y
 _atom_site_fract_z
 _atom_site_occupancy
  Sm  Sm0  1  0.00496700  0.99817800  0.38832200  1.0
  Sm  Sm1  1  0.33472300  0.01268200  0.28684800  1.0
  Sm  Sm2  1  0.66243800  0.00806200  0.34088400  1.0
  Sm  Sm3  1  0.81540300  0.50814000  0.28594400  1.0
  Sm  Sm4  1  0.17442200  0.49030700  0.32876600  1.0
  Sm  Sm5  1  0.49774500  0.50219300  0.39737500  1.0
  Sm  Sm6  1  0.00694400  0.24969700  0.32261700  1.0
  Sm  Sm7  1  0.35240800  0.25002200  0.38687100  1.0
  Sm  Sm8  1  0.64351600  0.26611200  0.27594000  1.0
  Sm  Sm9  1  0.64202800  0.75385700  0.39726600  1.0
  Sm  Sm10  1  0.97778400  0.75086300  0.29009100  1.0
  Sm  Sm11  1  0.31718900  0.74527700  0.34025100  1.0
  Sm  Sm12  1  0.99944600  0.00256500  0.55516800  1.0
  Sm  Sm13  1  0.33388700  0.99743500  0.44483200  1.0
  Sm  Sm14  1  0.66666667  0.00000000  0.50000000  1.0
  Sm  Sm15  1  0.84113700  0.49748200  0.44002200  1.0
  Sm  Sm16  1  0.16666700  0.50000000  0.50000000  1.0
  Sm  Sm17  1  0.49219600  0.50251800  0.55997800  1.0
  Sm  Sm18  1  0.02187600  0.24813500  0.48841300  1.0
  Sm  Sm19  1  0.34569600  0.25551500  0.55239700  1.0
  Sm  Sm20  1  0.68648200  0.25156600  0.43606600  1.0
  Sm  Sm21  1  0.64685100  0.74843400  0.56393400  1.0
  Sm  Sm22  1  0.98763700  0.74448500  0.44760300  1.0
  Sm  Sm23  1  0.31145800  0.75186500  0.51158700  1.0
  Sm  Sm24  1  0.99861000  0.98731800  0.71315200  1.0
  Sm  Sm25  1  0.32836600  0.00182200  0.61167800  1.0
  Sm  Sm26  1  0.67089600  0.99193800  0.65911600  1.0
  Sm  Sm27  1  0.83558800  0.49780700  0.60262500  1.0
  Sm  Sm28  1  0.15891200  0.50969300  0.67123400  1.0
  Sm  Sm29  1  0.51793000  0.49186000  0.71405600  1.0
  Sm  Sm30  1  0.01614500  0.25472300  0.65974900  1.0
  Sm  Sm31  1  0.35554900  0.24913700  0.70990900  1.0
  Sm  Sm32  1  0.69130500  0.24614300  0.60273400  1.0
  Sm  Sm33  1  0.68981700  0.73388800  0.72406000  1.0
  Sm  Sm34  1  0.98092500  0.74997800  0.61312900  1.0
  Sm  Sm35  1  0.32639000  0.75030300  0.67738300  1.0
