# generated using pymatgen
data_Sm
_symmetry_space_group_name_H-M   'P 1'
_cell_length_a   6.32225300
_cell_length_b   23.77495881
_cell_length_c   21.90092400
_cell_angle_alpha   94.40262314
_cell_angle_beta   90.00000000
_cell_angle_gamma   82.35930875
_symmetry_Int_Tables_number   1
_chemical_formula_structural   Sm
_chemical_formula_sum   Sm43
_cell_volume   3252.92731484
_cell_formula_units_Z   43
loop_
 _symmetry_equiv_pos_site_id
 _symmetry_equiv_pos_as_xyz
  1  'x, y, z'
loop_
 _atom_site_type_symbol
 _atom_site_label
 _atom_site_symmetry_multiplicity
 _atom_site_fract_x
 _atom_site_fract_y
 _atom_site_fract_z
 _atom_site_occupancy
  Sm  Sm0  1  0.99621600  0.00187500  0.42014800  1.0
  Sm  Sm1  1  0.49655900  0.00244200  0.33686600  1.0
  Sm  Sm2  1  0.25706300  0.49547400  0.36994900  1.0
  Sm  Sm3  1  0.61290800  0.76903600  0.31257300  1.0
  Sm  Sm4  1  0.38143300  0.24720200  0.35610000  1.0
  Sm  Sm5  1  0.11655800  0.75086600  0.38826400  1.0
  Sm  Sm6  1  0.81653500  0.62562900  0.37456000  1.0
  Sm  Sm7  1  0.06180800  0.12566400  0.34543400  1.0
  Sm  Sm8  1  0.40311100  0.88061300  0.40759100  1.0
  Sm  Sm9  1  0.68923700  0.37133200  0.36014500  1.0
  Sm  Sm10  1  0.93695600  0.88174900  0.32035600  1.0
  Sm  Sm11  1  0.75264000  0.49831700  0.45095000  1.0
  Sm  Sm12  1  0.99545100  0.00004900  0.58403900  1.0
  Sm  Sm13  1  0.49594900  0.00231400  0.49902600  1.0
  Sm  Sm14  1  0.25456500  0.49939100  0.53249600  1.0
  Sm  Sm15  1  0.62050000  0.74995000  0.46804400  1.0
  Sm  Sm16  1  0.88031200  0.24933900  0.43880000  1.0
  Sm  Sm17  1  0.37895600  0.25060900  0.51958700  1.0
  Sm  Sm18  1  0.12326300  0.74768600  0.55305800  1.0
  Sm  Sm19  1  0.83501500  0.62412700  0.54063500  1.0
  Sm  Sm20  1  0.08414200  0.12587300  0.51144800  1.0
  Sm  Sm21  1  0.58140700  0.12565100  0.43001600  1.0
  Sm  Sm22  1  0.33358700  0.62330000  0.45734600  1.0
  Sm  Sm23  1  0.40518100  0.87554600  0.57108900  1.0
  Sm  Sm24  1  0.66991100  0.37500000  0.52604200  1.0
  Sm  Sm25  1  0.17387800  0.37326800  0.44391700  1.0
  Sm  Sm26  1  0.90572600  0.87445400  0.48099400  1.0
  Sm  Sm27  1  0.75465000  0.50066100  0.61328400  1.0
  Sm  Sm28  1  0.00694400  0.98096400  0.73951100  1.0
  Sm  Sm29  1  0.49242400  0.99913400  0.66381900  1.0
  Sm  Sm30  1  0.25363500  0.50279800  0.69598300  1.0
  Sm  Sm31  1  0.62309100  0.74812500  0.63193500  1.0
  Sm  Sm32  1  0.87595600  0.25168300  0.60113300  1.0
  Sm  Sm33  1  0.37753700  0.25452600  0.68213500  1.0
  Sm  Sm34  1  0.12400100  0.74755800  0.71521700  1.0
  Sm  Sm35  1  0.81247300  0.62433600  0.70665000  1.0
  Sm  Sm36  1  0.06716500  0.12437100  0.67752300  1.0
  Sm  Sm37  1  0.58188700  0.12670000  0.59473800  1.0
  Sm  Sm38  1  0.33205700  0.62434900  0.62206700  1.0
  Sm  Sm39  1  0.44370500  0.86825100  0.73172700  1.0
  Sm  Sm40  1  0.68557000  0.37866800  0.69193800  1.0
  Sm  Sm41  1  0.17214700  0.37673200  0.60816600  1.0
  Sm  Sm42  1  0.90872400  0.86938700  0.64449300  1.0
