# generated using pymatgen
data_Sn
_symmetry_space_group_name_H-M   'P 1'
_cell_length_a   4.70275790
_cell_length_b   6.65085000
_cell_length_c   37.62206884
_cell_angle_alpha   90.00000000
_cell_angle_beta   90.00000000
_cell_angle_gamma   90.00000000
_symmetry_Int_Tables_number   1
_chemical_formula_structural   Sn
_chemical_formula_sum   Sn16
_cell_volume   1176.71814001
_cell_formula_units_Z   16
loop_
 _symmetry_equiv_pos_site_id
 _symmetry_equiv_pos_as_xyz
  1  'x, y, z'
loop_
 _atom_site_type_symbol
 _atom_site_label
 _atom_site_symmetry_multiplicity
 _atom_site_fract_x
 _atom_site_fract_y
 _atom_site_fract_z
 _atom_site_occupancy
  Sn  Sn0  1  0.00000000  0.00570500  0.90852200  1.0
  Sn  Sn1  1  0.00000000  0.00064500  0.78147400  1.0
  Sn  Sn2  1  0.50000000  0.74935500  0.78147400  1.0
  Sn  Sn3  1  0.50000000  0.74429500  0.90852200  1.0
  Sn  Sn4  1  0.50000000  0.49982700  0.97242600  1.0
  Sn  Sn5  1  0.50000000  0.50115700  0.84464100  1.0
  Sn  Sn6  1  0.00000000  0.24884300  0.84464100  1.0
  Sn  Sn7  1  0.00000000  0.25017300  0.97242600  1.0
  Sn  Sn8  1  0.00000000  0.00115700  0.65535900  1.0
  Sn  Sn9  1  0.00000000  0.99982700  0.52757400  1.0
  Sn  Sn10  1  0.50000000  0.75017300  0.52757400  1.0
  Sn  Sn11  1  0.50000000  0.74884300  0.65535900  1.0
  Sn  Sn12  1  0.50000000  0.50064500  0.71852600  1.0
  Sn  Sn13  1  0.50000000  0.50570500  0.59147800  1.0
  Sn  Sn14  1  0.00000000  0.24429500  0.59147800  1.0
  Sn  Sn15  1  0.00000000  0.24935500  0.71852600  1.0
