# generated using pymatgen
data_Sn
_symmetry_space_group_name_H-M   'P 1'
_cell_length_a   4.70414100
_cell_length_b   4.70414100
_cell_length_c   26.61064000
_cell_angle_alpha   90.00000000
_cell_angle_beta   90.00000000
_cell_angle_gamma   90.00000000
_symmetry_Int_Tables_number   1
_chemical_formula_structural   Sn
_chemical_formula_sum   Sn8
_cell_volume   588.86532372
_cell_formula_units_Z   8
loop_
 _symmetry_equiv_pos_site_id
 _symmetry_equiv_pos_as_xyz
  1  'x, y, z'
loop_
 _atom_site_type_symbol
 _atom_site_label
 _atom_site_symmetry_multiplicity
 _atom_site_fract_x
 _atom_site_fract_y
 _atom_site_fract_z
 _atom_site_occupancy
  Sn  Sn0  1  0.00000000  0.00000000  0.78128500  1.0
  Sn  Sn1  1  0.00000000  0.50000000  0.84419600  1.0
  Sn  Sn2  1  0.50000000  0.50000000  0.90719700  1.0
  Sn  Sn3  1  0.50000000  0.00000000  0.97117300  1.0
  Sn  Sn4  1  0.00000000  0.00000000  0.52882700  1.0
  Sn  Sn5  1  0.00000000  0.50000000  0.59280300  1.0
  Sn  Sn6  1  0.50000000  0.50000000  0.65580400  1.0
  Sn  Sn7  1  0.50000000  0.00000000  0.71871500  1.0
