# generated using pymatgen
data_Ce
_symmetry_space_group_name_H-M   'P 1'
_cell_length_a   3.32896044
_cell_length_b   13.69975617
_cell_length_c   21.26713243
_cell_angle_alpha   105.24574953
_cell_angle_beta   89.99999238
_cell_angle_gamma   89.99998818
_symmetry_Int_Tables_number   1
_chemical_formula_structural   Ce
_chemical_formula_sum   Ce18
_cell_volume   935.77357751
_cell_formula_units_Z   18
loop_
 _symmetry_equiv_pos_site_id
 _symmetry_equiv_pos_as_xyz
  1  'x, y, z'
loop_
 _atom_site_type_symbol
 _atom_site_label
 _atom_site_symmetry_multiplicity
 _atom_site_fract_x
 _atom_site_fract_y
 _atom_site_fract_z
 _atom_site_occupancy
  Ce  Ce0  1  0.00000200  0.60570400  0.41107500  1.0
  Ce  Ce1  1  0.00000000  0.97677400  0.34740900  1.0
  Ce  Ce2  1  0.00000500  0.38305100  0.29231900  1.0
  Ce  Ce3  1  0.50000600  0.78627700  0.36461100  1.0
  Ce  Ce4  1  0.49999900  0.18734000  0.31547900  1.0
  Ce  Ce5  1  0.49999700  0.59052900  0.27646600  1.0
  Ce  Ce6  1  0.99999800  0.42472500  0.56691400  1.0
  Ce  Ce7  1  0.99999500  0.81819100  0.50899300  1.0
  Ce  Ce8  1  0.00000200  0.20728700  0.45243200  1.0
  Ce  Ce9  1  0.50000100  0.62646300  0.54844100  1.0
  Ce  Ce10  1  0.50000400  0.01507600  0.49030200  1.0
  Ce  Ce11  1  0.50000000  0.40849800  0.43259300  1.0
  Ce  Ce12  1  0.99999500  0.24157400  0.72403800  1.0
  Ce  Ce13  1  0.99999300  0.64574600  0.68496300  1.0
  Ce  Ce14  1  0.99999900  0.04664600  0.63477800  1.0
  Ce  Ce15  1  0.50000200  0.45089900  0.70741500  1.0
  Ce  Ce16  1  0.50000100  0.85702400  0.65224400  1.0
  Ce  Ce17  1  0.50000000  0.22819600  0.58952700  1.0
