# generated using pymatgen
data_Sn
_symmetry_space_group_name_H-M   'P 1'
_cell_length_a   6.65204800
_cell_length_b   10.51869367
_cell_length_c   37.92275203
_cell_angle_alpha   93.17687221
_cell_angle_beta   90.00000000
_cell_angle_gamma   90.00000000
_symmetry_Int_Tables_number   1
_chemical_formula_structural   Sn
_chemical_formula_sum   Sn36
_cell_volume   2649.40955249
_cell_formula_units_Z   36
loop_
 _symmetry_equiv_pos_site_id
 _symmetry_equiv_pos_as_xyz
  1  'x, y, z'
loop_
 _atom_site_type_symbol
 _atom_site_label
 _atom_site_symmetry_multiplicity
 _atom_site_fract_x
 _atom_site_fract_y
 _atom_site_fract_z
 _atom_site_occupancy
  Sn  Sn0  1  0.99690200  0.98952600  0.34351000  1.0
  Sn  Sn1  1  0.99635300  0.81937800  0.51363200  1.0
  Sn  Sn2  1  0.97604800  0.65493800  0.68430700  1.0
  Sn  Sn3  1  0.95116600  0.32960100  0.28451500  1.0
  Sn  Sn4  1  0.00499600  0.20854200  0.45784500  1.0
  Sn  Sn5  1  0.00353700  0.04018000  0.62573200  1.0
  Sn  Sn6  1  0.17168500  0.23408400  0.71414700  1.0
  Sn  Sn7  1  0.99190600  0.59924500  0.40157700  1.0
  Sn  Sn8  1  0.00057000  0.42730200  0.57038800  1.0
  Sn  Sn9  1  0.24646300  0.79315200  0.37426800  1.0
  Sn  Sn10  1  0.24500400  0.62479000  0.54215500  1.0
  Sn  Sn11  1  0.29883400  0.50373100  0.71548500  1.0
  Sn  Sn12  1  0.27395200  0.17839600  0.31569300  1.0
  Sn  Sn13  1  0.25364700  0.01395600  0.48636800  1.0
  Sn  Sn14  1  0.25309800  0.84380800  0.65649000  1.0
  Sn  Sn15  1  0.07831500  0.59925000  0.28585300  1.0
  Sn  Sn16  1  0.24943000  0.40603200  0.42961200  1.0
  Sn  Sn17  1  0.25809400  0.23408900  0.59842300  1.0
  Sn  Sn18  1  0.47604800  0.67839600  0.31569300  1.0
  Sn  Sn19  1  0.49635300  0.51395600  0.48636800  1.0
  Sn  Sn20  1  0.49690200  0.34380800  0.65649000  1.0
  Sn  Sn21  1  0.67168500  0.09925000  0.28585300  1.0
  Sn  Sn22  1  0.50057000  0.90603200  0.42961200  1.0
  Sn  Sn23  1  0.49190600  0.73408900  0.59842300  1.0
  Sn  Sn24  1  0.50353700  0.29315200  0.37426800  1.0
  Sn  Sn25  1  0.50499600  0.12479000  0.54215500  1.0
  Sn  Sn26  1  0.45116600  0.00373100  0.71548500  1.0
  Sn  Sn27  1  0.75309800  0.48952600  0.34351000  1.0
  Sn  Sn28  1  0.75364700  0.31937800  0.51363200  1.0
  Sn  Sn29  1  0.77395200  0.15493800  0.68430700  1.0
  Sn  Sn30  1  0.79883400  0.82960100  0.28451500  1.0
  Sn  Sn31  1  0.74500400  0.70854200  0.45784500  1.0
  Sn  Sn32  1  0.74646300  0.54018000  0.62573200  1.0
  Sn  Sn33  1  0.57831500  0.73408400  0.71414700  1.0
  Sn  Sn34  1  0.75809400  0.09924500  0.40157700  1.0
  Sn  Sn35  1  0.74943000  0.92730200  0.57038800  1.0
