# generated using pymatgen
data_Sn
_symmetry_space_group_name_H-M   'P 1'
_cell_length_a   6.65254000
_cell_length_b   8.14707433
_cell_length_c   29.74847843
_cell_angle_alpha   90.00000000
_cell_angle_beta   90.00000000
_cell_angle_gamma   114.09669791
_symmetry_Int_Tables_number   1
_chemical_formula_structural   Sn
_chemical_formula_sum   Sn20
_cell_volume   1471.82785519
_cell_formula_units_Z   20
loop_
 _symmetry_equiv_pos_site_id
 _symmetry_equiv_pos_as_xyz
  1  'x, y, z'
loop_
 _atom_site_type_symbol
 _atom_site_label
 _atom_site_symmetry_multiplicity
 _atom_site_fract_x
 _atom_site_fract_y
 _atom_site_fract_z
 _atom_site_occupancy
  Sn  Sn0  1  0.60913600  0.21673000  0.64025900  1.0
  Sn  Sn1  1  0.19938900  0.39769100  0.53780500  1.0
  Sn  Sn2  1  0.79359500  0.59902700  0.43589800  1.0
  Sn  Sn3  1  0.37710000  0.78798500  0.33516900  1.0
  Sn  Sn4  1  0.04754400  0.91682300  0.73481500  1.0
  Sn  Sn5  1  0.90061100  0.30230900  0.46219500  1.0
  Sn  Sn6  1  0.49086400  0.48327000  0.35974100  1.0
  Sn  Sn7  1  0.05245600  0.78317700  0.26518500  1.0
  Sn  Sn8  1  0.72290000  0.91201500  0.66483100  1.0
  Sn  Sn9  1  0.30640500  0.10097300  0.56410200  1.0
  Sn  Sn10  1  0.89734300  0.80354500  0.58655800  1.0
  Sn  Sn11  1  0.50197200  0.00139800  0.48812900  1.0
  Sn  Sn12  1  0.08286800  0.18724900  0.38649700  1.0
  Sn  Sn13  1  0.81389100  0.42235700  0.30166100  1.0
  Sn  Sn14  1  0.28102400  0.65003800  0.69425800  1.0
  Sn  Sn15  1  0.20265700  0.89645500  0.41344200  1.0
  Sn  Sn16  1  0.81897600  0.04996200  0.30574200  1.0
  Sn  Sn17  1  0.28610900  0.27764300  0.69833900  1.0
  Sn  Sn18  1  0.01713200  0.51275100  0.61350300  1.0
  Sn  Sn19  1  0.59802800  0.69860200  0.51187100  1.0
