# generated using pymatgen
data_Sn
_symmetry_space_group_name_H-M   'P 1'
_cell_length_a   8.14630723
_cell_length_b   10.51683583
_cell_length_c   27.01830199
_cell_angle_alpha   98.95746929
_cell_angle_beta   90.00014458
_cell_angle_gamma   104.96314837
_symmetry_Int_Tables_number   1
_chemical_formula_structural   Sn
_chemical_formula_sum   Sn36
_cell_volume   2207.02663484
_cell_formula_units_Z   36
loop_
 _symmetry_equiv_pos_site_id
 _symmetry_equiv_pos_as_xyz
  1  'x, y, z'
loop_
 _atom_site_type_symbol
 _atom_site_label
 _atom_site_symmetry_multiplicity
 _atom_site_fract_x
 _atom_site_fract_y
 _atom_site_fract_z
 _atom_site_occupancy
  Sn  Sn0  1  0.23244000  0.61826900  0.38514300  1.0
  Sn  Sn1  1  0.45879400  0.44828700  0.24410800  1.0
  Sn  Sn2  1  0.37614900  0.00464400  0.31379400  1.0
  Sn  Sn3  1  0.83079600  0.43249100  0.24375300  1.0
  Sn  Sn4  1  0.66604700  0.93318200  0.26107400  1.0
  Sn  Sn5  1  0.54874100  0.56677700  0.34968900  1.0
  Sn  Sn6  1  0.89702600  0.20552000  0.28480200  1.0
  Sn  Sn7  1  0.78990000  0.82225500  0.34326300  1.0
  Sn  Sn8  1  0.15908500  0.59413300  0.21740600  1.0
  Sn  Sn9  1  0.25308000  0.20729600  0.27498200  1.0
  Sn  Sn10  1  0.10666000  0.75457800  0.31391400  1.0
  Sn  Sn11  1  0.98303200  0.36591600  0.38442800  1.0
  Sn  Sn12  1  0.83484500  0.42079400  0.58530600  1.0
  Sn  Sn13  1  0.10039800  0.21373700  0.45022900  1.0
  Sn  Sn14  1  0.96447000  0.81630400  0.51458100  1.0
  Sn  Sn15  1  0.41515500  0.16254000  0.41469400  1.0
  Sn  Sn16  1  0.28553000  0.76703000  0.48541900  1.0
  Sn  Sn17  1  0.14960200  0.36959700  0.54977100  1.0
  Sn  Sn18  1  0.53600800  0.01589000  0.48276000  1.0
  Sn  Sn19  1  0.40176600  0.62178600  0.55411400  1.0
  Sn  Sn20  1  0.66321600  0.41576200  0.41697100  1.0
  Sn  Sn21  1  0.84823400  0.96154800  0.44588600  1.0
  Sn  Sn22  1  0.71399200  0.56744400  0.51724000  1.0
  Sn  Sn23  1  0.58678400  0.16757200  0.58302900  1.0
  Sn  Sn24  1  0.41920400  0.15084300  0.75624700  1.0
  Sn  Sn25  1  0.70125900  0.01655700  0.65031100  1.0
  Sn  Sn26  1  0.58395300  0.65015200  0.73892600  1.0
  Sn  Sn27  1  0.01756000  0.96506500  0.61485700  1.0
  Sn  Sn28  1  0.87385100  0.57869000  0.68620600  1.0
  Sn  Sn29  1  0.79120600  0.13504700  0.75589200  1.0
  Sn  Sn30  1  0.14334000  0.82875600  0.68608600  1.0
  Sn  Sn31  1  0.99692000  0.37603800  0.72501800  1.0
  Sn  Sn32  1  0.26696800  0.21741800  0.61557200  1.0
  Sn  Sn33  1  0.46010000  0.76107900  0.65673700  1.0
  Sn  Sn34  1  0.35297400  0.37781400  0.71519800  1.0
  Sn  Sn35  1  0.09091500  0.98920100  0.78259400  1.0
