# generated using pymatgen
data_Sn
_symmetry_space_group_name_H-M   'P 1'
_cell_length_a   6.65049300
_cell_length_b   12.43911971
_cell_length_c   55.44269414
_cell_angle_alpha   88.16842388
_cell_angle_beta   86.56154931
_cell_angle_gamma   74.49504864
_symmetry_Int_Tables_number   1
_chemical_formula_structural   Sn
_chemical_formula_sum   Sn60
_cell_volume   4411.08922826
_cell_formula_units_Z   60
loop_
 _symmetry_equiv_pos_site_id
 _symmetry_equiv_pos_as_xyz
  1  'x, y, z'
loop_
 _atom_site_type_symbol
 _atom_site_label
 _atom_site_symmetry_multiplicity
 _atom_site_fract_x
 _atom_site_fract_y
 _atom_site_fract_z
 _atom_site_occupancy
  Sn  Sn0  1  0.40112700  0.82157100  0.37899900  1.0
  Sn  Sn1  1  0.39929200  0.65375800  0.54643700  1.0
  Sn  Sn2  1  0.45032500  0.44916100  0.71749100  1.0
  Sn  Sn3  1  0.19345500  0.30248600  0.31018500  1.0
  Sn  Sn4  1  0.20147600  0.12117500  0.47884100  1.0
  Sn  Sn5  1  0.19914300  0.95095600  0.64812700  1.0
  Sn  Sn6  1  0.86113200  0.31529100  0.74403200  1.0
  Sn  Sn7  1  0.00086000  0.58850500  0.41172400  1.0
  Sn  Sn8  1  0.99944500  0.42018100  0.57932300  1.0
  Sn  Sn9  1  0.80905600  0.05588400  0.34471900  1.0
  Sn  Sn10  1  0.80051400  0.88703100  0.51276000  1.0
  Sn  Sn11  1  0.81704800  0.70524100  0.68137500  1.0
  Sn  Sn12  1  0.48869900  0.52346100  0.28620400  1.0
  Sn  Sn13  1  0.60201300  0.35447800  0.44509200  1.0
  Sn  Sn14  1  0.59833300  0.18516100  0.61271000  1.0
  Sn  Sn15  1  0.19967500  0.75083900  0.28250900  1.0
  Sn  Sn16  1  0.25070800  0.54624200  0.45356300  1.0
  Sn  Sn17  1  0.24887300  0.37842900  0.62100100  1.0
  Sn  Sn18  1  0.05166700  0.01483900  0.38729000  1.0
  Sn  Sn19  1  0.04798700  0.84552200  0.55490800  1.0
  Sn  Sn20  1  0.16130100  0.67653900  0.71379600  1.0
  Sn  Sn21  1  0.83295200  0.49475900  0.31862500  1.0
  Sn  Sn22  1  0.84948600  0.31296900  0.48724000  1.0
  Sn  Sn23  1  0.84094400  0.14411600  0.65528100  1.0
  Sn  Sn24  1  0.78886800  0.88470900  0.25596800  1.0
  Sn  Sn25  1  0.65055500  0.77981900  0.42067700  1.0
  Sn  Sn26  1  0.64914000  0.61149500  0.58827600  1.0
  Sn  Sn27  1  0.45085700  0.24904400  0.35187300  1.0
  Sn  Sn28  1  0.44852400  0.07882500  0.52115900  1.0
  Sn  Sn29  1  0.45654500  0.89751400  0.68981500  1.0
  Sn  Sn30  1  0.01767100  0.67566800  0.32739800  1.0
  Sn  Sn31  1  0.00114400  0.50467600  0.49552600  1.0
  Sn  Sn32  1  0.99138700  0.33799700  0.66186000  1.0
  Sn  Sn33  1  0.73454700  0.10815000  0.27310300  1.0
  Sn  Sn34  1  0.80223100  0.97109500  0.42890900  1.0
  Sn  Sn35  1  0.79542300  0.80462600  0.59667400  1.0
  Sn  Sn36  1  0.60594900  0.43832200  0.36140300  1.0
  Sn  Sn37  1  0.59964500  0.27105600  0.52916400  1.0
  Sn  Sn38  1  0.57537900  0.10175200  0.69638500  1.0
  Sn  Sn39  1  0.44085300  0.91002900  0.29438700  1.0
  Sn  Sn40  1  0.40140400  0.73744000  0.46243800  1.0
  Sn  Sn41  1  0.39546400  0.57135900  0.62987400  1.0
  Sn  Sn42  1  0.20797700  0.20560400  0.39447800  1.0
  Sn  Sn43  1  0.19876700  0.03720200  0.56319700  1.0
  Sn  Sn44  1  0.23262400  0.87433900  0.73614900  1.0
  Sn  Sn45  1  0.65861300  0.86200300  0.33813900  1.0
  Sn  Sn46  1  0.64885600  0.69532400  0.50447400  1.0
  Sn  Sn47  1  0.63232900  0.52433200  0.67260200  1.0
  Sn  Sn48  1  0.41737600  0.32566100  0.26385100  1.0
  Sn  Sn49  1  0.45123300  0.16279800  0.43680300  1.0
  Sn  Sn50  1  0.44202300  0.99439600  0.60552200  1.0
  Sn  Sn51  1  0.25453600  0.62864100  0.37012600  1.0
  Sn  Sn52  1  0.24859500  0.46256000  0.53756200  1.0
  Sn  Sn53  1  0.20914700  0.28997100  0.70561300  1.0
  Sn  Sn54  1  0.07462100  0.09824800  0.30361500  1.0
  Sn  Sn55  1  0.05035500  0.92894400  0.47083600  1.0
  Sn  Sn56  1  0.04405100  0.76167800  0.63859700  1.0
  Sn  Sn57  1  0.85457700  0.39537400  0.40332600  1.0
  Sn  Sn58  1  0.84776900  0.22890500  0.57109100  1.0
  Sn  Sn59  1  0.91545300  0.09185000  0.72689700  1.0
