# generated using pymatgen
data_Sn
_symmetry_space_group_name_H-M   'P 1'
_cell_length_a   4.70384401
_cell_length_b   19.39189708
_cell_length_c   30.11305842
_cell_angle_alpha   105.36148846
_cell_angle_beta   90.00000000
_cell_angle_gamma   90.00000000
_symmetry_Int_Tables_number   1
_chemical_formula_structural   Sn
_chemical_formula_sum   Sn36
_cell_volume   2648.67326864
_cell_formula_units_Z   36
loop_
 _symmetry_equiv_pos_site_id
 _symmetry_equiv_pos_as_xyz
  1  'x, y, z'
loop_
 _atom_site_type_symbol
 _atom_site_label
 _atom_site_symmetry_multiplicity
 _atom_site_fract_x
 _atom_site_fract_y
 _atom_site_fract_z
 _atom_site_occupancy
  Sn  Sn0  1  0.99999800  0.60146200  0.40124700  1.0
  Sn  Sn1  1  0.00000100  0.00937500  0.33351400  1.0
  Sn  Sn2  1  0.99999400  0.43077700  0.28408500  1.0
  Sn  Sn3  1  0.50000100  0.04189800  0.28178500  1.0
  Sn  Sn4  1  0.49999900  0.26021400  0.41287300  1.0
  Sn  Sn5  1  0.49999800  0.62012500  0.34840500  1.0
  Sn  Sn6  1  0.49999900  0.78025500  0.35711500  1.0
  Sn  Sn7  1  0.49999800  0.20734000  0.31388400  1.0
  Sn  Sn8  1  0.49999400  0.50456200  0.25850900  1.0
  Sn  Sn9  1  0.99999900  0.86035800  0.34094900  1.0
  Sn  Sn10  1  0.99999800  0.29169200  0.30018600  1.0
  Sn  Sn11  1  0.99999900  0.44517000  0.38529600  1.0
  Sn  Sn12  1  0.00000000  0.44092000  0.56658000  1.0
  Sn  Sn13  1  0.00000100  0.82501500  0.50201400  1.0
  Sn  Sn14  1  0.99999900  0.21421200  0.45183000  1.0
  Sn  Sn15  1  0.50000100  0.85981800  0.45560100  1.0
  Sn  Sn16  1  0.50000100  0.08665900  0.56895300  1.0
  Sn  Sn17  1  0.50000000  0.48654600  0.52733600  1.0
  Sn  Sn18  1  0.50000000  0.64024900  0.54449200  1.0
  Sn  Sn19  1  0.50001200  0.01349300  0.47260600  1.0
  Sn  Sn20  1  0.49999900  0.41326200  0.43098500  1.0
  Sn  Sn21  1  0.00000000  0.67516000  0.49808600  1.0
  Sn  Sn22  1  0.00001000  0.05906700  0.43330500  1.0
  Sn  Sn23  1  0.00000000  0.28577500  0.54808400  1.0
  Sn  Sn24  1  0.99999900  0.20797700  0.69971600  1.0
  Sn  Sn25  1  0.00000100  0.64022100  0.65955800  1.0
  Sn  Sn26  1  0.00000100  0.05487400  0.61471300  1.0
  Sn  Sn27  1  0.50000100  0.71994000  0.64301200  1.0
  Sn  Sn28  1  0.50000800  0.99515400  0.74152100  1.0
  Sn  Sn29  1  0.49999800  0.29239500  0.68599000  1.0
  Sn  Sn30  1  0.49999300  0.45800100  0.71799700  1.0
  Sn  Sn31  1  0.49999900  0.87984100  0.65160400  1.0
  Sn  Sn32  1  0.50000000  0.23970100  0.58700900  1.0
  Sn  Sn33  1  0.99999300  0.49093800  0.66635700  1.0
  Sn  Sn34  1  0.99999900  0.89862500  0.59884100  1.0
  Sn  Sn35  1  0.00001000  0.06892800  0.71595800  1.0
