# generated using pymatgen
data_Sn
_symmetry_space_group_name_H-M   'P 1'
_cell_length_a   4.70448324
_cell_length_b   11.51860437
_cell_length_c   32.58548693
_cell_angle_alpha   89.99818878
_cell_angle_beta   90.00000000
_cell_angle_gamma   90.00000000
_symmetry_Int_Tables_number   1
_chemical_formula_structural   Sn
_chemical_formula_sum   Sn32
_cell_volume   1765.77759653
_cell_formula_units_Z   32
loop_
 _symmetry_equiv_pos_site_id
 _symmetry_equiv_pos_as_xyz
  1  'x, y, z'
loop_
 _atom_site_type_symbol
 _atom_site_label
 _atom_site_symmetry_multiplicity
 _atom_site_fract_x
 _atom_site_fract_y
 _atom_site_fract_z
 _atom_site_occupancy
  Sn  Sn0  1  0.00000000  0.52031400  0.47936000  1.0
  Sn  Sn1  1  0.00000000  0.53937200  0.22910100  1.0
  Sn  Sn2  1  0.00000000  0.18892600  0.31199800  1.0
  Sn  Sn3  1  0.00000000  0.85444000  0.39554300  1.0
  Sn  Sn4  1  0.50000000  0.77641400  0.35215700  1.0
  Sn  Sn5  1  0.50000000  0.43876400  0.43697100  1.0
  Sn  Sn6  1  0.50000000  0.39845300  0.21071300  1.0
  Sn  Sn7  1  0.50000000  0.10675600  0.26885400  1.0
  Sn  Sn8  1  0.50000000  0.85050500  0.26721600  1.0
  Sn  Sn9  1  0.50000000  0.52552000  0.35425600  1.0
  Sn  Sn10  1  0.50000000  0.18834400  0.43735200  1.0
  Sn  Sn11  1  0.50000000  0.16531800  0.18151500  1.0
  Sn  Sn12  1  0.00000000  0.79763300  0.21706400  1.0
  Sn  Sn13  1  0.00000000  0.44032000  0.31204700  1.0
  Sn  Sn14  1  0.00000000  0.10482900  0.39540100  1.0
  Sn  Sn15  1  0.00000000  0.77072600  0.47913200  1.0
  Sn  Sn16  1  0.00000000  0.22654700  0.78928700  1.0
  Sn  Sn17  1  0.00000000  0.18623600  0.56302900  1.0
  Sn  Sn18  1  0.00000000  0.84858600  0.64784300  1.0
  Sn  Sn19  1  0.00000000  0.51824400  0.73114600  1.0
  Sn  Sn20  1  0.50000000  0.43607400  0.68800200  1.0
  Sn  Sn21  1  0.50000000  0.08562800  0.77089900  1.0
  Sn  Sn22  1  0.50000000  0.10468600  0.52064000  1.0
  Sn  Sn23  1  0.50000000  0.77056000  0.60445700  1.0
  Sn  Sn24  1  0.50000000  0.52017100  0.60459900  1.0
  Sn  Sn25  1  0.50000000  0.18468000  0.68795300  1.0
  Sn  Sn26  1  0.50000000  0.82736700  0.78293600  1.0
  Sn  Sn27  1  0.50000000  0.85427400  0.52086800  1.0
  Sn  Sn28  1  0.00000000  0.43665600  0.56264800  1.0
  Sn  Sn29  1  0.00000000  0.09948000  0.64574400  1.0
  Sn  Sn30  1  0.00000000  0.77449500  0.73278400  1.0
  Sn  Sn31  1  0.00000000  0.45968200  0.81848500  1.0
