# generated using pymatgen
data_Sn
_symmetry_space_group_name_H-M   'P 1'
_cell_length_a   4.70337025
_cell_length_b   8.14634439
_cell_length_c   24.43727306
_cell_angle_alpha   80.40931224
_cell_angle_beta   84.47767863
_cell_angle_gamma   73.22106550
_symmetry_Int_Tables_number   1
_chemical_formula_structural   Sn
_chemical_formula_sum   Sn12
_cell_volume   882.77807665
_cell_formula_units_Z   12
loop_
 _symmetry_equiv_pos_site_id
 _symmetry_equiv_pos_as_xyz
  1  'x, y, z'
loop_
 _atom_site_type_symbol
 _atom_site_label
 _atom_site_symmetry_multiplicity
 _atom_site_fract_x
 _atom_site_fract_y
 _atom_site_fract_z
 _atom_site_occupancy
  Sn  Sn0  1  0.50969300  0.49072900  0.48988400  1.0
  Sn  Sn1  1  0.00882500  0.67072100  0.31162900  1.0
  Sn  Sn2  1  0.25990300  0.07444900  0.40574500  1.0
  Sn  Sn3  1  0.61902200  0.44463300  0.31732400  1.0
  Sn  Sn4  1  0.80816100  0.04752100  0.33615700  1.0
  Sn  Sn5  1  0.07045000  0.43567700  0.42342300  1.0
  Sn  Sn6  1  0.21431200  0.88870000  0.68267600  1.0
  Sn  Sn7  1  0.76288400  0.89765600  0.57657700  1.0
  Sn  Sn8  1  0.02517300  0.28581300  0.66384300  1.0
  Sn  Sn9  1  0.32364100  0.84260400  0.51011600  1.0
  Sn  Sn10  1  0.57343100  0.25888500  0.59425500  1.0
  Sn  Sn11  1  0.82450900  0.66261200  0.68837100  1.0
