# generated using pymatgen
data_Sn
_symmetry_space_group_name_H-M   'P 1'
_cell_length_a   4.71476457
_cell_length_b   14.08750341
_cell_length_c   23.02553821
_cell_angle_alpha   105.65795277
_cell_angle_beta   90.00000000
_cell_angle_gamma   90.00000000
_symmetry_Int_Tables_number   1
_chemical_formula_structural   Sn
_chemical_formula_sum   Sn20
_cell_volume   1472.58558252
_cell_formula_units_Z   20
loop_
 _symmetry_equiv_pos_site_id
 _symmetry_equiv_pos_as_xyz
  1  'x, y, z'
loop_
 _atom_site_type_symbol
 _atom_site_label
 _atom_site_symmetry_multiplicity
 _atom_site_fract_x
 _atom_site_fract_y
 _atom_site_fract_z
 _atom_site_occupancy
  Sn  Sn0  1  0.00000000  0.43939900  0.67330900  1.0
  Sn  Sn1  1  0.00000000  0.79229300  0.60764900  1.0
  Sn  Sn2  1  0.00000000  0.94556200  0.27135200  1.0
  Sn  Sn3  1  0.00000000  0.19509300  0.48207400  1.0
  Sn  Sn4  1  0.00000000  0.62251400  0.37816700  1.0
  Sn  Sn5  1  0.50000000  0.50770700  0.39235100  1.0
  Sn  Sn6  1  0.50000000  0.86060100  0.32669100  1.0
  Sn  Sn7  1  0.50000000  0.10490700  0.51792600  1.0
  Sn  Sn8  1  0.50000000  0.35443800  0.72864800  1.0
  Sn  Sn9  1  0.50000000  0.67748600  0.62183300  1.0
  Sn  Sn10  1  0.50000000  0.50014400  0.51769800  1.0
  Sn  Sn11  1  0.50000000  0.89871900  0.45591900  1.0
  Sn  Sn12  1  0.50000000  0.13619600  0.64888200  1.0
  Sn  Sn13  1  0.50000000  0.29098700  0.36205700  1.0
  Sn  Sn14  1  0.50000000  0.58474100  0.72424400  1.0
  Sn  Sn15  1  0.00000000  0.16380400  0.35111800  1.0
  Sn  Sn16  1  0.00000000  0.71525900  0.27575600  1.0
  Sn  Sn17  1  0.00000000  0.79985600  0.48230200  1.0
  Sn  Sn18  1  0.00000000  0.00901300  0.63794300  1.0
  Sn  Sn19  1  0.00000000  0.40128100  0.54408100  1.0
