# generated using pymatgen
data_Ce
_symmetry_space_group_name_H-M   'P 1'
_cell_length_a   4.70312100
_cell_length_b   7.43688902
_cell_length_c   26.81207947
_cell_angle_alpha   93.17697111
_cell_angle_beta   90.00000000
_cell_angle_gamma   90.00000000
_symmetry_Int_Tables_number   1
_chemical_formula_structural   Ce
_chemical_formula_sum   Ce18
_cell_volume   936.35380321
_cell_formula_units_Z   18
loop_
 _symmetry_equiv_pos_site_id
 _symmetry_equiv_pos_as_xyz
  1  'x, y, z'
loop_
 _atom_site_type_symbol
 _atom_site_label
 _atom_site_symmetry_multiplicity
 _atom_site_fract_x
 _atom_site_fract_y
 _atom_site_fract_z
 _atom_site_occupancy
  Ce  Ce0  1  0.00000000  0.97600500  0.34163100  1.0
  Ce  Ce1  1  0.00000000  0.36923900  0.29356800  1.0
  Ce  Ce2  1  0.00000000  0.60472300  0.39992200  1.0
  Ce  Ce3  1  0.50000000  0.69653300  0.31774400  1.0
  Ce  Ce4  1  0.50000000  0.03744000  0.27266800  1.0
  Ce  Ce5  1  0.50000000  0.29694900  0.37713500  1.0
  Ce  Ce6  1  0.00000000  0.81803800  0.51329100  1.0
  Ce  Ce7  1  0.00000000  0.20606300  0.45575800  1.0
  Ce  Ce8  1  0.00000000  0.42337100  0.56915300  1.0
  Ce  Ce9  1  0.50000000  0.51529600  0.48670900  1.0
  Ce  Ce10  1  0.50000000  0.90996300  0.43084700  1.0
  Ce  Ce11  1  0.50000000  0.12726900  0.54424200  1.0
  Ce  Ce12  1  0.00000000  0.63680100  0.68225600  1.0
  Ce  Ce13  1  0.00000000  0.03638300  0.62286500  1.0
  Ce  Ce14  1  0.00000000  0.29589400  0.72733200  1.0
  Ce  Ce15  1  0.50000000  0.35732900  0.65836900  1.0
  Ce  Ce16  1  0.50000000  0.72861100  0.60007800  1.0
  Ce  Ce17  1  0.50000000  0.96409300  0.70643200  1.0
