# generated using pymatgen
data_Sn
_symmetry_space_group_name_H-M   'P 1'
_cell_length_a   4.70215686
_cell_length_b   22.05654566
_cell_length_c   23.03150798
_cell_angle_alpha   100.02124809
_cell_angle_beta   90.00000000
_cell_angle_gamma   90.00000000
_symmetry_Int_Tables_number   1
_chemical_formula_structural   Sn
_chemical_formula_sum   Sn32
_cell_volume   2352.23124010
_cell_formula_units_Z   32
loop_
 _symmetry_equiv_pos_site_id
 _symmetry_equiv_pos_as_xyz
  1  'x, y, z'
loop_
 _atom_site_type_symbol
 _atom_site_label
 _atom_site_symmetry_multiplicity
 _atom_site_fract_x
 _atom_site_fract_y
 _atom_site_fract_z
 _atom_site_occupancy
  Sn  Sn0  1  0.00000200  0.64907400  0.68304600  1.0
  Sn  Sn1  1  0.00000000  0.86675700  0.59799500  1.0
  Sn  Sn2  1  0.00000400  0.25023300  0.64571500  1.0
  Sn  Sn3  1  0.00001200  0.49804900  0.49885000  1.0
  Sn  Sn4  1  0.99999500  0.76644600  0.38032800  1.0
  Sn  Sn5  1  0.99999700  0.97180000  0.26171200  1.0
  Sn  Sn6  1  0.00000000  0.12516900  0.46348500  1.0
  Sn  Sn7  1  0.99999800  0.35680800  0.29684300  1.0
  Sn  Sn8  1  0.49999400  0.69569700  0.40191600  1.0
  Sn  Sn9  1  0.49999700  0.91341300  0.31691800  1.0
  Sn  Sn10  1  0.49999800  0.31222600  0.35468300  1.0
  Sn  Sn11  1  0.50000200  0.59072200  0.73835400  1.0
  Sn  Sn12  1  0.50000000  0.79600000  0.61951300  1.0
  Sn  Sn13  1  0.49999900  0.06452900  0.50083500  1.0
  Sn  Sn14  1  0.50000400  0.20535300  0.70331200  1.0
  Sn  Sn15  1  0.50001600  0.43770900  0.53657900  1.0
  Sn  Sn16  1  0.49999700  0.68664800  0.52623400  1.0
  Sn  Sn17  1  0.50000100  0.93845100  0.44348900  1.0
  Sn  Sn18  1  0.50000500  0.30946500  0.48038500  1.0
  Sn  Sn19  1  0.49999800  0.56192400  0.36955400  1.0
  Sn  Sn20  1  0.50000200  0.73780500  0.72700800  1.0
  Sn  Sn21  1  0.49999900  0.07907100  0.62909500  1.0
  Sn  Sn22  1  0.49998500  0.17806400  0.33497500  1.0
  Sn  Sn23  1  0.50000800  0.46205400  0.66583400  1.0
  Sn  Sn24  1  0.99999800  0.48332700  0.37059300  1.0
  Sn  Sn25  1  0.99999700  0.82471500  0.27289600  1.0
  Sn  Sn26  1  0.99998200  0.10042300  0.33421000  1.0
  Sn  Sn27  1  0.00000800  0.38433300  0.66480600  1.0
  Sn  Sn28  1  0.99999800  0.62405000  0.55646300  1.0
  Sn  Sn29  1  0.00000200  0.87585600  0.47367900  1.0
  Sn  Sn30  1  0.99999900  0.00050200  0.63063600  1.0
  Sn  Sn31  1  0.00000300  0.25332700  0.52006000  1.0
