# generated using pymatgen
data_Li
_symmetry_space_group_name_H-M   'P 1'
_cell_length_a   3.06838754
_cell_length_b   4.96669800
_cell_length_c   24.54709600
_cell_angle_alpha   90.00000000
_cell_angle_beta   60.00001658
_cell_angle_gamma   90.00000000
_symmetry_Int_Tables_number   1
_chemical_formula_structural   Li
_chemical_formula_sum   Li8
_cell_volume   323.97297902
_cell_formula_units_Z   8
loop_
 _symmetry_equiv_pos_site_id
 _symmetry_equiv_pos_as_xyz
  1  'x, y, z'
loop_
 _atom_site_type_symbol
 _atom_site_label
 _atom_site_symmetry_multiplicity
 _atom_site_fract_x
 _atom_site_fract_y
 _atom_site_fract_z
 _atom_site_occupancy
  Li  Li0  1  0.32853200  0.75000000  0.29286800  1.0
  Li  Li1  1  0.65088200  0.25000000  0.33727900  1.0
  Li  Li2  1  0.34993700  0.75000000  0.41251600  1.0
  Li  Li3  1  0.65804900  0.25000000  0.46048700  1.0
  Li  Li4  1  0.34195100  0.75000000  0.53951300  1.0
  Li  Li5  1  0.65006300  0.25000000  0.58748400  1.0
  Li  Li6  1  0.34911800  0.75000000  0.66272100  1.0
  Li  Li7  1  0.67146800  0.25000000  0.70713200  1.0
