# generated using pymatgen
data_Li
_symmetry_space_group_name_H-M   'P 1'
_cell_length_a   4.98002100
_cell_length_b   5.30512700
_cell_length_c   24.52397600
_cell_angle_alpha   90.00000000
_cell_angle_beta   90.00000000
_cell_angle_gamma   90.00000000
_symmetry_Int_Tables_number   1
_chemical_formula_structural   Li
_chemical_formula_sum   Li16
_cell_volume   647.91471214
_cell_formula_units_Z   16
loop_
 _symmetry_equiv_pos_site_id
 _symmetry_equiv_pos_as_xyz
  1  'x, y, z'
loop_
 _atom_site_type_symbol
 _atom_site_label
 _atom_site_symmetry_multiplicity
 _atom_site_fract_x
 _atom_site_fract_y
 _atom_site_fract_z
 _atom_site_occupancy
  Li  Li0  1  0.25000000  0.32043700  0.34613800  1.0
  Li  Li1  1  0.25000000  0.79492400  0.28048600  1.0
  Li  Li2  1  0.75000000  0.67956300  0.34613800  1.0
  Li  Li3  1  0.75000000  0.20507600  0.28048600  1.0
  Li  Li4  1  0.25000000  0.33474300  0.46900700  1.0
  Li  Li5  1  0.25000000  0.82890400  0.40500400  1.0
  Li  Li6  1  0.75000000  0.66525700  0.46900700  1.0
  Li  Li7  1  0.75000000  0.17109600  0.40500400  1.0
  Li  Li8  1  0.25000000  0.32890400  0.59499600  1.0
  Li  Li9  1  0.25000000  0.83474300  0.53099300  1.0
  Li  Li10  1  0.75000000  0.67109600  0.59499600  1.0
  Li  Li11  1  0.75000000  0.16525700  0.53099300  1.0
  Li  Li12  1  0.25000000  0.29492400  0.71951400  1.0
  Li  Li13  1  0.25000000  0.82043700  0.65386200  1.0
  Li  Li14  1  0.75000000  0.70507600  0.71951400  1.0
  Li  Li15  1  0.75000000  0.17956300  0.65386200  1.0
