# generated using pymatgen
data_Li
_symmetry_space_group_name_H-M   'P 1'
_cell_length_a   3.03780535
_cell_length_b   5.87952794
_cell_length_c   31.79754400
_cell_angle_alpha   63.21257223
_cell_angle_beta   89.99997485
_cell_angle_gamma   75.02854102
_symmetry_Int_Tables_number   1
_chemical_formula_structural   Li
_chemical_formula_sum   Li12
_cell_volume   485.28999174
_cell_formula_units_Z   12
loop_
 _symmetry_equiv_pos_site_id
 _symmetry_equiv_pos_as_xyz
  1  'x, y, z'
loop_
 _atom_site_type_symbol
 _atom_site_label
 _atom_site_symmetry_multiplicity
 _atom_site_fract_x
 _atom_site_fract_y
 _atom_site_fract_z
 _atom_site_occupancy
  Li  Li0  1  0.87920800  0.24158200  0.29933400  1.0
  Li  Li1  1  0.37369600  0.25260700  0.38060800  1.0
  Li  Li2  1  0.12262800  0.75474300  0.28582700  1.0
  Li  Li3  1  0.62424300  0.75151600  0.36759600  1.0
  Li  Li4  1  0.87450800  0.25098400  0.46497500  1.0
  Li  Li5  1  0.37452600  0.25094700  0.54841800  1.0
  Li  Li6  1  0.12547400  0.74905100  0.45158200  1.0
  Li  Li7  1  0.62549300  0.74901500  0.53502500  1.0
  Li  Li8  1  0.87575800  0.24848300  0.63240400  1.0
  Li  Li9  1  0.37737200  0.24525500  0.71417400  1.0
  Li  Li10  1  0.12630400  0.74739100  0.61939200  1.0
  Li  Li11  1  0.62079300  0.75841700  0.70066600  1.0
