# generated using pymatgen
data_Li
_symmetry_space_group_name_H-M   'P 1'
_cell_length_a   3.06169009
_cell_length_b   7.90936540
_cell_length_c   22.57559295
_cell_angle_alpha   104.15193641
_cell_angle_beta   89.99998647
_cell_angle_gamma   67.22600304
_symmetry_Int_Tables_number   1
_chemical_formula_structural   Li
_chemical_formula_sum   Li12
_cell_volume   486.02606754
_cell_formula_units_Z   12
loop_
 _symmetry_equiv_pos_site_id
 _symmetry_equiv_pos_as_xyz
  1  'x, y, z'
loop_
 _atom_site_type_symbol
 _atom_site_label
 _atom_site_symmetry_multiplicity
 _atom_site_fract_x
 _atom_site_fract_y
 _atom_site_fract_z
 _atom_site_occupancy
  Li  Li0  1  0.30373600  0.19626300  0.69501700  1.0
  Li  Li1  1  0.80640300  0.19359600  0.44400000  1.0
  Li  Li2  1  0.13871800  0.86128100  0.61262600  1.0
  Li  Li3  1  0.63952000  0.86047900  0.36244800  1.0
  Li  Li4  1  0.97234700  0.52765300  0.52676400  1.0
  Li  Li5  1  0.46853900  0.53146100  0.27902800  1.0
  Li  Li6  1  0.52714600  0.47285400  0.63755200  1.0
  Li  Li7  1  0.02794800  0.47205200  0.38737400  1.0
  Li  Li8  1  0.36026400  0.13973700  0.55600000  1.0
  Li  Li9  1  0.86293100  0.13707000  0.30498300  1.0
  Li  Li10  1  0.19432000  0.80568100  0.47323700  1.0
  Li  Li11  1  0.69812800  0.80187300  0.72097300  1.0
