# generated using pymatgen
data_Li
_symmetry_space_group_name_H-M   'P 1'
_cell_length_a   3.06110228
_cell_length_b   10.43754502
_cell_length_c   21.20794031
_cell_angle_alpha   75.28648214
_cell_angle_beta   89.99996956
_cell_angle_gamma   81.56778587
_symmetry_Int_Tables_number   1
_chemical_formula_structural   Li
_chemical_formula_sum   Li16
_cell_volume   647.80596992
_cell_formula_units_Z   16
loop_
 _symmetry_equiv_pos_site_id
 _symmetry_equiv_pos_as_xyz
  1  'x, y, z'
loop_
 _atom_site_type_symbol
 _atom_site_label
 _atom_site_symmetry_multiplicity
 _atom_site_fract_x
 _atom_site_fract_y
 _atom_site_fract_z
 _atom_site_occupancy
  Li  Li0  1  0.18590700  0.62818700  0.42969200  1.0
  Li  Li1  1  0.69066000  0.61867700  0.30756100  1.0
  Li  Li2  1  0.93668000  0.12664000  0.36750100  1.0
  Li  Li3  1  0.43760100  0.12479900  0.49447900  1.0
  Li  Li4  1  0.56260900  0.87478300  0.44333400  1.0
  Li  Li5  1  0.05925100  0.88149900  0.31912200  1.0
  Li  Li6  1  0.31220800  0.37558500  0.37988200  1.0
  Li  Li7  1  0.81461300  0.37077400  0.25952400  1.0
  Li  Li8  1  0.19075000  0.61850100  0.68087800  1.0
  Li  Li9  1  0.68739100  0.62521700  0.55666600  1.0
  Li  Li10  1  0.93779200  0.12441500  0.62011800  1.0
  Li  Li11  1  0.43538700  0.12922600  0.74047600  1.0
  Li  Li12  1  0.55934000  0.88132300  0.69243900  1.0
  Li  Li13  1  0.06409400  0.87181300  0.57030800  1.0
  Li  Li14  1  0.31332000  0.37336000  0.63249900  1.0
  Li  Li15  1  0.81239900  0.37520100  0.50552100  1.0
