# generated using pymatgen
data_Li
_symmetry_space_group_name_H-M   'P 1'
_cell_length_a   5.84801284
_cell_length_b   7.27812866
_cell_length_c   23.67428600
_cell_angle_alpha   93.60771918
_cell_angle_beta   91.40374976
_cell_angle_gamma   104.75798841
_symmetry_Int_Tables_number   1
_chemical_formula_structural   Li
_chemical_formula_sum   Li24
_cell_volume   971.60855416
_cell_formula_units_Z   24
loop_
 _symmetry_equiv_pos_site_id
 _symmetry_equiv_pos_as_xyz
  1  'x, y, z'
loop_
 _atom_site_type_symbol
 _atom_site_label
 _atom_site_symmetry_multiplicity
 _atom_site_fract_x
 _atom_site_fract_y
 _atom_site_fract_z
 _atom_site_occupancy
  Li  Li0  1  0.03085100  0.63425900  0.34041300  1.0
  Li  Li1  1  0.81033200  0.32301800  0.25486100  1.0
  Li  Li2  1  0.42135700  0.95287900  0.29264300  1.0
  Li  Li3  1  0.95228500  0.03502400  0.32984100  1.0
  Li  Li4  1  0.57362600  0.69998800  0.37494400  1.0
  Li  Li5  1  0.33825000  0.38043700  0.29316000  1.0
  Li  Li6  1  0.91984500  0.63259200  0.46173800  1.0
  Li  Li7  1  0.67038300  0.28907700  0.37452000  1.0
  Li  Li8  1  0.29648100  0.96617100  0.41775000  1.0
  Li  Li9  1  0.82543000  0.03157700  0.45554600  1.0
  Li  Li10  1  0.44729200  0.69893600  0.50006300  1.0
  Li  Li11  1  0.20099600  0.36475100  0.41303800  1.0
  Li  Li12  1  0.79902100  0.63528000  0.58697000  1.0
  Li  Li13  1  0.55270400  0.30106600  0.49995000  1.0
  Li  Li14  1  0.17456000  0.96842400  0.54445800  1.0
  Li  Li15  1  0.70351200  0.03379100  0.58224800  1.0
  Li  Li16  1  0.32960800  0.71092100  0.62548400  1.0
  Li  Li17  1  0.08013700  0.36740300  0.53826400  1.0
  Li  Li18  1  0.66174400  0.61955800  0.70683100  1.0
  Li  Li19  1  0.42638600  0.30002400  0.62506400  1.0
  Li  Li20  1  0.04774000  0.96498700  0.67015400  1.0
  Li  Li21  1  0.57863600  0.04712000  0.70734200  1.0
  Li  Li22  1  0.18966300  0.67697400  0.74512800  1.0
  Li  Li23  1  0.96916200  0.36574300  0.65958900  1.0
