# generated using pymatgen
data_Li
_symmetry_space_group_name_H-M   'P 1'
_cell_length_a   3.06838800
_cell_length_b   3.06838767
_cell_length_c   39.73358200
_cell_angle_alpha   90.00000000
_cell_angle_beta   90.00000000
_cell_angle_gamma   120.00002510
_symmetry_Int_Tables_number   1
_chemical_formula_structural   Li
_chemical_formula_sum   Li8
_cell_volume   323.97294595
_cell_formula_units_Z   8
loop_
 _symmetry_equiv_pos_site_id
 _symmetry_equiv_pos_as_xyz
  1  'x, y, z'
loop_
 _atom_site_type_symbol
 _atom_site_label
 _atom_site_symmetry_multiplicity
 _atom_site_fract_x
 _atom_site_fract_y
 _atom_site_fract_z
 _atom_site_occupancy
  Li  Li0  1  0.33333333  0.66666667  0.34299600  1.0
  Li  Li1  1  0.66666667  0.33333333  0.28195500  1.0
  Li  Li2  1  0.33333333  0.66666667  0.46878800  1.0
  Li  Li3  1  0.66666667  0.33333333  0.40615000  1.0
  Li  Li4  1  0.33333333  0.66666667  0.59385000  1.0
  Li  Li5  1  0.66666667  0.33333333  0.53121200  1.0
  Li  Li6  1  0.33333333  0.66666667  0.71804500  1.0
  Li  Li7  1  0.66666667  0.33333333  0.65700400  1.0
