# generated using pymatgen
data_Dy
_symmetry_space_group_name_H-M   'P 1'
_cell_length_a   3.62142607
_cell_length_b   9.17659014
_cell_length_c   25.79517381
_cell_angle_alpha   78.22260435
_cell_angle_beta   90.00000066
_cell_angle_gamma   66.75663812
_symmetry_Int_Tables_number   1
_chemical_formula_structural   Dy
_chemical_formula_sum   Dy12
_cell_volume   767.97861328
_cell_formula_units_Z   12
loop_
 _symmetry_equiv_pos_site_id
 _symmetry_equiv_pos_as_xyz
  1  'x, y, z'
loop_
 _atom_site_type_symbol
 _atom_site_label
 _atom_site_symmetry_multiplicity
 _atom_site_fract_x
 _atom_site_fract_y
 _atom_site_fract_z
 _atom_site_occupancy
  Dy  Dy0  1  0.36024300  0.63975800  0.36437900  1.0
  Dy  Dy1  1  0.86875200  0.63124900  0.61417100  1.0
  Dy  Dy2  1  0.54906700  0.95093300  0.28450700  1.0
  Dy  Dy3  1  0.03141300  0.96858700  0.52817600  1.0
  Dy  Dy4  1  0.19444500  0.30555600  0.44402900  1.0
  Dy  Dy5  1  0.69813600  0.30186500  0.69366700  1.0
  Dy  Dy6  1  0.28426600  0.71573300  0.71549300  1.0
  Dy  Dy7  1  0.80192000  0.69807900  0.47182400  1.0
  Dy  Dy8  1  0.96458200  0.03541800  0.38582900  1.0
  Dy  Dy9  1  0.47309100  0.02690900  0.63562100  1.0
  Dy  Dy10  1  0.13519800  0.36480200  0.30633300  1.0
  Dy  Dy11  1  0.63888900  0.36111100  0.55597100  1.0
