# generated using pymatgen
data_Ce
_symmetry_space_group_name_H-M   'P 1'
_cell_length_a   4.69474000
_cell_length_b   8.79530395
_cell_length_c   26.45222316
_cell_angle_alpha   81.86978553
_cell_angle_beta   84.90887625
_cell_angle_gamma   74.52077140
_symmetry_Int_Tables_number   1
_chemical_formula_structural   Ce
_chemical_formula_sum   Ce20
_cell_volume   1040.56767835
_cell_formula_units_Z   20
loop_
 _symmetry_equiv_pos_site_id
 _symmetry_equiv_pos_as_xyz
  1  'x, y, z'
loop_
 _atom_site_type_symbol
 _atom_site_label
 _atom_site_symmetry_multiplicity
 _atom_site_fract_x
 _atom_site_fract_y
 _atom_site_fract_z
 _atom_site_occupancy
  Ce  Ce0  1  0.40230000  0.75741900  0.43798100  1.0
  Ce  Ce1  1  0.20221200  0.26518800  0.33038800  1.0
  Ce  Ce2  1  0.00030800  0.51515500  0.48422900  1.0
  Ce  Ce3  1  0.80296200  0.00304300  0.39103400  1.0
  Ce  Ce4  1  0.60378300  0.50339200  0.28904200  1.0
  Ce  Ce5  1  0.00522200  0.63614900  0.35340700  1.0
  Ce  Ce6  1  0.78183300  0.16403500  0.27229900  1.0
  Ce  Ce7  1  0.60279400  0.38117800  0.41323400  1.0
  Ce  Ce8  1  0.40265200  0.87986100  0.31483600  1.0
  Ce  Ce9  1  0.20065400  0.13894100  0.45975000  1.0
  Ce  Ce10  1  0.39734800  0.52013900  0.68516400  1.0
  Ce  Ce11  1  0.19720600  0.01882200  0.58676600  1.0
  Ce  Ce12  1  0.01816700  0.23596500  0.72770100  1.0
  Ce  Ce13  1  0.79477800  0.76385100  0.64659300  1.0
  Ce  Ce14  1  0.59934600  0.26105900  0.54025000  1.0
  Ce  Ce15  1  0.99703800  0.39695700  0.60896600  1.0
  Ce  Ce16  1  0.79969200  0.88484500  0.51577100  1.0
  Ce  Ce17  1  0.59778800  0.13481200  0.66961200  1.0
  Ce  Ce18  1  0.39770000  0.64258100  0.56201900  1.0
  Ce  Ce19  1  0.19621700  0.89660800  0.71095800  1.0
