# generated using pymatgen
data_Dy
_symmetry_space_group_name_H-M   'P 1'
_cell_length_a   3.62142607
_cell_length_b   5.63479300
_cell_length_c   28.97140800
_cell_angle_alpha   90.00000000
_cell_angle_beta   60.00000068
_cell_angle_gamma   90.00000000
_symmetry_Int_Tables_number   1
_chemical_formula_structural   Dy
_chemical_formula_sum   Dy8
_cell_volume   511.98569521
_cell_formula_units_Z   8
loop_
 _symmetry_equiv_pos_site_id
 _symmetry_equiv_pos_as_xyz
  1  'x, y, z'
loop_
 _atom_site_type_symbol
 _atom_site_label
 _atom_site_symmetry_multiplicity
 _atom_site_fract_x
 _atom_site_fract_y
 _atom_site_fract_z
 _atom_site_occupancy
  Dy  Dy0  1  0.32591600  0.25000000  0.29352200  1.0
  Dy  Dy1  1  0.65004800  0.75000000  0.33748800  1.0
  Dy  Dy2  1  0.34756800  0.25000000  0.41310900  1.0
  Dy  Dy3  1  0.67232000  0.75000000  0.45692000  1.0
  Dy  Dy4  1  0.32768000  0.25000000  0.54308000  1.0
  Dy  Dy5  1  0.65243200  0.75000000  0.58689100  1.0
  Dy  Dy6  1  0.34995200  0.25000000  0.66251200  1.0
  Dy  Dy7  1  0.67408400  0.75000000  0.70647800  1.0
