# generated using pymatgen
data_Yb
_symmetry_space_group_name_H-M   'P 1'
_cell_length_a   4.30028700
_cell_length_b   4.30028700
_cell_length_c   25.80172400
_cell_angle_alpha   90.00000000
_cell_angle_beta   90.00000000
_cell_angle_gamma   90.00000000
_symmetry_Int_Tables_number   1
_chemical_formula_structural   Yb
_chemical_formula_sum   Yb6
_cell_volume   477.13756270
_cell_formula_units_Z   6
loop_
 _symmetry_equiv_pos_site_id
 _symmetry_equiv_pos_as_xyz
  1  'x, y, z'
loop_
 _atom_site_type_symbol
 _atom_site_label
 _atom_site_symmetry_multiplicity
 _atom_site_fract_x
 _atom_site_fract_y
 _atom_site_fract_z
 _atom_site_occupancy
  Yb  Yb0  1  0.00000000  0.00000000  0.37768800  1.0
  Yb  Yb1  1  0.50000000  0.50000000  0.28974000  1.0
  Yb  Yb2  1  0.00000000  0.00000000  0.54102900  1.0
  Yb  Yb3  1  0.50000000  0.50000000  0.45897100  1.0
  Yb  Yb4  1  0.00000000  0.00000000  0.71026000  1.0
  Yb  Yb5  1  0.50000000  0.50000000  0.62231200  1.0
