# generated using pymatgen
data_Yb
_symmetry_space_group_name_H-M   'P 1'
_cell_length_a   6.08152420
_cell_length_b   6.08152420
_cell_length_c   29.79326228
_cell_angle_alpha   90.00000000
_cell_angle_beta   90.00000000
_cell_angle_gamma   60.00000000
_symmetry_Int_Tables_number   1
_chemical_formula_structural   Yb
_chemical_formula_sum   Yb12
_cell_volume   954.27505207
_cell_formula_units_Z   12
loop_
 _symmetry_equiv_pos_site_id
 _symmetry_equiv_pos_as_xyz
  1  'x, y, z'
loop_
 _atom_site_type_symbol
 _atom_site_label
 _atom_site_symmetry_multiplicity
 _atom_site_fract_x
 _atom_site_fract_y
 _atom_site_fract_z
 _atom_site_occupancy
  Yb  Yb0  1  0.66666667  0.66666667  0.31857100  1.0
  Yb  Yb1  1  0.00000000  0.00000000  0.47980000  1.0
  Yb  Yb2  1  0.33333333  0.33333333  0.39312300  1.0
  Yb  Yb3  1  0.66666667  0.66666667  0.43936000  1.0
  Yb  Yb4  1  0.00000000  0.00000000  0.35083600  1.0
  Yb  Yb5  1  0.33333333  0.33333333  0.27011400  1.0
  Yb  Yb6  1  0.66666667  0.66666667  0.56064000  1.0
  Yb  Yb7  1  0.00000000  0.00000000  0.72988600  1.0
  Yb  Yb8  1  0.33333333  0.33333333  0.64916400  1.0
  Yb  Yb9  1  0.66666667  0.66666667  0.68142900  1.0
  Yb  Yb10  1  0.00000000  0.00000000  0.60687700  1.0
  Yb  Yb11  1  0.33333333  0.33333333  0.52020000  1.0
