# generated using pymatgen
data_Yb
_symmetry_space_group_name_H-M   'P 1'
_cell_length_a   3.72415865
_cell_length_b   9.37225903
_cell_length_c   23.05772058
_cell_angle_alpha   86.32025953
_cell_angle_beta   86.91380611
_cell_angle_gamma   82.38862036
_symmetry_Int_Tables_number   1
_chemical_formula_structural   Yb
_chemical_formula_sum   Yb10
_cell_volume   795.22946791
_cell_formula_units_Z   10
loop_
 _symmetry_equiv_pos_site_id
 _symmetry_equiv_pos_as_xyz
  1  'x, y, z'
loop_
 _atom_site_type_symbol
 _atom_site_label
 _atom_site_symmetry_multiplicity
 _atom_site_fract_x
 _atom_site_fract_y
 _atom_site_fract_z
 _atom_site_occupancy
  Yb  Yb0  1  0.99360400  0.47749000  0.52447000  1.0
  Yb  Yb1  1  0.84979400  0.88062300  0.72066500  1.0
  Yb  Yb2  1  0.59251300  0.52598300  0.67337800  1.0
  Yb  Yb3  1  0.34298400  0.17467700  0.62229900  1.0
  Yb  Yb4  1  0.20353800  0.82284700  0.57419700  1.0
  Yb  Yb5  1  0.95020800  0.71939900  0.27934100  1.0
  Yb  Yb6  1  0.80642300  0.12250900  0.47552300  1.0
  Yb  Yb7  1  0.59642900  0.77713100  0.42580200  1.0
  Yb  Yb8  1  0.45690200  0.42532400  0.37770300  1.0
  Yb  Yb9  1  0.20760400  0.07401500  0.32662200  1.0
