# generated using pymatgen
data_Yb
_symmetry_space_group_name_H-M   'P 1'
_cell_length_a   6.08152420
_cell_length_b   13.59870246
_cell_length_c   24.32609679
_cell_angle_alpha   102.92096546
_cell_angle_beta   90.00000000
_cell_angle_gamma   77.07903454
_symmetry_Int_Tables_number   1
_chemical_formula_structural   Yb
_chemical_formula_sum   Yb24
_cell_volume   1908.55025151
_cell_formula_units_Z   24
loop_
 _symmetry_equiv_pos_site_id
 _symmetry_equiv_pos_as_xyz
  1  'x, y, z'
loop_
 _atom_site_type_symbol
 _atom_site_label
 _atom_site_symmetry_multiplicity
 _atom_site_fract_x
 _atom_site_fract_y
 _atom_site_fract_z
 _atom_site_occupancy
  Yb  Yb0  1  0.82784400  0.34411800  0.28629100  1.0
  Yb  Yb1  1  0.66501100  0.66998300  0.33028400  1.0
  Yb  Yb2  1  0.00044800  0.99919800  0.48493700  1.0
  Yb  Yb3  1  0.50144100  0.99720900  0.37494600  1.0
  Yb  Yb4  1  0.33558400  0.32885100  0.40537000  1.0
  Yb  Yb5  1  0.16478300  0.67046900  0.44927900  1.0
  Yb  Yb6  1  0.74866800  0.50267700  0.42801700  1.0
  Yb  Yb7  1  0.58207300  0.83586400  0.47479700  1.0
  Yb  Yb8  1  0.92129800  0.15754300  0.37748800  1.0
  Yb  Yb9  1  0.42041200  0.15895200  0.26418400  1.0
  Yb  Yb10  1  0.24730900  0.50524600  0.30688800  1.0
  Yb  Yb11  1  0.08338300  0.83314400  0.34240400  1.0
  Yb  Yb12  1  0.83465100  0.33081600  0.52521400  1.0
  Yb  Yb13  1  0.66800200  0.66399100  0.57198400  1.0
  Yb  Yb14  1  0.99617100  0.00772000  0.73580100  1.0
  Yb  Yb15  1  0.49532400  0.00911500  0.62250700  1.0
  Yb  Yb16  1  0.33320900  0.33352700  0.65759800  1.0
  Yb  Yb17  1  0.16932600  0.66143800  0.69312400  1.0
  Yb  Yb18  1  0.75168200  0.49670200  0.66971600  1.0
  Yb  Yb19  1  0.58879200  0.82253900  0.71369000  1.0
  Yb  Yb20  1  0.91519700  0.16945300  0.62505000  1.0
  Yb  Yb21  1  0.41633000  0.16745600  0.51507200  1.0
  Yb  Yb22  1  0.25197800  0.49619800  0.55073200  1.0
  Yb  Yb23  1  0.08108400  0.83779000  0.59462800  1.0
