# generated using pymatgen
data_Ce
_symmetry_space_group_name_H-M   'P 1'
_cell_length_a   5.76118114
_cell_length_b   7.43953018
_cell_length_c   22.80311547
_cell_angle_alpha   93.74969682
_cell_angle_beta   94.82420072
_cell_angle_gamma   104.97286344
_symmetry_Int_Tables_number   1
_chemical_formula_structural   Ce
_chemical_formula_sum   Ce18
_cell_volume   936.96349324
_cell_formula_units_Z   18
loop_
 _symmetry_equiv_pos_site_id
 _symmetry_equiv_pos_as_xyz
  1  'x, y, z'
loop_
 _atom_site_type_symbol
 _atom_site_label
 _atom_site_symmetry_multiplicity
 _atom_site_fract_x
 _atom_site_fract_y
 _atom_site_fract_z
 _atom_site_occupancy
  Ce  Ce0  1  0.20980300  0.80333700  0.40551300  1.0
  Ce  Ce1  1  0.88432800  0.91635900  0.29437600  1.0
  Ce  Ce2  1  0.05011300  0.37335700  0.34454000  1.0
  Ce  Ce3  1  0.45976800  0.14045800  0.31495000  1.0
  Ce  Ce4  1  0.63261100  0.57139500  0.36971900  1.0
  Ce  Ce5  1  0.25630200  0.64323400  0.27304900  1.0
  Ce  Ce6  1  0.70779100  0.13928300  0.56933700  1.0
  Ce  Ce7  1  0.37369700  0.24863200  0.45715400  1.0
  Ce  Ce8  1  0.54298000  0.69570900  0.51260900  1.0
  Ce  Ce9  1  0.95702000  0.47095800  0.48739100  1.0
  Ce  Ce10  1  0.12630300  0.91803500  0.54284600  1.0
  Ce  Ce11  1  0.79220900  0.02738400  0.43066300  1.0
  Ce  Ce12  1  0.24369800  0.52343300  0.72695100  1.0
  Ce  Ce13  1  0.86738900  0.59527100  0.63028100  1.0
  Ce  Ce14  1  0.04023200  0.02620900  0.68505000  1.0
  Ce  Ce15  1  0.44988700  0.79331000  0.65546000  1.0
  Ce  Ce16  1  0.61567200  0.25030800  0.70562400  1.0
  Ce  Ce17  1  0.29019700  0.36333000  0.59448700  1.0
