# generated using pymatgen
data_Yb
_symmetry_space_group_name_H-M   'P 1'
_cell_length_a   6.08023019
_cell_length_b   12.88543581
_cell_length_c   25.04333185
_cell_angle_alpha   93.40011877
_cell_angle_beta   90.00000000
_cell_angle_gamma   103.64669754
_symmetry_Int_Tables_number   1
_chemical_formula_structural   Yb
_chemical_formula_sum   Yb24
_cell_volume   1903.11025090
_cell_formula_units_Z   24
loop_
 _symmetry_equiv_pos_site_id
 _symmetry_equiv_pos_as_xyz
  1  'x, y, z'
loop_
 _atom_site_type_symbol
 _atom_site_label
 _atom_site_symmetry_multiplicity
 _atom_site_fract_x
 _atom_site_fract_y
 _atom_site_fract_z
 _atom_site_occupancy
  Yb  Yb0  1  0.36997000  0.73994000  0.36052200  1.0
  Yb  Yb1  1  0.65475900  0.30951800  0.34064500  1.0
  Yb  Yb2  1  0.94565800  0.89131500  0.28294900  1.0
  Yb  Yb3  1  0.10162800  0.20325600  0.26403300  1.0
  Yb  Yb4  1  0.51385900  0.02771700  0.34620500  1.0
  Yb  Yb5  1  0.79397100  0.58794300  0.30095000  1.0
  Yb  Yb6  1  0.48813200  0.97626500  0.49246500  1.0
  Yb  Yb7  1  0.77861800  0.55723600  0.44728600  1.0
  Yb  Yb8  1  0.07763700  0.15527300  0.40615600  1.0
  Yb  Yb9  1  0.22532300  0.45064600  0.37784800  1.0
  Yb  Yb10  1  0.63170400  0.26340800  0.47907400  1.0
  Yb  Yb11  1  0.92743400  0.85487000  0.42681900  1.0
  Yb  Yb12  1  0.60801000  0.21602100  0.62215200  1.0
  Yb  Yb13  1  0.90589900  0.81179700  0.57318100  1.0
  Yb  Yb14  1  0.20163000  0.40325800  0.52092600  1.0
  Yb  Yb15  1  0.34520100  0.69040200  0.50753500  1.0
  Yb  Yb16  1  0.75569700  0.51139300  0.59384400  1.0
  Yb  Yb17  1  0.05471500  0.10943100  0.55271400  1.0
  Yb  Yb18  1  0.73170500  0.46341100  0.73596700  1.0
  Yb  Yb19  1  0.03936200  0.07872400  0.69905000  1.0
  Yb  Yb20  1  0.31947500  0.63894900  0.65379500  1.0
  Yb  Yb21  1  0.46336300  0.92672700  0.63947800  1.0
  Yb  Yb22  1  0.88767600  0.77535100  0.71705100  1.0
  Yb  Yb23  1  0.17857400  0.35714900  0.65935500  1.0
