# generated using pymatgen
data_Yb
_symmetry_space_group_name_H-M   'P 1'
_cell_length_a   6.08152420
_cell_length_b   10.53350971
_cell_length_c   23.55364230
_cell_angle_alpha   85.72546297
_cell_angle_beta   82.58244259
_cell_angle_gamma   73.22134244
_symmetry_Int_Tables_number   1
_chemical_formula_structural   Yb
_chemical_formula_sum   Yb18
_cell_volume   1431.41268803
_cell_formula_units_Z   18
loop_
 _symmetry_equiv_pos_site_id
 _symmetry_equiv_pos_as_xyz
  1  'x, y, z'
loop_
 _atom_site_type_symbol
 _atom_site_label
 _atom_site_symmetry_multiplicity
 _atom_site_fract_x
 _atom_site_fract_y
 _atom_site_fract_z
 _atom_site_occupancy
  Yb  Yb0  1  0.58865100  0.41350500  0.40919200  1.0
  Yb  Yb1  1  0.38356300  0.94100100  0.29187200  1.0
  Yb  Yb2  1  0.98021100  0.69183400  0.34774300  1.0
  Yb  Yb3  1  0.78290800  0.06005500  0.37413000  1.0
  Yb  Yb4  1  0.58960500  0.55738200  0.26340800  1.0
  Yb  Yb5  1  0.17740000  0.32378000  0.32142000  1.0
  Yb  Yb6  1  0.43460000  0.56269500  0.56810500  1.0
  Yb  Yb7  1  0.20510800  0.13125100  0.45853200  1.0
  Yb  Yb8  1  0.82039400  0.84607900  0.51313200  1.0
  Yb  Yb9  1  0.62822500  0.20208200  0.54146800  1.0
  Yb  Yb10  1  0.39873400  0.77063800  0.43189500  1.0
  Yb  Yb11  1  0.01293900  0.48725400  0.48686800  1.0
  Yb  Yb12  1  0.24372800  0.77595100  0.73659200  1.0
  Yb  Yb13  1  0.05042600  0.27327900  0.62587000  1.0
  Yb  Yb14  1  0.65593400  0.00955300  0.67858000  1.0
  Yb  Yb15  1  0.44977000  0.39233200  0.70812800  1.0
  Yb  Yb16  1  0.24468200  0.91982900  0.59080800  1.0
  Yb  Yb17  1  0.85312200  0.64150000  0.65225700  1.0
