# generated using pymatgen
data_Yb
_symmetry_space_group_name_H-M   'P 1'
_cell_length_a   4.30028700
_cell_length_b   7.13121939
_cell_length_c   24.60951680
_cell_angle_alpha   85.46722320
_cell_angle_beta   84.98765471
_cell_angle_gamma   72.45160398
_symmetry_Int_Tables_number   1
_chemical_formula_structural   Yb
_chemical_formula_sum   Yb9
_cell_volume   715.70631688
_cell_formula_units_Z   9
loop_
 _symmetry_equiv_pos_site_id
 _symmetry_equiv_pos_as_xyz
  1  'x, y, z'
loop_
 _atom_site_type_symbol
 _atom_site_label
 _atom_site_symmetry_multiplicity
 _atom_site_fract_x
 _atom_site_fract_y
 _atom_site_fract_z
 _atom_site_occupancy
  Yb  Yb0  1  0.32907500  0.00955700  0.33229400  1.0
  Yb  Yb1  1  0.06941200  0.58445800  0.27671800  1.0
  Yb  Yb2  1  0.60354400  0.40016700  0.39274500  1.0
  Yb  Yb3  1  0.16666700  0.16666600  0.50000000  1.0
  Yb  Yb4  1  0.88464200  0.78587900  0.44483700  1.0
  Yb  Yb5  1  0.44869100  0.54745500  0.55516300  1.0
  Yb  Yb6  1  0.00425900  0.32377500  0.66770600  1.0
  Yb  Yb7  1  0.72978900  0.93316700  0.60725500  1.0
  Yb  Yb8  1  0.26392100  0.74887600  0.72328200  1.0
