# generated using pymatgen
data_Yb
_symmetry_space_group_name_H-M   'P 1'
_cell_length_a   4.30028700
_cell_length_b   9.61573495
_cell_length_c   24.32609679
_cell_angle_alpha   71.56504851
_cell_angle_beta   90.00000000
_cell_angle_gamma   90.00000000
_symmetry_Int_Tables_number   1
_chemical_formula_structural   Yb
_chemical_formula_sum   Yb12
_cell_volume   954.27512547
_cell_formula_units_Z   12
loop_
 _symmetry_equiv_pos_site_id
 _symmetry_equiv_pos_as_xyz
  1  'x, y, z'
loop_
 _atom_site_type_symbol
 _atom_site_label
 _atom_site_symmetry_multiplicity
 _atom_site_fract_x
 _atom_site_fract_y
 _atom_site_fract_z
 _atom_site_occupancy
  Yb  Yb0  1  0.00000000  0.65169100  0.39984100  1.0
  Yb  Yb1  1  0.00000000  0.33695300  0.31517700  1.0
  Yb  Yb2  1  0.00000000  0.99986200  0.47770200  1.0
  Yb  Yb3  1  0.50000000  0.69114700  0.27067200  1.0
  Yb  Yb4  1  0.50000000  0.32867400  0.43894700  1.0
  Yb  Yb5  1  0.50000000  0.98503600  0.35379800  1.0
  Yb  Yb6  1  0.00000000  0.68163100  0.64620200  1.0
  Yb  Yb7  1  0.00000000  0.33799200  0.56105300  1.0
  Yb  Yb8  1  0.00000000  0.97552000  0.72932800  1.0
  Yb  Yb9  1  0.50000000  0.66680500  0.52229800  1.0
  Yb  Yb10  1  0.50000000  0.32971300  0.68482300  1.0
  Yb  Yb11  1  0.50000000  0.01497600  0.60015900  1.0
