# generated using pymatgen
data_Yb
_symmetry_space_group_name_H-M   'P 1'
_cell_length_a   3.72739611
_cell_length_b   6.08119044
_cell_length_c   28.11777922
_cell_angle_alpha   90.00000000
_cell_angle_beta   92.49019588
_cell_angle_gamma   90.00000000
_symmetry_Int_Tables_number   1
_chemical_formula_structural   Yb
_chemical_formula_sum   Yb8
_cell_volume   636.74399449
_cell_formula_units_Z   8
loop_
 _symmetry_equiv_pos_site_id
 _symmetry_equiv_pos_as_xyz
  1  'x, y, z'
loop_
 _atom_site_type_symbol
 _atom_site_label
 _atom_site_symmetry_multiplicity
 _atom_site_fract_x
 _atom_site_fract_y
 _atom_site_fract_z
 _atom_site_occupancy
  Yb  Yb0  1  0.60453900  0.00000000  0.53318500  1.0
  Yb  Yb1  1  0.60443700  0.50000000  0.71506500  1.0
  Yb  Yb2  1  0.02637700  0.00000000  0.65667000  1.0
  Yb  Yb3  1  0.27457400  0.50000000  0.59133200  1.0
  Yb  Yb4  1  0.89556300  0.00000000  0.28493500  1.0
  Yb  Yb5  1  0.89546100  0.50000000  0.46681500  1.0
  Yb  Yb6  1  0.22542600  0.00000000  0.40866800  1.0
  Yb  Yb7  1  0.47362300  0.50000000  0.34333000  1.0
