# generated using pymatgen
data_Yb
_symmetry_space_group_name_H-M   'P 1'
_cell_length_a   3.72415800
_cell_length_b   3.72415816
_cell_length_c   48.65219400
_cell_angle_alpha   90.00000000
_cell_angle_beta   90.00000000
_cell_angle_gamma   109.47121979
_symmetry_Int_Tables_number   1
_chemical_formula_structural   Yb
_chemical_formula_sum   Yb8
_cell_volume   636.18347702
_cell_formula_units_Z   8
loop_
 _symmetry_equiv_pos_site_id
 _symmetry_equiv_pos_as_xyz
  1  'x, y, z'
loop_
 _atom_site_type_symbol
 _atom_site_label
 _atom_site_symmetry_multiplicity
 _atom_site_fract_x
 _atom_site_fract_y
 _atom_site_fract_z
 _atom_site_occupancy
  Yb  Yb0  1  0.50000000  0.50000000  0.71778400  1.0
  Yb  Yb1  1  0.00000000  0.00000000  0.65668300  1.0
  Yb  Yb2  1  0.50000000  0.50000000  0.59407800  1.0
  Yb  Yb3  1  0.00000000  0.00000000  0.53132200  1.0
  Yb  Yb4  1  0.50000000  0.50000000  0.46867800  1.0
  Yb  Yb5  1  0.00000000  0.00000000  0.40592200  1.0
  Yb  Yb6  1  0.50000000  0.50000000  0.34331700  1.0
  Yb  Yb7  1  0.00000000  0.00000000  0.28221600  1.0
