# generated using pymatgen
data_Ce
_symmetry_space_group_name_H-M   'P 1'
_cell_length_a   3.32363805
_cell_length_b   15.60177900
_cell_length_c   32.61516185
_cell_angle_alpha   100.01851276
_cell_angle_beta   90.00000000
_cell_angle_gamma   90.00000000
_symmetry_Int_Tables_number   1
_chemical_formula_structural   Ce
_chemical_formula_sum   Ce32
_cell_volume   1665.45949449
_cell_formula_units_Z   32
loop_
 _symmetry_equiv_pos_site_id
 _symmetry_equiv_pos_as_xyz
  1  'x, y, z'
loop_
 _atom_site_type_symbol
 _atom_site_label
 _atom_site_symmetry_multiplicity
 _atom_site_fract_x
 _atom_site_fract_y
 _atom_site_fract_z
 _atom_site_occupancy
  Ce  Ce0  1  0.00000000  0.63224100  0.72650300  1.0
  Ce  Ce1  1  0.00000000  0.87759300  0.66583900  1.0
  Ce  Ce2  1  0.00000000  0.25022300  0.69587100  1.0
  Ce  Ce3  1  0.00000000  0.50082300  0.63282100  1.0
  Ce  Ce4  1  0.00000000  0.75189700  0.57059900  1.0
  Ce  Ce5  1  0.00000000  0.00016000  0.50863100  1.0
  Ce  Ce6  1  0.00000000  0.12431900  0.60455600  1.0
  Ce  Ce7  1  0.00000000  0.37557400  0.53962700  1.0
  Ce  Ce8  1  0.50000000  0.68676200  0.64536200  1.0
  Ce  Ce9  1  0.50000000  0.93606500  0.58482100  1.0
  Ce  Ce10  1  0.50000000  0.31234800  0.61675500  1.0
  Ce  Ce11  1  0.50000000  0.56211700  0.55350600  1.0
  Ce  Ce12  1  0.50000000  0.82219300  0.73551100  1.0
  Ce  Ce13  1  0.50000000  0.05130200  0.68323500  1.0
  Ce  Ce14  1  0.50000000  0.18591000  0.52463600  1.0
  Ce  Ce15  1  0.50000000  0.43773800  0.71053200  1.0
  Ce  Ce16  1  0.00000000  0.62659000  0.47536400  1.0
  Ce  Ce17  1  0.00000000  0.87643500  0.41517900  1.0
  Ce  Ce18  1  0.00000000  0.25038300  0.44649400  1.0
  Ce  Ce19  1  0.00000000  0.50015200  0.38324500  1.0
  Ce  Ce20  1  0.00000000  0.76119800  0.31676600  1.0
  Ce  Ce21  1  0.00000000  0.99030700  0.26448900  1.0
  Ce  Ce22  1  0.00000000  0.12573800  0.35463700  1.0
  Ce  Ce23  1  0.00000000  0.37476200  0.28946700  1.0
  Ce  Ce24  1  0.50000000  0.68818100  0.39544400  1.0
  Ce  Ce25  1  0.50000000  0.93490700  0.33416100  1.0
  Ce  Ce26  1  0.50000000  0.31167700  0.36717900  1.0
  Ce  Ce27  1  0.50000000  0.56227700  0.30412900  1.0
  Ce  Ce28  1  0.50000000  0.81234000  0.49136900  1.0
  Ce  Ce29  1  0.50000000  0.06060300  0.42940200  1.0
  Ce  Ce30  1  0.50000000  0.18025900  0.27349700  1.0
  Ce  Ce31  1  0.50000000  0.43692600  0.46037300  1.0
