# generated using pymatgen
data_Tb
_symmetry_space_group_name_H-M   'P 1'
_cell_length_a   3.56347169
_cell_length_b   3.56347169
_cell_length_c   25.19755100
_cell_angle_alpha   90.00000000
_cell_angle_beta   90.00000000
_cell_angle_gamma   90.00000000
_symmetry_Int_Tables_number   1
_chemical_formula_structural   Tb
_chemical_formula_sum   Tb6
_cell_volume   319.96683002
_cell_formula_units_Z   6
loop_
 _symmetry_equiv_pos_site_id
 _symmetry_equiv_pos_as_xyz
  1  'x, y, z'
loop_
 _atom_site_type_symbol
 _atom_site_label
 _atom_site_symmetry_multiplicity
 _atom_site_fract_x
 _atom_site_fract_y
 _atom_site_fract_z
 _atom_site_occupancy
  Tb  Tb0  1  0.00000000  0.00000000  0.65262800  1.0
  Tb  Tb1  1  0.50000000  0.50000000  0.74658100  1.0
  Tb  Tb2  1  0.00000000  0.00000000  0.45033800  1.0
  Tb  Tb3  1  0.50000000  0.50000000  0.54966200  1.0
  Tb  Tb4  1  0.00000000  0.00000000  0.25341900  1.0
  Tb  Tb5  1  0.50000000  0.50000000  0.34737200  1.0
