# generated using pymatgen
data_Tb
_symmetry_space_group_name_H-M   'P 1'
_cell_length_a   3.56351412
_cell_length_b   6.17114651
_cell_length_c   27.34837052
_cell_angle_alpha   92.11233710
_cell_angle_beta   90.00000000
_cell_angle_gamma   106.78157591
_symmetry_Int_Tables_number   1
_chemical_formula_structural   Tb
_chemical_formula_sum   Tb9
_cell_volume   575.37734814
_cell_formula_units_Z   9
loop_
 _symmetry_equiv_pos_site_id
 _symmetry_equiv_pos_as_xyz
  1  'x, y, z'
loop_
 _atom_site_type_symbol
 _atom_site_label
 _atom_site_symmetry_multiplicity
 _atom_site_fract_x
 _atom_site_fract_y
 _atom_site_fract_z
 _atom_site_occupancy
  Tb  Tb0  1  0.61021000  0.22041900  0.38631500  1.0
  Tb  Tb1  1  0.05612100  0.11224200  0.28106700  1.0
  Tb  Tb2  1  0.33475100  0.66950300  0.33442500  1.0
  Tb  Tb3  1  0.44511500  0.89023100  0.55641000  1.0
  Tb  Tb4  1  0.88821800  0.77643600  0.44359000  1.0
  Tb  Tb5  1  0.16666700  0.33333333  0.50000000  1.0
  Tb  Tb6  1  0.27721300  0.55442500  0.71893300  1.0
  Tb  Tb7  1  0.72312300  0.44624800  0.61368500  1.0
  Tb  Tb8  1  0.99858200  0.99716400  0.66557500  1.0
