# generated using pymatgen
data_Tb
_symmetry_space_group_name_H-M   'P 1'
_cell_length_a   3.56042000
_cell_length_b   3.56041985
_cell_length_c   52.32727100
_cell_angle_alpha   90.00000000
_cell_angle_beta   90.00000000
_cell_angle_gamma   120.00000135
_symmetry_Int_Tables_number   1
_chemical_formula_structural   Tb
_chemical_formula_sum   Tb9
_cell_volume   574.46180324
_cell_formula_units_Z   9
loop_
 _symmetry_equiv_pos_site_id
 _symmetry_equiv_pos_as_xyz
  1  'x, y, z'
loop_
 _atom_site_type_symbol
 _atom_site_label
 _atom_site_symmetry_multiplicity
 _atom_site_fract_x
 _atom_site_fract_y
 _atom_site_fract_z
 _atom_site_occupancy
  Tb  Tb0  1  0.33333333  0.66666667  0.27898100  1.0
  Tb  Tb1  1  0.00000000  0.00000000  0.38861200  1.0
  Tb  Tb2  1  0.66666667  0.33333333  0.33231900  1.0
  Tb  Tb3  1  0.33333333  0.66666667  0.44441600  1.0
  Tb  Tb4  1  0.00000000  0.00000000  0.55558400  1.0
  Tb  Tb5  1  0.66666667  0.33333333  0.50000000  1.0
  Tb  Tb6  1  0.33333333  0.66666667  0.61138800  1.0
  Tb  Tb7  1  0.00000000  0.00000000  0.72101900  1.0
  Tb  Tb8  1  0.66666667  0.33333333  0.66768200  1.0
