# generated using pymatgen
data_Ce
_symmetry_space_group_name_H-M   'P 1'
_cell_length_a   3.32372475
_cell_length_b   3.32372475
_cell_length_c   27.21490195
_cell_angle_alpha   90.17937131
_cell_angle_beta   93.33605348
_cell_angle_gamma   119.86011159
_symmetry_Int_Tables_number   1
_chemical_formula_structural   Ce
_chemical_formula_sum   Ce6
_cell_volume   260.11332914
_cell_formula_units_Z   6
loop_
 _symmetry_equiv_pos_site_id
 _symmetry_equiv_pos_as_xyz
  1  'x, y, z'
loop_
 _atom_site_type_symbol
 _atom_site_label
 _atom_site_symmetry_multiplicity
 _atom_site_fract_x
 _atom_site_fract_y
 _atom_site_fract_z
 _atom_site_occupancy
  Ce  Ce0  1  0.40043300  0.95014600  0.35057900  1.0
  Ce  Ce1  1  0.00001200  0.24994300  0.24995500  1.0
  Ce  Ce2  1  0.20007200  0.35008300  0.55015500  1.0
  Ce  Ce3  1  0.79992800  0.64991700  0.44984500  1.0
  Ce  Ce4  1  0.99998800  0.75005700  0.75004500  1.0
  Ce  Ce5  1  0.59956700  0.04985400  0.64942100  1.0
