# generated using pymatgen
data_Tb
_symmetry_space_group_name_H-M   'P 1'
_cell_length_a   3.59231694
_cell_length_b   8.85500652
_cell_length_c   24.88829872
_cell_angle_alpha   96.72536003
_cell_angle_beta   89.99998698
_cell_angle_gamma   101.70314313
_symmetry_Int_Tables_number   1
_chemical_formula_structural   Tb
_chemical_formula_sum   Tb7
_cell_volume   769.67428449
_cell_formula_units_Z   7
loop_
 _symmetry_equiv_pos_site_id
 _symmetry_equiv_pos_as_xyz
  1  'x, y, z'
loop_
 _atom_site_type_symbol
 _atom_site_label
 _atom_site_symmetry_multiplicity
 _atom_site_fract_x
 _atom_site_fract_y
 _atom_site_fract_z
 _atom_site_occupancy
  Tb  Tb0  1  0.44847300  0.00802000  0.87743400  1.0
  Tb  Tb1  1  0.59732800  0.30572900  0.97856800  1.0
  Tb  Tb2  1  0.78103600  0.67314600  0.92031500  1.0
  Tb  Tb3  1  0.94215200  0.99537800  0.75895100  1.0
  Tb  Tb4  1  0.11453000  0.34013300  0.86332600  1.0
  Tb  Tb5  1  0.27831400  0.66770200  0.80269600  1.0
  Tb  Tb6  1  0.61619000  0.34345300  0.74313100  1.0
