# generated using pymatgen
data_Tb
_symmetry_space_group_name_H-M   'P 1'
_cell_length_a   6.22251400
_cell_length_b   8.85593927
_cell_length_c   21.54288300
_cell_angle_alpha   90.00000000
_cell_angle_beta   90.00000000
_cell_angle_gamma   103.54444555
_symmetry_Int_Tables_number   1
_chemical_formula_structural   Tb
_chemical_formula_sum   Tb18
_cell_volume   1154.13027081
_cell_formula_units_Z   18
loop_
 _symmetry_equiv_pos_site_id
 _symmetry_equiv_pos_as_xyz
  1  'x, y, z'
loop_
 _atom_site_type_symbol
 _atom_site_label
 _atom_site_symmetry_multiplicity
 _atom_site_fract_x
 _atom_site_fract_y
 _atom_site_fract_z
 _atom_site_occupancy
  Tb  Tb0  1  0.50000000  0.00000000  0.04582000  1.0
  Tb  Tb1  1  0.00000000  0.00000000  0.12818400  1.0
  Tb  Tb2  1  0.23170700  0.66732700  0.12724000  1.0
  Tb  Tb3  1  0.74602300  0.66056800  0.04397000  1.0
  Tb  Tb4  1  0.76829300  0.33267300  0.12724000  1.0
  Tb  Tb5  1  0.25397700  0.33943200  0.04397000  1.0
  Tb  Tb6  1  0.50000000  0.00000000  0.20662300  1.0
  Tb  Tb7  1  0.00000000  0.00000000  0.29337700  1.0
  Tb  Tb8  1  0.22803300  0.66528600  0.29336400  1.0
  Tb  Tb9  1  0.72803300  0.66528600  0.20663600  1.0
  Tb  Tb10  1  0.77196700  0.33471400  0.29336400  1.0
  Tb  Tb11  1  0.27196700  0.33471400  0.20663600  1.0
  Tb  Tb12  1  0.50000000  0.00000000  0.37181600  1.0
  Tb  Tb13  1  0.00000000  0.00000000  0.45418000  1.0
  Tb  Tb14  1  0.24602300  0.66056800  0.45603000  1.0
  Tb  Tb15  1  0.73170700  0.66732700  0.37276000  1.0
  Tb  Tb16  1  0.75397700  0.33943200  0.45603000  1.0
  Tb  Tb17  1  0.26829300  0.33267300  0.37276000  1.0
