# generated using pymatgen
data_Tb
_symmetry_space_group_name_H-M   'P 1'
_cell_length_a   3.59272242
_cell_length_b   25.82060800
_cell_length_c   28.74177100
_cell_angle_alpha   90.00000000
_cell_angle_beta   60.00000382
_cell_angle_gamma   90.00000000
_symmetry_Int_Tables_number   1
_chemical_formula_structural   Tb
_chemical_formula_sum   Tb36
_cell_volume   2309.05512861
_cell_formula_units_Z   36
loop_
 _symmetry_equiv_pos_site_id
 _symmetry_equiv_pos_as_xyz
  1  'x, y, z'
loop_
 _atom_site_type_symbol
 _atom_site_label
 _atom_site_symmetry_multiplicity
 _atom_site_fract_x
 _atom_site_fract_y
 _atom_site_fract_z
 _atom_site_occupancy
  Tb  Tb0  1  0.98088800  0.00014600  0.35894500  1.0
  Tb  Tb1  1  0.30721700  0.89267600  0.27736200  1.0
  Tb  Tb2  1  0.65902300  0.11218300  0.31441100  1.0
  Tb  Tb3  1  0.66259800  0.33395800  0.31351700  1.0
  Tb  Tb4  1  0.97953600  0.22116500  0.35928300  1.0
  Tb  Tb5  1  0.31687500  0.44582500  0.27494800  1.0
  Tb  Tb6  1  0.30194100  0.66384000  0.27868100  1.0
  Tb  Tb7  1  0.64013800  0.55490700  0.31913200  1.0
  Tb  Tb8  1  0.99766400  0.77916500  0.35475100  1.0
  Tb  Tb9  1  0.99803900  0.00047900  0.47965700  1.0
  Tb  Tb10  1  0.33744100  0.88884600  0.39480600  1.0
  Tb  Tb11  1  0.68166200  0.11064400  0.43375100  1.0
  Tb  Tb12  1  0.67518700  0.33219300  0.43537000  1.0
  Tb  Tb13  1  0.99986400  0.22256200  0.47920100  1.0
  Tb  Tb14  1  0.33901000  0.44387300  0.39441400  1.0
  Tb  Tb15  1  0.33741400  0.66649900  0.39481300  1.0
  Tb  Tb16  1  0.66549300  0.55492300  0.43779300  1.0
  Tb  Tb17  1  0.99963200  0.77811800  0.47925900  1.0
  Tb  Tb18  1  0.99592000  0.00016800  0.60518700  1.0
  Tb  Tb19  1  0.33370200  0.88854900  0.52074100  1.0
  Tb  Tb20  1  0.66783900  0.11174300  0.56220700  1.0
  Tb  Tb21  1  0.65814500  0.33447300  0.56463000  1.0
  Tb  Tb22  1  0.99432400  0.22279400  0.60558600  1.0
  Tb  Tb23  1  0.33347000  0.44410500  0.52079900  1.0
  Tb  Tb24  1  0.33529500  0.66618800  0.52034300  1.0
  Tb  Tb25  1  0.65167000  0.55602200  0.56624900  1.0
  Tb  Tb26  1  0.99589300  0.77782100  0.60519400  1.0
  Tb  Tb27  1  0.03139300  0.00282700  0.72131900  1.0
  Tb  Tb28  1  0.33567000  0.88750200  0.64524900  1.0
  Tb  Tb29  1  0.69319400  0.11175900  0.68086800  1.0
  Tb  Tb30  1  0.67073400  0.33270900  0.68648300  1.0
  Tb  Tb31  1  0.01645900  0.22084200  0.72505200  1.0
  Tb  Tb32  1  0.35379800  0.44550200  0.64071700  1.0
  Tb  Tb33  1  0.35244600  0.66652100  0.64105500  1.0
  Tb  Tb34  1  0.67430900  0.55448300  0.68558900  1.0
  Tb  Tb35  1  0.02611700  0.77399100  0.72263800  1.0
