# generated using pymatgen
data_Tb
_symmetry_space_group_name_H-M   'P 1'
_cell_length_a   3.59215533
_cell_length_b   26.80891848
_cell_length_c   24.89068964
_cell_angle_alpha   103.41717515
_cell_angle_beta   90.00447114
_cell_angle_gamma   82.29203623
_symmetry_Int_Tables_number   1
_chemical_formula_structural   Tb
_chemical_formula_sum   Tb36
_cell_volume   2309.32930411
_cell_formula_units_Z   36
loop_
 _symmetry_equiv_pos_site_id
 _symmetry_equiv_pos_as_xyz
  1  'x, y, z'
loop_
 _atom_site_type_symbol
 _atom_site_label
 _atom_site_symmetry_multiplicity
 _atom_site_fract_x
 _atom_site_fract_y
 _atom_site_fract_z
 _atom_site_occupancy
  Tb  Tb0  1  0.00090300  0.99913500  0.47591400  1.0
  Tb  Tb1  1  0.50139500  0.99850400  0.35535700  1.0
  Tb  Tb2  1  0.61101300  0.88918600  0.49420700  1.0
  Tb  Tb3  1  0.11251800  0.88750700  0.37457200  1.0
  Tb  Tb4  1  0.88696800  0.11270300  0.34433300  1.0
  Tb  Tb5  1  0.38994200  0.10996800  0.46424300  1.0
  Tb  Tb6  1  0.66723900  0.33283100  0.39457900  1.0
  Tb  Tb7  1  0.16454200  0.33539400  0.27458600  1.0
  Tb  Tb8  1  0.77424100  0.22575500  0.28931500  1.0
  Tb  Tb9  1  0.27862400  0.22130500  0.40892300  1.0
  Tb  Tb10  1  0.05502600  0.44504500  0.38017300  1.0
  Tb  Tb11  1  0.55249900  0.44750800  0.26154900  1.0
  Tb  Tb12  1  0.83429200  0.66582800  0.43505900  1.0
  Tb  Tb13  1  0.33273500  0.66730700  0.31315800  1.0
  Tb  Tb14  1  0.44387500  0.55630600  0.45251800  1.0
  Tb  Tb15  1  0.94457700  0.55531500  0.33275300  1.0
  Tb  Tb16  1  0.22261500  0.77738400  0.42159700  1.0
  Tb  Tb17  1  0.72066600  0.77934300  0.30277800  1.0
  Tb  Tb18  1  0.00210800  0.99795600  0.72541400  1.0
  Tb  Tb19  1  0.49941700  0.00051300  0.60541600  1.0
  Tb  Tb20  1  0.61415300  0.88584000  0.73845600  1.0
  Tb  Tb21  1  0.11163300  0.88829400  0.61983000  1.0
  Tb  Tb22  1  0.88804600  0.11202700  0.59108100  1.0
  Tb  Tb23  1  0.39241500  0.10758900  0.71068800  1.0
  Tb  Tb24  1  0.66529400  0.33480900  0.64464600  1.0
  Tb  Tb25  1  0.16577000  0.33419300  0.52409100  1.0
  Tb  Tb26  1  0.77672900  0.22336200  0.53576600  1.0
  Tb  Tb27  1  0.27970200  0.22063000  0.65567000  1.0
  Tb  Tb28  1  0.05416400  0.44581300  0.62543400  1.0
  Tb  Tb29  1  0.55565400  0.44414700  0.50579300  1.0
  Tb  Tb30  1  0.83392900  0.66602500  0.68684700  1.0
  Tb  Tb31  1  0.33236900  0.66750700  0.56492700  1.0
  Tb  Tb32  1  0.44601000  0.55397900  0.69722100  1.0
  Tb  Tb33  1  0.94406100  0.55594200  0.57840400  1.0
  Tb  Tb34  1  0.22208600  0.77802200  0.66723200  1.0
  Tb  Tb35  1  0.72279000  0.77702800  0.54746900  1.0
