# generated using pymatgen
data_Tb
_symmetry_space_group_name_H-M   'P 1'
_cell_length_a   6.22210835
_cell_length_b   26.07690269
_cell_length_c   21.54860345
_cell_angle_alpha   97.91620730
_cell_angle_beta   89.99999658
_cell_angle_gamma   89.99682490
_symmetry_Int_Tables_number   1
_chemical_formula_structural   Tb
_chemical_formula_sum   Tb54
_cell_volume   3463.01417273
_cell_formula_units_Z   54
loop_
 _symmetry_equiv_pos_site_id
 _symmetry_equiv_pos_as_xyz
  1  'x, y, z'
loop_
 _atom_site_type_symbol
 _atom_site_label
 _atom_site_symmetry_multiplicity
 _atom_site_fract_x
 _atom_site_fract_y
 _atom_site_fract_z
 _atom_site_occupancy
  Tb  Tb0  1  0.00688900  0.99961100  0.40534500  1.0
  Tb  Tb1  1  0.50591800  0.99984000  0.32254400  1.0
  Tb  Tb2  1  0.34812100  0.12222400  0.26123100  1.0
  Tb  Tb3  1  0.83469700  0.11149000  0.33968200  1.0
  Tb  Tb4  1  0.13665200  0.88456600  0.30159600  1.0
  Tb  Tb5  1  0.65600500  0.88960100  0.38681300  1.0
  Tb  Tb6  1  0.15734900  0.67901700  0.27277600  1.0
  Tb  Tb7  1  0.65641000  0.66666667  0.34910300  1.0
  Tb  Tb8  1  0.00076900  0.77944500  0.37219800  1.0
  Tb  Tb9  1  0.53321100  0.78113000  0.28643000  1.0
  Tb  Tb10  1  0.30541700  0.55391700  0.32741600  1.0
  Tb  Tb11  1  0.82434600  0.55539500  0.41240900  1.0
  Tb  Tb12  1  0.33441700  0.33181800  0.29597600  1.0
  Tb  Tb13  1  0.83354600  0.33333333  0.37859700  1.0
  Tb  Tb14  1  0.18235800  0.44387600  0.39472300  1.0
  Tb  Tb15  1  0.70145800  0.44507400  0.31142500  1.0
  Tb  Tb16  1  0.96255700  0.22319600  0.27635500  1.0
  Tb  Tb17  1  0.48990100  0.22393200  0.36193500  1.0
  Tb  Tb18  1  0.00186300  0.00078000  0.57147300  1.0
  Tb  Tb19  1  0.50236700  0.00047600  0.48533300  1.0
  Tb  Tb20  1  0.34039100  0.11132300  0.42010300  1.0
  Tb  Tb21  1  0.84095200  0.11148000  0.50712700  1.0
  Tb  Tb22  1  0.16181100  0.88886500  0.46503500  1.0
  Tb  Tb23  1  0.66723300  0.88932800  0.55203000  1.0
  Tb  Tb24  1  0.16480400  0.66588700  0.42852700  1.0
  Tb  Tb25  1  0.66430000  0.66619100  0.51466700  1.0
  Tb  Tb26  1  0.00485600  0.77780200  0.53496600  1.0
  Tb  Tb27  1  0.49943400  0.77733900  0.44797000  1.0
  Tb  Tb28  1  0.32571400  0.55518600  0.49287300  1.0
  Tb  Tb29  1  0.82627500  0.55534300  0.57989700  1.0
  Tb  Tb30  1  0.33197700  0.33340100  0.45713700  1.0
  Tb  Tb31  1  0.83468900  0.33326500  0.54286300  1.0
  Tb  Tb32  1  0.17564400  0.44548200  0.56128300  1.0
  Tb  Tb33  1  0.67742900  0.44490000  0.47404400  1.0
  Tb  Tb34  1  0.99102300  0.22118500  0.43871700  1.0
  Tb  Tb35  1  0.48923800  0.22176700  0.52595600  1.0
  Tb  Tb36  1  0.00931800  0.98765000  0.72722400  1.0
  Tb  Tb37  1  0.51025700  0.00004400  0.65089700  1.0
  Tb  Tb38  1  0.34232000  0.11127100  0.58759100  1.0
  Tb  Tb39  1  0.86124900  0.11275000  0.67258400  1.0
  Tb  Tb40  1  0.16589800  0.88722200  0.62780200  1.0
  Tb  Tb41  1  0.63345600  0.88553700  0.71357100  1.0
  Tb  Tb42  1  0.15977800  0.66705600  0.59465500  1.0
  Tb  Tb43  1  0.66074900  0.66682700  0.67745600  1.0
  Tb  Tb44  1  0.03001500  0.78210100  0.69840400  1.0
  Tb  Tb45  1  0.51066200  0.77706600  0.61318700  1.0
  Tb  Tb46  1  0.33196900  0.55517600  0.66031800  1.0
  Tb  Tb47  1  0.81854500  0.54444200  0.73876900  1.0
  Tb  Tb48  1  0.33312000  0.33333333  0.62140300  1.0
  Tb  Tb49  1  0.83224900  0.33484800  0.70402400  1.0
  Tb  Tb50  1  0.20411000  0.44347100  0.72364500  1.0
  Tb  Tb51  1  0.67676600  0.44273500  0.63806500  1.0
  Tb  Tb52  1  0.98430900  0.22279100  0.60527700  1.0
  Tb  Tb53  1  0.46520900  0.22159300  0.68857500  1.0
