# generated using pymatgen
data_Tb
_symmetry_space_group_name_H-M   'P 1'
_cell_length_a   6.22270302
_cell_length_b   26.07728169
_cell_length_c   21.55174503
_cell_angle_alpha   93.94634604
_cell_angle_beta   89.99484305
_cell_angle_gamma   83.14054500
_symmetry_Int_Tables_number   1
_chemical_formula_structural   Tb
_chemical_formula_sum   Tb49
_cell_volume   3463.83960764
_cell_formula_units_Z   49
loop_
 _symmetry_equiv_pos_site_id
 _symmetry_equiv_pos_as_xyz
  1  'x, y, z'
loop_
 _atom_site_type_symbol
 _atom_site_label
 _atom_site_symmetry_multiplicity
 _atom_site_fract_x
 _atom_site_fract_y
 _atom_site_fract_z
 _atom_site_occupancy
  Tb  Tb0  1  0.99674800  0.00071000  0.41930500  1.0
  Tb  Tb1  1  0.49808500  0.00155400  0.33716300  1.0
  Tb  Tb2  1  0.70843800  0.89075800  0.40713600  1.0
  Tb  Tb3  1  0.19132100  0.88820100  0.32251900  1.0
  Tb  Tb4  1  0.80159900  0.11317200  0.34549600  1.0
  Tb  Tb5  1  0.67213600  0.33055300  0.36139100  1.0
  Tb  Tb6  1  0.36389900  0.21821300  0.35257700  1.0
  Tb  Tb7  1  0.97360100  0.44344100  0.36517200  1.0
  Tb  Tb8  1  0.82583800  0.66779500  0.38328500  1.0
  Tb  Tb9  1  0.32221300  0.68035400  0.30640100  1.0
  Tb  Tb10  1  0.53285100  0.55452300  0.37097100  1.0
  Tb  Tb11  1  0.63645400  0.78449500  0.31299700  1.0
  Tb  Tb12  1  0.11049200  0.78076700  0.39785100  1.0
  Tb  Tb13  1  0.00071600  0.00020500  0.58410700  1.0
  Tb  Tb14  1  0.49761900  0.00124700  0.49791400  1.0
  Tb  Tb15  1  0.72109000  0.88899600  0.57203400  1.0
  Tb  Tb16  1  0.21830500  0.88915000  0.48491400  1.0
  Tb  Tb17  1  0.78537000  0.11146500  0.50987200  1.0
  Tb  Tb18  1  0.28751900  0.11113100  0.42831200  1.0
  Tb  Tb19  1  0.66666667  0.33333333  0.52315100  1.0
  Tb  Tb20  1  0.16798300  0.33200900  0.44192300  1.0
  Tb  Tb21  1  0.87535600  0.22133800  0.43619300  1.0
  Tb  Tb22  1  0.37827500  0.22248500  0.51727300  1.0
  Tb  Tb23  1  0.95515500  0.44416100  0.52903700  1.0
  Tb  Tb24  1  0.46038000  0.44364100  0.44679100  1.0
  Tb  Tb25  1  0.83569200  0.66543300  0.54838300  1.0
  Tb  Tb26  1  0.33260200  0.66646800  0.46220800  1.0
  Tb  Tb27  1  0.54798700  0.55520600  0.53641900  1.0
  Tb  Tb28  1  0.04604300  0.55479400  0.45381000  1.0
  Tb  Tb29  1  0.61222200  0.77766700  0.47426900  1.0
  Tb  Tb30  1  0.11500700  0.77752500  0.56136900  1.0
  Tb  Tb31  1  0.01110200  0.98628700  0.73990000  1.0
  Tb  Tb32  1  0.50745000  0.99887600  0.66300800  1.0
  Tb  Tb33  1  0.69679300  0.88215000  0.73329000  1.0
  Tb  Tb34  1  0.22277500  0.88590500  0.64844900  1.0
  Tb  Tb35  1  0.80043800  0.11216300  0.67529800  1.0
  Tb  Tb36  1  0.28724300  0.11188500  0.59247700  1.0
  Tb  Tb37  1  0.66129800  0.33609900  0.68490200  1.0
  Tb  Tb38  1  0.16534800  0.33464500  0.60438000  1.0
  Tb  Tb39  1  0.87301900  0.22304700  0.59951200  1.0
  Tb  Tb40  1  0.35976800  0.22321900  0.68113500  1.0
  Tb  Tb41  1  0.96951300  0.44845000  0.69371900  1.0
  Tb  Tb42  1  0.45807000  0.44531700  0.61013000  1.0
  Tb  Tb43  1  0.83524200  0.66513400  0.70912900  1.0
  Tb  Tb44  1  0.33661100  0.66596500  0.62700400  1.0
  Tb  Tb45  1  0.53176300  0.55351600  0.70078100  1.0
  Tb  Tb46  1  0.04583000  0.55553000  0.61796500  1.0
  Tb  Tb47  1  0.62483000  0.77590800  0.63915700  1.0
  Tb  Tb48  1  0.14193700  0.77846300  0.72378200  1.0
