# generated using pymatgen
data_Tb
_symmetry_space_group_name_H-M   'P 1'
_cell_length_a   25.82708409
_cell_length_b   9.50436338
_cell_length_c   21.54686416
_cell_angle_alpha   79.12059905
_cell_angle_beta   89.99084273
_cell_angle_gamma   89.99481082
_symmetry_Int_Tables_number   1
_chemical_formula_structural   Tb
_chemical_formula_sum   Tb81
_cell_volume   5194.04541268
_cell_formula_units_Z   81
loop_
 _symmetry_equiv_pos_site_id
 _symmetry_equiv_pos_as_xyz
  1  'x, y, z'
loop_
 _atom_site_type_symbol
 _atom_site_label
 _atom_site_symmetry_multiplicity
 _atom_site_fract_x
 _atom_site_fract_y
 _atom_site_fract_z
 _atom_site_occupancy
  Tb  Tb0  1  0.99990800  0.66563600  0.35245200  1.0
  Tb  Tb1  1  0.99510100  0.34082600  0.30080800  1.0
  Tb  Tb2  1  0.99856000  0.00402800  0.40944600  1.0
  Tb  Tb3  1  0.11322300  0.55014700  0.28105400  1.0
  Tb  Tb4  1  0.11048600  0.22548800  0.38979300  1.0
  Tb  Tb5  1  0.11291100  0.90316000  0.33015000  1.0
  Tb  Tb6  1  0.89087000  0.65458500  0.25795200  1.0
  Tb  Tb7  1  0.88981300  0.42830100  0.38328700  1.0
  Tb  Tb8  1  0.88664200  0.09537700  0.31622400  1.0
  Tb  Tb9  1  0.66420300  0.74989700  0.26819400  1.0
  Tb  Tb10  1  0.66666667  0.44230300  0.37621300  1.0
  Tb  Tb11  1  0.66412700  0.11368600  0.31937500  1.0
  Tb  Tb12  1  0.78051200  0.67128300  0.35294800  1.0
  Tb  Tb13  1  0.78352400  0.36629500  0.29560800  1.0
  Tb  Tb14  1  0.77767400  0.00881400  0.40523400  1.0
  Tb  Tb15  1  0.55437500  0.51958400  0.28522100  1.0
  Tb  Tb16  1  0.55404900  0.21348300  0.39824900  1.0
  Tb  Tb17  1  0.55598800  0.87716300  0.33512300  1.0
  Tb  Tb18  1  0.33502600  0.53761100  0.28510500  1.0
  Tb  Tb19  1  0.33352500  0.22004300  0.39492400  1.0
  Tb  Tb20  1  0.33231800  0.89241500  0.33082500  1.0
  Tb  Tb21  1  0.44805400  0.76638700  0.26674600  1.0
  Tb  Tb22  1  0.44439500  0.44247500  0.37488100  1.0
  Tb  Tb23  1  0.44658300  0.12319200  0.31357400  1.0
  Tb  Tb24  1  0.22201400  0.65409900  0.35131300  1.0
  Tb  Tb25  1  0.22159100  0.30282000  0.30195000  1.0
  Tb  Tb26  1  0.22174700  0.99340400  0.41270700  1.0
  Tb  Tb27  1  0.99909600  0.67024100  0.51656400  1.0
  Tb  Tb28  1  0.00124900  0.33431400  0.46243200  1.0
  Tb  Tb29  1  0.00029900  0.99832700  0.57664100  1.0
  Tb  Tb30  1  0.11152800  0.56472400  0.43887100  1.0
  Tb  Tb31  1  0.11147000  0.22399200  0.55635000  1.0
  Tb  Tb32  1  0.11043600  0.89340600  0.49845500  1.0
  Tb  Tb33  1  0.88927100  0.77329300  0.42276200  1.0
  Tb  Tb34  1  0.88899800  0.44071800  0.54041000  1.0
  Tb  Tb35  1  0.88778100  0.10081200  0.48081100  1.0
  Tb  Tb36  1  0.66637200  0.77942500  0.42337900  1.0
  Tb  Tb37  1  0.66541400  0.44345100  0.53758000  1.0
  Tb  Tb38  1  0.66756800  0.10752900  0.48344500  1.0
  Tb  Tb39  1  0.77889400  0.67697700  0.51920200  1.0
  Tb  Tb40  1  0.77768100  0.33703500  0.45961400  1.0
  Tb  Tb41  1  0.77739600  0.00447800  0.57724300  1.0
  Tb  Tb42  1  0.55519300  0.55378900  0.44364400  1.0
  Tb  Tb43  1  0.55514000  0.21302400  0.56113700  1.0
  Tb  Tb44  1  0.55623300  0.88439600  0.50154700  1.0
  Tb  Tb45  1  0.33329000  0.55961400  0.44050600  1.0
  Tb  Tb46  1  0.33337300  0.21817100  0.55949800  1.0
  Tb  Tb47  1  0.33333333  0.88887400  0.49999800  1.0
  Tb  Tb48  1  0.44460100  0.78866600  0.42227300  1.0
  Tb  Tb49  1  0.44488700  0.44840600  0.53870600  1.0
  Tb  Tb50  1  0.44391400  0.11168500  0.48364300  1.0
  Tb  Tb51  1  0.22275000  0.66611900  0.51636200  1.0
  Tb  Tb52  1  0.22177700  0.32937500  0.46128200  1.0
  Tb  Tb53  1  0.22206800  0.98910700  0.57772000  1.0
  Tb  Tb54  1  0.00254800  0.66410000  0.68062300  1.0
  Tb  Tb55  1  0.99994500  0.33548500  0.62380600  1.0
  Tb  Tb56  1  0.00247700  0.02788300  0.73180200  1.0
  Tb  Tb57  1  0.11261900  0.56431000  0.60175200  1.0
  Tb  Tb58  1  0.11229200  0.25821000  0.71476400  1.0
  Tb  Tb59  1  0.11068600  0.90064800  0.66487000  1.0
  Tb  Tb60  1  0.88900000  0.76895100  0.59477000  1.0
  Tb  Tb61  1  0.88314900  0.41148400  0.70440400  1.0
  Tb  Tb62  1  0.88615400  0.10648200  0.64708200  1.0
  Tb  Tb63  1  0.66810300  0.77375500  0.59054900  1.0
  Tb  Tb64  1  0.67157500  0.43697300  0.69917600  1.0
  Tb  Tb65  1  0.66676900  0.11215700  0.64753900  1.0
  Tb  Tb66  1  0.78003400  0.68246000  0.68376900  1.0
  Tb  Tb67  1  0.77686500  0.34943100  0.61673600  1.0
  Tb  Tb68  1  0.77579500  0.12324200  0.74206300  1.0
  Tb  Tb69  1  0.55618300  0.55227500  0.61019200  1.0
  Tb  Tb70  1  0.55344000  0.22763200  0.71894600  1.0
  Tb  Tb71  1  0.55375000  0.87458700  0.66983100  1.0
  Tb  Tb72  1  0.33313100  0.55774500  0.60507300  1.0
  Tb  Tb73  1  0.33162100  0.24015400  0.71488300  1.0
  Tb  Tb74  1  0.33433500  0.88537900  0.66916800  1.0
  Tb  Tb75  1  0.44491100  0.78437200  0.58728400  1.0
  Tb  Tb76  1  0.44506200  0.47496100  0.69802700  1.0
  Tb  Tb77  1  0.44464800  0.12366600  0.64868700  1.0
  Tb  Tb78  1  0.22008000  0.65454600  0.68642900  1.0
  Tb  Tb79  1  0.22226500  0.33528800  0.62509500  1.0
  Tb  Tb80  1  0.21860200  0.01137400  0.73324900  1.0
