# generated using pymatgen
data_Tb
_symmetry_space_group_name_H-M   'P 1'
_cell_length_a   9.50380158
_cell_length_b   26.07811612
_cell_length_c   21.54591900
_cell_angle_alpha   93.94797009
_cell_angle_beta   79.11002297
_cell_angle_gamma   84.02113678
_symmetry_Int_Tables_number   1
_chemical_formula_structural   Tb
_chemical_formula_sum   Tb81
_cell_volume   5193.80948295
_cell_formula_units_Z   81
loop_
 _symmetry_equiv_pos_site_id
 _symmetry_equiv_pos_as_xyz
  1  'x, y, z'
loop_
 _atom_site_type_symbol
 _atom_site_label
 _atom_site_symmetry_multiplicity
 _atom_site_fract_x
 _atom_site_fract_y
 _atom_site_fract_z
 _atom_site_occupancy
  Tb  Tb0  1  0.00395900  0.99906300  0.41202800  1.0
  Tb  Tb1  1  0.32160600  0.00234800  0.30175900  1.0
  Tb  Tb2  1  0.67332400  0.99924400  0.34828800  1.0
  Tb  Tb3  1  0.81111900  0.88764500  0.41755200  1.0
  Tb  Tb4  1  0.12180000  0.88818100  0.30703500  1.0
  Tb  Tb5  1  0.47265200  0.88878300  0.35531900  1.0
  Tb  Tb6  1  0.85880500  0.11161700  0.34504600  1.0
  Tb  Tb7  1  0.18900500  0.11205700  0.40167700  1.0
  Tb  Tb8  1  0.52976700  0.11618500  0.29560900  1.0
  Tb  Tb9  1  0.76696300  0.33555900  0.38065100  1.0
  Tb  Tb10  1  0.08309500  0.33924300  0.27073100  1.0
  Tb  Tb11  1  0.44525600  0.33023800  0.31317500  1.0
  Tb  Tb12  1  0.86565000  0.23292400  0.27208300  1.0
  Tb  Tb13  1  0.23690300  0.22171900  0.31979300  1.0
  Tb  Tb14  1  0.58184600  0.22315200  0.38417500  1.0
  Tb  Tb15  1  0.95846500  0.44591100  0.37165700  1.0
  Tb  Tb16  1  0.28306100  0.44771900  0.26114100  1.0
  Tb  Tb17  1  0.64113100  0.44490600  0.30817900  1.0
  Tb  Tb18  1  0.88718800  0.66628900  0.39535100  1.0
  Tb  Tb19  1  0.20421900  0.66710700  0.28452100  1.0
  Tb  Tb20  1  0.56146200  0.66442500  0.33019800  1.0
  Tb  Tb21  1  0.69447400  0.55499800  0.40181000  1.0
  Tb  Tb22  1  0.00464700  0.55439800  0.29102500  1.0
  Tb  Tb23  1  0.35603600  0.55506800  0.34055900  1.0
  Tb  Tb24  1  0.75408000  0.77782800  0.32428500  1.0
  Tb  Tb25  1  0.07403500  0.77734900  0.38512500  1.0
  Tb  Tb26  1  0.39767200  0.77968500  0.27836600  1.0
  Tb  Tb27  1  0.99964300  0.00105600  0.57583700  1.0
  Tb  Tb28  1  0.34141300  0.99929900  0.45726000  1.0
  Tb  Tb29  1  0.67348000  0.99958800  0.51640000  1.0
  Tb  Tb30  1  0.80737700  0.88995700  0.58336900  1.0
  Tb  Tb31  1  0.14841400  0.88777000  0.46600400  1.0
  Tb  Tb32  1  0.48392900  0.88814000  0.52129800  1.0
  Tb  Tb33  1  0.85828200  0.11201500  0.51370100  1.0
  Tb  Tb34  1  0.19424700  0.11157100  0.56946500  1.0
  Tb  Tb35  1  0.52928100  0.10961600  0.45337100  1.0
  Tb  Tb36  1  0.76969800  0.33403300  0.54274700  1.0
  Tb  Tb37  1  0.11146800  0.33229600  0.42418400  1.0
  Tb  Tb38  1  0.43761400  0.33374500  0.48361100  1.0
  Tb  Tb39  1  0.91688000  0.22177400  0.43054300  1.0
  Tb  Tb40  1  0.25281100  0.22131000  0.48634100  1.0
  Tb  Tb41  1  0.58182900  0.22372200  0.54667800  1.0
  Tb  Tb42  1  0.96269800  0.44555100  0.53398600  1.0
  Tb  Tb43  1  0.30378000  0.44337200  0.41660100  1.0
  Tb  Tb44  1  0.62719400  0.44520000  0.47866900  1.0
  Tb  Tb45  1  0.88414300  0.66698000  0.55987000  1.0
  Tb  Tb46  1  0.22698700  0.66636500  0.44011000  1.0
  Tb  Tb47  1  0.55554600  0.66666667  0.49997800  1.0
  Tb  Tb48  1  0.69208200  0.55610200  0.56656600  1.0
  Tb  Tb49  1  0.03283700  0.55555300  0.45075500  1.0
  Tb  Tb50  1  0.36668400  0.55602700  0.50598200  1.0
  Tb  Tb51  1  0.74442000  0.77729200  0.49398800  1.0
  Tb  Tb52  1  0.07832300  0.77778000  0.54923400  1.0
  Tb  Tb53  1  0.41907500  0.77720100  0.43342800  1.0
  Tb  Tb54  1  0.02799300  0.99408900  0.72927500  1.0
  Tb  Tb55  1  0.34417700  0.99777300  0.61934700  1.0
  Tb  Tb56  1  0.66589700  0.00309100  0.68681200  1.0
  Tb  Tb57  1  0.82806900  0.88560800  0.73884000  1.0
  Tb  Tb58  1  0.15266600  0.88742400  0.62834700  1.0
  Tb  Tb59  1  0.47005000  0.88841000  0.69181900  1.0
  Tb  Tb60  1  0.87427700  0.11160900  0.68018600  1.0
  Tb  Tb61  1  0.24544900  0.10043400  0.72790200  1.0
  Tb  Tb62  1  0.52927300  0.11018900  0.61584200  1.0
  Tb  Tb63  1  0.78949300  0.33100900  0.69822400  1.0
  Tb  Tb64  1  0.10712000  0.33427200  0.58799500  1.0
  Tb  Tb65  1  0.43783200  0.33408100  0.65170300  1.0
  Tb  Tb66  1  0.92213100  0.22129100  0.59832800  1.0
  Tb  Tb67  1  0.25233000  0.22173300  0.65495800  1.0
  Tb  Tb68  1  0.58129700  0.21717200  0.70441700  1.0
  Tb  Tb69  1  0.98928800  0.44515600  0.69297000  1.0
  Tb  Tb70  1  0.29997000  0.44567500  0.58242300  1.0
  Tb  Tb71  1  0.63844600  0.44454400  0.64464300  1.0
  Tb  Tb72  1  0.90686300  0.66623000  0.71550100  1.0
  Tb  Tb73  1  0.22388600  0.66704600  0.60462900  1.0
  Tb  Tb74  1  0.54961900  0.66891700  0.66982200  1.0
  Tb  Tb75  1  0.71345800  0.55363000  0.72165000  1.0
  Tb  Tb76  1  0.03705100  0.55597300  0.61486100  1.0
  Tb  Tb77  1  0.35703100  0.55549800  0.67572300  1.0
  Tb  Tb78  1  0.75504100  0.77826200  0.65946400  1.0
  Tb  Tb79  1  0.10633200  0.77892200  0.70899900  1.0
  Tb  Tb80  1  0.41660600  0.77833800  0.59820900  1.0
