# generated using pymatgen
data_Tb
_symmetry_space_group_name_H-M   'P 1'
_cell_length_a   8.85664437
_cell_length_b   9.50466117
_cell_length_c   21.54693600
_cell_angle_alpha   100.88950191
_cell_angle_beta   90.00000000
_cell_angle_gamma   103.29209093
_symmetry_Int_Tables_number   1
_chemical_formula_structural   Tb
_chemical_formula_sum   Tb27
_cell_volume   1731.64057354
_cell_formula_units_Z   27
loop_
 _symmetry_equiv_pos_site_id
 _symmetry_equiv_pos_as_xyz
  1  'x, y, z'
loop_
 _atom_site_type_symbol
 _atom_site_label
 _atom_site_symmetry_multiplicity
 _atom_site_fract_x
 _atom_site_fract_y
 _atom_site_fract_z
 _atom_site_occupancy
  Tb  Tb0  1  0.99922900  0.99966000  0.39497500  1.0
  Tb  Tb1  1  0.00395100  0.67947400  0.28482300  1.0
  Tb  Tb2  1  0.99599500  0.32590000  0.33104000  1.0
  Tb  Tb3  1  0.66751200  0.49178200  0.34762600  1.0
  Tb  Tb4  1  0.66438200  0.15325600  0.40702600  1.0
  Tb  Tb5  1  0.66427300  0.83901400  0.29702000  1.0
  Tb  Tb6  1  0.33599800  0.17322300  0.31908300  1.0
  Tb  Tb7  1  0.33352500  0.85079600  0.37934500  1.0
  Tb  Tb8  1  0.34357200  0.52558600  0.27250400  1.0
  Tb  Tb9  1  0.00090100  0.00439600  0.55906000  1.0
  Tb  Tb10  1  0.99909900  0.66227100  0.44094000  1.0
  Tb  Tb11  1  0.00000000  0.33333333  0.50000000  1.0
  Tb  Tb12  1  0.66691400  0.48376000  0.51209300  1.0
  Tb  Tb13  1  0.66773500  0.15887700  0.57175000  1.0
  Tb  Tb14  1  0.66495500  0.81724200  0.45647000  1.0
  Tb  Tb15  1  0.33308600  0.18290700  0.48790700  1.0
  Tb  Tb16  1  0.33504500  0.84942500  0.54353000  1.0
  Tb  Tb17  1  0.33226500  0.50778900  0.42825000  1.0
  Tb  Tb18  1  0.99604900  0.98719300  0.71517700  1.0
  Tb  Tb19  1  0.00077100  0.66700700  0.60502500  1.0
  Tb  Tb20  1  0.00400500  0.34076600  0.66896000  1.0
  Tb  Tb21  1  0.66400200  0.49344400  0.68091700  1.0
  Tb  Tb22  1  0.65642800  0.14108000  0.72749700  1.0
  Tb  Tb23  1  0.66647500  0.81587100  0.62065500  1.0
  Tb  Tb24  1  0.33248800  0.17488500  0.65237400  1.0
  Tb  Tb25  1  0.33572700  0.82765300  0.70298000  1.0
  Tb  Tb26  1  0.33561800  0.51341000  0.59297400  1.0
