# generated using pymatgen
data_Tb
_symmetry_space_group_name_H-M   'P 1'
_cell_length_a   3.59178830
_cell_length_b   51.79315726
_cell_length_c   24.89131155
_cell_angle_alpha   93.44541349
_cell_angle_beta   90.00000337
_cell_angle_gamma   88.01290789
_symmetry_Int_Tables_number   1
_chemical_formula_structural   Tb
_chemical_formula_sum   Tb67
_cell_volume   4619.37288478
_cell_formula_units_Z   67
loop_
 _symmetry_equiv_pos_site_id
 _symmetry_equiv_pos_as_xyz
  1  'x, y, z'
loop_
 _atom_site_type_symbol
 _atom_site_label
 _atom_site_symmetry_multiplicity
 _atom_site_fract_x
 _atom_site_fract_y
 _atom_site_fract_z
 _atom_site_occupancy
  Tb  Tb0  1  0.00009800  0.99980500  0.49265200  1.0
  Tb  Tb1  1  0.75087600  0.49824700  0.31607500  1.0
  Tb  Tb2  1  0.49971100  0.00057700  0.37271700  1.0
  Tb  Tb3  1  0.25020500  0.49959000  0.43373700  1.0
  Tb  Tb4  1  0.27801100  0.44397700  0.35047800  1.0
  Tb  Tb5  1  0.02820500  0.94358900  0.41111700  1.0
  Tb  Tb6  1  0.77779000  0.44441900  0.46977100  1.0
  Tb  Tb7  1  0.97152900  0.05694300  0.34258500  1.0
  Tb  Tb8  1  0.72220600  0.55558900  0.39755000  1.0
  Tb  Tb9  1  0.47243800  0.05512500  0.46205400  1.0
  Tb  Tb10  1  0.91639200  0.16721600  0.35160500  1.0
  Tb  Tb11  1  0.66666667  0.66656600  0.41366700  1.0
  Tb  Tb12  1  0.41669100  0.16662000  0.47312400  1.0
  Tb  Tb13  1  0.16671800  0.66656600  0.29775700  1.0
  Tb  Tb14  1  0.69381600  0.61236700  0.32468600  1.0
  Tb  Tb15  1  0.44468600  0.11062600  0.39317500  1.0
  Tb  Tb16  1  0.19458300  0.61083100  0.44548800  1.0
  Tb  Tb17  1  0.38830200  0.22339600  0.31938500  1.0
  Tb  Tb18  1  0.13852600  0.72294900  0.37996200  1.0
  Tb  Tb19  1  0.88888700  0.22222700  0.43851000  1.0
  Tb  Tb20  1  0.33308500  0.33382900  0.33062200  1.0
  Tb  Tb21  1  0.08336400  0.83327200  0.39657300  1.0
  Tb  Tb22  1  0.83355200  0.33289500  0.45283500  1.0
  Tb  Tb23  1  0.86124700  0.27750400  0.37052000  1.0
  Tb  Tb24  1  0.61107900  0.77784100  0.42563300  1.0
  Tb  Tb25  1  0.36095900  0.27808100  0.49019400  1.0
  Tb  Tb26  1  0.11051800  0.77896400  0.30858200  1.0
  Tb  Tb27  1  0.80512700  0.38974900  0.29879100  1.0
  Tb  Tb28  1  0.55545300  0.88909600  0.36019800  1.0
  Tb  Tb29  1  0.30562100  0.38876000  0.41837500  1.0
  Tb  Tb30  1  0.05564900  0.88870400  0.48016300  1.0
  Tb  Tb31  1  0.99994900  0.00010100  0.73696600  1.0
  Tb  Tb32  1  0.74997600  0.50004700  0.56159900  1.0
  Tb  Tb33  1  0.49995000  0.00010100  0.62105600  1.0
  Tb  Tb34  1  0.25027500  0.49945100  0.68311800  1.0
  Tb  Tb35  1  0.27778000  0.44443900  0.59621300  1.0
  Tb  Tb36  1  0.02814100  0.94371700  0.65476100  1.0
  Tb  Tb37  1  0.77836500  0.44327000  0.71533800  1.0
  Tb  Tb38  1  0.52784100  0.94431700  0.53090200  1.0
  Tb  Tb39  1  0.97208300  0.05583600  0.58923400  1.0
  Tb  Tb40  1  0.72198000  0.55604100  0.64154700  1.0
  Tb  Tb41  1  0.47285000  0.05430000  0.71003600  1.0
  Tb  Tb42  1  0.22241300  0.55517500  0.52194600  1.0
  Tb  Tb43  1  0.91646200  0.16707700  0.60098600  1.0
  Tb  Tb44  1  0.66695600  0.66609000  0.66200600  1.0
  Tb  Tb45  1  0.41579100  0.16842000  0.71864800  1.0
  Tb  Tb46  1  0.16656900  0.66686200  0.54207100  1.0
  Tb  Tb47  1  0.94425300  0.11149200  0.51277600  1.0
  Tb  Tb48  1  0.69422800  0.61154200  0.57266800  1.0
  Tb  Tb49  1  0.44446000  0.11107800  0.63717200  1.0
  Tb  Tb50  1  0.19513700  0.60972400  0.69213700  1.0
  Tb  Tb51  1  0.38887700  0.22224700  0.56495200  1.0
  Tb  Tb52  1  0.13846200  0.72307700  0.62360600  1.0
  Tb  Tb53  1  0.88865600  0.22268900  0.68424500  1.0
  Tb  Tb54  1  0.63882600  0.72234900  0.50382100  1.0
  Tb  Tb55  1  0.33311400  0.33377100  0.58188700  1.0
  Tb  Tb56  1  0.08330200  0.83339400  0.63814900  1.0
  Tb  Tb57  1  0.83358100  0.33283700  0.70410000  1.0
  Tb  Tb58  1  0.58333300  0.83333300  0.51736100  1.0
  Tb  Tb59  1  0.86104600  0.27790700  0.61634700  1.0
  Tb  Tb60  1  0.61121400  0.77757100  0.67452400  1.0
  Tb  Tb61  1  0.36154000  0.27691800  0.73593100  1.0
  Tb  Tb62  1  0.11101800  0.77796300  0.55455900  1.0
  Tb  Tb63  1  0.80570800  0.38858600  0.54452800  1.0
  Tb  Tb64  1  0.55558800  0.88882600  0.60908900  1.0
  Tb  Tb65  1  0.30542000  0.38916300  0.66420200  1.0
  Tb  Tb66  1  0.05614900  0.88770300  0.72614000  1.0
