# generated using pymatgen
data_Tb
_symmetry_space_group_name_H-M   'P 1'
_cell_length_a   6.22295703
_cell_length_b   51.78992576
_cell_length_c   21.55091739
_cell_angle_alpha   92.00697604
_cell_angle_beta   90.01041013
_cell_angle_gamma   86.55723074
_symmetry_Int_Tables_number   1
_chemical_formula_structural   Tb
_chemical_formula_sum   Tb108
_cell_volume   6928.76877231
_cell_formula_units_Z   108
loop_
 _symmetry_equiv_pos_site_id
 _symmetry_equiv_pos_as_xyz
  1  'x, y, z'
loop_
 _atom_site_type_symbol
 _atom_site_label
 _atom_site_symmetry_multiplicity
 _atom_site_fract_x
 _atom_site_fract_y
 _atom_site_fract_z
 _atom_site_occupancy
  Tb  Tb0  1  0.75024200  0.49980300  0.38504400  1.0
  Tb  Tb1  1  0.00363900  0.00195300  0.34671700  1.0
  Tb  Tb2  1  0.51019500  0.00233200  0.26292300  1.0
  Tb  Tb3  1  0.25023100  0.49967800  0.30247900  1.0
  Tb  Tb4  1  0.69037100  0.94453200  0.33564100  1.0
  Tb  Tb5  1  0.91823600  0.44323000  0.29604100  1.0
  Tb  Tb6  1  0.43490200  0.44448500  0.37953500  1.0
  Tb  Tb7  1  0.17821300  0.94984000  0.25897200  1.0
  Tb  Tb8  1  0.58193800  0.55623300  0.30537200  1.0
  Tb  Tb9  1  0.83731400  0.05784400  0.26569400  1.0
  Tb  Tb10  1  0.31950600  0.05625700  0.34950700  1.0
  Tb  Tb11  1  0.06576700  0.55498900  0.38867400  1.0
  Tb  Tb12  1  0.49991400  0.66594400  0.31576700  1.0
  Tb  Tb13  1  0.75052000  0.16709100  0.27547100  1.0
  Tb  Tb14  1  0.25025400  0.16718300  0.35806400  1.0
  Tb  Tb15  1  0.00069900  0.66618000  0.39817800  1.0
  Tb  Tb16  1  0.68524600  0.61076100  0.39318000  1.0
  Tb  Tb17  1  0.93504200  0.11201400  0.35341600  1.0
  Tb  Tb18  1  0.41847200  0.11051200  0.26981400  1.0
  Tb  Tb19  1  0.16896900  0.60941400  0.30966200  1.0
  Tb  Tb20  1  0.82995300  0.72273700  0.31850000  1.0
  Tb  Tb21  1  0.08237700  0.22359100  0.27796100  1.0
  Tb  Tb22  1  0.56534700  0.22247300  0.36141400  1.0
  Tb  Tb23  1  0.31422500  0.72128200  0.40144600  1.0
  Tb  Tb24  1  0.74124900  0.83234600  0.32990900  1.0
  Tb  Tb25  1  0.99936800  0.33348500  0.28860300  1.0
  Tb  Tb26  1  0.49972300  0.33350100  0.37120900  1.0
  Tb  Tb27  1  0.24610500  0.83269300  0.41218800  1.0
  Tb  Tb28  1  0.41708300  0.77591500  0.32254300  1.0
  Tb  Tb29  1  0.66804300  0.27692500  0.28227800  1.0
  Tb  Tb30  1  0.18413300  0.27817000  0.36567500  1.0
  Tb  Tb31  1  0.93275300  0.77746200  0.40546800  1.0
  Tb  Tb32  1  0.56140700  0.88900800  0.41434800  1.0
  Tb  Tb33  1  0.81529900  0.38874300  0.37478900  1.0
  Tb  Tb34  1  0.33153300  0.39000300  0.29150000  1.0
  Tb  Tb35  1  0.07905500  0.88967000  0.33232400  1.0
  Tb  Tb36  1  0.75027000  0.49990100  0.55042500  1.0
  Tb  Tb37  1  0.00579900  0.00039000  0.51024700  1.0
  Tb  Tb38  1  0.50734000  0.99987800  0.42290500  1.0
  Tb  Tb39  1  0.25049600  0.49979300  0.46351300  1.0
  Tb  Tb40  1  0.68977500  0.94433900  0.50360300  1.0
  Tb  Tb41  1  0.93815900  0.44411400  0.45893000  1.0
  Tb  Tb42  1  0.43825500  0.44415000  0.54575300  1.0
  Tb  Tb43  1  0.18517400  0.94450600  0.41820400  1.0
  Tb  Tb44  1  0.56194000  0.55553300  0.46817800  1.0
  Tb  Tb45  1  0.81269700  0.05646100  0.42842900  1.0
  Tb  Tb46  1  0.31390100  0.05640000  0.51473400  1.0
  Tb  Tb47  1  0.06256100  0.55555300  0.55490700  1.0
  Tb  Tb48  1  0.50084200  0.66606800  0.47671000  1.0
  Tb  Tb49  1  0.74960900  0.16721900  0.43660800  1.0
  Tb  Tb50  1  0.24914600  0.16726200  0.52339700  1.0
  Tb  Tb51  1  0.00026200  0.66611900  0.56346200  1.0
  Tb  Tb52  1  0.68806200  0.61045800  0.55942700  1.0
  Tb  Tb53  1  0.93899500  0.11142000  0.51910900  1.0
  Tb  Tb54  1  0.43831100  0.11167300  0.43260500  1.0
  Tb  Tb55  1  0.18790500  0.61045500  0.47249900  1.0
  Tb  Tb56  1  0.81097800  0.72194400  0.48088100  1.0
  Tb  Tb57  1  0.06164400  0.22289100  0.44065400  1.0
  Tb  Tb58  1  0.56193000  0.22285600  0.52765000  1.0
  Tb  Tb59  1  0.31178000  0.72165900  0.56738100  1.0
  Tb  Tb60  1  0.74417000  0.83290600  0.48958900  1.0
  Tb  Tb61  1  0.99972800  0.33346300  0.44967900  1.0
  Tb  Tb62  1  0.49958800  0.33352800  0.53654900  1.0
  Tb  Tb63  1  0.24274500  0.83344700  0.57700200  1.0
  Tb  Tb64  1  0.43638100  0.77692100  0.48516800  1.0
  Tb  Tb65  1  0.68744600  0.27780900  0.44517400  1.0
  Tb  Tb66  1  0.18811000  0.27778700  0.53193400  1.0
  Tb  Tb67  1  0.93753700  0.77686900  0.57148600  1.0
  Tb  Tb68  1  0.56473700  0.88879800  0.58169800  1.0
  Tb  Tb69  1  0.81187800  0.38920100  0.54111500  1.0
  Tb  Tb70  1  0.31177400  0.38918900  0.45429800  1.0
  Tb  Tb71  1  0.06003100  0.88897900  0.49628100  1.0
  Tb  Tb72  1  0.75069300  0.49988500  0.71144300  1.0
  Tb  Tb73  1  0.00864300  0.00095700  0.66989300  1.0
  Tb  Tb74  1  0.50400000  0.00060300  0.58771100  1.0
  Tb  Tb75  1  0.25039700  0.49984500  0.62885000  1.0
  Tb  Tb76  1  0.67108200  0.94363200  0.66749600  1.0
  Tb  Tb77  1  0.93465900  0.44458700  0.62527200  1.0
  Tb  Tb78  1  0.41832200  0.44335400  0.70849700  1.0
  Tb  Tb79  1  0.18858800  0.94429900  0.58550200  1.0
  Tb  Tb80  1  0.56571700  0.55515000  0.63440300  1.0
  Tb  Tb81  1  0.81742600  0.05585800  0.59450000  1.0
  Tb  Tb82  1  0.33297400  0.05741600  0.67738700  1.0
  Tb  Tb83  1  0.08210900  0.55643300  0.71774600  1.0
  Tb  Tb84  1  0.49963800  0.66614100  0.64198700  1.0
  Tb  Tb85  1  0.74923400  0.16719300  0.60188700  1.0
  Tb  Tb86  1  0.25018600  0.16740600  0.68420500  1.0
  Tb  Tb87  1  0.99932800  0.66622800  0.72441000  1.0
  Tb  Tb88  1  0.66764600  0.60972100  0.72201900  1.0
  Tb  Tb89  1  0.92007200  0.11065000  0.68148500  1.0
  Tb  Tb90  1  0.43594200  0.11209300  0.59853600  1.0
  Tb  Tb91  1  0.18467100  0.61086000  0.63872800  1.0
  Tb  Tb92  1  0.81505000  0.72136700  0.64659100  1.0
  Tb  Tb93  1  0.06458400  0.22257000  0.60691700  1.0
  Tb  Tb94  1  0.58094100  0.22389400  0.69030400  1.0
  Tb  Tb95  1  0.33155900  0.72285300  0.73014200  1.0
  Tb  Tb96  1  0.74645000  0.83139500  0.65317300  1.0
  Tb  Tb97  1  0.99965600  0.33351100  0.61499100  1.0
  Tb  Tb98  1  0.49969500  0.33360500  0.69763000  1.0
  Tb  Tb99  1  0.23982000  0.83102300  0.73711600  1.0
  Tb  Tb100  1  0.43042700  0.77710100  0.65043000  1.0
  Tb  Tb101  1  0.68415500  0.27831100  0.61146100  1.0
  Tb  Tb102  1  0.16809700  0.27702500  0.69467700  1.0
  Tb  Tb103  1  0.91265500  0.77553700  0.73426500  1.0
  Tb  Tb104  1  0.57160600  0.88351600  0.74103100  1.0
  Tb  Tb105  1  0.83177200  0.39011100  0.70401200  1.0
  Tb  Tb106  1  0.31529800  0.38884800  0.62057700  1.0
  Tb  Tb107  1  0.05963200  0.88880400  0.66424000  1.0
