# generated using pymatgen
data_Pr
_symmetry_space_group_name_H-M   'P 1'
_cell_length_a   3.74863600
_cell_length_b   9.27597612
_cell_length_c   25.97131203
_cell_angle_alpha   96.69939690
_cell_angle_beta   90.00000008
_cell_angle_gamma   101.65753809
_symmetry_Int_Tables_number   1
_chemical_formula_structural   Pr
_chemical_formula_sum   Pr12
_cell_volume   878.15600836
_cell_formula_units_Z   12
loop_
 _symmetry_equiv_pos_site_id
 _symmetry_equiv_pos_as_xyz
  1  'x, y, z'
loop_
 _atom_site_type_symbol
 _atom_site_label
 _atom_site_symmetry_multiplicity
 _atom_site_fract_x
 _atom_site_fract_y
 _atom_site_fract_z
 _atom_site_occupancy
  Pr  Pr0  1  0.74872900  0.99745800  0.68592400  1.0
  Pr  Pr1  1  0.08144100  0.66288400  0.71097800  1.0
  Pr  Pr2  1  0.41668300  0.33336700  0.65448800  1.0
  Pr  Pr3  1  0.25015400  0.00030800  0.56457100  1.0
  Pr  Pr4  1  0.58551700  0.67103500  0.59154200  1.0
  Pr  Pr5  1  0.91708400  0.33416600  0.53508200  1.0
  Pr  Pr6  1  0.74984600  0.99969200  0.43542900  1.0
  Pr  Pr7  1  0.08291600  0.66583400  0.46491800  1.0
  Pr  Pr8  1  0.41448300  0.32896500  0.40845800  1.0
  Pr  Pr9  1  0.25127100  0.00254200  0.31407600  1.0
  Pr  Pr10  1  0.58331600  0.66666667  0.34551200  1.0
  Pr  Pr11  1  0.91855900  0.33711600  0.28902200  1.0
