# generated using pymatgen
data_Er
_symmetry_space_group_name_H-M   'P 1'
_cell_length_a   3.58940036
_cell_length_b   5.55351600
_cell_length_c   28.71520200
_cell_angle_alpha   90.00000000
_cell_angle_beta   60.00000332
_cell_angle_gamma   90.00000000
_symmetry_Int_Tables_number   1
_chemical_formula_structural   Er
_chemical_formula_sum   Er8
_cell_volume   495.71544612
_cell_formula_units_Z   8
loop_
 _symmetry_equiv_pos_site_id
 _symmetry_equiv_pos_as_xyz
  1  'x, y, z'
loop_
 _atom_site_type_symbol
 _atom_site_label
 _atom_site_symmetry_multiplicity
 _atom_site_fract_x
 _atom_site_fract_y
 _atom_site_fract_z
 _atom_site_occupancy
  Er  Er0  1  0.31844700  0.25000000  0.04538900  1.0
  Er  Er1  1  0.64514500  0.75000000  0.08871300  1.0
  Er  Er2  1  0.34229400  0.25000000  0.16442700  1.0
  Er  Er3  1  0.66984700  0.75000000  0.20753800  1.0
  Er  Er4  1  0.33015300  0.25000000  0.29246200  1.0
  Er  Er5  1  0.65770600  0.75000000  0.33557300  1.0
  Er  Er6  1  0.35485500  0.25000000  0.41128700  1.0
  Er  Er7  1  0.68155300  0.75000000  0.45461100  1.0
