# generated using pymatgen
data_Er
_symmetry_space_group_name_H-M   'P 1'
_cell_length_a   5.55419300
_cell_length_b   9.49815977
_cell_length_c   21.53405100
_cell_angle_alpha   79.10955076
_cell_angle_beta   90.00000000
_cell_angle_gamma   90.00000000
_symmetry_Int_Tables_number   1
_chemical_formula_structural   Er
_chemical_formula_sum   Er18
_cell_volume   1115.56103641
_cell_formula_units_Z   18
loop_
 _symmetry_equiv_pos_site_id
 _symmetry_equiv_pos_as_xyz
  1  'x, y, z'
loop_
 _atom_site_type_symbol
 _atom_site_label
 _atom_site_symmetry_multiplicity
 _atom_site_fract_x
 _atom_site_fract_y
 _atom_site_fract_z
 _atom_site_occupancy
  Er  Er0  1  0.75000000  0.40781200  0.00714000  1.0
  Er  Er1  1  0.75000000  0.20656500  0.13402400  1.0
  Er  Er2  1  0.75000000  0.89081800  0.06893800  1.0
  Er  Er3  1  0.25000000  0.78632300  0.15891000  1.0
  Er  Er4  1  0.25000000  0.44736700  0.10032900  1.0
  Er  Er5  1  0.25000000  0.14120900  0.04898100  1.0
  Er  Er6  1  0.75000000  0.55470700  0.17208200  1.0
  Er  Er7  1  0.75000000  0.22343700  0.28804900  1.0
  Er  Er8  1  0.75000000  0.88048800  0.23366600  1.0
  Er  Er9  1  0.25000000  0.77863100  0.32792400  1.0
  Er  Er10  1  0.25000000  0.45286300  0.26634400  1.0
  Er  Er11  1  0.25000000  0.10989600  0.21195000  1.0
  Er  Er12  1  0.75000000  0.54702000  0.34109000  1.0
  Er  Er13  1  0.75000000  0.19213200  0.45102500  1.0
  Er  Er14  1  0.75000000  0.88598600  0.39965800  1.0
  Er  Er15  1  0.25000000  0.92547200  0.49285000  1.0
  Er  Er16  1  0.25000000  0.44249400  0.43106500  1.0
  Er  Er17  1  0.25000000  0.12678000  0.36597600  1.0
