# generated using pymatgen
data_Er
_symmetry_space_group_name_H-M   'P 1'
_cell_length_a   3.58814053
_cell_length_b   6.61330870
_cell_length_c   24.86246103
_cell_angle_alpha   118.02990769
_cell_angle_beta   90.00000880
_cell_angle_gamma   74.25943524
_symmetry_Int_Tables_number   1
_chemical_formula_structural   Er
_chemical_formula_sum   Er8
_cell_volume   495.56692576
_cell_formula_units_Z   8
loop_
 _symmetry_equiv_pos_site_id
 _symmetry_equiv_pos_as_xyz
  1  'x, y, z'
loop_
 _atom_site_type_symbol
 _atom_site_label
 _atom_site_symmetry_multiplicity
 _atom_site_fract_x
 _atom_site_fract_y
 _atom_site_fract_z
 _atom_site_occupancy
  Er  Er0  1  0.42155400  0.15689200  0.02804200  1.0
  Er  Er1  1  0.86265200  0.27469700  0.14744900  1.0
  Er  Er2  1  0.63618100  0.72763700  0.10895000  1.0
  Er  Er3  1  0.11612500  0.76774900  0.23991100  1.0
  Er  Er4  1  0.38387500  0.23225100  0.26008900  1.0
  Er  Er5  1  0.86381900  0.27236300  0.39105000  1.0
  Er  Er6  1  0.63734800  0.72530300  0.35255100  1.0
  Er  Er7  1  0.07844600  0.84310800  0.47195800  1.0
