# generated using pymatgen
data_Mg
_symmetry_space_group_name_H-M   'P 1'
_cell_length_a   8.43280677
_cell_length_b   6.08967186
_cell_length_c   30.98593487
_cell_angle_alpha   87.77286797
_cell_angle_beta   90.05155466
_cell_angle_gamma   66.62368444
_symmetry_Int_Tables_number   1
_chemical_formula_structural   Mg
_chemical_formula_sum   Mg32
_cell_volume   1459.27770196
_cell_formula_units_Z   32
loop_
 _symmetry_equiv_pos_site_id
 _symmetry_equiv_pos_as_xyz
  1  'x, y, z'
loop_
 _atom_site_type_symbol
 _atom_site_label
 _atom_site_symmetry_multiplicity
 _atom_site_fract_x
 _atom_site_fract_y
 _atom_site_fract_z
 _atom_site_occupancy
  Mg  Mg0  1  0.51907800  0.42660500  0.34002000  1.0
  Mg  Mg1  1  0.52389500  0.92389900  0.08617700  1.0
  Mg  Mg2  1  0.14638100  0.49004000  0.37157900  1.0
  Mg  Mg3  1  0.14720000  0.99018500  0.11882500  1.0
  Mg  Mg4  1  0.89421700  0.36369300  0.30741000  1.0
  Mg  Mg5  1  0.89364000  0.86342200  0.05323600  1.0
  Mg  Mg6  1  0.77312500  0.54596800  0.40072400  1.0
  Mg  Mg7  1  0.77229300  0.05046900  0.14926200  1.0
  Mg  Mg8  1  0.39581900  0.61454400  0.43660900  1.0
  Mg  Mg9  1  0.39809400  0.11420000  0.18202900  1.0
  Mg  Mg10  1  0.02278900  0.68321900  0.46502400  1.0
  Mg  Mg11  1  0.02078800  0.17710300  0.21287500  1.0
  Mg  Mg12  1  0.65915900  0.73390200  0.49252600  1.0
  Mg  Mg13  1  0.64551100  0.24093300  0.24452300  1.0
  Mg  Mg14  1  0.27015700  0.30167400  0.27654100  1.0
  Mg  Mg15  1  0.26860000  0.80508500  0.02380400  1.0
  Mg  Mg16  1  0.85280000  0.00981500  0.38117500  1.0
  Mg  Mg17  1  0.85361900  0.50996000  0.12842100  1.0
  Mg  Mg18  1  0.47610500  0.07610100  0.41382300  1.0
  Mg  Mg19  1  0.48092200  0.57339500  0.15998000  1.0
  Mg  Mg20  1  0.22770700  0.94953100  0.35073800  1.0
  Mg  Mg21  1  0.22687500  0.45403200  0.09927600  1.0
  Mg  Mg22  1  0.10636000  0.13657800  0.44676400  1.0
  Mg  Mg23  1  0.10578300  0.63630700  0.19259000  1.0
  Mg  Mg24  1  0.73140000  0.19491500  0.47619600  1.0
  Mg  Mg25  1  0.72984300  0.69832600  0.22345900  1.0
  Mg  Mg26  1  0.35448900  0.75906700  0.25547700  1.0
  Mg  Mg27  1  0.34084100  0.26609800  0.00747400  1.0
  Mg  Mg28  1  0.97921200  0.82289700  0.28712500  1.0
  Mg  Mg29  1  0.97721100  0.31678100  0.03497600  1.0
  Mg  Mg30  1  0.60190600  0.88580000  0.31797100  1.0
  Mg  Mg31  1  0.60418100  0.38545600  0.06339100  1.0
