# generated using pymatgen
data_Er
_symmetry_space_group_name_H-M   'P 1'
_cell_length_a   5.55343000
_cell_length_b   6.21774800
_cell_length_c   21.54013100
_cell_angle_alpha   90.00000000
_cell_angle_beta   90.00000000
_cell_angle_gamma   90.00000000
_symmetry_Int_Tables_number   1
_chemical_formula_structural   Er
_chemical_formula_sum   Er12
_cell_volume   743.77702446
_cell_formula_units_Z   12
loop_
 _symmetry_equiv_pos_site_id
 _symmetry_equiv_pos_as_xyz
  1  'x, y, z'
loop_
 _atom_site_type_symbol
 _atom_site_label
 _atom_site_symmetry_multiplicity
 _atom_site_fract_x
 _atom_site_fract_y
 _atom_site_fract_z
 _atom_site_occupancy
  Er  Er0  1  0.75000000  0.32488400  0.12773700  1.0
  Er  Er1  1  0.75000000  0.81761200  0.04617700  1.0
  Er  Er2  1  0.25000000  0.67511600  0.12773700  1.0
  Er  Er3  1  0.25000000  0.18238800  0.04617700  1.0
  Er  Er4  1  0.75000000  0.33061600  0.29283700  1.0
  Er  Er5  1  0.75000000  0.83061600  0.20716300  1.0
  Er  Er6  1  0.25000000  0.66938400  0.29283700  1.0
  Er  Er7  1  0.25000000  0.16938400  0.20716300  1.0
  Er  Er8  1  0.75000000  0.31761200  0.45382300  1.0
  Er  Er9  1  0.75000000  0.82488400  0.37226300  1.0
  Er  Er10  1  0.25000000  0.68238800  0.45382300  1.0
  Er  Er11  1  0.25000000  0.17511600  0.37226300  1.0
