# generated using pymatgen
data_Er
_symmetry_space_group_name_H-M   'P 1'
_cell_length_a   3.58839095
_cell_length_b   11.67338648
_cell_length_c   24.86022441
_cell_angle_alpha   105.43863672
_cell_angle_beta   90.00000825
_cell_angle_gamma   81.15860761
_symmetry_Int_Tables_number   1
_chemical_formula_structural   Er
_chemical_formula_sum   Er16
_cell_volume   990.94248558
_cell_formula_units_Z   16
loop_
 _symmetry_equiv_pos_site_id
 _symmetry_equiv_pos_as_xyz
  1  'x, y, z'
loop_
 _atom_site_type_symbol
 _atom_site_label
 _atom_site_symmetry_multiplicity
 _atom_site_fract_x
 _atom_site_fract_y
 _atom_site_fract_z
 _atom_site_occupancy
  Er  Er0  1  0.43393600  0.13212900  0.03172100  1.0
  Er  Er1  1  0.18895700  0.62208600  0.08994800  1.0
  Er  Er2  1  0.93777000  0.12446100  0.14973400  1.0
  Er  Er3  1  0.68796900  0.62406200  0.21286800  1.0
  Er  Er4  1  0.81301000  0.37398000  0.10645000  1.0
  Er  Er5  1  0.56516300  0.86967500  0.15835100  1.0
  Er  Er6  1  0.31228200  0.37543600  0.22352600  1.0
  Er  Er7  1  0.05702300  0.88595500  0.04139000  1.0
  Er  Er8  1  0.43771800  0.12456400  0.27647400  1.0
  Er  Er9  1  0.18483700  0.63032500  0.34164900  1.0
  Er  Er10  1  0.93699000  0.12602000  0.39355000  1.0
  Er  Er11  1  0.69297700  0.61404500  0.45861000  1.0
  Er  Er12  1  0.81223000  0.37553900  0.35026600  1.0
  Er  Er13  1  0.56104300  0.87791400  0.41005200  1.0
  Er  Er14  1  0.31606400  0.36787100  0.46827900  1.0
  Er  Er15  1  0.06203100  0.87593800  0.28713200  1.0
