# generated using pymatgen
data_Er
_symmetry_space_group_name_H-M   'P 1'
_cell_length_a   3.58703524
_cell_length_b   9.07557545
_cell_length_c   33.34648148
_cell_angle_alpha   95.90569649
_cell_angle_beta   90.00000791
_cell_angle_gamma   66.71901195
_symmetry_Int_Tables_number   1
_chemical_formula_structural   Er
_chemical_formula_sum   Er16
_cell_volume   990.90946470
_cell_formula_units_Z   16
loop_
 _symmetry_equiv_pos_site_id
 _symmetry_equiv_pos_as_xyz
  1  'x, y, z'
loop_
 _atom_site_type_symbol
 _atom_site_label
 _atom_site_symmetry_multiplicity
 _atom_site_fract_x
 _atom_site_fract_y
 _atom_site_fract_z
 _atom_site_occupancy
  Er  Er0  1  0.21076100  0.78923900  0.08709200  1.0
  Er  Er1  1  0.48570500  0.01429500  0.02577900  1.0
  Er  Er2  1  0.96248000  0.53752000  0.14512100  1.0
  Er  Er3  1  0.70823700  0.29176300  0.20844800  1.0
  Er  Er4  1  0.53917600  0.96082400  0.16735800  1.0
  Er  Er5  1  0.79300400  0.20699600  0.10159700  1.0
  Er  Er6  1  0.29071900  0.70928100  0.22894500  1.0
  Er  Er7  1  0.04274700  0.45725300  0.04236500  1.0
  Er  Er8  1  0.21095200  0.78904800  0.33265900  1.0
  Er  Er9  1  0.45940400  0.04059600  0.27104800  1.0
  Er  Er10  1  0.95691400  0.54308600  0.39841700  1.0
  Er  Er11  1  0.70718000  0.29282000  0.45763700  1.0
  Er  Er12  1  0.53909400  0.96090600  0.41291500  1.0
  Er  Er13  1  0.78751000  0.21249000  0.35487900  1.0
  Er  Er14  1  0.26416700  0.73583300  0.47420600  1.0
  Er  Er15  1  0.04195100  0.45804900  0.29153400  1.0
