# generated using pymatgen
data_Er
_symmetry_space_group_name_H-M   'P 1'
_cell_length_a   6.61306519
_cell_length_b   8.33554999
_cell_length_c   27.65258505
_cell_angle_alpha   92.87266180
_cell_angle_beta   92.43286814
_cell_angle_gamma   102.09669397
_symmetry_Int_Tables_number   1
_chemical_formula_structural   Er
_chemical_formula_sum   Er30
_cell_volume   1486.39870634
_cell_formula_units_Z   30
loop_
 _symmetry_equiv_pos_site_id
 _symmetry_equiv_pos_as_xyz
  1  'x, y, z'
loop_
 _atom_site_type_symbol
 _atom_site_label
 _atom_site_symmetry_multiplicity
 _atom_site_fract_x
 _atom_site_fract_y
 _atom_site_fract_z
 _atom_site_occupancy
  Er  Er0  1  0.82449900  0.81188600  0.23291000  1.0
  Er  Er1  1  0.44028900  0.46690000  0.27593900  1.0
  Er  Er2  1  0.20912800  0.13711400  0.19838700  1.0
  Er  Er3  1  0.34687900  0.86874300  0.26960600  1.0
  Er  Er4  1  0.96502100  0.52876200  0.31079600  1.0
  Er  Er5  1  0.73116700  0.20358900  0.23168600  1.0
  Er  Er6  1  0.69329100  0.80360100  0.35520500  1.0
  Er  Er7  1  0.32137200  0.47113300  0.39918300  1.0
  Er  Er8  1  0.07333700  0.13276000  0.31573600  1.0
  Er  Er9  1  0.21679600  0.85860500  0.39180600  1.0
  Er  Er10  1  0.84444200  0.52919800  0.43411900  1.0
  Er  Er11  1  0.59372000  0.19510300  0.35022500  1.0
  Er  Er12  1  0.57290500  0.80579700  0.48251300  1.0
  Er  Er13  1  0.19912800  0.47223500  0.52415500  1.0
  Er  Er14  1  0.94688400  0.13776300  0.44112400  1.0
  Er  Er15  1  0.09373000  0.86082700  0.51753800  1.0
  Er  Er16  1  0.71969400  0.52884800  0.55889400  1.0
  Er  Er17  1  0.46748200  0.19441600  0.47589100  1.0
  Er  Er18  1  0.44986700  0.80809800  0.60818500  1.0
  Er  Er19  1  0.07297800  0.47155800  0.64975300  1.0
  Er  Er20  1  0.82221600  0.13747500  0.56591000  1.0
  Er  Er21  1  0.97329800  0.86301600  0.64478800  1.0
  Er  Er22  1  0.59341900  0.53393500  0.68419600  1.0
  Er  Er23  1  0.34523000  0.19546100  0.60081800  1.0
  Er  Er24  1  0.31977900  0.79800400  0.73037800  1.0
  Er  Er25  1  0.93563400  0.46310800  0.76832300  1.0
  Er  Er26  1  0.70168400  0.13791200  0.68920400  1.0
  Er  Er27  1  0.84228300  0.85492000  0.76713300  1.0
  Er  Er28  1  0.45753900  0.52952100  0.80155400  1.0
  Er  Er29  1  0.22631000  0.19971200  0.72404500  1.0
