# generated using pymatgen
data_Er
_symmetry_space_group_name_H-M   'P 1'
_cell_length_a   6.21379360
_cell_length_b   6.61352451
_cell_length_c   36.30200920
_cell_angle_alpha   85.10065647
_cell_angle_beta   89.99999979
_cell_angle_gamma   90.00000112
_symmetry_Int_Tables_number   1
_chemical_formula_structural   Er
_chemical_formula_sum   Er24
_cell_volume   1486.38308607
_cell_formula_units_Z   24
loop_
 _symmetry_equiv_pos_site_id
 _symmetry_equiv_pos_as_xyz
  1  'x, y, z'
loop_
 _atom_site_type_symbol
 _atom_site_label
 _atom_site_symmetry_multiplicity
 _atom_site_fract_x
 _atom_site_fract_y
 _atom_site_fract_z
 _atom_site_occupancy
  Er  Er0  1  0.33323300  0.16963200  0.39533100  1.0
  Er  Er1  1  0.83370900  0.99828800  0.43732500  1.0
  Er  Er2  1  0.34069600  0.50399300  0.31295100  1.0
  Er  Er3  1  0.33303500  0.83344800  0.47904000  1.0
  Er  Er4  1  0.83241500  0.33660500  0.35368000  1.0
  Er  Er5  1  0.83687400  0.65335000  0.27549800  1.0
  Er  Er6  1  0.15930400  0.00399300  0.31295100  1.0
  Er  Er7  1  0.66758500  0.83660500  0.35368000  1.0
  Er  Er8  1  0.16696500  0.33344800  0.47904000  1.0
  Er  Er9  1  0.16676700  0.66963200  0.39533100  1.0
  Er  Er10  1  0.66312600  0.15335000  0.27549800  1.0
  Er  Er11  1  0.66629100  0.49828800  0.43732500  1.0
  Er  Er12  1  0.33241500  0.16339500  0.64632000  1.0
  Er  Er13  1  0.84069600  0.99600700  0.68704900  1.0
  Er  Er14  1  0.33370900  0.50171200  0.56267500  1.0
  Er  Er15  1  0.33687400  0.84665000  0.72450200  1.0
  Er  Er16  1  0.83323300  0.33036800  0.60466900  1.0
  Er  Er17  1  0.83303500  0.66655200  0.52096000  1.0
  Er  Er18  1  0.16629100  0.00171200  0.56267500  1.0
  Er  Er19  1  0.66676700  0.83036800  0.60466900  1.0
  Er  Er20  1  0.16312600  0.34665000  0.72450200  1.0
  Er  Er21  1  0.16758500  0.66339500  0.64632000  1.0
  Er  Er22  1  0.66696500  0.16655200  0.52096000  1.0
  Er  Er23  1  0.65930400  0.49600700  0.68704900  1.0
