# generated using pymatgen
data_Er
_symmetry_space_group_name_H-M   'P 1'
_cell_length_a   9.49212048
_cell_length_b   6.61496448
_cell_length_c   34.70743799
_cell_angle_alpha   86.13089252
_cell_angle_beta   89.99628392
_cell_angle_gamma   65.78718794
_symmetry_Int_Tables_number   1
_chemical_formula_structural   Er
_chemical_formula_sum   Er32
_cell_volume   1982.12353402
_cell_formula_units_Z   32
loop_
 _symmetry_equiv_pos_site_id
 _symmetry_equiv_pos_as_xyz
  1  'x, y, z'
loop_
 _atom_site_type_symbol
 _atom_site_label
 _atom_site_symmetry_multiplicity
 _atom_site_fract_x
 _atom_site_fract_y
 _atom_site_fract_z
 _atom_site_occupancy
  Er  Er0  1  0.52306300  0.42556000  0.57247200  1.0
  Er  Er1  1  0.51170900  0.93796400  0.32073900  1.0
  Er  Er2  1  0.14502900  0.48485400  0.60560700  1.0
  Er  Er3  1  0.14574700  0.98650600  0.35435500  1.0
  Er  Er4  1  0.89463400  0.36667900  0.54161200  1.0
  Er  Er5  1  0.90241900  0.87329600  0.29526700  1.0
  Er  Er6  1  0.77187300  0.54804600  0.63671100  1.0
  Er  Er7  1  0.76449400  0.05427300  0.38490800  1.0
  Er  Er8  1  0.39863400  0.61644800  0.66294700  1.0
  Er  Er9  1  0.39758500  0.11464000  0.41714800  1.0
  Er  Er10  1  0.01428500  0.67314800  0.69470700  1.0
  Er  Er11  1  0.02018200  0.17875800  0.44826900  1.0
  Er  Er12  1  0.61965900  0.74449500  0.72481000  1.0
  Er  Er13  1  0.64621600  0.23857300  0.47889300  1.0
  Er  Er14  1  0.27088600  0.30168300  0.51046700  1.0
  Er  Er15  1  0.26013200  0.77025600  0.26649100  1.0
  Er  Er16  1  0.86055100  0.00821400  0.61511300  1.0
  Er  Er17  1  0.85314200  0.51440400  0.36331200  1.0
  Er  Er18  1  0.47928500  0.07599800  0.64566200  1.0
  Er  Er19  1  0.47993400  0.57762500  0.39440000  1.0
  Er  Er20  1  0.22741900  0.94788400  0.58282200  1.0
  Er  Er21  1  0.22637200  0.44604300  0.33703700  1.0
  Er  Er22  1  0.11339800  0.12438800  0.67932100  1.0
  Er  Er23  1  0.10191100  0.63695000  0.42749100  1.0
  Er  Er24  1  0.72261300  0.18916700  0.70480000  1.0
  Er  Er25  1  0.73037200  0.69580000  0.45834200  1.0
  Er  Er26  1  0.35409400  0.76085100  0.48948000  1.0
  Er  Er27  1  0.36483900  0.29244700  0.73352300  1.0
  Er  Er28  1  0.97878700  0.82394500  0.52105900  1.0
  Er  Er29  1  0.00519600  0.31807500  0.27520600  1.0
  Er  Er30  1  0.60484600  0.88375100  0.55168700  1.0
  Er  Er31  1  0.61069300  0.38927800  0.30534300  1.0
