# generated using pymatgen
data_Er
_symmetry_space_group_name_H-M   'P 1'
_cell_length_a   3.58940000
_cell_length_b   3.58939999
_cell_length_c   44.42817700
_cell_angle_alpha   90.00000000
_cell_angle_beta   90.00000000
_cell_angle_gamma   120.00001849
_symmetry_Int_Tables_number   1
_chemical_formula_structural   Er
_chemical_formula_sum   Er8
_cell_volume   495.71579828
_cell_formula_units_Z   8
loop_
 _symmetry_equiv_pos_site_id
 _symmetry_equiv_pos_as_xyz
  1  'x, y, z'
loop_
 _atom_site_type_symbol
 _atom_site_label
 _atom_site_symmetry_multiplicity
 _atom_site_fract_x
 _atom_site_fract_y
 _atom_site_fract_z
 _atom_site_occupancy
  Er  Er0  1  0.33333333  0.66666667  0.28176900  1.0
  Er  Er1  1  0.66666667  0.33333333  0.34316300  1.0
  Er  Er2  1  0.33333333  0.66666667  0.40637100  1.0
  Er  Er3  1  0.66666667  0.33333333  0.46892000  1.0
  Er  Er4  1  0.33333333  0.66666667  0.53108000  1.0
  Er  Er5  1  0.66666667  0.33333333  0.59362900  1.0
  Er  Er6  1  0.33333333  0.66666667  0.65683700  1.0
  Er  Er7  1  0.66666667  0.33333333  0.71823100  1.0
