# generated using pymatgen
data_Cu
_symmetry_space_group_name_H-M   'P 1'
_cell_length_a   2.55769762
_cell_length_b   4.17737200
_cell_length_c   25.57696500
_cell_angle_alpha   90.00000000
_cell_angle_beta   59.99999504
_cell_angle_gamma   90.00000000
_symmetry_Int_Tables_number   1
_chemical_formula_structural   Cu
_chemical_formula_sum   Cu10
_cell_volume   236.66387436
_cell_formula_units_Z   10
loop_
 _symmetry_equiv_pos_site_id
 _symmetry_equiv_pos_as_xyz
  1  'x, y, z'
loop_
 _atom_site_type_symbol
 _atom_site_label
 _atom_site_symmetry_multiplicity
 _atom_site_fract_x
 _atom_site_fract_y
 _atom_site_fract_z
 _atom_site_occupancy
  Cu  Cu0  1  0.67960200  0.75000000  0.31408000  1.0
  Cu  Cu1  1  0.32239200  0.25000000  0.28552100  1.0
  Cu  Cu2  1  0.66516400  0.75000000  0.41696700  1.0
  Cu  Cu3  1  0.33767400  0.25000000  0.38246500  1.0
  Cu  Cu4  1  0.66012400  0.75000000  0.51797500  1.0
  Cu  Cu5  1  0.33987600  0.25000000  0.48202500  1.0
  Cu  Cu6  1  0.66232600  0.75000000  0.61753500  1.0
  Cu  Cu7  1  0.33483600  0.25000000  0.58303300  1.0
  Cu  Cu8  1  0.67760800  0.75000000  0.71447900  1.0
  Cu  Cu9  1  0.32039800  0.25000000  0.68592000  1.0
