# generated using pymatgen
data_Li
_symmetry_space_group_name_H-M   'P 1'
_cell_length_a   4.84838937
_cell_length_b   10.31914871
_cell_length_c   28.32258671
_cell_angle_alpha   90.01123914
_cell_angle_beta   90.00000000
_cell_angle_gamma   103.58702692
_symmetry_Int_Tables_number   1
_chemical_formula_structural   Li
_chemical_formula_sum   Li34
_cell_volume   1377.35815579
_cell_formula_units_Z   34
loop_
 _symmetry_equiv_pos_site_id
 _symmetry_equiv_pos_as_xyz
  1  'x, y, z'
loop_
 _atom_site_type_symbol
 _atom_site_label
 _atom_site_symmetry_multiplicity
 _atom_site_fract_x
 _atom_site_fract_y
 _atom_site_fract_z
 _atom_site_occupancy
  Li  Li0  1  0.30723900  0.61656900  0.02601900  1.0
  Li  Li1  1  0.88142400  0.76390900  0.08850800  1.0
  Li  Li2  1  0.98456700  0.97018200  0.00402300  1.0
  Li  Li3  1  0.58674600  0.17377500  0.05864200  1.0
  Li  Li4  1  0.17913500  0.35979800  0.11521300  1.0
  Li  Li5  1  0.76553500  0.53168500  0.17540800  1.0
  Li  Li6  1  0.94063100  0.88105100  0.29407600  1.0
  Li  Li7  1  0.47396500  0.94806100  0.15409800  1.0
  Li  Li8  1  0.05921600  0.11979800  0.20569200  1.0
  Li  Li9  1  0.64710400  0.29396700  0.26555000  1.0
  Li  Li10  1  0.23321600  0.46562800  0.32449800  1.0
  Li  Li11  1  0.82223800  0.64334300  0.38273300  1.0
  Li  Li12  1  0.35194300  0.70322400  0.23134900  1.0
  Li  Li13  1  0.52906000  0.05720000  0.35581800  1.0
  Li  Li14  1  0.11796600  0.23498500  0.41530400  1.0
  Li  Li15  1  0.70605900  0.41139000  0.46898300  1.0
  Li  Li16  1  0.40685900  0.81176900  0.42703500  1.0
  Li  Li17  1  0.32359600  0.64878700  0.12941100  1.0
  Li  Li18  1  0.91251700  0.82470300  0.19130300  1.0
  Li  Li19  1  0.03099500  0.06258700  0.10261200  1.0
  Li  Li20  1  0.61926400  0.24017200  0.16068200  1.0
  Li  Li21  1  0.20590100  0.41197200  0.21961000  1.0
  Li  Li22  1  0.79331900  0.58606400  0.27954000  1.0
  Li  Li23  1  0.97196200  0.94208100  0.39683300  1.0
  Li  Li24  1  0.50078000  0.00244600  0.25396800  1.0
  Li  Li25  1  0.08730600  0.17415200  0.30977700  1.0
  Li  Li26  1  0.67345000  0.34605300  0.37006400  1.0
  Li  Li27  1  0.26647700  0.53205600  0.42663500  1.0
  Li  Li28  1  0.86870300  0.73566500  0.48133100  1.0
  Li  Li29  1  0.37940800  0.75775500  0.33127100  1.0
  Li  Li30  1  0.54536300  0.08938200  0.45930400  1.0
  Li  Li31  1  0.14699500  0.29454400  0.01631300  1.0
  Li  Li32  1  0.73465900  0.47101300  0.07003300  1.0
  Li  Li33  1  0.44640200  0.89423300  0.05836200  1.0
