# generated using pymatgen
data_Cu
_symmetry_space_group_name_H-M   'P 1'
_cell_length_a   4.90193750
_cell_length_b   6.09271654
_cell_length_c   24.75662448
_cell_angle_alpha   92.96188942
_cell_angle_beta   94.10423854
_cell_angle_gamma   105.12712105
_symmetry_Int_Tables_number   1
_chemical_formula_structural   Cu
_chemical_formula_sum   Cu30
_cell_volume   710.03082184
_cell_formula_units_Z   30
loop_
 _symmetry_equiv_pos_site_id
 _symmetry_equiv_pos_as_xyz
  1  'x, y, z'
loop_
 _atom_site_type_symbol
 _atom_site_label
 _atom_site_symmetry_multiplicity
 _atom_site_fract_x
 _atom_site_fract_y
 _atom_site_fract_z
 _atom_site_occupancy
  Cu  Cu0  1  0.29677000  0.85671600  0.31140600  1.0
  Cu  Cu1  1  0.93291000  0.52923600  0.34431600  1.0
  Cu  Cu2  1  0.66112900  0.19218500  0.28085000  1.0
  Cu  Cu3  1  0.77032200  0.80862900  0.28683000  1.0
  Cu  Cu4  1  0.40521500  0.47518100  0.31699400  1.0
  Cu  Cu5  1  0.13670300  0.13898500  0.25775100  1.0
  Cu  Cu6  1  0.19696900  0.86182100  0.41312700  1.0
  Cu  Cu7  1  0.83014900  0.52908100  0.44735400  1.0
  Cu  Cu8  1  0.56391500  0.19789700  0.38035500  1.0
  Cu  Cu9  1  0.66534700  0.80184300  0.38523800  1.0
  Cu  Cu10  1  0.29810600  0.47124500  0.41842600  1.0
  Cu  Cu11  1  0.03561200  0.14025100  0.35238600  1.0
  Cu  Cu12  1  0.09847200  0.86260500  0.51431300  1.0
  Cu  Cu13  1  0.73236700  0.52966600  0.54828300  1.0
  Cu  Cu14  1  0.46522100  0.19601200  0.48075100  1.0
  Cu  Cu15  1  0.56788600  0.80369800  0.48568500  1.0
  Cu  Cu16  1  0.20212400  0.47102000  0.51922300  1.0
  Cu  Cu17  1  0.93503300  0.13687600  0.45171800  1.0
  Cu  Cu18  1  0.00164400  0.86427300  0.61482100  1.0
  Cu  Cu19  1  0.63028500  0.52571600  0.64761400  1.0
  Cu  Cu20  1  0.36796300  0.19573900  0.58154200  1.0
  Cu  Cu21  1  0.46985800  0.80482600  0.58689100  1.0
  Cu  Cu22  1  0.10242100  0.46908700  0.61963700  1.0
  Cu  Cu23  1  0.83577400  0.13714400  0.55262200  1.0
  Cu  Cu24  1  0.89593000  0.85868600  0.71311700  1.0
  Cu  Cu25  1  0.53038500  0.52764300  0.74230100  1.0
  Cu  Cu26  1  0.26180900  0.19137700  0.68306600  1.0
  Cu  Cu27  1  0.37027700  0.81057200  0.68872800  1.0
  Cu  Cu28  1  0.00517600  0.47458700  0.71907900  1.0
  Cu  Cu29  1  0.73422800  0.13740900  0.65557600  1.0
