# generated using pymatgen
data_Cu
_symmetry_space_group_name_H-M   'P 1'
_cell_length_a   6.75015119
_cell_length_b   4.90503338
_cell_length_c   25.58329800
_cell_angle_alpha   105.11671738
_cell_angle_beta   79.07629567
_cell_angle_gamma   66.88935958
_symmetry_Int_Tables_number   1
_chemical_formula_structural   Cu
_chemical_formula_sum   Cu30
_cell_volume   710.32691851
_cell_formula_units_Z   30
loop_
 _symmetry_equiv_pos_site_id
 _symmetry_equiv_pos_as_xyz
  1  'x, y, z'
loop_
 _atom_site_type_symbol
 _atom_site_label
 _atom_site_symmetry_multiplicity
 _atom_site_fract_x
 _atom_site_fract_y
 _atom_site_fract_z
 _atom_site_occupancy
  Cu  Cu0  1  0.63850100  0.74313400  0.31930300  1.0
  Cu  Cu1  1  0.97179400  0.75637500  0.26018400  1.0
  Cu  Cu2  1  0.30293800  0.75417800  0.28982700  1.0
  Cu  Cu3  1  0.02747700  0.25146800  0.27853300  1.0
  Cu  Cu4  1  0.36583500  0.24370800  0.30877100  1.0
  Cu  Cu5  1  0.69230400  0.24986800  0.34163900  1.0
  Cu  Cu6  1  0.63832000  0.74649700  0.42145300  1.0
  Cu  Cu7  1  0.97251400  0.74471500  0.35493000  1.0
  Cu  Cu8  1  0.30785400  0.74463100  0.38775500  1.0
  Cu  Cu9  1  0.02879700  0.24869800  0.37735800  1.0
  Cu  Cu10  1  0.36486900  0.24652800  0.41007000  1.0
  Cu  Cu11  1  0.69665600  0.24714000  0.44356400  1.0
  Cu  Cu12  1  0.63698500  0.75081200  0.52256100  1.0
  Cu  Cu13  1  0.97166200  0.74934200  0.45520600  1.0
  Cu  Cu14  1  0.30428600  0.74980900  0.48902200  1.0
  Cu  Cu15  1  0.02968200  0.24918800  0.47743900  1.0
  Cu  Cu16  1  0.36238000  0.25019100  0.51097800  1.0
  Cu  Cu17  1  0.69500500  0.25065800  0.54479400  1.0
  Cu  Cu18  1  0.63787000  0.75130200  0.62264200  1.0
  Cu  Cu19  1  0.97001100  0.75286000  0.55643600  1.0
  Cu  Cu20  1  0.30179700  0.75347200  0.58993000  1.0
  Cu  Cu21  1  0.02834700  0.25350300  0.57854700  1.0
  Cu  Cu22  1  0.35881200  0.25536900  0.61224500  1.0
  Cu  Cu23  1  0.69415300  0.25528500  0.64507000  1.0
  Cu  Cu24  1  0.63919000  0.74853200  0.72146700  1.0
  Cu  Cu25  1  0.97436300  0.75013200  0.65836100  1.0
  Cu  Cu26  1  0.30083100  0.75629200  0.69122900  1.0
  Cu  Cu27  1  0.02816600  0.25686600  0.68069700  1.0
  Cu  Cu28  1  0.36372800  0.24582200  0.71017300  1.0
  Cu  Cu29  1  0.69487300  0.24362500  0.73981600  1.0
