# generated using pymatgen
data_Yb
_symmetry_space_group_name_H-M   'P 1'
_cell_length_a   6.30230500
_cell_length_b   6.70994900
_cell_length_c   27.16668100
_cell_angle_alpha   90.00000000
_cell_angle_beta   90.00000000
_cell_angle_gamma   90.00000000
_symmetry_Int_Tables_number   1
_chemical_formula_structural   Yb
_chemical_formula_sum   Yb16
_cell_volume   1148.82854889
_cell_formula_units_Z   16
loop_
 _symmetry_equiv_pos_site_id
 _symmetry_equiv_pos_as_xyz
  1  'x, y, z'
loop_
 _atom_site_type_symbol
 _atom_site_label
 _atom_site_symmetry_multiplicity
 _atom_site_fract_x
 _atom_site_fract_y
 _atom_site_fract_z
 _atom_site_occupancy
  Yb  Yb0  1  0.25000000  0.32904600  0.32294200  1.0
  Yb  Yb1  1  0.25000000  0.81642100  0.25052500  1.0
  Yb  Yb2  1  0.75000000  0.67095400  0.32294200  1.0
  Yb  Yb3  1  0.75000000  0.18357900  0.25052500  1.0
  Yb  Yb4  1  0.25000000  0.33393300  0.46454400  1.0
  Yb  Yb5  1  0.25000000  0.83149000  0.39105600  1.0
  Yb  Yb6  1  0.75000000  0.66606700  0.46454400  1.0
  Yb  Yb7  1  0.75000000  0.16851000  0.39105600  1.0
  Yb  Yb8  1  0.25000000  0.33149000  0.60894400  1.0
  Yb  Yb9  1  0.25000000  0.83393300  0.53545600  1.0
  Yb  Yb10  1  0.75000000  0.66851000  0.60894400  1.0
  Yb  Yb11  1  0.75000000  0.16606700  0.53545600  1.0
  Yb  Yb12  1  0.25000000  0.31642100  0.74947500  1.0
  Yb  Yb13  1  0.25000000  0.82904600  0.67705800  1.0
  Yb  Yb14  1  0.75000000  0.68357900  0.74947500  1.0
  Yb  Yb15  1  0.75000000  0.17095400  0.67705800  1.0
