# generated using pymatgen
data_Yb
_symmetry_space_group_name_H-M   'P 1'
_cell_length_a   3.88102591
_cell_length_b   7.40236441
_cell_length_c   26.80620568
_cell_angle_alpha   116.91465681
_cell_angle_beta   89.99999960
_cell_angle_gamma   74.80246279
_symmetry_Int_Tables_number   1
_chemical_formula_structural   Yb
_chemical_formula_sum   Yb8
_cell_volume   656.34590190
_cell_formula_units_Z   8
loop_
 _symmetry_equiv_pos_site_id
 _symmetry_equiv_pos_as_xyz
  1  'x, y, z'
loop_
 _atom_site_type_symbol
 _atom_site_label
 _atom_site_symmetry_multiplicity
 _atom_site_fract_x
 _atom_site_fract_y
 _atom_site_fract_z
 _atom_site_occupancy
  Yb  Yb0  1  0.12386500  0.75227200  0.32333000  1.0
  Yb  Yb1  1  0.62476700  0.75046800  0.44691600  1.0
  Yb  Yb2  1  0.87310200  0.25379500  0.30600100  1.0
  Yb  Yb3  1  0.37496100  0.25007600  0.42725400  1.0
  Yb  Yb4  1  0.12503900  0.74992400  0.57274600  1.0
  Yb  Yb5  1  0.62689800  0.74620600  0.69399900  1.0
  Yb  Yb6  1  0.87523300  0.24953300  0.55308400  1.0
  Yb  Yb7  1  0.37613500  0.24772800  0.67667000  1.0
