# generated using pymatgen
data_Mg
_symmetry_space_group_name_H-M   'P 1'
_cell_length_a   5.55078600
_cell_length_b   6.08373788
_cell_length_c   25.38512300
_cell_angle_alpha   105.11686504
_cell_angle_beta   90.00000000
_cell_angle_gamma   62.85791605
_symmetry_Int_Tables_number   1
_chemical_formula_structural   Mg
_chemical_formula_sum   Mg16
_cell_volume   729.34860370
_cell_formula_units_Z   16
loop_
 _symmetry_equiv_pos_site_id
 _symmetry_equiv_pos_as_xyz
  1  'x, y, z'
loop_
 _atom_site_type_symbol
 _atom_site_label
 _atom_site_symmetry_multiplicity
 _atom_site_fract_x
 _atom_site_fract_y
 _atom_site_fract_z
 _atom_site_occupancy
  Mg  Mg0  1  0.03899100  0.24329000  0.07326200  1.0
  Mg  Mg1  1  0.52776800  0.25827400  0.01894200  1.0
  Mg  Mg2  1  0.45842100  0.75522700  0.10709200  1.0
  Mg  Mg3  1  0.95770600  0.74342800  0.04330000  1.0
  Mg  Mg4  1  0.03749100  0.25214500  0.20323400  1.0
  Mg  Mg5  1  0.54154800  0.24812700  0.14111800  1.0
  Mg  Mg6  1  0.45880600  0.75185500  0.23402000  1.0
  Mg  Mg7  1  0.96249300  0.74596000  0.16972000  1.0
  Mg  Mg8  1  0.03750700  0.25404000  0.33028000  1.0
  Mg  Mg9  1  0.54119400  0.24814500  0.26598000  1.0
  Mg  Mg10  1  0.45845200  0.75187300  0.35888200  1.0
  Mg  Mg11  1  0.96250900  0.74785500  0.29676600  1.0
  Mg  Mg12  1  0.04229400  0.25657200  0.45670000  1.0
  Mg  Mg13  1  0.54157900  0.24477300  0.39290800  1.0
  Mg  Mg14  1  0.47223200  0.74172600  0.48105800  1.0
  Mg  Mg15  1  0.96100900  0.75671000  0.42673800  1.0
