# generated using pymatgen
data_Ni
_symmetry_space_group_name_H-M   'P 1'
_cell_length_a   2.47987439
_cell_length_b   3.50647900
_cell_length_c   29.75848706
_cell_angle_alpha   90.00000000
_cell_angle_beta   90.00000000
_cell_angle_gamma   90.00000000
_symmetry_Int_Tables_number   1
_chemical_formula_structural   Ni
_chemical_formula_sum   Ni12
_cell_volume   258.76871758
_cell_formula_units_Z   12
loop_
 _symmetry_equiv_pos_site_id
 _symmetry_equiv_pos_as_xyz
  1  'x, y, z'
loop_
 _atom_site_type_symbol
 _atom_site_label
 _atom_site_symmetry_multiplicity
 _atom_site_fract_x
 _atom_site_fract_y
 _atom_site_fract_z
 _atom_site_occupancy
  Ni  Ni0  1  0.00000000  0.00000000  0.91775500  1.0
  Ni  Ni1  1  0.00000000  0.00000000  0.99881400  1.0
  Ni  Ni2  1  0.50000000  0.50000000  0.96095300  1.0
  Ni  Ni3  1  0.50000000  0.50000000  0.87568800  1.0
  Ni  Ni4  1  0.00000000  0.00000000  0.74996600  1.0
  Ni  Ni5  1  0.00000000  0.00000000  0.83407200  1.0
  Ni  Ni6  1  0.50000000  0.50000000  0.79170100  1.0
  Ni  Ni7  1  0.50000000  0.50000000  0.70759300  1.0
  Ni  Ni8  1  0.00000000  0.00000000  0.58071300  1.0
  Ni  Ni9  1  0.00000000  0.00000000  0.66597900  1.0
  Ni  Ni10  1  0.50000000  0.50000000  0.62391200  1.0
  Ni  Ni11  1  0.50000000  0.50000000  0.54285300  1.0
