# generated using pymatgen
data_Ni
_symmetry_space_group_name_H-M   'P 1'
_cell_length_a   3.50726700
_cell_length_b   4.29571017
_cell_length_c   31.37172649
_cell_angle_alpha   90.00000298
_cell_angle_beta   90.00000000
_cell_angle_gamma   114.09362497
_symmetry_Int_Tables_number   1
_chemical_formula_structural   Ni
_chemical_formula_sum   Ni20
_cell_volume   431.47508722
_cell_formula_units_Z   20
loop_
 _symmetry_equiv_pos_site_id
 _symmetry_equiv_pos_as_xyz
  1  'x, y, z'
loop_
 _atom_site_type_symbol
 _atom_site_label
 _atom_site_symmetry_multiplicity
 _atom_site_fract_x
 _atom_site_fract_y
 _atom_site_fract_z
 _atom_site_occupancy
  Ni  Ni0  1  0.60003500  0.20007100  0.19977100  1.0
  Ni  Ni1  1  0.19960900  0.39921700  0.14929400  1.0
  Ni  Ni2  1  0.80174100  0.60348100  0.09928400  1.0
  Ni  Ni3  1  0.39754300  0.79508600  0.04749300  1.0
  Ni  Ni4  1  0.00130300  0.00260500  0.00215400  1.0
  Ni  Ni5  1  0.89979200  0.79958500  0.17454100  1.0
  Ni  Ni6  1  0.50027800  0.00055500  0.12415700  1.0
  Ni  Ni7  1  0.10090000  0.20180100  0.07399100  1.0
  Ni  Ni8  1  0.69936000  0.39872000  0.02429500  1.0
  Ni  Ni9  1  0.30006000  0.60012000  0.22501700  1.0
  Ni  Ni10  1  0.60064000  0.20128000  0.45070500  1.0
  Ni  Ni11  1  0.19910000  0.39819900  0.40100900  1.0
  Ni  Ni12  1  0.79972200  0.59944500  0.35084300  1.0
  Ni  Ni13  1  0.40020800  0.80041500  0.30045900  1.0
  Ni  Ni14  1  0.99994000  0.99988000  0.24998300  1.0
  Ni  Ni15  1  0.90245700  0.80491400  0.42750700  1.0
  Ni  Ni16  1  0.49825900  0.99651900  0.37571600  1.0
  Ni  Ni17  1  0.10039100  0.20078300  0.32570600  1.0
  Ni  Ni18  1  0.69996500  0.39992900  0.27522900  1.0
  Ni  Ni19  1  0.29869700  0.59739500  0.47284600  1.0
