# generated using pymatgen
data_Ni
_symmetry_space_group_name_H-M   'P 1'
_cell_length_a   2.48031421
_cell_length_b   6.07525944
_cell_length_c   22.99986553
_cell_angle_alpha   95.05787900
_cell_angle_beta   90.00000000
_cell_angle_gamma   90.00000000
_symmetry_Int_Tables_number   1
_chemical_formula_structural   Ni
_chemical_formula_sum   Ni16
_cell_volume   345.22516618
_cell_formula_units_Z   16
loop_
 _symmetry_equiv_pos_site_id
 _symmetry_equiv_pos_as_xyz
  1  'x, y, z'
loop_
 _atom_site_type_symbol
 _atom_site_label
 _atom_site_symmetry_multiplicity
 _atom_site_fract_x
 _atom_site_fract_y
 _atom_site_fract_z
 _atom_site_occupancy
  Ni  Ni0  1  0.00000000  0.32394700  0.10904100  1.0
  Ni  Ni1  1  0.00000000  0.63980300  0.04704500  1.0
  Ni  Ni2  1  0.50000000  0.98039800  0.07460000  1.0
  Ni  Ni3  1  0.50000000  0.30306000  0.01877500  1.0
  Ni  Ni4  1  0.00000000  0.70295800  0.23437400  1.0
  Ni  Ni5  1  0.00000000  0.01450900  0.17071500  1.0
  Ni  Ni6  1  0.50000000  0.35830500  0.20285300  1.0
  Ni  Ni7  1  0.50000000  0.67236300  0.14032600  1.0
  Ni  Ni8  1  0.00000000  0.07768400  0.35966500  1.0
  Ni  Ni9  1  0.00000000  0.39167000  0.29716300  1.0
  Ni  Ni10  1  0.50000000  0.73550900  0.32930100  1.0
  Ni  Ni11  1  0.50000000  0.04693800  0.26565200  1.0
  Ni  Ni12  1  0.00000000  0.44693500  0.48120900  1.0
  Ni  Ni13  1  0.00000000  0.76964300  0.42537200  1.0
  Ni  Ni14  1  0.50000000  0.11018800  0.45293900  1.0
  Ni  Ni15  1  0.50000000  0.42609100  0.39097000  1.0
