# generated using pymatgen
data_Ni
_symmetry_space_group_name_H-M   'P 1'
_cell_length_a   3.50554000
_cell_length_b   5.54367039
_cell_length_c   26.69816874
_cell_angle_alpha   94.77066940
_cell_angle_beta   90.00000000
_cell_angle_gamma   90.00000000
_symmetry_Int_Tables_number   1
_chemical_formula_structural   Ni
_chemical_formula_sum   Ni24
_cell_volume   517.04292961
_cell_formula_units_Z   24
loop_
 _symmetry_equiv_pos_site_id
 _symmetry_equiv_pos_as_xyz
  1  'x, y, z'
loop_
 _atom_site_type_symbol
 _atom_site_label
 _atom_site_symmetry_multiplicity
 _atom_site_fract_x
 _atom_site_fract_y
 _atom_site_fract_z
 _atom_site_occupancy
  Ni  Ni0  1  0.00000000  0.31676000  0.32029900  1.0
  Ni  Ni1  1  0.00000000  0.89817700  0.28242200  1.0
  Ni  Ni2  1  0.00000000  0.72452500  0.36381600  1.0
  Ni  Ni3  1  0.50000000  0.60576100  0.30093100  1.0
  Ni  Ni4  1  0.50000000  0.18466900  0.26346600  1.0
  Ni  Ni5  1  0.50000000  0.01849300  0.34290600  1.0
  Ni  Ni6  1  0.00000000  0.56232500  0.44778800  1.0
  Ni  Ni7  1  0.00000000  0.14610800  0.40544900  1.0
  Ni  Ni8  1  0.00000000  0.97915900  0.48939300  1.0
  Ni  Ni9  1  0.50000000  0.85425100  0.42639600  1.0
  Ni  Ni10  1  0.50000000  0.43618900  0.38453900  1.0
  Ni  Ni11  1  0.50000000  0.27119200  0.46842200  1.0
  Ni  Ni12  1  0.00000000  0.81241500  0.57360400  1.0
  Ni  Ni13  1  0.00000000  0.39547600  0.53157800  1.0
  Ni  Ni14  1  0.00000000  0.23047700  0.61546100  1.0
  Ni  Ni15  1  0.50000000  0.10434100  0.55221200  1.0
  Ni  Ni16  1  0.50000000  0.68750700  0.51060700  1.0
  Ni  Ni17  1  0.50000000  0.52056000  0.59455100  1.0
  Ni  Ni18  1  0.00000000  0.06090500  0.69906900  1.0
  Ni  Ni19  1  0.00000000  0.64817500  0.65709400  1.0
  Ni  Ni20  1  0.00000000  0.48199700  0.73653400  1.0
  Ni  Ni21  1  0.50000000  0.34990600  0.67970100  1.0
  Ni  Ni22  1  0.50000000  0.94214100  0.63618400  1.0
  Ni  Ni23  1  0.50000000  0.76849100  0.71757800  1.0
