# generated using pymatgen
data_Ni
_symmetry_space_group_name_H-M   'P 1'
_cell_length_a   2.48008511
_cell_length_b   5.54478604
_cell_length_c   29.02849601
_cell_angle_alpha   86.71056163
_cell_angle_beta   87.55168744
_cell_angle_gamma   77.07701181
_symmetry_Int_Tables_number   1
_chemical_formula_structural   Ni
_chemical_formula_sum   Ni18
_cell_volume   388.25150111
_cell_formula_units_Z   18
loop_
 _symmetry_equiv_pos_site_id
 _symmetry_equiv_pos_as_xyz
  1  'x, y, z'
loop_
 _atom_site_type_symbol
 _atom_site_label
 _atom_site_symmetry_multiplicity
 _atom_site_fract_x
 _atom_site_fract_y
 _atom_site_fract_z
 _atom_site_occupancy
  Ni  Ni0  1  0.06716300  0.59922600  0.26644900  1.0
  Ni  Ni1  1  0.37505100  0.95885700  0.29103900  1.0
  Ni  Ni2  1  0.59670300  0.40415600  0.40243800  1.0
  Ni  Ni3  1  0.68447400  0.31357200  0.31748000  1.0
  Ni  Ni4  1  0.98631200  0.68065900  0.34671900  1.0
  Ni  Ni5  1  0.29029200  0.04473500  0.37468000  1.0
  Ni  Ni6  1  0.90304400  0.76379400  0.43012100  1.0
  Ni  Ni7  1  0.20851600  0.12472000  0.45824600  1.0
  Ni  Ni8  1  0.43029000  0.56954000  0.56987900  1.0
  Ni  Ni9  1  0.51378200  0.48626900  0.48616700  1.0
  Ni  Ni10  1  0.81955200  0.84706500  0.51383300  1.0
  Ni  Ni11  1  0.12481600  0.20861200  0.54175400  1.0
  Ni  Ni12  1  0.73663100  0.92917800  0.59756200  1.0
  Ni  Ni13  1  0.04304000  0.28859700  0.62532000  1.0
  Ni  Ni14  1  0.26617100  0.73410800  0.73355100  1.0
  Ni  Ni15  1  0.34702200  0.65267500  0.65328100  1.0
  Ni  Ni16  1  0.64886000  0.01976200  0.68252000  1.0
  Ni  Ni17  1  0.95828100  0.37447500  0.70896100  1.0
