# generated using pymatgen
data_Ni
_symmetry_space_group_name_H-M   'P 1'
_cell_length_a   2.47998894
_cell_length_b   4.29549094
_cell_length_c   25.41300847
_cell_angle_alpha   88.38712479
_cell_angle_beta   87.20321694
_cell_angle_gamma   73.22144199
_symmetry_Int_Tables_number   1
_chemical_formula_structural   Ni
_chemical_formula_sum   Ni12
_cell_volume   258.85706136
_cell_formula_units_Z   12
loop_
 _symmetry_equiv_pos_site_id
 _symmetry_equiv_pos_as_xyz
  1  'x, y, z'
loop_
 _atom_site_type_symbol
 _atom_site_label
 _atom_site_symmetry_multiplicity
 _atom_site_fract_x
 _atom_site_fract_y
 _atom_site_fract_z
 _atom_site_occupancy
  Ni  Ni0  1  0.35231700  0.94167500  0.35369100  1.0
  Ni  Ni1  1  0.93717900  0.85184300  0.27380000  1.0
  Ni  Ni2  1  0.64792800  0.39447600  0.30966700  1.0
  Ni  Ni3  1  0.47920700  0.56265300  0.47893400  1.0
  Ni  Ni4  1  0.06256800  0.47987000  0.39499400  1.0
  Ni  Ni5  1  0.77097200  0.02091600  0.43714000  1.0
  Ni  Ni6  1  0.60409900  0.18679700  0.60500600  1.0
  Ni  Ni7  1  0.18746000  0.10401400  0.52106600  1.0
  Ni  Ni8  1  0.89569400  0.64575000  0.56286000  1.0
  Ni  Ni9  1  0.72948800  0.81482400  0.72620000  1.0
  Ni  Ni10  1  0.31435000  0.72499200  0.64630900  1.0
  Ni  Ni11  1  0.01873800  0.27219000  0.69033300  1.0
