# generated using pymatgen
data_Ni
_symmetry_space_group_name_H-M   'P 1'
_cell_length_a   2.48009077
_cell_length_b   11.63329211
_cell_length_c   36.28239083
_cell_angle_alpha   98.38105934
_cell_angle_beta   90.00000000
_cell_angle_gamma   90.00000000
_symmetry_Int_Tables_number   1
_chemical_formula_structural   Ni
_chemical_formula_sum   Ni48
_cell_volume   1035.62647864
_cell_formula_units_Z   48
loop_
 _symmetry_equiv_pos_site_id
 _symmetry_equiv_pos_as_xyz
  1  'x, y, z'
loop_
 _atom_site_type_symbol
 _atom_site_label
 _atom_site_symmetry_multiplicity
 _atom_site_fract_x
 _atom_site_fract_y
 _atom_site_fract_z
 _atom_site_occupancy
  Ni  Ni0  1  0.00000000  0.11097000  0.73393900  1.0
  Ni  Ni1  1  0.00000000  0.94299800  0.56784300  1.0
  Ni  Ni2  1  0.00000000  0.77538800  0.40057500  1.0
  Ni  Ni3  1  0.00000000  0.81377600  0.69414500  1.0
  Ni  Ni4  1  0.00000000  0.65088000  0.52610800  1.0
  Ni  Ni5  1  0.00000000  0.48362900  0.35881600  1.0
  Ni  Ni6  1  0.00000000  0.46224600  0.71361800  1.0
  Ni  Ni7  1  0.00000000  0.29704300  0.54711400  1.0
  Ni  Ni8  1  0.00000000  0.12995000  0.37977100  1.0
  Ni  Ni9  1  0.00000000  0.17259000  0.67196500  1.0
  Ni  Ni10  1  0.00000000  0.00518000  0.50531000  1.0
  Ni  Ni11  1  0.00000000  0.83781800  0.33820300  1.0
  Ni  Ni12  1  0.00000000  0.88035600  0.63038400  1.0
  Ni  Ni13  1  0.00000000  0.71363900  0.46335700  1.0
  Ni  Ni14  1  0.00000000  0.54867800  0.29622900  1.0
  Ni  Ni15  1  0.00000000  0.25176000  0.25753600  1.0
  Ni  Ni16  1  0.00000000  0.58863000  0.58886400  1.0
  Ni  Ni17  1  0.00000000  0.42210900  0.42164400  1.0
  Ni  Ni18  1  0.00000000  0.52689500  0.65163100  1.0
  Ni  Ni19  1  0.00000000  0.35949600  0.48435200  1.0
  Ni  Ni20  1  0.00000000  0.19370900  0.31757500  1.0
  Ni  Ni21  1  0.00000000  0.23474500  0.60962000  1.0
  Ni  Ni22  1  0.00000000  0.06738600  0.44257700  1.0
  Ni  Ni23  1  0.00000000  0.90119300  0.27626200  1.0
  Ni  Ni24  1  0.50000000  0.99379100  0.68242500  1.0
  Ni  Ni25  1  0.50000000  0.82800400  0.51564800  1.0
  Ni  Ni26  1  0.50000000  0.66060500  0.34836900  1.0
  Ni  Ni27  1  0.50000000  0.70387100  0.64118400  1.0
  Ni  Ni28  1  0.50000000  0.53662000  0.47389200  1.0
  Ni  Ni29  1  0.50000000  0.37372400  0.30585600  1.0
  Ni  Ni30  1  0.50000000  0.34968200  0.66179700  1.0
  Ni  Ni31  1  0.50000000  0.18232000  0.49469000  1.0
  Ni  Ni32  1  0.50000000  0.01491000  0.32803500  1.0
  Ni  Ni33  1  0.50000000  0.05755000  0.62022900  1.0
  Ni  Ni34  1  0.50000000  0.89045700  0.45288600  1.0
  Ni  Ni35  1  0.50000000  0.72525400  0.28638200  1.0
  Ni  Ni36  1  0.50000000  0.93574000  0.74246400  1.0
  Ni  Ni37  1  0.50000000  0.76539100  0.57835600  1.0
  Ni  Ni38  1  0.50000000  0.59887000  0.41113600  1.0
  Ni  Ni39  1  0.50000000  0.63882200  0.70377100  1.0
  Ni  Ni40  1  0.50000000  0.47386100  0.53664300  1.0
  Ni  Ni41  1  0.50000000  0.30714400  0.36961600  1.0
  Ni  Ni42  1  0.50000000  0.41211200  0.59942500  1.0
  Ni  Ni43  1  0.50000000  0.24450200  0.43215700  1.0
  Ni  Ni44  1  0.50000000  0.07653000  0.26606100  1.0
  Ni  Ni45  1  0.50000000  0.28630700  0.72373800  1.0
  Ni  Ni46  1  0.50000000  0.12011400  0.55742300  1.0
  Ni  Ni47  1  0.50000000  0.95275500  0.39038000  1.0
