# generated using pymatgen
data_Ni
_symmetry_space_group_name_H-M   'P 1'
_cell_length_a   2.48023502
_cell_length_b   10.22418879
_cell_length_c   25.76407278
_cell_angle_alpha   98.04798970
_cell_angle_beta   90.00003144
_cell_angle_gamma   89.99997227
_symmetry_Int_Tables_number   1
_chemical_formula_structural   Ni
_chemical_formula_sum   Ni36
_cell_volume   646.90083287
_cell_formula_units_Z   36
loop_
 _symmetry_equiv_pos_site_id
 _symmetry_equiv_pos_as_xyz
  1  'x, y, z'
loop_
 _atom_site_type_symbol
 _atom_site_label
 _atom_site_symmetry_multiplicity
 _atom_site_fract_x
 _atom_site_fract_y
 _atom_site_fract_z
 _atom_site_occupancy
  Ni  Ni0  1  0.00000000  0.41909900  0.29129200  1.0
  Ni  Ni1  1  0.00000000  0.81765900  0.25742200  1.0
  Ni  Ni2  1  0.00000000  0.21502600  0.22509400  1.0
  Ni  Ni3  1  0.50000000  0.61777800  0.27099100  1.0
  Ni  Ni4  1  0.50000000  0.01710000  0.24134900  1.0
  Ni  Ni5  1  0.49999900  0.41129500  0.21070900  1.0
  Ni  Ni6  1  0.00000000  0.21646200  0.39145500  1.0
  Ni  Ni7  1  0.00000000  0.61689300  0.35662500  1.0
  Ni  Ni8  1  0.00000000  0.01616100  0.32425800  1.0
  Ni  Ni9  1  0.50000000  0.41675100  0.37459200  1.0
  Ni  Ni10  1  0.50000000  0.81568600  0.34014400  1.0
  Ni  Ni11  1  0.50000000  0.21675400  0.30803900  1.0
  Ni  Ni12  1  0.00000000  0.01666000  0.49184900  1.0
  Ni  Ni13  1  0.00000000  0.41667900  0.45838100  1.0
  Ni  Ni14  1  0.00000000  0.81676200  0.42416200  1.0
  Ni  Ni15  1  0.50000000  0.21663800  0.47538000  1.0
  Ni  Ni16  1  0.50000000  0.61684100  0.44085000  1.0
  Ni  Ni17  1  0.50000000  0.01662400  0.40803700  1.0
  Ni  Ni18  1  0.00000000  0.81693300  0.59196600  1.0
  Ni  Ni19  1  0.00000000  0.21683600  0.55928700  1.0
  Ni  Ni20  1  0.00000000  0.61690000  0.52475400  1.0
  Ni  Ni21  1  0.50000000  0.01686200  0.57581900  1.0
  Ni  Ni22  1  0.50000000  0.41693300  0.54187200  1.0
  Ni  Ni23  1  0.50000000  0.81687500  0.50819000  1.0
  Ni  Ni24  1  0.00000000  0.61668300  0.69200100  1.0
  Ni  Ni25  1  0.00000000  0.01747400  0.65974600  1.0
  Ni  Ni26  1  0.00000000  0.41674100  0.62559200  1.0
  Ni  Ni27  1  0.50000000  0.81725100  0.67569900  1.0
  Ni  Ni28  1  0.50000000  0.21628300  0.64343100  1.0
  Ni  Ni29  1  0.50000000  0.61715200  0.60867800  1.0
  Ni  Ni30  1  0.00000100  0.42151100  0.78900200  1.0
  Ni  Ni31  1  0.00000000  0.81622400  0.75856700  1.0
  Ni  Ni32  1  0.00000000  0.21505200  0.72893000  1.0
  Ni  Ni33  1  0.50000100  0.61801500  0.77471000  1.0
  Ni  Ni34  1  0.50000000  0.01540600  0.74246300  1.0
  Ni  Ni35  1  0.50000000  0.41401600  0.70866600  1.0
