# generated using pymatgen
data_Mg
_symmetry_space_group_name_H-M   'P 1'
_cell_length_a   6.09317483
_cell_length_b   7.57497550
_cell_length_c   24.53647405
_cell_angle_alpha   93.51584781
_cell_angle_beta   91.23566558
_cell_angle_gamma   104.29691150
_symmetry_Int_Tables_number   1
_chemical_formula_structural   Mg
_chemical_formula_sum   Mg24
_cell_volume   1094.56772006
_cell_formula_units_Z   24
loop_
 _symmetry_equiv_pos_site_id
 _symmetry_equiv_pos_as_xyz
  1  'x, y, z'
loop_
 _atom_site_type_symbol
 _atom_site_label
 _atom_site_symmetry_multiplicity
 _atom_site_fract_x
 _atom_site_fract_y
 _atom_site_fract_z
 _atom_site_occupancy
  Mg  Mg0  1  0.99013800  0.80446800  0.06365400  1.0
  Mg  Mg1  1  0.62489600  0.47416400  0.10560700  1.0
  Mg  Mg2  1  0.36118900  0.14315300  0.02569700  1.0
  Mg  Mg3  1  0.51188400  0.86063200  0.09730900  1.0
  Mg  Mg4  1  0.25834400  0.52189900  0.01991000  1.0
  Mg  Mg5  1  0.88121700  0.19165100  0.05443700  1.0
  Mg  Mg6  1  0.86514600  0.80725100  0.19080100  1.0
  Mg  Mg7  1  0.49052200  0.47399600  0.23281500  1.0
  Mg  Mg8  1  0.23760200  0.14039800  0.14954000  1.0
  Mg  Mg9  1  0.38392300  0.85969100  0.22497300  1.0
  Mg  Mg10  1  0.13707400  0.52724300  0.14245900  1.0
  Mg  Mg11  1  0.76004200  0.19358300  0.18287400  1.0
  Mg  Mg12  1  0.73995800  0.80641600  0.31712600  1.0
  Mg  Mg13  1  0.36292600  0.47275700  0.35754100  1.0
  Mg  Mg14  1  0.11607700  0.14030900  0.27502700  1.0
  Mg  Mg15  1  0.26239800  0.85960200  0.35046000  1.0
  Mg  Mg16  1  0.00947800  0.52600400  0.26718500  1.0
  Mg  Mg17  1  0.63485400  0.19274900  0.30919900  1.0
  Mg  Mg18  1  0.61878300  0.80834900  0.44556300  1.0
  Mg  Mg19  1  0.24165600  0.47810100  0.48009000  1.0
  Mg  Mg20  1  0.98811600  0.13936800  0.40269100  1.0
  Mg  Mg21  1  0.13881100  0.85684700  0.47430300  1.0
  Mg  Mg22  1  0.87510400  0.52583600  0.39439300  1.0
  Mg  Mg23  1  0.50986200  0.19553200  0.43634600  1.0
