# generated using pymatgen
data_Ni
_symmetry_space_group_name_H-M   'P 1'
_cell_length_a   3.50591100
_cell_length_b   6.56155378
_cell_length_c   29.23554664
_cell_angle_alpha   88.15976041
_cell_angle_beta   86.56249768
_cell_angle_gamma   74.50492018
_symmetry_Int_Tables_number   1
_chemical_formula_structural   Ni
_chemical_formula_sum   Ni30
_cell_volume   646.83985593
_cell_formula_units_Z   30
loop_
 _symmetry_equiv_pos_site_id
 _symmetry_equiv_pos_as_xyz
  1  'x, y, z'
loop_
 _atom_site_type_symbol
 _atom_site_label
 _atom_site_symmetry_multiplicity
 _atom_site_fract_x
 _atom_site_fract_y
 _atom_site_fract_z
 _atom_site_occupancy
  Ni  Ni0  1  0.40119600  0.82297700  0.37463000  1.0
  Ni  Ni1  1  0.19992400  0.29405300  0.30609800  1.0
  Ni  Ni2  1  0.00014300  0.59184200  0.40787200  1.0
  Ni  Ni3  1  0.80067200  0.05767800  0.34097800  1.0
  Ni  Ni4  1  0.59959100  0.52406500  0.27675200  1.0
  Ni  Ni5  1  0.99979000  0.67760000  0.32282000  1.0
  Ni  Ni6  1  0.79906700  0.14072500  0.26114000  1.0
  Ni  Ni7  1  0.60057700  0.44103800  0.35780800  1.0
  Ni  Ni8  1  0.40048100  0.90782400  0.29121400  1.0
  Ni  Ni9  1  0.20066600  0.20744200  0.39122500  1.0
  Ni  Ni10  1  0.40016500  0.65789900  0.54177100  1.0
  Ni  Ni11  1  0.19986500  0.12530900  0.47496100  1.0
  Ni  Ni12  1  0.99993200  0.42470500  0.57543200  1.0
  Ni  Ni13  1  0.79998500  0.89166200  0.50836900  1.0
  Ni  Ni14  1  0.59996600  0.35885500  0.44121400  1.0
  Ni  Ni15  1  0.00001500  0.50833800  0.49163100  1.0
  Ni  Ni16  1  0.80006800  0.97529500  0.42456800  1.0
  Ni  Ni17  1  0.60013500  0.27469100  0.52503900  1.0
  Ni  Ni18  1  0.39983500  0.74210100  0.45822900  1.0
  Ni  Ni19  1  0.20003400  0.04114500  0.55878600  1.0
  Ni  Ni20  1  0.39951900  0.49217600  0.70878600  1.0
  Ni  Ni21  1  0.19942300  0.95896200  0.64219200  1.0
  Ni  Ni22  1  0.00093300  0.25927500  0.73886000  1.0
  Ni  Ni23  1  0.80021000  0.72240000  0.67718000  1.0
  Ni  Ni24  1  0.59933400  0.19255800  0.60877500  1.0
  Ni  Ni25  1  0.99932800  0.34232200  0.65902200  1.0
  Ni  Ni26  1  0.79985700  0.80815800  0.59212800  1.0
  Ni  Ni27  1  0.60007600  0.10594700  0.69390200  1.0
  Ni  Ni28  1  0.39880400  0.57702300  0.62537000  1.0
  Ni  Ni29  1  0.20040900  0.87593500  0.72324800  1.0
