# generated using pymatgen
data_Ho
_symmetry_space_group_name_H-M   'P 1'
_cell_length_a   3.61019201
_cell_length_b   5.58566300
_cell_length_c   28.88153674
_cell_angle_alpha   90.00000000
_cell_angle_beta   119.99999410
_cell_angle_gamma   90.00000000
_symmetry_Int_Tables_number   1
_chemical_formula_structural   Ho
_chemical_formula_sum   Ho8
_cell_volume   504.37782634
_cell_formula_units_Z   8
loop_
 _symmetry_equiv_pos_site_id
 _symmetry_equiv_pos_as_xyz
  1  'x, y, z'
loop_
 _atom_site_type_symbol
 _atom_site_label
 _atom_site_symmetry_multiplicity
 _atom_site_fract_x
 _atom_site_fract_y
 _atom_site_fract_z
 _atom_site_occupancy
  Ho  Ho0  1  0.68160100  0.75000000  0.04540100  1.0
  Ho  Ho1  1  0.35467600  0.25000000  0.08866900  1.0
  Ho  Ho2  1  0.65735700  0.75000000  0.16433900  1.0
  Ho  Ho3  1  0.32954300  0.25000000  0.20738500  1.0
  Ho  Ho4  1  0.67045700  0.75000000  0.29261500  1.0
  Ho  Ho5  1  0.34264300  0.25000000  0.33566100  1.0
  Ho  Ho6  1  0.64532400  0.75000000  0.41133100  1.0
  Ho  Ho7  1  0.31839900  0.25000000  0.45459900  1.0
