# generated using pymatgen
data_Ho
_symmetry_space_group_name_H-M   'P 1'
_cell_length_a   5.58544000
_cell_length_b   6.25336200
_cell_length_c   28.88315700
_cell_angle_alpha   90.00000000
_cell_angle_beta   90.00000000
_cell_angle_gamma   90.00000000
_symmetry_Int_Tables_number   1
_chemical_formula_structural   Ho
_chemical_formula_sum   Ho20
_cell_volume   1008.82450284
_cell_formula_units_Z   20
loop_
 _symmetry_equiv_pos_site_id
 _symmetry_equiv_pos_as_xyz
  1  'x, y, z'
loop_
 _atom_site_type_symbol
 _atom_site_label
 _atom_site_symmetry_multiplicity
 _atom_site_fract_x
 _atom_site_fract_y
 _atom_site_fract_z
 _atom_site_occupancy
  Ho  Ho0  1  0.25000000  0.32570000  0.28313900  1.0
  Ho  Ho1  1  0.25000000  0.81866300  0.22221300  1.0
  Ho  Ho2  1  0.75000000  0.67430000  0.28313900  1.0
  Ho  Ho3  1  0.75000000  0.18133700  0.22221300  1.0
  Ho  Ho4  1  0.25000000  0.33273600  0.40635300  1.0
  Ho  Ho5  1  0.25000000  0.83143500  0.34267400  1.0
  Ho  Ho6  1  0.75000000  0.66726400  0.40635300  1.0
  Ho  Ho7  1  0.75000000  0.16856500  0.34267400  1.0
  Ho  Ho8  1  0.25000000  0.33408400  0.53119700  1.0
  Ho  Ho9  1  0.25000000  0.83408400  0.46880300  1.0
  Ho  Ho10  1  0.75000000  0.66591600  0.53119700  1.0
  Ho  Ho11  1  0.75000000  0.16591600  0.46880300  1.0
  Ho  Ho12  1  0.25000000  0.33143500  0.65732600  1.0
  Ho  Ho13  1  0.25000000  0.83273600  0.59364700  1.0
  Ho  Ho14  1  0.75000000  0.66856500  0.65732600  1.0
  Ho  Ho15  1  0.75000000  0.16726400  0.59364700  1.0
  Ho  Ho16  1  0.25000000  0.31866300  0.77778700  1.0
  Ho  Ho17  1  0.25000000  0.82570000  0.71686100  1.0
  Ho  Ho18  1  0.75000000  0.68133700  0.77778700  1.0
  Ho  Ho19  1  0.75000000  0.17430000  0.71686100  1.0
