# generated using pymatgen
data_Ho
_symmetry_space_group_name_H-M   'P 1'
_cell_length_a   5.58745100
_cell_length_b   9.55298474
_cell_length_c   21.65832000
_cell_angle_alpha   79.10956405
_cell_angle_beta   90.00000000
_cell_angle_gamma   90.00000000
_symmetry_Int_Tables_number   1
_chemical_formula_structural   Ho
_chemical_formula_sum   Ho18
_cell_volume   1135.23235261
_cell_formula_units_Z   18
loop_
 _symmetry_equiv_pos_site_id
 _symmetry_equiv_pos_as_xyz
  1  'x, y, z'
loop_
 _atom_site_type_symbol
 _atom_site_label
 _atom_site_symmetry_multiplicity
 _atom_site_fract_x
 _atom_site_fract_y
 _atom_site_fract_z
 _atom_site_occupancy
  Ho  Ho0  1  0.25000000  0.53017200  0.29521400  1.0
  Ho  Ho1  1  0.25000000  0.21532700  0.40421900  1.0
  Ho  Ho2  1  0.25000000  0.87806500  0.34345500  1.0
  Ho  Ho3  1  0.75000000  0.76421200  0.27468500  1.0
  Ho  Ho4  1  0.75000000  0.44394400  0.38413500  1.0
  Ho  Ho5  1  0.75000000  0.12219100  0.32399500  1.0
  Ho  Ho6  1  0.25000000  0.55431000  0.45212000  1.0
  Ho  Ho7  1  0.25000000  0.21551000  0.56852700  1.0
  Ho  Ho8  1  0.25000000  0.88819600  0.50808200  1.0
  Ho  Ho9  1  0.75000000  0.78449000  0.43147300  1.0
  Ho  Ho10  1  0.75000000  0.44569000  0.54788000  1.0
  Ho  Ho11  1  0.75000000  0.11180400  0.49191800  1.0
  Ho  Ho12  1  0.25000000  0.55605600  0.61586500  1.0
  Ho  Ho13  1  0.25000000  0.23578800  0.72531500  1.0
  Ho  Ho14  1  0.25000000  0.87780900  0.67600500  1.0
  Ho  Ho15  1  0.75000000  0.78467300  0.59578100  1.0
  Ho  Ho16  1  0.75000000  0.46982800  0.70478600  1.0
  Ho  Ho17  1  0.75000000  0.12193500  0.65654500  1.0
