# generated using pymatgen
data_Ho
_symmetry_space_group_name_H-M   'P 1'
_cell_length_a   3.60924537
_cell_length_b   6.65291608
_cell_length_c   31.25970492
_cell_angle_alpha   118.02550742
_cell_angle_beta   89.99998904
_cell_angle_gamma   74.26116865
_symmetry_Int_Tables_number   1
_chemical_formula_structural   Ho
_chemical_formula_sum   Ho12
_cell_volume   630.53286475
_cell_formula_units_Z   12
loop_
 _symmetry_equiv_pos_site_id
 _symmetry_equiv_pos_as_xyz
  1  'x, y, z'
loop_
 _atom_site_type_symbol
 _atom_site_label
 _atom_site_symmetry_multiplicity
 _atom_site_fract_x
 _atom_site_fract_y
 _atom_site_fract_z
 _atom_site_occupancy
  Ho  Ho0  1  0.12499100  0.75001800  0.26217000  1.0
  Ho  Ho1  1  0.62462300  0.75075400  0.35854100  1.0
  Ho  Ho2  1  0.86882100  0.26235800  0.24735100  1.0
  Ho  Ho3  1  0.37737000  0.24526000  0.34057300  1.0
  Ho  Ho4  1  0.12423600  0.75152800  0.45855100  1.0
  Ho  Ho5  1  0.62639500  0.74721000  0.55819300  1.0
  Ho  Ho6  1  0.87360500  0.25279000  0.44180700  1.0
  Ho  Ho7  1  0.37576400  0.24847200  0.54144900  1.0
  Ho  Ho8  1  0.12263000  0.75474000  0.65942700  1.0
  Ho  Ho9  1  0.63117900  0.73764200  0.75264900  1.0
  Ho  Ho10  1  0.87537700  0.24924600  0.64145900  1.0
  Ho  Ho11  1  0.37500900  0.24998200  0.73783000  1.0
