# generated using pymatgen
data_Ho
_symmetry_space_group_name_H-M   'P 1'
_cell_length_a   3.60948104
_cell_length_b   11.74215708
_cell_length_c   25.00887915
_cell_angle_alpha   105.44003171
_cell_angle_beta   89.99998969
_cell_angle_gamma   81.15873942
_symmetry_Int_Tables_number   1
_chemical_formula_structural   Ho
_chemical_formula_sum   Ho16
_cell_volume   1008.62755915
_cell_formula_units_Z   16
loop_
 _symmetry_equiv_pos_site_id
 _symmetry_equiv_pos_as_xyz
  1  'x, y, z'
loop_
 _atom_site_type_symbol
 _atom_site_label
 _atom_site_symmetry_multiplicity
 _atom_site_fract_x
 _atom_site_fract_y
 _atom_site_fract_z
 _atom_site_occupancy
  Ho  Ho0  1  0.31381300  0.37237400  0.34010300  1.0
  Ho  Ho1  1  0.06304900  0.87390200  0.39957600  1.0
  Ho  Ho2  1  0.81313600  0.37372800  0.46274800  1.0
  Ho  Ho3  1  0.55910700  0.88178600  0.28152800  1.0
  Ho  Ho4  1  0.93811500  0.12376900  0.35636000  1.0
  Ho  Ho5  1  0.69021900  0.61956200  0.40858600  1.0
  Ho  Ho6  1  0.43750300  0.12499400  0.47336300  1.0
  Ho  Ho7  1  0.18203400  0.63593200  0.29150700  1.0
  Ho  Ho8  1  0.30978100  0.38043800  0.59141400  1.0
  Ho  Ho9  1  0.06188500  0.87623100  0.64364000  1.0
  Ho  Ho10  1  0.81796600  0.36406800  0.70849300  1.0
  Ho  Ho11  1  0.56249700  0.87500600  0.52663700  1.0
  Ho  Ho12  1  0.93695100  0.12609800  0.60042400  1.0
  Ho  Ho13  1  0.68618700  0.62762600  0.65989700  1.0
  Ho  Ho14  1  0.44089300  0.11821400  0.71847200  1.0
  Ho  Ho15  1  0.18686400  0.62627200  0.53725200  1.0
