# generated using pymatgen
data_Mg
_symmetry_space_group_name_H-M   'P 1'
_cell_length_a   5.52452100
_cell_length_b   10.85953557
_cell_length_c   25.46246200
_cell_angle_alpha   98.42671622
_cell_angle_beta   90.00000000
_cell_angle_gamma   75.26417342
_symmetry_Int_Tables_number   1
_chemical_formula_structural   Mg
_chemical_formula_sum   Mg32
_cell_volume   1460.28506702
_cell_formula_units_Z   32
loop_
 _symmetry_equiv_pos_site_id
 _symmetry_equiv_pos_as_xyz
  1  'x, y, z'
loop_
 _atom_site_type_symbol
 _atom_site_label
 _atom_site_symmetry_multiplicity
 _atom_site_fract_x
 _atom_site_fract_y
 _atom_site_fract_z
 _atom_site_occupancy
  Mg  Mg0  1  0.84803400  0.62482700  0.09858000  1.0
  Mg  Mg1  1  0.10020600  0.12163900  0.06615300  1.0
  Mg  Mg2  1  0.59582600  0.12645700  0.01122500  1.0
  Mg  Mg3  1  0.34211000  0.62394700  0.04095200  1.0
  Mg  Mg4  1  0.39609900  0.87531500  0.11283600  1.0
  Mg  Mg5  1  0.65171200  0.37563500  0.08457700  1.0
  Mg  Mg6  1  0.15477800  0.37199000  0.02528400  1.0
  Mg  Mg7  1  0.89204700  0.87397200  0.05140600  1.0
  Mg  Mg8  1  0.85176000  0.62526900  0.22639600  1.0
  Mg  Mg9  1  0.10189100  0.12388100  0.19464700  1.0
  Mg  Mg10  1  0.60152500  0.12522300  0.13318600  1.0
  Mg  Mg11  1  0.35253800  0.62470000  0.16391900  1.0
  Mg  Mg12  1  0.39639000  0.87496300  0.24130500  1.0
  Mg  Mg13  1  0.64931200  0.37449600  0.21127400  1.0
  Mg  Mg14  1  0.14951400  0.37504700  0.14847500  1.0
  Mg  Mg15  1  0.89588800  0.87388600  0.17761000  1.0
  Mg  Mg16  1  0.85048600  0.62495300  0.35152500  1.0
  Mg  Mg17  1  0.10411200  0.12611400  0.32239000  1.0
  Mg  Mg18  1  0.60361000  0.12503700  0.25869500  1.0
  Mg  Mg19  1  0.35068800  0.62550400  0.28872600  1.0
  Mg  Mg20  1  0.39847500  0.87477700  0.36681400  1.0
  Mg  Mg21  1  0.64746200  0.37530000  0.33608100  1.0
  Mg  Mg22  1  0.14824000  0.37473100  0.27360400  1.0
  Mg  Mg23  1  0.89810900  0.87611900  0.30535300  1.0
  Mg  Mg24  1  0.84522200  0.62801000  0.47471500  1.0
  Mg  Mg25  1  0.10795300  0.12602800  0.44859400  1.0
  Mg  Mg26  1  0.60390100  0.12468500  0.38716300  1.0
  Mg  Mg27  1  0.34828800  0.62436500  0.41542300  1.0
  Mg  Mg28  1  0.40417400  0.87354300  0.48877500  1.0
  Mg  Mg29  1  0.65789000  0.37605300  0.45904800  1.0
  Mg  Mg30  1  0.15196600  0.37517300  0.40142000  1.0
  Mg  Mg31  1  0.89979400  0.87836100  0.43384700  1.0
