# generated using pymatgen
data_Ho
_symmetry_space_group_name_H-M   'P 1'
_cell_length_a   6.65143107
_cell_length_b   8.38385034
_cell_length_c   20.85665391
_cell_angle_alpha   86.17032959
_cell_angle_beta   87.86601636
_cell_angle_gamma   77.91087990
_symmetry_Int_Tables_number   1
_chemical_formula_structural   Ho
_chemical_formula_sum   Ho18
_cell_volume   1134.40808868
_cell_formula_units_Z   18
loop_
 _symmetry_equiv_pos_site_id
 _symmetry_equiv_pos_as_xyz
  1  'x, y, z'
loop_
 _atom_site_type_symbol
 _atom_site_label
 _atom_site_symmetry_multiplicity
 _atom_site_fract_x
 _atom_site_fract_y
 _atom_site_fract_z
 _atom_site_occupancy
  Ho  Ho0  1  0.96914200  0.63506000  0.66329300  1.0
  Ho  Ho1  1  0.33556800  0.30475400  0.60004400  1.0
  Ho  Ho2  1  0.56091600  0.96750200  0.70978100  1.0
  Ho  Ho3  1  0.04052200  0.05009300  0.67030700  1.0
  Ho  Ho4  1  0.44602400  0.70073200  0.61025500  1.0
  Ho  Ho5  1  0.60015700  0.38323000  0.71695300  1.0
  Ho  Ho6  1  0.11438000  0.64026100  0.49404200  1.0
  Ho  Ho7  1  0.51128800  0.29907400  0.43761800  1.0
  Ho  Ho8  1  0.73723100  0.97126000  0.55342800  1.0
  Ho  Ho9  1  0.21895100  0.02640300  0.50596400  1.0
  Ho  Ho10  1  0.59609800  0.69538500  0.44656700  1.0
  Ho  Ho11  1  0.82203700  0.36758700  0.56238300  1.0
  Ho  Ho12  1  0.29281400  0.61657600  0.32968700  1.0
  Ho  Ho13  1  0.73317000  0.28345600  0.28304800  1.0
  Ho  Ho14  1  0.88733900  0.96592900  0.38974700  1.0
  Ho  Ho15  1  0.36418200  0.03158700  0.33671200  1.0
  Ho  Ho16  1  0.77241500  0.69916700  0.29021800  1.0
  Ho  Ho17  1  0.99776900  0.36194300  0.39995500  1.0
