# generated using pymatgen
data_Ho
_symmetry_space_group_name_H-M   'P 1'
_cell_length_a   3.61020100
_cell_length_b   3.61020094
_cell_length_c   44.68500900
_cell_angle_alpha   90.00000000
_cell_angle_beta   90.00000000
_cell_angle_gamma   119.99999137
_symmetry_Int_Tables_number   1
_chemical_formula_structural   Ho
_chemical_formula_sum   Ho8
_cell_volume   504.37700251
_cell_formula_units_Z   8
loop_
 _symmetry_equiv_pos_site_id
 _symmetry_equiv_pos_as_xyz
  1  'x, y, z'
loop_
 _atom_site_type_symbol
 _atom_site_label
 _atom_site_symmetry_multiplicity
 _atom_site_fract_x
 _atom_site_fract_y
 _atom_site_fract_z
 _atom_site_occupancy
  Ho  Ho0  1  0.33333333  0.66666667  0.34300000  1.0
  Ho  Ho1  1  0.66666667  0.33333333  0.28185100  1.0
  Ho  Ho2  1  0.33333333  0.66666667  0.46888000  1.0
  Ho  Ho3  1  0.66666667  0.33333333  0.40625700  1.0
  Ho  Ho4  1  0.33333333  0.66666667  0.59374300  1.0
  Ho  Ho5  1  0.66666667  0.33333333  0.53112000  1.0
  Ho  Ho6  1  0.33333333  0.66666667  0.71814900  1.0
  Ho  Ho7  1  0.66666667  0.33333333  0.65700000  1.0
