# generated using pymatgen
data_Ag
_symmetry_space_group_name_H-M   'P 1'
_cell_length_a   5.09678400
_cell_length_b   7.44056555
_cell_length_c   23.38393000
_cell_angle_alpha   90.00000000
_cell_angle_beta   90.00000000
_cell_angle_gamma   103.20037029
_symmetry_Int_Tables_number   1
_chemical_formula_structural   Ag
_chemical_formula_sum   Ag24
_cell_volume   863.35652193
_cell_formula_units_Z   24
loop_
 _symmetry_equiv_pos_site_id
 _symmetry_equiv_pos_as_xyz
  1  'x, y, z'
loop_
 _atom_site_type_symbol
 _atom_site_label
 _atom_site_symmetry_multiplicity
 _atom_site_fract_x
 _atom_site_fract_y
 _atom_site_fract_z
 _atom_site_occupancy
  Ag  Ag0  1  0.50000000  0.00000000  0.28361200  1.0
  Ag  Ag1  1  0.00000000  0.00000000  0.34046500  1.0
  Ag  Ag2  1  0.78061500  0.33367200  0.34065200  1.0
  Ag  Ag3  1  0.28371900  0.33270900  0.28379900  1.0
  Ag  Ag4  1  0.71628100  0.66729100  0.28379900  1.0
  Ag  Ag5  1  0.21938500  0.66632800  0.34065200  1.0
  Ag  Ag6  1  0.50000000  0.00000000  0.40632700  1.0
  Ag  Ag7  1  0.00000000  0.00000000  0.46811300  1.0
  Ag  Ag8  1  0.77515100  0.33306400  0.46806500  1.0
  Ag  Ag9  1  0.27387100  0.33296900  0.40655200  1.0
  Ag  Ag10  1  0.72612900  0.66703100  0.40655200  1.0
  Ag  Ag11  1  0.22484900  0.66693600  0.46806500  1.0
  Ag  Ag12  1  0.50000000  0.00000000  0.53188700  1.0
  Ag  Ag13  1  0.00000000  0.00000000  0.59367300  1.0
  Ag  Ag14  1  0.77387100  0.33296900  0.59344800  1.0
  Ag  Ag15  1  0.27515100  0.33306400  0.53193500  1.0
  Ag  Ag16  1  0.72484900  0.66693600  0.53193500  1.0
  Ag  Ag17  1  0.22612900  0.66703100  0.59344800  1.0
  Ag  Ag18  1  0.50000000  0.00000000  0.65953500  1.0
  Ag  Ag19  1  0.00000000  0.00000000  0.71638800  1.0
  Ag  Ag20  1  0.78371900  0.33270900  0.71620100  1.0
  Ag  Ag21  1  0.28061500  0.33367200  0.65934800  1.0
  Ag  Ag22  1  0.71938500  0.66632800  0.65934800  1.0
  Ag  Ag23  1  0.21628100  0.66729100  0.71620100  1.0
