# generated using pymatgen
data_Ag
_symmetry_space_group_name_H-M   'P 1'
_cell_length_a   5.10338514
_cell_length_b   21.90563047
_cell_length_c   23.36575999
_cell_angle_alpha   93.80052709
_cell_angle_beta   89.97277512
_cell_angle_gamma   83.31025715
_symmetry_Int_Tables_number   1
_chemical_formula_structural   Ag
_chemical_formula_sum   Ag72
_cell_volume   2588.54687495
_cell_formula_units_Z   72
loop_
 _symmetry_equiv_pos_site_id
 _symmetry_equiv_pos_as_xyz
  1  'x, y, z'
loop_
 _atom_site_type_symbol
 _atom_site_label
 _atom_site_symmetry_multiplicity
 _atom_site_fract_x
 _atom_site_fract_y
 _atom_site_fract_z
 _atom_site_occupancy
  Ag  Ag0  1  0.99860600  0.00024700  0.36094100  1.0
  Ag  Ag1  1  0.50021300  0.99993100  0.30455600  1.0
  Ag  Ag2  1  0.77493700  0.11146200  0.30945600  1.0
  Ag  Ag3  1  0.27760500  0.11094700  0.36899300  1.0
  Ag  Ag4  1  0.89087500  0.22375400  0.25797200  1.0
  Ag  Ag5  1  0.39120600  0.22122100  0.31364500  1.0
  Ag  Ag6  1  0.66549600  0.33397700  0.31993600  1.0
  Ag  Ag7  1  0.16829400  0.33307000  0.26272500  1.0
  Ag  Ag8  1  0.94095300  0.44461100  0.32674200  1.0
  Ag  Ag9  1  0.43670400  0.44421600  0.26986700  1.0
  Ag  Ag10  1  0.55928700  0.55538000  0.33369800  1.0
  Ag  Ag11  1  0.06299700  0.55580800  0.27683900  1.0
  Ag  Ag12  1  0.83364100  0.66666667  0.34044200  1.0
  Ag  Ag13  1  0.33425100  0.66666667  0.28363900  1.0
  Ag  Ag14  1  0.60375300  0.77765600  0.29091600  1.0
  Ag  Ag15  1  0.10733100  0.77803500  0.34746400  1.0
  Ag  Ag16  1  0.72617400  0.88863300  0.35434600  1.0
  Ag  Ag17  1  0.22956100  0.88925000  0.29760500  1.0
  Ag  Ag18  1  0.00013300  0.99993300  0.48893200  1.0
  Ag  Ag19  1  0.50013600  0.99976700  0.42720300  1.0
  Ag  Ag20  1  0.78042700  0.11034000  0.43379700  1.0
  Ag  Ag21  1  0.28000800  0.11095700  0.49654500  1.0
  Ag  Ag22  1  0.88917700  0.22190500  0.37853300  1.0
  Ag  Ag23  1  0.38731300  0.22191700  0.44042900  1.0
  Ag  Ag24  1  0.66691900  0.33287200  0.44717100  1.0
  Ag  Ag25  1  0.16578700  0.33347100  0.38553900  1.0
  Ag  Ag26  1  0.94687200  0.44435300  0.45432900  1.0
  Ag  Ag27  1  0.44864000  0.44419200  0.39265500  1.0
  Ag  Ag28  1  0.55325600  0.55556800  0.46121300  1.0
  Ag  Ag29  1  0.05189500  0.55568100  0.39950000  1.0
  Ag  Ag30  1  0.83306800  0.66666667  0.46831500  1.0
  Ag  Ag31  1  0.33291300  0.66666667  0.40622700  1.0
  Ag  Ag32  1  0.61496600  0.77771400  0.41348700  1.0
  Ag  Ag33  1  0.11343200  0.77762300  0.47507000  1.0
  Ag  Ag34  1  0.71993500  0.88915800  0.48206300  1.0
  Ag  Ag35  1  0.21841800  0.88900500  0.42036200  1.0
  Ag  Ag36  1  0.00088200  0.99985700  0.61446100  1.0
  Ag  Ag37  1  0.49974800  0.00045500  0.55282900  1.0
  Ag  Ag38  1  0.77935700  0.11140600  0.55957100  1.0
  Ag  Ag39  1  0.27749200  0.11141800  0.62146700  1.0
  Ag  Ag40  1  0.88666500  0.22236600  0.50345600  1.0
  Ag  Ag41  1  0.38624900  0.22298300  0.56620200  1.0
  Ag  Ag42  1  0.66653100  0.33356000  0.57279800  1.0
  Ag  Ag43  1  0.16653200  0.33339500  0.51107200  1.0
  Ag  Ag44  1  0.94823800  0.44433100  0.57963800  1.0
  Ag  Ag45  1  0.44672900  0.44417700  0.51794000  1.0
  Ag  Ag46  1  0.55170500  0.55562700  0.58650900  1.0
  Ag  Ag47  1  0.05323500  0.55571900  0.52492800  1.0
  Ag  Ag48  1  0.83375200  0.66666667  0.59376500  1.0
  Ag  Ag49  1  0.33360000  0.66666667  0.53167800  1.0
  Ag  Ag50  1  0.61341100  0.77777400  0.53878300  1.0
  Ag  Ag51  1  0.11476800  0.77766000  0.60049400  1.0
  Ag  Ag52  1  0.71802500  0.88914400  0.60734500  1.0
  Ag  Ag53  1  0.21979100  0.88898300  0.54567000  1.0
  Ag  Ag54  1  0.99837000  0.00026100  0.73727900  1.0
  Ag  Ag55  1  0.50117100  0.99935200  0.68006400  1.0
  Ag  Ag56  1  0.77545900  0.11210600  0.68635600  1.0
  Ag  Ag57  1  0.27578900  0.10957600  0.74203000  1.0
  Ag  Ag58  1  0.88907400  0.22237700  0.63101000  1.0
  Ag  Ag59  1  0.39173800  0.22186500  0.69054700  1.0
  Ag  Ag60  1  0.66645400  0.33339800  0.69545100  1.0
  Ag  Ag61  1  0.16805900  0.33308100  0.63906500  1.0
  Ag  Ag62  1  0.93709800  0.44408400  0.70240100  1.0
  Ag  Ag63  1  0.44047800  0.44470200  0.64565900  1.0
  Ag  Ag64  1  0.56291400  0.55568200  0.70908600  1.0
  Ag  Ag65  1  0.05934300  0.55530400  0.65253600  1.0
  Ag  Ag66  1  0.83241900  0.66666667  0.71635700  1.0
  Ag  Ag67  1  0.33302900  0.66666667  0.65955400  1.0
  Ag  Ag68  1  0.60737500  0.77796100  0.66629800  1.0
  Ag  Ag69  1  0.10367300  0.77752800  0.72315900  1.0
  Ag  Ag70  1  0.72995800  0.88911700  0.73013500  1.0
  Ag  Ag71  1  0.22571000  0.88872500  0.67325700  1.0
