# generated using pymatgen
data_Hg
_symmetry_space_group_name_H-M   'P 1'
_cell_length_a   3.59522933
_cell_length_b   9.11647187
_cell_length_c   39.94983300
_cell_angle_alpha   72.27343685
_cell_angle_beta   74.33687386
_cell_angle_gamma   66.77354055
_symmetry_Int_Tables_number   1
_chemical_formula_structural   Hg
_chemical_formula_sum   Hg18
_cell_volume   1129.20302741
_cell_formula_units_Z   18
loop_
 _symmetry_equiv_pos_site_id
 _symmetry_equiv_pos_as_xyz
  1  'x, y, z'
loop_
 _atom_site_type_symbol
 _atom_site_label
 _atom_site_symmetry_multiplicity
 _atom_site_fract_x
 _atom_site_fract_y
 _atom_site_fract_z
 _atom_site_occupancy
  Hg  Hg0  1  0.05859100  0.63422700  0.35239400  1.0
  Hg  Hg1  1  0.38183500  0.98237500  0.29526300  1.0
  Hg  Hg2  1  0.72033200  0.30550400  0.40805400  1.0
  Hg  Hg3  1  0.27838300  0.68900600  0.26087000  1.0
  Hg  Hg4  1  0.60796300  0.03206500  0.36999000  1.0
  Hg  Hg5  1  0.95468800  0.35861500  0.31223200  1.0
  Hg  Hg6  1  0.05649200  0.63930500  0.51806800  1.0
  Hg  Hg7  1  0.38911500  0.97293400  0.46265000  1.0
  Hg  Hg8  1  0.72201600  0.30619900  0.57392900  1.0
  Hg  Hg9  1  0.27798400  0.69380100  0.42607100  1.0
  Hg  Hg10  1  0.61088500  0.02706600  0.53735000  1.0
  Hg  Hg11  1  0.94350800  0.36069500  0.48193200  1.0
  Hg  Hg12  1  0.04531200  0.64138500  0.68776800  1.0
  Hg  Hg13  1  0.39203700  0.96793500  0.63001000  1.0
  Hg  Hg14  1  0.72161700  0.31099400  0.73913000  1.0
  Hg  Hg15  1  0.27966800  0.69449600  0.59194600  1.0
  Hg  Hg16  1  0.61816500  0.01762500  0.70473700  1.0
  Hg  Hg17  1  0.94140900  0.36577300  0.64760600  1.0
