# generated using pymatgen
data_Hg
_symmetry_space_group_name_H-M   'P 1'
_cell_length_a   5.60422700
_cell_length_b   9.51208181
_cell_length_c   35.95229000
_cell_angle_alpha   79.10660838
_cell_angle_beta   90.00000000
_cell_angle_gamma   90.00000000
_symmetry_Int_Tables_number   1
_chemical_formula_structural   Hg
_chemical_formula_sum   Hg30
_cell_volume   1882.00478813
_cell_formula_units_Z   30
loop_
 _symmetry_equiv_pos_site_id
 _symmetry_equiv_pos_as_xyz
  1  'x, y, z'
loop_
 _atom_site_type_symbol
 _atom_site_label
 _atom_site_symmetry_multiplicity
 _atom_site_fract_x
 _atom_site_fract_y
 _atom_site_fract_z
 _atom_site_occupancy
  Hg  Hg0  1  0.75000000  0.55326700  0.27261200  1.0
  Hg  Hg1  1  0.75000000  0.22360200  0.33709000  1.0
  Hg  Hg2  1  0.75000000  0.89317700  0.30412600  1.0
  Hg  Hg3  1  0.25000000  0.77823500  0.26151600  1.0
  Hg  Hg4  1  0.25000000  0.43946100  0.32599100  1.0
  Hg  Hg5  1  0.25000000  0.11422600  0.29431700  1.0
  Hg  Hg6  1  0.75000000  0.55277000  0.37279700  1.0
  Hg  Hg7  1  0.75000000  0.22163900  0.43926300  1.0
  Hg  Hg8  1  0.75000000  0.88795300  0.40564300  1.0
  Hg  Hg9  1  0.25000000  0.77813600  0.36096800  1.0
  Hg  Hg10  1  0.25000000  0.44522000  0.42788000  1.0
  Hg  Hg11  1  0.25000000  0.11227800  0.39477400  1.0
  Hg  Hg12  1  0.75000000  0.55539600  0.47241600  1.0
  Hg  Hg13  1  0.75000000  0.22118200  0.53907000  1.0
  Hg  Hg14  1  0.75000000  0.88885700  0.50545200  1.0
  Hg  Hg15  1  0.25000000  0.77881800  0.46093000  1.0
  Hg  Hg16  1  0.25000000  0.44460400  0.52758400  1.0
  Hg  Hg17  1  0.25000000  0.11114300  0.49454800  1.0
  Hg  Hg18  1  0.75000000  0.55478000  0.57212000  1.0
  Hg  Hg19  1  0.75000000  0.22186400  0.63903200  1.0
  Hg  Hg20  1  0.75000000  0.88772200  0.60522600  1.0
  Hg  Hg21  1  0.25000000  0.77836100  0.56073700  1.0
  Hg  Hg22  1  0.25000000  0.44723000  0.62720300  1.0
  Hg  Hg23  1  0.25000000  0.11204700  0.59435700  1.0
  Hg  Hg24  1  0.75000000  0.56053900  0.67400900  1.0
  Hg  Hg25  1  0.75000000  0.22176500  0.73848400  1.0
  Hg  Hg26  1  0.75000000  0.88577400  0.70568300  1.0
  Hg  Hg27  1  0.25000000  0.77639800  0.66291000  1.0
  Hg  Hg28  1  0.25000000  0.44673300  0.72738800  1.0
  Hg  Hg29  1  0.25000000  0.10682300  0.69587400  1.0
