# generated using pymatgen
data_Mg
_symmetry_space_group_name_H-M   'P 1'
_cell_length_a   3.18518464
_cell_length_b   6.07995214
_cell_length_c   33.17094672
_cell_angle_alpha   117.04237582
_cell_angle_beta   90.00001193
_cell_angle_gamma   74.81469099
_symmetry_Int_Tables_number   1
_chemical_formula_structural   Mg
_chemical_formula_sum   Mg12
_cell_volume   546.84713155
_cell_formula_units_Z   12
loop_
 _symmetry_equiv_pos_site_id
 _symmetry_equiv_pos_as_xyz
  1  'x, y, z'
loop_
 _atom_site_type_symbol
 _atom_site_label
 _atom_site_symmetry_multiplicity
 _atom_site_fract_x
 _atom_site_fract_y
 _atom_site_fract_z
 _atom_site_occupancy
  Mg  Mg0  1  0.38034800  0.23930400  0.04536800  1.0
  Mg  Mg1  1  0.87696100  0.24607700  0.13082100  1.0
  Mg  Mg2  1  0.62879300  0.74241400  0.11585800  1.0
  Mg  Mg3  1  0.12690700  0.74618600  0.03254100  1.0
  Mg  Mg4  1  0.37555600  0.24888700  0.21494500  1.0
  Mg  Mg5  1  0.87409500  0.25180900  0.29937000  1.0
  Mg  Mg6  1  0.62444400  0.75111300  0.28505500  1.0
  Mg  Mg7  1  0.12590500  0.74819100  0.20063000  1.0
  Mg  Mg8  1  0.37120700  0.25758600  0.38414200  1.0
  Mg  Mg9  1  0.87309300  0.25381400  0.46745900  1.0
  Mg  Mg10  1  0.61965200  0.76069600  0.45463200  1.0
  Mg  Mg11  1  0.12303900  0.75392300  0.36917900  1.0
