# generated using pymatgen
data_Hg
_symmetry_space_group_name_H-M   'P 1'
_cell_length_a   9.51208181
_cell_length_b   6.65830551
_cell_length_c   35.95229000
_cell_angle_alpha   105.66311856
_cell_angle_beta   79.10660838
_cell_angle_gamma   65.90990459
_symmetry_Int_Tables_number   1
_chemical_formula_structural   Hg
_chemical_formula_sum   Hg30
_cell_volume   1882.00478864
_cell_formula_units_Z   30
loop_
 _symmetry_equiv_pos_site_id
 _symmetry_equiv_pos_as_xyz
  1  'x, y, z'
loop_
 _atom_site_type_symbol
 _atom_site_label
 _atom_site_symmetry_multiplicity
 _atom_site_fract_x
 _atom_site_fract_y
 _atom_site_fract_z
 _atom_site_occupancy
  Hg  Hg0  1  0.03412900  0.24337400  0.29217700  1.0
  Hg  Hg1  1  0.36278500  0.24337400  0.32332000  1.0
  Hg  Hg2  1  0.68874600  0.25270900  0.26391300  1.0
  Hg  Hg3  1  0.63455500  0.76277900  0.33704400  1.0
  Hg  Hg4  1  0.97505900  0.74442800  0.27304100  1.0
  Hg  Hg5  1  0.30826900  0.74391800  0.30405900  1.0
  Hg  Hg6  1  0.03207200  0.24956700  0.39389400  1.0
  Hg  Hg7  1  0.36281100  0.25010300  0.42739900  1.0
  Hg  Hg8  1  0.69114400  0.26144500  0.36186100  1.0
  Hg  Hg9  1  0.63655400  0.74861900  0.43894900  1.0
  Hg  Hg10  1  0.96961700  0.75122000  0.37284100  1.0
  Hg  Hg11  1  0.30282700  0.75208000  0.40641500  1.0
  Hg  Hg12  1  0.02967400  0.25043600  0.49416200  1.0
  Hg  Hg13  1  0.36279800  0.24989600  0.52726500  1.0
  Hg  Hg14  1  0.69634800  0.24928900  0.46106900  1.0
  Hg  Hg15  1  0.63698600  0.75071100  0.53893100  1.0
  Hg  Hg16  1  0.97053500  0.75010400  0.47273500  1.0
  Hg  Hg17  1  0.30365900  0.74956400  0.50583800  1.0
  Hg  Hg18  1  0.03050600  0.24792000  0.59358500  1.0
  Hg  Hg19  1  0.36371600  0.24878000  0.62715900  1.0
  Hg  Hg20  1  0.69678000  0.25138100  0.56105100  1.0
  Hg  Hg21  1  0.64219000  0.73855500  0.63813900  1.0
  Hg  Hg22  1  0.97052200  0.74989700  0.57260100  1.0
  Hg  Hg23  1  0.30126100  0.75043300  0.60610600  1.0
  Hg  Hg24  1  0.02506400  0.25608200  0.69594100  1.0
  Hg  Hg25  1  0.35827400  0.25557200  0.72695900  1.0
  Hg  Hg26  1  0.69877900  0.23722100  0.66295600  1.0
  Hg  Hg27  1  0.64458800  0.74729100  0.73608700  1.0
  Hg  Hg28  1  0.97054800  0.75662600  0.67668000  1.0
  Hg  Hg29  1  0.29920400  0.75662600  0.70782300  1.0
