# generated using pymatgen
data_Hg
_symmetry_space_group_name_H-M   'P 1'
_cell_length_a   6.65830544
_cell_length_b   8.37761201
_cell_length_c   34.75116500
_cell_angle_alpha   92.36602804
_cell_angle_beta   95.03204307
_cell_angle_gamma   102.44287525
_symmetry_Int_Tables_number   1
_chemical_formula_structural   Hg
_chemical_formula_sum   Hg30
_cell_volume   1882.00487116
_cell_formula_units_Z   30
loop_
 _symmetry_equiv_pos_site_id
 _symmetry_equiv_pos_as_xyz
  1  'x, y, z'
loop_
 _atom_site_type_symbol
 _atom_site_label
 _atom_site_symmetry_multiplicity
 _atom_site_fract_x
 _atom_site_fract_y
 _atom_site_fract_z
 _atom_site_occupancy
  Hg  Hg0  1  0.78532900  0.80569400  0.27132300  1.0
  Hg  Hg1  1  0.41337600  0.47083000  0.30047000  1.0
  Hg  Hg2  1  0.06805800  0.13995900  0.33450600  1.0
  Hg  Hg3  1  0.30998900  0.86276200  0.29420300  1.0
  Hg  Hg4  1  0.95283200  0.52356300  0.32732900  1.0
  Hg  Hg5  1  0.67573200  0.19448800  0.26573700  1.0
  Hg  Hg6  1  0.68600500  0.80251500  0.36959600  1.0
  Hg  Hg7  1  0.31551600  0.47237400  0.40287400  1.0
  Hg  Hg8  1  0.95095700  0.13735000  0.43565900  1.0
  Hg  Hg9  1  0.21439200  0.86342600  0.39728900  1.0
  Hg  Hg10  1  0.84721400  0.52959400  0.43053400  1.0
  Hg  Hg11  1  0.58911100  0.19590800  0.36457800  1.0
  Hg  Hg12  1  0.58365400  0.80472200  0.46931000  1.0
  Hg  Hg13  1  0.21841200  0.47156000  0.50243500  1.0
  Hg  Hg14  1  0.85227200  0.13767000  0.53556200  1.0
  Hg  Hg15  1  0.11492100  0.86177300  0.49756500  1.0
  Hg  Hg16  1  0.74967900  0.52861100  0.53069000  1.0
  Hg  Hg17  1  0.48106200  0.19566400  0.46443800  1.0
  Hg  Hg18  1  0.48611900  0.80373900  0.56946600  1.0
  Hg  Hg19  1  0.11894100  0.46990700  0.60271100  1.0
  Hg  Hg20  1  0.74422300  0.13742600  0.63542200  1.0
  Hg  Hg21  1  0.01781700  0.86095900  0.59712600  1.0
  Hg  Hg22  1  0.64732800  0.53081800  0.63040400  1.0
  Hg  Hg23  1  0.38237700  0.19598400  0.56434100  1.0
  Hg  Hg24  1  0.38050100  0.80977000  0.67267100  1.0
  Hg  Hg25  1  0.02334400  0.47057100  0.70579700  1.0
  Hg  Hg26  1  0.65760200  0.13884600  0.73426300  1.0
  Hg  Hg27  1  0.91995700  0.86250300  0.69953000  1.0
  Hg  Hg28  1  0.54800400  0.52763900  0.72867700  1.0
  Hg  Hg29  1  0.26527600  0.19337500  0.66549400  1.0
