# generated using pymatgen
data_Hg
_symmetry_space_group_name_H-M   'P 1'
_cell_length_a   3.59522906
_cell_length_b   5.60422700
_cell_length_c   35.95229000
_cell_angle_alpha   90.00000000
_cell_angle_beta   60.00000972
_cell_angle_gamma   90.00000000
_symmetry_Int_Tables_number   1
_chemical_formula_structural   Hg
_chemical_formula_sum   Hg10
_cell_volume   627.33499691
_cell_formula_units_Z   10
loop_
 _symmetry_equiv_pos_site_id
 _symmetry_equiv_pos_as_xyz
  1  'x, y, z'
loop_
 _atom_site_type_symbol
 _atom_site_label
 _atom_site_symmetry_multiplicity
 _atom_site_fract_x
 _atom_site_fract_y
 _atom_site_fract_z
 _atom_site_occupancy
  Hg  Hg0  1  0.33333333  0.25000000  0.28333300  1.0
  Hg  Hg1  1  0.66666667  0.75000000  0.31666700  1.0
  Hg  Hg2  1  0.33333333  0.25000000  0.38333300  1.0
  Hg  Hg3  1  0.66666667  0.75000000  0.41666700  1.0
  Hg  Hg4  1  0.33333333  0.25000000  0.48333300  1.0
  Hg  Hg5  1  0.66666667  0.75000000  0.51666700  1.0
  Hg  Hg6  1  0.33333333  0.25000000  0.58333300  1.0
  Hg  Hg7  1  0.66666667  0.75000000  0.61666700  1.0
  Hg  Hg8  1  0.33333333  0.25000000  0.68333300  1.0
  Hg  Hg9  1  0.66666667  0.75000000  0.71666700  1.0
