# generated using pymatgen
data_Hg
_symmetry_space_group_name_H-M   'P 1'
_cell_length_a   3.59522900
_cell_length_b   3.59522956
_cell_length_c   33.62536200
_cell_angle_alpha   90.00000000
_cell_angle_beta   90.00000000
_cell_angle_gamma   120.00000408
_symmetry_Int_Tables_number   1
_chemical_formula_structural   Hg
_chemical_formula_sum   Hg6
_cell_volume   376.40099815
_cell_formula_units_Z   6
loop_
 _symmetry_equiv_pos_site_id
 _symmetry_equiv_pos_as_xyz
  1  'x, y, z'
loop_
 _atom_site_type_symbol
 _atom_site_label
 _atom_site_symmetry_multiplicity
 _atom_site_fract_x
 _atom_site_fract_y
 _atom_site_fract_z
 _atom_site_occupancy
  Hg  Hg0  1  0.33333333  0.66666667  0.29146000  1.0
  Hg  Hg1  1  0.66666667  0.33333333  0.37534300  1.0
  Hg  Hg2  1  0.33333333  0.66666667  0.45822300  1.0
  Hg  Hg3  1  0.66666667  0.33333333  0.54177700  1.0
  Hg  Hg4  1  0.33333333  0.66666667  0.62465700  1.0
  Hg  Hg5  1  0.66666667  0.33333333  0.70854000  1.0
