# generated using pymatgen
data_Hg
_symmetry_space_group_name_H-M   'P 1'
_cell_length_a   5.60422700
_cell_length_b   6.22712000
_cell_length_c   35.95229000
_cell_angle_alpha   90.00000000
_cell_angle_beta   90.00000000
_cell_angle_gamma   90.00000000
_symmetry_Int_Tables_number   1
_chemical_formula_structural   Hg
_chemical_formula_sum   Hg20
_cell_volume   1254.66999247
_cell_formula_units_Z   20
loop_
 _symmetry_equiv_pos_site_id
 _symmetry_equiv_pos_as_xyz
  1  'x, y, z'
loop_
 _atom_site_type_symbol
 _atom_site_label
 _atom_site_symmetry_multiplicity
 _atom_site_fract_x
 _atom_site_fract_y
 _atom_site_fract_z
 _atom_site_occupancy
  Hg  Hg0  1  0.75000000  0.33464800  0.32427400  1.0
  Hg  Hg1  1  0.75000000  0.83251000  0.27509600  1.0
  Hg  Hg2  1  0.25000000  0.66535200  0.32427400  1.0
  Hg  Hg3  1  0.25000000  0.16749000  0.27509600  1.0
  Hg  Hg4  1  0.75000000  0.33238800  0.42503100  1.0
  Hg  Hg5  1  0.75000000  0.83280400  0.37512800  1.0
  Hg  Hg6  1  0.25000000  0.66761200  0.42503100  1.0
  Hg  Hg7  1  0.25000000  0.16719600  0.37512800  1.0
  Hg  Hg8  1  0.75000000  0.33317000  0.52494300  1.0
  Hg  Hg9  1  0.75000000  0.83317000  0.47505700  1.0
  Hg  Hg10  1  0.25000000  0.66683000  0.52494300  1.0
  Hg  Hg11  1  0.25000000  0.16683000  0.47505700  1.0
  Hg  Hg12  1  0.75000000  0.33280400  0.62487200  1.0
  Hg  Hg13  1  0.75000000  0.83238800  0.57496900  1.0
  Hg  Hg14  1  0.25000000  0.66719600  0.62487200  1.0
  Hg  Hg15  1  0.25000000  0.16761200  0.57496900  1.0
  Hg  Hg16  1  0.75000000  0.33251000  0.72490400  1.0
  Hg  Hg17  1  0.75000000  0.83464800  0.67572600  1.0
  Hg  Hg18  1  0.25000000  0.66749000  0.72490400  1.0
  Hg  Hg19  1  0.25000000  0.16535200  0.67572600  1.0
