# generated using pymatgen
data_Hg
_symmetry_space_group_name_H-M   'P 1'
_cell_length_a   6.22712000
_cell_length_b   11.77094359
_cell_length_c   35.95229000
_cell_angle_alpha   98.78436839
_cell_angle_beta   90.00000000
_cell_angle_gamma   74.66202118
_symmetry_Int_Tables_number   1
_chemical_formula_structural   Hg
_chemical_formula_sum   Hg40
_cell_volume   2509.33998461
_cell_formula_units_Z   40
loop_
 _symmetry_equiv_pos_site_id
 _symmetry_equiv_pos_as_xyz
  1  'x, y, z'
loop_
 _atom_site_type_symbol
 _atom_site_label
 _atom_site_symmetry_multiplicity
 _atom_site_fract_x
 _atom_site_fract_y
 _atom_site_fract_z
 _atom_site_occupancy
  Hg  Hg0  1  0.84933900  0.62958500  0.32897300  1.0
  Hg  Hg1  1  0.10703700  0.11704600  0.30239400  1.0
  Hg  Hg2  1  0.60310700  0.12354800  0.25778400  1.0
  Hg  Hg3  1  0.35358900  0.62761800  0.28178700  1.0
  Hg  Hg4  1  0.39621000  0.87676400  0.34202300  1.0
  Hg  Hg5  1  0.64849400  0.38020200  0.31696000  1.0
  Hg  Hg6  1  0.14446800  0.37444900  0.26982000  1.0
  Hg  Hg7  1  0.89590400  0.87135300  0.29276400  1.0
  Hg  Hg8  1  0.85737600  0.62497400  0.43133500  1.0
  Hg  Hg9  1  0.10801800  0.12351900  0.40579900  1.0
  Hg  Hg10  1  0.60615100  0.12610500  0.35557400  1.0
  Hg  Hg11  1  0.35794900  0.62558600  0.38190300  1.0
  Hg  Hg12  1  0.39368700  0.87416200  0.44395000  1.0
  Hg  Hg13  1  0.64200800  0.37510400  0.41852400  1.0
  Hg  Hg14  1  0.14152700  0.37843200  0.36930200  1.0
  Hg  Hg15  1  0.89431200  0.87313700  0.39408000  1.0
  Hg  Hg16  1  0.85553000  0.62519900  0.53112600  1.0
  Hg  Hg17  1  0.10544400  0.12509500  0.50609400  1.0
  Hg  Hg18  1  0.60697100  0.12391200  0.45600800  1.0
  Hg  Hg19  1  0.35517700  0.62515000  0.48167900  1.0
  Hg  Hg20  1  0.39302900  0.87608800  0.54399200  1.0
  Hg  Hg21  1  0.64482300  0.37485000  0.51832100  1.0
  Hg  Hg22  1  0.14447000  0.37480100  0.46887400  1.0
  Hg  Hg23  1  0.89455600  0.87490500  0.49390600  1.0
  Hg  Hg24  1  0.85847300  0.62156800  0.63069800  1.0
  Hg  Hg25  1  0.10568800  0.12686300  0.60592000  1.0
  Hg  Hg26  1  0.60631300  0.12583800  0.55605000  1.0
  Hg  Hg27  1  0.35799200  0.62489600  0.58147600  1.0
  Hg  Hg28  1  0.39384900  0.87389500  0.64442600  1.0
  Hg  Hg29  1  0.64205100  0.37441400  0.61809700  1.0
  Hg  Hg30  1  0.14262400  0.37502600  0.56866500  1.0
  Hg  Hg31  1  0.89198200  0.87648100  0.59420100  1.0
  Hg  Hg32  1  0.85553200  0.62555100  0.73018000  1.0
  Hg  Hg33  1  0.10409600  0.12864700  0.70723600  1.0
  Hg  Hg34  1  0.60379000  0.12323600  0.65797700  1.0
  Hg  Hg35  1  0.35150600  0.61979800  0.68304000  1.0
  Hg  Hg36  1  0.39689300  0.87645200  0.74221600  1.0
  Hg  Hg37  1  0.64641100  0.37238200  0.71821300  1.0
  Hg  Hg38  1  0.15066100  0.37041500  0.67102700  1.0
  Hg  Hg39  1  0.89296300  0.88295400  0.69760600  1.0
