# generated using pymatgen
data_Hg
_symmetry_space_group_name_H-M   'P 1'
_cell_length_a   3.59522933
_cell_length_b   6.65830502
_cell_length_c   39.94983300
_cell_angle_alpha   55.75988805
_cell_angle_beta   74.33687386
_cell_angle_gamma   74.33687662
_symmetry_Int_Tables_number   1
_chemical_formula_structural   Hg
_chemical_formula_sum   Hg12
_cell_volume   752.80192571
_cell_formula_units_Z   12
loop_
 _symmetry_equiv_pos_site_id
 _symmetry_equiv_pos_as_xyz
  1  'x, y, z'
loop_
 _atom_site_type_symbol
 _atom_site_label
 _atom_site_symmetry_multiplicity
 _atom_site_fract_x
 _atom_site_fract_y
 _atom_site_fract_z
 _atom_site_occupancy
  Hg  Hg0  1  0.37504400  0.95854800  0.29856000  1.0
  Hg  Hg1  1  0.87484000  0.45834200  0.38199600  1.0
  Hg  Hg2  1  0.62500700  0.04162600  0.36806100  1.0
  Hg  Hg3  1  0.12508100  0.54160100  0.28470600  1.0
  Hg  Hg4  1  0.37495300  0.95848300  0.46526900  1.0
  Hg  Hg5  1  0.87494000  0.45850700  0.54860200  1.0
  Hg  Hg6  1  0.62504700  0.04151700  0.53473100  1.0
  Hg  Hg7  1  0.12506000  0.54149300  0.45139800  1.0
  Hg  Hg8  1  0.37499300  0.95837400  0.63193900  1.0
  Hg  Hg9  1  0.87491900  0.45839900  0.71529400  1.0
  Hg  Hg10  1  0.62495600  0.04145200  0.70144000  1.0
  Hg  Hg11  1  0.12516000  0.54165800  0.61800400  1.0
