# generated using pymatgen
data_Tb
_symmetry_space_group_name_H-M   'P 1'
_cell_length_a   3.63230900
_cell_length_b   3.63230936
_cell_length_c   34.09042900
_cell_angle_alpha   90.00000000
_cell_angle_beta   90.00000000
_cell_angle_gamma   120.00000579
_symmetry_Int_Tables_number   1
_chemical_formula_structural   Tb
_chemical_formula_sum   Tb6
_cell_volume   389.51903847
_cell_formula_units_Z   6
loop_
 _symmetry_equiv_pos_site_id
 _symmetry_equiv_pos_as_xyz
  1  'x, y, z'
loop_
 _atom_site_type_symbol
 _atom_site_label
 _atom_site_symmetry_multiplicity
 _atom_site_fract_x
 _atom_site_fract_y
 _atom_site_fract_z
 _atom_site_occupancy
  Tb  Tb0  1  0.33333333  0.66666667  0.37376300  1.0
  Tb  Tb1  1  0.66666667  0.33333333  0.29266700  1.0
  Tb  Tb2  1  0.33333333  0.66666667  0.54142200  1.0
  Tb  Tb3  1  0.66666667  0.33333333  0.45857800  1.0
  Tb  Tb4  1  0.33333333  0.66666667  0.70733300  1.0
  Tb  Tb5  1  0.66666667  0.33333333  0.62623700  1.0
