# generated using pymatgen
data_Mg
_symmetry_space_group_name_H-M   'P 1'
_cell_length_a   3.16599243
_cell_length_b   8.22806544
_cell_length_c   30.37829506
_cell_angle_alpha   93.32010801
_cell_angle_beta   90.00000366
_cell_angle_gamma   67.36993372
_symmetry_Int_Tables_number   1
_chemical_formula_structural   Mg
_chemical_formula_sum   Mg16
_cell_volume   728.98750481
_cell_formula_units_Z   16
loop_
 _symmetry_equiv_pos_site_id
 _symmetry_equiv_pos_as_xyz
  1  'x, y, z'
loop_
 _atom_site_type_symbol
 _atom_site_label
 _atom_site_symmetry_multiplicity
 _atom_site_fract_x
 _atom_site_fract_y
 _atom_site_fract_z
 _atom_site_occupancy
  Mg  Mg0  1  0.20888200  0.79111800  0.11446600  1.0
  Mg  Mg1  1  0.45732100  0.04267900  0.04998600  1.0
  Mg  Mg2  1  0.95840300  0.54159700  0.17613500  1.0
  Mg  Mg3  1  0.70708300  0.29291700  0.23913700  1.0
  Mg  Mg4  1  0.54081800  0.95918200  0.19736400  1.0
  Mg  Mg5  1  0.78942800  0.21057200  0.13340400  1.0
  Mg  Mg6  1  0.28412500  0.71587500  0.01068700  1.0
  Mg  Mg7  1  0.04082000  0.45918000  0.06924300  1.0
  Mg  Mg8  1  0.21057200  0.78942800  0.36659600  1.0
  Mg  Mg9  1  0.45918200  0.04081800  0.30263600  1.0
  Mg  Mg10  1  0.95918000  0.54082000  0.43075700  1.0
  Mg  Mg11  1  0.71587500  0.28412500  0.48931300  1.0
  Mg  Mg12  1  0.54267900  0.95732100  0.45001400  1.0
  Mg  Mg13  1  0.79111800  0.20888200  0.38553400  1.0
  Mg  Mg14  1  0.29291700  0.70708300  0.26086300  1.0
  Mg  Mg15  1  0.04159700  0.45840300  0.32386500  1.0
