# generated using pymatgen
data_Tb
_symmetry_space_group_name_H-M   'P 1'
_cell_length_a   6.74357613
_cell_length_b   8.47721471
_cell_length_c   35.11276100
_cell_angle_alpha   92.40520271
_cell_angle_beta   94.96485897
_cell_angle_gamma   102.62166841
_symmetry_Int_Tables_number   1
_chemical_formula_structural   Tb
_chemical_formula_sum   Tb30
_cell_volume   1947.59540828
_cell_formula_units_Z   30
loop_
 _symmetry_equiv_pos_site_id
 _symmetry_equiv_pos_as_xyz
  1  'x, y, z'
loop_
 _atom_site_type_symbol
 _atom_site_label
 _atom_site_symmetry_multiplicity
 _atom_site_fract_x
 _atom_site_fract_y
 _atom_site_fract_z
 _atom_site_occupancy
  Tb  Tb0  1  0.06067300  0.63038800  0.30156400  1.0
  Tb  Tb1  1  0.72348900  0.30089400  0.33922700  1.0
  Tb  Tb2  1  0.44956800  0.96130600  0.27402800  1.0
  Tb  Tb3  1  0.98923300  0.04705100  0.29729900  1.0
  Tb  Tb4  1  0.60678600  0.69724300  0.33396000  1.0
  Tb  Tb5  1  0.40775600  0.38062400  0.26938000  1.0
  Tb  Tb6  1  0.98242500  0.63672700  0.40258300  1.0
  Tb  Tb7  1  0.61796300  0.30516300  0.43671200  1.0
  Tb  Tb8  1  0.33568700  0.96672200  0.36791600  1.0
  Tb  Tb9  1  0.87316300  0.02491500  0.39634400  1.0
  Tb  Tb10  1  0.51142900  0.69318900  0.43119300  1.0
  Tb  Tb11  1  0.25095900  0.36470100  0.36297300  1.0
  Tb  Tb12  1  0.88881900  0.63957100  0.50233300  1.0
  Tb  Tb13  1  0.52013700  0.30838200  0.53615800  1.0
  Tb  Tb14  1  0.25160500  0.97252700  0.46926800  1.0
  Tb  Tb15  1  0.77784800  0.02709600  0.49766700  1.0
  Tb  Tb16  1  0.41506200  0.69414000  0.53073200  1.0
  Tb  Tb17  1  0.14652900  0.35828400  0.46384200  1.0
  Tb  Tb18  1  0.79350400  0.64175200  0.60365600  1.0
  Tb  Tb19  1  0.41570700  0.30196500  0.63702700  1.0
  Tb  Tb20  1  0.15523800  0.97347800  0.56880700  1.0
  Tb  Tb21  1  0.68424200  0.02994000  0.59741700  1.0
  Tb  Tb22  1  0.33098000  0.69994500  0.63208400  1.0
  Tb  Tb23  1  0.04870300  0.36150300  0.56328800  1.0
  Tb  Tb24  1  0.67743400  0.61961600  0.70270100  1.0
  Tb  Tb25  1  0.25891000  0.28604200  0.73062000  1.0
  Tb  Tb26  1  0.05988100  0.96942400  0.66604000  1.0
  Tb  Tb27  1  0.60599400  0.03627900  0.69843600  1.0
  Tb  Tb28  1  0.21709900  0.70536100  0.72597200  1.0
  Tb  Tb29  1  0.94317700  0.36577200  0.66077300  1.0
