# generated using pymatgen
data_Tb
_symmetry_space_group_name_H-M   'P 1'
_cell_length_a   6.29134400
_cell_length_b   11.92988928
_cell_length_c   36.32309000
_cell_angle_alpha   98.75651072
_cell_angle_beta   90.00000000
_cell_angle_gamma   74.71147306
_symmetry_Int_Tables_number   1
_chemical_formula_structural   Tb
_chemical_formula_sum   Tb40
_cell_volume   2596.79351744
_cell_formula_units_Z   40
loop_
 _symmetry_equiv_pos_site_id
 _symmetry_equiv_pos_as_xyz
  1  'x, y, z'
loop_
 _atom_site_type_symbol
 _atom_site_label
 _atom_site_symmetry_multiplicity
 _atom_site_fract_x
 _atom_site_fract_y
 _atom_site_fract_z
 _atom_site_occupancy
  Tb  Tb0  1  0.73896400  0.87275900  0.34514100  1.0
  Tb  Tb1  1  0.97624600  0.37966400  0.32359500  1.0
  Tb  Tb2  1  0.51111600  0.38330900  0.27165400  1.0
  Tb  Tb3  1  0.26092200  0.87037600  0.29437800  1.0
  Tb  Tb4  1  0.50999800  0.62532900  0.33424000  1.0
  Tb  Tb5  1  0.77147900  0.11976600  0.30534200  1.0
  Tb  Tb6  1  0.23412500  0.15924400  0.26110600  1.0
  Tb  Tb7  1  0.99074100  0.61550500  0.28321500  1.0
  Tb  Tb8  1  0.72942100  0.87501700  0.44405800  1.0
  Tb  Tb9  1  0.98022000  0.37288100  0.41973300  1.0
  Tb  Tb10  1  0.48217900  0.37047300  0.36742600  1.0
  Tb  Tb11  1  0.23228100  0.87482700  0.39296700  1.0
  Tb  Tb12  1  0.52171600  0.62431800  0.43180300  1.0
  Tb  Tb13  1  0.77142700  0.12350900  0.40580500  1.0
  Tb  Tb14  1  0.26563000  0.12247500  0.35447000  1.0
  Tb  Tb15  1  0.02032000  0.62374600  0.38140500  1.0
  Tb  Tb16  1  0.72618300  0.87608000  0.54395000  1.0
  Tb  Tb17  1  0.97984200  0.37411200  0.51834100  1.0
  Tb  Tb18  1  0.47791000  0.37516900  0.46875400  1.0
  Tb  Tb19  1  0.22818900  0.87476100  0.49384300  1.0
  Tb  Tb20  1  0.52209000  0.62483100  0.53124600  1.0
  Tb  Tb21  1  0.77181100  0.12523900  0.50615700  1.0
  Tb  Tb22  1  0.27381700  0.12392000  0.45605000  1.0
  Tb  Tb23  1  0.02015800  0.62588800  0.48165900  1.0
  Tb  Tb24  1  0.73437000  0.87752500  0.64553000  1.0
  Tb  Tb25  1  0.97968000  0.37625400  0.61859500  1.0
  Tb  Tb26  1  0.47828400  0.37568200  0.56819700  1.0
  Tb  Tb27  1  0.22857300  0.87649100  0.59419500  1.0
  Tb  Tb28  1  0.51782100  0.62952700  0.63257400  1.0
  Tb  Tb29  1  0.76771900  0.12517300  0.60703300  1.0
  Tb  Tb30  1  0.27057900  0.12498300  0.55594200  1.0
  Tb  Tb31  1  0.01978000  0.62711900  0.58026700  1.0
  Tb  Tb32  1  0.76587500  0.84075600  0.73889400  1.0
  Tb  Tb33  1  0.00925900  0.38449500  0.71678500  1.0
  Tb  Tb34  1  0.49000200  0.37467100  0.66576000  1.0
  Tb  Tb35  1  0.22852100  0.88023400  0.69465800  1.0
  Tb  Tb36  1  0.48888400  0.61669100  0.72834600  1.0
  Tb  Tb37  1  0.73907800  0.12962400  0.70562200  1.0
  Tb  Tb38  1  0.26103600  0.12724100  0.65485900  1.0
  Tb  Tb39  1  0.02375400  0.62033600  0.67640500  1.0
