# generated using pymatgen
data_Tb
_symmetry_space_group_name_H-M   'P 1'
_cell_length_a   3.63230973
_cell_length_b   5.68173800
_cell_length_c   36.32309400
_cell_angle_alpha   90.00000000
_cell_angle_beta   119.99998424
_cell_angle_gamma   90.00000000
_symmetry_Int_Tables_number   1
_chemical_formula_structural   Tb
_chemical_formula_sum   Tb10
_cell_volume   649.19865700
_cell_formula_units_Z   10
loop_
 _symmetry_equiv_pos_site_id
 _symmetry_equiv_pos_as_xyz
  1  'x, y, z'
loop_
 _atom_site_type_symbol
 _atom_site_label
 _atom_site_symmetry_multiplicity
 _atom_site_fract_x
 _atom_site_fract_y
 _atom_site_fract_z
 _atom_site_occupancy
  Tb  Tb0  1  0.67191200  0.75000000  0.28438200  1.0
  Tb  Tb1  1  0.34949200  0.25000100  0.31989900  1.0
  Tb  Tb2  1  0.65376200  0.75000000  0.38075300  1.0
  Tb  Tb3  1  0.32897800  0.25000000  0.41579600  1.0
  Tb  Tb4  1  0.66774000  0.75000000  0.48354800  1.0
  Tb  Tb5  1  0.33234800  0.25000000  0.51647000  1.0
  Tb  Tb6  1  0.67102700  0.75000000  0.58420500  1.0
  Tb  Tb7  1  0.34619800  0.24999900  0.61924000  1.0
  Tb  Tb8  1  0.65048500  0.75000000  0.68009700  1.0
  Tb  Tb9  1  0.32805700  0.24999900  0.71561100  1.0
