# generated using pymatgen
data_Tb
_symmetry_space_group_name_H-M   'P 1'
_cell_length_a   6.29134400
_cell_length_b   6.74357625
_cell_length_c   40.46145600
_cell_angle_alpha   65.18119626
_cell_angle_beta   90.00000000
_cell_angle_gamma   89.99999150
_symmetry_Int_Tables_number   1
_chemical_formula_structural   Tb
_chemical_formula_sum   Tb24
_cell_volume   1558.07632684
_cell_formula_units_Z   24
loop_
 _symmetry_equiv_pos_site_id
 _symmetry_equiv_pos_as_xyz
  1  'x, y, z'
loop_
 _atom_site_type_symbol
 _atom_site_label
 _atom_site_symmetry_multiplicity
 _atom_site_fract_x
 _atom_site_fract_y
 _atom_site_fract_z
 _atom_site_occupancy
  Tb  Tb0  1  0.33214100  0.13065300  0.39521000  1.0
  Tb  Tb1  1  0.34090600  0.62709200  0.31307000  1.0
  Tb  Tb2  1  0.83466200  0.85648700  0.27577600  1.0
  Tb  Tb3  1  0.83423100  0.38100500  0.35422700  1.0
  Tb  Tb4  1  0.16785900  0.63065300  0.39521000  1.0
  Tb  Tb5  1  0.15909400  0.12709200  0.31307000  1.0
  Tb  Tb6  1  0.66533800  0.35648700  0.27577600  1.0
  Tb  Tb7  1  0.66576900  0.88100500  0.35422700  1.0
  Tb  Tb8  1  0.33264600  0.12954100  0.56243500  1.0
  Tb  Tb9  1  0.33441700  0.62467000  0.47899600  1.0
  Tb  Tb10  1  0.83264500  0.87045900  0.43756500  1.0
  Tb  Tb11  1  0.83441600  0.37533000  0.52100400  1.0
  Tb  Tb12  1  0.16735400  0.62954100  0.56243500  1.0
  Tb  Tb13  1  0.16558300  0.12467000  0.47899600  1.0
  Tb  Tb14  1  0.66735500  0.37045900  0.43756500  1.0
  Tb  Tb15  1  0.66558400  0.87533000  0.52100400  1.0
  Tb  Tb16  1  0.33466300  0.14351300  0.72422400  1.0
  Tb  Tb17  1  0.33423200  0.61899500  0.64577300  1.0
  Tb  Tb18  1  0.83214000  0.86934700  0.60479000  1.0
  Tb  Tb19  1  0.84090500  0.37290800  0.68693000  1.0
  Tb  Tb20  1  0.16533700  0.64351300  0.72422400  1.0
  Tb  Tb21  1  0.16576800  0.11899500  0.64577300  1.0
  Tb  Tb22  1  0.66786000  0.36934700  0.60479000  1.0
  Tb  Tb23  1  0.65909500  0.87290800  0.68693000  1.0
