# generated using pymatgen
data_Tb
_symmetry_space_group_name_H-M   'P 1'
_cell_length_a   3.63230933
_cell_length_b   9.22262538
_cell_length_c   40.46145600
_cell_angle_alpha   84.56124525
_cell_angle_beta   105.62358497
_cell_angle_gamma   66.80588032
_symmetry_Int_Tables_number   1
_chemical_formula_structural   Tb
_chemical_formula_sum   Tb18
_cell_volume   1168.55718914
_cell_formula_units_Z   18
loop_
 _symmetry_equiv_pos_site_id
 _symmetry_equiv_pos_as_xyz
  1  'x, y, z'
loop_
 _atom_site_type_symbol
 _atom_site_label
 _atom_site_symmetry_multiplicity
 _atom_site_fract_x
 _atom_site_fract_y
 _atom_site_fract_z
 _atom_site_occupancy
  Tb  Tb0  1  0.66383100  0.80568300  0.37871900  1.0
  Tb  Tb1  1  0.67525100  0.13589600  0.32592600  1.0
  Tb  Tb2  1  0.69234200  0.46084200  0.27325800  1.0
  Tb  Tb3  1  0.34078600  0.52140700  0.34294400  1.0
  Tb  Tb4  1  0.34845700  0.85007400  0.28839800  1.0
  Tb  Tb5  1  0.34112800  0.19146500  0.39974500  1.0
  Tb  Tb6  1  0.66300900  0.80925800  0.54631400  1.0
  Tb  Tb7  1  0.66186800  0.14145100  0.49001300  1.0
  Tb  Tb8  1  0.66597800  0.47422100  0.43562000  1.0
  Tb  Tb9  1  0.33845800  0.52516100  0.51007500  1.0
  Tb  Tb10  1  0.33729400  0.85729900  0.45375300  1.0
  Tb  Tb11  1  0.33420700  0.19240600  0.56442700  1.0
  Tb  Tb12  1  0.65139600  0.81657100  0.71154500  1.0
  Tb  Tb13  1  0.65923000  0.14526100  0.65706400  1.0
  Tb  Tb14  1  0.65899900  0.47510800  0.60026600  1.0
  Tb  Tb15  1  0.32462500  0.53077400  0.67403500  1.0
  Tb  Tb16  1  0.33610400  0.86101000  0.62126900  1.0
  Tb  Tb17  1  0.30703800  0.20611300  0.72663100  1.0
