# generated using pymatgen
data_Tb
_symmetry_space_group_name_H-M   'P 1'
_cell_length_a   9.61264862
_cell_length_b   6.74320194
_cell_length_c   36.30427200
_cell_angle_alpha   105.61617401
_cell_angle_beta   79.11513841
_cell_angle_gamma   65.94984824
_symmetry_Int_Tables_number   1
_chemical_formula_structural   Tb
_chemical_formula_sum   Tb30
_cell_volume   1946.74375011
_cell_formula_units_Z   30
loop_
 _symmetry_equiv_pos_site_id
 _symmetry_equiv_pos_as_xyz
  1  'x, y, z'
loop_
 _atom_site_type_symbol
 _atom_site_label
 _atom_site_symmetry_multiplicity
 _atom_site_fract_x
 _atom_site_fract_y
 _atom_site_fract_z
 _atom_site_occupancy
  Tb  Tb0  1  0.88091400  0.72362900  0.32373900  1.0
  Tb  Tb1  1  0.19610300  0.81543000  0.26876800  1.0
  Tb  Tb2  1  0.51583500  0.75056200  0.29864900  1.0
  Tb  Tb3  1  0.79249700  0.24934200  0.30880500  1.0
  Tb  Tb4  1  0.13616100  0.26280700  0.34513300  1.0
  Tb  Tb5  1  0.42833300  0.26739600  0.27654400  1.0
  Tb  Tb6  1  0.85661800  0.75210000  0.42900000  1.0
  Tb  Tb7  1  0.19473700  0.75279100  0.36166400  1.0
  Tb  Tb8  1  0.53705300  0.74709200  0.39413100  1.0
  Tb  Tb9  1  0.80687600  0.23842200  0.40366700  1.0
  Tb  Tb10  1  0.14073600  0.24872300  0.43985800  1.0
  Tb  Tb11  1  0.47707500  0.24405300  0.37095200  1.0
  Tb  Tb12  1  0.86134500  0.74880100  0.52789900  1.0
  Tb  Tb13  1  0.19434000  0.74869300  0.46149400  1.0
  Tb  Tb14  1  0.52659400  0.74895700  0.49419200  1.0
  Tb  Tb15  1  0.80673900  0.25104300  0.50580800  1.0
  Tb  Tb16  1  0.13899400  0.25130700  0.53850600  1.0
  Tb  Tb17  1  0.47198800  0.25119900  0.47210100  1.0
  Tb  Tb18  1  0.85625800  0.75594700  0.62904800  1.0
  Tb  Tb19  1  0.19259800  0.75127700  0.56014200  1.0
  Tb  Tb20  1  0.52645700  0.76157800  0.59633300  1.0
  Tb  Tb21  1  0.79628000  0.25290800  0.60586900  1.0
  Tb  Tb22  1  0.13859700  0.24720900  0.63833600  1.0
  Tb  Tb23  1  0.47671500  0.24790000  0.57100000  1.0
  Tb  Tb24  1  0.90500000  0.73260400  0.72345600  1.0
  Tb  Tb25  1  0.19717300  0.73719300  0.65486700  1.0
  Tb  Tb26  1  0.54083600  0.75065800  0.69119500  1.0
  Tb  Tb27  1  0.81749800  0.24943800  0.70135100  1.0
  Tb  Tb28  1  0.13723100  0.18457000  0.73123200  1.0
  Tb  Tb29  1  0.45241900  0.27637100  0.67626100  1.0
