# generated using pymatgen
data_Mg
_symmetry_space_group_name_H-M   'P 1'
_cell_length_a   5.18766800
_cell_length_b   5.56229900
_cell_length_c   25.30580400
_cell_angle_alpha   90.00000000
_cell_angle_beta   90.00000000
_cell_angle_gamma   90.00000000
_symmetry_Int_Tables_number   1
_chemical_formula_structural   Mg
_chemical_formula_sum   Mg16
_cell_volume   730.20809789
_cell_formula_units_Z   16
loop_
 _symmetry_equiv_pos_site_id
 _symmetry_equiv_pos_as_xyz
  1  'x, y, z'
loop_
 _atom_site_type_symbol
 _atom_site_label
 _atom_site_symmetry_multiplicity
 _atom_site_fract_x
 _atom_site_fract_y
 _atom_site_fract_z
 _atom_site_occupancy
  Mg  Mg0  1  0.75000000  0.34225500  0.00130200  1.0
  Mg  Mg1  1  0.75000000  0.83967100  0.05911100  1.0
  Mg  Mg2  1  0.25000000  0.65774500  0.00130200  1.0
  Mg  Mg3  1  0.25000000  0.16032900  0.05911100  1.0
  Mg  Mg4  1  0.75000000  0.33692400  0.12470800  1.0
  Mg  Mg5  1  0.75000000  0.83678300  0.18719500  1.0
  Mg  Mg6  1  0.25000000  0.66307600  0.12470800  1.0
  Mg  Mg7  1  0.25000000  0.16321700  0.18719500  1.0
  Mg  Mg8  1  0.75000000  0.33678300  0.25030500  1.0
  Mg  Mg9  1  0.75000000  0.83692400  0.31279200  1.0
  Mg  Mg10  1  0.25000000  0.66321700  0.25030500  1.0
  Mg  Mg11  1  0.25000000  0.16307600  0.31279200  1.0
  Mg  Mg12  1  0.75000000  0.33967100  0.37838900  1.0
  Mg  Mg13  1  0.75000000  0.84225500  0.43619800  1.0
  Mg  Mg14  1  0.25000000  0.66032900  0.37838900  1.0
  Mg  Mg15  1  0.25000000  0.15774500  0.43619800  1.0
