# generated using pymatgen
data_Tb
_symmetry_space_group_name_H-M   'P 1'
_cell_length_a   5.68391900
_cell_length_b   9.61010673
_cell_length_c   36.29870500
_cell_angle_alpha   79.11391201
_cell_angle_beta   90.00000000
_cell_angle_gamma   90.00000000
_symmetry_Int_Tables_number   1
_chemical_formula_structural   Tb
_chemical_formula_sum   Tb30
_cell_volume   1947.06631736
_cell_formula_units_Z   30
loop_
 _symmetry_equiv_pos_site_id
 _symmetry_equiv_pos_as_xyz
  1  'x, y, z'
loop_
 _atom_site_type_symbol
 _atom_site_label
 _atom_site_symmetry_multiplicity
 _atom_site_fract_x
 _atom_site_fract_y
 _atom_site_fract_z
 _atom_site_occupancy
  Tb  Tb0  1  0.25000000  0.52884500  0.27598500  1.0
  Tb  Tb1  1  0.25000000  0.21808000  0.34220600  1.0
  Tb  Tb2  1  0.25000000  0.88138300  0.30528900  1.0
  Tb  Tb3  1  0.75000000  0.76722700  0.26415300  1.0
  Tb  Tb4  1  0.75000000  0.44728900  0.33030600  1.0
  Tb  Tb5  1  0.75000000  0.13005500  0.29287800  1.0
  Tb  Tb6  1  0.25000000  0.55789800  0.37120600  1.0
  Tb  Tb7  1  0.25000000  0.22321000  0.43982300  1.0
  Tb  Tb8  1  0.25000000  0.89095300  0.40431100  1.0
  Tb  Tb9  1  0.75000000  0.78850300  0.35818800  1.0
  Tb  Tb10  1  0.75000000  0.44716700  0.42792700  1.0
  Tb  Tb11  1  0.75000000  0.11459700  0.39432700  1.0
  Tb  Tb12  1  0.25000000  0.55674800  0.47282900  1.0
  Tb  Tb13  1  0.25000000  0.22185500  0.53987800  1.0
  Tb  Tb14  1  0.25000000  0.88989400  0.50471600  1.0
  Tb  Tb15  1  0.75000000  0.77814500  0.46012200  1.0
  Tb  Tb16  1  0.75000000  0.44325200  0.52717100  1.0
  Tb  Tb17  1  0.75000000  0.11010600  0.49528400  1.0
  Tb  Tb18  1  0.25000000  0.55283300  0.57207300  1.0
  Tb  Tb19  1  0.25000000  0.21149700  0.64181200  1.0
  Tb  Tb20  1  0.25000000  0.88540300  0.60567300  1.0
  Tb  Tb21  1  0.75000000  0.77679000  0.56017700  1.0
  Tb  Tb22  1  0.75000000  0.44210200  0.62879400  1.0
  Tb  Tb23  1  0.75000000  0.10904700  0.59568900  1.0
  Tb  Tb24  1  0.25000000  0.55271100  0.66969400  1.0
  Tb  Tb25  1  0.25000000  0.23277300  0.73584700  1.0
  Tb  Tb26  1  0.25000000  0.86994500  0.70712200  1.0
  Tb  Tb27  1  0.75000000  0.78192000  0.65779400  1.0
  Tb  Tb28  1  0.75000000  0.47115500  0.72401500  1.0
  Tb  Tb29  1  0.75000000  0.11861700  0.69471100  1.0
