# generated using pymatgen
data_Th
_symmetry_space_group_name_H-M   'P 1'
_cell_length_a   6.16583281
_cell_length_b   9.45035144
_cell_length_c   33.39374500
_cell_angle_alpha   97.08417382
_cell_angle_beta   89.87443083
_cell_angle_gamma   89.55628479
_symmetry_Int_Tables_number   1
_chemical_formula_structural   Th
_chemical_formula_sum   Th30
_cell_volume   1930.90771486
_cell_formula_units_Z   30
loop_
 _symmetry_equiv_pos_site_id
 _symmetry_equiv_pos_as_xyz
  1  'x, y, z'
loop_
 _atom_site_type_symbol
 _atom_site_label
 _atom_site_symmetry_multiplicity
 _atom_site_fract_x
 _atom_site_fract_y
 _atom_site_fract_z
 _atom_site_occupancy
  Th  Th0  1  0.99432900  0.66062900  0.34043800  1.0
  Th  Th1  1  0.33964800  0.06976000  0.28235700  1.0
  Th  Th2  1  0.67279400  0.35738900  0.30840900  1.0
  Th  Th3  1  0.83291500  0.00610500  0.32302700  1.0
  Th  Th4  1  0.17651200  0.40975000  0.26756200  1.0
  Th  Th5  1  0.49374500  0.70821500  0.29460700  1.0
  Th  Th6  1  0.99782200  0.55933300  0.44116500  1.0
  Th  Th7  1  0.32814400  0.95482200  0.37568300  1.0
  Th  Th8  1  0.66375100  0.25483100  0.40836000  1.0
  Th  Th9  1  0.83065400  0.90916400  0.42474100  1.0
  Th  Th10  1  0.16065900  0.30640400  0.36136300  1.0
  Th  Th11  1  0.49786700  0.60627100  0.39187800  1.0
  Th  Th12  1  0.99932400  0.45969600  0.54094700  1.0
  Th  Th13  1  0.33342300  0.85741000  0.47540300  1.0
  Th  Th14  1  0.66699800  0.15933100  0.50892800  1.0
  Th  Th15  1  0.83324300  0.80925600  0.52459700  1.0
  Th  Th16  1  0.16734300  0.20697000  0.45905300  1.0
  Th  Th17  1  0.49966900  0.50733500  0.49107200  1.0
  Th  Th18  1  0.00600800  0.36026200  0.63863700  1.0
  Th  Th19  1  0.33601200  0.75750200  0.57526000  1.0
  Th  Th20  1  0.66880000  0.06039500  0.60812200  1.0
  Th  Th21  1  0.83852200  0.71184400  0.62431700  1.0
  Th  Th22  1  0.16884500  0.10733300  0.55883500  1.0
  Th  Th23  1  0.50291600  0.41183500  0.59164000  1.0
  Th  Th24  1  0.99015500  0.25691600  0.73243800  1.0
  Th  Th25  1  0.33375100  0.66056100  0.67697300  1.0
  Th  Th26  1  0.67292200  0.95845100  0.70539300  1.0
  Th  Th27  1  0.82701800  0.59690600  0.71764300  1.0
  Th  Th28  1  0.17233800  0.00603700  0.65956200  1.0
  Th  Th29  1  0.49387300  0.30927700  0.69159100  1.0
