# generated using pymatgen
data_Th
_symmetry_space_group_name_H-M   'P 1'
_cell_length_a   5.02819894
_cell_length_b   9.46101211
_cell_length_c   42.16039800
_cell_angle_alpha   88.16337051
_cell_angle_beta   86.58132770
_cell_angle_gamma   74.58950745
_symmetry_Int_Tables_number   1
_chemical_formula_structural   Th
_chemical_formula_sum   Th30
_cell_volume   1929.82415857
_cell_formula_units_Z   30
loop_
 _symmetry_equiv_pos_site_id
 _symmetry_equiv_pos_as_xyz
  1  'x, y, z'
loop_
 _atom_site_type_symbol
 _atom_site_label
 _atom_site_symmetry_multiplicity
 _atom_site_fract_x
 _atom_site_fract_y
 _atom_site_fract_z
 _atom_site_occupancy
  Th  Th0  1  0.40202400  0.82019800  0.37575400  1.0
  Th  Th1  1  0.19931400  0.29221600  0.30915700  1.0
  Th  Th2  1  0.99987400  0.59187000  0.40838200  1.0
  Th  Th3  1  0.80129000  0.05381300  0.34360700  1.0
  Th  Th4  1  0.60285000  0.51533900  0.27896000  1.0
  Th  Th5  1  0.00208600  0.67220700  0.32362100  1.0
  Th  Th6  1  0.79515000  0.14478800  0.26491200  1.0
  Th  Th7  1  0.60114400  0.43809900  0.35961300  1.0
  Th  Th8  1  0.39680100  0.91171900  0.29467900  1.0
  Th  Th9  1  0.20045600  0.20696500  0.39212300  1.0
  Th  Th10  1  0.40044400  0.65789500  0.54121700  1.0
  Th  Th11  1  0.20007400  0.12463200  0.47522100  1.0
  Th  Th12  1  0.00010400  0.42530800  0.57448300  1.0
  Th  Th13  1  0.79989900  0.89145900  0.50874200  1.0
  Th  Th14  1  0.60029900  0.35776700  0.44163500  1.0
  Th  Th15  1  0.00010100  0.50854100  0.49125800  1.0
  Th  Th16  1  0.79989600  0.97469200  0.42551700  1.0
  Th  Th17  1  0.59992600  0.27536800  0.52477900  1.0
  Th  Th18  1  0.39955600  0.74210500  0.45878300  1.0
  Th  Th19  1  0.19970100  0.04223300  0.55836500  1.0
  Th  Th20  1  0.40319900  0.48828100  0.70532100  1.0
  Th  Th21  1  0.19885600  0.96190100  0.64038700  1.0
  Th  Th22  1  0.00485000  0.25521200  0.73508800  1.0
  Th  Th23  1  0.79791400  0.72779300  0.67637900  1.0
  Th  Th24  1  0.59954400  0.19303500  0.60787700  1.0
  Th  Th25  1  0.99871000  0.34618700  0.65639300  1.0
  Th  Th26  1  0.80012600  0.80813000  0.59161800  1.0
  Th  Th27  1  0.60068600  0.10778400  0.69084300  1.0
  Th  Th28  1  0.39797600  0.57980200  0.62424600  1.0
  Th  Th29  1  0.19715000  0.88466100  0.72104000  1.0
