# generated using pymatgen
data_Th
_symmetry_space_group_name_H-M   'P 1'
_cell_length_a   3.57572505
_cell_length_b   7.97545557
_cell_length_c   34.93317300
_cell_angle_alpha   111.40540451
_cell_angle_beta   89.99070635
_cell_angle_gamma   102.96606430
_symmetry_Int_Tables_number   1
_chemical_formula_structural   Th
_chemical_formula_sum   Th14
_cell_volume   900.18426658
_cell_formula_units_Z   14
loop_
 _symmetry_equiv_pos_site_id
 _symmetry_equiv_pos_as_xyz
  1  'x, y, z'
loop_
 _atom_site_type_symbol
 _atom_site_label
 _atom_site_symmetry_multiplicity
 _atom_site_fract_x
 _atom_site_fract_y
 _atom_site_fract_z
 _atom_site_occupancy
  Th  Th0  1  0.57324500  0.14653000  0.41058700  1.0
  Th  Th1  1  0.72056300  0.44084100  0.27465200  1.0
  Th  Th2  1  0.00049400  0.00101600  0.48208400  1.0
  Th  Th3  1  0.14390900  0.28769300  0.33957300  1.0
  Th  Th4  1  0.28536000  0.57067500  0.44670600  1.0
  Th  Th5  1  0.42871100  0.85714900  0.30494000  1.0
  Th  Th6  1  0.86009900  0.72003700  0.37750000  1.0
  Th  Th7  1  0.57037900  0.14087900  0.66042700  1.0
  Th  Th8  1  0.71378900  0.42755300  0.51791500  1.0
  Th  Th9  1  0.99372000  0.98772800  0.72534700  1.0
  Th  Th10  1  0.14104300  0.28204200  0.58941300  1.0
  Th  Th11  1  0.28557800  0.57142400  0.69506100  1.0
  Th  Th12  1  0.42892900  0.85789800  0.55329500  1.0
  Th  Th13  1  0.85418100  0.70853700  0.62250000  1.0
