# generated using pymatgen
data_Th
_symmetry_space_group_name_H-M   'P 1'
_cell_length_a   5.04797643
_cell_length_b   6.18169643
_cell_length_c   42.81353600
_cell_angle_alpha   106.77700869
_cell_angle_beta   90.02352906
_cell_angle_gamma   114.08888308
_symmetry_Int_Tables_number   1
_chemical_formula_structural   Th
_chemical_formula_sum   Th18
_cell_volume   1157.00623693
_cell_formula_units_Z   18
loop_
 _symmetry_equiv_pos_site_id
 _symmetry_equiv_pos_as_xyz
  1  'x, y, z'
loop_
 _atom_site_type_symbol
 _atom_site_label
 _atom_site_symmetry_multiplicity
 _atom_site_fract_x
 _atom_site_fract_y
 _atom_site_fract_z
 _atom_site_occupancy
  Th  Th0  1  0.33190800  0.66406400  0.34828000  1.0
  Th  Th1  1  0.66810900  0.33649400  0.29366400  1.0
  Th  Th2  1  0.99956500  0.99908500  0.40250100  1.0
  Th  Th3  1  0.99778700  0.99598300  0.31783500  1.0
  Th  Th4  1  0.33894800  0.67840100  0.26965700  1.0
  Th  Th5  1  0.66256600  0.32563100  0.37514900  1.0
  Th  Th6  1  0.33278500  0.66611800  0.51408700  1.0
  Th  Th7  1  0.66729500  0.33453900  0.45832000  1.0
  Th  Th8  1  0.99994000  0.99961300  0.56935300  1.0
  Th  Th9  1  0.00057300  0.00051100  0.48591800  1.0
  Th  Th10  1  0.33340500  0.66703800  0.43064900  1.0
  Th  Th11  1  0.66606600  0.33211600  0.54168300  1.0
  Th  Th12  1  0.33553000  0.67070800  0.68216200  1.0
  Th  Th13  1  0.67075300  0.34099600  0.62485300  1.0
  Th  Th14  1  0.99436400  0.98827900  0.73033400  1.0
  Th  Th15  1  0.00143600  0.00264800  0.65172100  1.0
  Th  Th16  1  0.33377200  0.66757900  0.59750100  1.0
  Th  Th17  1  0.66520200  0.33019700  0.70633100  1.0
