# generated using pymatgen
data_Th
_symmetry_space_group_name_H-M   'P 1'
_cell_length_a   3.58091000
_cell_length_b   3.58091000
_cell_length_c   30.11652000
_cell_angle_alpha   90.00000000
_cell_angle_beta   90.00000000
_cell_angle_gamma   90.00000000
_symmetry_Int_Tables_number   1
_chemical_formula_structural   Th
_chemical_formula_sum   Th6
_cell_volume   386.18161907
_cell_formula_units_Z   6
loop_
 _symmetry_equiv_pos_site_id
 _symmetry_equiv_pos_as_xyz
  1  'x, y, z'
loop_
 _atom_site_type_symbol
 _atom_site_label
 _atom_site_symmetry_multiplicity
 _atom_site_fract_x
 _atom_site_fract_y
 _atom_site_fract_z
 _atom_site_occupancy
  Th  Th0  1  0.00000000  0.00000000  0.37382300  1.0
  Th  Th1  1  0.50000000  0.50000000  0.29287900  1.0
  Th  Th2  1  0.00000000  0.00000000  0.54153100  1.0
  Th  Th3  1  0.50000000  0.50000000  0.45846900  1.0
  Th  Th4  1  0.00000000  0.00000000  0.70712100  1.0
  Th  Th5  1  0.50000000  0.50000000  0.62617700  1.0
