# generated using pymatgen
data_Th
_symmetry_space_group_name_H-M   'P 1'
_cell_length_a   6.18043059
_cell_length_b   7.97735965
_cell_length_c   40.42662400
_cell_angle_alpha   87.68916566
_cell_angle_beta   86.97117280
_cell_angle_gamma   75.15572916
_symmetry_Int_Tables_number   1
_chemical_formula_structural   Th
_chemical_formula_sum   Th30
_cell_volume   1923.22182405
_cell_formula_units_Z   30
loop_
 _symmetry_equiv_pos_site_id
 _symmetry_equiv_pos_as_xyz
  1  'x, y, z'
loop_
 _atom_site_type_symbol
 _atom_site_label
 _atom_site_symmetry_multiplicity
 _atom_site_fract_x
 _atom_site_fract_y
 _atom_site_fract_z
 _atom_site_occupancy
  Th  Th0  1  0.81734500  0.40593200  0.59197300  1.0
  Th  Th1  1  0.34653000  0.66914500  0.72174400  1.0
  Th  Th2  1  0.21410100  0.10758500  0.69202100  1.0
  Th  Th3  1  0.09003500  0.53819100  0.65670100  1.0
  Th  Th4  1  0.95023200  0.97455200  0.62523300  1.0
  Th  Th5  1  0.78592600  0.88715500  0.70891300  1.0
  Th  Th6  1  0.65026300  0.31554100  0.67653300  1.0
  Th  Th7  1  0.52524400  0.75551200  0.64151000  1.0
  Th  Th8  1  0.38560300  0.18872900  0.60842100  1.0
  Th  Th9  1  0.90754700  0.46723000  0.73527400  1.0
  Th  Th10  1  0.14606500  0.57646400  0.42500900  1.0
  Th  Th11  1  0.68621100  0.83911700  0.55840300  1.0
  Th  Th12  1  0.54817200  0.27336700  0.52497800  1.0
  Th  Th13  1  0.41784900  0.70923400  0.49136400  1.0
  Th  Th14  1  0.28288600  0.14390300  0.45813500  1.0
  Th  Th15  1  0.11711100  0.05609800  0.54186400  1.0
  Th  Th16  1  0.98215300  0.49076500  0.50863600  1.0
  Th  Th17  1  0.85182800  0.92663300  0.47502200  1.0
  Th  Th18  1  0.71378900  0.36088300  0.44159700  1.0
  Th  Th19  1  0.25393700  0.62353500  0.57499100  1.0
  Th  Th20  1  0.49245500  0.73277000  0.26472600  1.0
  Th  Th21  1  0.01439700  0.01127100  0.39157900  1.0
  Th  Th22  1  0.87475600  0.44448800  0.35849000  1.0
  Th  Th23  1  0.74973900  0.88445800  0.32346700  1.0
  Th  Th24  1  0.61407100  0.31284600  0.29108700  1.0
  Th  Th25  1  0.44976400  0.22545000  0.37476700  1.0
  Th  Th26  1  0.30996700  0.66180900  0.34329900  1.0
  Th  Th27  1  0.18589900  0.09241500  0.30797900  1.0
  Th  Th28  1  0.05347000  0.53085500  0.27825600  1.0
  Th  Th29  1  0.58265600  0.79406800  0.40802700  1.0
