# generated using pymatgen
data_Mg
_symmetry_space_group_name_H-M   'P 1'
_cell_length_a   3.18909587
_cell_length_b   5.17137600
_cell_length_c   25.51276500
_cell_angle_alpha   90.00000000
_cell_angle_beta   59.99999864
_cell_angle_gamma   90.00000000
_symmetry_Int_Tables_number   1
_chemical_formula_structural   Mg
_chemical_formula_sum   Mg8
_cell_volume   364.38613634
_cell_formula_units_Z   8
loop_
 _symmetry_equiv_pos_site_id
 _symmetry_equiv_pos_as_xyz
  1  'x, y, z'
loop_
 _atom_site_type_symbol
 _atom_site_label
 _atom_site_symmetry_multiplicity
 _atom_site_fract_x
 _atom_site_fract_y
 _atom_site_fract_z
 _atom_site_occupancy
  Mg  Mg0  1  0.31607000  0.25000000  0.04598300  1.0
  Mg  Mg1  1  0.68677600  0.75000000  0.07830600  1.0
  Mg  Mg2  1  0.31839800  0.25000000  0.17040100  1.0
  Mg  Mg3  1  0.68160000  0.75000000  0.20459900  1.0
  Mg  Mg4  1  0.31840000  0.25000000  0.29540100  1.0
  Mg  Mg5  1  0.68160200  0.75000000  0.32959900  1.0
  Mg  Mg6  1  0.31322400  0.25000000  0.42169400  1.0
  Mg  Mg7  1  0.68393000  0.75000000  0.45401700  1.0
