# generated using pymatgen
data_Th
_symmetry_space_group_name_H-M   'P 1'
_cell_length_a   3.56806600
_cell_length_b   10.69498511
_cell_length_c   33.63822700
_cell_angle_alpha   92.06242664
_cell_angle_beta   90.00000000
_cell_angle_gamma   90.00000000
_symmetry_Int_Tables_number   1
_chemical_formula_structural   Th
_chemical_formula_sum   Th20
_cell_volume   1282.81709027
_cell_formula_units_Z   20
loop_
 _symmetry_equiv_pos_site_id
 _symmetry_equiv_pos_as_xyz
  1  'x, y, z'
loop_
 _atom_site_type_symbol
 _atom_site_label
 _atom_site_symmetry_multiplicity
 _atom_site_fract_x
 _atom_site_fract_y
 _atom_site_fract_z
 _atom_site_occupancy
  Th  Th0  1  0.00000000  0.30573700  0.71029800  1.0
  Th  Th1  1  0.00000000  0.86215800  0.66313800  1.0
  Th  Th2  1  0.00000000  0.51308000  0.51267700  1.0
  Th  Th3  1  0.00000000  0.41407100  0.61215300  1.0
  Th  Th4  1  0.00000000  0.96125100  0.56191200  1.0
  Th  Th5  1  0.50000000  0.13674100  0.63499200  1.0
  Th  Th6  1  0.50000000  0.68949900  0.58763800  1.0
  Th  Th7  1  0.50000000  0.58608300  0.68612300  1.0
  Th  Th8  1  0.50000000  0.23816300  0.53741000  1.0
  Th  Th9  1  0.50000000  0.03737100  0.73202600  1.0
  Th  Th10  1  0.00000000  0.06183700  0.46259000  1.0
  Th  Th11  1  0.00000000  0.61050100  0.41236200  1.0
  Th  Th12  1  0.00000000  0.26262900  0.26797400  1.0
  Th  Th13  1  0.00000000  0.16325900  0.36500800  1.0
  Th  Th14  1  0.00000000  0.71391700  0.31387700  1.0
  Th  Th15  1  0.50000000  0.88592900  0.38784700  1.0
  Th  Th16  1  0.50000000  0.43784200  0.33686200  1.0
  Th  Th17  1  0.50000000  0.33874900  0.43808800  1.0
  Th  Th18  1  0.50000000  0.99426300  0.28970200  1.0
  Th  Th19  1  0.50000000  0.78692000  0.48732300  1.0
