# generated using pymatgen
data_Th
_symmetry_space_group_name_H-M   'P 1'
_cell_length_a   3.57705000
_cell_length_b   3.57704985
_cell_length_c   34.91877900
_cell_angle_alpha   90.00000000
_cell_angle_beta   90.00000000
_cell_angle_gamma   120.00000137
_symmetry_Int_Tables_number   1
_chemical_formula_structural   Th
_chemical_formula_sum   Th6
_cell_volume   386.93648167
_cell_formula_units_Z   6
loop_
 _symmetry_equiv_pos_site_id
 _symmetry_equiv_pos_as_xyz
  1  'x, y, z'
loop_
 _atom_site_type_symbol
 _atom_site_label
 _atom_site_symmetry_multiplicity
 _atom_site_fract_x
 _atom_site_fract_y
 _atom_site_fract_z
 _atom_site_occupancy
  Th  Th0  1  0.33333333  0.66666667  0.29441700  1.0
  Th  Th1  1  0.00000000  0.00000000  0.45868200  1.0
  Th  Th2  1  0.66666667  0.33333333  0.37564800  1.0
  Th  Th3  1  0.33333333  0.66666667  0.54131800  1.0
  Th  Th4  1  0.00000000  0.00000000  0.70558300  1.0
  Th  Th5  1  0.66666667  0.33333333  0.62435200  1.0
