# generated using pymatgen
data_Y
_symmetry_space_group_name_H-M   'P 1'
_cell_length_a   3.58038286
_cell_length_b   10.12704200
_cell_length_c   28.64306147
_cell_angle_alpha   90.00000000
_cell_angle_beta   90.00000000
_cell_angle_gamma   90.00000000
_symmetry_Int_Tables_number   1
_chemical_formula_structural   Y
_chemical_formula_sum   Y14
_cell_volume   1038.55981773
_cell_formula_units_Z   14
loop_
 _symmetry_equiv_pos_site_id
 _symmetry_equiv_pos_as_xyz
  1  'x, y, z'
loop_
 _atom_site_type_symbol
 _atom_site_label
 _atom_site_symmetry_multiplicity
 _atom_site_fract_x
 _atom_site_fract_y
 _atom_site_fract_z
 _atom_site_occupancy
  Y  Y0  1  0.00000000  0.00101200  0.58919700  1.0
  Y  Y1  1  0.00000000  0.49998400  0.59639200  1.0
  Y  Y2  1  0.00000000  0.49888800  0.70988700  1.0
  Y  Y3  1  0.50000000  0.24133800  0.65704600  1.0
  Y  Y4  1  0.50000000  0.75699200  0.65694700  1.0
  Y  Y5  1  0.50000000  0.24996700  0.53058100  1.0
  Y  Y6  1  0.50000000  0.75065100  0.53183100  1.0
  Y  Y7  1  0.00000000  0.99300800  0.34305300  1.0
  Y  Y8  1  0.00000000  0.50866200  0.34295400  1.0
  Y  Y9  1  0.00000000  0.99934900  0.46816900  1.0
  Y  Y10  1  0.00000000  0.50003300  0.46941900  1.0
  Y  Y11  1  0.50000000  0.25001600  0.40360800  1.0
  Y  Y12  1  0.50000000  0.74898800  0.41080300  1.0
  Y  Y13  1  0.50000000  0.25111200  0.29011300  1.0
