# generated using pymatgen
data_Y
_symmetry_space_group_name_H-M   'P 1'
_cell_length_a   5.06295700
_cell_length_b   6.20102821
_cell_length_c   22.64309963
_cell_angle_alpha   89.99999587
_cell_angle_beta   90.00000000
_cell_angle_gamma   114.09402101
_symmetry_Int_Tables_number   1
_chemical_formula_structural   Y
_chemical_formula_sum   Y10
_cell_volume   648.95709551
_cell_formula_units_Z   10
loop_
 _symmetry_equiv_pos_site_id
 _symmetry_equiv_pos_as_xyz
  1  'x, y, z'
loop_
 _atom_site_type_symbol
 _atom_site_label
 _atom_site_symmetry_multiplicity
 _atom_site_fract_x
 _atom_site_fract_y
 _atom_site_fract_z
 _atom_site_occupancy
  Y  Y0  1  0.60214100  0.20428100  0.39407500  1.0
  Y  Y1  1  0.20165600  0.40331200  0.30118000  1.0
  Y  Y2  1  0.80102600  0.60205100  0.20023600  1.0
  Y  Y3  1  0.40291800  0.80583600  0.09987700  1.0
  Y  Y4  1  0.00296700  0.00593400  0.00524000  1.0
  Y  Y5  1  0.89708200  0.79416400  0.35012300  1.0
  Y  Y6  1  0.49897400  0.99794900  0.24976400  1.0
  Y  Y7  1  0.09834400  0.19668800  0.14882000  1.0
  Y  Y8  1  0.69785900  0.39571900  0.05592500  1.0
  Y  Y9  1  0.29703300  0.59406600  0.44476000  1.0
