# generated using pymatgen
data_Y
_symmetry_space_group_name_H-M   'P 1'
_cell_length_a   3.58007880
_cell_length_b   8.77054584
_cell_length_c   24.80536292
_cell_angle_alpha   89.99564735
_cell_angle_beta   90.00000000
_cell_angle_gamma   90.00000000
_symmetry_Int_Tables_number   1
_chemical_formula_structural   Y
_chemical_formula_sum   Y12
_cell_volume   778.86967100
_cell_formula_units_Z   12
loop_
 _symmetry_equiv_pos_site_id
 _symmetry_equiv_pos_as_xyz
  1  'x, y, z'
loop_
 _atom_site_type_symbol
 _atom_site_label
 _atom_site_symmetry_multiplicity
 _atom_site_fract_x
 _atom_site_fract_y
 _atom_site_fract_z
 _atom_site_occupancy
  Y  Y0  1  0.00000000  0.00287700  0.00915000  1.0
  Y  Y1  1  0.00000000  0.33280900  0.08801600  1.0
  Y  Y2  1  0.00000000  0.66260700  0.16440500  1.0
  Y  Y3  1  0.00000000  0.99807600  0.24893000  1.0
  Y  Y4  1  0.00000000  0.33271000  0.33433200  1.0
  Y  Y5  1  0.00000000  0.66384300  0.41829700  1.0
  Y  Y6  1  0.50000000  0.00063400  0.12400800  1.0
  Y  Y7  1  0.50000000  0.33527100  0.20941400  1.0
  Y  Y8  1  0.50000000  0.67072800  0.29392700  1.0
  Y  Y9  1  0.50000000  0.00051800  0.37032900  1.0
  Y  Y10  1  0.50000000  0.33048100  0.44917300  1.0
  Y  Y11  1  0.50000000  0.66944500  0.04001800  1.0
