# generated using pymatgen
data_Y
_symmetry_space_group_name_H-M   'P 1'
_cell_length_a   3.58009365
_cell_length_b   10.74026847
_cell_length_c   30.37989935
_cell_angle_alpha   89.99676152
_cell_angle_beta   90.00175904
_cell_angle_gamma   89.99903057
_symmetry_Int_Tables_number   1
_chemical_formula_structural   Y
_chemical_formula_sum   Y18
_cell_volume   1168.14257921
_cell_formula_units_Z   18
loop_
 _symmetry_equiv_pos_site_id
 _symmetry_equiv_pos_as_xyz
  1  'x, y, z'
loop_
 _atom_site_type_symbol
 _atom_site_label
 _atom_site_symmetry_multiplicity
 _atom_site_fract_x
 _atom_site_fract_y
 _atom_site_fract_z
 _atom_site_occupancy
  Y  Y0  1  0.00003200  0.43538300  0.94699400  1.0
  Y  Y1  1  0.00001100  0.88667700  0.88997400  1.0
  Y  Y2  1  0.00002700  0.01642800  0.99126200  1.0
  Y  Y3  1  0.00000300  0.33598000  0.83245700  1.0
  Y  Y4  1  0.00000200  0.77450000  0.77928400  1.0
  Y  Y5  1  0.99999600  0.22256500  0.72321800  1.0
  Y  Y6  1  0.99999200  0.67311900  0.66278000  1.0
  Y  Y7  1  0.99998600  0.11153100  0.61702100  1.0
  Y  Y8  1  0.99996500  0.54573500  0.55591800  1.0
  Y  Y9  1  0.50000900  0.60389700  0.86490200  1.0
  Y  Y10  1  0.50000600  0.05532300  0.80459400  1.0
  Y  Y11  1  0.50001300  0.16611900  0.91065400  1.0
  Y  Y12  1  0.49999800  0.50384800  0.74867400  1.0
  Y  Y13  1  0.49999700  0.94172400  0.69529300  1.0
  Y  Y14  1  0.49998700  0.39068700  0.63801100  1.0
  Y  Y15  1  0.49997200  0.84172300  0.58069300  1.0
  Y  Y16  1  0.49997400  0.26243200  0.53627400  1.0
  Y  Y17  1  0.50003000  0.73232900  0.97199800  1.0
