# generated using pymatgen
data_Y
_symmetry_space_group_name_H-M   'P 1'
_cell_length_a   3.58122432
_cell_length_b   3.58122432
_cell_length_c   35.11145847
_cell_angle_alpha   90.00000000
_cell_angle_beta   90.00000000
_cell_angle_gamma   120.00000000
_symmetry_Int_Tables_number   1
_chemical_formula_structural   Y
_chemical_formula_sum   Y6
_cell_volume   389.98019456
_cell_formula_units_Z   6
loop_
 _symmetry_equiv_pos_site_id
 _symmetry_equiv_pos_as_xyz
  1  'x, y, z'
loop_
 _atom_site_type_symbol
 _atom_site_label
 _atom_site_symmetry_multiplicity
 _atom_site_fract_x
 _atom_site_fract_y
 _atom_site_fract_z
 _atom_site_occupancy
  Y  Y0  1  0.33333333  0.66666667  0.37511200  1.0
  Y  Y1  1  0.66666667  0.33333333  0.29517700  1.0
  Y  Y2  1  0.66666667  0.33333333  0.45846000  1.0
  Y  Y3  1  0.33333333  0.66666667  0.62488800  1.0
  Y  Y4  1  0.00000000  0.00000000  0.54154000  1.0
  Y  Y5  1  0.00000000  0.00000000  0.70482300  1.0
