# generated using pymatgen
data_Y
_symmetry_space_group_name_H-M   'P 1'
_cell_length_a   3.57982849
_cell_length_b   8.00474175
_cell_length_c   27.95935964
_cell_angle_alpha   86.71745337
_cell_angle_beta   86.32950274
_cell_angle_gamma   77.07903673
_symmetry_Int_Tables_number   1
_chemical_formula_structural   Y
_chemical_formula_sum   Y12
_cell_volume   778.54387693
_cell_formula_units_Z   12
loop_
 _symmetry_equiv_pos_site_id
 _symmetry_equiv_pos_as_xyz
  1  'x, y, z'
loop_
 _atom_site_type_symbol
 _atom_site_label
 _atom_site_symmetry_multiplicity
 _atom_site_fract_x
 _atom_site_fract_y
 _atom_site_fract_z
 _atom_site_occupancy
  Y  Y0  1  0.65849800  0.40461500  0.27838700  1.0
  Y  Y1  1  0.33457300  0.02205700  0.30880000  1.0
  Y  Y2  1  0.99937500  0.52124700  0.48000300  1.0
  Y  Y3  1  0.99855100  0.64516700  0.35773100  1.0
  Y  Y4  1  0.67018100  0.26610100  0.39353500  1.0
  Y  Y5  1  0.33504400  0.89260500  0.43731000  1.0
  Y  Y6  1  0.66729100  0.14541900  0.51999700  1.0
  Y  Y7  1  0.33162400  0.77406300  0.56269000  1.0
  Y  Y8  1  0.00816800  0.26205100  0.72161300  1.0
  Y  Y9  1  0.99648500  0.40056500  0.60646500  1.0
  Y  Y10  1  0.66811500  0.02149900  0.64226900  1.0
  Y  Y11  1  0.33209500  0.64461100  0.69120000  1.0
