# generated using pymatgen
data_Y
_symmetry_space_group_name_H-M   'P 1'
_cell_length_a   3.57982849
_cell_length_b   16.79088728
_cell_length_c   35.07501959
_cell_angle_alpha   100.02498786
_cell_angle_beta   90.00000000
_cell_angle_gamma   90.00000000
_symmetry_Int_Tables_number   1
_chemical_formula_structural   Y
_chemical_formula_sum   Y32
_cell_volume   2076.11691899
_cell_formula_units_Z   32
loop_
 _symmetry_equiv_pos_site_id
 _symmetry_equiv_pos_as_xyz
  1  'x, y, z'
loop_
 _atom_site_type_symbol
 _atom_site_label
 _atom_site_symmetry_multiplicity
 _atom_site_fract_x
 _atom_site_fract_y
 _atom_site_fract_z
 _atom_site_occupancy
  Y  Y0  1  0.00000000  0.63385100  0.72481300  1.0
  Y  Y1  1  0.00000000  0.87111700  0.65767700  1.0
  Y  Y2  1  0.00000000  0.24793400  0.69481000  1.0
  Y  Y3  1  0.00000000  0.50012400  0.63341900  1.0
  Y  Y4  1  0.00000000  0.74847300  0.56806100  1.0
  Y  Y5  1  0.00000000  0.00158400  0.50879500  1.0
  Y  Y6  1  0.00000000  0.12194600  0.60557800  1.0
  Y  Y7  1  0.00000000  0.37562800  0.53958000  1.0
  Y  Y8  1  0.50000000  0.68773100  0.64807200  1.0
  Y  Y9  1  0.50000000  0.93711000  0.58475900  1.0
  Y  Y10  1  0.50000000  0.31074000  0.61949600  1.0
  Y  Y11  1  0.50000000  0.56206000  0.55362900  1.0
  Y  Y12  1  0.50000000  0.82052200  0.73337700  1.0
  Y  Y13  1  0.50000000  0.05530900  0.68289100  1.0
  Y  Y14  1  0.50000000  0.18818500  0.52573600  1.0
  Y  Y15  1  0.50000000  0.43966300  0.70852700  1.0
  Y  Y16  1  0.00000000  0.62431500  0.47426400  1.0
  Y  Y17  1  0.00000000  0.87539000  0.41524100  1.0
  Y  Y18  1  0.00000000  0.25044000  0.44637000  1.0
  Y  Y19  1  0.00000000  0.50176000  0.38050400  1.0
  Y  Y20  1  0.00000000  0.75719100  0.31710900  1.0
  Y  Y21  1  0.00000000  0.99197800  0.26662300  1.0
  Y  Y22  1  0.00000000  0.12476900  0.35192800  1.0
  Y  Y23  1  0.00000000  0.37283700  0.29147300  1.0
  Y  Y24  1  0.50000000  0.69055400  0.39442200  1.0
  Y  Y25  1  0.50000000  0.94138300  0.34232300  1.0
  Y  Y26  1  0.50000000  0.31237600  0.36658000  1.0
  Y  Y27  1  0.50000000  0.56456600  0.30518900  1.0
  Y  Y28  1  0.50000000  0.81091600  0.49120500  1.0
  Y  Y29  1  0.50000000  0.06402700  0.43193900  1.0
  Y  Y30  1  0.50000000  0.17864900  0.27518700  1.0
  Y  Y31  1  0.50000000  0.43687200  0.46041900  1.0
