# generated using pymatgen
data_Y
_symmetry_space_group_name_H-M   'P 1'
_cell_length_a   3.58053984
_cell_length_b   6.20057473
_cell_length_c   27.47780536
_cell_angle_alpha   92.11018605
_cell_angle_beta   90.00000000
_cell_angle_gamma   106.78171887
_symmetry_Int_Tables_number   1
_chemical_formula_structural   Y
_chemical_formula_sum   Y9
_cell_volume   583.63293530
_cell_formula_units_Z   9
loop_
 _symmetry_equiv_pos_site_id
 _symmetry_equiv_pos_as_xyz
  1  'x, y, z'
loop_
 _atom_site_type_symbol
 _atom_site_label
 _atom_site_symmetry_multiplicity
 _atom_site_fract_x
 _atom_site_fract_y
 _atom_site_fract_z
 _atom_site_occupancy
  Y  Y0  1  0.61002700  0.22005300  0.38595300  1.0
  Y  Y1  1  0.05615400  0.11230600  0.28105200  1.0
  Y  Y2  1  0.33493200  0.66986500  0.33408300  1.0
  Y  Y3  1  0.44533900  0.89067800  0.55617700  1.0
  Y  Y4  1  0.88799400  0.77598900  0.44382300  1.0
  Y  Y5  1  0.16666700  0.33333333  0.50000000  1.0
  Y  Y6  1  0.27718000  0.55436100  0.71894800  1.0
  Y  Y7  1  0.72330600  0.44661400  0.61404700  1.0
  Y  Y8  1  0.99840100  0.99680200  0.66591800  1.0
