# generated using pymatgen
data_Y
_symmetry_space_group_name_H-M   'P 1'
_cell_length_a   6.19945590
_cell_length_b   8.00388056
_cell_length_c   24.53134099
_cell_angle_alpha   93.76256808
_cell_angle_beta   94.86004599
_cell_angle_gamma   104.97839438
_symmetry_Int_Tables_number   1
_chemical_formula_structural   Y
_chemical_formula_sum   Y18
_cell_volume   1166.79932190
_cell_formula_units_Z   18
loop_
 _symmetry_equiv_pos_site_id
 _symmetry_equiv_pos_as_xyz
  1  'x, y, z'
loop_
 _atom_site_type_symbol
 _atom_site_label
 _atom_site_symmetry_multiplicity
 _atom_site_fract_x
 _atom_site_fract_y
 _atom_site_fract_z
 _atom_site_occupancy
  Y  Y0  1  0.20956200  0.80463600  0.40032300  1.0
  Y  Y1  1  0.88069300  0.92252200  0.29584000  1.0
  Y  Y2  1  0.04138900  0.36130700  0.35144100  1.0
  Y  Y3  1  0.45333400  0.13670900  0.31632500  1.0
  Y  Y4  1  0.62465300  0.58537900  0.37558700  1.0
  Y  Y5  1  0.29108000  0.68295000  0.27119200  1.0
  Y  Y6  1  0.70905800  0.13687300  0.57162800  1.0
  Y  Y7  1  0.37389200  0.24995200  0.45679600  1.0
  Y  Y8  1  0.54299400  0.69466100  0.51342800  1.0
  Y  Y9  1  0.95700600  0.47200600  0.48657200  1.0
  Y  Y10  1  0.12610800  0.91671500  0.54320400  1.0
  Y  Y11  1  0.79094200  0.02979400  0.42837200  1.0
  Y  Y12  1  0.20892000  0.48371700  0.72880800  1.0
  Y  Y13  1  0.87534700  0.58128700  0.62441300  1.0
  Y  Y14  1  0.04666600  0.02995800  0.68367500  1.0
  Y  Y15  1  0.45861100  0.80536000  0.64855900  1.0
  Y  Y16  1  0.61930700  0.24414500  0.70416000  1.0
  Y  Y17  1  0.29043800  0.36203100  0.59967700  1.0
