# generated using pymatgen
data_Y
_symmetry_space_group_name_H-M   'P 1'
_cell_length_a   3.58558363
_cell_length_b   14.77687232
_cell_length_c   22.92941164
_cell_angle_alpha   74.67371142
_cell_angle_beta   89.99992585
_cell_angle_gamma   89.99990681
_symmetry_Int_Tables_number   1
_chemical_formula_structural   Y
_chemical_formula_sum   Y18
_cell_volume   1171.67944811
_cell_formula_units_Z   18
loop_
 _symmetry_equiv_pos_site_id
 _symmetry_equiv_pos_as_xyz
  1  'x, y, z'
loop_
 _atom_site_type_symbol
 _atom_site_label
 _atom_site_symmetry_multiplicity
 _atom_site_fract_x
 _atom_site_fract_y
 _atom_site_fract_z
 _atom_site_occupancy
  Y  Y0  1  0.00000000  0.40251700  0.40178500  1.0
  Y  Y1  1  0.00000000  0.56953100  0.57129300  1.0
  Y  Y2  1  0.99999900  0.73874700  0.72804000  1.0
  Y  Y3  1  0.00000000  0.01299400  0.34785100  1.0
  Y  Y4  1  0.00000000  0.17924900  0.51769200  1.0
  Y  Y5  1  0.00000000  0.34940700  0.67579600  1.0
  Y  Y6  1  0.00000100  0.62012000  0.29279400  1.0
  Y  Y7  1  0.00000000  0.79104400  0.45605000  1.0
  Y  Y8  1  0.00000000  0.95770300  0.61903500  1.0
  Y  Y9  1  0.50000000  0.20895800  0.38098000  1.0
  Y  Y10  1  0.50000100  0.37558500  0.54394000  1.0
  Y  Y11  1  0.50000000  0.54653900  0.70713800  1.0
  Y  Y12  1  0.50000000  0.81717600  0.32424800  1.0
  Y  Y13  1  0.50000000  0.98738900  0.48239800  1.0
  Y  Y14  1  0.50000000  0.15364200  0.65217100  1.0
  Y  Y15  1  0.50000100  0.42798000  0.27196200  1.0
  Y  Y16  1  0.50000000  0.59716900  0.42860700  1.0
  Y  Y17  1  0.50000000  0.76425200  0.59822100  1.0
