# generated using pymatgen
data_Y
_symmetry_space_group_name_H-M   'P 1'
_cell_length_a   3.57807700
_cell_length_b   3.57807700
_cell_length_c   40.48132600
_cell_angle_alpha   90.00000000
_cell_angle_beta   90.00000000
_cell_angle_gamma   90.00000000
_symmetry_Int_Tables_number   1
_chemical_formula_structural   Y
_chemical_formula_sum   Y8
_cell_volume   518.26764182
_cell_formula_units_Z   8
loop_
 _symmetry_equiv_pos_site_id
 _symmetry_equiv_pos_as_xyz
  1  'x, y, z'
loop_
 _atom_site_type_symbol
 _atom_site_label
 _atom_site_symmetry_multiplicity
 _atom_site_fract_x
 _atom_site_fract_y
 _atom_site_fract_z
 _atom_site_occupancy
  Y  Y0  1  0.00000000  0.00000000  0.65789400  1.0
  Y  Y1  1  0.50000000  0.50000000  0.71656900  1.0
  Y  Y2  1  0.00000000  0.00000000  0.53160200  1.0
  Y  Y3  1  0.50000000  0.50000000  0.59408800  1.0
  Y  Y4  1  0.00000000  0.00000000  0.40591200  1.0
  Y  Y5  1  0.50000000  0.50000000  0.46839800  1.0
  Y  Y6  1  0.00000000  0.00000000  0.28343100  1.0
  Y  Y7  1  0.50000000  0.50000000  0.34210600  1.0
