# generated using pymatgen
data_Ac
_symmetry_space_group_name_H-M   'P 1'
_cell_length_a   4.01086800
_cell_length_b   16.53723336
_cell_length_c   39.29832200
_cell_angle_alpha   101.42175297
_cell_angle_beta   90.00000000
_cell_angle_gamma   90.00000000
_symmetry_Int_Tables_number   1
_chemical_formula_structural   Ac
_chemical_formula_sum   Ac28
_cell_volume   2554.98399540
_cell_formula_units_Z   28
loop_
 _symmetry_equiv_pos_site_id
 _symmetry_equiv_pos_as_xyz
  1  'x, y, z'
loop_
 _atom_site_type_symbol
 _atom_site_label
 _atom_site_symmetry_multiplicity
 _atom_site_fract_x
 _atom_site_fract_y
 _atom_site_fract_z
 _atom_site_occupancy
  Ac  Ac0  1  0.00000000  0.42486200  0.27894700  1.0
  Ac  Ac1  1  0.00000000  0.28701000  0.34927000  1.0
  Ac  Ac2  1  0.00000000  0.99849600  0.49023600  1.0
  Ac  Ac3  1  0.00000000  0.85610100  0.31289500  1.0
  Ac  Ac4  1  0.00000000  0.71480600  0.38260000  1.0
  Ac  Ac5  1  0.00000000  0.57150600  0.45554200  1.0
  Ac  Ac6  1  0.00000000  0.14423700  0.42109700  1.0
  Ac  Ac7  1  0.50000000  0.49886000  0.36436100  1.0
  Ac  Ac8  1  0.50000000  0.35810600  0.43858900  1.0
  Ac  Ac9  1  0.50000000  0.07513000  0.33430700  1.0
  Ac  Ac10  1  0.50000000  0.92760900  0.39966700  1.0
  Ac  Ac11  1  0.50000000  0.78543400  0.47290700  1.0
  Ac  Ac12  1  0.50000000  0.64293100  0.29743900  1.0
  Ac  Ac13  1  0.50000000  0.21876800  0.26591400  1.0
  Ac  Ac14  1  0.00000000  0.42885100  0.52709300  1.0
  Ac  Ac15  1  0.00000000  0.28667600  0.60033300  1.0
  Ac  Ac16  1  0.00000000  0.99551800  0.73408600  1.0
  Ac  Ac17  1  0.00000000  0.85618000  0.56141100  1.0
  Ac  Ac18  1  0.00000000  0.71542600  0.63563900  1.0
  Ac  Ac19  1  0.00000000  0.57135500  0.70256100  1.0
  Ac  Ac20  1  0.00000000  0.13915600  0.66569300  1.0
  Ac  Ac21  1  0.50000000  0.49948000  0.61740000  1.0
  Ac  Ac22  1  0.50000000  0.35818500  0.68710500  1.0
  Ac  Ac23  1  0.50000000  0.07004900  0.57890300  1.0
  Ac  Ac24  1  0.50000000  0.92727500  0.65073000  1.0
  Ac  Ac25  1  0.50000000  0.78942300  0.72105300  1.0
  Ac  Ac26  1  0.50000000  0.64278000  0.54445800  1.0
  Ac  Ac27  1  0.50000000  0.21579000  0.50976400  1.0
