# generated using pymatgen
data_Mg
_symmetry_space_group_name_H-M   'P 1'
_cell_length_a   3.18910000
_cell_length_b   3.18909947
_cell_length_c   41.37114800
_cell_angle_alpha   90.00000000
_cell_angle_beta   90.00000000
_cell_angle_gamma   120.00000553
_symmetry_Int_Tables_number   1
_chemical_formula_structural   Mg
_chemical_formula_sum   Mg8
_cell_volume   364.38826534
_cell_formula_units_Z   8
loop_
 _symmetry_equiv_pos_site_id
 _symmetry_equiv_pos_as_xyz
  1  'x, y, z'
loop_
 _atom_site_type_symbol
 _atom_site_label
 _atom_site_symmetry_multiplicity
 _atom_site_fract_x
 _atom_site_fract_y
 _atom_site_fract_z
 _atom_site_occupancy
  Mg  Mg0  1  0.33333333  0.66666667  0.28086100  1.0
  Mg  Mg1  1  0.66666667  0.33333333  0.34379500  1.0
  Mg  Mg2  1  0.33333333  0.66666667  0.40639300  1.0
  Mg  Mg3  1  0.66666667  0.33333333  0.46875700  1.0
  Mg  Mg4  1  0.33333333  0.66666667  0.53124300  1.0
  Mg  Mg5  1  0.66666667  0.33333333  0.59360700  1.0
  Mg  Mg6  1  0.33333333  0.66666667  0.65620400  1.0
  Mg  Mg7  1  0.66666667  0.33333333  0.71913900  1.0
