# generated using pymatgen
data_Ac
_symmetry_space_group_name_H-M   'P 1'
_cell_length_a   4.01086800
_cell_length_b   4.01086836
_cell_length_c   39.29832200
_cell_angle_alpha   90.00000000
_cell_angle_beta   90.00000000
_cell_angle_gamma   119.99999699
_symmetry_Int_Tables_number   1
_chemical_formula_structural   Ac
_chemical_formula_sum   Ac6
_cell_volume   547.49660355
_cell_formula_units_Z   6
loop_
 _symmetry_equiv_pos_site_id
 _symmetry_equiv_pos_as_xyz
  1  'x, y, z'
loop_
 _atom_site_type_symbol
 _atom_site_label
 _atom_site_symmetry_multiplicity
 _atom_site_fract_x
 _atom_site_fract_y
 _atom_site_fract_z
 _atom_site_occupancy
  Ac  Ac0  1  0.33333333  0.66666667  0.29524000  1.0
  Ac  Ac1  1  0.00000000  0.00000000  0.45896100  1.0
  Ac  Ac2  1  0.66666667  0.33333333  0.37476400  1.0
  Ac  Ac3  1  0.33333333  0.66666667  0.54103900  1.0
  Ac  Ac4  1  0.00000000  0.00000000  0.70476000  1.0
  Ac  Ac5  1  0.66666667  0.33333333  0.62523600  1.0
