# generated using pymatgen
data_Ac
_symmetry_space_group_name_H-M   'P 1'
_cell_length_a   4.01086846
_cell_length_b   8.96857356
_cell_length_c   31.32588200
_cell_angle_alpha   86.71745798
_cell_angle_beta   86.32949693
_cell_angle_gamma   77.07903099
_symmetry_Int_Tables_number   1
_chemical_formula_structural   Ac
_chemical_formula_sum   Ac12
_cell_volume   1094.99319055
_cell_formula_units_Z   12
loop_
 _symmetry_equiv_pos_site_id
 _symmetry_equiv_pos_as_xyz
  1  'x, y, z'
loop_
 _atom_site_type_symbol
 _atom_site_label
 _atom_site_symmetry_multiplicity
 _atom_site_fract_x
 _atom_site_fract_y
 _atom_site_fract_z
 _atom_site_occupancy
  Ac  Ac0  1  0.65921600  0.40184200  0.27972500  1.0
  Ac  Ac1  1  0.33407800  0.01924900  0.31259500  1.0
  Ac  Ac2  1  0.00035600  0.51954300  0.47974400  1.0
  Ac  Ac3  1  0.00011000  0.63987000  0.35991000  1.0
  Ac  Ac4  1  0.67025700  0.26502400  0.39446100  1.0
  Ac  Ac5  1  0.33296400  0.89684800  0.43722400  1.0
  Ac  Ac6  1  0.66631100  0.14712300  0.52025600  1.0
  Ac  Ac7  1  0.33370200  0.76981800  0.56277600  1.0
  Ac  Ac8  1  0.00745100  0.26482400  0.72027500  1.0
  Ac  Ac9  1  0.99640900  0.40164200  0.60553900  1.0
  Ac  Ac10  1  0.66655700  0.02679600  0.64009000  1.0
  Ac  Ac11  1  0.33258800  0.64741700  0.68740500  1.0
