# generated using pymatgen
data_Ac
_symmetry_space_group_name_H-M   'P 1'
_cell_length_a   5.67222400
_cell_length_b   8.96857344
_cell_length_c   32.33665300
_cell_angle_alpha   93.17983047
_cell_angle_beta   90.00000000
_cell_angle_gamma   90.00000000
_symmetry_Int_Tables_number   1
_chemical_formula_structural   Ac
_chemical_formula_sum   Ac18
_cell_volume   1642.48961619
_cell_formula_units_Z   18
loop_
 _symmetry_equiv_pos_site_id
 _symmetry_equiv_pos_as_xyz
  1  'x, y, z'
loop_
 _atom_site_type_symbol
 _atom_site_label
 _atom_site_symmetry_multiplicity
 _atom_site_fract_x
 _atom_site_fract_y
 _atom_site_fract_z
 _atom_site_occupancy
  Ac  Ac0  1  0.00000000  0.98692000  0.34889800  1.0
  Ac  Ac1  1  0.00000000  0.37137800  0.29725500  1.0
  Ac  Ac2  1  0.00000000  0.59818500  0.40374000  1.0
  Ac  Ac3  1  0.50000000  0.67856700  0.32402900  1.0
  Ac  Ac4  1  0.50000000  0.07251100  0.27088300  1.0
  Ac  Ac5  1  0.50000000  0.29209600  0.37519000  1.0
  Ac  Ac6  1  0.00000000  0.81982600  0.51386000  1.0
  Ac  Ac7  1  0.00000000  0.20825700  0.45826200  1.0
  Ac  Ac8  1  0.00000000  0.42975100  0.56960500  1.0
  Ac  Ac9  1  0.50000000  0.51350700  0.48614000  1.0
  Ac  Ac10  1  0.50000000  0.90358300  0.43039500  1.0
  Ac  Ac11  1  0.50000000  0.12507600  0.54173800  1.0
  Ac  Ac12  1  0.00000000  0.65476700  0.67597100  1.0
  Ac  Ac13  1  0.00000000  0.04123800  0.62481000  1.0
  Ac  Ac14  1  0.00000000  0.26082200  0.72911700  1.0
  Ac  Ac15  1  0.50000000  0.34641300  0.65110200  1.0
  Ac  Ac16  1  0.50000000  0.73514800  0.59626000  1.0
  Ac  Ac17  1  0.50000000  0.96195500  0.70274500  1.0
