# generated using pymatgen
data_Ac
_symmetry_space_group_name_H-M   'P 1'
_cell_length_a   4.01086800
_cell_length_b   5.67222400
_cell_length_c   32.08694500
_cell_angle_alpha   90.00000000
_cell_angle_beta   90.00000000
_cell_angle_gamma   90.00000000
_symmetry_Int_Tables_number   1
_chemical_formula_structural   Ac
_chemical_formula_sum   Ac8
_cell_volume   729.99538122
_cell_formula_units_Z   8
loop_
 _symmetry_equiv_pos_site_id
 _symmetry_equiv_pos_as_xyz
  1  'x, y, z'
loop_
 _atom_site_type_symbol
 _atom_site_label
 _atom_site_symmetry_multiplicity
 _atom_site_fract_x
 _atom_site_fract_y
 _atom_site_fract_z
 _atom_site_occupancy
  Ac  Ac0  1  0.00000000  0.00000000  0.65459900  1.0
  Ac  Ac1  1  0.00000000  0.00000000  0.53104000  1.0
  Ac  Ac2  1  0.50000000  0.50000000  0.71571400  1.0
  Ac  Ac3  1  0.50000000  0.50000000  0.59581100  1.0
  Ac  Ac4  1  0.00000000  0.00000000  0.40418900  1.0
  Ac  Ac5  1  0.00000000  0.00000000  0.28428600  1.0
  Ac  Ac6  1  0.50000000  0.50000000  0.46896000  1.0
  Ac  Ac7  1  0.50000000  0.50000000  0.34540100  1.0
