# generated using pymatgen
data_Ac
_symmetry_space_group_name_H-M   'P 1'
_cell_length_a   4.01086800
_cell_length_b   18.81263872
_cell_length_c   39.29832200
_cell_angle_alpha   100.02498771
_cell_angle_beta   90.00000000
_cell_angle_gamma   90.00000000
_symmetry_Int_Tables_number   1
_chemical_formula_structural   Ac
_chemical_formula_sum   Ac32
_cell_volume   2919.98157394
_cell_formula_units_Z   32
loop_
 _symmetry_equiv_pos_site_id
 _symmetry_equiv_pos_as_xyz
  1  'x, y, z'
loop_
 _atom_site_type_symbol
 _atom_site_label
 _atom_site_symmetry_multiplicity
 _atom_site_fract_x
 _atom_site_fract_y
 _atom_site_fract_z
 _atom_site_occupancy
  Ac  Ac0  1  0.00000000  0.63152900  0.72404300  1.0
  Ac  Ac1  1  0.00000000  0.87083600  0.65869600  1.0
  Ac  Ac2  1  0.00000000  0.24939900  0.69305900  1.0
  Ac  Ac3  1  0.00000000  0.49999200  0.63365300  1.0
  Ac  Ac4  1  0.00000000  0.74825400  0.56886900  1.0
  Ac  Ac5  1  0.00000000  0.00060500  0.50809300  1.0
  Ac  Ac6  1  0.00000000  0.12228600  0.60512300  1.0
  Ac  Ac7  1  0.00000000  0.37524700  0.53898500  1.0
  Ac  Ac8  1  0.50000000  0.68726400  0.64811500  1.0
  Ac  Ac9  1  0.50000000  0.93838500  0.58494900  1.0
  Ac  Ac10  1  0.50000000  0.31131500  0.61858300  1.0
  Ac  Ac11  1  0.50000000  0.56192600  0.55345700  1.0
  Ac  Ac12  1  0.50000000  0.81654500  0.73414000  1.0
  Ac  Ac13  1  0.50000000  0.05798500  0.68119800  1.0
  Ac  Ac14  1  0.50000000  0.18737900  0.52512000  1.0
  Ac  Ac15  1  0.50000000  0.43880800  0.70837300  1.0
  Ac  Ac16  1  0.00000000  0.62512100  0.47488000  1.0
  Ac  Ac17  1  0.00000000  0.87411500  0.41505100  1.0
  Ac  Ac18  1  0.00000000  0.25057400  0.44654300  1.0
  Ac  Ac19  1  0.00000000  0.50118500  0.38141700  1.0
  Ac  Ac20  1  0.00000000  0.75451500  0.31880200  1.0
  Ac  Ac21  1  0.00000000  0.99595500  0.26586000  1.0
  Ac  Ac22  1  0.00000000  0.12523600  0.35188500  1.0
  Ac  Ac23  1  0.00000000  0.37369200  0.29162700  1.0
  Ac  Ac24  1  0.50000000  0.69021400  0.39487700  1.0
  Ac  Ac25  1  0.50000000  0.94166400  0.34130400  1.0
  Ac  Ac26  1  0.50000000  0.31250800  0.36634700  1.0
  Ac  Ac27  1  0.50000000  0.56310100  0.30694100  1.0
  Ac  Ac28  1  0.50000000  0.81189500  0.49190700  1.0
  Ac  Ac29  1  0.50000000  0.06424600  0.43113100  1.0
  Ac  Ac30  1  0.50000000  0.18097100  0.27595800  1.0
  Ac  Ac31  1  0.50000000  0.43725300  0.46101500  1.0
