# generated using pymatgen
data_Li
_symmetry_space_group_name_H-M   'P 1'
_cell_length_a   3.42988700
_cell_length_b   5.69094018
_cell_length_c   21.70558483
_cell_angle_alpha   90.00000159
_cell_angle_beta   90.00000000
_cell_angle_gamma   107.53847488
_symmetry_Int_Tables_number   1
_chemical_formula_structural   Li
_chemical_formula_sum   Li10
_cell_volume   403.98269908
_cell_formula_units_Z   10
loop_
 _symmetry_equiv_pos_site_id
 _symmetry_equiv_pos_as_xyz
  1  'x, y, z'
loop_
 _atom_site_type_symbol
 _atom_site_label
 _atom_site_symmetry_multiplicity
 _atom_site_fract_x
 _atom_site_fract_y
 _atom_site_fract_z
 _atom_site_occupancy
  Li  Li0  1  0.67858300  0.35716600  0.44565400  1.0
  Li  Li1  1  0.40567900  0.81135700  0.40819500  1.0
  Li  Li2  1  0.09613700  0.19227400  0.34350800  1.0
  Li  Li3  1  0.80722000  0.61443900  0.30954700  1.0
  Li  Li4  1  0.49300300  0.98600700  0.24320300  1.0
  Li  Li5  1  0.20699700  0.41399300  0.20679700  1.0
  Li  Li6  1  0.89278000  0.78556100  0.14045300  1.0
  Li  Li7  1  0.60386300  0.20772600  0.10649200  1.0
  Li  Li8  1  0.29432100  0.58864300  0.04180500  1.0
  Li  Li9  1  0.02141700  0.04283400  0.00434600  1.0
