# generated using pymatgen
data_Ac
_symmetry_space_group_name_H-M   'P 1'
_cell_length_a   5.67222368
_cell_length_b   10.61175976
_cell_length_c   31.83527900
_cell_angle_alpha   81.78678755
_cell_angle_beta   84.88890876
_cell_angle_gamma   74.49863924
_symmetry_Int_Tables_number   1
_chemical_formula_structural   Ac
_chemical_formula_sum   Ac20
_cell_volume   1824.98842562
_cell_formula_units_Z   20
loop_
 _symmetry_equiv_pos_site_id
 _symmetry_equiv_pos_as_xyz
  1  'x, y, z'
loop_
 _atom_site_type_symbol
 _atom_site_label
 _atom_site_symmetry_multiplicity
 _atom_site_fract_x
 _atom_site_fract_y
 _atom_site_fract_z
 _atom_site_occupancy
  Ac  Ac0  1  0.39960200  0.76311200  0.43768300  1.0
  Ac  Ac1  1  0.19838000  0.26373500  0.33950600  1.0
  Ac  Ac2  1  0.99982400  0.51286200  0.48749000  1.0
  Ac  Ac3  1  0.79864200  0.01575000  0.38696700  1.0
  Ac  Ac4  1  0.59996600  0.50927200  0.29079500  1.0
  Ac  Ac5  1  0.00027100  0.63541200  0.36404600  1.0
  Ac  Ac6  1  0.79653600  0.13846400  0.26846400  1.0
  Ac  Ac7  1  0.60015300  0.38874100  0.41095200  1.0
  Ac  Ac8  1  0.39411900  0.89333500  0.31842700  1.0
  Ac  Ac9  1  0.20038400  0.13723300  0.46199800  1.0
  Ac  Ac10  1  0.40588100  0.50666500  0.68157300  1.0
  Ac  Ac11  1  0.19984700  0.01125900  0.58904800  1.0
  Ac  Ac12  1  0.00346400  0.26153600  0.73153600  1.0
  Ac  Ac13  1  0.79972900  0.76458800  0.63595400  1.0
  Ac  Ac14  1  0.59961600  0.26276700  0.53800200  1.0
  Ac  Ac15  1  0.00135800  0.38425000  0.61303300  1.0
  Ac  Ac16  1  0.80017600  0.88713800  0.51251000  1.0
  Ac  Ac17  1  0.60162000  0.13626500  0.66049400  1.0
  Ac  Ac18  1  0.40039800  0.63688800  0.56231700  1.0
  Ac  Ac19  1  0.20003400  0.89072800  0.70920500  1.0
