# generated using pymatgen
data_Ac
_symmetry_space_group_name_H-M   'P 1'
_cell_length_a   4.01086800
_cell_length_b   6.94702725
_cell_length_c   30.80806300
_cell_angle_alpha   92.15381223
_cell_angle_beta   90.00000000
_cell_angle_gamma   106.77865466
_symmetry_Int_Tables_number   1
_chemical_formula_structural   Ac
_chemical_formula_sum   Ac9
_cell_volume   821.24481526
_cell_formula_units_Z   9
loop_
 _symmetry_equiv_pos_site_id
 _symmetry_equiv_pos_as_xyz
  1  'x, y, z'
loop_
 _atom_site_type_symbol
 _atom_site_label
 _atom_site_symmetry_multiplicity
 _atom_site_fract_x
 _atom_site_fract_y
 _atom_site_fract_z
 _atom_site_occupancy
  Ac  Ac0  1  0.60913400  0.21826700  0.38797300  1.0
  Ac  Ac1  1  0.05866900  0.11733700  0.28338700  1.0
  Ac  Ac2  1  0.33580900  0.67162000  0.33637900  1.0
  Ac  Ac3  1  0.44456800  0.88913600  0.55540500  1.0
  Ac  Ac4  1  0.88876500  0.77753100  0.44459500  1.0
  Ac  Ac5  1  0.16666700  0.33333333  0.50000000  1.0
  Ac  Ac6  1  0.27466500  0.54933000  0.71661300  1.0
  Ac  Ac7  1  0.72419900  0.44839900  0.61202700  1.0
  Ac  Ac8  1  0.99752400  0.99504700  0.66362100  1.0
