# generated using pymatgen
data_Pt
_symmetry_space_group_name_H-M   'P 1'
_cell_length_a   2.81171819
_cell_length_b   3.97630200
_cell_length_c   22.49373988
_cell_angle_alpha   90.00000000
_cell_angle_beta   90.00000000
_cell_angle_gamma   90.00000000
_symmetry_Int_Tables_number   1
_chemical_formula_structural   Pt
_chemical_formula_sum   Pt8
_cell_volume   251.48542525
_cell_formula_units_Z   8
loop_
 _symmetry_equiv_pos_site_id
 _symmetry_equiv_pos_as_xyz
  1  'x, y, z'
loop_
 _atom_site_type_symbol
 _atom_site_label
 _atom_site_symmetry_multiplicity
 _atom_site_fract_x
 _atom_site_fract_y
 _atom_site_fract_z
 _atom_site_occupancy
  Pt  Pt0  1  0.00000000  0.00000000  0.87394200  1.0
  Pt  Pt1  1  0.00000000  0.00000000  0.99427100  1.0
  Pt  Pt2  1  0.50000000  0.50000000  0.94153700  1.0
  Pt  Pt3  1  0.50000000  0.50000000  0.81251800  1.0
  Pt  Pt4  1  0.00000000  0.00000000  0.62096300  1.0
  Pt  Pt5  1  0.00000000  0.00000000  0.74998200  1.0
  Pt  Pt6  1  0.50000000  0.50000000  0.68855800  1.0
  Pt  Pt7  1  0.50000000  0.50000000  0.56822900  1.0
