# generated using pymatgen
data_Pt
_symmetry_space_group_name_H-M   'P 1'
_cell_length_a   8.89145604
_cell_length_b   8.89145604
_cell_length_c   38.94623780
_cell_angle_alpha   89.99823499
_cell_angle_beta   89.99823499
_cell_angle_gamma   78.54528955
_symmetry_Int_Tables_number   1
_chemical_formula_structural   Pt
_chemical_formula_sum   Pt96
_cell_volume   3017.68351577
_cell_formula_units_Z   96
loop_
 _symmetry_equiv_pos_site_id
 _symmetry_equiv_pos_as_xyz
  1  'x, y, z'
loop_
 _atom_site_type_symbol
 _atom_site_label
 _atom_site_symmetry_multiplicity
 _atom_site_fract_x
 _atom_site_fract_y
 _atom_site_fract_z
 _atom_site_occupancy
  Pt  Pt0  1  0.50001900  0.50011500  0.24970300  1.0
  Pt  Pt1  1  0.41584800  0.90728800  0.03831900  1.0
  Pt  Pt2  1  0.91144000  0.41727200  0.03996100  1.0
  Pt  Pt3  1  0.83543200  0.83501200  0.08483000  1.0
  Pt  Pt4  1  0.98993600  0.97887900  0.00649000  1.0
  Pt  Pt5  1  0.33579100  0.33590700  0.08421900  1.0
  Pt  Pt6  1  0.25486700  0.75277900  0.12541600  1.0
  Pt  Pt7  1  0.75177600  0.25304700  0.12481800  1.0
  Pt  Pt8  1  0.66822700  0.66830900  0.16628000  1.0
  Pt  Pt9  1  0.16806000  0.16818000  0.16684000  1.0
  Pt  Pt10  1  0.08375800  0.58443800  0.20834000  1.0
  Pt  Pt11  1  0.58415300  0.08339000  0.20821800  1.0
  Pt  Pt12  1  0.66727500  0.66144100  0.03996100  1.0
  Pt  Pt13  1  0.58591000  0.08579000  0.08421900  1.0
  Pt  Pt14  1  0.08500800  0.58543300  0.08483000  1.0
  Pt  Pt15  1  0.00277300  0.00487000  0.12541600  1.0
  Pt  Pt16  1  0.15728600  0.16584700  0.03831900  1.0
  Pt  Pt17  1  0.50305100  0.50177200  0.12481700  1.0
  Pt  Pt18  1  0.41818100  0.91806500  0.16684000  1.0
  Pt  Pt19  1  0.91830700  0.41822200  0.16628000  1.0
  Pt  Pt20  1  0.83443700  0.83376500  0.20834000  1.0
  Pt  Pt21  1  0.33339000  0.33414700  0.20821800  1.0
  Pt  Pt22  1  0.22887800  0.73993800  0.00649000  1.0
  Pt  Pt23  1  0.75012000  0.25001500  0.24970300  1.0
  Pt  Pt24  1  0.38773500  0.61561900  0.06083300  1.0
  Pt  Pt25  1  0.29646300  0.04646400  0.10403700  1.0
  Pt  Pt26  1  0.79035800  0.54035600  0.10368000  1.0
  Pt  Pt27  1  0.70986300  0.96091000  0.14601500  1.0
  Pt  Pt28  1  0.86561900  0.13773300  0.06083300  1.0
  Pt  Pt29  1  0.21090700  0.45986000  0.14601500  1.0
  Pt  Pt30  1  0.12674600  0.87675300  0.18821300  1.0
  Pt  Pt31  1  0.62595300  0.37594700  0.18732800  1.0
  Pt  Pt32  1  0.54235800  0.79173600  0.22911700  1.0
  Pt  Pt33  1  0.04173100  0.29235200  0.22911700  1.0
  Pt  Pt34  1  0.94864400  0.69864700  0.02237600  1.0
  Pt  Pt35  1  0.44789100  0.19788800  0.02449700  1.0
  Pt  Pt36  1  0.62505800  0.37505500  0.05725700  1.0
  Pt  Pt37  1  0.54267200  0.79264200  0.10360900  1.0
  Pt  Pt38  1  0.04263800  0.29266800  0.10360900  1.0
  Pt  Pt39  1  0.96121600  0.71122100  0.14615500  1.0
  Pt  Pt40  1  0.12911500  0.87911700  0.06585400  1.0
  Pt  Pt41  1  0.46006500  0.21005900  0.14595800  1.0
  Pt  Pt42  1  0.37566200  0.62692700  0.18763700  1.0
  Pt  Pt43  1  0.87692600  0.12566100  0.18763700  1.0
  Pt  Pt44  1  0.79215800  0.54215400  0.22878800  1.0
  Pt  Pt45  1  0.29199200  0.04199600  0.22950700  1.0
  Pt  Pt46  1  0.20412600  0.44962400  0.02319800  1.0
  Pt  Pt47  1  0.69962600  0.95412700  0.02319900  1.0
  Pt  Pt48  1  0.52112200  0.51006500  0.49351000  1.0
  Pt  Pt49  1  0.41660800  0.91585200  0.29178200  1.0
  Pt  Pt50  1  0.91556500  0.41623700  0.29166100  1.0
  Pt  Pt51  1  0.83169600  0.83177700  0.33372000  1.0
  Pt  Pt52  1  0.99988100  0.99998100  0.25029700  1.0
  Pt  Pt53  1  0.33181600  0.33193400  0.33316000  1.0
  Pt  Pt54  1  0.24694700  0.74822800  0.37518300  1.0
  Pt  Pt55  1  0.74723000  0.24512800  0.37458400  1.0
  Pt  Pt56  1  0.66499500  0.66456500  0.41517100  1.0
  Pt  Pt57  1  0.16408600  0.16420900  0.41578100  1.0
  Pt  Pt58  1  0.08272600  0.58856100  0.46003800  1.0
  Pt  Pt59  1  0.59271700  0.08415300  0.46168000  1.0
  Pt  Pt60  1  0.66624200  0.66556500  0.29166100  1.0
  Pt  Pt61  1  0.58193800  0.08181600  0.33316000  1.0
  Pt  Pt62  1  0.08177200  0.58169500  0.33372000  1.0
  Pt  Pt63  1  0.99822400  0.99695200  0.37518300  1.0
  Pt  Pt64  1  0.16584600  0.16660800  0.29178200  1.0
  Pt  Pt65  1  0.49513100  0.49722500  0.37458400  1.0
  Pt  Pt66  1  0.41420900  0.91409000  0.41578100  1.0
  Pt  Pt67  1  0.91456700  0.41499200  0.41517000  1.0
  Pt  Pt68  1  0.83856300  0.83272800  0.46003800  1.0
  Pt  Pt69  1  0.33415200  0.34271400  0.46168000  1.0
  Pt  Pt70  1  0.24997700  0.74988600  0.25029800  1.0
  Pt  Pt71  1  0.76006700  0.27112100  0.49350900  1.0
  Pt  Pt72  1  0.37433600  0.62307500  0.31236400  1.0
  Pt  Pt73  1  0.28993300  0.03993800  0.35404200  1.0
  Pt  Pt74  1  0.78878500  0.53878100  0.35384500  1.0
  Pt  Pt75  1  0.70736500  0.95732800  0.39639100  1.0
  Pt  Pt76  1  0.87307500  0.12433600  0.31236300  1.0
  Pt  Pt77  1  0.20732600  0.45736100  0.39639100  1.0
  Pt  Pt78  1  0.12494100  0.87494500  0.44274300  1.0
  Pt  Pt79  1  0.62088700  0.37088400  0.43414700  1.0
  Pt  Pt80  1  0.54587300  0.80037500  0.47680100  1.0
  Pt  Pt81  1  0.05037300  0.29587200  0.47680000  1.0
  Pt  Pt82  1  0.95784300  0.70784700  0.27121300  1.0
  Pt  Pt83  1  0.45800600  0.20800300  0.27049300  1.0
  Pt  Pt84  1  0.62325300  0.37324600  0.31178700  1.0
  Pt  Pt85  1  0.53909300  0.79013900  0.35398500  1.0
  Pt  Pt86  1  0.04013700  0.28909000  0.35398500  1.0
  Pt  Pt87  1  0.95964500  0.70964700  0.39632100  1.0
  Pt  Pt88  1  0.12404600  0.87405300  0.31267100  1.0
  Pt  Pt89  1  0.45353600  0.20353400  0.39596300  1.0
  Pt  Pt90  1  0.36226500  0.63438200  0.43916700  1.0
  Pt  Pt91  1  0.88438300  0.11226700  0.43916700  1.0
  Pt  Pt92  1  0.80135500  0.55135200  0.47762400  1.0
  Pt  Pt93  1  0.30210900  0.05211200  0.47550200  1.0
  Pt  Pt94  1  0.20764000  0.45826400  0.27088300  1.0
  Pt  Pt95  1  0.70826900  0.95764600  0.27088300  1.0
