# generated using pymatgen
data_Pt
_symmetry_space_group_name_H-M   'P 1'
_cell_length_a   3.97630500
_cell_length_b   4.87000488
_cell_length_c   35.56555874
_cell_angle_alpha   90.00000066
_cell_angle_beta   90.00000000
_cell_angle_gamma   114.09459553
_symmetry_Int_Tables_number   1
_chemical_formula_structural   Pt
_chemical_formula_sum   Pt20
_cell_volume   628.70792671
_cell_formula_units_Z   20
loop_
 _symmetry_equiv_pos_site_id
 _symmetry_equiv_pos_as_xyz
  1  'x, y, z'
loop_
 _atom_site_type_symbol
 _atom_site_label
 _atom_site_symmetry_multiplicity
 _atom_site_fract_x
 _atom_site_fract_y
 _atom_site_fract_z
 _atom_site_occupancy
  Pt  Pt0  1  0.60222100  0.20444300  0.20022300  1.0
  Pt  Pt1  1  0.20140200  0.40280300  0.14959300  1.0
  Pt  Pt2  1  0.80458900  0.60917800  0.09939100  1.0
  Pt  Pt3  1  0.39094800  0.78189600  0.04750800  1.0
  Pt  Pt4  1  0.00186000  0.00372000  0.00563000  1.0
  Pt  Pt5  1  0.90236700  0.80473400  0.17499200  1.0
  Pt  Pt6  1  0.50117500  0.00235000  0.12513600  1.0
  Pt  Pt7  1  0.10210300  0.20420700  0.07650500  1.0
  Pt  Pt8  1  0.69666100  0.39332100  0.02321200  1.0
  Pt  Pt9  1  0.30089200  0.60178500  0.22460000  1.0
  Pt  Pt10  1  0.60333900  0.20667900  0.45178800  1.0
  Pt  Pt11  1  0.19789700  0.39579300  0.39849500  1.0
  Pt  Pt12  1  0.79882500  0.59765000  0.34986400  1.0
  Pt  Pt13  1  0.39763300  0.79526600  0.30000800  1.0
  Pt  Pt14  1  0.99910800  0.99821500  0.25040000  1.0
  Pt  Pt15  1  0.90905200  0.81810400  0.42749200  1.0
  Pt  Pt16  1  0.49541100  0.99082200  0.37560900  1.0
  Pt  Pt17  1  0.09859800  0.19719700  0.32540700  1.0
  Pt  Pt18  1  0.69777900  0.39555700  0.27477700  1.0
  Pt  Pt19  1  0.29814000  0.59628000  0.46937000  1.0
