# generated using pymatgen
data_Pt
_symmetry_space_group_name_H-M   'P 1'
_cell_length_a   2.81164500
_cell_length_b   2.81164525
_cell_length_c   41.32257700
_cell_angle_alpha   90.00000000
_cell_angle_beta   90.00000000
_cell_angle_gamma   120.00000879
_symmetry_Int_Tables_number   1
_chemical_formula_structural   Pt
_chemical_formula_sum   Pt9
_cell_volume   282.90394298
_cell_formula_units_Z   9
loop_
 _symmetry_equiv_pos_site_id
 _symmetry_equiv_pos_as_xyz
  1  'x, y, z'
loop_
 _atom_site_type_symbol
 _atom_site_label
 _atom_site_symmetry_multiplicity
 _atom_site_fract_x
 _atom_site_fract_y
 _atom_site_fract_z
 _atom_site_occupancy
  Pt  Pt0  1  0.66666667  0.33333333  0.33365700  1.0
  Pt  Pt1  1  0.33333333  0.66666667  0.27755900  1.0
  Pt  Pt2  1  0.00000000  0.00000000  0.38897400  1.0
  Pt  Pt3  1  0.66666667  0.33333333  0.50000000  1.0
  Pt  Pt4  1  0.33333333  0.66666667  0.44432700  1.0
  Pt  Pt5  1  0.00000000  0.00000000  0.55567300  1.0
  Pt  Pt6  1  0.66666667  0.33333333  0.66634300  1.0
  Pt  Pt7  1  0.33333333  0.66666667  0.61102600  1.0
  Pt  Pt8  1  0.00000000  0.00000000  0.72244100  1.0
