# generated using pymatgen
data_Pt
_symmetry_space_group_name_H-M   'P 1'
_cell_length_a   2.81292452
_cell_length_b   4.87096047
_cell_length_c   28.79055360
_cell_angle_alpha   88.32300526
_cell_angle_beta   87.19990110
_cell_angle_gamma   73.21721238
_symmetry_Int_Tables_number   1
_chemical_formula_structural   Pt
_chemical_formula_sum   Pt15
_cell_volume   377.17731201
_cell_formula_units_Z   15
loop_
 _symmetry_equiv_pos_site_id
 _symmetry_equiv_pos_as_xyz
  1  'x, y, z'
loop_
 _atom_site_type_symbol
 _atom_site_label
 _atom_site_symmetry_multiplicity
 _atom_site_fract_x
 _atom_site_fract_y
 _atom_site_fract_z
 _atom_site_occupancy
  Pt  Pt0  1  0.29137200  0.12403600  0.29322100  1.0
  Pt  Pt1  1  0.88921400  0.00737000  0.21420200  1.0
  Pt  Pt2  1  0.60237600  0.55022100  0.24502500  1.0
  Pt  Pt3  1  0.41453800  0.75421600  0.41671000  1.0
  Pt  Pt4  1  0.99922500  0.66883300  0.33271700  1.0
  Pt  Pt5  1  0.70577600  0.21325100  0.37519600  1.0
  Pt  Pt6  1  0.54280100  0.37269900  0.54170100  1.0
  Pt  Pt7  1  0.12386600  0.29396800  0.45829900  1.0
  Pt  Pt8  1  0.83333300  0.83333300  0.50000000  1.0
  Pt  Pt9  1  0.66744200  0.99783400  0.66728300  1.0
  Pt  Pt10  1  0.25212900  0.91245100  0.58329000  1.0
  Pt  Pt11  1  0.96089000  0.45341500  0.62480400  1.0
  Pt  Pt12  1  0.77745300  0.65929700  0.78579800  1.0
  Pt  Pt13  1  0.37529500  0.54263100  0.70677900  1.0
  Pt  Pt14  1  0.06429000  0.11644500  0.75497500  1.0
