# generated using pymatgen
data_Pt
_symmetry_space_group_name_H-M   'P 1'
_cell_length_a   3.97409700
_cell_length_b   7.44602917
_cell_length_c   22.30490322
_cell_angle_alpha   81.73759981
_cell_angle_beta   84.88898693
_cell_angle_gamma   74.52248315
_symmetry_Int_Tables_number   1
_chemical_formula_structural   Pt
_chemical_formula_sum   Pt20
_cell_volume   628.60016281
_cell_formula_units_Z   20
loop_
 _symmetry_equiv_pos_site_id
 _symmetry_equiv_pos_as_xyz
  1  'x, y, z'
loop_
 _atom_site_type_symbol
 _atom_site_label
 _atom_site_symmetry_multiplicity
 _atom_site_fract_x
 _atom_site_fract_y
 _atom_site_fract_z
 _atom_site_occupancy
  Pt  Pt0  1  0.40287600  0.75806300  0.43618500  1.0
  Pt  Pt1  1  0.19798700  0.26890300  0.33512300  1.0
  Pt  Pt2  1  0.99895700  0.51532600  0.48676000  1.0
  Pt  Pt3  1  0.79847300  0.01209400  0.39096000  1.0
  Pt  Pt4  1  0.59681100  0.51267400  0.29370400  1.0
  Pt  Pt5  1  0.99509700  0.65261500  0.35719100  1.0
  Pt  Pt6  1  0.79797500  0.13151300  0.27253700  1.0
  Pt  Pt7  1  0.60009000  0.38682700  0.41299200  1.0
  Pt  Pt8  1  0.40073200  0.88997100  0.30856400  1.0
  Pt  Pt9  1  0.20032300  0.13526200  0.46409100  1.0
  Pt  Pt10  1  0.39926800  0.51002900  0.69143600  1.0
  Pt  Pt11  1  0.19991000  0.01317300  0.58700800  1.0
  Pt  Pt12  1  0.00202500  0.26848700  0.72746300  1.0
  Pt  Pt13  1  0.80490300  0.74738500  0.64280900  1.0
  Pt  Pt14  1  0.59967600  0.26473800  0.53590900  1.0
  Pt  Pt15  1  0.00152700  0.38790600  0.60904000  1.0
  Pt  Pt16  1  0.80104300  0.88467400  0.51324000  1.0
  Pt  Pt17  1  0.60201300  0.13109700  0.66487700  1.0
  Pt  Pt18  1  0.39712400  0.64193700  0.56381500  1.0
  Pt  Pt19  1  0.20318900  0.88732600  0.70629600  1.0
