# generated using pymatgen
data_Pt
_symmetry_space_group_name_H-M   'P 1'
_cell_length_a   2.81206043
_cell_length_b   11.60844138
_cell_length_c   23.15683142
_cell_angle_alpha   93.45805196
_cell_angle_beta   90.00000000
_cell_angle_gamma   90.00000000
_symmetry_Int_Tables_number   1
_chemical_formula_structural   Pt
_chemical_formula_sum   Pt24
_cell_volume   754.54687233
_cell_formula_units_Z   24
loop_
 _symmetry_equiv_pos_site_id
 _symmetry_equiv_pos_as_xyz
  1  'x, y, z'
loop_
 _atom_site_type_symbol
 _atom_site_label
 _atom_site_symmetry_multiplicity
 _atom_site_fract_x
 _atom_site_fract_y
 _atom_site_fract_z
 _atom_site_occupancy
  Pt  Pt0  1  0.00000000  0.75126100  0.37583700  1.0
  Pt  Pt1  1  0.00000000  0.34906500  0.31317000  1.0
  Pt  Pt2  1  0.00000000  0.94527200  0.28811600  1.0
  Pt  Pt3  1  0.50000000  0.54998900  0.33437000  1.0
  Pt  Pt4  1  0.50000000  0.14649900  0.29851100  1.0
  Pt  Pt5  1  0.50000000  0.74476100  0.27509300  1.0
  Pt  Pt6  1  0.00000000  0.97991500  0.49541700  1.0
  Pt  Pt7  1  0.00000000  0.57011100  0.44599500  1.0
  Pt  Pt8  1  0.00000000  0.16495500  0.40278100  1.0
  Pt  Pt9  1  0.50000000  0.77370500  0.47833300  1.0
  Pt  Pt10  1  0.50000000  0.37007000  0.41764400  1.0
  Pt  Pt11  1  0.50000000  0.95929700  0.39318000  1.0
  Pt  Pt12  1  0.00000000  0.20740900  0.60682900  1.0
  Pt  Pt13  1  0.00000000  0.79661600  0.58235800  1.0
  Pt  Pt14  1  0.00000000  0.39302100  0.52167100  1.0
  Pt  Pt15  1  0.50000000  0.00175800  0.59721800  1.0
  Pt  Pt16  1  0.50000000  0.59658100  0.55398500  1.0
  Pt  Pt17  1  0.50000000  0.18684700  0.50458800  1.0
  Pt  Pt18  1  0.00000000  0.42180200  0.72488800  1.0
  Pt  Pt19  1  0.00000000  0.02009700  0.70149000  1.0
  Pt  Pt20  1  0.00000000  0.61666100  0.66563200  1.0
  Pt  Pt21  1  0.50000000  0.22128400  0.71189700  1.0
  Pt  Pt22  1  0.50000000  0.81757000  0.68683700  1.0
  Pt  Pt23  1  0.50000000  0.41545000  0.62416000  1.0
