# generated using pymatgen
data_Pt
_symmetry_space_group_name_H-M   'P 1'
_cell_length_a   2.81168849
_cell_length_b   6.28753169
_cell_length_c   21.96010512
_cell_angle_alpha   86.71556964
_cell_angle_beta   86.32952290
_cell_angle_gamma   77.07988049
_symmetry_Int_Tables_number   1
_chemical_formula_structural   Pt
_chemical_formula_sum   Pt12
_cell_volume   377.24973559
_cell_formula_units_Z   12
loop_
 _symmetry_equiv_pos_site_id
 _symmetry_equiv_pos_as_xyz
  1  'x, y, z'
loop_
 _atom_site_type_symbol
 _atom_site_label
 _atom_site_symmetry_multiplicity
 _atom_site_fract_x
 _atom_site_fract_y
 _atom_site_fract_z
 _atom_site_occupancy
  Pt  Pt0  1  0.67482100  0.37119400  0.27916200  1.0
  Pt  Pt1  1  0.33990600  0.00982000  0.31037100  1.0
  Pt  Pt2  1  0.99743800  0.52492100  0.48020200  1.0
  Pt  Pt3  1  0.99918600  0.65262700  0.34900100  1.0
  Pt  Pt4  1  0.66406100  0.27275700  0.39911800  1.0
  Pt  Pt5  1  0.33618600  0.89133800  0.43629200  1.0
  Pt  Pt6  1  0.66922800  0.14174500  0.51979800  1.0
  Pt  Pt7  1  0.33048200  0.77533000  0.56370800  1.0
  Pt  Pt8  1  0.99184500  0.29547200  0.72083800  1.0
  Pt  Pt9  1  0.00260500  0.39390900  0.60088200  1.0
  Pt  Pt10  1  0.66748000  0.01403900  0.65099900  1.0
  Pt  Pt11  1  0.32676200  0.65684800  0.68962900  1.0
