# generated using pymatgen
data_Li
_symmetry_space_group_name_H-M   'P 1'
_cell_length_a   4.84992207
_cell_length_b   10.86698250
_cell_length_c   29.93047368
_cell_angle_alpha   90.10548454
_cell_angle_beta   90.04203900
_cell_angle_gamma   77.08544640
_symmetry_Int_Tables_number   1
_chemical_formula_structural   Li
_chemical_formula_sum   Li38
_cell_volume   1537.55092712
_cell_formula_units_Z   38
loop_
 _symmetry_equiv_pos_site_id
 _symmetry_equiv_pos_as_xyz
  1  'x, y, z'
loop_
 _atom_site_type_symbol
 _atom_site_label
 _atom_site_symmetry_multiplicity
 _atom_site_fract_x
 _atom_site_fract_y
 _atom_site_fract_z
 _atom_site_occupancy
  Li  Li0  1  0.84499500  0.30896900  0.02800800  1.0
  Li  Li1  1  0.67795300  0.64354700  0.05858700  1.0
  Li  Li2  1  0.53049900  0.93842100  0.09189000  1.0
  Li  Li3  1  0.97614900  0.04928200  0.49616800  1.0
  Li  Li4  1  0.37172700  0.25581400  0.10070400  1.0
  Li  Li5  1  0.20051100  0.59938000  0.12662000  1.0
  Li  Li6  1  0.05245500  0.89605800  0.15603100  1.0
  Li  Li7  1  0.89633200  0.20889600  0.18022300  1.0
  Li  Li8  1  0.73825200  0.52427800  0.21104500  1.0
  Li  Li9  1  0.57587500  0.84815900  0.24075600  1.0
  Li  Li10  1  0.41897800  0.16129600  0.26454400  1.0
  Li  Li11  1  0.26400800  0.47097600  0.28870100  1.0
  Li  Li12  1  0.10723800  0.78391300  0.32070200  1.0
  Li  Li13  1  0.94998500  0.09845100  0.33795100  1.0
  Li  Li14  1  0.78884500  0.42179600  0.36090100  1.0
  Li  Li15  1  0.63361000  0.73292000  0.39605300  1.0
  Li  Li16  1  0.47114900  0.05893900  0.42481800  1.0
  Li  Li17  1  0.33114500  0.33910300  0.45781200  1.0
  Li  Li18  1  0.15827900  0.68460500  0.47260500  1.0
  Li  Li19  1  0.78761000  0.42495400  0.11709200  1.0
  Li  Li20  1  0.63247500  0.73612900  0.15227200  1.0
  Li  Li21  1  0.47116300  0.05943100  0.17524100  1.0
  Li  Li22  1  0.95000000  0.09916200  0.08835700  1.0
  Li  Li23  1  0.31375500  0.37376700  0.19251100  1.0
  Li  Li24  1  0.15662400  0.68696200  0.22443300  1.0
  Li  Li25  1  0.00172500  0.99652300  0.24863300  1.0
  Li  Li26  1  0.84473900  0.30969100  0.27243000  1.0
  Li  Li27  1  0.68245300  0.63359300  0.30211300  1.0
  Li  Li28  1  0.52479500  0.94891900  0.33298000  1.0
  Li  Li29  1  0.36874200  0.26182800  0.35707600  1.0
  Li  Li30  1  0.22069100  0.55857600  0.38653100  1.0
  Li  Li31  1  0.04940500  0.90203600  0.41250700  1.0
  Li  Li32  1  0.89061100  0.21961400  0.42123200  1.0
  Li  Li33  1  0.74324000  0.51430200  0.45457900  1.0
  Li  Li34  1  0.57600100  0.84902600  0.48507400  1.0
  Li  Li35  1  0.44508900  0.10871700  0.01697200  1.0
  Li  Li36  1  0.26282400  0.47317900  0.04055300  1.0
  Li  Li37  1  0.09007500  0.81879000  0.05529500  1.0
