# generated using pymatgen
data_Pt
_symmetry_space_group_name_H-M   'P 1'
_cell_length_a   2.81482663
_cell_length_b   13.19327713
_cell_length_c   41.06868088
_cell_angle_alpha   98.39469477
_cell_angle_beta   90.00000000
_cell_angle_gamma   90.00000000
_symmetry_Int_Tables_number   1
_chemical_formula_structural   Pt
_chemical_formula_sum   Pt48
_cell_volume   1508.81811385
_cell_formula_units_Z   48
loop_
 _symmetry_equiv_pos_site_id
 _symmetry_equiv_pos_as_xyz
  1  'x, y, z'
loop_
 _atom_site_type_symbol
 _atom_site_label
 _atom_site_symmetry_multiplicity
 _atom_site_fract_x
 _atom_site_fract_y
 _atom_site_fract_z
 _atom_site_occupancy
  Pt  Pt0  1  0.00000000  0.11919000  0.73301300  1.0
  Pt  Pt1  1  0.00000000  0.94066600  0.56746900  1.0
  Pt  Pt2  1  0.00000000  0.77377600  0.40135500  1.0
  Pt  Pt3  1  0.00000000  0.80672300  0.69817800  1.0
  Pt  Pt4  1  0.00000000  0.65230200  0.52614700  1.0
  Pt  Pt5  1  0.00000000  0.48476500  0.35668500  1.0
  Pt  Pt6  1  0.00000000  0.46124200  0.71435900  1.0
  Pt  Pt7  1  0.00000000  0.29672200  0.54723500  1.0
  Pt  Pt8  1  0.00000000  0.13473300  0.38056900  1.0
  Pt  Pt9  1  0.00000000  0.17249800  0.67004900  1.0
  Pt  Pt10  1  0.00000000  0.00550400  0.50494800  1.0
  Pt  Pt11  1  0.00000000  0.83742700  0.33963800  1.0
  Pt  Pt12  1  0.00000000  0.87333100  0.63061600  1.0
  Pt  Pt13  1  0.00000000  0.71233600  0.46338300  1.0
  Pt  Pt14  1  0.00000000  0.55480100  0.29383800  1.0
  Pt  Pt15  1  0.00000000  0.24044000  0.25950700  1.0
  Pt  Pt16  1  0.00000000  0.59130500  0.58915600  1.0
  Pt  Pt17  1  0.00000000  0.42204900  0.42140900  1.0
  Pt  Pt18  1  0.00000000  0.52663800  0.65124300  1.0
  Pt  Pt19  1  0.00000000  0.35877700  0.48477400  1.0
  Pt  Pt20  1  0.00000000  0.19624700  0.32025400  1.0
  Pt  Pt21  1  0.00000000  0.23392900  0.60875000  1.0
  Pt  Pt22  1  0.00000000  0.06948600  0.44244000  1.0
  Pt  Pt23  1  0.00000000  0.89816400  0.27654700  1.0
  Pt  Pt24  1  0.50000000  0.99125300  0.67974600  1.0
  Pt  Pt25  1  0.50000000  0.82872300  0.51522600  1.0
  Pt  Pt26  1  0.50000000  0.66086200  0.34875700  1.0
  Pt  Pt27  1  0.50000000  0.70273500  0.64331500  1.0
  Pt  Pt28  1  0.50000000  0.53519800  0.47385300  1.0
  Pt  Pt29  1  0.50000000  0.38077700  0.30182200  1.0
  Pt  Pt30  1  0.50000000  0.35007300  0.66036200  1.0
  Pt  Pt31  1  0.50000000  0.18199600  0.49505200  1.0
  Pt  Pt32  1  0.50000000  0.01500200  0.32995100  1.0
  Pt  Pt33  1  0.50000000  0.05276700  0.61943100  1.0
  Pt  Pt34  1  0.50000000  0.89077800  0.45276500  1.0
  Pt  Pt35  1  0.50000000  0.72625800  0.28564100  1.0
  Pt  Pt36  1  0.50000000  0.94706000  0.74049300  1.0
  Pt  Pt37  1  0.50000000  0.76545100  0.57859100  1.0
  Pt  Pt38  1  0.50000000  0.59619500  0.41084400  1.0
  Pt  Pt39  1  0.50000000  0.63269900  0.70616200  1.0
  Pt  Pt40  1  0.50000000  0.47516400  0.53661700  1.0
  Pt  Pt41  1  0.50000000  0.31416900  0.36938400  1.0
  Pt  Pt42  1  0.50000000  0.41372400  0.59864500  1.0
  Pt  Pt43  1  0.50000000  0.24683400  0.43253100  1.0
  Pt  Pt44  1  0.50000000  0.06831000  0.26698700  1.0
  Pt  Pt45  1  0.50000000  0.28933600  0.72345300  1.0
  Pt  Pt46  1  0.50000000  0.11801400  0.55756000  1.0
  Pt  Pt47  1  0.50000000  0.95357100  0.39125000  1.0
