# generated using pymatgen
data_Ag
_symmetry_space_group_name_H-M   'P 1'
_cell_length_a   2.93175448
_cell_length_b   9.65503900
_cell_length_c   23.45403700
_cell_angle_alpha   90.00000000
_cell_angle_beta   120.00000123
_cell_angle_gamma   90.00000000
_symmetry_Int_Tables_number   1
_chemical_formula_structural   Ag
_chemical_formula_sum   Ag16
_cell_volume   574.94971377
_cell_formula_units_Z   16
loop_
 _symmetry_equiv_pos_site_id
 _symmetry_equiv_pos_as_xyz
  1  'x, y, z'
loop_
 _atom_site_type_symbol
 _atom_site_label
 _atom_site_symmetry_multiplicity
 _atom_site_fract_x
 _atom_site_fract_y
 _atom_site_fract_z
 _atom_site_occupancy
  Ag  Ag0  1  0.99845900  0.99943200  0.06211500  1.0
  Ag  Ag1  1  0.99845900  0.50056800  0.06211500  1.0
  Ag  Ag2  1  0.65351400  0.75000000  0.10087900  1.0
  Ag  Ag3  1  0.35410500  0.25000000  0.02602600  1.0
  Ag  Ag4  1  0.99910200  0.99829600  0.18727600  1.0
  Ag  Ag5  1  0.99910200  0.50170400  0.18727600  1.0
  Ag  Ag6  1  0.66391000  0.75000000  0.22847800  1.0
  Ag  Ag7  1  0.34186500  0.25000000  0.14796600  1.0
  Ag  Ag8  1  0.00089800  0.00170400  0.31272400  1.0
  Ag  Ag9  1  0.00089800  0.49829600  0.31272400  1.0
  Ag  Ag10  1  0.65813500  0.75000000  0.35203400  1.0
  Ag  Ag11  1  0.33609000  0.25000000  0.27152200  1.0
  Ag  Ag12  1  0.00154100  0.00056800  0.43788500  1.0
  Ag  Ag13  1  0.00154100  0.49943200  0.43788500  1.0
  Ag  Ag14  1  0.64589500  0.75000000  0.47397400  1.0
  Ag  Ag15  1  0.34648600  0.25000000  0.39912100  1.0
