# generated using pymatgen
data_Ag
_symmetry_space_group_name_H-M   'P 1'
_cell_length_a   9.63339200
_cell_length_b   7.80058501
_cell_length_c   23.37696900
_cell_angle_alpha   79.20465751
_cell_angle_beta   90.00000000
_cell_angle_gamma   90.00000000
_symmetry_Int_Tables_number   1
_chemical_formula_structural   Ag
_chemical_formula_sum   Ag48
_cell_volume   1725.59887195
_cell_formula_units_Z   48
loop_
 _symmetry_equiv_pos_site_id
 _symmetry_equiv_pos_as_xyz
  1  'x, y, z'
loop_
 _atom_site_type_symbol
 _atom_site_label
 _atom_site_symmetry_multiplicity
 _atom_site_fract_x
 _atom_site_fract_y
 _atom_site_fract_z
 _atom_site_occupancy
  Ag  Ag0  1  0.00004900  0.66690000  0.06121000  1.0
  Ag  Ag1  1  0.00013600  0.33397900  0.02419100  1.0
  Ag  Ag2  1  0.99995000  0.99678800  0.10085400  1.0
  Ag  Ag3  1  0.49995100  0.66690000  0.06121000  1.0
  Ag  Ag4  1  0.49986400  0.33397900  0.02419100  1.0
  Ag  Ag5  1  0.50005000  0.99678800  0.10085400  1.0
  Ag  Ag6  1  0.25000000  0.54524200  0.01253300  1.0
  Ag  Ag7  1  0.25000000  0.21256000  0.08843500  1.0
  Ag  Ag8  1  0.25000000  0.87961000  0.04998400  1.0
  Ag  Ag9  1  0.75000000  0.77925900  0.11448100  1.0
  Ag  Ag10  1  0.75000000  0.45260600  0.07434500  1.0
  Ag  Ag11  1  0.75000000  0.12246100  0.03815200  1.0
  Ag  Ag12  1  0.99849700  0.66770000  0.18690900  1.0
  Ag  Ag13  1  0.99921900  0.33058100  0.14625100  1.0
  Ag  Ag14  1  0.00021400  0.99868100  0.22913900  1.0
  Ag  Ag15  1  0.50150300  0.66770000  0.18690900  1.0
  Ag  Ag16  1  0.50078100  0.33058100  0.14625100  1.0
  Ag  Ag17  1  0.49978600  0.99868100  0.22913900  1.0
  Ag  Ag18  1  0.25000000  0.55198300  0.13346000  1.0
  Ag  Ag19  1  0.25000000  0.22226600  0.21487600  1.0
  Ag  Ag20  1  0.25000000  0.88986700  0.17363700  1.0
  Ag  Ag21  1  0.75000000  0.77493300  0.24314900  1.0
  Ag  Ag22  1  0.75000000  0.44407800  0.20075900  1.0
  Ag  Ag23  1  0.75000000  0.10735400  0.16080100  1.0
  Ag  Ag24  1  0.00150300  0.66563400  0.31309100  1.0
  Ag  Ag25  1  0.99978600  0.33465200  0.27086100  1.0
  Ag  Ag26  1  0.00078100  0.00275200  0.35374900  1.0
  Ag  Ag27  1  0.49849700  0.66563400  0.31309100  1.0
  Ag  Ag28  1  0.50021400  0.33465200  0.27086100  1.0
  Ag  Ag29  1  0.49921900  0.00275200  0.35374900  1.0
  Ag  Ag30  1  0.25000000  0.55840100  0.25685100  1.0
  Ag  Ag31  1  0.25000000  0.22597900  0.33919900  1.0
  Ag  Ag32  1  0.25000000  0.88925500  0.29924100  1.0
  Ag  Ag33  1  0.75000000  0.78135100  0.36654000  1.0
  Ag  Ag34  1  0.75000000  0.44346600  0.32636300  1.0
  Ag  Ag35  1  0.75000000  0.11106700  0.28512400  1.0
  Ag  Ag36  1  0.99995100  0.66643400  0.43879000  1.0
  Ag  Ag37  1  0.00005000  0.33654500  0.39914600  1.0
  Ag  Ag38  1  0.99986400  0.99935400  0.47580900  1.0
  Ag  Ag39  1  0.50004900  0.66643400  0.43879000  1.0
  Ag  Ag40  1  0.49995000  0.33654500  0.39914600  1.0
  Ag  Ag41  1  0.50013600  0.99935400  0.47580900  1.0
  Ag  Ag42  1  0.25000000  0.55407500  0.38551900  1.0
  Ag  Ag43  1  0.25000000  0.21087200  0.46184800  1.0
  Ag  Ag44  1  0.25000000  0.88072700  0.42565500  1.0
  Ag  Ag45  1  0.75000000  0.78809200  0.48746700  1.0
  Ag  Ag46  1  0.75000000  0.45372300  0.45001600  1.0
  Ag  Ag47  1  0.75000000  0.12077300  0.41156500  1.0
