# generated using pymatgen
data_Ag
_symmetry_space_group_name_H-M   'P 1'
_cell_length_a   7.78453216
_cell_length_b   10.08881095
_cell_length_c   23.39940900
_cell_angle_alpha   98.33490529
_cell_angle_beta   79.17161447
_cell_angle_gamma   77.22099950
_symmetry_Int_Tables_number   1
_chemical_formula_structural   Ag
_chemical_formula_sum   Ag48
_cell_volume   1726.58819665
_cell_formula_units_Z   48
loop_
 _symmetry_equiv_pos_site_id
 _symmetry_equiv_pos_as_xyz
  1  'x, y, z'
loop_
 _atom_site_type_symbol
 _atom_site_label
 _atom_site_symmetry_multiplicity
 _atom_site_fract_x
 _atom_site_fract_y
 _atom_site_fract_z
 _atom_site_occupancy
  Ag  Ag0  1  0.99609600  0.00232000  0.10154200  1.0
  Ag  Ag1  1  0.33526400  0.99890000  0.02447700  1.0
  Ag  Ag2  1  0.66790900  0.99997100  0.06132900  1.0
  Ag  Ag3  1  0.83202000  0.50208900  0.02550400  1.0
  Ag  Ag4  1  0.16673700  0.50034800  0.06100600  1.0
  Ag  Ag5  1  0.49788000  0.49996900  0.10055800  1.0
  Ag  Ag6  1  0.86199700  0.75110300  0.09456100  1.0
  Ag  Ag7  1  0.19957800  0.75240900  0.01934100  1.0
  Ag  Ag8  1  0.53216700  0.75049000  0.05548800  1.0
  Ag  Ag9  1  0.80264000  0.25032400  0.06794700  1.0
  Ag  Ag10  1  0.13308900  0.25134900  0.10818700  1.0
  Ag  Ag11  1  0.46634200  0.24832200  0.03190600  1.0
  Ag  Ag12  1  0.99906400  0.99980900  0.22912700  1.0
  Ag  Ag13  1  0.33057800  0.00062300  0.14658500  1.0
  Ag  Ag14  1  0.66797200  0.99801900  0.18678500  1.0
  Ag  Ag15  1  0.83271200  0.49956800  0.14588800  1.0
  Ag  Ag16  1  0.16721700  0.49925300  0.18704600  1.0
  Ag  Ag17  1  0.49966300  0.50038700  0.22906600  1.0
  Ag  Ag18  1  0.85850000  0.75023900  0.22262300  1.0
  Ag  Ag19  1  0.19272200  0.74955900  0.14002100  1.0
  Ag  Ag20  1  0.52717700  0.74894400  0.18067000  1.0
  Ag  Ag21  1  0.80780200  0.24891000  0.19370000  1.0
  Ag  Ag22  1  0.13971900  0.25028900  0.23550500  1.0
  Ag  Ag23  1  0.47188400  0.25077200  0.15329700  1.0
  Ag  Ag24  1  0.00275500  0.99937700  0.35341500  1.0
  Ag  Ag25  1  0.33426900  0.00019100  0.27087300  1.0
  Ag  Ag26  1  0.66536200  0.00198100  0.31321500  1.0
  Ag  Ag27  1  0.83367000  0.49961300  0.27093400  1.0
  Ag  Ag28  1  0.16611700  0.50074700  0.31295400  1.0
  Ag  Ag29  1  0.50062100  0.50043200  0.35411200  1.0
  Ag  Ag30  1  0.86144900  0.74922800  0.34670300  1.0
  Ag  Ag31  1  0.19361400  0.74971100  0.26449500  1.0
  Ag  Ag32  1  0.52553200  0.75109000  0.30630000  1.0
  Ag  Ag33  1  0.80615700  0.25105600  0.31933000  1.0
  Ag  Ag34  1  0.14061100  0.25044100  0.35997900  1.0
  Ag  Ag35  1  0.47483200  0.24976100  0.27737700  1.0
  Ag  Ag36  1  0.99806900  0.00110000  0.47552300  1.0
  Ag  Ag37  1  0.33723700  0.99768000  0.39845800  1.0
  Ag  Ag38  1  0.66542500  0.00002900  0.43867100  1.0
  Ag  Ag39  1  0.83545300  0.50003100  0.39944200  1.0
  Ag  Ag40  1  0.16659700  0.49965200  0.43899400  1.0
  Ag  Ag41  1  0.50131300  0.49791100  0.47449600  1.0
  Ag  Ag42  1  0.86699100  0.75167800  0.46809400  1.0
  Ag  Ag43  1  0.20024400  0.74865100  0.39181300  1.0
  Ag  Ag44  1  0.53069400  0.74967600  0.43205300  1.0
  Ag  Ag45  1  0.80116700  0.24951000  0.44451200  1.0
  Ag  Ag46  1  0.13375500  0.24759100  0.48065900  1.0
  Ag  Ag47  1  0.47133600  0.24889700  0.40543900  1.0
