# generated using pymatgen
data_Ag
_symmetry_space_group_name_H-M   'P 1'
_cell_length_a   5.12275888
_cell_length_b   10.06330049
_cell_length_c   23.32291722
_cell_angle_alpha   106.84015376
_cell_angle_beta   89.99999669
_cell_angle_gamma   90.00000414
_symmetry_Int_Tables_number   1
_chemical_formula_structural   Ag
_chemical_formula_sum   Ag32
_cell_volume   1150.77951548
_cell_formula_units_Z   32
loop_
 _symmetry_equiv_pos_site_id
 _symmetry_equiv_pos_as_xyz
  1  'x, y, z'
loop_
 _atom_site_type_symbol
 _atom_site_label
 _atom_site_symmetry_multiplicity
 _atom_site_fract_x
 _atom_site_fract_y
 _atom_site_fract_z
 _atom_site_occupancy
  Ag  Ag0  1  0.00723800  0.00370200  0.00587900  1.0
  Ag  Ag1  1  0.50401700  0.99873700  0.05970000  1.0
  Ag  Ag2  1  0.99598300  0.49873700  0.05970000  1.0
  Ag  Ag3  1  0.49276200  0.50370200  0.00587900  1.0
  Ag  Ag4  1  0.32899000  0.25144500  0.03239000  1.0
  Ag  Ag5  1  0.82860400  0.25119400  0.09141100  1.0
  Ag  Ag6  1  0.17101000  0.75144500  0.03239000  1.0
  Ag  Ag7  1  0.67139600  0.75119400  0.09141100  1.0
  Ag  Ag8  1  0.99747500  0.99908500  0.12550900  1.0
  Ag  Ag9  1  0.49882400  0.99907500  0.18706900  1.0
  Ag  Ag10  1  0.00117600  0.49907500  0.18706900  1.0
  Ag  Ag11  1  0.50252500  0.49908400  0.12550900  1.0
  Ag  Ag12  1  0.33377200  0.24907000  0.15626700  1.0
  Ag  Ag13  1  0.83505900  0.24981200  0.21844600  1.0
  Ag  Ag14  1  0.16622800  0.74907000  0.15626700  1.0
  Ag  Ag15  1  0.66494100  0.74981200  0.21844600  1.0
  Ag  Ag16  1  0.99909500  0.00094900  0.25048300  1.0
  Ag  Ag17  1  0.49949200  0.00120400  0.31277200  1.0
  Ag  Ag18  1  0.00050800  0.50120400  0.31277200  1.0
  Ag  Ag19  1  0.50090500  0.50094900  0.25048300  1.0
  Ag  Ag20  1  0.33338300  0.25058200  0.28144700  1.0
  Ag  Ag21  1  0.83089600  0.25060100  0.34301000  1.0
  Ag  Ag22  1  0.16661700  0.75058200  0.28144700  1.0
  Ag  Ag23  1  0.66910400  0.75060100  0.34301000  1.0
  Ag  Ag24  1  0.00555900  0.99844700  0.37764500  1.0
  Ag  Ag25  1  0.50433600  0.99842600  0.43675200  1.0
  Ag  Ag26  1  0.99566400  0.49842600  0.43675200  1.0
  Ag  Ag27  1  0.49444100  0.49844700  0.37764500  1.0
  Ag  Ag28  1  0.32643100  0.25086300  0.40849000  1.0
  Ag  Ag29  1  0.82382400  0.24680700  0.46272900  1.0
  Ag  Ag30  1  0.17356900  0.75086300  0.40849000  1.0
  Ag  Ag31  1  0.67617600  0.74680700  0.46272900  1.0
