# generated using pymatgen
data_Ag
_symmetry_space_group_name_H-M   'P 1'
_cell_length_a   2.92001734
_cell_length_b   11.31009618
_cell_length_c   30.59148066
_cell_angle_alpha   116.79495746
_cell_angle_beta   89.99999392
_cell_angle_gamma   75.03802904
_symmetry_Int_Tables_number   1
_chemical_formula_structural   Ag
_chemical_formula_sum   Ag24
_cell_volume   863.27799108
_cell_formula_units_Z   24
loop_
 _symmetry_equiv_pos_site_id
 _symmetry_equiv_pos_as_xyz
  1  'x, y, z'
loop_
 _atom_site_type_symbol
 _atom_site_label
 _atom_site_symmetry_multiplicity
 _atom_site_fract_x
 _atom_site_fract_y
 _atom_site_fract_z
 _atom_site_occupancy
  Ag  Ag0  1  0.99865800  0.00134200  0.12554500  1.0
  Ag  Ag1  1  0.49861500  0.00138500  0.04169300  1.0
  Ag  Ag2  1  0.49764100  0.50235900  0.04275000  1.0
  Ag  Ag3  1  0.00334400  0.49665600  0.12393300  1.0
  Ag  Ag4  1  0.75133400  0.74866600  0.11164400  1.0
  Ag  Ag5  1  0.24476700  0.75523300  0.03073200  1.0
  Ag  Ag6  1  0.75116000  0.24884000  0.05436400  1.0
  Ag  Ag7  1  0.24963800  0.25036200  0.13827500  1.0
  Ag  Ag8  1  0.99870300  0.00129700  0.29188000  1.0
  Ag  Ag9  1  0.50129700  0.99870300  0.20812000  1.0
  Ag  Ag10  1  0.49976200  0.50023800  0.20822000  1.0
  Ag  Ag11  1  0.00023800  0.49976200  0.29178000  1.0
  Ag  Ag12  1  0.74987200  0.75012800  0.27851900  1.0
  Ag  Ag13  1  0.25116300  0.74883700  0.19498500  1.0
  Ag  Ag14  1  0.75012800  0.24987200  0.22148100  1.0
  Ag  Ag15  1  0.24883700  0.25116300  0.30501500  1.0
  Ag  Ag16  1  0.00138500  0.99861500  0.45830700  1.0
  Ag  Ag17  1  0.50134200  0.99865800  0.37445500  1.0
  Ag  Ag18  1  0.49665600  0.50334400  0.37606700  1.0
  Ag  Ag19  1  0.00235900  0.49764100  0.45725000  1.0
  Ag  Ag20  1  0.74884000  0.75116000  0.44563600  1.0
  Ag  Ag21  1  0.25036200  0.74963800  0.36172500  1.0
  Ag  Ag22  1  0.74866600  0.25133400  0.38835600  1.0
  Ag  Ag23  1  0.25523300  0.24476700  0.46926800  1.0
