# generated using pymatgen
data_Ag
_symmetry_space_group_name_H-M   'P 1'
_cell_length_a   5.10361300
_cell_length_b   19.50969441
_cell_length_c   23.37627800
_cell_angle_alpha   94.29471641
_cell_angle_beta   90.00000000
_cell_angle_gamma   82.48436006
_symmetry_Int_Tables_number   1
_chemical_formula_structural   Ag
_chemical_formula_sum   Ag64
_cell_volume   2300.98610405
_cell_formula_units_Z   64
loop_
 _symmetry_equiv_pos_site_id
 _symmetry_equiv_pos_as_xyz
  1  'x, y, z'
loop_
 _atom_site_type_symbol
 _atom_site_label
 _atom_site_symmetry_multiplicity
 _atom_site_fract_x
 _atom_site_fract_y
 _atom_site_fract_z
 _atom_site_occupancy
  Ag  Ag0  1  0.74939300  0.50022300  0.03336900  1.0
  Ag  Ag1  1  0.00466500  0.00120600  0.00480500  1.0
  Ag  Ag2  1  0.50377400  0.99887000  0.05977400  1.0
  Ag  Ag3  1  0.24974100  0.50019900  0.09021500  1.0
  Ag  Ag4  1  0.62379000  0.75027900  0.04902600  1.0
  Ag  Ag5  1  0.87540900  0.24998200  0.01805000  1.0
  Ag  Ag6  1  0.37478800  0.25008700  0.07482200  1.0
  Ag  Ag7  1  0.12482200  0.75033000  0.10559100  1.0
  Ag  Ag8  1  0.72991100  0.87501100  0.11411500  1.0
  Ag  Ag9  1  0.98619800  0.37515000  0.08338900  1.0
  Ag  Ag10  1  0.49173800  0.37484000  0.02646300  1.0
  Ag  Ag11  1  0.23263800  0.87561000  0.05524300  1.0
  Ag  Ag12  1  0.51325500  0.62509700  0.09865400  1.0
  Ag  Ag13  1  0.76282900  0.12525100  0.06820300  1.0
  Ag  Ag14  1  0.26072600  0.12499000  0.01122800  1.0
  Ag  Ag15  1  0.00772700  0.62521200  0.04184800  1.0
  Ag  Ag16  1  0.74955000  0.50018000  0.15621000  1.0
  Ag  Ag17  1  0.99727700  0.99962900  0.12529900  1.0
  Ag  Ag18  1  0.49919300  0.99957600  0.18713200  1.0
  Ag  Ag19  1  0.24991300  0.49995400  0.21814700  1.0
  Ag  Ag20  1  0.62491800  0.74999000  0.17169800  1.0
  Ag  Ag21  1  0.87497700  0.25001200  0.14074700  1.0
  Ag  Ag22  1  0.37528200  0.25015300  0.20284300  1.0
  Ag  Ag23  1  0.12510000  0.74994600  0.23370800  1.0
  Ag  Ag24  1  0.72510900  0.87516900  0.24169900  1.0
  Ag  Ag25  1  0.97479300  0.37497000  0.21040000  1.0
  Ag  Ag26  1  0.47559500  0.37492400  0.14871300  1.0
  Ag  Ag27  1  0.22589100  0.87434100  0.17928800  1.0
  Ag  Ag28  1  0.52512800  0.62512400  0.22600700  1.0
  Ag  Ag29  1  0.77532900  0.12488400  0.19517400  1.0
  Ag  Ag30  1  0.27348200  0.12526300  0.13362200  1.0
  Ag  Ag31  1  0.02443900  0.62508600  0.16429000  1.0
  Ag  Ag32  1  0.75021400  0.50009500  0.28176000  1.0
  Ag  Ag33  1  0.99973300  0.99993000  0.25036100  1.0
  Ag  Ag34  1  0.49930500  0.00069200  0.31298200  1.0
  Ag  Ag35  1  0.25043800  0.50000400  0.34393300  1.0
  Ag  Ag36  1  0.62459700  0.75037800  0.29712000  1.0
  Ag  Ag37  1  0.87489200  0.24999300  0.26627900  1.0
  Ag  Ag38  1  0.37517700  0.24990800  0.32834200  1.0
  Ag  Ag39  1  0.12486200  0.74980300  0.35905800  1.0
  Ag  Ag40  1  0.72925100  0.87526200  0.36654600  1.0
  Ag  Ag41  1  0.97574000  0.37499700  0.33557100  1.0
  Ag  Ag42  1  0.47503900  0.37508600  0.27404000  1.0
  Ag  Ag43  1  0.22556300  0.87545200  0.30480100  1.0
  Ag  Ag44  1  0.52455700  0.62503100  0.35104300  1.0
  Ag  Ag45  1  0.77569800  0.12501600  0.32024800  1.0
  Ag  Ag46  1  0.27524400  0.12510900  0.25854900  1.0
  Ag  Ag47  1  0.02527400  0.62487200  0.28944300  1.0
  Ag  Ag48  1  0.75010100  0.49993700  0.40967600  1.0
  Ag  Ag49  1  0.00341400  0.00009300  0.37832700  1.0
  Ag  Ag50  1  0.50481300  0.99904100  0.43738900  1.0
  Ag  Ag51  1  0.25013300  0.49990300  0.46665800  1.0
  Ag  Ag52  1  0.62452100  0.74936200  0.42450900  1.0
  Ag  Ag53  1  0.87584200  0.24977700  0.39432800  1.0
  Ag  Ag54  1  0.37587100  0.24990300  0.45121300  1.0
  Ag  Ag55  1  0.12643400  0.75062700  0.48170100  1.0
  Ag  Ag56  1  0.73682400  0.87311200  0.48700900  1.0
  Ag  Ag57  1  0.99169600  0.37486200  0.45791400  1.0
  Ag  Ag58  1  0.48646400  0.37480200  0.40112000  1.0
  Ag  Ag59  1  0.23393500  0.87619000  0.43150300  1.0
  Ag  Ag60  1  0.50736800  0.62497600  0.47338100  1.0
  Ag  Ag61  1  0.76000600  0.12490900  0.44245700  1.0
  Ag  Ag62  1  0.26588500  0.12448700  0.38616400  1.0
  Ag  Ag63  1  0.01373000  0.62485500  0.41680700  1.0
