# generated using pymatgen
data_Li
_symmetry_space_group_name_H-M   'P 1'
_cell_length_a   4.86277475
_cell_length_b   8.41909597
_cell_length_c   68.28241636
_cell_angle_alpha   89.88675971
_cell_angle_beta   90.00000000
_cell_angle_gamma   106.78578947
_symmetry_Int_Tables_number   1
_chemical_formula_structural   Li
_chemical_formula_sum   Li66
_cell_volume   2676.37509218
_cell_formula_units_Z   66
loop_
 _symmetry_equiv_pos_site_id
 _symmetry_equiv_pos_as_xyz
  1  'x, y, z'
loop_
 _atom_site_type_symbol
 _atom_site_label
 _atom_site_symmetry_multiplicity
 _atom_site_fract_x
 _atom_site_fract_y
 _atom_site_fract_z
 _atom_site_occupancy
  Li  Li0  1  0.02688700  0.05310000  0.00044200  1.0
  Li  Li1  1  0.99979900  0.00006400  0.16677400  1.0
  Li  Li2  1  0.00095900  0.00058000  0.33350900  1.0
  Li  Li3  1  0.63736100  0.27326600  0.01655700  1.0
  Li  Li4  1  0.63593500  0.27320900  0.18188700  1.0
  Li  Li5  1  0.63666300  0.27288700  0.34841600  1.0
  Li  Li6  1  0.26078000  0.52041300  0.02873800  1.0
  Li  Li7  1  0.27265100  0.54470900  0.19698500  1.0
  Li  Li8  1  0.27285100  0.54552100  0.36348800  1.0
  Li  Li9  1  0.90512600  0.80966300  0.04395000  1.0
  Li  Li10  1  0.90926600  0.81851000  0.21216600  1.0
  Li  Li11  1  0.90982300  0.81778300  0.37883900  1.0
  Li  Li12  1  0.54476000  0.08803500  0.06090100  1.0
  Li  Li13  1  0.54516300  0.09115100  0.22730600  1.0
  Li  Li14  1  0.54498900  0.09003700  0.39400500  1.0
  Li  Li15  1  0.18129000  0.36218100  0.07584600  1.0
  Li  Li16  1  0.18199800  0.36346600  0.24251100  1.0
  Li  Li17  1  0.18392100  0.36883700  0.40971100  1.0
  Li  Li18  1  0.81819200  0.63705400  0.09074100  1.0
  Li  Li19  1  0.81859000  0.63692900  0.25762700  1.0
  Li  Li20  1  0.82019400  0.64038100  0.42536300  1.0
  Li  Li21  1  0.45404600  0.90790800  0.10593600  1.0
  Li  Li22  1  0.45435300  0.90901500  0.27258500  1.0
  Li  Li23  1  0.45377800  0.90892500  0.43947900  1.0
  Li  Li24  1  0.08951800  0.17997800  0.12079900  1.0
  Li  Li25  1  0.09126900  0.18159000  0.28787200  1.0
  Li  Li26  1  0.09744400  0.19662100  0.45283300  1.0
  Li  Li27  1  0.72676100  0.45495700  0.13638700  1.0
  Li  Li28  1  0.72753300  0.45452600  0.30284700  1.0
  Li  Li29  1  0.73122700  0.46354300  0.47012600  1.0
  Li  Li30  1  0.36367700  0.72689900  0.15178500  1.0
  Li  Li31  1  0.36368700  0.72725100  0.31800100  1.0
  Li  Li32  1  0.35304800  0.70756300  0.48627900  1.0
  Li  Li33  1  0.08449200  0.16716600  0.03962700  1.0
  Li  Li34  1  0.09035700  0.18209000  0.20455200  1.0
  Li  Li35  1  0.09196600  0.18369700  0.37162200  1.0
  Li  Li36  1  0.72770200  0.45477400  0.05294000  1.0
  Li  Li37  1  0.72759800  0.45472700  0.21982900  1.0
  Li  Li38  1  0.72786100  0.45571600  0.38647600  1.0
  Li  Li39  1  0.36172100  0.72320200  0.06705100  1.0
  Li  Li40  1  0.36357000  0.72667600  0.23480100  1.0
  Li  Li41  1  0.36381400  0.72652100  0.40167700  1.0
  Li  Li42  1  0.99791400  0.99481200  0.08271400  1.0
  Li  Li43  1  0.99979900  0.00016900  0.24991700  1.0
  Li  Li44  1  0.00023700  0.00148700  0.41657400  1.0
  Li  Li45  1  0.63645700  0.27361300  0.09840300  1.0
  Li  Li46  1  0.63647000  0.27249300  0.26513200  1.0
  Li  Li47  1  0.63697300  0.27546800  0.43153200  1.0
  Li  Li48  1  0.27221300  0.54587600  0.11358800  1.0
  Li  Li49  1  0.27282200  0.54526800  0.28025200  1.0
  Li  Li50  1  0.27676400  0.55401600  0.44847600  1.0
  Li  Li51  1  0.90922600  0.81810000  0.12893400  1.0
  Li  Li52  1  0.90946700  0.81904900  0.29544600  1.0
  Li  Li53  1  0.92064200  0.84318100  0.46367000  1.0
  Li  Li54  1  0.54485700  0.09062200  0.14399400  1.0
  Li  Li55  1  0.54586700  0.09041900  0.31052000  1.0
  Li  Li56  1  0.54431500  0.09025300  0.47586400  1.0
  Li  Li57  1  0.18087200  0.36307400  0.15893200  1.0
  Li  Li58  1  0.18202900  0.36362800  0.32563900  1.0
  Li  Li59  1  0.15499200  0.31055300  0.49203700  1.0
  Li  Li60  1  0.82852400  0.65604100  0.00614800  1.0
  Li  Li61  1  0.81845600  0.63634200  0.17442400  1.0
  Li  Li62  1  0.81841700  0.63659100  0.34063600  1.0
  Li  Li63  1  0.45055400  0.89999500  0.02230400  1.0
  Li  Li64  1  0.45441100  0.90921100  0.18957500  1.0
  Li  Li65  1  0.45510300  0.90861900  0.35602800  1.0
