data_image0
_chemical_formula_structural       Sb8Os4
_chemical_formula_sum              "Sb8 Os4"
_cell_length_a       3.2163
_cell_length_b       8.94508
_cell_length_c       35.7803
_cell_angle_alpha    83.299
_cell_angle_beta     90
_cell_angle_gamma    90

_space_group_name_H-M_alt    "P 1"
_space_group_IT_number       1

loop_
  _space_group_symop_operation_xyz
  'x, y, z'

loop_
  _atom_site_type_symbol
  _atom_site_label
  _atom_site_symmetry_multiplicity
  _atom_site_fract_x
  _atom_site_fract_y
  _atom_site_fract_z
  _atom_site_occupancy
  Sb  Sb1       1.0  0.50000  0.23025  0.58219  1.0000
  Sb  Sb2       1.0  0.50000  0.73025  0.45719  1.0000
  Sb  Sb3       1.0  0.50000  0.76975  0.37614  1.0000
  Sb  Sb4       1.0  0.50000  0.26975  0.50114  1.0000
  Sb  Sb5       1.0  0.00000  0.41211  0.41173  1.0000
  Sb  Sb6       1.0  0.00000  0.91211  0.53673  1.0000
  Sb  Sb7       1.0  0.00000  0.58789  0.54661  1.0000
  Sb  Sb8       1.0  0.00000  0.08789  0.42161  1.0000
  Os  Os1       1.0  0.50000  0.50000  0.60417  1.0000
  Os  Os2       1.0  0.50000  0.00000  0.47917  1.0000
  Os  Os3       1.0  0.00000  0.50000  0.47917  1.0000
  Os  Os4       1.0  0.00000  0.00000  0.60417  1.0000
