data_image0
_chemical_formula_structural       Al9Pt6Al9Pt6
_chemical_formula_sum              "Al18 Pt12"
_cell_length_a       4.20087
_cell_length_b       9.87556
_cell_length_c       40.0631
_cell_angle_alpha    97.281
_cell_angle_beta     108.335
_cell_angle_gamma    64.8253

_space_group_name_H-M_alt    "P 1"
_space_group_IT_number       1

loop_
  _space_group_symop_operation_xyz
  'x, y, z'

loop_
  _atom_site_type_symbol
  _atom_site_label
  _atom_site_symmetry_multiplicity
  _atom_site_fract_x
  _atom_site_fract_y
  _atom_site_fract_z
  _atom_site_occupancy
  Al  Al1       1.0  0.00000  0.66667  0.38333  1.0000
  Al  Al2       1.0  0.00000  0.00000  0.49444  1.0000
  Al  Al3       1.0  0.00000  0.33333  0.43889  1.0000
  Al  Al4       1.0  0.66667  0.77116  0.47372  1.0000
  Al  Al5       1.0  0.66667  0.10450  0.41817  1.0000
  Al  Al6       1.0  0.66667  0.43783  0.36261  1.0000
  Al  Al7       1.0  0.33333  0.56217  0.45961  1.0000
  Al  Al8       1.0  0.33333  0.89550  0.40406  1.0000
  Al  Al9       1.0  0.33333  0.22884  0.34850  1.0000
  Pt  Pt1       1.0  0.66667  0.61119  0.42040  1.0000
  Pt  Pt2       1.0  0.66667  0.94452  0.36484  1.0000
  Pt  Pt3       1.0  0.66667  0.27786  0.47595  1.0000
  Pt  Pt4       1.0  0.33333  0.72214  0.34627  1.0000
  Pt  Pt5       1.0  0.33333  0.05548  0.45738  1.0000
  Pt  Pt6       1.0  0.33333  0.38881  0.40183  1.0000
  Al  Al10      1.0  0.00000  0.66667  0.55000  1.0000
  Al  Al11      1.0  0.00000  0.00000  0.66111  1.0000
  Al  Al12      1.0  0.00000  0.33333  0.60556  1.0000
  Al  Al13      1.0  0.66667  0.77116  0.64039  1.0000
  Al  Al14      1.0  0.66667  0.10450  0.58483  1.0000
  Al  Al15      1.0  0.66667  0.43783  0.52928  1.0000
  Al  Al16      1.0  0.33333  0.56217  0.62628  1.0000
  Al  Al17      1.0  0.33333  0.89550  0.57072  1.0000
  Al  Al18      1.0  0.33333  0.22884  0.51517  1.0000
  Pt  Pt7       1.0  0.66667  0.61119  0.58706  1.0000
  Pt  Pt8       1.0  0.66667  0.94452  0.53151  1.0000
  Pt  Pt9       1.0  0.66667  0.27786  0.64262  1.0000
  Pt  Pt10      1.0  0.33333  0.72214  0.51294  1.0000
  Pt  Pt11      1.0  0.33333  0.05548  0.62405  1.0000
  Pt  Pt12      1.0  0.33333  0.38881  0.56849  1.0000
