data_image0
_chemical_formula_structural       CuNiSb2CuNiSb2
_chemical_formula_sum              "Cu2 Ni2 Sb4"
_cell_length_a       4.0418
_cell_length_b       4.0418
_cell_length_c       30.4065
_cell_angle_alpha    90
_cell_angle_beta     90
_cell_angle_gamma    120

_space_group_name_H-M_alt    "P 1"
_space_group_IT_number       1

loop_
  _space_group_symop_operation_xyz
  'x, y, z'

loop_
  _atom_site_type_symbol
  _atom_site_label
  _atom_site_symmetry_multiplicity
  _atom_site_fract_x
  _atom_site_fract_y
  _atom_site_fract_z
  _atom_site_occupancy
  Cu  Cu1       1.0  0.00000  0.00000  0.43750  1.0000
  Ni  Ni1       1.0  0.00000  0.00000  0.35417  1.0000
  Sb  Sb1       1.0  0.33333  0.66667  0.48320  1.0000
  Sb  Sb2       1.0  0.66667  0.33333  0.39180  1.0000
  Cu  Cu2       1.0  0.00000  0.00000  0.60417  1.0000
  Ni  Ni2       1.0  0.00000  0.00000  0.52083  1.0000
  Sb  Sb3       1.0  0.33333  0.66667  0.64987  1.0000
  Sb  Sb4       1.0  0.66667  0.33333  0.55847  1.0000
