data_image0
_chemical_formula_structural       Fe4Ni4Fe4Ni4
_chemical_formula_sum              "Fe8 Ni8"
_cell_length_a       3.41915
_cell_length_b       5.9425
_cell_length_c       34.0223
_cell_angle_alpha    89.5208
_cell_angle_beta     90
_cell_angle_gamma    54.8743

_space_group_name_H-M_alt    "P 1"
_space_group_IT_number       1

loop_
  _space_group_symop_operation_xyz
  'x, y, z'

loop_
  _atom_site_type_symbol
  _atom_site_label
  _atom_site_symmetry_multiplicity
  _atom_site_fract_x
  _atom_site_fract_y
  _atom_site_fract_z
  _atom_site_occupancy
  Fe  Fe1       1.0  0.75000  0.75000  0.37500  1.0000
  Fe  Fe2       1.0  0.50000  0.50000  0.41071  1.0000
  Fe  Fe3       1.0  0.00000  0.00000  0.48214  1.0000
  Fe  Fe4       1.0  0.25000  0.25000  0.44643  1.0000
  Ni  Ni1       1.0  0.75000  0.75000  0.44643  1.0000
  Ni  Ni2       1.0  0.50000  0.50000  0.48214  1.0000
  Ni  Ni3       1.0  0.00000  0.00000  0.41071  1.0000
  Ni  Ni4       1.0  0.25000  0.25000  0.37500  1.0000
  Fe  Fe5       1.0  0.75000  0.75000  0.51786  1.0000
  Fe  Fe6       1.0  0.50000  0.50000  0.55357  1.0000
  Fe  Fe7       1.0  0.00000  0.00000  0.62500  1.0000
  Fe  Fe8       1.0  0.25000  0.25000  0.58929  1.0000
  Ni  Ni5       1.0  0.75000  0.75000  0.58929  1.0000
  Ni  Ni6       1.0  0.50000  0.50000  0.62500  1.0000
  Ni  Ni7       1.0  0.00000  0.00000  0.55357  1.0000
  Ni  Ni8       1.0  0.25000  0.25000  0.51786  1.0000
