data_image0
_chemical_formula_structural       Sb8Pt8Sb8Pt8
_chemical_formula_sum              "Sb16 Pt16"
_cell_length_a       7.18681
_cell_length_b       11.7777
_cell_length_c       29.0451
_cell_angle_alpha    100.146
_cell_angle_beta     90
_cell_angle_gamma    72.2356

_space_group_name_H-M_alt    "P 1"
_space_group_IT_number       1

loop_
  _space_group_symop_operation_xyz
  'x, y, z'

loop_
  _atom_site_type_symbol
  _atom_site_label
  _atom_site_symmetry_multiplicity
  _atom_site_fract_x
  _atom_site_fract_y
  _atom_site_fract_z
  _atom_site_occupancy
  Sb  Sb1       1.0  0.39583  0.87500  0.45982  1.0000
  Sb  Sb2       1.0  0.64583  0.37500  0.42411  1.0000
  Sb  Sb3       1.0  0.14583  0.37500  0.49554  1.0000
  Sb  Sb4       1.0  0.89583  0.87500  0.38839  1.0000
  Sb  Sb5       1.0  0.85417  0.62500  0.44196  1.0000
  Sb  Sb6       1.0  0.10417  0.12500  0.40625  1.0000
  Sb  Sb7       1.0  0.60417  0.12500  0.47768  1.0000
  Sb  Sb8       1.0  0.35417  0.62500  0.37054  1.0000
  Pt  Pt1       1.0  0.62500  0.75000  0.37946  1.0000
  Pt  Pt2       1.0  0.87500  0.25000  0.48661  1.0000
  Pt  Pt3       1.0  0.37500  0.25000  0.41518  1.0000
  Pt  Pt4       1.0  0.12500  0.75000  0.45089  1.0000
  Pt  Pt5       1.0  0.75000  0.50000  0.36161  1.0000
  Pt  Pt6       1.0  0.00000  0.00000  0.46875  1.0000
  Pt  Pt7       1.0  0.50000  0.00000  0.39732  1.0000
  Pt  Pt8       1.0  0.25000  0.50000  0.43304  1.0000
  Sb  Sb9       1.0  0.39583  0.87500  0.60268  1.0000
  Sb  Sb10      1.0  0.64583  0.37500  0.56696  1.0000
  Sb  Sb11      1.0  0.14583  0.37500  0.63839  1.0000
  Sb  Sb12      1.0  0.89583  0.87500  0.53125  1.0000
  Sb  Sb13      1.0  0.85417  0.62500  0.58482  1.0000
  Sb  Sb14      1.0  0.10417  0.12500  0.54911  1.0000
  Sb  Sb15      1.0  0.60417  0.12500  0.62054  1.0000
  Sb  Sb16      1.0  0.35417  0.62500  0.51339  1.0000
  Pt  Pt9       1.0  0.62500  0.75000  0.52232  1.0000
  Pt  Pt10      1.0  0.87500  0.25000  0.62946  1.0000
  Pt  Pt11      1.0  0.37500  0.25000  0.55804  1.0000
  Pt  Pt12      1.0  0.12500  0.75000  0.59375  1.0000
  Pt  Pt13      1.0  0.75000  0.50000  0.50446  1.0000
  Pt  Pt14      1.0  0.00000  0.00000  0.61161  1.0000
  Pt  Pt15      1.0  0.50000  0.00000  0.54018  1.0000
  Pt  Pt16      1.0  0.25000  0.50000  0.57589  1.0000
