data_image0
_chemical_formula_structural       Al18Rh4
_chemical_formula_sum              "Al18 Rh4"
_cell_length_a       6.31968
_cell_length_b       6.40418
_cell_length_c       34.7894
_cell_angle_alpha    90
_cell_angle_beta     94.9539
_cell_angle_gamma    90

_space_group_name_H-M_alt    "P 1"
_space_group_IT_number       1

loop_
  _space_group_symop_operation_xyz
  'x, y, z'

loop_
  _atom_site_type_symbol
  _atom_site_label
  _atom_site_symmetry_multiplicity
  _atom_site_fract_x
  _atom_site_fract_y
  _atom_site_fract_z
  _atom_site_occupancy
  Al  Al1       1.0  0.00000  0.50000  0.46023  1.0000
  Al  Al2       1.0  0.00000  0.00000  0.58523  1.0000
  Al  Al3       1.0  0.21218  0.60568  0.59523  1.0000
  Al  Al4       1.0  0.78782  0.10568  0.45023  1.0000
  Al  Al5       1.0  0.40010  0.52127  0.52754  1.0000
  Al  Al6       1.0  0.59990  0.02127  0.51791  1.0000
  Al  Al7       1.0  0.59990  0.47873  0.39291  1.0000
  Al  Al8       1.0  0.40010  0.97873  0.40254  1.0000
  Al  Al9       1.0  0.38824  0.30369  0.45952  1.0000
  Al  Al10      1.0  0.61176  0.80369  0.58594  1.0000
  Al  Al11      1.0  0.61176  0.69631  0.46094  1.0000
  Al  Al12      1.0  0.38824  0.19631  0.58452  1.0000
  Al  Al13      1.0  0.09636  0.21326  0.51704  1.0000
  Al  Al14      1.0  0.90364  0.71326  0.52842  1.0000
  Al  Al15      1.0  0.90364  0.78674  0.40342  1.0000
  Al  Al16      1.0  0.09636  0.28674  0.39204  1.0000
  Al  Al17      1.0  0.21218  0.89432  0.47023  1.0000
  Al  Al18      1.0  0.78782  0.39432  0.57523  1.0000
  Rh  Rh1       1.0  0.26424  0.62287  0.41815  1.0000
  Rh  Rh2       1.0  0.73576  0.12287  0.62730  1.0000
  Rh  Rh3       1.0  0.73576  0.37713  0.50230  1.0000
  Rh  Rh4       1.0  0.26424  0.87713  0.54315  1.0000
