data_image0
_chemical_formula_structural       Sb12Ru6
_chemical_formula_sum              "Sb12 Ru6"
_cell_length_a       3.18173
_cell_length_b       13.6356
_cell_length_c       35.7145
_cell_angle_alpha    102.566
_cell_angle_beta     90
_cell_angle_gamma    90

_space_group_name_H-M_alt    "P 1"
_space_group_IT_number       1

loop_
  _space_group_symop_operation_xyz
  'x, y, z'

loop_
  _atom_site_type_symbol
  _atom_site_label
  _atom_site_symmetry_multiplicity
  _atom_site_fract_x
  _atom_site_fract_y
  _atom_site_fract_z
  _atom_site_occupancy
  Sb  Sb1       1.0  0.50000  0.51344  0.42634  1.0000
  Sb  Sb2       1.0  0.50000  0.18011  0.50967  1.0000
  Sb  Sb3       1.0  0.50000  0.84678  0.59300  1.0000
  Sb  Sb4       1.0  0.50000  0.15322  0.58755  1.0000
  Sb  Sb5       1.0  0.50000  0.81989  0.42088  1.0000
  Sb  Sb6       1.0  0.50000  0.48656  0.50422  1.0000
  Sb  Sb7       1.0  0.00000  0.27499  0.43211  1.0000
  Sb  Sb8       1.0  0.00000  0.94165  0.51544  1.0000
  Sb  Sb9       1.0  0.00000  0.60832  0.59878  1.0000
  Sb  Sb10      1.0  0.00000  0.39168  0.58178  1.0000
  Sb  Sb11      1.0  0.00000  0.05835  0.41511  1.0000
  Sb  Sb12      1.0  0.00000  0.72501  0.49845  1.0000
  Ru  Ru1       1.0  0.50000  0.33333  0.38194  1.0000
  Ru  Ru2       1.0  0.50000  0.00000  0.46528  1.0000
  Ru  Ru3       1.0  0.50000  0.66667  0.54861  1.0000
  Ru  Ru4       1.0  0.00000  0.33333  0.50694  1.0000
  Ru  Ru5       1.0  0.00000  0.00000  0.59028  1.0000
  Ru  Ru6       1.0  0.00000  0.66667  0.42361  1.0000
