data_image0
_chemical_formula_structural       H12V24
_chemical_formula_sum              "H12 V24"
_cell_length_a       5.25572
_cell_length_b       6.47279
_cell_length_c       30.1495
_cell_angle_alpha    89.8271
_cell_angle_beta     89.9349
_cell_angle_gamma    104.066

_space_group_name_H-M_alt    "P 1"
_space_group_IT_number       1

loop_
  _space_group_symop_operation_xyz
  'x, y, z'

loop_
  _atom_site_type_symbol
  _atom_site_label
  _atom_site_symmetry_multiplicity
  _atom_site_fract_x
  _atom_site_fract_y
  _atom_site_fract_z
  _atom_site_occupancy
  H   H1        1.0  0.02315  0.31019  0.35648  1.0000
  H   H2        1.0  0.80093  0.86574  0.46759  1.0000
  H   H3        1.0  0.41204  0.58796  0.41204  1.0000
  H   H4        1.0  0.10648  0.22685  0.43981  1.0000
  H   H5        1.0  0.71759  0.94907  0.38426  1.0000
  H   H6        1.0  0.49537  0.50463  0.49537  1.0000
  H   H7        1.0  0.18981  0.14352  0.52315  1.0000
  H   H8        1.0  0.96759  0.69907  0.63426  1.0000
  H   H9        1.0  0.57870  0.42130  0.57870  1.0000
  H   H10       1.0  0.27315  0.06019  0.60648  1.0000
  H   H11       1.0  0.88426  0.78241  0.55093  1.0000
  H   H12       1.0  0.66204  0.33796  0.66204  1.0000
  V   V1        1.0  0.79922  0.26491  0.40135  1.0000
  V   V2        1.0  0.41033  0.98714  0.34579  1.0000
  V   V3        1.0  0.18811  0.54269  0.45690  1.0000
  V   V4        1.0  0.63596  0.63323  0.36717  1.0000
  V   V5        1.0  0.41374  0.18879  0.47828  1.0000
  V   V6        1.0  0.02485  0.91101  0.42273  1.0000
  V   V7        1.0  0.10478  0.62602  0.37357  1.0000
  V   V8        1.0  0.88256  0.18158  0.48468  1.0000
  V   V9        1.0  0.49367  0.90380  0.42913  1.0000
  V   V10       1.0  0.71930  0.54990  0.45050  1.0000
  V   V11       1.0  0.33041  0.27212  0.39495  1.0000
  V   V12       1.0  0.94152  0.99435  0.33939  1.0000
  V   V13       1.0  0.96589  0.09825  0.56801  1.0000
  V   V14       1.0  0.57700  0.82047  0.51246  1.0000
  V   V15       1.0  0.35478  0.37602  0.62357  1.0000
  V   V16       1.0  0.80263  0.46657  0.53384  1.0000
  V   V17       1.0  0.58041  0.02212  0.64495  1.0000
  V   V18       1.0  0.19152  0.74435  0.58939  1.0000
  V   V19       1.0  0.27145  0.45936  0.54024  1.0000
  V   V20       1.0  0.04922  0.01491  0.65135  1.0000
  V   V21       1.0  0.66033  0.73714  0.59579  1.0000
  V   V22       1.0  0.88596  0.38323  0.61717  1.0000
  V   V23       1.0  0.49707  0.10546  0.56162  1.0000
  V   V24       1.0  0.10818  0.82768  0.50606  1.0000
