data_image0
_chemical_formula_structural       Al8Cu4Al8Cu4
_chemical_formula_sum              "Al16 Cu8"
_cell_length_a       6.02933
_cell_length_b       6.02933
_cell_length_c       33.4505
_cell_angle_alpha    90
_cell_angle_beta     90
_cell_angle_gamma    90

_space_group_name_H-M_alt    "P 1"
_space_group_IT_number       1

loop_
  _space_group_symop_operation_xyz
  'x, y, z'

loop_
  _atom_site_type_symbol
  _atom_site_label
  _atom_site_symmetry_multiplicity
  _atom_site_fract_x
  _atom_site_fract_y
  _atom_site_fract_z
  _atom_site_occupancy
  Al  Al1       1.0  0.65761  0.84239  0.40476  1.0000
  Al  Al2       1.0  0.34239  0.84239  0.47619  1.0000
  Al  Al3       1.0  0.65761  0.15761  0.47619  1.0000
  Al  Al4       1.0  0.34239  0.15761  0.40476  1.0000
  Al  Al5       1.0  0.15761  0.34239  0.47619  1.0000
  Al  Al6       1.0  0.84239  0.34239  0.40476  1.0000
  Al  Al7       1.0  0.15761  0.65761  0.40476  1.0000
  Al  Al8       1.0  0.84239  0.65761  0.47619  1.0000
  Cu  Cu1       1.0  0.50000  0.50000  0.44048  1.0000
  Cu  Cu2       1.0  0.00000  0.00000  0.44048  1.0000
  Cu  Cu3       1.0  0.00000  0.00000  0.36905  1.0000
  Cu  Cu4       1.0  0.50000  0.50000  0.36905  1.0000
  Al  Al9       1.0  0.65761  0.84239  0.54762  1.0000
  Al  Al10      1.0  0.34239  0.84239  0.61905  1.0000
  Al  Al11      1.0  0.65761  0.15761  0.61905  1.0000
  Al  Al12      1.0  0.34239  0.15761  0.54762  1.0000
  Al  Al13      1.0  0.15761  0.34239  0.61905  1.0000
  Al  Al14      1.0  0.84239  0.34239  0.54762  1.0000
  Al  Al15      1.0  0.15761  0.65761  0.54762  1.0000
  Al  Al16      1.0  0.84239  0.65761  0.61905  1.0000
  Cu  Cu5       1.0  0.50000  0.50000  0.58333  1.0000
  Cu  Cu6       1.0  0.00000  0.00000  0.58333  1.0000
  Cu  Cu7       1.0  0.00000  0.00000  0.51190  1.0000
  Cu  Cu8       1.0  0.50000  0.50000  0.51190  1.0000
