data_image0
_chemical_formula_structural       Ti6H12Ti6H12
_chemical_formula_sum              "Ti12 H24"
_cell_length_a       4.4697
_cell_length_b       5.25914
_cell_length_c       36.8146
_cell_angle_alpha    76.2308
_cell_angle_beta     90
_cell_angle_gamma    64.8528

_space_group_name_H-M_alt    "P 1"
_space_group_IT_number       1

loop_
  _space_group_symop_operation_xyz
  'x, y, z'

loop_
  _atom_site_type_symbol
  _atom_site_label
  _atom_site_symmetry_multiplicity
  _atom_site_fract_x
  _atom_site_fract_y
  _atom_site_fract_z
  _atom_site_occupancy
  Ti  Ti1       1.0  0.66667  0.66667  0.38426  1.0000
  Ti  Ti2       1.0  0.00000  0.00000  0.49537  1.0000
  Ti  Ti3       1.0  0.33333  0.33333  0.43981  1.0000
  Ti  Ti4       1.0  0.66667  0.66667  0.46759  1.0000
  Ti  Ti5       1.0  0.00000  0.00000  0.41204  1.0000
  Ti  Ti6       1.0  0.33333  0.33333  0.35648  1.0000
  H   H1        1.0  0.91667  0.66667  0.42593  1.0000
  H   H2        1.0  0.25000  0.00000  0.37037  1.0000
  H   H3        1.0  0.58333  0.33333  0.48148  1.0000
  H   H4        1.0  0.41667  0.66667  0.42593  1.0000
  H   H5        1.0  0.75000  0.00000  0.37037  1.0000
  H   H6        1.0  0.08333  0.33333  0.48148  1.0000
  H   H7        1.0  0.25000  0.00000  0.45370  1.0000
  H   H8        1.0  0.58333  0.33333  0.39815  1.0000
  H   H9        1.0  0.91667  0.66667  0.34259  1.0000
  H   H10       1.0  0.75000  0.00000  0.45370  1.0000
  H   H11       1.0  0.08333  0.33333  0.39815  1.0000
  H   H12       1.0  0.41667  0.66667  0.34259  1.0000
  Ti  Ti7       1.0  0.66667  0.66667  0.55093  1.0000
  Ti  Ti8       1.0  0.00000  0.00000  0.66204  1.0000
  Ti  Ti9       1.0  0.33333  0.33333  0.60648  1.0000
  Ti  Ti10      1.0  0.66667  0.66667  0.63426  1.0000
  Ti  Ti11      1.0  0.00000  0.00000  0.57870  1.0000
  Ti  Ti12      1.0  0.33333  0.33333  0.52315  1.0000
  H   H13       1.0  0.91667  0.66667  0.59259  1.0000
  H   H14       1.0  0.25000  0.00000  0.53704  1.0000
  H   H15       1.0  0.58333  0.33333  0.64815  1.0000
  H   H16       1.0  0.41667  0.66667  0.59259  1.0000
  H   H17       1.0  0.75000  0.00000  0.53704  1.0000
  H   H18       1.0  0.08333  0.33333  0.64815  1.0000
  H   H19       1.0  0.25000  0.00000  0.62037  1.0000
  H   H20       1.0  0.58333  0.33333  0.56481  1.0000
  H   H21       1.0  0.91667  0.66667  0.50926  1.0000
  H   H22       1.0  0.75000  0.00000  0.62037  1.0000
  H   H23       1.0  0.08333  0.33333  0.56481  1.0000
  H   H24       1.0  0.41667  0.66667  0.50926  1.0000
