data_image0
_chemical_formula_structural       Al4Ni8Al4Ni8Al4Ni8Al4Ni8
_chemical_formula_sum              "Al16 Ni32"
_cell_length_a       3.97725
_cell_length_b       10.5802
_cell_length_c       43.7497
_cell_angle_alpha    112.081
_cell_angle_beta     120
_cell_angle_gamma    79.1664

_space_group_name_H-M_alt    "P 1"
_space_group_IT_number       1

loop_
  _space_group_symop_operation_xyz
  'x, y, z'

loop_
  _atom_site_type_symbol
  _atom_site_label
  _atom_site_symmetry_multiplicity
  _atom_site_fract_x
  _atom_site_fract_y
  _atom_site_fract_z
  _atom_site_occupancy
  Al  Al1       1.0  0.33333  0.15471  0.38149  1.0000
  Al  Al2       1.0  0.33333  0.65471  0.33603  1.0000
  Al  Al3       1.0  0.66667  0.34529  0.36851  1.0000
  Al  Al4       1.0  0.66667  0.84529  0.32306  1.0000
  Ni  Ni1       1.0  0.33333  0.40667  0.40439  1.0000
  Ni  Ni2       1.0  0.33333  0.90667  0.35894  1.0000
  Ni  Ni3       1.0  0.66667  0.09333  0.34561  1.0000
  Ni  Ni4       1.0  0.66667  0.59333  0.39106  1.0000
  Ni  Ni5       1.0  0.00000  0.00000  0.39773  1.0000
  Ni  Ni6       1.0  0.00000  0.50000  0.35227  1.0000
  Ni  Ni7       1.0  0.00000  0.25000  0.32955  1.0000
  Ni  Ni8       1.0  0.00000  0.75000  0.37500  1.0000
  Al  Al5       1.0  0.33333  0.15471  0.47240  1.0000
  Al  Al6       1.0  0.33333  0.65471  0.42694  1.0000
  Al  Al7       1.0  0.66667  0.34529  0.45942  1.0000
  Al  Al8       1.0  0.66667  0.84529  0.41397  1.0000
  Ni  Ni9       1.0  0.33333  0.40667  0.49530  1.0000
  Ni  Ni10      1.0  0.33333  0.90667  0.44985  1.0000
  Ni  Ni11      1.0  0.66667  0.09333  0.43651  1.0000
  Ni  Ni12      1.0  0.66667  0.59333  0.48197  1.0000
  Ni  Ni13      1.0  0.00000  0.00000  0.48864  1.0000
  Ni  Ni14      1.0  0.00000  0.50000  0.44318  1.0000
  Ni  Ni15      1.0  0.00000  0.25000  0.42045  1.0000
  Ni  Ni16      1.0  0.00000  0.75000  0.46591  1.0000
  Al  Al9       1.0  0.33333  0.15471  0.56331  1.0000
  Al  Al10      1.0  0.33333  0.65471  0.51785  1.0000
  Al  Al11      1.0  0.66667  0.34529  0.55033  1.0000
  Al  Al12      1.0  0.66667  0.84529  0.50487  1.0000
  Ni  Ni17      1.0  0.33333  0.40667  0.58621  1.0000
  Ni  Ni18      1.0  0.33333  0.90667  0.54076  1.0000
  Ni  Ni19      1.0  0.66667  0.09333  0.52742  1.0000
  Ni  Ni20      1.0  0.66667  0.59333  0.57288  1.0000
  Ni  Ni21      1.0  0.00000  0.00000  0.57955  1.0000
  Ni  Ni22      1.0  0.00000  0.50000  0.53409  1.0000
  Ni  Ni23      1.0  0.00000  0.25000  0.51136  1.0000
  Ni  Ni24      1.0  0.00000  0.75000  0.55682  1.0000
  Al  Al13      1.0  0.33333  0.15471  0.65422  1.0000
  Al  Al14      1.0  0.33333  0.65471  0.60876  1.0000
  Al  Al15      1.0  0.66667  0.34529  0.64124  1.0000
  Al  Al16      1.0  0.66667  0.84529  0.59578  1.0000
  Ni  Ni25      1.0  0.33333  0.40667  0.67712  1.0000
  Ni  Ni26      1.0  0.33333  0.90667  0.63167  1.0000
  Ni  Ni27      1.0  0.66667  0.09333  0.61833  1.0000
  Ni  Ni28      1.0  0.66667  0.59333  0.66379  1.0000
  Ni  Ni29      1.0  0.00000  0.00000  0.67045  1.0000
  Ni  Ni30      1.0  0.00000  0.50000  0.62500  1.0000
  Ni  Ni31      1.0  0.00000  0.25000  0.60227  1.0000
  Ni  Ni32      1.0  0.00000  0.75000  0.64773  1.0000
