data_image0
_chemical_formula_structural       Fe4Ge8Fe4Ge8
_chemical_formula_sum              "Fe8 Ge16"
_cell_length_a       5.81392
_cell_length_b       4.85396
_cell_length_c       34.8835
_cell_angle_alpha    90
_cell_angle_beta     90
_cell_angle_gamma    90

_space_group_name_H-M_alt    "P 1"
_space_group_IT_number       1

loop_
  _space_group_symop_operation_xyz
  'x, y, z'

loop_
  _atom_site_type_symbol
  _atom_site_label
  _atom_site_symmetry_multiplicity
  _atom_site_fract_x
  _atom_site_fract_y
  _atom_site_fract_z
  _atom_site_occupancy
  Fe  Fe1       1.0  0.00000  0.25000  0.48611  1.0000
  Fe  Fe2       1.0  0.00000  0.75000  0.48611  1.0000
  Fe  Fe3       1.0  0.50000  0.75000  0.40278  1.0000
  Fe  Fe4       1.0  0.50000  0.25000  0.40278  1.0000
  Ge  Ge1       1.0  0.15617  0.00000  0.42881  1.0000
  Ge  Ge2       1.0  0.34383  0.00000  0.34547  1.0000
  Ge  Ge3       1.0  0.15617  0.50000  0.37675  1.0000
  Ge  Ge4       1.0  0.34383  0.50000  0.46008  1.0000
  Ge  Ge5       1.0  0.65617  0.50000  0.34547  1.0000
  Ge  Ge6       1.0  0.84383  0.50000  0.42881  1.0000
  Ge  Ge7       1.0  0.65617  0.00000  0.46008  1.0000
  Ge  Ge8       1.0  0.84383  0.00000  0.37675  1.0000
  Fe  Fe5       1.0  0.00000  0.25000  0.65278  1.0000
  Fe  Fe6       1.0  0.00000  0.75000  0.65278  1.0000
  Fe  Fe7       1.0  0.50000  0.75000  0.56944  1.0000
  Fe  Fe8       1.0  0.50000  0.25000  0.56944  1.0000
  Ge  Ge9       1.0  0.15617  0.00000  0.59547  1.0000
  Ge  Ge10      1.0  0.34383  0.00000  0.51214  1.0000
  Ge  Ge11      1.0  0.15617  0.50000  0.54342  1.0000
  Ge  Ge12      1.0  0.34383  0.50000  0.62675  1.0000
  Ge  Ge13      1.0  0.65617  0.50000  0.51214  1.0000
  Ge  Ge14      1.0  0.84383  0.50000  0.59547  1.0000
  Ge  Ge15      1.0  0.65617  0.00000  0.62675  1.0000
  Ge  Ge16      1.0  0.84383  0.00000  0.54342  1.0000
