data_image0
_chemical_formula_structural       Ti3Ga3Ti3Ga3
_chemical_formula_sum              "Ti6 Ga6"
_cell_length_a       3.91987
_cell_length_b       6.21052
_cell_length_c       31.423
_cell_angle_alpha    71.5651
_cell_angle_beta     90
_cell_angle_gamma    90

_space_group_name_H-M_alt    "P 1"
_space_group_IT_number       1

loop_
  _space_group_symop_operation_xyz
  'x, y, z'

loop_
  _atom_site_type_symbol
  _atom_site_label
  _atom_site_symmetry_multiplicity
  _atom_site_fract_x
  _atom_site_fract_y
  _atom_site_fract_z
  _atom_site_occupancy
  Ti  Ti1       1.0  0.50000  0.66667  0.38542  1.0000
  Ti  Ti2       1.0  0.50000  0.33333  0.46875  1.0000
  Ti  Ti3       1.0  0.50000  0.00000  0.42708  1.0000
  Ga  Ga1       1.0  0.00000  0.66667  0.44792  1.0000
  Ga  Ga2       1.0  0.00000  0.33333  0.40625  1.0000
  Ga  Ga3       1.0  0.00000  0.00000  0.48958  1.0000
  Ti  Ti4       1.0  0.50000  0.66667  0.51042  1.0000
  Ti  Ti5       1.0  0.50000  0.33333  0.59375  1.0000
  Ti  Ti6       1.0  0.50000  0.00000  0.55208  1.0000
  Ga  Ga4       1.0  0.00000  0.66667  0.57292  1.0000
  Ga  Ga5       1.0  0.00000  0.33333  0.53125  1.0000
  Ga  Ga6       1.0  0.00000  0.00000  0.61458  1.0000
