data_image0
_chemical_formula_structural       Sb16Rh8
_chemical_formula_sum              "Sb16 Rh8"
_cell_length_a       6.61172
_cell_length_b       9.36707
_cell_length_c       37.4683
_cell_angle_alpha    88.8514
_cell_angle_beta     108.492
_cell_angle_gamma    108.492

_space_group_name_H-M_alt    "P 1"
_space_group_IT_number       1

loop_
  _space_group_symop_operation_xyz
  'x, y, z'

loop_
  _atom_site_type_symbol
  _atom_site_label
  _atom_site_symmetry_multiplicity
  _atom_site_fract_x
  _atom_site_fract_y
  _atom_site_fract_z
  _atom_site_occupancy
  Sb  Sb1       1.0  0.15530  0.73160  0.62743  1.0000
  Sb  Sb2       1.0  0.15530  0.23160  0.50243  1.0000
  Sb  Sb3       1.0  0.84470  0.40695  0.42127  1.0000
  Sb  Sb4       1.0  0.84470  0.90695  0.54627  1.0000
  Sb  Sb5       1.0  0.84470  0.26840  0.58090  1.0000
  Sb  Sb6       1.0  0.84470  0.76840  0.45590  1.0000
  Sb  Sb7       1.0  0.15530  0.59305  0.53707  1.0000
  Sb  Sb8       1.0  0.15530  0.09305  0.41207  1.0000
  Sb  Sb9       1.0  0.34928  0.49506  0.38712  1.0000
  Sb  Sb10      1.0  0.34928  0.99506  0.51212  1.0000
  Sb  Sb11      1.0  0.65072  0.86817  0.60540  1.0000
  Sb  Sb12      1.0  0.65072  0.36817  0.48040  1.0000
  Sb  Sb13      1.0  0.65072  0.50494  0.57121  1.0000
  Sb  Sb14      1.0  0.65072  0.00494  0.44621  1.0000
  Sb  Sb15      1.0  0.34928  0.13183  0.60293  1.0000
  Sb  Sb16      1.0  0.34928  0.63183  0.47793  1.0000
  Rh  Rh1       1.0  0.22850  0.35662  0.44319  1.0000
  Rh  Rh2       1.0  0.22850  0.85662  0.56819  1.0000
  Rh  Rh3       1.0  0.77150  0.64391  0.39001  1.0000
  Rh  Rh4       1.0  0.77150  0.14391  0.51501  1.0000
  Rh  Rh5       1.0  0.77150  0.64338  0.51514  1.0000
  Rh  Rh6       1.0  0.77150  0.14338  0.39014  1.0000
  Rh  Rh7       1.0  0.22850  0.35609  0.56832  1.0000
  Rh  Rh8       1.0  0.22850  0.85609  0.44332  1.0000
