data_image0
_chemical_formula_structural       As4Cu4Zn4
_chemical_formula_sum              "As4 Cu4 Zn4"
_cell_length_a       4.06926
_cell_length_b       4.14593
_cell_length_c       34.8924
_cell_angle_alpha    90
_cell_angle_beta     90
_cell_angle_gamma    90

_space_group_name_H-M_alt    "P 1"
_space_group_IT_number       1

loop_
  _space_group_symop_operation_xyz
  'x, y, z'

loop_
  _atom_site_type_symbol
  _atom_site_label
  _atom_site_symmetry_multiplicity
  _atom_site_fract_x
  _atom_site_fract_y
  _atom_site_fract_z
  _atom_site_occupancy
  As  As1       1.0  0.75000  0.22709  0.34714  1.0000
  As  As2       1.0  0.25000  0.77291  0.43047  1.0000
  As  As3       1.0  0.75000  0.22709  0.51380  1.0000
  As  As4       1.0  0.25000  0.77291  0.59714  1.0000
  Cu  Cu1       1.0  0.75000  0.72546  0.47326  1.0000
  Cu  Cu2       1.0  0.25000  0.27454  0.38993  1.0000
  Cu  Cu3       1.0  0.75000  0.72546  0.63993  1.0000
  Cu  Cu4       1.0  0.25000  0.27454  0.55659  1.0000
  Zn  Zn1       1.0  0.25000  0.26667  0.47127  1.0000
  Zn  Zn2       1.0  0.75000  0.73333  0.38794  1.0000
  Zn  Zn3       1.0  0.25000  0.26667  0.63794  1.0000
  Zn  Zn4       1.0  0.75000  0.73333  0.55460  1.0000
