data_image0
_chemical_formula_structural       Si8Ni8Si8Ni8Si8Ni8
_chemical_formula_sum              "Si24 Ni24"
_cell_length_a       5.52328
_cell_length_b       10.7271
_cell_length_c       33.6104
_cell_angle_alpha    108.259
_cell_angle_beta     90
_cell_angle_gamma    90

_space_group_name_H-M_alt    "P 1"
_space_group_IT_number       1

loop_
  _space_group_symop_operation_xyz
  'x, y, z'

loop_
  _atom_site_type_symbol
  _atom_site_label
  _atom_site_symmetry_multiplicity
  _atom_site_fract_x
  _atom_site_fract_y
  _atom_site_fract_z
  _atom_site_occupancy
  Si  Si1       1.0  0.91391  0.08918  0.35892  1.0000
  Si  Si2       1.0  0.91391  0.58918  0.40892  1.0000
  Si  Si3       1.0  0.08609  0.41082  0.44108  1.0000
  Si  Si4       1.0  0.08609  0.91082  0.39108  1.0000
  Si  Si5       1.0  0.58609  0.33918  0.38392  1.0000
  Si  Si6       1.0  0.58609  0.83918  0.43392  1.0000
  Si  Si7       1.0  0.41391  0.16082  0.41608  1.0000
  Si  Si8       1.0  0.41391  0.66082  0.36608  1.0000
  Ni  Ni1       1.0  0.81228  0.24542  0.42454  1.0000
  Ni  Ni2       1.0  0.81228  0.74542  0.37454  1.0000
  Ni  Ni3       1.0  0.18772  0.25458  0.37546  1.0000
  Ni  Ni4       1.0  0.18772  0.75458  0.42546  1.0000
  Ni  Ni5       1.0  0.68772  0.49542  0.44954  1.0000
  Ni  Ni6       1.0  0.68772  0.99542  0.39954  1.0000
  Ni  Ni7       1.0  0.31228  0.00458  0.35046  1.0000
  Ni  Ni8       1.0  0.31228  0.50458  0.40046  1.0000
  Si  Si9       1.0  0.91391  0.08918  0.45892  1.0000
  Si  Si10      1.0  0.91391  0.58918  0.50892  1.0000
  Si  Si11      1.0  0.08609  0.41082  0.54108  1.0000
  Si  Si12      1.0  0.08609  0.91082  0.49108  1.0000
  Si  Si13      1.0  0.58609  0.33918  0.48392  1.0000
  Si  Si14      1.0  0.58609  0.83918  0.53392  1.0000
  Si  Si15      1.0  0.41391  0.16082  0.51608  1.0000
  Si  Si16      1.0  0.41391  0.66082  0.46608  1.0000
  Ni  Ni9       1.0  0.81228  0.24542  0.52454  1.0000
  Ni  Ni10      1.0  0.81228  0.74542  0.47454  1.0000
  Ni  Ni11      1.0  0.18772  0.25458  0.47546  1.0000
  Ni  Ni12      1.0  0.18772  0.75458  0.52546  1.0000
  Ni  Ni13      1.0  0.68772  0.49542  0.54954  1.0000
  Ni  Ni14      1.0  0.68772  0.99542  0.49954  1.0000
  Ni  Ni15      1.0  0.31228  0.00458  0.45046  1.0000
  Ni  Ni16      1.0  0.31228  0.50458  0.50046  1.0000
  Si  Si17      1.0  0.91391  0.08918  0.55892  1.0000
  Si  Si18      1.0  0.91391  0.58918  0.60892  1.0000
  Si  Si19      1.0  0.08609  0.41082  0.64108  1.0000
  Si  Si20      1.0  0.08609  0.91082  0.59108  1.0000
  Si  Si21      1.0  0.58609  0.33918  0.58392  1.0000
  Si  Si22      1.0  0.58609  0.83918  0.63392  1.0000
  Si  Si23      1.0  0.41391  0.16082  0.61608  1.0000
  Si  Si24      1.0  0.41391  0.66082  0.56608  1.0000
  Ni  Ni17      1.0  0.81228  0.24542  0.62454  1.0000
  Ni  Ni18      1.0  0.81228  0.74542  0.57454  1.0000
  Ni  Ni19      1.0  0.18772  0.25458  0.57546  1.0000
  Ni  Ni20      1.0  0.18772  0.75458  0.62546  1.0000
  Ni  Ni21      1.0  0.68772  0.49542  0.64954  1.0000
  Ni  Ni22      1.0  0.68772  0.99542  0.59954  1.0000
  Ni  Ni23      1.0  0.31228  0.00458  0.55046  1.0000
  Ni  Ni24      1.0  0.31228  0.50458  0.60046  1.0000
