data_image0
_chemical_formula_structural       Au16Nb8
_chemical_formula_sum              "Au16 Nb8"
_cell_length_a       5.37412
_cell_length_b       7.15474
_cell_length_c       31.9728
_cell_angle_alpha    95.5535
_cell_angle_beta     91.6724
_cell_angle_gamma    96.1965

_space_group_name_H-M_alt    "P 1"
_space_group_IT_number       1

loop_
  _space_group_symop_operation_xyz
  'x, y, z'

loop_
  _atom_site_type_symbol
  _atom_site_label
  _atom_site_symmetry_multiplicity
  _atom_site_fract_x
  _atom_site_fract_y
  _atom_site_fract_z
  _atom_site_occupancy
  Au  Au1       1.0  0.19444  0.27778  0.40278  1.0000
  Au  Au2       1.0  0.98611  0.56944  0.44444  1.0000
  Au  Au3       1.0  0.77778  0.86111  0.48611  1.0000
  Au  Au4       1.0  0.40278  0.98611  0.36111  1.0000
  Au  Au5       1.0  0.59722  0.51389  0.38889  1.0000
  Au  Au6       1.0  0.38889  0.80556  0.43056  1.0000
  Au  Au7       1.0  0.18056  0.09722  0.47222  1.0000
  Au  Au8       1.0  0.80556  0.22222  0.34722  1.0000
  Au  Au9       1.0  0.36111  0.44444  0.56944  1.0000
  Au  Au10      1.0  0.15278  0.73611  0.61111  1.0000
  Au  Au11      1.0  0.94444  0.02778  0.65278  1.0000
  Au  Au12      1.0  0.56944  0.15278  0.52778  1.0000
  Au  Au13      1.0  0.76389  0.68056  0.55556  1.0000
  Au  Au14      1.0  0.55556  0.97222  0.59722  1.0000
  Au  Au15      1.0  0.34722  0.26389  0.63889  1.0000
  Au  Au16      1.0  0.97222  0.38889  0.51389  1.0000
  Nb  Nb1       1.0  0.47917  0.47917  0.47917  1.0000
  Nb  Nb2       1.0  0.10417  0.60417  0.35417  1.0000
  Nb  Nb3       1.0  0.89583  0.89583  0.39583  1.0000
  Nb  Nb4       1.0  0.68750  0.18750  0.43750  1.0000
  Nb  Nb5       1.0  0.64583  0.64583  0.64583  1.0000
  Nb  Nb6       1.0  0.27083  0.77083  0.52083  1.0000
  Nb  Nb7       1.0  0.06250  0.06250  0.56250  1.0000
  Nb  Nb8       1.0  0.85417  0.35417  0.60417  1.0000
