data_image0
_chemical_formula_structural       Ti4Ga4Ti4Ga4
_chemical_formula_sum              "Ti8 Ga8"
_cell_length_a       3.92788
_cell_length_b       8.31719
_cell_length_c       31.423
_cell_angle_alpha    103.658
_cell_angle_beta     90
_cell_angle_gamma    76.3418

_space_group_name_H-M_alt    "P 1"
_space_group_IT_number       1

loop_
  _space_group_symop_operation_xyz
  'x, y, z'

loop_
  _atom_site_type_symbol
  _atom_site_label
  _atom_site_symmetry_multiplicity
  _atom_site_fract_x
  _atom_site_fract_y
  _atom_site_fract_z
  _atom_site_occupancy
  Ti  Ti1       1.0  0.62500  0.75000  0.47656  1.0000
  Ti  Ti2       1.0  0.87500  0.25000  0.44531  1.0000
  Ti  Ti3       1.0  0.37500  0.25000  0.38281  1.0000
  Ti  Ti4       1.0  0.12500  0.75000  0.41406  1.0000
  Ga  Ga1       1.0  0.75000  0.50000  0.39844  1.0000
  Ga  Ga2       1.0  0.00000  0.00000  0.49219  1.0000
  Ga  Ga3       1.0  0.50000  0.00000  0.42969  1.0000
  Ga  Ga4       1.0  0.25000  0.50000  0.46094  1.0000
  Ti  Ti5       1.0  0.62500  0.75000  0.60156  1.0000
  Ti  Ti6       1.0  0.87500  0.25000  0.57031  1.0000
  Ti  Ti7       1.0  0.37500  0.25000  0.50781  1.0000
  Ti  Ti8       1.0  0.12500  0.75000  0.53906  1.0000
  Ga  Ga5       1.0  0.75000  0.50000  0.52344  1.0000
  Ga  Ga6       1.0  0.00000  0.00000  0.61719  1.0000
  Ga  Ga7       1.0  0.50000  0.00000  0.55469  1.0000
  Ga  Ga8       1.0  0.25000  0.50000  0.58594  1.0000
