data_image0
_chemical_formula_structural       Fe16H16
_chemical_formula_sum              "Fe16 H16"
_cell_length_a       2.55692
_cell_length_b       6.26316
_cell_length_c       35.4298
_cell_angle_alpha    90
_cell_angle_beta     90
_cell_angle_gamma    90

_space_group_name_H-M_alt    "P 1"
_space_group_IT_number       1

loop_
  _space_group_symop_operation_xyz
  'x, y, z'

loop_
  _atom_site_type_symbol
  _atom_site_label
  _atom_site_symmetry_multiplicity
  _atom_site_fract_x
  _atom_site_fract_y
  _atom_site_fract_z
  _atom_site_occupancy
  Fe  Fe1       1.0  0.00000  0.02083  0.48958  1.0000
  Fe  Fe2       1.0  0.00000  0.02083  0.36458  1.0000
  Fe  Fe3       1.0  0.00000  0.68750  0.40625  1.0000
  Fe  Fe4       1.0  0.00000  0.35417  0.44792  1.0000
  Fe  Fe5       1.0  0.50000  0.35417  0.38542  1.0000
  Fe  Fe6       1.0  0.50000  0.02083  0.42708  1.0000
  Fe  Fe7       1.0  0.50000  0.68750  0.46875  1.0000
  Fe  Fe8       1.0  0.50000  0.68750  0.34375  1.0000
  Fe  Fe9       1.0  0.00000  0.68750  0.65625  1.0000
  Fe  Fe10      1.0  0.00000  0.68750  0.53125  1.0000
  Fe  Fe11      1.0  0.00000  0.35417  0.57292  1.0000
  Fe  Fe12      1.0  0.00000  0.02083  0.61458  1.0000
  Fe  Fe13      1.0  0.50000  0.02083  0.55208  1.0000
  Fe  Fe14      1.0  0.50000  0.68750  0.59375  1.0000
  Fe  Fe15      1.0  0.50000  0.35417  0.63542  1.0000
  Fe  Fe16      1.0  0.50000  0.35417  0.51042  1.0000
  H   H1        1.0  0.00000  0.52083  0.36458  1.0000
  H   H2        1.0  0.00000  0.18750  0.40625  1.0000
  H   H3        1.0  0.00000  0.85417  0.44792  1.0000
  H   H4        1.0  0.00000  0.52083  0.48958  1.0000
  H   H5        1.0  0.50000  0.18750  0.34375  1.0000
  H   H6        1.0  0.50000  0.85417  0.38542  1.0000
  H   H7        1.0  0.50000  0.52083  0.42708  1.0000
  H   H8        1.0  0.50000  0.18750  0.46875  1.0000
  H   H9        1.0  0.00000  0.18750  0.53125  1.0000
  H   H10       1.0  0.00000  0.85417  0.57292  1.0000
  H   H11       1.0  0.00000  0.52083  0.61458  1.0000
  H   H12       1.0  0.00000  0.18750  0.65625  1.0000
  H   H13       1.0  0.50000  0.85417  0.51042  1.0000
  H   H14       1.0  0.50000  0.52083  0.55208  1.0000
  H   H15       1.0  0.50000  0.18750  0.59375  1.0000
  H   H16       1.0  0.50000  0.85417  0.63542  1.0000
