data_image0
_chemical_formula_structural       Au16Ca8
_chemical_formula_sum              "Au16 Ca8"
_cell_length_a       5.82894
_cell_length_b       10.7171
_cell_length_c       29.5403
_cell_angle_alpha    93.127
_cell_angle_beta     91.9034
_cell_angle_gamma    97.945

_space_group_name_H-M_alt    "P 1"
_space_group_IT_number       1

loop_
  _space_group_symop_operation_xyz
  'x, y, z'

loop_
  _atom_site_type_symbol
  _atom_site_label
  _atom_site_symmetry_multiplicity
  _atom_site_fract_x
  _atom_site_fract_y
  _atom_site_fract_z
  _atom_site_occupancy
  Au  Au1       1.0  0.63232  0.35019  0.62214  1.0000
  Au  Au2       1.0  0.77518  0.85019  0.55071  1.0000
  Au  Au3       1.0  0.84387  0.14981  0.63977  1.0000
  Au  Au4       1.0  0.98673  0.64981  0.56834  1.0000
  Au  Au5       1.0  0.13776  0.06170  0.58092  1.0000
  Au  Au6       1.0  0.28062  0.56170  0.50950  1.0000
  Au  Au7       1.0  0.48128  0.93830  0.60955  1.0000
  Au  Au8       1.0  0.62414  0.43830  0.53812  1.0000
  Au  Au9       1.0  0.91804  0.35019  0.47928  1.0000
  Au  Au10      1.0  0.06089  0.85019  0.40785  1.0000
  Au  Au11      1.0  0.12958  0.14981  0.49691  1.0000
  Au  Au12      1.0  0.27244  0.64981  0.42548  1.0000
  Au  Au13      1.0  0.42348  0.06170  0.43807  1.0000
  Au  Au14      1.0  0.56633  0.56170  0.36664  1.0000
  Au  Au15      1.0  0.76700  0.93830  0.46669  1.0000
  Au  Au16      1.0  0.90986  0.43830  0.39527  1.0000
  Ca  Ca1       1.0  0.63293  0.14468  0.53885  1.0000
  Ca  Ca2       1.0  0.49007  0.64468  0.61028  1.0000
  Ca  Ca3       1.0  0.12898  0.35532  0.58019  1.0000
  Ca  Ca4       1.0  0.27184  0.85532  0.50876  1.0000
  Ca  Ca5       1.0  0.91864  0.14468  0.39600  1.0000
  Ca  Ca6       1.0  0.77578  0.64468  0.46743  1.0000
  Ca  Ca7       1.0  0.41469  0.35532  0.43734  1.0000
  Ca  Ca8       1.0  0.55755  0.85532  0.36591  1.0000
