data_image0
_chemical_formula_structural       Ca4Zn8
_chemical_formula_sum              "Ca4 Zn8"
_cell_length_a       5.52652
_cell_length_b       5.52652
_cell_length_c       34.5779
_cell_angle_alpha    90
_cell_angle_beta     90
_cell_angle_gamma    120

_space_group_name_H-M_alt    "P 1"
_space_group_IT_number       1

loop_
  _space_group_symop_operation_xyz
  'x, y, z'

loop_
  _atom_site_type_symbol
  _atom_site_label
  _atom_site_symmetry_multiplicity
  _atom_site_fract_x
  _atom_site_fract_y
  _atom_site_fract_z
  _atom_site_occupancy
  Ca  Ca1       1.0  0.33333  0.66667  0.60837  1.0000
  Ca  Ca2       1.0  0.66667  0.33333  0.48337  1.0000
  Ca  Ca3       1.0  0.66667  0.33333  0.57913  1.0000
  Ca  Ca4       1.0  0.33333  0.66667  0.45413  1.0000
  Zn  Zn1       1.0  0.00000  0.00000  0.59375  1.0000
  Zn  Zn2       1.0  0.00000  0.00000  0.46875  1.0000
  Zn  Zn3       1.0  0.83297  0.66593  0.40625  1.0000
  Zn  Zn4       1.0  0.16703  0.83297  0.53125  1.0000
  Zn  Zn5       1.0  0.66593  0.83297  0.53125  1.0000
  Zn  Zn6       1.0  0.33407  0.16703  0.40625  1.0000
  Zn  Zn7       1.0  0.83297  0.16703  0.40625  1.0000
  Zn  Zn8       1.0  0.16703  0.33407  0.53125  1.0000
