data_image0
_chemical_formula_structural       Al12Ru2
_chemical_formula_sum              "Al12 Ru2"
_cell_length_a       4.9497
_cell_length_b       4.9497
_cell_length_c       35.9166
_cell_angle_alpha    90
_cell_angle_beta     90
_cell_angle_gamma    97.6653

_space_group_name_H-M_alt    "P 1"
_space_group_IT_number       1

loop_
  _space_group_symop_operation_xyz
  'x, y, z'

loop_
  _atom_site_type_symbol
  _atom_site_label
  _atom_site_symmetry_multiplicity
  _atom_site_fract_x
  _atom_site_fract_y
  _atom_site_fract_z
  _atom_site_occupancy
  Al  Al1       1.0  0.68082  0.31918  0.41071  1.0000
  Al  Al2       1.0  0.31918  0.68082  0.53571  1.0000
  Al  Al3       1.0  0.31918  0.68082  0.41071  1.0000
  Al  Al4       1.0  0.68082  0.31918  0.53571  1.0000
  Al  Al5       1.0  0.85945  0.85945  0.38582  1.0000
  Al  Al6       1.0  0.14055  0.14055  0.51082  1.0000
  Al  Al7       1.0  0.85945  0.85945  0.56061  1.0000
  Al  Al8       1.0  0.14055  0.14055  0.43561  1.0000
  Al  Al9       1.0  0.38185  0.02187  0.59821  1.0000
  Al  Al10      1.0  0.61815  0.97813  0.47321  1.0000
  Al  Al11      1.0  0.02187  0.38185  0.59821  1.0000
  Al  Al12      1.0  0.97813  0.61815  0.47321  1.0000
  Ru  Ru1       1.0  0.53643  0.53643  0.59821  1.0000
  Ru  Ru2       1.0  0.46357  0.46357  0.47321  1.0000
