data_image0
_chemical_formula_structural       Ag2Ca4Ge2
_chemical_formula_sum              "Ag2 Ca4 Ge2"
_cell_length_a       5.08825
_cell_length_b       5.08825
_cell_length_c       28.7835
_cell_angle_alpha    90
_cell_angle_beta     90
_cell_angle_gamma    90

_space_group_name_H-M_alt    "P 1"
_space_group_IT_number       1

loop_
  _space_group_symop_operation_xyz
  'x, y, z'

loop_
  _atom_site_type_symbol
  _atom_site_label
  _atom_site_symmetry_multiplicity
  _atom_site_fract_x
  _atom_site_fract_y
  _atom_site_fract_z
  _atom_site_occupancy
  Ag  Ag1       1.0  0.50000  0.50000  0.40625  1.0000
  Ag  Ag2       1.0  0.00000  0.00000  0.53125  1.0000
  Ca  Ca1       1.0  0.50000  0.00000  0.59375  1.0000
  Ca  Ca2       1.0  0.00000  0.50000  0.59375  1.0000
  Ca  Ca3       1.0  0.00000  0.50000  0.46875  1.0000
  Ca  Ca4       1.0  0.50000  0.00000  0.46875  1.0000
  Ge  Ge1       1.0  0.00000  0.00000  0.40625  1.0000
  Ge  Ge2       1.0  0.50000  0.50000  0.53125  1.0000
