data_image0
_chemical_formula_structural       Ge32Pt32
_chemical_formula_sum              "Ge32 Pt32"
_cell_length_a       8.41298
_cell_length_b       9.18251
_cell_length_c       33.9071
_cell_angle_alpha    83.8726
_cell_angle_beta     88.5228
_cell_angle_gamma    87.2719

_space_group_name_H-M_alt    "P 1"
_space_group_IT_number       1

loop_
  _space_group_symop_operation_xyz
  'x, y, z'

loop_
  _atom_site_type_symbol
  _atom_site_label
  _atom_site_symmetry_multiplicity
  _atom_site_fract_x
  _atom_site_fract_y
  _atom_site_fract_z
  _atom_site_occupancy
  Ge  Ge1       1.0  0.11272  0.94030  0.68004  1.0000
  Ge  Ge2       1.0  0.61272  0.54030  0.63004  1.0000
  Ge  Ge3       1.0  0.88728  0.35970  0.66996  1.0000
  Ge  Ge4       1.0  0.38728  0.95970  0.61996  1.0000
  Ge  Ge5       1.0  0.69962  0.00982  0.68873  1.0000
  Ge  Ge6       1.0  0.19962  0.60982  0.63873  1.0000
  Ge  Ge7       1.0  0.30038  0.29018  0.66127  1.0000
  Ge  Ge8       1.0  0.80038  0.89018  0.61127  1.0000
  Ge  Ge9       1.0  0.11272  0.14030  0.58004  1.0000
  Ge  Ge10      1.0  0.61272  0.74030  0.53004  1.0000
  Ge  Ge11      1.0  0.88728  0.55970  0.56996  1.0000
  Ge  Ge12      1.0  0.38728  0.15970  0.51996  1.0000
  Ge  Ge13      1.0  0.69962  0.20982  0.58873  1.0000
  Ge  Ge14      1.0  0.19962  0.80982  0.53873  1.0000
  Ge  Ge15      1.0  0.30038  0.49018  0.56127  1.0000
  Ge  Ge16      1.0  0.80038  0.09018  0.51127  1.0000
  Ge  Ge17      1.0  0.11272  0.34030  0.48004  1.0000
  Ge  Ge18      1.0  0.61272  0.94030  0.43004  1.0000
  Ge  Ge19      1.0  0.88728  0.75970  0.46996  1.0000
  Ge  Ge20      1.0  0.38728  0.35970  0.41996  1.0000
  Ge  Ge21      1.0  0.69962  0.40982  0.48873  1.0000
  Ge  Ge22      1.0  0.19962  0.00982  0.43873  1.0000
  Ge  Ge23      1.0  0.30038  0.69018  0.46127  1.0000
  Ge  Ge24      1.0  0.80038  0.29018  0.41127  1.0000
  Ge  Ge25      1.0  0.11272  0.54030  0.38004  1.0000
  Ge  Ge26      1.0  0.61272  0.14030  0.33004  1.0000
  Ge  Ge27      1.0  0.88728  0.95970  0.36996  1.0000
  Ge  Ge28      1.0  0.38728  0.55970  0.31996  1.0000
  Ge  Ge29      1.0  0.69962  0.60982  0.38873  1.0000
  Ge  Ge30      1.0  0.19962  0.20982  0.33873  1.0000
  Ge  Ge31      1.0  0.30038  0.89018  0.36127  1.0000
  Ge  Ge32      1.0  0.80038  0.49018  0.31127  1.0000
  Pt  Pt1       1.0  0.90335  0.62257  0.64032  1.0000
  Pt  Pt2       1.0  0.40335  0.02257  0.69032  1.0000
  Pt  Pt3       1.0  0.09665  0.87743  0.60968  1.0000
  Pt  Pt4       1.0  0.59665  0.27743  0.65968  1.0000
  Pt  Pt5       1.0  0.09679  0.37732  0.60967  1.0000
  Pt  Pt6       1.0  0.59679  0.77732  0.65967  1.0000
  Pt  Pt7       1.0  0.90321  0.12268  0.64033  1.0000
  Pt  Pt8       1.0  0.40321  0.52268  0.69033  1.0000
  Pt  Pt9       1.0  0.90335  0.82257  0.54032  1.0000
  Pt  Pt10      1.0  0.40335  0.22257  0.59032  1.0000
  Pt  Pt11      1.0  0.09665  0.07743  0.50968  1.0000
  Pt  Pt12      1.0  0.59665  0.47743  0.55968  1.0000
  Pt  Pt13      1.0  0.09679  0.57732  0.50967  1.0000
  Pt  Pt14      1.0  0.59679  0.97732  0.55967  1.0000
  Pt  Pt15      1.0  0.90321  0.32268  0.54033  1.0000
  Pt  Pt16      1.0  0.40321  0.72268  0.59033  1.0000
  Pt  Pt17      1.0  0.90335  0.02257  0.44032  1.0000
  Pt  Pt18      1.0  0.40335  0.42257  0.49032  1.0000
  Pt  Pt19      1.0  0.09665  0.27743  0.40968  1.0000
  Pt  Pt20      1.0  0.59665  0.67743  0.45968  1.0000
  Pt  Pt21      1.0  0.09679  0.77732  0.40967  1.0000
  Pt  Pt22      1.0  0.59679  0.17732  0.45967  1.0000
  Pt  Pt23      1.0  0.90321  0.52268  0.44033  1.0000
  Pt  Pt24      1.0  0.40321  0.92268  0.49033  1.0000
  Pt  Pt25      1.0  0.90335  0.22257  0.34032  1.0000
  Pt  Pt26      1.0  0.40335  0.62257  0.39032  1.0000
  Pt  Pt27      1.0  0.09665  0.47743  0.30968  1.0000
  Pt  Pt28      1.0  0.59665  0.87743  0.35968  1.0000
  Pt  Pt29      1.0  0.09679  0.97732  0.30967  1.0000
  Pt  Pt30      1.0  0.59679  0.37732  0.35967  1.0000
  Pt  Pt31      1.0  0.90321  0.72268  0.34033  1.0000
  Pt  Pt32      1.0  0.40321  0.12268  0.39033  1.0000
