data_image0
_chemical_formula_structural       Al4Sb4Al4Sb4
_chemical_formula_sum              "Al8 Sb8"
_cell_length_a       7.14507
_cell_length_b       7.542
_cell_length_c       30.4806
_cell_angle_alpha    90
_cell_angle_beta     90
_cell_angle_gamma    90

_space_group_name_H-M_alt    "P 1"
_space_group_IT_number       1

loop_
  _space_group_symop_operation_xyz
  'x, y, z'

loop_
  _atom_site_type_symbol
  _atom_site_label
  _atom_site_symmetry_multiplicity
  _atom_site_fract_x
  _atom_site_fract_y
  _atom_site_fract_z
  _atom_site_occupancy
  Al  Al1       1.0  0.50008  0.66667  0.46429  1.0000
  Al  Al2       1.0  0.50008  0.16667  0.39286  1.0000
  Al  Al3       1.0  0.00008  0.33333  0.46429  1.0000
  Al  Al4       1.0  0.00008  0.83333  0.39286  1.0000
  Sb  Sb1       1.0  0.12482  0.66667  0.46429  1.0000
  Sb  Sb2       1.0  0.12482  0.16667  0.39286  1.0000
  Sb  Sb3       1.0  0.62482  0.33333  0.46429  1.0000
  Sb  Sb4       1.0  0.62482  0.83333  0.39286  1.0000
  Al  Al5       1.0  0.50008  0.66667  0.60714  1.0000
  Al  Al6       1.0  0.50008  0.16667  0.53571  1.0000
  Al  Al7       1.0  0.00008  0.33333  0.60714  1.0000
  Al  Al8       1.0  0.00008  0.83333  0.53571  1.0000
  Sb  Sb5       1.0  0.12482  0.66667  0.60714  1.0000
  Sb  Sb6       1.0  0.12482  0.16667  0.53571  1.0000
  Sb  Sb7       1.0  0.62482  0.33333  0.60714  1.0000
  Sb  Sb8       1.0  0.62482  0.83333  0.53571  1.0000
