data_image0
_chemical_formula_structural       Ti30
_chemical_formula_sum              "Ti30"
_cell_length_a       7.79437
_cell_length_b       7.15485
_cell_length_c       31.7411
_cell_angle_alpha    81.8817
_cell_angle_beta     90
_cell_angle_gamma    56.9964

_space_group_name_H-M_alt    "P 1"
_space_group_IT_number       1

loop_
  _space_group_symop_operation_xyz
  'x, y, z'

loop_
  _atom_site_type_symbol
  _atom_site_label
  _atom_site_symmetry_multiplicity
  _atom_site_fract_x
  _atom_site_fract_y
  _atom_site_fract_z
  _atom_site_occupancy
  Ti  Ti1       1.0  0.80000  0.40000  0.36111  1.0000
  Ti  Ti2       1.0  0.60000  0.80000  0.39444  1.0000
  Ti  Ti3       1.0  0.00000  0.00000  0.49444  1.0000
  Ti  Ti4       1.0  0.40000  0.20000  0.42778  1.0000
  Ti  Ti5       1.0  0.20000  0.60000  0.46111  1.0000
  Ti  Ti6       1.0  0.96667  0.40000  0.44444  1.0000
  Ti  Ti7       1.0  0.76667  0.80000  0.47778  1.0000
  Ti  Ti8       1.0  0.16667  0.00000  0.41111  1.0000
  Ti  Ti9       1.0  0.56667  0.20000  0.34444  1.0000
  Ti  Ti10      1.0  0.36667  0.60000  0.37778  1.0000
  Ti  Ti11      1.0  0.63333  0.40000  0.44444  1.0000
  Ti  Ti12      1.0  0.43333  0.80000  0.47778  1.0000
  Ti  Ti13      1.0  0.83333  0.00000  0.41111  1.0000
  Ti  Ti14      1.0  0.23333  0.20000  0.34444  1.0000
  Ti  Ti15      1.0  0.03333  0.60000  0.37778  1.0000
  Ti  Ti16      1.0  0.80000  0.40000  0.52778  1.0000
  Ti  Ti17      1.0  0.60000  0.80000  0.56111  1.0000
  Ti  Ti18      1.0  0.00000  0.00000  0.66111  1.0000
  Ti  Ti19      1.0  0.40000  0.20000  0.59444  1.0000
  Ti  Ti20      1.0  0.20000  0.60000  0.62778  1.0000
  Ti  Ti21      1.0  0.96667  0.40000  0.61111  1.0000
  Ti  Ti22      1.0  0.76667  0.80000  0.64444  1.0000
  Ti  Ti23      1.0  0.16667  0.00000  0.57778  1.0000
  Ti  Ti24      1.0  0.56667  0.20000  0.51111  1.0000
  Ti  Ti25      1.0  0.36667  0.60000  0.54444  1.0000
  Ti  Ti26      1.0  0.63333  0.40000  0.61111  1.0000
  Ti  Ti27      1.0  0.43333  0.80000  0.64444  1.0000
  Ti  Ti28      1.0  0.83333  0.00000  0.57778  1.0000
  Ti  Ti29      1.0  0.23333  0.20000  0.51111  1.0000
  Ti  Ti30      1.0  0.03333  0.60000  0.54444  1.0000
