data_image0
_chemical_formula_structural       Sn16V8
_chemical_formula_sum              "Sn16 V8"
_cell_length_a       5.40439
_cell_length_b       9.64533
_cell_length_c       36.4833
_cell_angle_alpha    89.3312
_cell_angle_beta     88.3512
_cell_angle_gamma    81.8271

_space_group_name_H-M_alt    "P 1"
_space_group_IT_number       1

loop_
  _space_group_symop_operation_xyz
  'x, y, z'

loop_
  _atom_site_type_symbol
  _atom_site_label
  _atom_site_symmetry_multiplicity
  _atom_site_fract_x
  _atom_site_fract_y
  _atom_site_fract_z
  _atom_site_occupancy
  Sn  Sn1       1.0  0.02050  0.09899  0.40101  1.0000
  Sn  Sn2       1.0  0.52050  0.97399  0.52601  1.0000
  Sn  Sn3       1.0  0.52116  0.89060  0.60940  1.0000
  Sn  Sn4       1.0  0.02116  0.01560  0.48440  1.0000
  Sn  Sn5       1.0  0.39616  0.48435  0.51565  1.0000
  Sn  Sn6       1.0  0.89616  0.60935  0.39065  1.0000
  Sn  Sn7       1.0  0.39550  0.56774  0.43226  1.0000
  Sn  Sn8       1.0  0.89550  0.44274  0.55726  1.0000
  Sn  Sn9       1.0  0.06281  0.77489  0.55721  1.0000
  Sn  Sn10      1.0  0.56281  0.89989  0.43221  1.0000
  Sn  Sn11      1.0  0.97886  0.08970  0.57820  1.0000
  Sn  Sn12      1.0  0.47886  0.21470  0.45320  1.0000
  Sn  Sn13      1.0  0.85386  0.68345  0.48445  1.0000
  Sn  Sn14      1.0  0.35386  0.55845  0.60945  1.0000
  Sn  Sn15      1.0  0.93781  0.36864  0.46346  1.0000
  Sn  Sn16      1.0  0.43781  0.24364  0.58846  1.0000
  V   V1        1.0  0.20704  0.23401  0.52116  1.0000
  V   V2        1.0  0.70704  0.35901  0.39616  1.0000
  V   V3        1.0  0.33463  0.75557  0.48926  1.0000
  V   V4        1.0  0.83463  0.63057  0.61426  1.0000
  V   V5        1.0  0.70963  0.22432  0.52051  1.0000
  V   V6        1.0  0.20963  0.34932  0.39551  1.0000
  V   V7        1.0  0.58204  0.70276  0.55241  1.0000
  V   V8        1.0  0.08204  0.82776  0.42741  1.0000
