data_image0
_chemical_formula_structural       Ca6
_chemical_formula_sum              "Ca6"
_cell_length_a       3.84517
_cell_length_b       6.36615
_cell_length_c       38.4517
_cell_angle_alpha    90
_cell_angle_beta     120
_cell_angle_gamma    90

_space_group_name_H-M_alt    "P 1"
_space_group_IT_number       1

loop_
  _space_group_symop_operation_xyz
  'x, y, z'

loop_
  _atom_site_type_symbol
  _atom_site_label
  _atom_site_symmetry_multiplicity
  _atom_site_fract_x
  _atom_site_fract_y
  _atom_site_fract_z
  _atom_site_occupancy
  Ca  Ca1       1.0  0.66667  0.25000  0.38333  1.0000
  Ca  Ca2       1.0  0.33333  0.75000  0.41667  1.0000
  Ca  Ca3       1.0  0.66667  0.25000  0.48333  1.0000
  Ca  Ca4       1.0  0.33333  0.75000  0.51667  1.0000
  Ca  Ca5       1.0  0.66667  0.25000  0.58333  1.0000
  Ca  Ca6       1.0  0.33333  0.75000  0.61667  1.0000
