data_image0
_chemical_formula_structural       Si4Rh8
_chemical_formula_sum              "Si4 Rh8"
_cell_length_a       3.91627
_cell_length_b       5.42755
_cell_length_c       29.3649
_cell_angle_alpha    90
_cell_angle_beta     90
_cell_angle_gamma    90

_space_group_name_H-M_alt    "P 1"
_space_group_IT_number       1

loop_
  _space_group_symop_operation_xyz
  'x, y, z'

loop_
  _atom_site_type_symbol
  _atom_site_label
  _atom_site_symmetry_multiplicity
  _atom_site_fract_x
  _atom_site_fract_y
  _atom_site_fract_z
  _atom_site_occupancy
  Si  Si1       1.0  0.25000  0.27779  0.48476  1.0000
  Si  Si2       1.0  0.75000  0.72221  0.43190  1.0000
  Si  Si3       1.0  0.25000  0.77779  0.55690  1.0000
  Si  Si4       1.0  0.75000  0.22221  0.60976  1.0000
  Rh  Rh1       1.0  0.75000  0.52578  0.50738  1.0000
  Rh  Rh2       1.0  0.25000  0.47422  0.40928  1.0000
  Rh  Rh3       1.0  0.75000  0.02578  0.53428  1.0000
  Rh  Rh4       1.0  0.25000  0.97422  0.38238  1.0000
  Rh  Rh5       1.0  0.25000  0.84133  0.47591  1.0000
  Rh  Rh6       1.0  0.75000  0.15867  0.44075  1.0000
  Rh  Rh7       1.0  0.25000  0.34133  0.56575  1.0000
  Rh  Rh8       1.0  0.75000  0.65867  0.60091  1.0000
