data_image0
_chemical_formula_structural       Si2Ni4Si2Ni4
_chemical_formula_sum              "Si4 Ni8"
_cell_length_a       3.86625
_cell_length_b       3.86625
_cell_length_c       34.4985
_cell_angle_alpha    90
_cell_angle_beta     90
_cell_angle_gamma    120

_space_group_name_H-M_alt    "P 1"
_space_group_IT_number       1

loop_
  _space_group_symop_operation_xyz
  'x, y, z'

loop_
  _atom_site_type_symbol
  _atom_site_label
  _atom_site_symmetry_multiplicity
  _atom_site_fract_x
  _atom_site_fract_y
  _atom_site_fract_z
  _atom_site_occupancy
  Si  Si1       1.0  0.66667  0.33333  0.38095  1.0000
  Si  Si2       1.0  0.33333  0.66667  0.45238  1.0000
  Ni  Ni1       1.0  0.33333  0.66667  0.38095  1.0000
  Ni  Ni2       1.0  0.66667  0.33333  0.45238  1.0000
  Ni  Ni3       1.0  0.00000  0.00000  0.41667  1.0000
  Ni  Ni4       1.0  0.00000  0.00000  0.48810  1.0000
  Si  Si3       1.0  0.66667  0.33333  0.52381  1.0000
  Si  Si4       1.0  0.33333  0.66667  0.59524  1.0000
  Ni  Ni5       1.0  0.33333  0.66667  0.52381  1.0000
  Ni  Ni6       1.0  0.66667  0.33333  0.59524  1.0000
  Ni  Ni7       1.0  0.00000  0.00000  0.55952  1.0000
  Ni  Ni8       1.0  0.00000  0.00000  0.63095  1.0000
