data_image0
_chemical_formula_structural       Ti4Cr8
_chemical_formula_sum              "Ti4 Cr8"
_cell_length_a       4.79609
_cell_length_b       4.79609
_cell_length_c       30.953
_cell_angle_alpha    90
_cell_angle_beta     90
_cell_angle_gamma    120

_space_group_name_H-M_alt    "P 1"
_space_group_IT_number       1

loop_
  _space_group_symop_operation_xyz
  'x, y, z'

loop_
  _atom_site_type_symbol
  _atom_site_label
  _atom_site_symmetry_multiplicity
  _atom_site_fract_x
  _atom_site_fract_y
  _atom_site_fract_z
  _atom_site_occupancy
  Ti  Ti1       1.0  0.66667  0.33333  0.48388  1.0000
  Ti  Ti2       1.0  0.33333  0.66667  0.45362  1.0000
  Ti  Ti3       1.0  0.33333  0.66667  0.60888  1.0000
  Ti  Ti4       1.0  0.66667  0.33333  0.57862  1.0000
  Cr  Cr1       1.0  0.00000  0.00000  0.46875  1.0000
  Cr  Cr2       1.0  0.00000  0.00000  0.59375  1.0000
  Cr  Cr3       1.0  0.17019  0.34038  0.53125  1.0000
  Cr  Cr4       1.0  0.17019  0.82981  0.53125  1.0000
  Cr  Cr5       1.0  0.65962  0.82981  0.53125  1.0000
  Cr  Cr6       1.0  0.82981  0.65962  0.40625  1.0000
  Cr  Cr7       1.0  0.82981  0.17019  0.40625  1.0000
  Cr  Cr8       1.0  0.34038  0.17019  0.40625  1.0000
