data_image0
_chemical_formula_structural       Si8W4Si8W4
_chemical_formula_sum              "Si16 W8"
_cell_length_a       4.53302
_cell_length_b       8.43182
_cell_length_c       31.7312
_cell_angle_alpha    105.593
_cell_angle_beta     90
_cell_angle_gamma    74.4069

_space_group_name_H-M_alt    "P 1"
_space_group_IT_number       1

loop_
  _space_group_symop_operation_xyz
  'x, y, z'

loop_
  _atom_site_type_symbol
  _atom_site_label
  _atom_site_symmetry_multiplicity
  _atom_site_fract_x
  _atom_site_fract_y
  _atom_site_fract_z
  _atom_site_occupancy
  Si  Si1       1.0  0.83254  0.33493  0.37511  1.0000
  Si  Si2       1.0  0.33254  0.33493  0.44654  1.0000
  Si  Si3       1.0  0.91746  0.16507  0.43441  1.0000
  Si  Si4       1.0  0.41746  0.16507  0.36298  1.0000
  Si  Si5       1.0  0.58254  0.83493  0.48226  1.0000
  Si  Si6       1.0  0.08254  0.83493  0.41083  1.0000
  Si  Si7       1.0  0.66746  0.66507  0.39870  1.0000
  Si  Si8       1.0  0.16746  0.66507  0.47012  1.0000
  W   W1        1.0  0.00000  0.00000  0.49405  1.0000
  W   W2        1.0  0.50000  0.00000  0.42262  1.0000
  W   W3        1.0  0.75000  0.50000  0.45833  1.0000
  W   W4        1.0  0.25000  0.50000  0.38690  1.0000
  Si  Si9       1.0  0.83254  0.33493  0.51797  1.0000
  Si  Si10      1.0  0.33254  0.33493  0.58940  1.0000
  Si  Si11      1.0  0.91746  0.16507  0.57727  1.0000
  Si  Si12      1.0  0.41746  0.16507  0.50584  1.0000
  Si  Si13      1.0  0.58254  0.83493  0.62511  1.0000
  Si  Si14      1.0  0.08254  0.83493  0.55369  1.0000
  Si  Si15      1.0  0.66746  0.66507  0.54155  1.0000
  Si  Si16      1.0  0.16746  0.66507  0.61298  1.0000
  W   W5        1.0  0.00000  0.00000  0.63690  1.0000
  W   W6        1.0  0.50000  0.00000  0.56548  1.0000
  W   W7        1.0  0.75000  0.50000  0.60119  1.0000
  W   W8        1.0  0.25000  0.50000  0.52976  1.0000
