data_image0
_chemical_formula_structural       Pb4
_chemical_formula_sum              "Pb4"
_cell_length_a       3.48479
_cell_length_b       3.48479
_cell_length_c       34.4977
_cell_angle_alpha    90
_cell_angle_beta     90
_cell_angle_gamma    90

_space_group_name_H-M_alt    "P 1"
_space_group_IT_number       1

loop_
  _space_group_symop_operation_xyz
  'x, y, z'

loop_
  _atom_site_type_symbol
  _atom_site_label
  _atom_site_symmetry_multiplicity
  _atom_site_fract_x
  _atom_site_fract_y
  _atom_site_fract_z
  _atom_site_occupancy
  Pb  Pb1       1.0  0.00000  0.00000  0.53571  1.0000
  Pb  Pb2       1.0  0.50000  0.50000  0.60714  1.0000
  Pb  Pb3       1.0  0.00000  0.00000  0.39286  1.0000
  Pb  Pb4       1.0  0.50000  0.50000  0.46429  1.0000
