data_image0
_chemical_formula_structural       Ca12Cu12Ga6
_chemical_formula_sum              "Ca12 Cu12 Ga6"
_cell_length_a       5.60472
_cell_length_b       8.13535
_cell_length_c       39.6332
_cell_angle_alpha    90.5044
_cell_angle_beta     91.3392
_cell_angle_gamma    90.8253

_space_group_name_H-M_alt    "P 1"
_space_group_IT_number       1

loop_
  _space_group_symop_operation_xyz
  'x, y, z'

loop_
  _atom_site_type_symbol
  _atom_site_label
  _atom_site_symmetry_multiplicity
  _atom_site_fract_x
  _atom_site_fract_y
  _atom_site_fract_z
  _atom_site_occupancy
  Ca  Ca1       1.0  0.50049  0.70313  0.59422  1.0000
  Ca  Ca2       1.0  0.77826  0.31424  0.64978  1.0000
  Ca  Ca3       1.0  0.22271  0.09202  0.53867  1.0000
  Ca  Ca4       1.0  0.99951  0.46354  0.57244  1.0000
  Ca  Ca5       1.0  0.27729  0.07465  0.62800  1.0000
  Ca  Ca6       1.0  0.72174  0.85242  0.51689  1.0000
  Ca  Ca7       1.0  0.66715  0.86980  0.42756  1.0000
  Ca  Ca8       1.0  0.94493  0.48091  0.48311  1.0000
  Ca  Ca9       1.0  0.38938  0.25869  0.37200  1.0000
  Ca  Ca10      1.0  0.16618  0.63020  0.40578  1.0000
  Ca  Ca11      1.0  0.44396  0.24131  0.46133  1.0000
  Ca  Ca12      1.0  0.88840  0.01909  0.35022  1.0000
  Cu  Cu1       1.0  0.21772  0.72447  0.52890  1.0000
  Cu  Cu2       1.0  0.49550  0.33559  0.58446  1.0000
  Cu  Cu3       1.0  0.77327  0.94670  0.64002  1.0000
  Cu  Cu4       1.0  0.72673  0.21997  0.52665  1.0000
  Cu  Cu5       1.0  0.00450  0.83108  0.58221  1.0000
  Cu  Cu6       1.0  0.28228  0.44219  0.63776  1.0000
  Cu  Cu7       1.0  0.38438  0.89114  0.36224  1.0000
  Cu  Cu8       1.0  0.66216  0.50225  0.41779  1.0000
  Cu  Cu9       1.0  0.93994  0.11336  0.47335  1.0000
  Cu  Cu10      1.0  0.89339  0.38664  0.35998  1.0000
  Cu  Cu11      1.0  0.17117  0.99775  0.41554  1.0000
  Cu  Cu12      1.0  0.44895  0.60886  0.47110  1.0000
  Ga  Ga1       1.0  0.02778  0.69444  0.63889  1.0000
  Ga  Ga2       1.0  0.47222  0.47222  0.52778  1.0000
  Ga  Ga3       1.0  0.75000  0.08333  0.58333  1.0000
  Ga  Ga4       1.0  0.19444  0.86111  0.47222  1.0000
  Ga  Ga5       1.0  0.63889  0.63889  0.36111  1.0000
  Ga  Ga6       1.0  0.91667  0.25000  0.41667  1.0000
