data_image0
_chemical_formula_structural       Fe8As8Fe8As8Fe8As8
_chemical_formula_sum              "Fe24 As24"
_cell_length_a       5.31614
_cell_length_b       12.2583
_cell_length_c       32.6518
_cell_angle_alpha    105.448
_cell_angle_beta     90
_cell_angle_gamma    90

_space_group_name_H-M_alt    "P 1"
_space_group_IT_number       1

loop_
  _space_group_symop_operation_xyz
  'x, y, z'

loop_
  _atom_site_type_symbol
  _atom_site_label
  _atom_site_symmetry_multiplicity
  _atom_site_fract_x
  _atom_site_fract_y
  _atom_site_fract_z
  _atom_site_occupancy
  Fe  Fe1       1.0  0.99961  0.10006  0.41001  1.0000
  Fe  Fe2       1.0  0.99961  0.60006  0.36001  1.0000
  Fe  Fe3       1.0  0.00039  0.39994  0.38999  1.0000
  Fe  Fe4       1.0  0.00039  0.89994  0.43999  1.0000
  Fe  Fe5       1.0  0.49961  0.14994  0.41499  1.0000
  Fe  Fe6       1.0  0.49961  0.64994  0.36499  1.0000
  Fe  Fe7       1.0  0.50039  0.35006  0.38501  1.0000
  Fe  Fe8       1.0  0.50039  0.85006  0.43501  1.0000
  As  As1       1.0  0.80082  0.28802  0.42880  1.0000
  As  As2       1.0  0.80082  0.78802  0.37880  1.0000
  As  As3       1.0  0.19918  0.21198  0.37120  1.0000
  As  As4       1.0  0.19918  0.71198  0.42120  1.0000
  As  As5       1.0  0.30082  0.46198  0.44620  1.0000
  As  As6       1.0  0.30082  0.96198  0.39620  1.0000
  As  As7       1.0  0.69918  0.03802  0.35380  1.0000
  As  As8       1.0  0.69918  0.53802  0.40380  1.0000
  Fe  Fe9       1.0  0.99961  0.10006  0.51001  1.0000
  Fe  Fe10      1.0  0.99961  0.60006  0.46001  1.0000
  Fe  Fe11      1.0  0.00039  0.39994  0.48999  1.0000
  Fe  Fe12      1.0  0.00039  0.89994  0.53999  1.0000
  Fe  Fe13      1.0  0.49961  0.14994  0.51499  1.0000
  Fe  Fe14      1.0  0.49961  0.64994  0.46499  1.0000
  Fe  Fe15      1.0  0.50039  0.35006  0.48501  1.0000
  Fe  Fe16      1.0  0.50039  0.85006  0.53501  1.0000
  As  As9       1.0  0.80082  0.28802  0.52880  1.0000
  As  As10      1.0  0.80082  0.78802  0.47880  1.0000
  As  As11      1.0  0.19918  0.21198  0.47120  1.0000
  As  As12      1.0  0.19918  0.71198  0.52120  1.0000
  As  As13      1.0  0.30082  0.46198  0.54620  1.0000
  As  As14      1.0  0.30082  0.96198  0.49620  1.0000
  As  As15      1.0  0.69918  0.03802  0.45380  1.0000
  As  As16      1.0  0.69918  0.53802  0.50380  1.0000
  Fe  Fe17      1.0  0.99961  0.10006  0.61001  1.0000
  Fe  Fe18      1.0  0.99961  0.60006  0.56001  1.0000
  Fe  Fe19      1.0  0.00039  0.39994  0.58999  1.0000
  Fe  Fe20      1.0  0.00039  0.89994  0.63999  1.0000
  Fe  Fe21      1.0  0.49961  0.14994  0.61499  1.0000
  Fe  Fe22      1.0  0.49961  0.64994  0.56499  1.0000
  Fe  Fe23      1.0  0.50039  0.35006  0.58501  1.0000
  Fe  Fe24      1.0  0.50039  0.85006  0.63501  1.0000
  As  As17      1.0  0.80082  0.28802  0.62880  1.0000
  As  As18      1.0  0.80082  0.78802  0.57880  1.0000
  As  As19      1.0  0.19918  0.21198  0.57120  1.0000
  As  As20      1.0  0.19918  0.71198  0.62120  1.0000
  As  As21      1.0  0.30082  0.46198  0.64620  1.0000
  As  As22      1.0  0.30082  0.96198  0.59620  1.0000
  As  As23      1.0  0.69918  0.03802  0.55380  1.0000
  As  As24      1.0  0.69918  0.53802  0.60380  1.0000
