data_image0
_chemical_formula_structural       Al2Sb2Al2Sb2
_chemical_formula_sum              "Al4 Sb4"
_cell_length_a       4.35437
_cell_length_b       7.14507
_cell_length_c       34.835
_cell_angle_alpha    90
_cell_angle_beta     120
_cell_angle_gamma    90

_space_group_name_H-M_alt    "P 1"
_space_group_IT_number       1

loop_
  _space_group_symop_operation_xyz
  'x, y, z'

loop_
  _atom_site_type_symbol
  _atom_site_label
  _atom_site_symmetry_multiplicity
  _atom_site_fract_x
  _atom_site_fract_y
  _atom_site_fract_z
  _atom_site_occupancy
  Al  Al1       1.0  0.33333  0.49992  0.45833  1.0000
  Al  Al2       1.0  0.66667  0.99992  0.41667  1.0000
  Sb  Sb1       1.0  0.33333  0.87518  0.45833  1.0000
  Sb  Sb2       1.0  0.66667  0.37518  0.41667  1.0000
  Al  Al3       1.0  0.33333  0.49992  0.58333  1.0000
  Al  Al4       1.0  0.66667  0.99992  0.54167  1.0000
  Sb  Sb3       1.0  0.33333  0.87518  0.58333  1.0000
  Sb  Sb4       1.0  0.66667  0.37518  0.54167  1.0000
