data_image0
_chemical_formula_structural       Sn4Ir4Sn4Ir4
_chemical_formula_sum              "Sn8 Ir8"
_cell_length_a       5.59667
_cell_length_b       6.8887
_cell_length_c       31.8175
_cell_angle_alpha    90
_cell_angle_beta     90
_cell_angle_gamma    90

_space_group_name_H-M_alt    "P 1"
_space_group_IT_number       1

loop_
  _space_group_symop_operation_xyz
  'x, y, z'

loop_
  _atom_site_type_symbol
  _atom_site_label
  _atom_site_symmetry_multiplicity
  _atom_site_fract_x
  _atom_site_fract_y
  _atom_site_fract_z
  _atom_site_occupancy
  Sn  Sn1       1.0  0.25000  0.66667  0.46875  1.0000
  Sn  Sn2       1.0  0.25000  0.16667  0.40625  1.0000
  Sn  Sn3       1.0  0.75000  0.33333  0.46875  1.0000
  Sn  Sn4       1.0  0.75000  0.83333  0.40625  1.0000
  Ir  Ir1       1.0  0.50000  0.50000  0.40625  1.0000
  Ir  Ir2       1.0  0.50000  0.00000  0.46875  1.0000
  Ir  Ir3       1.0  0.00000  0.50000  0.40625  1.0000
  Ir  Ir4       1.0  0.00000  0.00000  0.46875  1.0000
  Sn  Sn5       1.0  0.25000  0.66667  0.59375  1.0000
  Sn  Sn6       1.0  0.25000  0.16667  0.53125  1.0000
  Sn  Sn7       1.0  0.75000  0.33333  0.59375  1.0000
  Sn  Sn8       1.0  0.75000  0.83333  0.53125  1.0000
  Ir  Ir5       1.0  0.50000  0.50000  0.53125  1.0000
  Ir  Ir6       1.0  0.50000  0.00000  0.59375  1.0000
  Ir  Ir7       1.0  0.00000  0.50000  0.53125  1.0000
  Ir  Ir8       1.0  0.00000  0.00000  0.59375  1.0000
