data_image0
_chemical_formula_structural       Si2Ag2Pt10Si2Ag2Pt10
_chemical_formula_sum              "Si4 Ag4 Pt20"
_cell_length_a       5.55226
_cell_length_b       8.00316
_cell_length_c       33.3136
_cell_angle_alpha    110.297
_cell_angle_beta     90
_cell_angle_gamma    69.7034

_space_group_name_H-M_alt    "P 1"
_space_group_IT_number       1

loop_
  _space_group_symop_operation_xyz
  'x, y, z'

loop_
  _atom_site_type_symbol
  _atom_site_label
  _atom_site_symmetry_multiplicity
  _atom_site_fract_x
  _atom_site_fract_y
  _atom_site_fract_z
  _atom_site_occupancy
  Si  Si1       1.0  0.75000  0.50000  0.33929  1.0000
  Si  Si2       1.0  0.25000  0.50000  0.42262  1.0000
  Ag  Ag1       1.0  0.00000  0.00000  0.38095  1.0000
  Ag  Ag2       1.0  0.50000  0.00000  0.46429  1.0000
  Pt  Pt1       1.0  0.00000  0.00000  0.46429  1.0000
  Pt  Pt2       1.0  0.50000  0.00000  0.38095  1.0000
  Pt  Pt3       1.0  0.39816  0.70368  0.39793  1.0000
  Pt  Pt4       1.0  0.89816  0.70368  0.48126  1.0000
  Pt  Pt5       1.0  0.89816  0.70368  0.39793  1.0000
  Pt  Pt6       1.0  0.39816  0.70368  0.48126  1.0000
  Pt  Pt7       1.0  0.60184  0.29632  0.36398  1.0000
  Pt  Pt8       1.0  0.10184  0.29632  0.44731  1.0000
  Pt  Pt9       1.0  0.10184  0.29632  0.36398  1.0000
  Pt  Pt10      1.0  0.60184  0.29632  0.44731  1.0000
  Si  Si3       1.0  0.75000  0.50000  0.50595  1.0000
  Si  Si4       1.0  0.25000  0.50000  0.58929  1.0000
  Ag  Ag3       1.0  0.00000  0.00000  0.54762  1.0000
  Ag  Ag4       1.0  0.50000  0.00000  0.63095  1.0000
  Pt  Pt11      1.0  0.00000  0.00000  0.63095  1.0000
  Pt  Pt12      1.0  0.50000  0.00000  0.54762  1.0000
  Pt  Pt13      1.0  0.39816  0.70368  0.56459  1.0000
  Pt  Pt14      1.0  0.89816  0.70368  0.64793  1.0000
  Pt  Pt15      1.0  0.89816  0.70368  0.56459  1.0000
  Pt  Pt16      1.0  0.39816  0.70368  0.64793  1.0000
  Pt  Pt17      1.0  0.60184  0.29632  0.53065  1.0000
  Pt  Pt18      1.0  0.10184  0.29632  0.61398  1.0000
  Pt  Pt19      1.0  0.10184  0.29632  0.53065  1.0000
  Pt  Pt20      1.0  0.60184  0.29632  0.61398  1.0000
