data_image0
_chemical_formula_structural       Al4Ag8
_chemical_formula_sum              "Al4 Ag8"
_cell_length_a       4.98837
_cell_length_b       4.47139
_cell_length_c       34.6725
_cell_angle_alpha    90
_cell_angle_beta     90
_cell_angle_gamma    90

_space_group_name_H-M_alt    "P 1"
_space_group_IT_number       1

loop_
  _space_group_symop_operation_xyz
  'x, y, z'

loop_
  _atom_site_type_symbol
  _atom_site_label
  _atom_site_symmetry_multiplicity
  _atom_site_fract_x
  _atom_site_fract_y
  _atom_site_fract_z
  _atom_site_occupancy
  Al  Al1       1.0  0.17329  0.25000  0.47917  1.0000
  Al  Al2       1.0  0.82671  0.75000  0.47917  1.0000
  Al  Al3       1.0  0.67329  0.25000  0.60417  1.0000
  Al  Al4       1.0  0.32671  0.75000  0.60417  1.0000
  Ag  Ag1       1.0  0.18275  0.25000  0.39429  1.0000
  Ag  Ag2       1.0  0.68275  0.25000  0.43904  1.0000
  Ag  Ag3       1.0  0.81725  0.75000  0.39429  1.0000
  Ag  Ag4       1.0  0.31725  0.75000  0.43904  1.0000
  Ag  Ag5       1.0  0.68275  0.25000  0.51929  1.0000
  Ag  Ag6       1.0  0.18275  0.25000  0.56404  1.0000
  Ag  Ag7       1.0  0.31725  0.75000  0.51929  1.0000
  Ag  Ag8       1.0  0.81725  0.75000  0.56404  1.0000
