data_image0
_chemical_formula_structural       Sn2Au2Sn2Au2
_chemical_formula_sum              "Sn4 Au4"
_cell_length_a       4.32741
_cell_length_b       5.5472
_cell_length_c       34.6193
_cell_angle_alpha    90
_cell_angle_beta     60
_cell_angle_gamma    90

_space_group_name_H-M_alt    "P 1"
_space_group_IT_number       1

loop_
  _space_group_symop_operation_xyz
  'x, y, z'

loop_
  _atom_site_type_symbol
  _atom_site_label
  _atom_site_symmetry_multiplicity
  _atom_site_fract_x
  _atom_site_fract_y
  _atom_site_fract_z
  _atom_site_occupancy
  Sn  Sn1       1.0  0.66667  0.75000  0.42708  1.0000
  Sn  Sn2       1.0  0.33333  0.25000  0.38542  1.0000
  Au  Au1       1.0  0.00000  0.50000  0.46875  1.0000
  Au  Au2       1.0  0.00000  0.00000  0.46875  1.0000
  Sn  Sn3       1.0  0.66667  0.75000  0.55208  1.0000
  Sn  Sn4       1.0  0.33333  0.25000  0.51042  1.0000
  Au  Au3       1.0  0.00000  0.50000  0.59375  1.0000
  Au  Au4       1.0  0.00000  0.00000  0.59375  1.0000
