data_image0
_chemical_formula_structural       Ca4Au8
_chemical_formula_sum              "Ca4 Au8"
_cell_length_a       4.58794
_cell_length_b       6.98525
_cell_length_c       32.5117
_cell_angle_alpha    90
_cell_angle_beta     90
_cell_angle_gamma    90

_space_group_name_H-M_alt    "P 1"
_space_group_IT_number       1

loop_
  _space_group_symop_operation_xyz
  'x, y, z'

loop_
  _atom_site_type_symbol
  _atom_site_label
  _atom_site_symmetry_multiplicity
  _atom_site_fract_x
  _atom_site_fract_y
  _atom_site_fract_z
  _atom_site_occupancy
  Ca  Ca1       1.0  0.25000  0.50000  0.53067  1.0000
  Ca  Ca2       1.0  0.25000  0.00000  0.51099  1.0000
  Ca  Ca3       1.0  0.75000  0.00000  0.40567  1.0000
  Ca  Ca4       1.0  0.75000  0.50000  0.38599  1.0000
  Au  Au1       1.0  0.75000  0.21151  0.56131  1.0000
  Au  Au2       1.0  0.75000  0.28849  0.48036  1.0000
  Au  Au3       1.0  0.25000  0.28849  0.43631  1.0000
  Au  Au4       1.0  0.25000  0.21151  0.60536  1.0000
  Au  Au5       1.0  0.25000  0.71151  0.43631  1.0000
  Au  Au6       1.0  0.25000  0.78849  0.60536  1.0000
  Au  Au7       1.0  0.75000  0.78849  0.56131  1.0000
  Au  Au8       1.0  0.75000  0.71151  0.48036  1.0000
