data_image0
_chemical_formula_structural       Os12Sb24
_chemical_formula_sum              "Os12 Sb24"
_cell_length_a       8.94508
_cell_length_b       9.50573
_cell_length_c       30.2973
_cell_angle_alpha    92.6044
_cell_angle_beta     91.9743
_cell_angle_gamma    96.3041

_space_group_name_H-M_alt    "P 1"
_space_group_IT_number       1

loop_
  _space_group_symop_operation_xyz
  'x, y, z'

loop_
  _atom_site_type_symbol
  _atom_site_label
  _atom_site_symmetry_multiplicity
  _atom_site_fract_x
  _atom_site_fract_y
  _atom_site_fract_z
  _atom_site_occupancy
  Os  Os1       1.0  0.00000  0.06667  0.43333  1.0000
  Os  Os2       1.0  0.50000  0.61667  0.38333  1.0000
  Os  Os3       1.0  0.00000  0.56667  0.43333  1.0000
  Os  Os4       1.0  0.50000  0.11667  0.38333  1.0000
  Os  Os5       1.0  0.00000  0.96667  0.53333  1.0000
  Os  Os6       1.0  0.50000  0.51667  0.48333  1.0000
  Os  Os7       1.0  0.00000  0.46667  0.53333  1.0000
  Os  Os8       1.0  0.50000  0.01667  0.48333  1.0000
  Os  Os9       1.0  0.00000  0.86667  0.63333  1.0000
  Os  Os10      1.0  0.50000  0.41667  0.58333  1.0000
  Os  Os11      1.0  0.00000  0.36667  0.63333  1.0000
  Os  Os12      1.0  0.50000  0.91667  0.58333  1.0000
  Sb  Sb1       1.0  0.73025  0.14577  0.44212  1.0000
  Sb  Sb2       1.0  0.23025  0.69577  0.39212  1.0000
  Sb  Sb3       1.0  0.26975  0.98757  0.42454  1.0000
  Sb  Sb4       1.0  0.76975  0.53757  0.37454  1.0000
  Sb  Sb5       1.0  0.91211  0.90945  0.36031  1.0000
  Sb  Sb6       1.0  0.41211  0.35945  0.41031  1.0000
  Sb  Sb7       1.0  0.08789  0.32389  0.40636  1.0000
  Sb  Sb8       1.0  0.58789  0.87389  0.35636  1.0000
  Sb  Sb9       1.0  0.73025  0.04577  0.54212  1.0000
  Sb  Sb10      1.0  0.23025  0.59577  0.49212  1.0000
  Sb  Sb11      1.0  0.26975  0.88757  0.52454  1.0000
  Sb  Sb12      1.0  0.76975  0.43757  0.47454  1.0000
  Sb  Sb13      1.0  0.91211  0.80945  0.46031  1.0000
  Sb  Sb14      1.0  0.41211  0.25945  0.51031  1.0000
  Sb  Sb15      1.0  0.08789  0.22389  0.50636  1.0000
  Sb  Sb16      1.0  0.58789  0.77389  0.45636  1.0000
  Sb  Sb17      1.0  0.73025  0.94577  0.64212  1.0000
  Sb  Sb18      1.0  0.23025  0.49577  0.59212  1.0000
  Sb  Sb19      1.0  0.26975  0.78757  0.62454  1.0000
  Sb  Sb20      1.0  0.76975  0.33757  0.57454  1.0000
  Sb  Sb21      1.0  0.91211  0.70945  0.56031  1.0000
  Sb  Sb22      1.0  0.41211  0.15945  0.61031  1.0000
  Sb  Sb23      1.0  0.08789  0.12389  0.60636  1.0000
  Sb  Sb24      1.0  0.58789  0.67389  0.55636  1.0000
