data_image0
_chemical_formula_structural       Fe2Pt2Fe2Pt2
_chemical_formula_sum              "Fe4 Pt4"
_cell_length_a       2.62386
_cell_length_b       4.48268
_cell_length_c       31.3788
_cell_angle_alpha    71.6529
_cell_angle_beta     90
_cell_angle_gamma    90

_space_group_name_H-M_alt    "P 1"
_space_group_IT_number       1

loop_
  _space_group_symop_operation_xyz
  'x, y, z'

loop_
  _atom_site_type_symbol
  _atom_site_label
  _atom_site_symmetry_multiplicity
  _atom_site_fract_x
  _atom_site_fract_y
  _atom_site_fract_z
  _atom_site_occupancy
  Fe  Fe1       1.0  0.00000  0.00000  0.46429  1.0000
  Fe  Fe2       1.0  0.00000  0.50000  0.39286  1.0000
  Pt  Pt1       1.0  0.50000  0.00000  0.39286  1.0000
  Pt  Pt2       1.0  0.50000  0.50000  0.46429  1.0000
  Fe  Fe3       1.0  0.00000  0.00000  0.60714  1.0000
  Fe  Fe4       1.0  0.00000  0.50000  0.53571  1.0000
  Pt  Pt3       1.0  0.50000  0.00000  0.53571  1.0000
  Pt  Pt4       1.0  0.50000  0.50000  0.60714  1.0000
