data_image0
_chemical_formula_structural       Si4Ni8Si4Ni8
_chemical_formula_sum              "Si8 Ni16"
_cell_length_a       4.93463
_cell_length_b       6.99942
_cell_length_c       29.5819
_cell_angle_alpha    90
_cell_angle_beta     90
_cell_angle_gamma    90

_space_group_name_H-M_alt    "P 1"
_space_group_IT_number       1

loop_
  _space_group_symop_operation_xyz
  'x, y, z'

loop_
  _atom_site_type_symbol
  _atom_site_label
  _atom_site_symmetry_multiplicity
  _atom_site_fract_x
  _atom_site_fract_y
  _atom_site_fract_z
  _atom_site_occupancy
  Si  Si1       1.0  0.78921  0.88567  0.40625  1.0000
  Si  Si2       1.0  0.21079  0.11433  0.46875  1.0000
  Si  Si3       1.0  0.28921  0.61433  0.40625  1.0000
  Si  Si4       1.0  0.71079  0.38567  0.46875  1.0000
  Ni  Ni1       1.0  0.95823  0.20517  0.40625  1.0000
  Ni  Ni2       1.0  0.04177  0.79483  0.46875  1.0000
  Ni  Ni3       1.0  0.45823  0.29483  0.40625  1.0000
  Ni  Ni4       1.0  0.54177  0.70517  0.46875  1.0000
  Ni  Ni5       1.0  0.82951  0.55999  0.40625  1.0000
  Ni  Ni6       1.0  0.17049  0.44001  0.46875  1.0000
  Ni  Ni7       1.0  0.32951  0.94001  0.40625  1.0000
  Ni  Ni8       1.0  0.67049  0.05999  0.46875  1.0000
  Si  Si5       1.0  0.78921  0.88567  0.53125  1.0000
  Si  Si6       1.0  0.21079  0.11433  0.59375  1.0000
  Si  Si7       1.0  0.28921  0.61433  0.53125  1.0000
  Si  Si8       1.0  0.71079  0.38567  0.59375  1.0000
  Ni  Ni9       1.0  0.95823  0.20517  0.53125  1.0000
  Ni  Ni10      1.0  0.04177  0.79483  0.59375  1.0000
  Ni  Ni11      1.0  0.45823  0.29483  0.53125  1.0000
  Ni  Ni12      1.0  0.54177  0.70517  0.59375  1.0000
  Ni  Ni13      1.0  0.82951  0.55999  0.53125  1.0000
  Ni  Ni14      1.0  0.17049  0.44001  0.59375  1.0000
  Ni  Ni15      1.0  0.32951  0.94001  0.53125  1.0000
  Ni  Ni16      1.0  0.67049  0.05999  0.59375  1.0000
