data_image0
_chemical_formula_structural       H8V16
_chemical_formula_sum              "H8 V16"
_cell_length_a       2.62761
_cell_length_b       8.87047
_cell_length_c       33.2754
_cell_angle_alpha    93.3798
_cell_angle_beta     91.7813
_cell_angle_gamma    90.5724

_space_group_name_H-M_alt    "P 1"
_space_group_IT_number       1

loop_
  _space_group_symop_operation_xyz
  'x, y, z'

loop_
  _atom_site_type_symbol
  _atom_site_label
  _atom_site_symmetry_multiplicity
  _atom_site_fract_x
  _atom_site_fract_y
  _atom_site_fract_z
  _atom_site_occupancy
  H   H1        1.0  0.87500  0.12500  0.62500  1.0000
  H   H2        1.0  0.23214  0.05357  0.55357  1.0000
  H   H3        1.0  0.41071  0.51786  0.51786  1.0000
  H   H4        1.0  0.05357  0.58929  0.58929  1.0000
  H   H5        1.0  0.58929  0.98214  0.48214  1.0000
  H   H6        1.0  0.94643  0.91071  0.41071  1.0000
  H   H7        1.0  0.12500  0.37500  0.37500  1.0000
  H   H8        1.0  0.76786  0.44643  0.44643  1.0000
  V   V1        1.0  0.28882  0.23035  0.59616  1.0000
  V   V2        1.0  0.64596  0.15892  0.52473  1.0000
  V   V3        1.0  0.11024  0.76606  0.63187  1.0000
  V   V4        1.0  0.46739  0.69464  0.56044  1.0000
  V   V5        1.0  0.63976  0.48394  0.61813  1.0000
  V   V6        1.0  0.99690  0.41251  0.54670  1.0000
  V   V7        1.0  0.17547  0.87679  0.51099  1.0000
  V   V8        1.0  0.81833  0.94822  0.58241  1.0000
  V   V9        1.0  0.00310  0.08749  0.45330  1.0000
  V   V10       1.0  0.36024  0.01606  0.38187  1.0000
  V   V11       1.0  0.82453  0.62321  0.48901  1.0000
  V   V12       1.0  0.18167  0.55178  0.41759  1.0000
  V   V13       1.0  0.35404  0.34108  0.47527  1.0000
  V   V14       1.0  0.71118  0.26965  0.40384  1.0000
  V   V15       1.0  0.88976  0.73394  0.36813  1.0000
  V   V16       1.0  0.53261  0.80536  0.43956  1.0000
