data_image0
_chemical_formula_structural       Ag18Sn6
_chemical_formula_sum              "Ag18 Sn6"
_cell_length_a       7.06163
_cell_length_b       7.5601
_cell_length_c       36.6372
_cell_angle_alpha    80.9454
_cell_angle_beta     86.8013
_cell_angle_gamma    64.3271

_space_group_name_H-M_alt    "P 1"
_space_group_IT_number       1

loop_
  _space_group_symop_operation_xyz
  'x, y, z'

loop_
  _atom_site_type_symbol
  _atom_site_label
  _atom_site_symmetry_multiplicity
  _atom_site_fract_x
  _atom_site_fract_y
  _atom_site_fract_z
  _atom_site_occupancy
  Ag  Ag1       1.0  0.64116  0.05426  0.50719  1.0000
  Ag  Ag2       1.0  0.97450  0.38759  0.42386  1.0000
  Ag  Ag3       1.0  0.30783  0.72093  0.59052  1.0000
  Ag  Ag4       1.0  0.80762  0.72135  0.46558  1.0000
  Ag  Ag5       1.0  0.14095  0.05468  0.38224  1.0000
  Ag  Ag6       1.0  0.47429  0.38802  0.54891  1.0000
  Ag  Ag7       1.0  0.69217  0.77907  0.57614  1.0000
  Ag  Ag8       1.0  0.02550  0.11241  0.49281  1.0000
  Ag  Ag9       1.0  0.35884  0.44574  0.40948  1.0000
  Ag  Ag10      1.0  0.85905  0.44532  0.53442  1.0000
  Ag  Ag11      1.0  0.19238  0.77865  0.45109  1.0000
  Ag  Ag12      1.0  0.52571  0.11198  0.61776  1.0000
  Ag  Ag13      1.0  0.05081  0.72460  0.52718  1.0000
  Ag  Ag14      1.0  0.38414  0.05793  0.44385  1.0000
  Ag  Ag15      1.0  0.71748  0.39126  0.61052  1.0000
  Ag  Ag16      1.0  0.61586  0.44207  0.47282  1.0000
  Ag  Ag17      1.0  0.94919  0.77540  0.38948  1.0000
  Ag  Ag18      1.0  0.28252  0.10874  0.55615  1.0000
  Sn  Sn1       1.0  0.22120  0.38940  0.48598  1.0000
  Sn  Sn2       1.0  0.55453  0.72273  0.40265  1.0000
  Sn  Sn3       1.0  0.88786  0.05607  0.56932  1.0000
  Sn  Sn4       1.0  0.44547  0.77727  0.51402  1.0000
  Sn  Sn5       1.0  0.77880  0.11060  0.43068  1.0000
  Sn  Sn6       1.0  0.11214  0.44393  0.59735  1.0000
