data_image0
_chemical_formula_structural       Co6Si12
_chemical_formula_sum              "Co6 Si12"
_cell_length_a       5.31298
_cell_length_b       6.50705
_cell_length_c       28.6113
_cell_angle_alpha    94.3478
_cell_angle_beta     90
_cell_angle_gamma    114.095

_space_group_name_H-M_alt    "P 1"
_space_group_IT_number       1

loop_
  _space_group_symop_operation_xyz
  'x, y, z'

loop_
  _atom_site_type_symbol
  _atom_site_label
  _atom_site_symmetry_multiplicity
  _atom_site_fract_x
  _atom_site_fract_y
  _atom_site_fract_z
  _atom_site_occupancy
  Co  Co1       1.0  0.20139  0.40278  0.53472  1.0000
  Co  Co2       1.0  0.78472  0.56944  0.45139  1.0000
  Co  Co3       1.0  0.61806  0.23611  0.61806  1.0000
  Co  Co4       1.0  0.49306  0.98611  0.49306  1.0000
  Co  Co5       1.0  0.07639  0.15278  0.40972  1.0000
  Co  Co6       1.0  0.90972  0.81944  0.57639  1.0000
  Si  Si1       1.0  0.38889  0.27778  0.47222  1.0000
  Si  Si2       1.0  0.97222  0.44444  0.38889  1.0000
  Si  Si3       1.0  0.80556  0.11111  0.55556  1.0000
  Si  Si4       1.0  0.88889  0.27778  0.47222  1.0000
  Si  Si5       1.0  0.47222  0.44444  0.38889  1.0000
  Si  Si6       1.0  0.30556  0.11111  0.55556  1.0000
  Si  Si7       1.0  0.68056  0.86111  0.43056  1.0000
  Si  Si8       1.0  0.51389  0.52778  0.59722  1.0000
  Si  Si9       1.0  0.09722  0.69444  0.51389  1.0000
  Si  Si10      1.0  0.18056  0.86111  0.43056  1.0000
  Si  Si11      1.0  0.01389  0.52778  0.59722  1.0000
  Si  Si12      1.0  0.59722  0.69444  0.51389  1.0000
