data_image0
_chemical_formula_structural       Al12Na12Si12
_chemical_formula_sum              "Al12 Na12 Si12"
_cell_length_a       8.35357
_cell_length_b       9.20396
_cell_length_c       32.1793
_cell_angle_alpha    86.7207
_cell_angle_beta     89.5712
_cell_angle_gamma    63.8502

_space_group_name_H-M_alt    "P 1"
_space_group_IT_number       1

loop_
  _space_group_symop_operation_xyz
  'x, y, z'

loop_
  _atom_site_type_symbol
  _atom_site_label
  _atom_site_symmetry_multiplicity
  _atom_site_fract_x
  _atom_site_fract_y
  _atom_site_fract_z
  _atom_site_occupancy
  Al  Al1       1.0  0.54167  0.54167  0.45833  1.0000
  Al  Al2       1.0  0.65278  0.31944  0.34722  1.0000
  Al  Al3       1.0  0.59722  0.93056  0.40278  1.0000
  Al  Al4       1.0  0.62500  0.62500  0.37500  1.0000
  Al  Al5       1.0  0.56944  0.23611  0.43056  1.0000
  Al  Al6       1.0  0.51389  0.84722  0.48611  1.0000
  Al  Al7       1.0  0.37500  0.37500  0.62500  1.0000
  Al  Al8       1.0  0.48611  0.15278  0.51389  1.0000
  Al  Al9       1.0  0.43056  0.76389  0.56944  1.0000
  Al  Al10      1.0  0.45833  0.45833  0.54167  1.0000
  Al  Al11      1.0  0.40278  0.06944  0.59722  1.0000
  Al  Al12      1.0  0.34722  0.68056  0.65278  1.0000
  Na  Na1       1.0  0.02462  0.37221  0.33968  1.0000
  Na  Na2       1.0  0.96907  0.98333  0.39524  1.0000
  Na  Na3       1.0  0.91351  0.59444  0.45079  1.0000
  Na  Na4       1.0  0.25316  0.57223  0.38254  1.0000
  Na  Na5       1.0  0.19760  0.18334  0.43809  1.0000
  Na  Na6       1.0  0.14204  0.79445  0.49365  1.0000
  Na  Na7       1.0  0.85796  0.20555  0.50635  1.0000
  Na  Na8       1.0  0.80240  0.81666  0.56191  1.0000
  Na  Na9       1.0  0.74684  0.42777  0.61746  1.0000
  Na  Na10      1.0  0.08649  0.40556  0.54921  1.0000
  Na  Na11      1.0  0.03093  0.01667  0.60476  1.0000
  Na  Na12      1.0  0.97538  0.62779  0.66032  1.0000
  Si  Si1       1.0  0.42843  0.20594  0.36344  1.0000
  Si  Si2       1.0  0.37287  0.81705  0.41899  1.0000
  Si  Si3       1.0  0.31732  0.42816  0.47455  1.0000
  Si  Si4       1.0  0.84935  0.73850  0.35879  1.0000
  Si  Si5       1.0  0.79380  0.34961  0.41434  1.0000
  Si  Si6       1.0  0.73824  0.96072  0.46990  1.0000
  Si  Si7       1.0  0.26176  0.03928  0.53010  1.0000
  Si  Si8       1.0  0.20620  0.65039  0.58566  1.0000
  Si  Si9       1.0  0.15065  0.26150  0.64121  1.0000
  Si  Si10      1.0  0.68268  0.57184  0.52545  1.0000
  Si  Si11      1.0  0.62713  0.18295  0.58101  1.0000
  Si  Si12      1.0  0.57157  0.79406  0.63656  1.0000
