data_image0
_chemical_formula_structural       Ru18
_chemical_formula_sum              "Ru18"
_cell_length_a       5.01636
_cell_length_b       6.29108
_cell_length_c       28.5331
_cell_angle_alpha    85.4328
_cell_angle_beta     85.7168
_cell_angle_gamma    76.9112

_space_group_name_H-M_alt    "P 1"
_space_group_IT_number       1

loop_
  _space_group_symop_operation_xyz
  'x, y, z'

loop_
  _atom_site_type_symbol
  _atom_site_label
  _atom_site_symmetry_multiplicity
  _atom_site_fract_x
  _atom_site_fract_y
  _atom_site_fract_z
  _atom_site_occupancy
  Ru  Ru1       1.0  0.53535  0.02778  0.59343  1.0000
  Ru  Ru2       1.0  0.92929  0.69444  0.56313  1.0000
  Ru  Ru3       1.0  0.14141  0.36111  0.62374  1.0000
  Ru  Ru4       1.0  0.43434  0.63889  0.58838  1.0000
  Ru  Ru5       1.0  0.82828  0.30556  0.55808  1.0000
  Ru  Ru6       1.0  0.04040  0.97222  0.61869  1.0000
  Ru  Ru7       1.0  0.71717  0.02778  0.50253  1.0000
  Ru  Ru8       1.0  0.11111  0.69444  0.47222  1.0000
  Ru  Ru9       1.0  0.32323  0.36111  0.53283  1.0000
  Ru  Ru10      1.0  0.61616  0.63889  0.49747  1.0000
  Ru  Ru11      1.0  0.01010  0.30556  0.46717  1.0000
  Ru  Ru12      1.0  0.22222  0.97222  0.52778  1.0000
  Ru  Ru13      1.0  0.89899  0.02778  0.41162  1.0000
  Ru  Ru14      1.0  0.29293  0.69444  0.38131  1.0000
  Ru  Ru15      1.0  0.50505  0.36111  0.44192  1.0000
  Ru  Ru16      1.0  0.79798  0.63889  0.40657  1.0000
  Ru  Ru17      1.0  0.19192  0.30556  0.37626  1.0000
  Ru  Ru18      1.0  0.40404  0.97222  0.43687  1.0000
