data_image0
_chemical_formula_structural       Au4Na8Sb4
_chemical_formula_sum              "Au4 Na8 Sb4"
_cell_length_a       5.92744
_cell_length_b       5.92744
_cell_length_c       34.9181
_cell_angle_alpha    90
_cell_angle_beta     90
_cell_angle_gamma    102.076

_space_group_name_H-M_alt    "P 1"
_space_group_IT_number       1

loop_
  _space_group_symop_operation_xyz
  'x, y, z'

loop_
  _atom_site_type_symbol
  _atom_site_label
  _atom_site_symmetry_multiplicity
  _atom_site_fract_x
  _atom_site_fract_y
  _atom_site_fract_z
  _atom_site_occupancy
  Au  Au1       1.0  0.50000  0.50000  0.59375  1.0000
  Au  Au2       1.0  0.50000  0.50000  0.51042  1.0000
  Au  Au3       1.0  0.50000  0.50000  0.42708  1.0000
  Au  Au4       1.0  0.50000  0.50000  0.34375  1.0000
  Na  Na1       1.0  0.34359  0.98448  0.63542  1.0000
  Na  Na2       1.0  0.65641  0.01552  0.55208  1.0000
  Na  Na3       1.0  0.98448  0.34359  0.63542  1.0000
  Na  Na4       1.0  0.01552  0.65641  0.55208  1.0000
  Na  Na5       1.0  0.34359  0.98448  0.46875  1.0000
  Na  Na6       1.0  0.65641  0.01552  0.38542  1.0000
  Na  Na7       1.0  0.98448  0.34359  0.46875  1.0000
  Na  Na8       1.0  0.01552  0.65641  0.38542  1.0000
  Sb  Sb1       1.0  0.20187  0.20187  0.55208  1.0000
  Sb  Sb2       1.0  0.79813  0.79813  0.63542  1.0000
  Sb  Sb3       1.0  0.20187  0.20187  0.38542  1.0000
  Sb  Sb4       1.0  0.79813  0.79813  0.46875  1.0000
