data_image0
_chemical_formula_structural       Al6Cu2Al6Cu2
_chemical_formula_sum              "Al12 Cu4"
_cell_length_a       3.91931
_cell_length_b       8.13281
_cell_length_c       31.3545
_cell_angle_alpha    103.943
_cell_angle_beta     90
_cell_angle_gamma    76.057

_space_group_name_H-M_alt    "P 1"
_space_group_IT_number       1

loop_
  _space_group_symop_operation_xyz
  'x, y, z'

loop_
  _atom_site_type_symbol
  _atom_site_label
  _atom_site_symmetry_multiplicity
  _atom_site_fract_x
  _atom_site_fract_y
  _atom_site_fract_z
  _atom_site_occupancy
  Al  Al1       1.0  0.75000  0.50000  0.39844  1.0000
  Al  Al2       1.0  0.25000  0.50000  0.46094  1.0000
  Al  Al3       1.0  0.61211  0.77578  0.47817  1.0000
  Al  Al4       1.0  0.11211  0.77578  0.41567  1.0000
  Al  Al5       1.0  0.88789  0.22422  0.44370  1.0000
  Al  Al6       1.0  0.38789  0.22422  0.38120  1.0000
  Cu  Cu1       1.0  0.00000  0.00000  0.49219  1.0000
  Cu  Cu2       1.0  0.50000  0.00000  0.42969  1.0000
  Al  Al7       1.0  0.75000  0.50000  0.52344  1.0000
  Al  Al8       1.0  0.25000  0.50000  0.58594  1.0000
  Al  Al9       1.0  0.61211  0.77578  0.60317  1.0000
  Al  Al10      1.0  0.11211  0.77578  0.54067  1.0000
  Al  Al11      1.0  0.88789  0.22422  0.56870  1.0000
  Al  Al12      1.0  0.38789  0.22422  0.50620  1.0000
  Cu  Cu3       1.0  0.00000  0.00000  0.61719  1.0000
  Cu  Cu4       1.0  0.50000  0.00000  0.55469  1.0000
