data_image0
_chemical_formula_structural       Au8Na16Sb8
_chemical_formula_sum              "Au8 Na16 Sb8"
_cell_length_a       5.92744
_cell_length_b       13.2063
_cell_length_c       31.4207
_cell_angle_alpha    93.9806
_cell_angle_beta     94.5272
_cell_angle_gamma    100.824

_space_group_name_H-M_alt    "P 1"
_space_group_IT_number       1

loop_
  _space_group_symop_operation_xyz
  'x, y, z'

loop_
  _atom_site_type_symbol
  _atom_site_label
  _atom_site_symmetry_multiplicity
  _atom_site_fract_x
  _atom_site_fract_y
  _atom_site_fract_z
  _atom_site_occupancy
  Au  Au1       1.0  0.50000  0.38542  0.36458  1.0000
  Au  Au2       1.0  0.50000  0.80208  0.44792  1.0000
  Au  Au3       1.0  0.50000  0.30208  0.44792  1.0000
  Au  Au4       1.0  0.50000  0.88542  0.36458  1.0000
  Au  Au5       1.0  0.50000  0.21875  0.53125  1.0000
  Au  Au6       1.0  0.50000  0.63542  0.61458  1.0000
  Au  Au7       1.0  0.50000  0.13542  0.61458  1.0000
  Au  Au8       1.0  0.50000  0.71875  0.53125  1.0000
  Na  Na1       1.0  0.01552  0.32559  0.50262  1.0000
  Na  Na2       1.0  0.01552  0.90892  0.41928  1.0000
  Na  Na3       1.0  0.98448  0.69525  0.47655  1.0000
  Na  Na4       1.0  0.98448  0.27858  0.39322  1.0000
  Na  Na5       1.0  0.65641  0.64188  0.36588  1.0000
  Na  Na6       1.0  0.65641  0.05855  0.44921  1.0000
  Na  Na7       1.0  0.34359  0.54562  0.44662  1.0000
  Na  Na8       1.0  0.34359  0.12895  0.36329  1.0000
  Na  Na9       1.0  0.01552  0.15892  0.66928  1.0000
  Na  Na10      1.0  0.01552  0.74225  0.58595  1.0000
  Na  Na11      1.0  0.98448  0.52858  0.64322  1.0000
  Na  Na12      1.0  0.98448  0.11191  0.55988  1.0000
  Na  Na13      1.0  0.65641  0.47522  0.53254  1.0000
  Na  Na14      1.0  0.65641  0.89188  0.61588  1.0000
  Na  Na15      1.0  0.34359  0.37895  0.61329  1.0000
  Na  Na16      1.0  0.34359  0.96228  0.52996  1.0000
  Sb  Sb1       1.0  0.79813  0.46797  0.43109  1.0000
  Sb  Sb2       1.0  0.79813  0.05130  0.34776  1.0000
  Sb  Sb3       1.0  0.20187  0.13620  0.46474  1.0000
  Sb  Sb4       1.0  0.20187  0.71953  0.38141  1.0000
  Sb  Sb5       1.0  0.79813  0.30130  0.59776  1.0000
  Sb  Sb6       1.0  0.79813  0.88464  0.51443  1.0000
  Sb  Sb7       1.0  0.20187  0.96953  0.63141  1.0000
  Sb  Sb8       1.0  0.20187  0.55286  0.54807  1.0000
