data_image0
_chemical_formula_structural       Ca12Cu4Sn14
_chemical_formula_sum              "Ca12 Cu4 Sn14"
_cell_length_a       7.42465
_cell_length_b       12.2409
_cell_length_c       30.156
_cell_angle_alpha    90.9248
_cell_angle_beta     94.114
_cell_angle_gamma    93.7586

_space_group_name_H-M_alt    "P 1"
_space_group_IT_number       1

loop_
  _space_group_symop_operation_xyz
  'x, y, z'

loop_
  _atom_site_type_symbol
  _atom_site_label
  _atom_site_symmetry_multiplicity
  _atom_site_fract_x
  _atom_site_fract_y
  _atom_site_fract_z
  _atom_site_occupancy
  Ca  Ca1       1.0  0.71342  0.70068  0.36257  1.0000
  Ca  Ca2       1.0  0.93378  0.29347  0.45644  1.0000
  Ca  Ca3       1.0  0.20908  0.70653  0.40070  1.0000
  Ca  Ca4       1.0  0.89736  0.00298  0.37672  1.0000
  Ca  Ca5       1.0  0.42944  0.29932  0.49457  1.0000
  Ca  Ca6       1.0  0.24549  0.99702  0.48042  1.0000
  Ca  Ca7       1.0  0.57056  0.70068  0.50543  1.0000
  Ca  Ca8       1.0  0.79092  0.29347  0.59930  1.0000
  Ca  Ca9       1.0  0.06622  0.70653  0.54356  1.0000
  Ca  Ca10      1.0  0.75451  0.00298  0.51958  1.0000
  Ca  Ca11      1.0  0.28658  0.29932  0.63743  1.0000
  Ca  Ca12      1.0  0.10264  0.99702  0.62328  1.0000
  Cu  Cu1       1.0  0.25626  0.38882  0.40433  1.0000
  Cu  Cu2       1.0  0.88660  0.61118  0.45282  1.0000
  Cu  Cu3       1.0  0.11340  0.38882  0.54718  1.0000
  Cu  Cu4       1.0  0.74374  0.61118  0.59567  1.0000
  Sn  Sn1       1.0  0.93927  0.48143  0.37994  1.0000
  Sn  Sn2       1.0  0.23237  0.17551  0.40249  1.0000
  Sn  Sn3       1.0  0.59189  0.11855  0.43015  1.0000
  Sn  Sn4       1.0  0.91049  0.82449  0.45465  1.0000
  Sn  Sn5       1.0  0.57143  0.50000  0.42857  1.0000
  Sn  Sn6       1.0  0.55096  0.88145  0.42700  1.0000
  Sn  Sn7       1.0  0.20359  0.51857  0.47720  1.0000
  Sn  Sn8       1.0  0.79641  0.48143  0.52280  1.0000
  Sn  Sn9       1.0  0.08951  0.17551  0.54535  1.0000
  Sn  Sn10      1.0  0.44904  0.11855  0.57300  1.0000
  Sn  Sn11      1.0  0.76763  0.82449  0.59751  1.0000
  Sn  Sn12      1.0  0.42857  0.50000  0.57143  1.0000
  Sn  Sn13      1.0  0.40811  0.88145  0.56985  1.0000
  Sn  Sn14      1.0  0.06073  0.51857  0.62006  1.0000
