data_image0
_chemical_formula_structural       Zn4Cu2Au2Zn4Cu2Au2
_chemical_formula_sum              "Zn8 Cu4 Au4"
_cell_length_a       4.61039
_cell_length_b       5.45823
_cell_length_c       30.9367
_cell_angle_alpha    90
_cell_angle_beta     90
_cell_angle_gamma    90

_space_group_name_H-M_alt    "P 1"
_space_group_IT_number       1

loop_
  _space_group_symop_operation_xyz
  'x, y, z'

loop_
  _atom_site_type_symbol
  _atom_site_label
  _atom_site_symmetry_multiplicity
  _atom_site_fract_x
  _atom_site_fract_y
  _atom_site_fract_z
  _atom_site_occupancy
  Zn  Zn1       1.0  0.81882  0.74962  0.39286  1.0000
  Zn  Zn2       1.0  0.81882  0.25038  0.39286  1.0000
  Zn  Zn3       1.0  0.18118  0.24962  0.46429  1.0000
  Zn  Zn4       1.0  0.18118  0.75038  0.46429  1.0000
  Cu  Cu1       1.0  0.68602  0.50000  0.46429  1.0000
  Cu  Cu2       1.0  0.31398  0.00000  0.39286  1.0000
  Au  Au1       1.0  0.32207  0.50000  0.39286  1.0000
  Au  Au2       1.0  0.67793  0.00000  0.46429  1.0000
  Zn  Zn5       1.0  0.81882  0.74962  0.53571  1.0000
  Zn  Zn6       1.0  0.81882  0.25038  0.53571  1.0000
  Zn  Zn7       1.0  0.18118  0.24962  0.60714  1.0000
  Zn  Zn8       1.0  0.18118  0.75038  0.60714  1.0000
  Cu  Cu3       1.0  0.68602  0.50000  0.60714  1.0000
  Cu  Cu4       1.0  0.31398  0.00000  0.53571  1.0000
  Au  Au3       1.0  0.32207  0.50000  0.53571  1.0000
  Au  Au4       1.0  0.67793  0.00000  0.60714  1.0000
