data_image0
_chemical_formula_structural       Sb8Pd8Sb8Pd8
_chemical_formula_sum              "Sb16 Pd16"
_cell_length_a       7.06484
_cell_length_b       6.9221
_cell_length_c       41.5326
_cell_angle_alpha    72.2084
_cell_angle_beta     90
_cell_angle_gamma    90

_space_group_name_H-M_alt    "P 1"
_space_group_IT_number       1

loop_
  _space_group_symop_operation_xyz
  'x, y, z'

loop_
  _atom_site_type_symbol
  _atom_site_label
  _atom_site_symmetry_multiplicity
  _atom_site_fract_x
  _atom_site_fract_y
  _atom_site_fract_z
  _atom_site_occupancy
  Sb  Sb1       1.0  0.33333  0.37500  0.38542  1.0000
  Sb  Sb2       1.0  0.33333  0.87500  0.46875  1.0000
  Sb  Sb3       1.0  0.83333  0.12500  0.42708  1.0000
  Sb  Sb4       1.0  0.83333  0.62500  0.34375  1.0000
  Sb  Sb5       1.0  0.16667  0.37500  0.46875  1.0000
  Sb  Sb6       1.0  0.16667  0.87500  0.38542  1.0000
  Sb  Sb7       1.0  0.66667  0.12500  0.34375  1.0000
  Sb  Sb8       1.0  0.66667  0.62500  0.42708  1.0000
  Pd  Pd1       1.0  0.00000  0.50000  0.40625  1.0000
  Pd  Pd2       1.0  0.00000  0.00000  0.48958  1.0000
  Pd  Pd3       1.0  0.50000  0.25000  0.44792  1.0000
  Pd  Pd4       1.0  0.50000  0.75000  0.36458  1.0000
  Pd  Pd5       1.0  0.00000  0.25000  0.36458  1.0000
  Pd  Pd6       1.0  0.00000  0.75000  0.44792  1.0000
  Pd  Pd7       1.0  0.50000  0.00000  0.40625  1.0000
  Pd  Pd8       1.0  0.50000  0.50000  0.48958  1.0000
  Sb  Sb9       1.0  0.33333  0.37500  0.55208  1.0000
  Sb  Sb10      1.0  0.33333  0.87500  0.63542  1.0000
  Sb  Sb11      1.0  0.83333  0.12500  0.59375  1.0000
  Sb  Sb12      1.0  0.83333  0.62500  0.51042  1.0000
  Sb  Sb13      1.0  0.16667  0.37500  0.63542  1.0000
  Sb  Sb14      1.0  0.16667  0.87500  0.55208  1.0000
  Sb  Sb15      1.0  0.66667  0.12500  0.51042  1.0000
  Sb  Sb16      1.0  0.66667  0.62500  0.59375  1.0000
  Pd  Pd9       1.0  0.00000  0.50000  0.57292  1.0000
  Pd  Pd10      1.0  0.00000  0.00000  0.65625  1.0000
  Pd  Pd11      1.0  0.50000  0.25000  0.61458  1.0000
  Pd  Pd12      1.0  0.50000  0.75000  0.53125  1.0000
  Pd  Pd13      1.0  0.00000  0.25000  0.53125  1.0000
  Pd  Pd14      1.0  0.00000  0.75000  0.61458  1.0000
  Pd  Pd15      1.0  0.50000  0.00000  0.57292  1.0000
  Pd  Pd16      1.0  0.50000  0.50000  0.65625  1.0000
