data_image0
_chemical_formula_structural       Re20
_chemical_formula_sum              "Re20"
_cell_length_a       4.76253
_cell_length_b       5.22788
_cell_length_c       39.093
_cell_angle_alpha    75.6724
_cell_angle_beta     68.5631
_cell_angle_gamma    90

_space_group_name_H-M_alt    "P 1"
_space_group_IT_number       1

loop_
  _space_group_symop_operation_xyz
  'x, y, z'

loop_
  _atom_site_type_symbol
  _atom_site_label
  _atom_site_symmetry_multiplicity
  _atom_site_fract_x
  _atom_site_fract_y
  _atom_site_fract_z
  _atom_site_occupancy
  Re  Re1       1.0  0.38333  0.85000  0.48333  1.0000
  Re  Re2       1.0  0.58333  0.25000  0.41667  1.0000
  Re  Re3       1.0  0.98333  0.05000  0.45000  1.0000
  Re  Re4       1.0  0.78333  0.65000  0.35000  1.0000
  Re  Re5       1.0  0.18333  0.45000  0.38333  1.0000
  Re  Re6       1.0  0.41667  0.75000  0.41667  1.0000
  Re  Re7       1.0  0.61667  0.15000  0.35000  1.0000
  Re  Re8       1.0  0.01667  0.95000  0.38333  1.0000
  Re  Re9       1.0  0.81667  0.55000  0.45000  1.0000
  Re  Re10      1.0  0.21667  0.35000  0.48333  1.0000
  Re  Re11      1.0  0.38333  0.85000  0.65000  1.0000
  Re  Re12      1.0  0.58333  0.25000  0.58333  1.0000
  Re  Re13      1.0  0.98333  0.05000  0.61667  1.0000
  Re  Re14      1.0  0.78333  0.65000  0.51667  1.0000
  Re  Re15      1.0  0.18333  0.45000  0.55000  1.0000
  Re  Re16      1.0  0.41667  0.75000  0.58333  1.0000
  Re  Re17      1.0  0.61667  0.15000  0.51667  1.0000
  Re  Re18      1.0  0.01667  0.95000  0.55000  1.0000
  Re  Re19      1.0  0.81667  0.55000  0.61667  1.0000
  Re  Re20      1.0  0.21667  0.35000  0.65000  1.0000
