data_image0
_chemical_formula_structural       In6Au9In6Au9
_chemical_formula_sum              "In12 Au18"
_cell_length_a       5.62401
_cell_length_b       12.1839
_cell_length_c       32.2355
_cell_angle_alpha    79.1066
_cell_angle_beta     90
_cell_angle_gamma    90

_space_group_name_H-M_alt    "P 1"
_space_group_IT_number       1

loop_
  _space_group_symop_operation_xyz
  'x, y, z'

loop_
  _atom_site_type_symbol
  _atom_site_label
  _atom_site_symmetry_multiplicity
  _atom_site_fract_x
  _atom_site_fract_y
  _atom_site_fract_z
  _atom_site_occupancy
  In  In1       1.0  0.17392  0.77778  0.36825  1.0000
  In  In2       1.0  0.17392  0.44444  0.46349  1.0000
  In  In3       1.0  0.17392  0.11111  0.41587  1.0000
  In  In4       1.0  0.82608  0.55556  0.38413  1.0000
  In  In5       1.0  0.82608  0.22222  0.47937  1.0000
  In  In6       1.0  0.82608  0.88889  0.43175  1.0000
  Au  Au1       1.0  0.68467  0.77778  0.36825  1.0000
  Au  Au2       1.0  0.68467  0.44444  0.46349  1.0000
  Au  Au3       1.0  0.68467  0.11111  0.41587  1.0000
  Au  Au4       1.0  0.31533  0.55556  0.38413  1.0000
  Au  Au5       1.0  0.31533  0.22222  0.47937  1.0000
  Au  Au6       1.0  0.31533  0.88889  0.43175  1.0000
  Au  Au7       1.0  0.50000  0.66667  0.44762  1.0000
  Au  Au8       1.0  0.50000  0.33333  0.40000  1.0000
  Au  Au9       1.0  0.50000  0.00000  0.49524  1.0000
  In  In7       1.0  0.17392  0.77778  0.51111  1.0000
  In  In8       1.0  0.17392  0.44444  0.60635  1.0000
  In  In9       1.0  0.17392  0.11111  0.55873  1.0000
  In  In10      1.0  0.82608  0.55556  0.52698  1.0000
  In  In11      1.0  0.82608  0.22222  0.62222  1.0000
  In  In12      1.0  0.82608  0.88889  0.57460  1.0000
  Au  Au10      1.0  0.68467  0.77778  0.51111  1.0000
  Au  Au11      1.0  0.68467  0.44444  0.60635  1.0000
  Au  Au12      1.0  0.68467  0.11111  0.55873  1.0000
  Au  Au13      1.0  0.31533  0.55556  0.52698  1.0000
  Au  Au14      1.0  0.31533  0.22222  0.62222  1.0000
  Au  Au15      1.0  0.31533  0.88889  0.57460  1.0000
  Au  Au16      1.0  0.50000  0.66667  0.59048  1.0000
  Au  Au17      1.0  0.50000  0.33333  0.54286  1.0000
  Au  Au18      1.0  0.50000  0.00000  0.63810  1.0000
