data_image0
_chemical_formula_structural       Pt4W2
_chemical_formula_sum              "Pt4 W2"
_cell_length_a       2.76778
_cell_length_b       3.91349
_cell_length_c       33.0159
_cell_angle_alpha    90
_cell_angle_beta     90
_cell_angle_gamma    90

_space_group_name_H-M_alt    "P 1"
_space_group_IT_number       1

loop_
  _space_group_symop_operation_xyz
  'x, y, z'

loop_
  _atom_site_type_symbol
  _atom_site_label
  _atom_site_symmetry_multiplicity
  _atom_site_fract_x
  _atom_site_fract_y
  _atom_site_fract_z
  _atom_site_occupancy
  Pt  Pt1       1.0  0.50000  0.50000  0.39491  1.0000
  Pt  Pt2       1.0  0.00000  0.00000  0.43842  1.0000
  Pt  Pt3       1.0  0.00000  0.00000  0.51991  1.0000
  Pt  Pt4       1.0  0.50000  0.50000  0.56342  1.0000
  W   W1        1.0  0.00000  0.00000  0.60417  1.0000
  W   W2        1.0  0.50000  0.50000  0.47917  1.0000
