data_image0
_chemical_formula_structural       Al2Cu2Pt4Al2Cu2Pt4Al2Cu2Pt4
_chemical_formula_sum              "Al6 Cu6 Pt12"
_cell_length_a       3.95185
_cell_length_b       8.63798
_cell_length_c       34.8517
_cell_angle_alpha    66.2047
_cell_angle_beta     90
_cell_angle_gamma    90

_space_group_name_H-M_alt    "P 1"
_space_group_IT_number       1

loop_
  _space_group_symop_operation_xyz
  'x, y, z'

loop_
  _atom_site_type_symbol
  _atom_site_label
  _atom_site_symmetry_multiplicity
  _atom_site_fract_x
  _atom_site_fract_y
  _atom_site_fract_z
  _atom_site_occupancy
  Al  Al1       1.0  0.00000  0.50000  0.38750  1.0000
  Al  Al2       1.0  0.00000  0.00000  0.43750  1.0000
  Cu  Cu1       1.0  0.50000  0.25000  0.41250  1.0000
  Cu  Cu2       1.0  0.50000  0.75000  0.36250  1.0000
  Pt  Pt1       1.0  0.00000  0.25000  0.36250  1.0000
  Pt  Pt2       1.0  0.00000  0.75000  0.41250  1.0000
  Pt  Pt3       1.0  0.50000  0.50000  0.43750  1.0000
  Pt  Pt4       1.0  0.50000  0.00000  0.38750  1.0000
  Al  Al3       1.0  0.00000  0.50000  0.48750  1.0000
  Al  Al4       1.0  0.00000  0.00000  0.53750  1.0000
  Cu  Cu3       1.0  0.50000  0.25000  0.51250  1.0000
  Cu  Cu4       1.0  0.50000  0.75000  0.46250  1.0000
  Pt  Pt5       1.0  0.00000  0.25000  0.46250  1.0000
  Pt  Pt6       1.0  0.00000  0.75000  0.51250  1.0000
  Pt  Pt7       1.0  0.50000  0.50000  0.53750  1.0000
  Pt  Pt8       1.0  0.50000  0.00000  0.48750  1.0000
  Al  Al5       1.0  0.00000  0.50000  0.58750  1.0000
  Al  Al6       1.0  0.00000  0.00000  0.63750  1.0000
  Cu  Cu5       1.0  0.50000  0.25000  0.61250  1.0000
  Cu  Cu6       1.0  0.50000  0.75000  0.56250  1.0000
  Pt  Pt9       1.0  0.00000  0.25000  0.56250  1.0000
  Pt  Pt10      1.0  0.00000  0.75000  0.61250  1.0000
  Pt  Pt11      1.0  0.50000  0.50000  0.63750  1.0000
  Pt  Pt12      1.0  0.50000  0.00000  0.58750  1.0000
