data_image0
_chemical_formula_structural       Sb8Ru8Sb8Ru8Sb8Ru8Sb8Ru8
_chemical_formula_sum              "Sb32 Ru32"
_cell_length_a       12.3488
_cell_length_b       7.56948
_cell_length_c       41.2558
_cell_angle_alpha    119.701
_cell_angle_beta     107.681
_cell_angle_gamma    81.3449

_space_group_name_H-M_alt    "P 1"
_space_group_IT_number       1

loop_
  _space_group_symop_operation_xyz
  'x, y, z'

loop_
  _atom_site_type_symbol
  _atom_site_label
  _atom_site_symmetry_multiplicity
  _atom_site_fract_x
  _atom_site_fract_y
  _atom_site_fract_z
  _atom_site_occupancy
  Sb  Sb1       1.0  0.39986  0.58001  0.37885  1.0000
  Sb  Sb2       1.0  0.89986  0.58001  0.33340  1.0000
  Sb  Sb3       1.0  0.10014  0.41999  0.38251  1.0000
  Sb  Sb4       1.0  0.60014  0.41999  0.33706  1.0000
  Sb  Sb5       1.0  0.14986  0.91999  0.38703  1.0000
  Sb  Sb6       1.0  0.64986  0.91999  0.34158  1.0000
  Sb  Sb7       1.0  0.35014  0.08001  0.37433  1.0000
  Sb  Sb8       1.0  0.85014  0.08001  0.32888  1.0000
  Ru  Ru1       1.0  0.49648  0.20600  0.35363  1.0000
  Ru  Ru2       1.0  0.99648  0.20600  0.39909  1.0000
  Ru  Ru3       1.0  0.00352  0.79400  0.40773  1.0000
  Ru  Ru4       1.0  0.50352  0.79400  0.36227  1.0000
  Ru  Ru5       1.0  0.24648  0.29400  0.33891  1.0000
  Ru  Ru6       1.0  0.74648  0.29400  0.38436  1.0000
  Ru  Ru7       1.0  0.25352  0.70600  0.33155  1.0000
  Ru  Ru8       1.0  0.75352  0.70600  0.37700  1.0000
  Sb  Sb9       1.0  0.39986  0.58001  0.46976  1.0000
  Sb  Sb10      1.0  0.89986  0.58001  0.42431  1.0000
  Sb  Sb11      1.0  0.10014  0.41999  0.47342  1.0000
  Sb  Sb12      1.0  0.60014  0.41999  0.42797  1.0000
  Sb  Sb13      1.0  0.14986  0.91999  0.47794  1.0000
  Sb  Sb14      1.0  0.64986  0.91999  0.43249  1.0000
  Sb  Sb15      1.0  0.35014  0.08001  0.46524  1.0000
  Sb  Sb16      1.0  0.85014  0.08001  0.41979  1.0000
  Ru  Ru9       1.0  0.49648  0.20600  0.44454  1.0000
  Ru  Ru10      1.0  0.99648  0.20600  0.49000  1.0000
  Ru  Ru11      1.0  0.00352  0.79400  0.49864  1.0000
  Ru  Ru12      1.0  0.50352  0.79400  0.45318  1.0000
  Ru  Ru13      1.0  0.24648  0.29400  0.42982  1.0000
  Ru  Ru14      1.0  0.74648  0.29400  0.47527  1.0000
  Ru  Ru15      1.0  0.25352  0.70600  0.42246  1.0000
  Ru  Ru16      1.0  0.75352  0.70600  0.46791  1.0000
  Sb  Sb17      1.0  0.39986  0.58001  0.56067  1.0000
  Sb  Sb18      1.0  0.89986  0.58001  0.51521  1.0000
  Sb  Sb19      1.0  0.10014  0.41999  0.56433  1.0000
  Sb  Sb20      1.0  0.60014  0.41999  0.51888  1.0000
  Sb  Sb21      1.0  0.14986  0.91999  0.56885  1.0000
  Sb  Sb22      1.0  0.64986  0.91999  0.52340  1.0000
  Sb  Sb23      1.0  0.35014  0.08001  0.55615  1.0000
  Sb  Sb24      1.0  0.85014  0.08001  0.51070  1.0000
  Ru  Ru17      1.0  0.49648  0.20600  0.53545  1.0000
  Ru  Ru18      1.0  0.99648  0.20600  0.58091  1.0000
  Ru  Ru19      1.0  0.00352  0.79400  0.58955  1.0000
  Ru  Ru20      1.0  0.50352  0.79400  0.54409  1.0000
  Ru  Ru21      1.0  0.24648  0.29400  0.52072  1.0000
  Ru  Ru22      1.0  0.74648  0.29400  0.56618  1.0000
  Ru  Ru23      1.0  0.25352  0.70600  0.51337  1.0000
  Ru  Ru24      1.0  0.75352  0.70600  0.55882  1.0000
  Sb  Sb25      1.0  0.39986  0.58001  0.65158  1.0000
  Sb  Sb26      1.0  0.89986  0.58001  0.60612  1.0000
  Sb  Sb27      1.0  0.10014  0.41999  0.65524  1.0000
  Sb  Sb28      1.0  0.60014  0.41999  0.60979  1.0000
  Sb  Sb29      1.0  0.14986  0.91999  0.65976  1.0000
  Sb  Sb30      1.0  0.64986  0.91999  0.61430  1.0000
  Sb  Sb31      1.0  0.35014  0.08001  0.64706  1.0000
  Sb  Sb32      1.0  0.85014  0.08001  0.60160  1.0000
  Ru  Ru25      1.0  0.49648  0.20600  0.62636  1.0000
  Ru  Ru26      1.0  0.99648  0.20600  0.67182  1.0000
  Ru  Ru27      1.0  0.00352  0.79400  0.68046  1.0000
  Ru  Ru28      1.0  0.50352  0.79400  0.63500  1.0000
  Ru  Ru29      1.0  0.24648  0.29400  0.61163  1.0000
  Ru  Ru30      1.0  0.74648  0.29400  0.65709  1.0000
  Ru  Ru31      1.0  0.25352  0.70600  0.60428  1.0000
  Ru  Ru32      1.0  0.75352  0.70600  0.64973  1.0000
