data_image0
_chemical_formula_structural       CaAl2Ge2
_chemical_formula_sum              "Ca1 Al2 Ge2"
_cell_length_a       4.1666
_cell_length_b       4.1666
_cell_length_c       28.4445
_cell_angle_alpha    90
_cell_angle_beta     90
_cell_angle_gamma    120

_space_group_name_H-M_alt    "P 1"
_space_group_IT_number       1

loop_
  _space_group_symop_operation_xyz
  'x, y, z'

loop_
  _atom_site_type_symbol
  _atom_site_label
  _atom_site_symmetry_multiplicity
  _atom_site_fract_x
  _atom_site_fract_y
  _atom_site_fract_z
  _atom_site_occupancy
  Ca  Ca1       1.0  0.00000  0.00000  0.55000  1.0000
  Al  Al1       1.0  0.66667  0.33333  0.39288  1.0000
  Al  Al2       1.0  0.33333  0.66667  0.45712  1.0000
  Ge  Ge1       1.0  0.33333  0.66667  0.61484  1.0000
  Ge  Ge2       1.0  0.66667  0.33333  0.48516  1.0000
