data_image0
_chemical_formula_structural       Al8Cu8Pt16
_chemical_formula_sum              "Al8 Cu8 Pt16"
_cell_length_a       5.2691
_cell_length_b       6.58639
_cell_length_c       37.9961
_cell_angle_alpha    86.0238
_cell_angle_beta     86.0244
_cell_angle_gamma    84.2604

_space_group_name_H-M_alt    "P 1"
_space_group_IT_number       1

loop_
  _space_group_symop_operation_xyz
  'x, y, z'

loop_
  _atom_site_type_symbol
  _atom_site_label
  _atom_site_symmetry_multiplicity
  _atom_site_fract_x
  _atom_site_fract_y
  _atom_site_fract_z
  _atom_site_occupancy
  Al  Al1       1.0  0.51042  0.02083  0.48958  1.0000
  Al  Al2       1.0  0.13542  0.02083  0.36458  1.0000
  Al  Al3       1.0  0.59375  0.68750  0.40625  1.0000
  Al  Al4       1.0  0.05208  0.35417  0.44792  1.0000
  Al  Al5       1.0  0.34375  0.68750  0.65625  1.0000
  Al  Al6       1.0  0.96875  0.68750  0.53125  1.0000
  Al  Al7       1.0  0.42708  0.35417  0.57292  1.0000
  Al  Al8       1.0  0.88542  0.02083  0.61458  1.0000
  Cu  Cu1       1.0  0.36458  0.35417  0.38542  1.0000
  Cu  Cu2       1.0  0.82292  0.02083  0.42708  1.0000
  Cu  Cu3       1.0  0.28125  0.68750  0.46875  1.0000
  Cu  Cu4       1.0  0.90625  0.68750  0.34375  1.0000
  Cu  Cu5       1.0  0.19792  0.02083  0.55208  1.0000
  Cu  Cu6       1.0  0.65625  0.68750  0.59375  1.0000
  Cu  Cu7       1.0  0.11458  0.35417  0.63542  1.0000
  Cu  Cu8       1.0  0.73958  0.35417  0.51042  1.0000
  Pt  Pt1       1.0  0.86458  0.35417  0.38542  1.0000
  Pt  Pt2       1.0  0.32292  0.02083  0.42708  1.0000
  Pt  Pt3       1.0  0.78125  0.68750  0.46875  1.0000
  Pt  Pt4       1.0  0.40625  0.68750  0.34375  1.0000
  Pt  Pt5       1.0  0.63542  0.02083  0.36458  1.0000
  Pt  Pt6       1.0  0.09375  0.68750  0.40625  1.0000
  Pt  Pt7       1.0  0.55208  0.35417  0.44792  1.0000
  Pt  Pt8       1.0  0.01042  0.02083  0.48958  1.0000
  Pt  Pt9       1.0  0.69792  0.02083  0.55208  1.0000
  Pt  Pt10      1.0  0.15625  0.68750  0.59375  1.0000
  Pt  Pt11      1.0  0.61458  0.35417  0.63542  1.0000
  Pt  Pt12      1.0  0.23958  0.35417  0.51042  1.0000
  Pt  Pt13      1.0  0.46875  0.68750  0.53125  1.0000
  Pt  Pt14      1.0  0.92708  0.35417  0.57292  1.0000
  Pt  Pt15      1.0  0.38542  0.02083  0.61458  1.0000
  Pt  Pt16      1.0  0.84375  0.68750  0.65625  1.0000
