data_image0
_chemical_formula_structural       Sn8Rh4Sn8Rh4
_chemical_formula_sum              "Sn16 Rh8"
_cell_length_a       6.38577
_cell_length_b       6.38577
_cell_length_c       34.1452
_cell_angle_alpha    90
_cell_angle_beta     90
_cell_angle_gamma    90

_space_group_name_H-M_alt    "P 1"
_space_group_IT_number       1

loop_
  _space_group_symop_operation_xyz
  'x, y, z'

loop_
  _atom_site_type_symbol
  _atom_site_label
  _atom_site_symmetry_multiplicity
  _atom_site_fract_x
  _atom_site_fract_y
  _atom_site_fract_z
  _atom_site_occupancy
  Sn  Sn1       1.0  0.66201  0.16201  0.47222  1.0000
  Sn  Sn2       1.0  0.16201  0.33799  0.47222  1.0000
  Sn  Sn3       1.0  0.33799  0.16201  0.38889  1.0000
  Sn  Sn4       1.0  0.83799  0.33799  0.38889  1.0000
  Sn  Sn5       1.0  0.16201  0.66201  0.38889  1.0000
  Sn  Sn6       1.0  0.66201  0.83799  0.38889  1.0000
  Sn  Sn7       1.0  0.83799  0.66201  0.47222  1.0000
  Sn  Sn8       1.0  0.33799  0.83799  0.47222  1.0000
  Rh  Rh1       1.0  0.50000  0.50000  0.43056  1.0000
  Rh  Rh2       1.0  0.50000  0.50000  0.34722  1.0000
  Rh  Rh3       1.0  0.00000  0.00000  0.34722  1.0000
  Rh  Rh4       1.0  0.00000  0.00000  0.43056  1.0000
  Sn  Sn9       1.0  0.66201  0.16201  0.63889  1.0000
  Sn  Sn10      1.0  0.16201  0.33799  0.63889  1.0000
  Sn  Sn11      1.0  0.33799  0.16201  0.55556  1.0000
  Sn  Sn12      1.0  0.83799  0.33799  0.55556  1.0000
  Sn  Sn13      1.0  0.16201  0.66201  0.55556  1.0000
  Sn  Sn14      1.0  0.66201  0.83799  0.55556  1.0000
  Sn  Sn15      1.0  0.83799  0.66201  0.63889  1.0000
  Sn  Sn16      1.0  0.33799  0.83799  0.63889  1.0000
  Rh  Rh5       1.0  0.50000  0.50000  0.59722  1.0000
  Rh  Rh6       1.0  0.50000  0.50000  0.51389  1.0000
  Rh  Rh7       1.0  0.00000  0.00000  0.51389  1.0000
  Rh  Rh8       1.0  0.00000  0.00000  0.59722  1.0000
