data_image0
_chemical_formula_structural       H4V8
_chemical_formula_sum              "H4 V8"
_cell_length_a       2.62761
_cell_length_b       4.37803
_cell_length_c       33.8867
_cell_angle_alpha    93.1569
_cell_angle_beta     91.1125
_cell_angle_gamma    96.0972

_space_group_name_H-M_alt    "P 1"
_space_group_IT_number       1

loop_
  _space_group_symop_operation_xyz
  'x, y, z'

loop_
  _atom_site_type_symbol
  _atom_site_label
  _atom_site_symmetry_multiplicity
  _atom_site_fract_x
  _atom_site_fract_y
  _atom_site_fract_z
  _atom_site_occupancy
  H   H1        1.0  0.55952  0.48810  0.48810  1.0000
  H   H2        1.0  0.91667  0.41667  0.41667  1.0000
  H   H3        1.0  0.84524  0.63095  0.63095  1.0000
  H   H4        1.0  0.20238  0.55952  0.55952  1.0000
  V   V1        1.0  0.90792  0.63288  0.36450  1.0000
  V   V2        1.0  0.55078  0.70431  0.43592  1.0000
  V   V3        1.0  0.92541  0.20045  0.46884  1.0000
  V   V4        1.0  0.28256  0.12902  0.39741  1.0000
  V   V5        1.0  0.19363  0.77574  0.50735  1.0000
  V   V6        1.0  0.83649  0.84717  0.57878  1.0000
  V   V7        1.0  0.21113  0.34331  0.61170  1.0000
  V   V8        1.0  0.56827  0.27188  0.54027  1.0000
