data_image0
_chemical_formula_structural       As12Ca24
_chemical_formula_sum              "As12 Ca24"
_cell_length_a       8.44579
_cell_length_b       10.0745
_cell_length_c       36.3242
_cell_angle_alpha    93.1798
_cell_angle_beta     95.696
_cell_angle_gamma    110.968

_space_group_name_H-M_alt    "P 1"
_space_group_IT_number       1

loop_
  _space_group_symop_operation_xyz
  'x, y, z'

loop_
  _atom_site_type_symbol
  _atom_site_label
  _atom_site_symmetry_multiplicity
  _atom_site_fract_x
  _atom_site_fract_y
  _atom_site_fract_z
  _atom_site_occupancy
  As  As1       1.0  0.26878  0.01268  0.41024  1.0000
  As  As2       1.0  0.26878  0.62379  0.46580  1.0000
  As  As3       1.0  0.26878  0.40157  0.35469  1.0000
  As  As4       1.0  0.73122  0.23732  0.33976  1.0000
  As  As5       1.0  0.73122  0.84843  0.39531  1.0000
  As  As6       1.0  0.73122  0.45954  0.45087  1.0000
  As  As7       1.0  0.26878  0.84602  0.57691  1.0000
  As  As8       1.0  0.26878  0.45713  0.63247  1.0000
  As  As9       1.0  0.26878  0.23491  0.52136  1.0000
  As  As10      1.0  0.73122  0.07065  0.50642  1.0000
  As  As11      1.0  0.73122  0.68176  0.56198  1.0000
  As  As12      1.0  0.73122  0.29287  0.61753  1.0000
  Ca  Ca1       1.0  0.00000  0.81944  0.34722  1.0000
  Ca  Ca2       1.0  0.00000  0.43056  0.40278  1.0000
  Ca  Ca3       1.0  0.00000  0.04167  0.45833  1.0000
  Ca  Ca4       1.0  0.00000  0.12500  0.37500  1.0000
  Ca  Ca5       1.0  0.00000  0.73611  0.43056  1.0000
  Ca  Ca6       1.0  0.00000  0.34722  0.48611  1.0000
  Ca  Ca7       1.0  0.64157  0.12659  0.42060  1.0000
  Ca  Ca8       1.0  0.64157  0.73770  0.47615  1.0000
  Ca  Ca9       1.0  0.64157  0.51548  0.36504  1.0000
  Ca  Ca10      1.0  0.35843  0.95674  0.49607  1.0000
  Ca  Ca11      1.0  0.35843  0.73452  0.38496  1.0000
  Ca  Ca12      1.0  0.35843  0.34563  0.44051  1.0000
  Ca  Ca13      1.0  0.00000  0.65278  0.51389  1.0000
  Ca  Ca14      1.0  0.00000  0.26389  0.56944  1.0000
  Ca  Ca15      1.0  0.00000  0.87500  0.62500  1.0000
  Ca  Ca16      1.0  0.00000  0.95833  0.54167  1.0000
  Ca  Ca17      1.0  0.00000  0.56944  0.59722  1.0000
  Ca  Ca18      1.0  0.00000  0.18056  0.65278  1.0000
  Ca  Ca19      1.0  0.64157  0.95992  0.58727  1.0000
  Ca  Ca20      1.0  0.64157  0.57103  0.64282  1.0000
  Ca  Ca21      1.0  0.64157  0.34881  0.53171  1.0000
  Ca  Ca22      1.0  0.35843  0.79008  0.66273  1.0000
  Ca  Ca23      1.0  0.35843  0.56785  0.55162  1.0000
  Ca  Ca24      1.0  0.35843  0.17897  0.60718  1.0000
