data_image0
_chemical_formula_structural       Ca5Pb5Ca5Pb5
_chemical_formula_sum              "Ca10 Pb10"
_cell_length_a       7.93834
_cell_length_b       5.77819
_cell_length_c       40.69
_cell_angle_alpha    77.95
_cell_angle_beta     76.4607
_cell_angle_gamma    74.0518

_space_group_name_H-M_alt    "P 1"
_space_group_IT_number       1

loop_
  _space_group_symop_operation_xyz
  'x, y, z'

loop_
  _atom_site_type_symbol
  _atom_site_label
  _atom_site_symmetry_multiplicity
  _atom_site_fract_x
  _atom_site_fract_y
  _atom_site_fract_z
  _atom_site_occupancy
  Ca  Ca1       1.0  0.40000  0.80000  0.35833  1.0000
  Ca  Ca2       1.0  0.80000  0.60000  0.39167  1.0000
  Ca  Ca3       1.0  0.00000  0.00000  0.49167  1.0000
  Ca  Ca4       1.0  0.20000  0.40000  0.42500  1.0000
  Ca  Ca5       1.0  0.60000  0.20000  0.45833  1.0000
  Pb  Pb1       1.0  0.40000  0.80000  0.44167  1.0000
  Pb  Pb2       1.0  0.80000  0.60000  0.47500  1.0000
  Pb  Pb3       1.0  0.00000  0.00000  0.40833  1.0000
  Pb  Pb4       1.0  0.20000  0.40000  0.34167  1.0000
  Pb  Pb5       1.0  0.60000  0.20000  0.37500  1.0000
  Ca  Ca6       1.0  0.40000  0.80000  0.52500  1.0000
  Ca  Ca7       1.0  0.80000  0.60000  0.55833  1.0000
  Ca  Ca8       1.0  0.00000  0.00000  0.65833  1.0000
  Ca  Ca9       1.0  0.20000  0.40000  0.59167  1.0000
  Ca  Ca10      1.0  0.60000  0.20000  0.62500  1.0000
  Pb  Pb6       1.0  0.40000  0.80000  0.60833  1.0000
  Pb  Pb7       1.0  0.80000  0.60000  0.64167  1.0000
  Pb  Pb8       1.0  0.00000  0.00000  0.57500  1.0000
  Pb  Pb9       1.0  0.20000  0.40000  0.50833  1.0000
  Pb  Pb10      1.0  0.60000  0.20000  0.54167  1.0000
