data_image0
_chemical_formula_structural       Cu6
_chemical_formula_sum              "Cu6"
_cell_length_a       2.52379
_cell_length_b       2.52379
_cell_length_c       37.092
_cell_angle_alpha    90
_cell_angle_beta     90
_cell_angle_gamma    120

_space_group_name_H-M_alt    "P 1"
_space_group_IT_number       1

loop_
  _space_group_symop_operation_xyz
  'x, y, z'

loop_
  _atom_site_type_symbol
  _atom_site_label
  _atom_site_symmetry_multiplicity
  _atom_site_fract_x
  _atom_site_fract_y
  _atom_site_fract_z
  _atom_site_occupancy
  Cu  Cu1       1.0  0.33333  0.66667  0.36111  1.0000
  Cu  Cu2       1.0  0.00000  0.00000  0.47222  1.0000
  Cu  Cu3       1.0  0.66667  0.33333  0.41667  1.0000
  Cu  Cu4       1.0  0.33333  0.66667  0.52778  1.0000
  Cu  Cu5       1.0  0.00000  0.00000  0.63889  1.0000
  Cu  Cu6       1.0  0.66667  0.33333  0.58333  1.0000
