data_image0
_chemical_formula_structural       Pd6Ti12
_chemical_formula_sum              "Pd6 Ti12"
_cell_length_a       5.36419
_cell_length_b       6.86746
_cell_length_c       28.6548
_cell_angle_alpha    94.123
_cell_angle_beta     90.1779
_cell_angle_gamma    112.586

_space_group_name_H-M_alt    "P 1"
_space_group_IT_number       1

loop_
  _space_group_symop_operation_xyz
  'x, y, z'

loop_
  _atom_site_type_symbol
  _atom_site_label
  _atom_site_symmetry_multiplicity
  _atom_site_fract_x
  _atom_site_fract_y
  _atom_site_fract_z
  _atom_site_occupancy
  Pd  Pd1       1.0  0.47619  0.95238  0.47619  1.0000
  Pd  Pd2       1.0  0.38095  0.09524  0.38095  1.0000
  Pd  Pd3       1.0  0.42857  0.52381  0.42857  1.0000
  Pd  Pd4       1.0  0.61905  0.23810  0.61905  1.0000
  Pd  Pd5       1.0  0.52381  0.38095  0.52381  1.0000
  Pd  Pd6       1.0  0.57143  0.80952  0.57143  1.0000
  Ti  Ti1       1.0  0.08340  0.71547  0.41260  1.0000
  Ti  Ti2       1.0  0.13102  0.14404  0.46022  1.0000
  Ti  Ti3       1.0  0.03578  0.28690  0.36498  1.0000
  Ti  Ti4       1.0  0.82136  0.76072  0.49216  1.0000
  Ti  Ti5       1.0  0.72612  0.90358  0.39692  1.0000
  Ti  Ti6       1.0  0.77374  0.33215  0.44454  1.0000
  Ti  Ti7       1.0  0.22626  0.00118  0.55546  1.0000
  Ti  Ti8       1.0  0.27388  0.42975  0.60308  1.0000
  Ti  Ti9       1.0  0.17864  0.57261  0.50784  1.0000
  Ti  Ti10      1.0  0.96422  0.04644  0.63502  1.0000
  Ti  Ti11      1.0  0.86898  0.18929  0.53978  1.0000
  Ti  Ti12      1.0  0.91660  0.61787  0.58740  1.0000
