data_image0
_chemical_formula_structural       Rh8Sn16
_chemical_formula_sum              "Rh8 Sn16"
_cell_length_a       5.33718
_cell_length_b       9.03084
_cell_length_c       38.5928
_cell_angle_alpha    90
_cell_angle_beta     93.5862
_cell_angle_gamma    90

_space_group_name_H-M_alt    "P 1"
_space_group_IT_number       1

loop_
  _space_group_symop_operation_xyz
  'x, y, z'

loop_
  _atom_site_type_symbol
  _atom_site_label
  _atom_site_symmetry_multiplicity
  _atom_site_fract_x
  _atom_site_fract_y
  _atom_site_fract_z
  _atom_site_occupancy
  Rh  Rh1       1.0  0.96875  0.50000  0.59375  1.0000
  Rh  Rh2       1.0  0.03125  0.00000  0.40625  1.0000
  Rh  Rh3       1.0  0.65625  0.00000  0.53125  1.0000
  Rh  Rh4       1.0  0.34375  0.50000  0.46875  1.0000
  Rh  Rh5       1.0  0.65625  0.50000  0.53125  1.0000
  Rh  Rh6       1.0  0.96875  0.00000  0.59375  1.0000
  Rh  Rh7       1.0  0.34375  0.00000  0.46875  1.0000
  Rh  Rh8       1.0  0.03125  0.50000  0.40625  1.0000
  Sn  Sn1       1.0  0.62098  0.75000  0.48900  1.0000
  Sn  Sn2       1.0  0.93348  0.25000  0.55150  1.0000
  Sn  Sn3       1.0  0.30848  0.25000  0.42650  1.0000
  Sn  Sn4       1.0  0.24598  0.75000  0.61400  1.0000
  Sn  Sn5       1.0  0.84375  0.41201  0.46875  1.0000
  Sn  Sn6       1.0  0.15625  0.91201  0.53125  1.0000
  Sn  Sn7       1.0  0.53125  0.91201  0.40625  1.0000
  Sn  Sn8       1.0  0.46875  0.41201  0.59375  1.0000
  Sn  Sn9       1.0  0.15625  0.58799  0.53125  1.0000
  Sn  Sn10      1.0  0.46875  0.08799  0.59375  1.0000
  Sn  Sn11      1.0  0.84375  0.08799  0.46875  1.0000
  Sn  Sn12      1.0  0.53125  0.58799  0.40625  1.0000
  Sn  Sn13      1.0  0.69152  0.75000  0.57350  1.0000
  Sn  Sn14      1.0  0.75402  0.25000  0.38600  1.0000
  Sn  Sn15      1.0  0.37902  0.25000  0.51100  1.0000
  Sn  Sn16      1.0  0.06652  0.75000  0.44850  1.0000
