data_image0
_chemical_formula_structural       Pd8Sn24
_chemical_formula_sum              "Pd8 Sn24"
_cell_length_a       6.47903
_cell_length_b       9.16652
_cell_length_c       36.5087
_cell_angle_alpha    97.0132
_cell_angle_beta     90
_cell_angle_gamma    90

_space_group_name_H-M_alt    "P 1"
_space_group_IT_number       1

loop_
  _space_group_symop_operation_xyz
  'x, y, z'

loop_
  _atom_site_type_symbol
  _atom_site_label
  _atom_site_symmetry_multiplicity
  _atom_site_fract_x
  _atom_site_fract_y
  _atom_site_fract_z
  _atom_site_occupancy
  Pd  Pd1       1.0  0.00000  0.67697  0.49336  1.0000
  Pd  Pd2       1.0  0.50000  0.44803  0.38164  1.0000
  Pd  Pd3       1.0  0.00000  0.36470  0.46497  1.0000
  Pd  Pd4       1.0  0.50000  0.76030  0.41003  1.0000
  Pd  Pd5       1.0  0.00000  0.51030  0.66003  1.0000
  Pd  Pd6       1.0  0.50000  0.28137  0.54831  1.0000
  Pd  Pd7       1.0  0.00000  0.19803  0.63164  1.0000
  Pd  Pd8       1.0  0.50000  0.59363  0.57669  1.0000
  Sn  Sn1       1.0  0.33786  0.54753  0.45247  1.0000
  Sn  Sn2       1.0  0.16214  0.63086  0.36914  1.0000
  Sn  Sn3       1.0  0.83786  0.57747  0.42253  1.0000
  Sn  Sn4       1.0  0.66214  0.66080  0.33920  1.0000
  Sn  Sn5       1.0  0.17026  0.88319  0.45221  1.0000
  Sn  Sn6       1.0  0.32974  0.18495  0.47965  1.0000
  Sn  Sn7       1.0  0.67026  0.24181  0.42279  1.0000
  Sn  Sn8       1.0  0.82974  0.94005  0.39535  1.0000
  Sn  Sn9       1.0  0.82974  0.32514  0.33945  1.0000
  Sn  Sn10      1.0  0.67026  0.85671  0.47869  1.0000
  Sn  Sn11      1.0  0.32974  0.96652  0.36888  1.0000
  Sn  Sn12      1.0  0.17026  0.26829  0.39631  1.0000
  Sn  Sn13      1.0  0.33786  0.38086  0.61914  1.0000
  Sn  Sn14      1.0  0.16214  0.46420  0.53580  1.0000
  Sn  Sn15      1.0  0.83786  0.41080  0.58920  1.0000
  Sn  Sn16      1.0  0.66214  0.49414  0.50586  1.0000
  Sn  Sn17      1.0  0.17026  0.71652  0.61888  1.0000
  Sn  Sn18      1.0  0.32974  0.01829  0.64631  1.0000
  Sn  Sn19      1.0  0.67026  0.07514  0.58945  1.0000
  Sn  Sn20      1.0  0.82974  0.77338  0.56202  1.0000
  Sn  Sn21      1.0  0.82974  0.15848  0.50612  1.0000
  Sn  Sn22      1.0  0.67026  0.69005  0.64535  1.0000
  Sn  Sn23      1.0  0.32974  0.79986  0.53555  1.0000
  Sn  Sn24      1.0  0.17026  0.10162  0.56298  1.0000
