data_image0
_chemical_formula_structural       Si8Ir8Si8Ir8
_chemical_formula_sum              "Si16 Ir16"
_cell_length_a       3.20128
_cell_length_b       13.7959
_cell_length_c       33.2734
_cell_angle_alpha    113.702
_cell_angle_beta     90
_cell_angle_gamma    90

_space_group_name_H-M_alt    "P 1"
_space_group_IT_number       1

loop_
  _space_group_symop_operation_xyz
  'x, y, z'

loop_
  _atom_site_type_symbol
  _atom_site_label
  _atom_site_symmetry_multiplicity
  _atom_site_fract_x
  _atom_site_fract_y
  _atom_site_fract_z
  _atom_site_occupancy
  Si  Si1       1.0  0.75000  0.46976  0.43323  1.0000
  Si  Si2       1.0  0.75000  0.96976  0.34989  1.0000
  Si  Si3       1.0  0.25000  0.03024  0.42094  1.0000
  Si  Si4       1.0  0.25000  0.53024  0.33761  1.0000
  Si  Si5       1.0  0.75000  0.28024  0.48497  1.0000
  Si  Si6       1.0  0.75000  0.78024  0.40164  1.0000
  Si  Si7       1.0  0.25000  0.21976  0.36919  1.0000
  Si  Si8       1.0  0.25000  0.71976  0.45253  1.0000
  Ir  Ir1       1.0  0.75000  0.14726  0.40968  1.0000
  Ir  Ir2       1.0  0.75000  0.64726  0.49302  1.0000
  Ir  Ir3       1.0  0.25000  0.35274  0.44448  1.0000
  Ir  Ir4       1.0  0.25000  0.85274  0.36115  1.0000
  Ir  Ir5       1.0  0.75000  0.10274  0.48560  1.0000
  Ir  Ir6       1.0  0.75000  0.60274  0.40226  1.0000
  Ir  Ir7       1.0  0.25000  0.39726  0.36857  1.0000
  Ir  Ir8       1.0  0.25000  0.89726  0.45190  1.0000
  Si  Si9       1.0  0.75000  0.46976  0.59989  1.0000
  Si  Si10      1.0  0.75000  0.96976  0.51656  1.0000
  Si  Si11      1.0  0.25000  0.03024  0.58761  1.0000
  Si  Si12      1.0  0.25000  0.53024  0.50427  1.0000
  Si  Si13      1.0  0.75000  0.28024  0.65164  1.0000
  Si  Si14      1.0  0.75000  0.78024  0.56831  1.0000
  Si  Si15      1.0  0.25000  0.21976  0.53586  1.0000
  Si  Si16      1.0  0.25000  0.71976  0.61919  1.0000
  Ir  Ir9       1.0  0.75000  0.14726  0.57635  1.0000
  Ir  Ir10      1.0  0.75000  0.64726  0.65968  1.0000
  Ir  Ir11      1.0  0.25000  0.35274  0.61115  1.0000
  Ir  Ir12      1.0  0.25000  0.85274  0.52782  1.0000
  Ir  Ir13      1.0  0.75000  0.10274  0.65226  1.0000
  Ir  Ir14      1.0  0.75000  0.60274  0.56893  1.0000
  Ir  Ir15      1.0  0.25000  0.39726  0.53524  1.0000
  Ir  Ir16      1.0  0.25000  0.89726  0.61857  1.0000
