data_image0
_chemical_formula_structural       Nb8As16
_chemical_formula_sum              "Nb8 As16"
_cell_length_a       3.37862
_cell_length_b       16.3406
_cell_length_c       31.1786
_cell_angle_alpha    94.827
_cell_angle_beta     90
_cell_angle_gamma    90

_space_group_name_H-M_alt    "P 1"
_space_group_IT_number       1

loop_
  _space_group_symop_operation_xyz
  'x, y, z'

loop_
  _atom_site_type_symbol
  _atom_site_label
  _atom_site_symmetry_multiplicity
  _atom_site_fract_x
  _atom_site_fract_y
  _atom_site_fract_z
  _atom_site_occupancy
  Nb  Nb1       1.0  0.00000  0.07847  0.60231  1.0000
  Nb  Nb2       1.0  0.00000  0.57847  0.47731  1.0000
  Nb  Nb3       1.0  0.00000  0.42153  0.41852  1.0000
  Nb  Nb4       1.0  0.00000  0.92153  0.54352  1.0000
  Nb  Nb5       1.0  0.50000  0.32847  0.53981  1.0000
  Nb  Nb6       1.0  0.50000  0.82847  0.41481  1.0000
  Nb  Nb7       1.0  0.50000  0.17153  0.48102  1.0000
  Nb  Nb8       1.0  0.50000  0.67153  0.60602  1.0000
  As  As1       1.0  0.50000  0.17927  0.39596  1.0000
  As  As2       1.0  0.50000  0.67927  0.52096  1.0000
  As  As3       1.0  0.50000  0.32073  0.37488  1.0000
  As  As4       1.0  0.50000  0.82073  0.49988  1.0000
  As  As5       1.0  0.00000  0.29747  0.47186  1.0000
  As  As6       1.0  0.00000  0.79747  0.59686  1.0000
  As  As7       1.0  0.00000  0.20253  0.54898  1.0000
  As  As8       1.0  0.00000  0.70253  0.42398  1.0000
  As  As9       1.0  0.00000  0.42927  0.58346  1.0000
  As  As10      1.0  0.00000  0.92927  0.45846  1.0000
  As  As11      1.0  0.00000  0.07073  0.43738  1.0000
  As  As12      1.0  0.00000  0.57073  0.56238  1.0000
  As  As13      1.0  0.50000  0.04747  0.53436  1.0000
  As  As14      1.0  0.50000  0.54747  0.40936  1.0000
  As  As15      1.0  0.50000  0.45253  0.48648  1.0000
  As  As16      1.0  0.50000  0.95253  0.61148  1.0000
