data_image0
_chemical_formula_structural       Sb16Ir8
_chemical_formula_sum              "Sb16 Ir8"
_cell_length_a       6.6116
_cell_length_b       9.3838
_cell_length_c       37.5352
_cell_angle_alpha    88.6768
_cell_angle_beta     107.545
_cell_angle_gamma    107.545

_space_group_name_H-M_alt    "P 1"
_space_group_IT_number       1

loop_
  _space_group_symop_operation_xyz
  'x, y, z'

loop_
  _atom_site_type_symbol
  _atom_site_label
  _atom_site_symmetry_multiplicity
  _atom_site_fract_x
  _atom_site_fract_y
  _atom_site_fract_z
  _atom_site_occupancy
  Sb  Sb1       1.0  0.85093  0.12807  0.60244  1.0000
  Sb  Sb2       1.0  0.85093  0.62807  0.47744  1.0000
  Sb  Sb3       1.0  0.14907  0.50690  0.57215  1.0000
  Sb  Sb4       1.0  0.14907  0.00690  0.44715  1.0000
  Sb  Sb5       1.0  0.14907  0.87193  0.60589  1.0000
  Sb  Sb6       1.0  0.14907  0.37193  0.48089  1.0000
  Sb  Sb7       1.0  0.85093  0.49310  0.38618  1.0000
  Sb  Sb8       1.0  0.85093  0.99310  0.51118  1.0000
  Sb  Sb9       1.0  0.65539  0.72937  0.62715  1.0000
  Sb  Sb10      1.0  0.65539  0.22937  0.50215  1.0000
  Sb  Sb11      1.0  0.34461  0.40807  0.42182  1.0000
  Sb  Sb12      1.0  0.34461  0.90807  0.54682  1.0000
  Sb  Sb13      1.0  0.34461  0.27063  0.58119  1.0000
  Sb  Sb14      1.0  0.34461  0.77063  0.45619  1.0000
  Sb  Sb15      1.0  0.65539  0.59193  0.53651  1.0000
  Sb  Sb16      1.0  0.65539  0.09193  0.41151  1.0000
  Ir  Ir1       1.0  0.72831  0.35397  0.56791  1.0000
  Ir  Ir2       1.0  0.72831  0.85397  0.44291  1.0000
  Ir  Ir3       1.0  0.27169  0.64504  0.51567  1.0000
  Ir  Ir4       1.0  0.27169  0.14504  0.39067  1.0000
  Ir  Ir5       1.0  0.27169  0.64603  0.39043  1.0000
  Ir  Ir6       1.0  0.27169  0.14603  0.51543  1.0000
  Ir  Ir7       1.0  0.72831  0.35496  0.44266  1.0000
  Ir  Ir8       1.0  0.72831  0.85496  0.56766  1.0000
