data_image0
_chemical_formula_structural       Au4Sn16
_chemical_formula_sum              "Au4 Sn16"
_cell_length_a       6.55099
_cell_length_b       6.67761
_cell_length_c       39.1638
_cell_angle_alpha    90
_cell_angle_beta     90
_cell_angle_gamma    119.375

_space_group_name_H-M_alt    "P 1"
_space_group_IT_number       1

loop_
  _space_group_symop_operation_xyz
  'x, y, z'

loop_
  _atom_site_type_symbol
  _atom_site_label
  _atom_site_symmetry_multiplicity
  _atom_site_fract_x
  _atom_site_fract_y
  _atom_site_fract_z
  _atom_site_occupancy
  Au  Au1       1.0  0.50000  0.00000  0.37500  1.0000
  Au  Au2       1.0  0.00000  0.00000  0.45833  1.0000
  Au  Au3       1.0  0.50000  0.00000  0.54167  1.0000
  Au  Au4       1.0  0.00000  0.00000  0.62500  1.0000
  Sn  Sn1       1.0  0.28657  0.25300  0.40278  1.0000
  Sn  Sn2       1.0  0.96643  0.25300  0.34722  1.0000
  Sn  Sn3       1.0  0.78657  0.25300  0.43055  1.0000
  Sn  Sn4       1.0  0.46643  0.25300  0.48611  1.0000
  Sn  Sn5       1.0  0.21343  0.74700  0.43055  1.0000
  Sn  Sn6       1.0  0.53357  0.74700  0.48611  1.0000
  Sn  Sn7       1.0  0.71343  0.74700  0.40278  1.0000
  Sn  Sn8       1.0  0.03357  0.74700  0.34722  1.0000
  Sn  Sn9       1.0  0.28657  0.25300  0.56945  1.0000
  Sn  Sn10      1.0  0.96643  0.25300  0.51389  1.0000
  Sn  Sn11      1.0  0.78657  0.25300  0.59722  1.0000
  Sn  Sn12      1.0  0.46643  0.25300  0.65278  1.0000
  Sn  Sn13      1.0  0.21343  0.74700  0.59722  1.0000
  Sn  Sn14      1.0  0.53357  0.74700  0.65278  1.0000
  Sn  Sn15      1.0  0.71343  0.74700  0.56945  1.0000
  Sn  Sn16      1.0  0.03357  0.74700  0.51389  1.0000
