data_image0
_chemical_formula_structural       Mn4Ir4Mn4Ir4
_chemical_formula_sum              "Mn8 Ir8"
_cell_length_a       3.69729
_cell_length_b       6.34687
_cell_length_c       30.9525
_cell_angle_alpha    91.2726
_cell_angle_beta     90
_cell_angle_gamma    54.3708

_space_group_name_H-M_alt    "P 1"
_space_group_IT_number       1

loop_
  _space_group_symop_operation_xyz
  'x, y, z'

loop_
  _atom_site_type_symbol
  _atom_site_label
  _atom_site_symmetry_multiplicity
  _atom_site_fract_x
  _atom_site_fract_y
  _atom_site_fract_z
  _atom_site_occupancy
  Mn  Mn1       1.0  0.75000  0.75000  0.43750  1.0000
  Mn  Mn2       1.0  0.50000  0.50000  0.47917  1.0000
  Mn  Mn3       1.0  0.00000  0.00000  0.39583  1.0000
  Mn  Mn4       1.0  0.25000  0.25000  0.35417  1.0000
  Ir  Ir1       1.0  0.75000  0.75000  0.35417  1.0000
  Ir  Ir2       1.0  0.50000  0.50000  0.39583  1.0000
  Ir  Ir3       1.0  0.00000  0.00000  0.47917  1.0000
  Ir  Ir4       1.0  0.25000  0.25000  0.43750  1.0000
  Mn  Mn5       1.0  0.75000  0.75000  0.60417  1.0000
  Mn  Mn6       1.0  0.50000  0.50000  0.64583  1.0000
  Mn  Mn7       1.0  0.00000  0.00000  0.56250  1.0000
  Mn  Mn8       1.0  0.25000  0.25000  0.52083  1.0000
  Ir  Ir5       1.0  0.75000  0.75000  0.52083  1.0000
  Ir  Ir6       1.0  0.50000  0.50000  0.56250  1.0000
  Ir  Ir7       1.0  0.00000  0.00000  0.64583  1.0000
  Ir  Ir8       1.0  0.25000  0.25000  0.60417  1.0000
