data_image0
_chemical_formula_structural       Al9Cu3Al9Cu3
_chemical_formula_sum              "Al18 Cu6"
_cell_length_a       2.77137
_cell_length_b       9.44373
_cell_length_c       40.664
_cell_angle_alpha    55.8624
_cell_angle_beta     90
_cell_angle_gamma    90

_space_group_name_H-M_alt    "P 1"
_space_group_IT_number       1

loop_
  _space_group_symop_operation_xyz
  'x, y, z'

loop_
  _atom_site_type_symbol
  _atom_site_label
  _atom_site_symmetry_multiplicity
  _atom_site_fract_x
  _atom_site_fract_y
  _atom_site_fract_z
  _atom_site_occupancy
  Al  Al1       1.0  0.00000  0.83333  0.40000  1.0000
  Al  Al2       1.0  0.00000  0.16667  0.33333  1.0000
  Al  Al3       1.0  0.00000  0.50000  0.46667  1.0000
  Al  Al4       1.0  0.50000  0.75859  0.47010  1.0000
  Al  Al5       1.0  0.50000  0.09193  0.40344  1.0000
  Al  Al6       1.0  0.50000  0.42526  0.33677  1.0000
  Al  Al7       1.0  0.50000  0.57474  0.39656  1.0000
  Al  Al8       1.0  0.50000  0.90807  0.32990  1.0000
  Al  Al9       1.0  0.50000  0.24141  0.46323  1.0000
  Cu  Cu1       1.0  0.00000  0.66667  0.33333  1.0000
  Cu  Cu2       1.0  0.00000  0.00000  0.46667  1.0000
  Cu  Cu3       1.0  0.00000  0.33333  0.40000  1.0000
  Al  Al10      1.0  0.00000  0.83333  0.60000  1.0000
  Al  Al11      1.0  0.00000  0.16667  0.53333  1.0000
  Al  Al12      1.0  0.00000  0.50000  0.66667  1.0000
  Al  Al13      1.0  0.50000  0.75859  0.67010  1.0000
  Al  Al14      1.0  0.50000  0.09193  0.60344  1.0000
  Al  Al15      1.0  0.50000  0.42526  0.53677  1.0000
  Al  Al16      1.0  0.50000  0.57474  0.59656  1.0000
  Al  Al17      1.0  0.50000  0.90807  0.52990  1.0000
  Al  Al18      1.0  0.50000  0.24141  0.66323  1.0000
  Cu  Cu4       1.0  0.00000  0.66667  0.53333  1.0000
  Cu  Cu5       1.0  0.00000  0.00000  0.66667  1.0000
  Cu  Cu6       1.0  0.00000  0.33333  0.60000  1.0000
