data_image0
_chemical_formula_structural       Si10Ni10Si10Ni10
_chemical_formula_sum              "Si20 Ni20"
_cell_length_a       7.11013
_cell_length_b       5.55735
_cell_length_c       38.5225
_cell_angle_alpha    69.5308
_cell_angle_beta     75.4453
_cell_angle_gamma    76.5313

_space_group_name_H-M_alt    "P 1"
_space_group_IT_number       1

loop_
  _space_group_symop_operation_xyz
  'x, y, z'

loop_
  _atom_site_type_symbol
  _atom_site_label
  _atom_site_symmetry_multiplicity
  _atom_site_fract_x
  _atom_site_fract_y
  _atom_site_fract_z
  _atom_site_occupancy
  Si  Si1       1.0  0.23131  0.30606  0.41456  1.0000
  Si  Si2       1.0  0.63131  0.10606  0.44790  1.0000
  Si  Si3       1.0  0.83131  0.50606  0.38123  1.0000
  Si  Si4       1.0  0.03131  0.90606  0.48123  1.0000
  Si  Si5       1.0  0.43131  0.70606  0.34790  1.0000
  Si  Si6       1.0  0.46869  0.59394  0.41877  1.0000
  Si  Si7       1.0  0.86869  0.39394  0.45210  1.0000
  Si  Si8       1.0  0.06869  0.79394  0.38544  1.0000
  Si  Si9       1.0  0.26869  0.19394  0.48544  1.0000
  Si  Si10      1.0  0.66869  0.99394  0.35210  1.0000
  Ni  Ni1       1.0  0.33151  0.00546  0.38116  1.0000
  Ni  Ni2       1.0  0.73151  0.80546  0.41450  1.0000
  Ni  Ni3       1.0  0.93151  0.20546  0.34783  1.0000
  Ni  Ni4       1.0  0.13151  0.60546  0.44783  1.0000
  Ni  Ni5       1.0  0.53151  0.40546  0.48116  1.0000
  Ni  Ni6       1.0  0.36849  0.89454  0.45217  1.0000
  Ni  Ni7       1.0  0.76849  0.69454  0.48550  1.0000
  Ni  Ni8       1.0  0.96849  0.09454  0.41884  1.0000
  Ni  Ni9       1.0  0.16849  0.49454  0.35217  1.0000
  Ni  Ni10      1.0  0.56849  0.29454  0.38550  1.0000
  Si  Si11      1.0  0.23131  0.30606  0.58123  1.0000
  Si  Si12      1.0  0.63131  0.10606  0.61456  1.0000
  Si  Si13      1.0  0.83131  0.50606  0.54790  1.0000
  Si  Si14      1.0  0.03131  0.90606  0.64790  1.0000
  Si  Si15      1.0  0.43131  0.70606  0.51456  1.0000
  Si  Si16      1.0  0.46869  0.59394  0.58544  1.0000
  Si  Si17      1.0  0.86869  0.39394  0.61877  1.0000
  Si  Si18      1.0  0.06869  0.79394  0.55210  1.0000
  Si  Si19      1.0  0.26869  0.19394  0.65210  1.0000
  Si  Si20      1.0  0.66869  0.99394  0.51877  1.0000
  Ni  Ni11      1.0  0.33151  0.00546  0.54783  1.0000
  Ni  Ni12      1.0  0.73151  0.80546  0.58116  1.0000
  Ni  Ni13      1.0  0.93151  0.20546  0.51450  1.0000
  Ni  Ni14      1.0  0.13151  0.60546  0.61450  1.0000
  Ni  Ni15      1.0  0.53151  0.40546  0.64783  1.0000
  Ni  Ni16      1.0  0.36849  0.89454  0.61884  1.0000
  Ni  Ni17      1.0  0.76849  0.69454  0.65217  1.0000
  Ni  Ni18      1.0  0.96849  0.09454  0.58550  1.0000
  Ni  Ni19      1.0  0.16849  0.49454  0.51884  1.0000
  Ni  Ni20      1.0  0.56849  0.29454  0.55217  1.0000
