data_image0
_chemical_formula_structural       Mn4Sb4Mn4Sb4
_chemical_formula_sum              "Mn8 Sb8"
_cell_length_a       5.27409
_cell_length_b       6.67518
_cell_length_c       30.8313
_cell_angle_alpha    90
_cell_angle_beta     90
_cell_angle_gamma    90

_space_group_name_H-M_alt    "P 1"
_space_group_IT_number       1

loop_
  _space_group_symop_operation_xyz
  'x, y, z'

loop_
  _atom_site_type_symbol
  _atom_site_label
  _atom_site_symmetry_multiplicity
  _atom_site_fract_x
  _atom_site_fract_y
  _atom_site_fract_z
  _atom_site_occupancy
  Mn  Mn1       1.0  0.00000  0.50000  0.40625  1.0000
  Mn  Mn2       1.0  0.00000  0.00000  0.46875  1.0000
  Mn  Mn3       1.0  0.50000  0.50000  0.40625  1.0000
  Mn  Mn4       1.0  0.50000  0.00000  0.46875  1.0000
  Sb  Sb1       1.0  0.75000  0.33333  0.46875  1.0000
  Sb  Sb2       1.0  0.75000  0.83333  0.40625  1.0000
  Sb  Sb3       1.0  0.25000  0.66667  0.46875  1.0000
  Sb  Sb4       1.0  0.25000  0.16667  0.40625  1.0000
  Mn  Mn5       1.0  0.00000  0.50000  0.53125  1.0000
  Mn  Mn6       1.0  0.00000  0.00000  0.59375  1.0000
  Mn  Mn7       1.0  0.50000  0.50000  0.53125  1.0000
  Mn  Mn8       1.0  0.50000  0.00000  0.59375  1.0000
  Sb  Sb5       1.0  0.75000  0.33333  0.59375  1.0000
  Sb  Sb6       1.0  0.75000  0.83333  0.53125  1.0000
  Sb  Sb7       1.0  0.25000  0.66667  0.59375  1.0000
  Sb  Sb8       1.0  0.25000  0.16667  0.53125  1.0000
