data_image0
_chemical_formula_structural       Si8Pt8Si8Pt8
_chemical_formula_sum              "Si16 Pt16"
_cell_length_a       5.92092
_cell_length_b       6.64121
_cell_length_c       39.8473
_cell_angle_alpha    65.9635
_cell_angle_beta     90
_cell_angle_gamma    90

_space_group_name_H-M_alt    "P 1"
_space_group_IT_number       1

loop_
  _space_group_symop_operation_xyz
  'x, y, z'

loop_
  _atom_site_type_symbol
  _atom_site_label
  _atom_site_symmetry_multiplicity
  _atom_site_fract_x
  _atom_site_fract_y
  _atom_site_fract_z
  _atom_site_occupancy
  Si  Si1       1.0  0.08372  0.71393  0.48357  1.0000
  Si  Si2       1.0  0.08372  0.21393  0.40024  1.0000
  Si  Si3       1.0  0.41628  0.46393  0.44190  1.0000
  Si  Si4       1.0  0.41628  0.96393  0.35857  1.0000
  Si  Si5       1.0  0.91628  0.28607  0.49560  1.0000
  Si  Si6       1.0  0.91628  0.78607  0.41226  1.0000
  Si  Si7       1.0  0.58372  0.53607  0.37060  1.0000
  Si  Si8       1.0  0.58372  0.03607  0.45393  1.0000
  Pt  Pt1       1.0  0.69331  0.62343  0.46849  1.0000
  Pt  Pt2       1.0  0.69331  0.12343  0.38516  1.0000
  Pt  Pt3       1.0  0.80669  0.87343  0.34349  1.0000
  Pt  Pt4       1.0  0.80669  0.37343  0.42682  1.0000
  Pt  Pt5       1.0  0.30669  0.37657  0.34401  1.0000
  Pt  Pt6       1.0  0.30669  0.87657  0.42734  1.0000
  Pt  Pt7       1.0  0.19331  0.12657  0.46901  1.0000
  Pt  Pt8       1.0  0.19331  0.62657  0.38568  1.0000
  Si  Si9       1.0  0.08372  0.71393  0.65024  1.0000
  Si  Si10      1.0  0.08372  0.21393  0.56690  1.0000
  Si  Si11      1.0  0.41628  0.46393  0.60857  1.0000
  Si  Si12      1.0  0.41628  0.96393  0.52524  1.0000
  Si  Si13      1.0  0.91628  0.28607  0.66226  1.0000
  Si  Si14      1.0  0.91628  0.78607  0.57893  1.0000
  Si  Si15      1.0  0.58372  0.53607  0.53726  1.0000
  Si  Si16      1.0  0.58372  0.03607  0.62060  1.0000
  Pt  Pt9       1.0  0.69331  0.62343  0.63516  1.0000
  Pt  Pt10      1.0  0.69331  0.12343  0.55182  1.0000
  Pt  Pt11      1.0  0.80669  0.87343  0.51016  1.0000
  Pt  Pt12      1.0  0.80669  0.37343  0.59349  1.0000
  Pt  Pt13      1.0  0.30669  0.37657  0.51068  1.0000
  Pt  Pt14      1.0  0.30669  0.87657  0.59401  1.0000
  Pt  Pt15      1.0  0.19331  0.12657  0.63568  1.0000
  Pt  Pt16      1.0  0.19331  0.62657  0.55234  1.0000
