data_image0
_chemical_formula_structural       Cr4Co4Ge4Cr4Co4Ge4
_chemical_formula_sum              "Cr8 Co8 Ge8"
_cell_length_a       6.95551
_cell_length_b       6.41196
_cell_length_c       32.1261
_cell_angle_alpha    108.249
_cell_angle_beta     90
_cell_angle_gamma    57.1538

_space_group_name_H-M_alt    "P 1"
_space_group_IT_number       1

loop_
  _space_group_symop_operation_xyz
  'x, y, z'

loop_
  _atom_site_type_symbol
  _atom_site_label
  _atom_site_symmetry_multiplicity
  _atom_site_fract_x
  _atom_site_fract_y
  _atom_site_fract_z
  _atom_site_occupancy
  Cr  Cr1       1.0  0.75000  0.50000  0.40104  1.0000
  Cr  Cr2       1.0  0.25000  0.50000  0.46354  1.0000
  Cr  Cr3       1.0  0.00000  0.00000  0.49479  1.0000
  Cr  Cr4       1.0  0.50000  0.00000  0.43229  1.0000
  Co  Co1       1.0  0.04167  0.25000  0.44792  1.0000
  Co  Co2       1.0  0.54167  0.25000  0.38542  1.0000
  Co  Co3       1.0  0.45833  0.75000  0.47917  1.0000
  Co  Co4       1.0  0.95833  0.75000  0.41667  1.0000
  Ge  Ge1       1.0  0.70833  0.25000  0.44792  1.0000
  Ge  Ge2       1.0  0.20833  0.25000  0.38542  1.0000
  Ge  Ge3       1.0  0.79167  0.75000  0.47917  1.0000
  Ge  Ge4       1.0  0.29167  0.75000  0.41667  1.0000
  Cr  Cr5       1.0  0.75000  0.50000  0.52604  1.0000
  Cr  Cr6       1.0  0.25000  0.50000  0.58854  1.0000
  Cr  Cr7       1.0  0.00000  0.00000  0.61979  1.0000
  Cr  Cr8       1.0  0.50000  0.00000  0.55729  1.0000
  Co  Co5       1.0  0.04167  0.25000  0.57292  1.0000
  Co  Co6       1.0  0.54167  0.25000  0.51042  1.0000
  Co  Co7       1.0  0.45833  0.75000  0.60417  1.0000
  Co  Co8       1.0  0.95833  0.75000  0.54167  1.0000
  Ge  Ge5       1.0  0.70833  0.25000  0.57292  1.0000
  Ge  Ge6       1.0  0.20833  0.25000  0.51042  1.0000
  Ge  Ge7       1.0  0.79167  0.75000  0.60417  1.0000
  Ge  Ge8       1.0  0.29167  0.75000  0.54167  1.0000
