data_image0
_chemical_formula_structural       Ti8Ag4Ti8Ag4Ti8Ag4
_chemical_formula_sum              "Ti24 Ag12"
_cell_length_a       2.87627
_cell_length_b       24.0484
_cell_length_c       31.6389
_cell_angle_alpha    96.8692
_cell_angle_beta     90
_cell_angle_gamma    90

_space_group_name_H-M_alt    "P 1"
_space_group_IT_number       1

loop_
  _space_group_symop_operation_xyz
  'x, y, z'

loop_
  _atom_site_type_symbol
  _atom_site_label
  _atom_site_symmetry_multiplicity
  _atom_site_fract_x
  _atom_site_fract_y
  _atom_site_fract_z
  _atom_site_occupancy
  Ti  Ti1       1.0  0.00000  0.16371  0.40503  1.0000
  Ti  Ti2       1.0  0.00000  0.66371  0.45049  1.0000
  Ti  Ti3       1.0  0.50000  0.08629  0.44345  1.0000
  Ti  Ti4       1.0  0.50000  0.58629  0.39800  1.0000
  Ti  Ti5       1.0  0.50000  0.41371  0.38231  1.0000
  Ti  Ti6       1.0  0.50000  0.91371  0.42776  1.0000
  Ti  Ti7       1.0  0.00000  0.33629  0.42072  1.0000
  Ti  Ti8       1.0  0.00000  0.83629  0.37527  1.0000
  Ag  Ag1       1.0  0.00000  0.00000  0.39015  1.0000
  Ag  Ag2       1.0  0.00000  0.50000  0.43561  1.0000
  Ag  Ag3       1.0  0.50000  0.25000  0.36742  1.0000
  Ag  Ag4       1.0  0.50000  0.75000  0.41288  1.0000
  Ti  Ti9       1.0  0.00000  0.16371  0.49594  1.0000
  Ti  Ti10      1.0  0.00000  0.66371  0.54140  1.0000
  Ti  Ti11      1.0  0.50000  0.08629  0.53436  1.0000
  Ti  Ti12      1.0  0.50000  0.58629  0.48891  1.0000
  Ti  Ti13      1.0  0.50000  0.41371  0.47322  1.0000
  Ti  Ti14      1.0  0.50000  0.91371  0.51867  1.0000
  Ti  Ti15      1.0  0.00000  0.33629  0.51163  1.0000
  Ti  Ti16      1.0  0.00000  0.83629  0.46618  1.0000
  Ag  Ag5       1.0  0.00000  0.00000  0.48106  1.0000
  Ag  Ag6       1.0  0.00000  0.50000  0.52652  1.0000
  Ag  Ag7       1.0  0.50000  0.25000  0.45833  1.0000
  Ag  Ag8       1.0  0.50000  0.75000  0.50379  1.0000
  Ti  Ti17      1.0  0.00000  0.16371  0.58685  1.0000
  Ti  Ti18      1.0  0.00000  0.66371  0.63231  1.0000
  Ti  Ti19      1.0  0.50000  0.08629  0.62527  1.0000
  Ti  Ti20      1.0  0.50000  0.58629  0.57981  1.0000
  Ti  Ti21      1.0  0.50000  0.41371  0.56412  1.0000
  Ti  Ti22      1.0  0.50000  0.91371  0.60958  1.0000
  Ti  Ti23      1.0  0.00000  0.33629  0.60254  1.0000
  Ti  Ti24      1.0  0.00000  0.83629  0.55709  1.0000
  Ag  Ag9       1.0  0.00000  0.00000  0.57197  1.0000
  Ag  Ag10      1.0  0.00000  0.50000  0.61742  1.0000
  Ag  Ag11      1.0  0.50000  0.25000  0.54924  1.0000
  Ag  Ag12      1.0  0.50000  0.75000  0.59470  1.0000
