data_image0
_chemical_formula_structural       Pt12W6
_chemical_formula_sum              "Pt12 W6"
_cell_length_a       2.76778
_cell_length_b       11.375
_cell_length_c       36.539
_cell_angle_alpha    68.8461
_cell_angle_beta     90
_cell_angle_gamma    90

_space_group_name_H-M_alt    "P 1"
_space_group_IT_number       1

loop_
  _space_group_symop_operation_xyz
  'x, y, z'

loop_
  _atom_site_type_symbol
  _atom_site_label
  _atom_site_symmetry_multiplicity
  _atom_site_fract_x
  _atom_site_fract_y
  _atom_site_fract_z
  _atom_site_occupancy
  Pt  Pt1       1.0  0.50000  0.44567  0.46589  1.0000
  Pt  Pt2       1.0  0.50000  0.11234  0.54922  1.0000
  Pt  Pt3       1.0  0.50000  0.77900  0.38256  1.0000
  Pt  Pt4       1.0  0.00000  0.22100  0.47855  1.0000
  Pt  Pt5       1.0  0.00000  0.88766  0.56189  1.0000
  Pt  Pt6       1.0  0.00000  0.55433  0.39522  1.0000
  Pt  Pt7       1.0  0.00000  0.11234  0.42422  1.0000
  Pt  Pt8       1.0  0.00000  0.77900  0.50756  1.0000
  Pt  Pt9       1.0  0.00000  0.44567  0.59089  1.0000
  Pt  Pt10      1.0  0.50000  0.22100  0.60355  1.0000
  Pt  Pt11      1.0  0.50000  0.88766  0.43689  1.0000
  Pt  Pt12      1.0  0.50000  0.55433  0.52022  1.0000
  W   W1        1.0  0.00000  0.33333  0.53472  1.0000
  W   W2        1.0  0.00000  0.00000  0.61806  1.0000
  W   W3        1.0  0.00000  0.66667  0.45139  1.0000
  W   W4        1.0  0.50000  0.33333  0.40972  1.0000
  W   W5        1.0  0.50000  0.00000  0.49306  1.0000
  W   W6        1.0  0.50000  0.66667  0.57639  1.0000
