data_image0
_chemical_formula_structural       Ga6Ir3Rh3
_chemical_formula_sum              "Ga6 Ir3 Rh3"
_cell_length_a       4.2548
_cell_length_b       4.2548
_cell_length_c       31.2662
_cell_angle_alpha    90
_cell_angle_beta     90
_cell_angle_gamma    120

_space_group_name_H-M_alt    "P 1"
_space_group_IT_number       1

loop_
  _space_group_symop_operation_xyz
  'x, y, z'

loop_
  _atom_site_type_symbol
  _atom_site_label
  _atom_site_symmetry_multiplicity
  _atom_site_fract_x
  _atom_site_fract_y
  _atom_site_fract_z
  _atom_site_occupancy
  Ga  Ga1       1.0  0.33333  0.66667  0.65278  1.0000
  Ga  Ga2       1.0  0.00000  0.00000  0.54167  1.0000
  Ga  Ga3       1.0  0.66667  0.33333  0.43056  1.0000
  Ga  Ga4       1.0  0.66667  0.33333  0.59722  1.0000
  Ga  Ga5       1.0  0.33333  0.66667  0.48611  1.0000
  Ga  Ga6       1.0  0.00000  0.00000  0.37500  1.0000
  Ir  Ir1       1.0  0.00000  0.00000  0.45833  1.0000
  Ir  Ir2       1.0  0.66667  0.33333  0.34722  1.0000
  Ir  Ir3       1.0  0.33333  0.66667  0.56944  1.0000
  Rh  Rh1       1.0  0.33333  0.66667  0.40278  1.0000
  Rh  Rh2       1.0  0.00000  0.00000  0.62500  1.0000
  Rh  Rh3       1.0  0.66667  0.33333  0.51389  1.0000
