data_image0
_chemical_formula_structural       Ti2Ga2Ti2Ga2Ti2Ga2
_chemical_formula_sum              "Ti6 Ga6"
_cell_length_a       2.77743
_cell_length_b       8.31719
_cell_length_c       30.5517
_cell_angle_alpha    109.508
_cell_angle_beta     90
_cell_angle_gamma    90

_space_group_name_H-M_alt    "P 1"
_space_group_IT_number       1

loop_
  _space_group_symop_operation_xyz
  'x, y, z'

loop_
  _atom_site_type_symbol
  _atom_site_label
  _atom_site_symmetry_multiplicity
  _atom_site_fract_x
  _atom_site_fract_y
  _atom_site_fract_z
  _atom_site_occupancy
  Ti  Ti1       1.0  0.50000  0.25000  0.42045  1.0000
  Ti  Ti2       1.0  0.50000  0.75000  0.37500  1.0000
  Ga  Ga1       1.0  0.00000  0.00000  0.44318  1.0000
  Ga  Ga2       1.0  0.00000  0.50000  0.39773  1.0000
  Ti  Ti3       1.0  0.50000  0.25000  0.51136  1.0000
  Ti  Ti4       1.0  0.50000  0.75000  0.46591  1.0000
  Ga  Ga3       1.0  0.00000  0.00000  0.53409  1.0000
  Ga  Ga4       1.0  0.00000  0.50000  0.48864  1.0000
  Ti  Ti5       1.0  0.50000  0.25000  0.60227  1.0000
  Ti  Ti6       1.0  0.50000  0.75000  0.55682  1.0000
  Ga  Ga5       1.0  0.00000  0.00000  0.62500  1.0000
  Ga  Ga6       1.0  0.00000  0.50000  0.57955  1.0000
