data_image0
_chemical_formula_structural       Re6Ir2Re6Ir2
_chemical_formula_sum              "Re12 Ir4"
_cell_length_a       3.85578
_cell_length_b       7.74336
_cell_length_c       30.8462
_cell_angle_alpha    90
_cell_angle_beta     90
_cell_angle_gamma    90

_space_group_name_H-M_alt    "P 1"
_space_group_IT_number       1

loop_
  _space_group_symop_operation_xyz
  'x, y, z'

loop_
  _atom_site_type_symbol
  _atom_site_label
  _atom_site_symmetry_multiplicity
  _atom_site_fract_x
  _atom_site_fract_y
  _atom_site_fract_z
  _atom_site_occupancy
  Re  Re1       1.0  0.00000  0.25000  0.40625  1.0000
  Re  Re2       1.0  0.50000  0.25000  0.46875  1.0000
  Re  Re3       1.0  0.50000  0.00000  0.40625  1.0000
  Re  Re4       1.0  0.50000  0.75000  0.46875  1.0000
  Re  Re5       1.0  0.00000  0.75000  0.40625  1.0000
  Re  Re6       1.0  0.00000  0.50000  0.46875  1.0000
  Ir  Ir1       1.0  0.00000  0.00000  0.46875  1.0000
  Ir  Ir2       1.0  0.50000  0.50000  0.40625  1.0000
  Re  Re7       1.0  0.00000  0.25000  0.53125  1.0000
  Re  Re8       1.0  0.50000  0.25000  0.59375  1.0000
  Re  Re9       1.0  0.50000  0.00000  0.53125  1.0000
  Re  Re10      1.0  0.50000  0.75000  0.59375  1.0000
  Re  Re11      1.0  0.00000  0.75000  0.53125  1.0000
  Re  Re12      1.0  0.00000  0.50000  0.59375  1.0000
  Ir  Ir3       1.0  0.00000  0.00000  0.59375  1.0000
  Ir  Ir4       1.0  0.50000  0.50000  0.53125  1.0000
