data_image0
_chemical_formula_structural       Ga2Ni2Ga2Ni2
_chemical_formula_sum              "Ga4 Ni4"
_cell_length_a       2.87572
_cell_length_b       4.06689
_cell_length_c       28.4682
_cell_angle_alpha    90
_cell_angle_beta     90
_cell_angle_gamma    90

_space_group_name_H-M_alt    "P 1"
_space_group_IT_number       1

loop_
  _space_group_symop_operation_xyz
  'x, y, z'

loop_
  _atom_site_type_symbol
  _atom_site_label
  _atom_site_symmetry_multiplicity
  _atom_site_fract_x
  _atom_site_fract_y
  _atom_site_fract_z
  _atom_site_occupancy
  Ga  Ga1       1.0  0.00000  0.50000  0.39286  1.0000
  Ga  Ga2       1.0  0.00000  0.00000  0.46429  1.0000
  Ni  Ni1       1.0  0.50000  0.50000  0.46429  1.0000
  Ni  Ni2       1.0  0.50000  0.00000  0.39286  1.0000
  Ga  Ga3       1.0  0.00000  0.50000  0.53571  1.0000
  Ga  Ga4       1.0  0.00000  0.00000  0.60714  1.0000
  Ni  Ni3       1.0  0.50000  0.50000  0.60714  1.0000
  Ni  Ni4       1.0  0.50000  0.00000  0.53571  1.0000
