data_image0
_chemical_formula_structural       Ca6Ga12Ca6Ga12
_chemical_formula_sum              "Ca12 Ga24"
_cell_length_a       7.26644
_cell_length_b       11.725
_cell_length_c       31.0214
_cell_angle_alpha    79.1066
_cell_angle_beta     90
_cell_angle_gamma    90

_space_group_name_H-M_alt    "P 1"
_space_group_IT_number       1

loop_
  _space_group_symop_operation_xyz
  'x, y, z'

loop_
  _atom_site_type_symbol
  _atom_site_label
  _atom_site_symmetry_multiplicity
  _atom_site_fract_x
  _atom_site_fract_y
  _atom_site_fract_z
  _atom_site_occupancy
  Ca  Ca1       1.0  0.75000  0.66667  0.44444  1.0000
  Ca  Ca2       1.0  0.75000  0.33333  0.39683  1.0000
  Ca  Ca3       1.0  0.75000  0.00000  0.49206  1.0000
  Ca  Ca4       1.0  0.25000  0.66667  0.44444  1.0000
  Ca  Ca5       1.0  0.25000  0.33333  0.39683  1.0000
  Ca  Ca6       1.0  0.25000  0.00000  0.49206  1.0000
  Ga  Ga1       1.0  0.95763  0.55556  0.38095  1.0000
  Ga  Ga2       1.0  0.95763  0.22222  0.47619  1.0000
  Ga  Ga3       1.0  0.95763  0.88889  0.42857  1.0000
  Ga  Ga4       1.0  0.45763  0.77778  0.36508  1.0000
  Ga  Ga5       1.0  0.45763  0.44444  0.46032  1.0000
  Ga  Ga6       1.0  0.45763  0.11111  0.41270  1.0000
  Ga  Ga7       1.0  0.04237  0.77778  0.36508  1.0000
  Ga  Ga8       1.0  0.04237  0.44444  0.46032  1.0000
  Ga  Ga9       1.0  0.04237  0.11111  0.41270  1.0000
  Ga  Ga10      1.0  0.54237  0.55556  0.38095  1.0000
  Ga  Ga11      1.0  0.54237  0.22222  0.47619  1.0000
  Ga  Ga12      1.0  0.54237  0.88889  0.42857  1.0000
  Ca  Ca7       1.0  0.75000  0.66667  0.58730  1.0000
  Ca  Ca8       1.0  0.75000  0.33333  0.53968  1.0000
  Ca  Ca9       1.0  0.75000  0.00000  0.63492  1.0000
  Ca  Ca10      1.0  0.25000  0.66667  0.58730  1.0000
  Ca  Ca11      1.0  0.25000  0.33333  0.53968  1.0000
  Ca  Ca12      1.0  0.25000  0.00000  0.63492  1.0000
  Ga  Ga13      1.0  0.95763  0.55556  0.52381  1.0000
  Ga  Ga14      1.0  0.95763  0.22222  0.61905  1.0000
  Ga  Ga15      1.0  0.95763  0.88889  0.57143  1.0000
  Ga  Ga16      1.0  0.45763  0.77778  0.50794  1.0000
  Ga  Ga17      1.0  0.45763  0.44444  0.60317  1.0000
  Ga  Ga18      1.0  0.45763  0.11111  0.55556  1.0000
  Ga  Ga19      1.0  0.04237  0.77778  0.50794  1.0000
  Ga  Ga20      1.0  0.04237  0.44444  0.60317  1.0000
  Ga  Ga21      1.0  0.04237  0.11111  0.55556  1.0000
  Ga  Ga22      1.0  0.54237  0.55556  0.52381  1.0000
  Ga  Ga23      1.0  0.54237  0.22222  0.61905  1.0000
  Ga  Ga24      1.0  0.54237  0.88889  0.57143  1.0000
