data_image0
_chemical_formula_structural       As8Os4As8Os4As8Os4
_chemical_formula_sum              "As24 Os12"
_cell_length_a       11.2495
_cell_length_b       6.88883
_cell_length_c       33.2182
_cell_angle_alpha    116
_cell_angle_beta     105.572
_cell_angle_gamma    83.242

_space_group_name_H-M_alt    "P 1"
_space_group_IT_number       1

loop_
  _space_group_symop_operation_xyz
  'x, y, z'

loop_
  _atom_site_type_symbol
  _atom_site_label
  _atom_site_symmetry_multiplicity
  _atom_site_fract_x
  _atom_site_fract_y
  _atom_site_fract_z
  _atom_site_occupancy
  As  As1       1.0  0.41450  0.86509  0.43072  1.0000
  As  As2       1.0  0.91450  0.86509  0.38527  1.0000
  As  As3       1.0  0.08550  0.13491  0.42534  1.0000
  As  As4       1.0  0.58550  0.13491  0.37989  1.0000
  As  As5       1.0  0.33550  0.36509  0.42354  1.0000
  As  As6       1.0  0.83550  0.36509  0.37808  1.0000
  As  As7       1.0  0.16450  0.63491  0.43252  1.0000
  As  As8       1.0  0.66450  0.63491  0.38707  1.0000
  Os  Os1       1.0  0.00000  0.50000  0.45076  1.0000
  Os  Os2       1.0  0.50000  0.50000  0.40530  1.0000
  Os  Os3       1.0  0.25000  0.00000  0.38258  1.0000
  Os  Os4       1.0  0.75000  0.00000  0.42803  1.0000
  As  As9       1.0  0.41450  0.86509  0.52163  1.0000
  As  As10      1.0  0.91450  0.86509  0.47617  1.0000
  As  As11      1.0  0.08550  0.13491  0.51625  1.0000
  As  As12      1.0  0.58550  0.13491  0.47080  1.0000
  As  As13      1.0  0.33550  0.36509  0.51445  1.0000
  As  As14      1.0  0.83550  0.36509  0.46899  1.0000
  As  As15      1.0  0.16450  0.63491  0.52343  1.0000
  As  As16      1.0  0.66450  0.63491  0.47798  1.0000
  Os  Os5       1.0  0.00000  0.50000  0.54167  1.0000
  Os  Os6       1.0  0.50000  0.50000  0.49621  1.0000
  Os  Os7       1.0  0.25000  0.00000  0.47348  1.0000
  Os  Os8       1.0  0.75000  0.00000  0.51894  1.0000
  As  As17      1.0  0.41450  0.86509  0.61254  1.0000
  As  As18      1.0  0.91450  0.86509  0.56708  1.0000
  As  As19      1.0  0.08550  0.13491  0.60716  1.0000
  As  As20      1.0  0.58550  0.13491  0.56170  1.0000
  As  As21      1.0  0.33550  0.36509  0.60536  1.0000
  As  As22      1.0  0.83550  0.36509  0.55990  1.0000
  As  As23      1.0  0.16450  0.63491  0.61434  1.0000
  As  As24      1.0  0.66450  0.63491  0.56889  1.0000
  Os  Os9       1.0  0.00000  0.50000  0.63258  1.0000
  Os  Os10      1.0  0.50000  0.50000  0.58712  1.0000
  Os  Os11      1.0  0.25000  0.00000  0.56439  1.0000
  Os  Os12      1.0  0.75000  0.00000  0.60985  1.0000
