data_image0
_chemical_formula_structural       Fe6Si12
_chemical_formula_sum              "Fe6 Si12"
_cell_length_a       5.75766
_cell_length_b       5.99729
_cell_length_c       28.0797
_cell_angle_alpha    87.5518
_cell_angle_beta     86.4502
_cell_angle_gamma    65.3769

_space_group_name_H-M_alt    "P 1"
_space_group_IT_number       1

loop_
  _space_group_symop_operation_xyz
  'x, y, z'

loop_
  _atom_site_type_symbol
  _atom_site_label
  _atom_site_symmetry_multiplicity
  _atom_site_fract_x
  _atom_site_fract_y
  _atom_site_fract_z
  _atom_site_occupancy
  Fe  Fe1       1.0  0.47917  0.47917  0.47917  1.0000
  Fe  Fe2       1.0  0.39583  0.72917  0.39583  1.0000
  Fe  Fe3       1.0  0.43750  0.10417  0.43750  1.0000
  Fe  Fe4       1.0  0.60417  0.60417  0.60417  1.0000
  Fe  Fe5       1.0  0.52083  0.85417  0.52083  1.0000
  Fe  Fe6       1.0  0.56250  0.22917  0.56250  1.0000
  Si  Si1       1.0  0.71969  0.68940  0.44697  1.0000
  Si  Si2       1.0  0.76135  0.06440  0.48864  1.0000
  Si  Si3       1.0  0.67802  0.31440  0.40530  1.0000
  Si  Si4       1.0  0.15531  0.51894  0.42803  1.0000
  Si  Si5       1.0  0.19698  0.89394  0.46970  1.0000
  Si  Si6       1.0  0.11365  0.14394  0.38636  1.0000
  Si  Si7       1.0  0.84469  0.81440  0.57197  1.0000
  Si  Si8       1.0  0.88635  0.18940  0.61364  1.0000
  Si  Si9       1.0  0.80302  0.43940  0.53030  1.0000
  Si  Si10      1.0  0.28031  0.64394  0.55303  1.0000
  Si  Si11      1.0  0.32198  0.01894  0.59470  1.0000
  Si  Si12      1.0  0.23865  0.26894  0.51136  1.0000
