data_image0
_chemical_formula_structural       Co8Ge8Co8Ge8
_chemical_formula_sum              "Co16 Ge16"
_cell_length_a       3.71158
_cell_length_b       11.7876
_cell_length_c       34.0719
_cell_angle_alpha    75.6178
_cell_angle_beta     90
_cell_angle_gamma    90

_space_group_name_H-M_alt    "P 1"
_space_group_IT_number       1

loop_
  _space_group_symop_operation_xyz
  'x, y, z'

loop_
  _atom_site_type_symbol
  _atom_site_label
  _atom_site_symmetry_multiplicity
  _atom_site_fract_x
  _atom_site_fract_y
  _atom_site_fract_z
  _atom_site_occupancy
  Co  Co1       1.0  0.00000  0.00000  0.46429  1.0000
  Co  Co2       1.0  0.50000  0.50000  0.46429  1.0000
  Co  Co3       1.0  0.50000  0.30304  0.37442  1.0000
  Co  Co4       1.0  0.00000  0.19696  0.48273  1.0000
  Co  Co5       1.0  0.50000  0.50000  0.39286  1.0000
  Co  Co6       1.0  0.00000  0.00000  0.39286  1.0000
  Co  Co7       1.0  0.00000  0.80304  0.44584  1.0000
  Co  Co8       1.0  0.50000  0.69696  0.41130  1.0000
  Ge  Ge1       1.0  0.50000  0.31684  0.44489  1.0000
  Ge  Ge2       1.0  0.00000  0.18316  0.41226  1.0000
  Ge  Ge3       1.0  0.50000  0.07005  0.49460  1.0000
  Ge  Ge4       1.0  0.00000  0.42995  0.36254  1.0000
  Ge  Ge5       1.0  0.00000  0.81684  0.37346  1.0000
  Ge  Ge6       1.0  0.50000  0.68316  0.48368  1.0000
  Ge  Ge7       1.0  0.00000  0.57005  0.42317  1.0000
  Ge  Ge8       1.0  0.50000  0.92995  0.43397  1.0000
  Co  Co9       1.0  0.00000  0.00000  0.60714  1.0000
  Co  Co10      1.0  0.50000  0.50000  0.60714  1.0000
  Co  Co11      1.0  0.50000  0.30304  0.51727  1.0000
  Co  Co12      1.0  0.00000  0.19696  0.62558  1.0000
  Co  Co13      1.0  0.50000  0.50000  0.53571  1.0000
  Co  Co14      1.0  0.00000  0.00000  0.53571  1.0000
  Co  Co15      1.0  0.00000  0.80304  0.58870  1.0000
  Co  Co16      1.0  0.50000  0.69696  0.55416  1.0000
  Ge  Ge9       1.0  0.50000  0.31684  0.58774  1.0000
  Ge  Ge10      1.0  0.00000  0.18316  0.55511  1.0000
  Ge  Ge11      1.0  0.50000  0.07005  0.63746  1.0000
  Ge  Ge12      1.0  0.00000  0.42995  0.50540  1.0000
  Ge  Ge13      1.0  0.00000  0.81684  0.51632  1.0000
  Ge  Ge14      1.0  0.50000  0.68316  0.62654  1.0000
  Ge  Ge15      1.0  0.00000  0.57005  0.56603  1.0000
  Ge  Ge16      1.0  0.50000  0.92995  0.57683  1.0000
