data_image0
_chemical_formula_structural       Fe4Sb4As4Fe4Sb4As4Fe4Sb4As4Fe4Sb4As4
_chemical_formula_sum              "Fe16 Sb16 As16"
_cell_length_a       5.48582
_cell_length_b       12.7208
_cell_length_c       33.093
_cell_angle_alpha    103.68
_cell_angle_beta     90
_cell_angle_gamma    90

_space_group_name_H-M_alt    "P 1"
_space_group_IT_number       1

loop_
  _space_group_symop_operation_xyz
  'x, y, z'

loop_
  _atom_site_type_symbol
  _atom_site_label
  _atom_site_symmetry_multiplicity
  _atom_site_fract_x
  _atom_site_fract_y
  _atom_site_fract_z
  _atom_site_occupancy
  Fe  Fe1       1.0  0.27338  0.34603  0.34445  1.0000
  Fe  Fe2       1.0  0.27338  0.84603  0.38991  1.0000
  Fe  Fe3       1.0  0.72662  0.09603  0.36718  1.0000
  Fe  Fe4       1.0  0.72662  0.59603  0.32172  1.0000
  Sb  Sb1       1.0  0.07066  0.02870  0.40651  1.0000
  Sb  Sb2       1.0  0.07066  0.52870  0.36106  1.0000
  Sb  Sb3       1.0  0.92934  0.27870  0.38379  1.0000
  Sb  Sb4       1.0  0.92934  0.77870  0.33833  1.0000
  As  As1       1.0  0.44183  0.17147  0.32858  1.0000
  As  As2       1.0  0.44183  0.67147  0.37404  1.0000
  As  As3       1.0  0.55817  0.42147  0.39676  1.0000
  As  As4       1.0  0.55817  0.92147  0.35131  1.0000
  Fe  Fe5       1.0  0.27338  0.34603  0.43536  1.0000
  Fe  Fe6       1.0  0.27338  0.84603  0.48081  1.0000
  Fe  Fe7       1.0  0.72662  0.09603  0.45809  1.0000
  Fe  Fe8       1.0  0.72662  0.59603  0.41263  1.0000
  Sb  Sb5       1.0  0.07066  0.02870  0.49742  1.0000
  Sb  Sb6       1.0  0.07066  0.52870  0.45197  1.0000
  Sb  Sb7       1.0  0.92934  0.27870  0.47469  1.0000
  Sb  Sb8       1.0  0.92934  0.77870  0.42924  1.0000
  As  As5       1.0  0.44183  0.17147  0.41949  1.0000
  As  As6       1.0  0.44183  0.67147  0.46495  1.0000
  As  As7       1.0  0.55817  0.42147  0.48767  1.0000
  As  As8       1.0  0.55817  0.92147  0.44222  1.0000
  Fe  Fe9       1.0  0.27338  0.34603  0.52627  1.0000
  Fe  Fe10      1.0  0.27338  0.84603  0.57172  1.0000
  Fe  Fe11      1.0  0.72662  0.09603  0.54900  1.0000
  Fe  Fe12      1.0  0.72662  0.59603  0.50354  1.0000
  Sb  Sb9       1.0  0.07066  0.02870  0.58833  1.0000
  Sb  Sb10      1.0  0.07066  0.52870  0.54288  1.0000
  Sb  Sb11      1.0  0.92934  0.27870  0.56560  1.0000
  Sb  Sb12      1.0  0.92934  0.77870  0.52015  1.0000
  As  As9       1.0  0.44183  0.17147  0.51040  1.0000
  As  As10      1.0  0.44183  0.67147  0.55585  1.0000
  As  As11      1.0  0.55817  0.42147  0.57858  1.0000
  As  As12      1.0  0.55817  0.92147  0.53313  1.0000
  Fe  Fe13      1.0  0.27338  0.34603  0.61718  1.0000
  Fe  Fe14      1.0  0.27338  0.84603  0.66263  1.0000
  Fe  Fe15      1.0  0.72662  0.09603  0.63991  1.0000
  Fe  Fe16      1.0  0.72662  0.59603  0.59445  1.0000
  Sb  Sb13      1.0  0.07066  0.02870  0.67924  1.0000
  Sb  Sb14      1.0  0.07066  0.52870  0.63379  1.0000
  Sb  Sb15      1.0  0.92934  0.27870  0.65651  1.0000
  Sb  Sb16      1.0  0.92934  0.77870  0.61106  1.0000
  As  As13      1.0  0.44183  0.17147  0.60131  1.0000
  As  As14      1.0  0.44183  0.67147  0.64676  1.0000
  As  As15      1.0  0.55817  0.42147  0.66949  1.0000
  As  As16      1.0  0.55817  0.92147  0.62404  1.0000
