data_image0
_chemical_formula_structural       Cr6Co6Ge6Cr6Co6Ge6
_chemical_formula_sum              "Cr12 Co12 Ge12"
_cell_length_a       4.01576
_cell_length_b       9.46004
_cell_length_c       38.4718
_cell_angle_alpha    96.8797
_cell_angle_beta     108.249
_cell_angle_gamma    64.8811

_space_group_name_H-M_alt    "P 1"
_space_group_IT_number       1

loop_
  _space_group_symop_operation_xyz
  'x, y, z'

loop_
  _atom_site_type_symbol
  _atom_site_label
  _atom_site_symmetry_multiplicity
  _atom_site_fract_x
  _atom_site_fract_y
  _atom_site_fract_z
  _atom_site_occupancy
  Cr  Cr1       1.0  0.00000  0.83333  0.43519  1.0000
  Cr  Cr2       1.0  0.00000  0.16667  0.37963  1.0000
  Cr  Cr3       1.0  0.00000  0.50000  0.49074  1.0000
  Cr  Cr4       1.0  0.00000  0.66667  0.37963  1.0000
  Cr  Cr5       1.0  0.00000  0.00000  0.49074  1.0000
  Cr  Cr6       1.0  0.00000  0.33333  0.43519  1.0000
  Co  Co1       1.0  0.66667  0.63889  0.42593  1.0000
  Co  Co2       1.0  0.66667  0.97222  0.37037  1.0000
  Co  Co3       1.0  0.66667  0.30556  0.48148  1.0000
  Co  Co4       1.0  0.33333  0.69444  0.33333  1.0000
  Co  Co5       1.0  0.33333  0.02778  0.44444  1.0000
  Co  Co6       1.0  0.33333  0.36111  0.38889  1.0000
  Ge  Ge1       1.0  0.33333  0.52778  0.44444  1.0000
  Ge  Ge2       1.0  0.33333  0.86111  0.38889  1.0000
  Ge  Ge3       1.0  0.33333  0.19444  0.33333  1.0000
  Ge  Ge4       1.0  0.66667  0.80556  0.48148  1.0000
  Ge  Ge5       1.0  0.66667  0.13889  0.42593  1.0000
  Ge  Ge6       1.0  0.66667  0.47222  0.37037  1.0000
  Cr  Cr7       1.0  0.00000  0.83333  0.60185  1.0000
  Cr  Cr8       1.0  0.00000  0.16667  0.54630  1.0000
  Cr  Cr9       1.0  0.00000  0.50000  0.65741  1.0000
  Cr  Cr10      1.0  0.00000  0.66667  0.54630  1.0000
  Cr  Cr11      1.0  0.00000  0.00000  0.65741  1.0000
  Cr  Cr12      1.0  0.00000  0.33333  0.60185  1.0000
  Co  Co7       1.0  0.66667  0.63889  0.59259  1.0000
  Co  Co8       1.0  0.66667  0.97222  0.53704  1.0000
  Co  Co9       1.0  0.66667  0.30556  0.64815  1.0000
  Co  Co10      1.0  0.33333  0.69444  0.50000  1.0000
  Co  Co11      1.0  0.33333  0.02778  0.61111  1.0000
  Co  Co12      1.0  0.33333  0.36111  0.55556  1.0000
  Ge  Ge7       1.0  0.33333  0.52778  0.61111  1.0000
  Ge  Ge8       1.0  0.33333  0.86111  0.55556  1.0000
  Ge  Ge9       1.0  0.33333  0.19444  0.50000  1.0000
  Ge  Ge10      1.0  0.66667  0.80556  0.64815  1.0000
  Ge  Ge11      1.0  0.66667  0.13889  0.59259  1.0000
  Ge  Ge12      1.0  0.66667  0.47222  0.53704  1.0000
