data_image0
_chemical_formula_structural       Ca6Cu12Sn12
_chemical_formula_sum              "Ca6 Cu12 Sn12"
_cell_length_a       5.80435
_cell_length_b       9.64885
_cell_length_c       34.0927
_cell_angle_alpha    97.5316
_cell_angle_beta     90.249
_cell_angle_gamma    99.834

_space_group_name_H-M_alt    "P 1"
_space_group_IT_number       1

loop_
  _space_group_symop_operation_xyz
  'x, y, z'

loop_
  _atom_site_type_symbol
  _atom_site_label
  _atom_site_symmetry_multiplicity
  _atom_site_fract_x
  _atom_site_fract_y
  _atom_site_fract_z
  _atom_site_occupancy
  Ca  Ca1       1.0  0.08333  0.66667  0.36111  1.0000
  Ca  Ca2       1.0  0.25000  0.33333  0.41667  1.0000
  Ca  Ca3       1.0  0.41667  0.00000  0.47222  1.0000
  Ca  Ca4       1.0  0.58333  0.66667  0.52778  1.0000
  Ca  Ca5       1.0  0.75000  0.33333  0.58333  1.0000
  Ca  Ca6       1.0  0.91667  0.00000  0.63889  1.0000
  Cu  Cu1       1.0  0.77706  0.46551  0.41685  1.0000
  Cu  Cu2       1.0  0.94372  0.13218  0.47241  1.0000
  Cu  Cu3       1.0  0.61039  0.79884  0.36129  1.0000
  Cu  Cu4       1.0  0.88961  0.86782  0.47204  1.0000
  Cu  Cu5       1.0  0.55628  0.53449  0.36093  1.0000
  Cu  Cu6       1.0  0.72294  0.20116  0.41648  1.0000
  Cu  Cu7       1.0  0.27706  0.46551  0.58352  1.0000
  Cu  Cu8       1.0  0.44372  0.13218  0.63907  1.0000
  Cu  Cu9       1.0  0.11039  0.79884  0.52796  1.0000
  Cu  Cu10      1.0  0.38961  0.86782  0.63871  1.0000
  Cu  Cu11      1.0  0.05628  0.53449  0.52759  1.0000
  Cu  Cu12      1.0  0.22294  0.20116  0.58315  1.0000
  Sn  Sn1       1.0  0.57280  0.69161  0.42892  1.0000
  Sn  Sn2       1.0  0.73947  0.35828  0.48448  1.0000
  Sn  Sn3       1.0  0.40613  0.02495  0.37337  1.0000
  Sn  Sn4       1.0  0.09387  0.64172  0.45996  1.0000
  Sn  Sn5       1.0  0.76053  0.30839  0.34885  1.0000
  Sn  Sn6       1.0  0.92720  0.97505  0.40441  1.0000
  Sn  Sn7       1.0  0.07280  0.69161  0.59559  1.0000
  Sn  Sn8       1.0  0.23947  0.35828  0.65115  1.0000
  Sn  Sn9       1.0  0.90613  0.02495  0.54004  1.0000
  Sn  Sn10      1.0  0.59387  0.64172  0.62663  1.0000
  Sn  Sn11      1.0  0.26053  0.30839  0.51552  1.0000
  Sn  Sn12      1.0  0.42720  0.97505  0.57108  1.0000
