data_image0
_chemical_formula_structural       Co6Sb12
_chemical_formula_sum              "Co6 Sb12"
_cell_length_a       3.34915
_cell_length_b       12.7671
_cell_length_c       33.6544
_cell_angle_alpha    101.503
_cell_angle_beta     90
_cell_angle_gamma    90

_space_group_name_H-M_alt    "P 1"
_space_group_IT_number       1

loop_
  _space_group_symop_operation_xyz
  'x, y, z'

loop_
  _atom_site_type_symbol
  _atom_site_label
  _atom_site_symmetry_multiplicity
  _atom_site_fract_x
  _atom_site_fract_y
  _atom_site_fract_z
  _atom_site_occupancy
  Co  Co1       1.0  0.00000  0.33333  0.50694  1.0000
  Co  Co2       1.0  0.00000  0.00000  0.59028  1.0000
  Co  Co3       1.0  0.00000  0.66667  0.42361  1.0000
  Co  Co4       1.0  0.50000  0.33333  0.38194  1.0000
  Co  Co5       1.0  0.50000  0.00000  0.46528  1.0000
  Co  Co6       1.0  0.50000  0.66667  0.54861  1.0000
  Sb  Sb1       1.0  0.00000  0.28140  0.43072  1.0000
  Sb  Sb2       1.0  0.00000  0.94807  0.51405  1.0000
  Sb  Sb3       1.0  0.00000  0.61474  0.59738  1.0000
  Sb  Sb4       1.0  0.00000  0.38526  0.58317  1.0000
  Sb  Sb5       1.0  0.00000  0.05193  0.41651  1.0000
  Sb  Sb6       1.0  0.00000  0.71860  0.49984  1.0000
  Sb  Sb7       1.0  0.50000  0.51930  0.42466  1.0000
  Sb  Sb8       1.0  0.50000  0.18597  0.50800  1.0000
  Sb  Sb9       1.0  0.50000  0.85263  0.59133  1.0000
  Sb  Sb10      1.0  0.50000  0.14737  0.58923  1.0000
  Sb  Sb11      1.0  0.50000  0.81403  0.42256  1.0000
  Sb  Sb12      1.0  0.50000  0.48070  0.50589  1.0000
