data_image0
_chemical_formula_structural       InSiPt5InSiPt5
_chemical_formula_sum              "In2 Si2 Pt10"
_cell_length_a       3.94765
_cell_length_b       7.05273
_cell_length_c       31.5812
_cell_angle_alpha    90
_cell_angle_beta     90
_cell_angle_gamma    90

_space_group_name_H-M_alt    "P 1"
_space_group_IT_number       1

loop_
  _space_group_symop_operation_xyz
  'x, y, z'

loop_
  _atom_site_type_symbol
  _atom_site_label
  _atom_site_symmetry_multiplicity
  _atom_site_fract_x
  _atom_site_fract_y
  _atom_site_fract_z
  _atom_site_occupancy
  In  In1       1.0  0.50000  0.00000  0.40179  1.0000
  Si  Si1       1.0  0.00000  0.50000  0.46429  1.0000
  Pt  Pt1       1.0  0.00000  0.00000  0.46429  1.0000
  Pt  Pt2       1.0  0.00000  0.70310  0.40179  1.0000
  Pt  Pt3       1.0  0.50000  0.70310  0.46429  1.0000
  Pt  Pt4       1.0  0.00000  0.29690  0.40179  1.0000
  Pt  Pt5       1.0  0.50000  0.29690  0.46429  1.0000
  In  In2       1.0  0.50000  0.00000  0.52679  1.0000
  Si  Si2       1.0  0.00000  0.50000  0.58929  1.0000
  Pt  Pt6       1.0  0.00000  0.00000  0.58929  1.0000
  Pt  Pt7       1.0  0.00000  0.70310  0.52679  1.0000
  Pt  Pt8       1.0  0.50000  0.70310  0.58929  1.0000
  Pt  Pt9       1.0  0.00000  0.29690  0.52679  1.0000
  Pt  Pt10      1.0  0.50000  0.29690  0.58929  1.0000
