data_image0
_chemical_formula_structural       Co12Cr12Ge12
_chemical_formula_sum              "Co12 Cr12 Ge12"
_cell_length_a       6.41196
_cell_length_b       8.56539
_cell_length_c       30.6352
_cell_angle_alpha    89.6518
_cell_angle_beta     84.824
_cell_angle_gamma    89.1682

_space_group_name_H-M_alt    "P 1"
_space_group_IT_number       1

loop_
  _space_group_symop_operation_xyz
  'x, y, z'

loop_
  _atom_site_type_symbol
  _atom_site_label
  _atom_site_symmetry_multiplicity
  _atom_site_fract_x
  _atom_site_fract_y
  _atom_site_fract_z
  _atom_site_occupancy
  Co  Co1       1.0  0.80556  0.80556  0.56944  1.0000
  Co  Co2       1.0  0.22222  0.47222  0.52778  1.0000
  Co  Co3       1.0  0.38889  0.13889  0.61111  1.0000
  Co  Co4       1.0  0.31944  0.86111  0.53472  1.0000
  Co  Co5       1.0  0.48611  0.52778  0.61806  1.0000
  Co  Co6       1.0  0.90278  0.19444  0.57639  1.0000
  Co  Co7       1.0  0.05556  0.80556  0.44444  1.0000
  Co  Co8       1.0  0.47222  0.47222  0.40278  1.0000
  Co  Co9       1.0  0.63889  0.13889  0.48611  1.0000
  Co  Co10      1.0  0.56944  0.86111  0.40972  1.0000
  Co  Co11      1.0  0.73611  0.52778  0.49306  1.0000
  Co  Co12      1.0  0.15278  0.19444  0.45139  1.0000
  Cr  Cr1       1.0  0.43750  0.83333  0.61458  1.0000
  Cr  Cr2       1.0  0.85417  0.50000  0.57292  1.0000
  Cr  Cr3       1.0  0.27083  0.16667  0.53125  1.0000
  Cr  Cr4       1.0  0.97917  0.00000  0.51042  1.0000
  Cr  Cr5       1.0  0.14583  0.66667  0.59375  1.0000
  Cr  Cr6       1.0  0.56250  0.33333  0.55208  1.0000
  Cr  Cr7       1.0  0.68750  0.83333  0.48958  1.0000
  Cr  Cr8       1.0  0.10417  0.50000  0.44792  1.0000
  Cr  Cr9       1.0  0.52083  0.16667  0.40625  1.0000
  Cr  Cr10      1.0  0.22917  0.00000  0.38542  1.0000
  Cr  Cr11      1.0  0.39583  0.66667  0.46875  1.0000
  Cr  Cr12      1.0  0.81250  0.33333  0.42708  1.0000
  Ge  Ge1       1.0  0.61111  0.02778  0.55556  1.0000
  Ge  Ge2       1.0  0.02778  0.69444  0.51389  1.0000
  Ge  Ge3       1.0  0.19444  0.36111  0.59722  1.0000
  Ge  Ge4       1.0  0.51389  0.63889  0.54861  1.0000
  Ge  Ge5       1.0  0.93056  0.30556  0.50694  1.0000
  Ge  Ge6       1.0  0.09722  0.97222  0.59028  1.0000
  Ge  Ge7       1.0  0.86111  0.02778  0.43056  1.0000
  Ge  Ge8       1.0  0.27778  0.69444  0.38889  1.0000
  Ge  Ge9       1.0  0.44444  0.36111  0.47222  1.0000
  Ge  Ge10      1.0  0.76389  0.63889  0.42361  1.0000
  Ge  Ge11      1.0  0.18056  0.30556  0.38194  1.0000
  Ge  Ge12      1.0  0.34722  0.97222  0.46528  1.0000
