data_image0
_chemical_formula_structural       Sn6Pt4
_chemical_formula_sum              "Sn6 Pt4"
_cell_length_a       4.34842
_cell_length_b       4.34842
_cell_length_c       38.9912
_cell_angle_alpha    90
_cell_angle_beta     90
_cell_angle_gamma    120

_space_group_name_H-M_alt    "P 1"
_space_group_IT_number       1

loop_
  _space_group_symop_operation_xyz
  'x, y, z'

loop_
  _atom_site_type_symbol
  _atom_site_label
  _atom_site_symmetry_multiplicity
  _atom_site_fract_x
  _atom_site_fract_y
  _atom_site_fract_z
  _atom_site_occupancy
  Sn  Sn1       1.0  0.66667  0.33333  0.62363  1.0000
  Sn  Sn2       1.0  0.33333  0.66667  0.57637  1.0000
  Sn  Sn3       1.0  0.66667  0.33333  0.40971  1.0000
  Sn  Sn4       1.0  0.33333  0.66667  0.45696  1.0000
  Sn  Sn5       1.0  0.00000  0.00000  0.35000  1.0000
  Sn  Sn6       1.0  0.00000  0.00000  0.51667  1.0000
  Pt  Pt1       1.0  0.33333  0.66667  0.64778  1.0000
  Pt  Pt2       1.0  0.66667  0.33333  0.48112  1.0000
  Pt  Pt3       1.0  0.33333  0.66667  0.38555  1.0000
  Pt  Pt4       1.0  0.66667  0.33333  0.55222  1.0000
