data_image0
_chemical_formula_structural       Pt4Rh12Pt4Rh12
_chemical_formula_sum              "Pt8 Rh24"
_cell_length_a       3.81265
_cell_length_b       15.6761
_cell_length_c       30.5012
_cell_angle_alpha    104.076
_cell_angle_beta     90
_cell_angle_gamma    90

_space_group_name_H-M_alt    "P 1"
_space_group_IT_number       1

loop_
  _space_group_symop_operation_xyz
  'x, y, z'

loop_
  _atom_site_type_symbol
  _atom_site_label
  _atom_site_symmetry_multiplicity
  _atom_site_fract_x
  _atom_site_fract_y
  _atom_site_fract_z
  _atom_site_occupancy
  Pt  Pt1       1.0  0.00000  0.00000  0.49219  1.0000
  Pt  Pt2       1.0  0.00000  0.50000  0.42969  1.0000
  Pt  Pt3       1.0  0.50000  0.25000  0.46094  1.0000
  Pt  Pt4       1.0  0.50000  0.75000  0.39844  1.0000
  Rh  Rh1       1.0  0.00000  0.12500  0.44531  1.0000
  Rh  Rh2       1.0  0.00000  0.62500  0.38281  1.0000
  Rh  Rh3       1.0  0.50000  0.12500  0.38281  1.0000
  Rh  Rh4       1.0  0.50000  0.62500  0.44531  1.0000
  Rh  Rh5       1.0  0.50000  0.00000  0.42969  1.0000
  Rh  Rh6       1.0  0.50000  0.50000  0.49219  1.0000
  Rh  Rh7       1.0  0.50000  0.37500  0.41406  1.0000
  Rh  Rh8       1.0  0.50000  0.87500  0.47656  1.0000
  Rh  Rh9       1.0  0.00000  0.37500  0.47656  1.0000
  Rh  Rh10      1.0  0.00000  0.87500  0.41406  1.0000
  Rh  Rh11      1.0  0.00000  0.25000  0.39844  1.0000
  Rh  Rh12      1.0  0.00000  0.75000  0.46094  1.0000
  Pt  Pt5       1.0  0.00000  0.00000  0.61719  1.0000
  Pt  Pt6       1.0  0.00000  0.50000  0.55469  1.0000
  Pt  Pt7       1.0  0.50000  0.25000  0.58594  1.0000
  Pt  Pt8       1.0  0.50000  0.75000  0.52344  1.0000
  Rh  Rh13      1.0  0.00000  0.12500  0.57031  1.0000
  Rh  Rh14      1.0  0.00000  0.62500  0.50781  1.0000
  Rh  Rh15      1.0  0.50000  0.12500  0.50781  1.0000
  Rh  Rh16      1.0  0.50000  0.62500  0.57031  1.0000
  Rh  Rh17      1.0  0.50000  0.00000  0.55469  1.0000
  Rh  Rh18      1.0  0.50000  0.50000  0.61719  1.0000
  Rh  Rh19      1.0  0.50000  0.37500  0.53906  1.0000
  Rh  Rh20      1.0  0.50000  0.87500  0.60156  1.0000
  Rh  Rh21      1.0  0.00000  0.37500  0.60156  1.0000
  Rh  Rh22      1.0  0.00000  0.87500  0.53906  1.0000
  Rh  Rh23      1.0  0.00000  0.25000  0.52344  1.0000
  Rh  Rh24      1.0  0.00000  0.75000  0.58594  1.0000
