data_image0
_chemical_formula_structural       Pd3Ti6
_chemical_formula_sum              "Pd3 Ti6"
_cell_length_a       3.07122
_cell_length_b       5.36419
_cell_length_c       29.3301
_cell_angle_alpha    92.0656
_cell_angle_beta     90
_cell_angle_gamma    106.635

_space_group_name_H-M_alt    "P 1"
_space_group_IT_number       1

loop_
  _space_group_symop_operation_xyz
  'x, y, z'

loop_
  _atom_site_type_symbol
  _atom_site_label
  _atom_site_symmetry_multiplicity
  _atom_site_fract_x
  _atom_site_fract_y
  _atom_site_fract_z
  _atom_site_occupancy
  Pd  Pd1       1.0  0.40000  0.80000  0.40000  1.0000
  Pd  Pd2       1.0  0.50000  0.00000  0.50000  1.0000
  Pd  Pd3       1.0  0.60000  0.20000  0.60000  1.0000
  Ti  Ti1       1.0  0.70186  0.40372  0.36646  1.0000
  Ti  Ti2       1.0  0.09814  0.19628  0.43354  1.0000
  Ti  Ti3       1.0  0.80186  0.60372  0.46646  1.0000
  Ti  Ti4       1.0  0.19814  0.39628  0.53354  1.0000
  Ti  Ti5       1.0  0.90186  0.80372  0.56646  1.0000
  Ti  Ti6       1.0  0.29814  0.59628  0.63354  1.0000
