data_image0
_chemical_formula_structural       Pd9Au3Pd9Au3
_chemical_formula_sum              "Pd18 Au6"
_cell_length_a       5.54981
_cell_length_b       5.54981
_cell_length_c       33.9855
_cell_angle_alpha    90
_cell_angle_beta     90
_cell_angle_gamma    60

_space_group_name_H-M_alt    "P 1"
_space_group_IT_number       1

loop_
  _space_group_symop_operation_xyz
  'x, y, z'

loop_
  _atom_site_type_symbol
  _atom_site_label
  _atom_site_symmetry_multiplicity
  _atom_site_fract_x
  _atom_site_fract_y
  _atom_site_fract_z
  _atom_site_occupancy
  Pd  Pd1       1.0  0.83333  0.33333  0.40000  1.0000
  Pd  Pd2       1.0  0.16667  0.66667  0.33333  1.0000
  Pd  Pd3       1.0  0.50000  0.00000  0.46667  1.0000
  Pd  Pd4       1.0  0.33333  0.83333  0.40000  1.0000
  Pd  Pd5       1.0  0.66667  0.16667  0.33333  1.0000
  Pd  Pd6       1.0  0.00000  0.50000  0.46667  1.0000
  Pd  Pd7       1.0  0.83333  0.83333  0.40000  1.0000
  Pd  Pd8       1.0  0.16667  0.16667  0.33333  1.0000
  Pd  Pd9       1.0  0.50000  0.50000  0.46667  1.0000
  Au  Au1       1.0  0.66667  0.66667  0.33333  1.0000
  Au  Au2       1.0  0.00000  0.00000  0.46667  1.0000
  Au  Au3       1.0  0.33333  0.33333  0.40000  1.0000
  Pd  Pd10      1.0  0.83333  0.33333  0.60000  1.0000
  Pd  Pd11      1.0  0.16667  0.66667  0.53333  1.0000
  Pd  Pd12      1.0  0.50000  0.00000  0.66667  1.0000
  Pd  Pd13      1.0  0.33333  0.83333  0.60000  1.0000
  Pd  Pd14      1.0  0.66667  0.16667  0.53333  1.0000
  Pd  Pd15      1.0  0.00000  0.50000  0.66667  1.0000
  Pd  Pd16      1.0  0.83333  0.83333  0.60000  1.0000
  Pd  Pd17      1.0  0.16667  0.16667  0.53333  1.0000
  Pd  Pd18      1.0  0.50000  0.50000  0.66667  1.0000
  Au  Au4       1.0  0.66667  0.66667  0.53333  1.0000
  Au  Au5       1.0  0.00000  0.00000  0.66667  1.0000
  Au  Au6       1.0  0.33333  0.33333  0.60000  1.0000
