data_image0
_chemical_formula_structural       V8H4V8H4V8H4
_chemical_formula_sum              "V24 H12"
_cell_length_a       9.22514
_cell_length_b       6.57393
_cell_length_c       31.9862
_cell_angle_alpha    90
_cell_angle_beta     71.6267
_cell_angle_gamma    44.5593

_space_group_name_H-M_alt    "P 1"
_space_group_IT_number       1

loop_
  _space_group_symop_operation_xyz
  'x, y, z'

loop_
  _atom_site_type_symbol
  _atom_site_label
  _atom_site_symmetry_multiplicity
  _atom_site_fract_x
  _atom_site_fract_y
  _atom_site_fract_z
  _atom_site_occupancy
  V   V1        1.0  0.25061  0.26839  0.37494  1.0000
  V   V2        1.0  0.75061  0.26839  0.42040  1.0000
  V   V3        1.0  0.74939  0.73161  0.42051  1.0000
  V   V4        1.0  0.24939  0.73161  0.37506  1.0000
  V   V5        1.0  0.00061  0.26839  0.44313  1.0000
  V   V6        1.0  0.50061  0.26839  0.39767  1.0000
  V   V7        1.0  0.99939  0.73161  0.44324  1.0000
  V   V8        1.0  0.49939  0.73161  0.39778  1.0000
  H   H1        1.0  0.25000  0.00000  0.37500  1.0000
  H   H2        1.0  0.75000  0.00000  0.42045  1.0000
  H   H3        1.0  0.50000  0.00000  0.39773  1.0000
  H   H4        1.0  0.00000  0.00000  0.44318  1.0000
  V   V9        1.0  0.25061  0.26839  0.46585  1.0000
  V   V10       1.0  0.75061  0.26839  0.51131  1.0000
  V   V11       1.0  0.74939  0.73161  0.51142  1.0000
  V   V12       1.0  0.24939  0.73161  0.46596  1.0000
  V   V13       1.0  0.00061  0.26839  0.53404  1.0000
  V   V14       1.0  0.50061  0.26839  0.48858  1.0000
  V   V15       1.0  0.99939  0.73161  0.53415  1.0000
  V   V16       1.0  0.49939  0.73161  0.48869  1.0000
  H   H5        1.0  0.25000  0.00000  0.46591  1.0000
  H   H6        1.0  0.75000  0.00000  0.51136  1.0000
  H   H7        1.0  0.50000  0.00000  0.48864  1.0000
  H   H8        1.0  0.00000  0.00000  0.53409  1.0000
  V   V17       1.0  0.25061  0.26839  0.55676  1.0000
  V   V18       1.0  0.75061  0.26839  0.60222  1.0000
  V   V19       1.0  0.74939  0.73161  0.60233  1.0000
  V   V20       1.0  0.24939  0.73161  0.55687  1.0000
  V   V21       1.0  0.00061  0.26839  0.62494  1.0000
  V   V22       1.0  0.50061  0.26839  0.57949  1.0000
  V   V23       1.0  0.99939  0.73161  0.62506  1.0000
  V   V24       1.0  0.49939  0.73161  0.57960  1.0000
  H   H9        1.0  0.25000  0.00000  0.55682  1.0000
  H   H10       1.0  0.75000  0.00000  0.60227  1.0000
  H   H11       1.0  0.50000  0.00000  0.57955  1.0000
  H   H12       1.0  0.00000  0.00000  0.62500  1.0000
