data_image0
_chemical_formula_structural       Ir12Rh4Ir12Rh4
_chemical_formula_sum              "Ir24 Rh8"
_cell_length_a       3.8178
_cell_length_b       15.7351
_cell_length_c       30.5424
_cell_angle_alpha    104.042
_cell_angle_beta     90
_cell_angle_gamma    90

_space_group_name_H-M_alt    "P 1"
_space_group_IT_number       1

loop_
  _space_group_symop_operation_xyz
  'x, y, z'

loop_
  _atom_site_type_symbol
  _atom_site_label
  _atom_site_symmetry_multiplicity
  _atom_site_fract_x
  _atom_site_fract_y
  _atom_site_fract_z
  _atom_site_occupancy
  Ir  Ir1       1.0  0.00000  0.12500  0.44531  1.0000
  Ir  Ir2       1.0  0.00000  0.62500  0.38281  1.0000
  Ir  Ir3       1.0  0.50000  0.12500  0.38281  1.0000
  Ir  Ir4       1.0  0.50000  0.62500  0.44531  1.0000
  Ir  Ir5       1.0  0.00000  0.25000  0.39844  1.0000
  Ir  Ir6       1.0  0.00000  0.75000  0.46094  1.0000
  Ir  Ir7       1.0  0.50000  0.37500  0.41406  1.0000
  Ir  Ir8       1.0  0.50000  0.87500  0.47656  1.0000
  Ir  Ir9       1.0  0.00000  0.37500  0.47656  1.0000
  Ir  Ir10      1.0  0.00000  0.87500  0.41406  1.0000
  Ir  Ir11      1.0  0.50000  0.00000  0.42969  1.0000
  Ir  Ir12      1.0  0.50000  0.50000  0.49219  1.0000
  Rh  Rh1       1.0  0.00000  0.00000  0.49219  1.0000
  Rh  Rh2       1.0  0.00000  0.50000  0.42969  1.0000
  Rh  Rh3       1.0  0.50000  0.25000  0.46094  1.0000
  Rh  Rh4       1.0  0.50000  0.75000  0.39844  1.0000
  Ir  Ir13      1.0  0.00000  0.12500  0.57031  1.0000
  Ir  Ir14      1.0  0.00000  0.62500  0.50781  1.0000
  Ir  Ir15      1.0  0.50000  0.12500  0.50781  1.0000
  Ir  Ir16      1.0  0.50000  0.62500  0.57031  1.0000
  Ir  Ir17      1.0  0.00000  0.25000  0.52344  1.0000
  Ir  Ir18      1.0  0.00000  0.75000  0.58594  1.0000
  Ir  Ir19      1.0  0.50000  0.37500  0.53906  1.0000
  Ir  Ir20      1.0  0.50000  0.87500  0.60156  1.0000
  Ir  Ir21      1.0  0.00000  0.37500  0.60156  1.0000
  Ir  Ir22      1.0  0.00000  0.87500  0.53906  1.0000
  Ir  Ir23      1.0  0.50000  0.00000  0.55469  1.0000
  Ir  Ir24      1.0  0.50000  0.50000  0.61719  1.0000
  Rh  Rh5       1.0  0.00000  0.00000  0.61719  1.0000
  Rh  Rh6       1.0  0.00000  0.50000  0.55469  1.0000
  Rh  Rh7       1.0  0.50000  0.25000  0.58594  1.0000
  Rh  Rh8       1.0  0.50000  0.75000  0.52344  1.0000
