data_image0
_chemical_formula_structural       Fe8Sb8As8
_chemical_formula_sum              "Fe8 Sb8 As8"
_cell_length_a       6.2566
_cell_length_b       8.62527
_cell_length_c       35.1766
_cell_angle_alpha    74.641
_cell_angle_beta     67.5139
_cell_angle_gamma    70.4012

_space_group_name_H-M_alt    "P 1"
_space_group_IT_number       1

loop_
  _space_group_symop_operation_xyz
  'x, y, z'

loop_
  _atom_site_type_symbol
  _atom_site_label
  _atom_site_symmetry_multiplicity
  _atom_site_fract_x
  _atom_site_fract_y
  _atom_site_fract_z
  _atom_site_occupancy
  Fe  Fe1       1.0  0.60901  0.02768  0.47995  1.0000
  Fe  Fe2       1.0  0.35901  0.77768  0.54245  1.0000
  Fe  Fe3       1.0  0.85901  0.27768  0.41745  1.0000
  Fe  Fe4       1.0  0.10901  0.52768  0.60495  1.0000
  Fe  Fe5       1.0  0.07394  0.53937  0.47703  1.0000
  Fe  Fe6       1.0  0.82394  0.28937  0.53953  1.0000
  Fe  Fe7       1.0  0.32394  0.78937  0.41453  1.0000
  Fe  Fe8       1.0  0.57394  0.03937  0.60203  1.0000
  Sb  Sb1       1.0  0.77429  0.76104  0.38795  1.0000
  Sb  Sb2       1.0  0.52429  0.51104  0.45045  1.0000
  Sb  Sb3       1.0  0.02429  0.01104  0.57545  1.0000
  Sb  Sb4       1.0  0.27429  0.26104  0.51295  1.0000
  Sb  Sb5       1.0  0.04330  0.67137  0.53537  1.0000
  Sb  Sb6       1.0  0.79330  0.42137  0.59787  1.0000
  Sb  Sb7       1.0  0.29330  0.92137  0.47287  1.0000
  Sb  Sb8       1.0  0.54330  0.17137  0.41037  1.0000
  As  As1       1.0  0.90990  0.81101  0.44684  1.0000
  As  As2       1.0  0.65990  0.56101  0.50934  1.0000
  As  As3       1.0  0.15990  0.06101  0.38434  1.0000
  As  As4       1.0  0.40990  0.31101  0.57184  1.0000
  As  As5       1.0  0.62216  0.90693  0.54786  1.0000
  As  As6       1.0  0.37216  0.65693  0.61036  1.0000
  As  As7       1.0  0.87216  0.15693  0.48536  1.0000
  As  As8       1.0  0.12216  0.40693  0.42286  1.0000
