data_image0
_chemical_formula_structural       Al18Pd12
_chemical_formula_sum              "Al18 Pd12"
_cell_length_a       6.65762
_cell_length_b       8.92005
_cell_length_c       31.9865
_cell_angle_alpha    90.1083
_cell_angle_beta     85.1078
_cell_angle_gamma    90.2602

_space_group_name_H-M_alt    "P 1"
_space_group_IT_number       1

loop_
  _space_group_symop_operation_xyz
  'x, y, z'

loop_
  _atom_site_type_symbol
  _atom_site_label
  _atom_site_symmetry_multiplicity
  _atom_site_fract_x
  _atom_site_fract_y
  _atom_site_fract_z
  _atom_site_occupancy
  Al  Al1       1.0  0.02500  0.00000  0.48750  1.0000
  Al  Al2       1.0  0.85833  0.66667  0.40417  1.0000
  Al  Al3       1.0  0.44167  0.33333  0.44583  1.0000
  Al  Al4       1.0  0.42905  0.67388  0.44493  1.0000
  Al  Al5       1.0  0.01238  0.34055  0.48660  1.0000
  Al  Al6       1.0  0.84571  0.00721  0.40327  1.0000
  Al  Al7       1.0  0.45429  0.99279  0.44673  1.0000
  Al  Al8       1.0  0.03762  0.65945  0.48840  1.0000
  Al  Al9       1.0  0.87095  0.32612  0.40507  1.0000
  Al  Al10      1.0  0.77500  0.00000  0.61250  1.0000
  Al  Al11      1.0  0.60833  0.66667  0.52917  1.0000
  Al  Al12      1.0  0.19167  0.33333  0.57083  1.0000
  Al  Al13      1.0  0.17905  0.67388  0.56993  1.0000
  Al  Al14      1.0  0.76238  0.34055  0.61160  1.0000
  Al  Al15      1.0  0.59571  0.00721  0.52827  1.0000
  Al  Al16      1.0  0.20429  0.99279  0.57173  1.0000
  Al  Al17      1.0  0.78762  0.65945  0.61340  1.0000
  Al  Al18      1.0  0.62095  0.32612  0.53007  1.0000
  Pd  Pd1       1.0  0.14495  0.83622  0.42464  1.0000
  Pd  Pd2       1.0  0.72829  0.50288  0.46631  1.0000
  Pd  Pd3       1.0  0.56162  0.16955  0.38297  1.0000
  Pd  Pd4       1.0  0.73838  0.83045  0.46703  1.0000
  Pd  Pd5       1.0  0.57171  0.49712  0.38369  1.0000
  Pd  Pd6       1.0  0.15505  0.16378  0.42536  1.0000
  Pd  Pd7       1.0  0.89495  0.83622  0.54964  1.0000
  Pd  Pd8       1.0  0.47829  0.50288  0.59131  1.0000
  Pd  Pd9       1.0  0.31162  0.16955  0.50797  1.0000
  Pd  Pd10      1.0  0.48838  0.83045  0.59203  1.0000
  Pd  Pd11      1.0  0.32171  0.49712  0.50869  1.0000
  Pd  Pd12      1.0  0.90505  0.16378  0.55036  1.0000
