data_image0
_chemical_formula_structural       Co8Cu4Ge8Co8Cu4Ge8
_chemical_formula_sum              "Co16 Cu8 Ge16"
_cell_length_a       4.95155
_cell_length_b       13.7332
_cell_length_c       30.5116
_cell_angle_alpha    106.124
_cell_angle_beta     90
_cell_angle_gamma    90

_space_group_name_H-M_alt    "P 1"
_space_group_IT_number       1

loop_
  _space_group_symop_operation_xyz
  'x, y, z'

loop_
  _atom_site_type_symbol
  _atom_site_label
  _atom_site_symmetry_multiplicity
  _atom_site_fract_x
  _atom_site_fract_y
  _atom_site_fract_z
  _atom_site_occupancy
  Co  Co1       1.0  0.75000  0.41976  0.45247  1.0000
  Co  Co2       1.0  0.75000  0.91976  0.38997  1.0000
  Co  Co3       1.0  0.25000  0.08024  0.41003  1.0000
  Co  Co4       1.0  0.25000  0.58024  0.47253  1.0000
  Co  Co5       1.0  0.00000  0.25000  0.43125  1.0000
  Co  Co6       1.0  0.00000  0.75000  0.49375  1.0000
  Co  Co7       1.0  0.50000  0.25000  0.43125  1.0000
  Co  Co8       1.0  0.50000  0.75000  0.49375  1.0000
  Cu  Cu1       1.0  0.50000  0.00000  0.46250  1.0000
  Cu  Cu2       1.0  0.50000  0.50000  0.40000  1.0000
  Cu  Cu3       1.0  0.00000  0.00000  0.46250  1.0000
  Cu  Cu4       1.0  0.00000  0.50000  0.40000  1.0000
  Ge  Ge1       1.0  0.75000  0.31100  0.37638  1.0000
  Ge  Ge2       1.0  0.75000  0.81100  0.43888  1.0000
  Ge  Ge3       1.0  0.25000  0.18900  0.48612  1.0000
  Ge  Ge4       1.0  0.25000  0.68900  0.42362  1.0000
  Ge  Ge5       1.0  0.75000  0.09789  0.41224  1.0000
  Ge  Ge6       1.0  0.75000  0.59789  0.47474  1.0000
  Ge  Ge7       1.0  0.25000  0.40211  0.45026  1.0000
  Ge  Ge8       1.0  0.25000  0.90211  0.38776  1.0000
  Co  Co9       1.0  0.75000  0.41976  0.57747  1.0000
  Co  Co10      1.0  0.75000  0.91976  0.51497  1.0000
  Co  Co11      1.0  0.25000  0.08024  0.53503  1.0000
  Co  Co12      1.0  0.25000  0.58024  0.59753  1.0000
  Co  Co13      1.0  0.00000  0.25000  0.55625  1.0000
  Co  Co14      1.0  0.00000  0.75000  0.61875  1.0000
  Co  Co15      1.0  0.50000  0.25000  0.55625  1.0000
  Co  Co16      1.0  0.50000  0.75000  0.61875  1.0000
  Cu  Cu5       1.0  0.50000  0.00000  0.58750  1.0000
  Cu  Cu6       1.0  0.50000  0.50000  0.52500  1.0000
  Cu  Cu7       1.0  0.00000  0.00000  0.58750  1.0000
  Cu  Cu8       1.0  0.00000  0.50000  0.52500  1.0000
  Ge  Ge9       1.0  0.75000  0.31100  0.50138  1.0000
  Ge  Ge10      1.0  0.75000  0.81100  0.56388  1.0000
  Ge  Ge11      1.0  0.25000  0.18900  0.61112  1.0000
  Ge  Ge12      1.0  0.25000  0.68900  0.54862  1.0000
  Ge  Ge13      1.0  0.75000  0.09789  0.53724  1.0000
  Ge  Ge14      1.0  0.75000  0.59789  0.59974  1.0000
  Ge  Ge15      1.0  0.25000  0.40211  0.57526  1.0000
  Ge  Ge16      1.0  0.25000  0.90211  0.51276  1.0000
