data_image0
_chemical_formula_structural       Co8Ge8Co8Ge8Co8Ge8
_chemical_formula_sum              "Co24 Ge24"
_cell_length_a       4.86742
_cell_length_b       13.7565
_cell_length_c       37.1158
_cell_angle_alpha    57.3427
_cell_angle_beta     90
_cell_angle_gamma    81.8949

_space_group_name_H-M_alt    "P 1"
_space_group_IT_number       1

loop_
  _space_group_symop_operation_xyz
  'x, y, z'

loop_
  _atom_site_type_symbol
  _atom_site_label
  _atom_site_symmetry_multiplicity
  _atom_site_fract_x
  _atom_site_fract_y
  _atom_site_fract_z
  _atom_site_occupancy
  Co  Co1       1.0  0.00000  0.00000  0.42500  1.0000
  Co  Co2       1.0  0.50000  0.50000  0.37500  1.0000
  Co  Co3       1.0  0.67395  0.69696  0.43561  1.0000
  Co  Co4       1.0  0.32605  0.80304  0.36439  1.0000
  Co  Co5       1.0  0.00000  0.50000  0.37500  1.0000
  Co  Co6       1.0  0.50000  0.00000  0.42500  1.0000
  Co  Co7       1.0  0.67395  0.19696  0.38561  1.0000
  Co  Co8       1.0  0.32605  0.30304  0.41439  1.0000
  Ge  Ge1       1.0  0.18105  0.68316  0.43837  1.0000
  Ge  Ge2       1.0  0.81895  0.81684  0.36163  1.0000
  Ge  Ge3       1.0  0.28226  0.92995  0.38901  1.0000
  Ge  Ge4       1.0  0.71774  0.57005  0.41099  1.0000
  Ge  Ge5       1.0  0.18105  0.18316  0.38837  1.0000
  Ge  Ge6       1.0  0.81895  0.31684  0.41163  1.0000
  Ge  Ge7       1.0  0.28226  0.42995  0.43901  1.0000
  Ge  Ge8       1.0  0.71774  0.07005  0.36099  1.0000
  Co  Co9       1.0  0.00000  0.00000  0.52500  1.0000
  Co  Co10      1.0  0.50000  0.50000  0.47500  1.0000
  Co  Co11      1.0  0.67395  0.69696  0.53561  1.0000
  Co  Co12      1.0  0.32605  0.80304  0.46439  1.0000
  Co  Co13      1.0  0.00000  0.50000  0.47500  1.0000
  Co  Co14      1.0  0.50000  0.00000  0.52500  1.0000
  Co  Co15      1.0  0.67395  0.19696  0.48561  1.0000
  Co  Co16      1.0  0.32605  0.30304  0.51439  1.0000
  Ge  Ge9       1.0  0.18105  0.68316  0.53837  1.0000
  Ge  Ge10      1.0  0.81895  0.81684  0.46163  1.0000
  Ge  Ge11      1.0  0.28226  0.92995  0.48901  1.0000
  Ge  Ge12      1.0  0.71774  0.57005  0.51099  1.0000
  Ge  Ge13      1.0  0.18105  0.18316  0.48837  1.0000
  Ge  Ge14      1.0  0.81895  0.31684  0.51163  1.0000
  Ge  Ge15      1.0  0.28226  0.42995  0.53901  1.0000
  Ge  Ge16      1.0  0.71774  0.07005  0.46099  1.0000
  Co  Co17      1.0  0.00000  0.00000  0.62500  1.0000
  Co  Co18      1.0  0.50000  0.50000  0.57500  1.0000
  Co  Co19      1.0  0.67395  0.69696  0.63561  1.0000
  Co  Co20      1.0  0.32605  0.80304  0.56439  1.0000
  Co  Co21      1.0  0.00000  0.50000  0.57500  1.0000
  Co  Co22      1.0  0.50000  0.00000  0.62500  1.0000
  Co  Co23      1.0  0.67395  0.19696  0.58561  1.0000
  Co  Co24      1.0  0.32605  0.30304  0.61439  1.0000
  Ge  Ge17      1.0  0.18105  0.68316  0.63837  1.0000
  Ge  Ge18      1.0  0.81895  0.81684  0.56163  1.0000
  Ge  Ge19      1.0  0.28226  0.92995  0.58901  1.0000
  Ge  Ge20      1.0  0.71774  0.57005  0.61099  1.0000
  Ge  Ge21      1.0  0.18105  0.18316  0.58837  1.0000
  Ge  Ge22      1.0  0.81895  0.31684  0.61163  1.0000
  Ge  Ge23      1.0  0.28226  0.42995  0.63901  1.0000
  Ge  Ge24      1.0  0.71774  0.07005  0.56099  1.0000
