data_image0
_chemical_formula_structural       V12Ir4V12Ir4
_chemical_formula_sum              "V24 Ir8"
_cell_length_a       4.71204
_cell_length_b       6.66383
_cell_length_c       39.983
_cell_angle_alpha    90
_cell_angle_beta     90
_cell_angle_gamma    90

_space_group_name_H-M_alt    "P 1"
_space_group_IT_number       1

loop_
  _space_group_symop_operation_xyz
  'x, y, z'

loop_
  _atom_site_type_symbol
  _atom_site_label
  _atom_site_symmetry_multiplicity
  _atom_site_fract_x
  _atom_site_fract_y
  _atom_site_fract_z
  _atom_site_occupancy
  V   V1        1.0  0.00000  0.62500  0.48958  1.0000
  V   V2        1.0  0.00000  0.12500  0.40625  1.0000
  V   V3        1.0  0.00000  0.37500  0.44792  1.0000
  V   V4        1.0  0.00000  0.87500  0.36458  1.0000
  V   V5        1.0  0.50000  0.62500  0.36458  1.0000
  V   V6        1.0  0.50000  0.12500  0.44792  1.0000
  V   V7        1.0  0.50000  0.87500  0.48958  1.0000
  V   V8        1.0  0.50000  0.37500  0.40625  1.0000
  V   V9        1.0  0.75000  0.25000  0.34375  1.0000
  V   V10       1.0  0.75000  0.75000  0.42708  1.0000
  V   V11       1.0  0.25000  0.25000  0.34375  1.0000
  V   V12       1.0  0.25000  0.75000  0.42708  1.0000
  Ir  Ir1       1.0  0.50000  0.50000  0.46875  1.0000
  Ir  Ir2       1.0  0.50000  0.00000  0.38542  1.0000
  Ir  Ir3       1.0  0.00000  0.50000  0.38542  1.0000
  Ir  Ir4       1.0  0.00000  0.00000  0.46875  1.0000
  V   V13       1.0  0.00000  0.62500  0.65625  1.0000
  V   V14       1.0  0.00000  0.12500  0.57292  1.0000
  V   V15       1.0  0.00000  0.37500  0.61458  1.0000
  V   V16       1.0  0.00000  0.87500  0.53125  1.0000
  V   V17       1.0  0.50000  0.62500  0.53125  1.0000
  V   V18       1.0  0.50000  0.12500  0.61458  1.0000
  V   V19       1.0  0.50000  0.87500  0.65625  1.0000
  V   V20       1.0  0.50000  0.37500  0.57292  1.0000
  V   V21       1.0  0.75000  0.25000  0.51042  1.0000
  V   V22       1.0  0.75000  0.75000  0.59375  1.0000
  V   V23       1.0  0.25000  0.25000  0.51042  1.0000
  V   V24       1.0  0.25000  0.75000  0.59375  1.0000
  Ir  Ir5       1.0  0.50000  0.50000  0.63542  1.0000
  Ir  Ir6       1.0  0.50000  0.00000  0.55208  1.0000
  Ir  Ir7       1.0  0.00000  0.50000  0.55208  1.0000
  Ir  Ir8       1.0  0.00000  0.00000  0.63542  1.0000
