data_image0
_chemical_formula_structural       Mn2Al2Mn2Al2
_chemical_formula_sum              "Mn4 Al4"
_cell_length_a       3.40039
_cell_length_b       3.78269
_cell_length_c       30.2615
_cell_angle_alpha    90
_cell_angle_beta     90
_cell_angle_gamma    90

_space_group_name_H-M_alt    "P 1"
_space_group_IT_number       1

loop_
  _space_group_symop_operation_xyz
  'x, y, z'

loop_
  _atom_site_type_symbol
  _atom_site_label
  _atom_site_symmetry_multiplicity
  _atom_site_fract_x
  _atom_site_fract_y
  _atom_site_fract_z
  _atom_site_occupancy
  Mn  Mn1       1.0  0.50000  0.50000  0.46875  1.0000
  Mn  Mn2       1.0  0.50000  0.00000  0.40625  1.0000
  Al  Al1       1.0  0.00000  0.50000  0.40625  1.0000
  Al  Al2       1.0  0.00000  0.00000  0.46875  1.0000
  Mn  Mn3       1.0  0.50000  0.50000  0.59375  1.0000
  Mn  Mn4       1.0  0.50000  0.00000  0.53125  1.0000
  Al  Al3       1.0  0.00000  0.50000  0.53125  1.0000
  Al  Al4       1.0  0.00000  0.00000  0.59375  1.0000
