data_image0
_chemical_formula_structural       Zn12Pt4Zn12Pt4
_chemical_formula_sum              "Zn24 Pt8"
_cell_length_a       3.72051
_cell_length_b       16.3793
_cell_length_c       29.7641
_cell_angle_alpha    103.129
_cell_angle_beta     90
_cell_angle_gamma    90

_space_group_name_H-M_alt    "P 1"
_space_group_IT_number       1

loop_
  _space_group_symop_operation_xyz
  'x, y, z'

loop_
  _atom_site_type_symbol
  _atom_site_label
  _atom_site_symmetry_multiplicity
  _atom_site_fract_x
  _atom_site_fract_y
  _atom_site_fract_z
  _atom_site_occupancy
  Zn  Zn1       1.0  0.00000  0.12500  0.44531  1.0000
  Zn  Zn2       1.0  0.00000  0.62500  0.38281  1.0000
  Zn  Zn3       1.0  0.50000  0.12500  0.38281  1.0000
  Zn  Zn4       1.0  0.50000  0.62500  0.44531  1.0000
  Zn  Zn5       1.0  0.00000  0.25000  0.39844  1.0000
  Zn  Zn6       1.0  0.00000  0.75000  0.46094  1.0000
  Zn  Zn7       1.0  0.50000  0.37500  0.41406  1.0000
  Zn  Zn8       1.0  0.50000  0.87500  0.47656  1.0000
  Zn  Zn9       1.0  0.00000  0.37500  0.47656  1.0000
  Zn  Zn10      1.0  0.00000  0.87500  0.41406  1.0000
  Zn  Zn11      1.0  0.50000  0.00000  0.42969  1.0000
  Zn  Zn12      1.0  0.50000  0.50000  0.49219  1.0000
  Pt  Pt1       1.0  0.00000  0.00000  0.49219  1.0000
  Pt  Pt2       1.0  0.00000  0.50000  0.42969  1.0000
  Pt  Pt3       1.0  0.50000  0.25000  0.46094  1.0000
  Pt  Pt4       1.0  0.50000  0.75000  0.39844  1.0000
  Zn  Zn13      1.0  0.00000  0.12500  0.57031  1.0000
  Zn  Zn14      1.0  0.00000  0.62500  0.50781  1.0000
  Zn  Zn15      1.0  0.50000  0.12500  0.50781  1.0000
  Zn  Zn16      1.0  0.50000  0.62500  0.57031  1.0000
  Zn  Zn17      1.0  0.00000  0.25000  0.52344  1.0000
  Zn  Zn18      1.0  0.00000  0.75000  0.58594  1.0000
  Zn  Zn19      1.0  0.50000  0.37500  0.53906  1.0000
  Zn  Zn20      1.0  0.50000  0.87500  0.60156  1.0000
  Zn  Zn21      1.0  0.00000  0.37500  0.60156  1.0000
  Zn  Zn22      1.0  0.00000  0.87500  0.53906  1.0000
  Zn  Zn23      1.0  0.50000  0.00000  0.55469  1.0000
  Zn  Zn24      1.0  0.50000  0.50000  0.61719  1.0000
  Pt  Pt5       1.0  0.00000  0.00000  0.61719  1.0000
  Pt  Pt6       1.0  0.00000  0.50000  0.55469  1.0000
  Pt  Pt7       1.0  0.50000  0.25000  0.58594  1.0000
  Pt  Pt8       1.0  0.50000  0.75000  0.52344  1.0000
