data_image0
_chemical_formula_structural       Al8Ru4Al8Ru4Al8Ru4Al8Ru4
_chemical_formula_sum              "Al32 Ru16"
_cell_length_a       3.12796
_cell_length_b       17.0648
_cell_length_c       34.4076
_cell_angle_alpha    100.562
_cell_angle_beta     90
_cell_angle_gamma    90

_space_group_name_H-M_alt    "P 1"
_space_group_IT_number       1

loop_
  _space_group_symop_operation_xyz
  'x, y, z'

loop_
  _atom_site_type_symbol
  _atom_site_label
  _atom_site_symmetry_multiplicity
  _atom_site_fract_x
  _atom_site_fract_y
  _atom_site_fract_z
  _atom_site_occupancy
  Al  Al1       1.0  0.50000  0.07991  0.39742  1.0000
  Al  Al2       1.0  0.50000  0.57991  0.35196  1.0000
  Al  Al3       1.0  0.00000  0.17009  0.36016  1.0000
  Al  Al4       1.0  0.00000  0.67009  0.40561  1.0000
  Al  Al5       1.0  0.00000  0.32991  0.37469  1.0000
  Al  Al6       1.0  0.00000  0.82991  0.32923  1.0000
  Al  Al7       1.0  0.50000  0.42009  0.33743  1.0000
  Al  Al8       1.0  0.50000  0.92009  0.38289  1.0000
  Ru  Ru1       1.0  0.00000  0.00000  0.34470  1.0000
  Ru  Ru2       1.0  0.00000  0.50000  0.39015  1.0000
  Ru  Ru3       1.0  0.50000  0.25000  0.32197  1.0000
  Ru  Ru4       1.0  0.50000  0.75000  0.36742  1.0000
  Al  Al9       1.0  0.50000  0.07991  0.48833  1.0000
  Al  Al10      1.0  0.50000  0.57991  0.44287  1.0000
  Al  Al11      1.0  0.00000  0.17009  0.45107  1.0000
  Al  Al12      1.0  0.00000  0.67009  0.49652  1.0000
  Al  Al13      1.0  0.00000  0.32991  0.46560  1.0000
  Al  Al14      1.0  0.00000  0.82991  0.42014  1.0000
  Al  Al15      1.0  0.50000  0.42009  0.42834  1.0000
  Al  Al16      1.0  0.50000  0.92009  0.47380  1.0000
  Ru  Ru5       1.0  0.00000  0.00000  0.43561  1.0000
  Ru  Ru6       1.0  0.00000  0.50000  0.48106  1.0000
  Ru  Ru7       1.0  0.50000  0.25000  0.41288  1.0000
  Ru  Ru8       1.0  0.50000  0.75000  0.45833  1.0000
  Al  Al17      1.0  0.50000  0.07991  0.57923  1.0000
  Al  Al18      1.0  0.50000  0.57991  0.53378  1.0000
  Al  Al19      1.0  0.00000  0.17009  0.54198  1.0000
  Al  Al20      1.0  0.00000  0.67009  0.58743  1.0000
  Al  Al21      1.0  0.00000  0.32991  0.55651  1.0000
  Al  Al22      1.0  0.00000  0.82991  0.51105  1.0000
  Al  Al23      1.0  0.50000  0.42009  0.51925  1.0000
  Al  Al24      1.0  0.50000  0.92009  0.56471  1.0000
  Ru  Ru9       1.0  0.00000  0.00000  0.52652  1.0000
  Ru  Ru10      1.0  0.00000  0.50000  0.57197  1.0000
  Ru  Ru11      1.0  0.50000  0.25000  0.50379  1.0000
  Ru  Ru12      1.0  0.50000  0.75000  0.54924  1.0000
  Al  Al25      1.0  0.50000  0.07991  0.67014  1.0000
  Al  Al26      1.0  0.50000  0.57991  0.62469  1.0000
  Al  Al27      1.0  0.00000  0.17009  0.63289  1.0000
  Al  Al28      1.0  0.00000  0.67009  0.67834  1.0000
  Al  Al29      1.0  0.00000  0.32991  0.64742  1.0000
  Al  Al30      1.0  0.00000  0.82991  0.60196  1.0000
  Al  Al31      1.0  0.50000  0.42009  0.61016  1.0000
  Al  Al32      1.0  0.50000  0.92009  0.65561  1.0000
  Ru  Ru13      1.0  0.00000  0.00000  0.61742  1.0000
  Ru  Ru14      1.0  0.00000  0.50000  0.66288  1.0000
  Ru  Ru15      1.0  0.50000  0.25000  0.59470  1.0000
  Ru  Ru16      1.0  0.50000  0.75000  0.64015  1.0000
