data_image0
_chemical_formula_structural       Na12Zn2Sn4Na12Zn2Sn4
_chemical_formula_sum              "Na24 Zn4 Sn8"
_cell_length_a       9.98851
_cell_length_b       9.28147
_cell_length_c       32.5413
_cell_angle_alpha    90
_cell_angle_beta     90
_cell_angle_gamma    97.8792

_space_group_name_H-M_alt    "P 1"
_space_group_IT_number       1

loop_
  _space_group_symop_operation_xyz
  'x, y, z'

loop_
  _atom_site_type_symbol
  _atom_site_label
  _atom_site_symmetry_multiplicity
  _atom_site_fract_x
  _atom_site_fract_y
  _atom_site_fract_z
  _atom_site_occupancy
  Na  Na1       1.0  0.47027  0.27537  0.45833  1.0000
  Na  Na2       1.0  0.17353  0.59089  0.45833  1.0000
  Na  Na3       1.0  0.29291  0.92983  0.45833  1.0000
  Na  Na4       1.0  0.32647  0.40911  0.37500  1.0000
  Na  Na5       1.0  0.02973  0.72463  0.37500  1.0000
  Na  Na6       1.0  0.20709  0.07017  0.37500  1.0000
  Na  Na7       1.0  0.97027  0.27537  0.37500  1.0000
  Na  Na8       1.0  0.67353  0.59089  0.37500  1.0000
  Na  Na9       1.0  0.79291  0.92983  0.37500  1.0000
  Na  Na10      1.0  0.82647  0.40911  0.45833  1.0000
  Na  Na11      1.0  0.52973  0.72463  0.45833  1.0000
  Na  Na12      1.0  0.70709  0.07017  0.45833  1.0000
  Zn  Zn1       1.0  0.00000  0.00000  0.45833  1.0000
  Zn  Zn2       1.0  0.50000  0.00000  0.37500  1.0000
  Sn  Sn1       1.0  0.14561  0.25063  0.45833  1.0000
  Sn  Sn2       1.0  0.35439  0.74937  0.37500  1.0000
  Sn  Sn3       1.0  0.64561  0.25063  0.37500  1.0000
  Sn  Sn4       1.0  0.85439  0.74937  0.45833  1.0000
  Na  Na13      1.0  0.47027  0.27537  0.62500  1.0000
  Na  Na14      1.0  0.17353  0.59089  0.62500  1.0000
  Na  Na15      1.0  0.29291  0.92983  0.62500  1.0000
  Na  Na16      1.0  0.32647  0.40911  0.54167  1.0000
  Na  Na17      1.0  0.02973  0.72463  0.54167  1.0000
  Na  Na18      1.0  0.20709  0.07017  0.54167  1.0000
  Na  Na19      1.0  0.97027  0.27537  0.54167  1.0000
  Na  Na20      1.0  0.67353  0.59089  0.54167  1.0000
  Na  Na21      1.0  0.79291  0.92983  0.54167  1.0000
  Na  Na22      1.0  0.82647  0.40911  0.62500  1.0000
  Na  Na23      1.0  0.52973  0.72463  0.62500  1.0000
  Na  Na24      1.0  0.70709  0.07017  0.62500  1.0000
  Zn  Zn3       1.0  0.00000  0.00000  0.62500  1.0000
  Zn  Zn4       1.0  0.50000  0.00000  0.54167  1.0000
  Sn  Sn5       1.0  0.14561  0.25063  0.62500  1.0000
  Sn  Sn6       1.0  0.35439  0.74937  0.54167  1.0000
  Sn  Sn7       1.0  0.64561  0.25063  0.54167  1.0000
  Sn  Sn8       1.0  0.85439  0.74937  0.62500  1.0000
