data_image0
_chemical_formula_structural       MnIrMnIrMnIr
_chemical_formula_sum              "Mn3 Ir3"
_cell_length_a       2.61438
_cell_length_b       3.59761
_cell_length_c       28.7582
_cell_angle_alpha    90
_cell_angle_beta     90
_cell_angle_gamma    90

_space_group_name_H-M_alt    "P 1"
_space_group_IT_number       1

loop_
  _space_group_symop_operation_xyz
  'x, y, z'

loop_
  _atom_site_type_symbol
  _atom_site_label
  _atom_site_symmetry_multiplicity
  _atom_site_fract_x
  _atom_site_fract_y
  _atom_site_fract_z
  _atom_site_occupancy
  Mn  Mn1       1.0  0.50000  0.50000  0.38636  1.0000
  Ir  Ir1       1.0  0.00000  0.00000  0.43182  1.0000
  Mn  Mn2       1.0  0.50000  0.50000  0.47727  1.0000
  Ir  Ir2       1.0  0.00000  0.00000  0.52273  1.0000
  Mn  Mn3       1.0  0.50000  0.50000  0.56818  1.0000
  Ir  Ir3       1.0  0.00000  0.00000  0.61364  1.0000
