data_image0
_chemical_formula_structural       Ti8Pd4Ti8Pd4Ti8Pd4
_chemical_formula_sum              "Ti24 Pd12"
_cell_length_a       3.07122
_cell_length_b       19.8586
_cell_length_c       30.7122
_cell_angle_alpha    98.8967
_cell_angle_beta     90
_cell_angle_gamma    90

_space_group_name_H-M_alt    "P 1"
_space_group_IT_number       1

loop_
  _space_group_symop_operation_xyz
  'x, y, z'

loop_
  _atom_site_type_symbol
  _atom_site_label
  _atom_site_symmetry_multiplicity
  _atom_site_fract_x
  _atom_site_fract_y
  _atom_site_fract_z
  _atom_site_occupancy
  Ti  Ti1       1.0  0.50000  0.08230  0.42906  1.0000
  Ti  Ti2       1.0  0.50000  0.58230  0.37906  1.0000
  Ti  Ti3       1.0  0.00000  0.16770  0.38760  1.0000
  Ti  Ti4       1.0  0.00000  0.66770  0.43760  1.0000
  Ti  Ti5       1.0  0.00000  0.33230  0.40406  1.0000
  Ti  Ti6       1.0  0.00000  0.83230  0.35406  1.0000
  Ti  Ti7       1.0  0.50000  0.41770  0.36260  1.0000
  Ti  Ti8       1.0  0.50000  0.91770  0.41260  1.0000
  Pd  Pd1       1.0  0.00000  0.00000  0.37083  1.0000
  Pd  Pd2       1.0  0.00000  0.50000  0.42083  1.0000
  Pd  Pd3       1.0  0.50000  0.25000  0.44583  1.0000
  Pd  Pd4       1.0  0.50000  0.75000  0.39583  1.0000
  Ti  Ti9       1.0  0.50000  0.08230  0.52906  1.0000
  Ti  Ti10      1.0  0.50000  0.58230  0.47906  1.0000
  Ti  Ti11      1.0  0.00000  0.16770  0.48760  1.0000
  Ti  Ti12      1.0  0.00000  0.66770  0.53760  1.0000
  Ti  Ti13      1.0  0.00000  0.33230  0.50406  1.0000
  Ti  Ti14      1.0  0.00000  0.83230  0.45406  1.0000
  Ti  Ti15      1.0  0.50000  0.41770  0.46260  1.0000
  Ti  Ti16      1.0  0.50000  0.91770  0.51260  1.0000
  Pd  Pd5       1.0  0.00000  0.00000  0.47083  1.0000
  Pd  Pd6       1.0  0.00000  0.50000  0.52083  1.0000
  Pd  Pd7       1.0  0.50000  0.25000  0.54583  1.0000
  Pd  Pd8       1.0  0.50000  0.75000  0.49583  1.0000
  Ti  Ti17      1.0  0.50000  0.08230  0.62906  1.0000
  Ti  Ti18      1.0  0.50000  0.58230  0.57906  1.0000
  Ti  Ti19      1.0  0.00000  0.16770  0.58760  1.0000
  Ti  Ti20      1.0  0.00000  0.66770  0.63760  1.0000
  Ti  Ti21      1.0  0.00000  0.33230  0.60406  1.0000
  Ti  Ti22      1.0  0.00000  0.83230  0.55406  1.0000
  Ti  Ti23      1.0  0.50000  0.41770  0.56260  1.0000
  Ti  Ti24      1.0  0.50000  0.91770  0.61260  1.0000
  Pd  Pd9       1.0  0.00000  0.00000  0.57083  1.0000
  Pd  Pd10      1.0  0.00000  0.50000  0.62083  1.0000
  Pd  Pd11      1.0  0.50000  0.25000  0.64583  1.0000
  Pd  Pd12      1.0  0.50000  0.75000  0.59583  1.0000
