data_image0
_chemical_formula_structural       In2Si2Pt10In2Si2Pt10
_chemical_formula_sum              "In4 Si4 Pt20"
_cell_length_a       5.58283
_cell_length_b       8.08238
_cell_length_c       33.497
_cell_angle_alpha    110.204
_cell_angle_beta     90
_cell_angle_gamma    69.7956

_space_group_name_H-M_alt    "P 1"
_space_group_IT_number       1

loop_
  _space_group_symop_operation_xyz
  'x, y, z'

loop_
  _atom_site_type_symbol
  _atom_site_label
  _atom_site_symmetry_multiplicity
  _atom_site_fract_x
  _atom_site_fract_y
  _atom_site_fract_z
  _atom_site_occupancy
  In  In1       1.0  0.00000  0.00000  0.40476  1.0000
  In  In2       1.0  0.50000  0.00000  0.48810  1.0000
  Si  Si1       1.0  0.75000  0.50000  0.36310  1.0000
  Si  Si2       1.0  0.25000  0.50000  0.44643  1.0000
  Pt  Pt1       1.0  0.00000  0.00000  0.48810  1.0000
  Pt  Pt2       1.0  0.50000  0.00000  0.40476  1.0000
  Pt  Pt3       1.0  0.39845  0.70310  0.42169  1.0000
  Pt  Pt4       1.0  0.89845  0.70310  0.33835  1.0000
  Pt  Pt5       1.0  0.89845  0.70310  0.42169  1.0000
  Pt  Pt6       1.0  0.39845  0.70310  0.33835  1.0000
  Pt  Pt7       1.0  0.60155  0.29690  0.38784  1.0000
  Pt  Pt8       1.0  0.10155  0.29690  0.47117  1.0000
  Pt  Pt9       1.0  0.10155  0.29690  0.38784  1.0000
  Pt  Pt10      1.0  0.60155  0.29690  0.47117  1.0000
  In  In3       1.0  0.00000  0.00000  0.57143  1.0000
  In  In4       1.0  0.50000  0.00000  0.65476  1.0000
  Si  Si3       1.0  0.75000  0.50000  0.52976  1.0000
  Si  Si4       1.0  0.25000  0.50000  0.61310  1.0000
  Pt  Pt11      1.0  0.00000  0.00000  0.65476  1.0000
  Pt  Pt12      1.0  0.50000  0.00000  0.57143  1.0000
  Pt  Pt13      1.0  0.39845  0.70310  0.58835  1.0000
  Pt  Pt14      1.0  0.89845  0.70310  0.50502  1.0000
  Pt  Pt15      1.0  0.89845  0.70310  0.58835  1.0000
  Pt  Pt16      1.0  0.39845  0.70310  0.50502  1.0000
  Pt  Pt17      1.0  0.60155  0.29690  0.55450  1.0000
  Pt  Pt18      1.0  0.10155  0.29690  0.63784  1.0000
  Pt  Pt19      1.0  0.10155  0.29690  0.55450  1.0000
  Pt  Pt20      1.0  0.60155  0.29690  0.63784  1.0000
