data_image0
_chemical_formula_structural       Fe4Si8Fe4Si8
_chemical_formula_sum              "Fe8 Si16"
_cell_length_a       3.79302
_cell_length_b       10.5367
_cell_length_c       30.3441
_cell_angle_alpha    100.369
_cell_angle_beta     90
_cell_angle_gamma    79.6308

_space_group_name_H-M_alt    "P 1"
_space_group_IT_number       1

loop_
  _space_group_symop_operation_xyz
  'x, y, z'

loop_
  _atom_site_type_symbol
  _atom_site_label
  _atom_site_symmetry_multiplicity
  _atom_site_fract_x
  _atom_site_fract_y
  _atom_site_fract_z
  _atom_site_occupancy
  Fe  Fe1       1.0  0.75000  0.50000  0.38021  1.0000
  Fe  Fe2       1.0  0.00000  0.00000  0.47396  1.0000
  Fe  Fe3       1.0  0.50000  0.00000  0.41146  1.0000
  Fe  Fe4       1.0  0.25000  0.50000  0.44271  1.0000
  Si  Si1       1.0  0.56818  0.86364  0.46544  1.0000
  Si  Si2       1.0  0.81818  0.36364  0.43419  1.0000
  Si  Si3       1.0  0.31818  0.36364  0.49669  1.0000
  Si  Si4       1.0  0.06818  0.86364  0.40294  1.0000
  Si  Si5       1.0  0.68182  0.63636  0.45123  1.0000
  Si  Si6       1.0  0.93182  0.13636  0.41998  1.0000
  Si  Si7       1.0  0.43182  0.13636  0.48248  1.0000
  Si  Si8       1.0  0.18182  0.63636  0.38873  1.0000
  Fe  Fe5       1.0  0.75000  0.50000  0.50521  1.0000
  Fe  Fe6       1.0  0.00000  0.00000  0.59896  1.0000
  Fe  Fe7       1.0  0.50000  0.00000  0.53646  1.0000
  Fe  Fe8       1.0  0.25000  0.50000  0.56771  1.0000
  Si  Si9       1.0  0.56818  0.86364  0.59044  1.0000
  Si  Si10      1.0  0.81818  0.36364  0.55919  1.0000
  Si  Si11      1.0  0.31818  0.36364  0.62169  1.0000
  Si  Si12      1.0  0.06818  0.86364  0.52794  1.0000
  Si  Si13      1.0  0.68182  0.63636  0.57623  1.0000
  Si  Si14      1.0  0.93182  0.13636  0.54498  1.0000
  Si  Si15      1.0  0.43182  0.13636  0.60748  1.0000
  Si  Si16      1.0  0.18182  0.63636  0.51373  1.0000
