data_image0
_chemical_formula_structural       V4Pd8V4Pd8V4Pd8
_chemical_formula_sum              "V12 Pd24"
_cell_length_a       8.18597
_cell_length_b       7.95667
_cell_length_c       29.6603
_cell_angle_alpha    109.809
_cell_angle_beta     90
_cell_angle_gamma    90

_space_group_name_H-M_alt    "P 1"
_space_group_IT_number       1

loop_
  _space_group_symop_operation_xyz
  'x, y, z'

loop_
  _atom_site_type_symbol
  _atom_site_label
  _atom_site_symmetry_multiplicity
  _atom_site_fract_x
  _atom_site_fract_y
  _atom_site_fract_z
  _atom_site_occupancy
  V   V1        1.0  0.00000  0.50000  0.39773  1.0000
  V   V2        1.0  0.00000  0.00000  0.44318  1.0000
  V   V3        1.0  0.50000  0.25000  0.42045  1.0000
  V   V4        1.0  0.50000  0.75000  0.37500  1.0000
  Pd  Pd1       1.0  0.83805  0.25000  0.42045  1.0000
  Pd  Pd2       1.0  0.83805  0.75000  0.37500  1.0000
  Pd  Pd3       1.0  0.66195  0.50000  0.39773  1.0000
  Pd  Pd4       1.0  0.66195  0.00000  0.44318  1.0000
  Pd  Pd5       1.0  0.33805  0.50000  0.39773  1.0000
  Pd  Pd6       1.0  0.33805  0.00000  0.44318  1.0000
  Pd  Pd7       1.0  0.16195  0.25000  0.42045  1.0000
  Pd  Pd8       1.0  0.16195  0.75000  0.37500  1.0000
  V   V5        1.0  0.00000  0.50000  0.48864  1.0000
  V   V6        1.0  0.00000  0.00000  0.53409  1.0000
  V   V7        1.0  0.50000  0.25000  0.51136  1.0000
  V   V8        1.0  0.50000  0.75000  0.46591  1.0000
  Pd  Pd9       1.0  0.83805  0.25000  0.51136  1.0000
  Pd  Pd10      1.0  0.83805  0.75000  0.46591  1.0000
  Pd  Pd11      1.0  0.66195  0.50000  0.48864  1.0000
  Pd  Pd12      1.0  0.66195  0.00000  0.53409  1.0000
  Pd  Pd13      1.0  0.33805  0.50000  0.48864  1.0000
  Pd  Pd14      1.0  0.33805  0.00000  0.53409  1.0000
  Pd  Pd15      1.0  0.16195  0.25000  0.51136  1.0000
  Pd  Pd16      1.0  0.16195  0.75000  0.46591  1.0000
  V   V9        1.0  0.00000  0.50000  0.57955  1.0000
  V   V10       1.0  0.00000  0.00000  0.62500  1.0000
  V   V11       1.0  0.50000  0.25000  0.60227  1.0000
  V   V12       1.0  0.50000  0.75000  0.55682  1.0000
  Pd  Pd17      1.0  0.83805  0.25000  0.60227  1.0000
  Pd  Pd18      1.0  0.83805  0.75000  0.55682  1.0000
  Pd  Pd19      1.0  0.66195  0.50000  0.57955  1.0000
  Pd  Pd20      1.0  0.66195  0.00000  0.62500  1.0000
  Pd  Pd21      1.0  0.33805  0.50000  0.57955  1.0000
  Pd  Pd22      1.0  0.33805  0.00000  0.62500  1.0000
  Pd  Pd23      1.0  0.16195  0.25000  0.60227  1.0000
  Pd  Pd24      1.0  0.16195  0.75000  0.55682  1.0000
