data_image0
_chemical_formula_structural       Re24
_chemical_formula_sum              "Re24"
_cell_length_a       4.76253
_cell_length_b       9.30812
_cell_length_c       30.2461
_cell_angle_alpha    98.4938
_cell_angle_beta     90
_cell_angle_gamma    75.1774

_space_group_name_H-M_alt    "P 1"
_space_group_IT_number       1

loop_
  _space_group_symop_operation_xyz
  'x, y, z'

loop_
  _atom_site_type_symbol
  _atom_site_label
  _atom_site_symmetry_multiplicity
  _atom_site_fract_x
  _atom_site_fract_y
  _atom_site_fract_z
  _atom_site_occupancy
  Re  Re1       1.0  0.85417  0.62500  0.43750  1.0000
  Re  Re2       1.0  0.10417  0.12500  0.41477  1.0000
  Re  Re3       1.0  0.60417  0.12500  0.36932  1.0000
  Re  Re4       1.0  0.35417  0.62500  0.39205  1.0000
  Re  Re5       1.0  0.39583  0.87500  0.44886  1.0000
  Re  Re6       1.0  0.64583  0.37500  0.42614  1.0000
  Re  Re7       1.0  0.14583  0.37500  0.38068  1.0000
  Re  Re8       1.0  0.89583  0.87500  0.40341  1.0000
  Re  Re9       1.0  0.85417  0.62500  0.52841  1.0000
  Re  Re10      1.0  0.10417  0.12500  0.50568  1.0000
  Re  Re11      1.0  0.60417  0.12500  0.46023  1.0000
  Re  Re12      1.0  0.35417  0.62500  0.48295  1.0000
  Re  Re13      1.0  0.39583  0.87500  0.53977  1.0000
  Re  Re14      1.0  0.64583  0.37500  0.51705  1.0000
  Re  Re15      1.0  0.14583  0.37500  0.47159  1.0000
  Re  Re16      1.0  0.89583  0.87500  0.49432  1.0000
  Re  Re17      1.0  0.85417  0.62500  0.61932  1.0000
  Re  Re18      1.0  0.10417  0.12500  0.59659  1.0000
  Re  Re19      1.0  0.60417  0.12500  0.55114  1.0000
  Re  Re20      1.0  0.35417  0.62500  0.57386  1.0000
  Re  Re21      1.0  0.39583  0.87500  0.63068  1.0000
  Re  Re22      1.0  0.64583  0.37500  0.60795  1.0000
  Re  Re23      1.0  0.14583  0.37500  0.56250  1.0000
  Re  Re24      1.0  0.89583  0.87500  0.58523  1.0000
