data_image0
_chemical_formula_structural       Ag8Al4
_chemical_formula_sum              "Ag8 Al4"
_cell_length_a       4.47139
_cell_length_b       5.00051
_cell_length_c       30.361
_cell_angle_alpha    94.563
_cell_angle_beta     90
_cell_angle_gamma    90

_space_group_name_H-M_alt    "P 1"
_space_group_IT_number       1

loop_
  _space_group_symop_operation_xyz
  'x, y, z'

loop_
  _atom_site_type_symbol
  _atom_site_label
  _atom_site_symmetry_multiplicity
  _atom_site_fract_x
  _atom_site_fract_y
  _atom_site_fract_z
  _atom_site_occupancy
  Ag  Ag1       1.0  0.25000  0.17388  0.38237  1.0000
  Ag  Ag2       1.0  0.25000  0.24091  0.47937  1.0000
  Ag  Ag3       1.0  0.75000  0.90194  0.47301  1.0000
  Ag  Ag4       1.0  0.75000  0.39755  0.42716  1.0000
  Ag  Ag5       1.0  0.25000  0.74530  0.52522  1.0000
  Ag  Ag6       1.0  0.25000  0.81234  0.62223  1.0000
  Ag  Ag7       1.0  0.75000  0.47337  0.61587  1.0000
  Ag  Ag8       1.0  0.75000  0.96898  0.57001  1.0000
  Al  Al1       1.0  0.25000  0.71145  0.42952  1.0000
  Al  Al2       1.0  0.75000  0.85998  0.38001  1.0000
  Al  Al3       1.0  0.25000  0.28288  0.57237  1.0000
  Al  Al4       1.0  0.75000  0.43141  0.52286  1.0000
