data_image0
_chemical_formula_structural       V8H4V8H4
_chemical_formula_sum              "V16 H8"
_cell_length_a       2.90783
_cell_length_b       5.78286
_cell_length_c       39.4436
_cell_angle_alpha    90.0078
_cell_angle_beta     90
_cell_angle_gamma    90

_space_group_name_H-M_alt    "P 1"
_space_group_IT_number       1

loop_
  _space_group_symop_operation_xyz
  'x, y, z'

loop_
  _atom_site_type_symbol
  _atom_site_label
  _atom_site_symmetry_multiplicity
  _atom_site_fract_x
  _atom_site_fract_y
  _atom_site_fract_z
  _atom_site_occupancy
  V   V1        1.0  0.50000  0.24939  0.47600  1.0000
  V   V2        1.0  0.50000  0.74939  0.39267  1.0000
  V   V3        1.0  0.50000  0.75061  0.48233  1.0000
  V   V4        1.0  0.50000  0.25061  0.39900  1.0000
  V   V5        1.0  0.00000  0.49939  0.35100  1.0000
  V   V6        1.0  0.00000  0.99939  0.43433  1.0000
  V   V7        1.0  0.00000  0.50061  0.44067  1.0000
  V   V8        1.0  0.00000  0.00061  0.35733  1.0000
  H   H1        1.0  0.50000  0.25000  0.35417  1.0000
  H   H2        1.0  0.50000  0.75000  0.43750  1.0000
  H   H3        1.0  0.00000  0.00000  0.47917  1.0000
  H   H4        1.0  0.00000  0.50000  0.39583  1.0000
  V   V9        1.0  0.50000  0.24939  0.64267  1.0000
  V   V10       1.0  0.50000  0.74939  0.55933  1.0000
  V   V11       1.0  0.50000  0.75061  0.64900  1.0000
  V   V12       1.0  0.50000  0.25061  0.56567  1.0000
  V   V13       1.0  0.00000  0.49939  0.51767  1.0000
  V   V14       1.0  0.00000  0.99939  0.60100  1.0000
  V   V15       1.0  0.00000  0.50061  0.60733  1.0000
  V   V16       1.0  0.00000  0.00061  0.52400  1.0000
  H   H5        1.0  0.50000  0.25000  0.52083  1.0000
  H   H6        1.0  0.50000  0.75000  0.60417  1.0000
  H   H7        1.0  0.00000  0.00000  0.64583  1.0000
  H   H8        1.0  0.00000  0.50000  0.56250  1.0000
