data_image0
_chemical_formula_structural       V4Pd8V4Pd8
_chemical_formula_sum              "V8 Pd16"
_cell_length_a       4.61303
_cell_length_b       8.61862
_cell_length_c       32.2912
_cell_angle_alpha    100.537
_cell_angle_beta     71.5377
_cell_angle_gamma    79.463

_space_group_name_H-M_alt    "P 1"
_space_group_IT_number       1

loop_
  _space_group_symop_operation_xyz
  'x, y, z'

loop_
  _atom_site_type_symbol
  _atom_site_label
  _atom_site_symmetry_multiplicity
  _atom_site_fract_x
  _atom_site_fract_y
  _atom_site_fract_z
  _atom_site_occupancy
  V   V1        1.0  0.00000  0.00000  0.48214  1.0000
  V   V2        1.0  0.50000  0.00000  0.41071  1.0000
  V   V3        1.0  0.75000  0.50000  0.44643  1.0000
  V   V4        1.0  0.25000  0.50000  0.37500  1.0000
  Pd  Pd1       1.0  0.91902  0.16195  0.42228  1.0000
  Pd  Pd2       1.0  0.41902  0.16195  0.49371  1.0000
  Pd  Pd3       1.0  0.83098  0.33805  0.36343  1.0000
  Pd  Pd4       1.0  0.33098  0.33805  0.43486  1.0000
  Pd  Pd5       1.0  0.66902  0.66195  0.38657  1.0000
  Pd  Pd6       1.0  0.16902  0.66195  0.45800  1.0000
  Pd  Pd7       1.0  0.58098  0.83805  0.47057  1.0000
  Pd  Pd8       1.0  0.08098  0.83805  0.39915  1.0000
  V   V5        1.0  0.00000  0.00000  0.62500  1.0000
  V   V6        1.0  0.50000  0.00000  0.55357  1.0000
  V   V7        1.0  0.75000  0.50000  0.58929  1.0000
  V   V8        1.0  0.25000  0.50000  0.51786  1.0000
  Pd  Pd9       1.0  0.91902  0.16195  0.56514  1.0000
  Pd  Pd10      1.0  0.41902  0.16195  0.63657  1.0000
  Pd  Pd11      1.0  0.83098  0.33805  0.50629  1.0000
  Pd  Pd12      1.0  0.33098  0.33805  0.57772  1.0000
  Pd  Pd13      1.0  0.66902  0.66195  0.52943  1.0000
  Pd  Pd14      1.0  0.16902  0.66195  0.60085  1.0000
  Pd  Pd15      1.0  0.58098  0.83805  0.61343  1.0000
  Pd  Pd16      1.0  0.08098  0.83805  0.54200  1.0000
