data_image0
_chemical_formula_structural       Si4Rh4Si4Rh4
_chemical_formula_sum              "Si8 Rh8"
_cell_length_a       4.56867
_cell_length_b       5.56275
_cell_length_c       31.848
_cell_angle_alpha    90
_cell_angle_beta     90
_cell_angle_gamma    115.136

_space_group_name_H-M_alt    "P 1"
_space_group_IT_number       1

loop_
  _space_group_symop_operation_xyz
  'x, y, z'

loop_
  _atom_site_type_symbol
  _atom_site_label
  _atom_site_symmetry_multiplicity
  _atom_site_fract_x
  _atom_site_fract_y
  _atom_site_fract_z
  _atom_site_occupancy
  Si  Si1       1.0  0.21260  0.44201  0.41387  1.0000
  Si  Si2       1.0  0.78740  0.05799  0.48530  1.0000
  Si  Si3       1.0  0.78740  0.55799  0.37185  1.0000
  Si  Si4       1.0  0.21260  0.94201  0.44327  1.0000
  Rh  Rh1       1.0  0.70023  0.88125  0.41338  1.0000
  Rh  Rh2       1.0  0.29977  0.61875  0.48481  1.0000
  Rh  Rh3       1.0  0.29977  0.11875  0.37233  1.0000
  Rh  Rh4       1.0  0.70023  0.38125  0.44376  1.0000
  Si  Si5       1.0  0.21260  0.44201  0.55673  1.0000
  Si  Si6       1.0  0.78740  0.05799  0.62815  1.0000
  Si  Si7       1.0  0.78740  0.55799  0.51470  1.0000
  Si  Si8       1.0  0.21260  0.94201  0.58613  1.0000
  Rh  Rh5       1.0  0.70023  0.88125  0.55624  1.0000
  Rh  Rh6       1.0  0.29977  0.61875  0.62767  1.0000
  Rh  Rh7       1.0  0.29977  0.11875  0.51519  1.0000
  Rh  Rh8       1.0  0.70023  0.38125  0.58662  1.0000
