data_image0
_chemical_formula_structural       Ca4Au4Ca4Au4
_chemical_formula_sum              "Ca8 Au8"
_cell_length_a       10.8529
_cell_length_b       4.57064
_cell_length_c       31.5071
_cell_angle_alpha    90
_cell_angle_beta     90
_cell_angle_gamma    90

_space_group_name_H-M_alt    "P 1"
_space_group_IT_number       1

loop_
  _space_group_symop_operation_xyz
  'x, y, z'

loop_
  _atom_site_type_symbol
  _atom_site_label
  _atom_site_symmetry_multiplicity
  _atom_site_fract_x
  _atom_site_fract_y
  _atom_site_fract_z
  _atom_site_occupancy
  Ca  Ca1       1.0  0.86062  0.75000  0.46875  1.0000
  Ca  Ca2       1.0  0.63938  0.25000  0.40625  1.0000
  Ca  Ca3       1.0  0.36062  0.75000  0.40625  1.0000
  Ca  Ca4       1.0  0.13938  0.25000  0.46875  1.0000
  Au  Au1       1.0  0.58094  0.75000  0.46875  1.0000
  Au  Au2       1.0  0.91906  0.25000  0.40625  1.0000
  Au  Au3       1.0  0.08094  0.75000  0.40625  1.0000
  Au  Au4       1.0  0.41906  0.25000  0.46875  1.0000
  Ca  Ca5       1.0  0.86062  0.75000  0.59375  1.0000
  Ca  Ca6       1.0  0.63938  0.25000  0.53125  1.0000
  Ca  Ca7       1.0  0.36062  0.75000  0.53125  1.0000
  Ca  Ca8       1.0  0.13938  0.25000  0.59375  1.0000
  Au  Au5       1.0  0.58094  0.75000  0.59375  1.0000
  Au  Au6       1.0  0.91906  0.25000  0.53125  1.0000
  Au  Au7       1.0  0.08094  0.75000  0.53125  1.0000
  Au  Au8       1.0  0.41906  0.25000  0.59375  1.0000
