data_image0
_chemical_formula_structural       Si2Sb2Pt10Si2Sb2Pt10
_chemical_formula_sum              "Si4 Sb4 Pt20"
_cell_length_a       3.95526
_cell_length_b       14.772
_cell_length_c       31.6421
_cell_angle_alpha    105.531
_cell_angle_beta     90
_cell_angle_gamma    90

_space_group_name_H-M_alt    "P 1"
_space_group_IT_number       1

loop_
  _space_group_symop_operation_xyz
  'x, y, z'

loop_
  _atom_site_type_symbol
  _atom_site_label
  _atom_site_symmetry_multiplicity
  _atom_site_fract_x
  _atom_site_fract_y
  _atom_site_fract_z
  _atom_site_occupancy
  Si  Si1       1.0  0.00000  0.25000  0.37946  1.0000
  Si  Si2       1.0  0.00000  0.75000  0.44196  1.0000
  Sb  Sb1       1.0  0.50000  0.00000  0.41071  1.0000
  Sb  Sb2       1.0  0.50000  0.50000  0.47321  1.0000
  Pt  Pt1       1.0  0.50000  0.14957  0.49191  1.0000
  Pt  Pt2       1.0  0.50000  0.64957  0.42941  1.0000
  Pt  Pt3       1.0  0.50000  0.35043  0.39202  1.0000
  Pt  Pt4       1.0  0.50000  0.85043  0.45452  1.0000
  Pt  Pt5       1.0  0.00000  0.14957  0.42941  1.0000
  Pt  Pt6       1.0  0.00000  0.64957  0.49191  1.0000
  Pt  Pt7       1.0  0.00000  0.35043  0.45452  1.0000
  Pt  Pt8       1.0  0.00000  0.85043  0.39202  1.0000
  Pt  Pt9       1.0  0.00000  0.00000  0.47321  1.0000
  Pt  Pt10      1.0  0.00000  0.50000  0.41071  1.0000
  Si  Si3       1.0  0.00000  0.25000  0.50446  1.0000
  Si  Si4       1.0  0.00000  0.75000  0.56696  1.0000
  Sb  Sb3       1.0  0.50000  0.00000  0.53571  1.0000
  Sb  Sb4       1.0  0.50000  0.50000  0.59821  1.0000
  Pt  Pt11      1.0  0.50000  0.14957  0.61691  1.0000
  Pt  Pt12      1.0  0.50000  0.64957  0.55441  1.0000
  Pt  Pt13      1.0  0.50000  0.35043  0.51702  1.0000
  Pt  Pt14      1.0  0.50000  0.85043  0.57952  1.0000
  Pt  Pt15      1.0  0.00000  0.14957  0.55441  1.0000
  Pt  Pt16      1.0  0.00000  0.64957  0.61691  1.0000
  Pt  Pt17      1.0  0.00000  0.35043  0.57952  1.0000
  Pt  Pt18      1.0  0.00000  0.85043  0.51702  1.0000
  Pt  Pt19      1.0  0.00000  0.00000  0.59821  1.0000
  Pt  Pt20      1.0  0.00000  0.50000  0.53571  1.0000
