data_image0
_chemical_formula_structural       Mn2Ir2Mn2Ir2
_chemical_formula_sum              "Mn4 Ir4"
_cell_length_a       2.61438
_cell_length_b       4.44722
_cell_length_c       31.1306
_cell_angle_alpha    72.0117
_cell_angle_beta     90
_cell_angle_gamma    90

_space_group_name_H-M_alt    "P 1"
_space_group_IT_number       1

loop_
  _space_group_symop_operation_xyz
  'x, y, z'

loop_
  _atom_site_type_symbol
  _atom_site_label
  _atom_site_symmetry_multiplicity
  _atom_site_fract_x
  _atom_site_fract_y
  _atom_site_fract_z
  _atom_site_occupancy
  Mn  Mn1       1.0  0.50000  0.00000  0.39286  1.0000
  Mn  Mn2       1.0  0.50000  0.50000  0.46429  1.0000
  Ir  Ir1       1.0  0.00000  0.00000  0.46429  1.0000
  Ir  Ir2       1.0  0.00000  0.50000  0.39286  1.0000
  Mn  Mn3       1.0  0.50000  0.00000  0.53571  1.0000
  Mn  Mn4       1.0  0.50000  0.50000  0.60714  1.0000
  Ir  Ir3       1.0  0.00000  0.00000  0.60714  1.0000
  Ir  Ir4       1.0  0.00000  0.50000  0.53571  1.0000
