data_image0
_chemical_formula_structural       As16Os8
_chemical_formula_sum              "As16 Os8"
_cell_length_a       6.20302
_cell_length_b       8.64952
_cell_length_c       35.0574
_cell_angle_alpha    74.6262
_cell_angle_beta     68.1443
_cell_angle_gamma    70.1268

_space_group_name_H-M_alt    "P 1"
_space_group_IT_number       1

loop_
  _space_group_symop_operation_xyz
  'x, y, z'

loop_
  _atom_site_type_symbol
  _atom_site_label
  _atom_site_symmetry_multiplicity
  _atom_site_fract_x
  _atom_site_fract_y
  _atom_site_fract_z
  _atom_site_occupancy
  As  As1       1.0  0.81420  0.85029  0.61828  1.0000
  As  As2       1.0  0.56420  0.60029  0.43078  1.0000
  As  As3       1.0  0.06420  0.10029  0.55578  1.0000
  As  As4       1.0  0.31420  0.35029  0.49328  1.0000
  As  As5       1.0  0.68580  0.64971  0.48589  1.0000
  As  As6       1.0  0.43580  0.39971  0.54839  1.0000
  As  As7       1.0  0.93580  0.89971  0.42339  1.0000
  As  As8       1.0  0.18580  0.14971  0.61089  1.0000
  As  As9       1.0  0.07071  0.76479  0.51466  1.0000
  As  As10      1.0  0.82071  0.51479  0.57716  1.0000
  As  As11      1.0  0.32071  0.01479  0.45216  1.0000
  As  As12      1.0  0.57071  0.26479  0.38966  1.0000
  As  As13      1.0  0.67929  0.98521  0.52701  1.0000
  As  As14      1.0  0.42929  0.73521  0.58951  1.0000
  As  As15      1.0  0.92929  0.23521  0.46451  1.0000
  As  As16      1.0  0.17929  0.48521  0.40201  1.0000
  Os  Os1       1.0  0.37500  0.87500  0.52083  1.0000
  Os  Os2       1.0  0.12500  0.62500  0.58333  1.0000
  Os  Os3       1.0  0.62500  0.12500  0.45833  1.0000
  Os  Os4       1.0  0.87500  0.37500  0.39583  1.0000
  Os  Os5       1.0  0.12500  0.62500  0.45833  1.0000
  Os  Os6       1.0  0.87500  0.37500  0.52083  1.0000
  Os  Os7       1.0  0.37500  0.87500  0.39583  1.0000
  Os  Os8       1.0  0.62500  0.12500  0.58333  1.0000
