data_image0
_chemical_formula_structural       Re18Ir6
_chemical_formula_sum              "Re18 Ir6"
_cell_length_a       3.85578
_cell_length_b       10.9283
_cell_length_c       34.601
_cell_angle_alpha    71.353
_cell_angle_beta     90
_cell_angle_gamma    90

_space_group_name_H-M_alt    "P 1"
_space_group_IT_number       1

loop_
  _space_group_symop_operation_xyz
  'x, y, z'

loop_
  _atom_site_type_symbol
  _atom_site_label
  _atom_site_symmetry_multiplicity
  _atom_site_fract_x
  _atom_site_fract_y
  _atom_site_fract_z
  _atom_site_occupancy
  Re  Re1       1.0  0.00000  0.58333  0.52083  1.0000
  Re  Re2       1.0  0.00000  0.91667  0.43750  1.0000
  Re  Re3       1.0  0.00000  0.25000  0.60417  1.0000
  Re  Re4       1.0  0.50000  0.75000  0.47917  1.0000
  Re  Re5       1.0  0.50000  0.08333  0.39583  1.0000
  Re  Re6       1.0  0.50000  0.41667  0.56250  1.0000
  Re  Re7       1.0  0.50000  0.50000  0.47917  1.0000
  Re  Re8       1.0  0.50000  0.83333  0.39583  1.0000
  Re  Re9       1.0  0.50000  0.16667  0.56250  1.0000
  Re  Re10      1.0  0.50000  0.91667  0.56250  1.0000
  Re  Re11      1.0  0.50000  0.25000  0.47917  1.0000
  Re  Re12      1.0  0.50000  0.58333  0.39583  1.0000
  Re  Re13      1.0  0.00000  0.75000  0.60417  1.0000
  Re  Re14      1.0  0.00000  0.08333  0.52083  1.0000
  Re  Re15      1.0  0.00000  0.41667  0.43750  1.0000
  Re  Re16      1.0  0.00000  0.83333  0.52083  1.0000
  Re  Re17      1.0  0.00000  0.16667  0.43750  1.0000
  Re  Re18      1.0  0.00000  0.50000  0.60417  1.0000
  Ir  Ir1       1.0  0.00000  0.66667  0.43750  1.0000
  Ir  Ir2       1.0  0.00000  0.00000  0.60417  1.0000
  Ir  Ir3       1.0  0.00000  0.33333  0.52083  1.0000
  Ir  Ir4       1.0  0.50000  0.66667  0.56250  1.0000
  Ir  Ir5       1.0  0.50000  0.00000  0.47917  1.0000
  Ir  Ir6       1.0  0.50000  0.33333  0.39583  1.0000
