data_image0
_chemical_formula_structural       Ru12Sb24
_chemical_formula_sum              "Ru12 Sb24"
_cell_length_a       8.92863
_cell_length_b       9.4786
_cell_length_c       29.9952
_cell_angle_alpha    92.296
_cell_angle_beta     91.9076
_cell_angle_gamma    96.0468

_space_group_name_H-M_alt    "P 1"
_space_group_IT_number       1

loop_
  _space_group_symop_operation_xyz
  'x, y, z'

loop_
  _atom_site_type_symbol
  _atom_site_label
  _atom_site_symmetry_multiplicity
  _atom_site_fract_x
  _atom_site_fract_y
  _atom_site_fract_z
  _atom_site_occupancy
  Ru  Ru1       1.0  0.00000  0.06667  0.43333  1.0000
  Ru  Ru2       1.0  0.50000  0.61667  0.38333  1.0000
  Ru  Ru3       1.0  0.00000  0.56667  0.43333  1.0000
  Ru  Ru4       1.0  0.50000  0.11667  0.38333  1.0000
  Ru  Ru5       1.0  0.00000  0.96667  0.53333  1.0000
  Ru  Ru6       1.0  0.50000  0.51667  0.48333  1.0000
  Ru  Ru7       1.0  0.00000  0.46667  0.53333  1.0000
  Ru  Ru8       1.0  0.50000  0.01667  0.48333  1.0000
  Ru  Ru9       1.0  0.00000  0.86667  0.63333  1.0000
  Ru  Ru10      1.0  0.50000  0.41667  0.58333  1.0000
  Ru  Ru11      1.0  0.00000  0.36667  0.63333  1.0000
  Ru  Ru12      1.0  0.50000  0.91667  0.58333  1.0000
  Sb  Sb1       1.0  0.27017  0.98790  0.42458  1.0000
  Sb  Sb2       1.0  0.77017  0.53790  0.37458  1.0000
  Sb  Sb3       1.0  0.72983  0.14543  0.44209  1.0000
  Sb  Sb4       1.0  0.22983  0.69543  0.39209  1.0000
  Sb  Sb5       1.0  0.91248  0.90982  0.36035  1.0000
  Sb  Sb6       1.0  0.41248  0.35982  0.41035  1.0000
  Sb  Sb7       1.0  0.08752  0.32352  0.40632  1.0000
  Sb  Sb8       1.0  0.58752  0.87352  0.35632  1.0000
  Sb  Sb9       1.0  0.27017  0.88790  0.52458  1.0000
  Sb  Sb10      1.0  0.77017  0.43790  0.47458  1.0000
  Sb  Sb11      1.0  0.72983  0.04543  0.54209  1.0000
  Sb  Sb12      1.0  0.22983  0.59543  0.49209  1.0000
  Sb  Sb13      1.0  0.91248  0.80982  0.46035  1.0000
  Sb  Sb14      1.0  0.41248  0.25982  0.51035  1.0000
  Sb  Sb15      1.0  0.08752  0.22352  0.50632  1.0000
  Sb  Sb16      1.0  0.58752  0.77352  0.45632  1.0000
  Sb  Sb17      1.0  0.27017  0.78790  0.62458  1.0000
  Sb  Sb18      1.0  0.77017  0.33790  0.57458  1.0000
  Sb  Sb19      1.0  0.72983  0.94543  0.64209  1.0000
  Sb  Sb20      1.0  0.22983  0.49543  0.59209  1.0000
  Sb  Sb21      1.0  0.91248  0.70982  0.56035  1.0000
  Sb  Sb22      1.0  0.41248  0.15982  0.61035  1.0000
  Sb  Sb23      1.0  0.08752  0.12352  0.60632  1.0000
  Sb  Sb24      1.0  0.58752  0.67352  0.55632  1.0000
