data_image0
_chemical_formula_structural       MnSbRh2MnSbRh2
_chemical_formula_sum              "Mn2 Sb2 Rh4"
_cell_length_a       4.02812
_cell_length_b       3.54402
_cell_length_c       28.1969
_cell_angle_alpha    90
_cell_angle_beta     90
_cell_angle_gamma    90

_space_group_name_H-M_alt    "P 1"
_space_group_IT_number       1

loop_
  _space_group_symop_operation_xyz
  'x, y, z'

loop_
  _atom_site_type_symbol
  _atom_site_label
  _atom_site_symmetry_multiplicity
  _atom_site_fract_x
  _atom_site_fract_y
  _atom_site_fract_z
  _atom_site_occupancy
  Mn  Mn1       1.0  0.00000  0.00000  0.46429  1.0000
  Sb  Sb1       1.0  0.50000  0.00000  0.39286  1.0000
  Rh  Rh1       1.0  0.50000  0.50000  0.46429  1.0000
  Rh  Rh2       1.0  0.00000  0.50000  0.39286  1.0000
  Mn  Mn2       1.0  0.00000  0.00000  0.60714  1.0000
  Sb  Sb2       1.0  0.50000  0.00000  0.53571  1.0000
  Rh  Rh3       1.0  0.50000  0.50000  0.60714  1.0000
  Rh  Rh4       1.0  0.00000  0.50000  0.53571  1.0000
