data_image0
_chemical_formula_structural       Fe4As4Fe4As4Fe4As4
_chemical_formula_sum              "Fe12 As12"
_cell_length_a       5.31614
_cell_length_b       6.74998
_cell_length_c       32.6518
_cell_angle_alpha    118.929
_cell_angle_beta     90
_cell_angle_gamma    90

_space_group_name_H-M_alt    "P 1"
_space_group_IT_number       1

loop_
  _space_group_symop_operation_xyz
  'x, y, z'

loop_
  _atom_site_type_symbol
  _atom_site_label
  _atom_site_symmetry_multiplicity
  _atom_site_fract_x
  _atom_site_fract_y
  _atom_site_fract_z
  _atom_site_occupancy
  Fe  Fe1       1.0  0.99961  0.20013  0.39501  1.0000
  Fe  Fe2       1.0  0.00039  0.79987  0.40499  1.0000
  Fe  Fe3       1.0  0.49961  0.29987  0.40499  1.0000
  Fe  Fe4       1.0  0.50039  0.70013  0.39501  1.0000
  As  As1       1.0  0.80082  0.57603  0.43260  1.0000
  As  As2       1.0  0.19918  0.42397  0.36740  1.0000
  As  As3       1.0  0.30082  0.92397  0.36740  1.0000
  As  As4       1.0  0.69918  0.07603  0.43260  1.0000
  Fe  Fe5       1.0  0.99961  0.20013  0.49501  1.0000
  Fe  Fe6       1.0  0.00039  0.79987  0.50499  1.0000
  Fe  Fe7       1.0  0.49961  0.29987  0.50499  1.0000
  Fe  Fe8       1.0  0.50039  0.70013  0.49501  1.0000
  As  As5       1.0  0.80082  0.57603  0.53260  1.0000
  As  As6       1.0  0.19918  0.42397  0.46740  1.0000
  As  As7       1.0  0.30082  0.92397  0.46740  1.0000
  As  As8       1.0  0.69918  0.07603  0.53260  1.0000
  Fe  Fe9       1.0  0.99961  0.20013  0.59501  1.0000
  Fe  Fe10      1.0  0.00039  0.79987  0.60499  1.0000
  Fe  Fe11      1.0  0.49961  0.29987  0.60499  1.0000
  Fe  Fe12      1.0  0.50039  0.70013  0.59501  1.0000
  As  As9       1.0  0.80082  0.57603  0.63260  1.0000
  As  As10      1.0  0.19918  0.42397  0.56740  1.0000
  As  As11      1.0  0.30082  0.92397  0.56740  1.0000
  As  As12      1.0  0.69918  0.07603  0.63260  1.0000
