data_image0
_chemical_formula_structural       Sb12Os6Sb12Os6
_chemical_formula_sum              "Sb24 Os12"
_cell_length_a       6.68398
_cell_length_b       8.75883
_cell_length_c       40.5537
_cell_angle_alpha    75.6728
_cell_angle_beta     90
_cell_angle_gamma    90

_space_group_name_H-M_alt    "P 1"
_space_group_IT_number       1

loop_
  _space_group_symop_operation_xyz
  'x, y, z'

loop_
  _atom_site_type_symbol
  _atom_site_label
  _atom_site_symmetry_multiplicity
  _atom_site_fract_x
  _atom_site_fract_y
  _atom_site_fract_z
  _atom_site_occupancy
  Sb  Sb1       1.0  0.14236  0.39396  0.36743  1.0000
  Sb  Sb2       1.0  0.14236  0.06062  0.42299  1.0000
  Sb  Sb3       1.0  0.14236  0.72729  0.47854  1.0000
  Sb  Sb4       1.0  0.85764  0.27271  0.49368  1.0000
  Sb  Sb5       1.0  0.85764  0.93938  0.38257  1.0000
  Sb  Sb6       1.0  0.85764  0.60604  0.43813  1.0000
  Sb  Sb7       1.0  0.64236  0.27271  0.41035  1.0000
  Sb  Sb8       1.0  0.64236  0.93938  0.46590  1.0000
  Sb  Sb9       1.0  0.64236  0.60604  0.35479  1.0000
  Sb  Sb10      1.0  0.35764  0.06062  0.33965  1.0000
  Sb  Sb11      1.0  0.35764  0.72729  0.39521  1.0000
  Sb  Sb12      1.0  0.35764  0.39396  0.45076  1.0000
  Os  Os1       1.0  0.50000  0.33333  0.34722  1.0000
  Os  Os2       1.0  0.50000  0.00000  0.40278  1.0000
  Os  Os3       1.0  0.50000  0.66667  0.45833  1.0000
  Os  Os4       1.0  0.00000  0.33333  0.43056  1.0000
  Os  Os5       1.0  0.00000  0.00000  0.48611  1.0000
  Os  Os6       1.0  0.00000  0.66667  0.37500  1.0000
  Sb  Sb13      1.0  0.14236  0.39396  0.53410  1.0000
  Sb  Sb14      1.0  0.14236  0.06062  0.58965  1.0000
  Sb  Sb15      1.0  0.14236  0.72729  0.64521  1.0000
  Sb  Sb16      1.0  0.85764  0.27271  0.66035  1.0000
  Sb  Sb17      1.0  0.85764  0.93938  0.54924  1.0000
  Sb  Sb18      1.0  0.85764  0.60604  0.60479  1.0000
  Sb  Sb19      1.0  0.64236  0.27271  0.57701  1.0000
  Sb  Sb20      1.0  0.64236  0.93938  0.63257  1.0000
  Sb  Sb21      1.0  0.64236  0.60604  0.52146  1.0000
  Sb  Sb22      1.0  0.35764  0.06062  0.50632  1.0000
  Sb  Sb23      1.0  0.35764  0.72729  0.56187  1.0000
  Sb  Sb24      1.0  0.35764  0.39396  0.61743  1.0000
  Os  Os7       1.0  0.50000  0.33333  0.51389  1.0000
  Os  Os8       1.0  0.50000  0.00000  0.56944  1.0000
  Os  Os9       1.0  0.50000  0.66667  0.62500  1.0000
  Os  Os10      1.0  0.00000  0.33333  0.59722  1.0000
  Os  Os11      1.0  0.00000  0.00000  0.65278  1.0000
  Os  Os12      1.0  0.00000  0.66667  0.54167  1.0000
