data_image0
_chemical_formula_structural       Si12As12
_chemical_formula_sum              "Si12 As12"
_cell_length_a       3.66157
_cell_length_b       10.1317
_cell_length_c       49.8321
_cell_angle_alpha    77.9972
_cell_angle_beta     90
_cell_angle_gamma    90

_space_group_name_H-M_alt    "P 1"
_space_group_IT_number       1

loop_
  _space_group_symop_operation_xyz
  'x, y, z'

loop_
  _atom_site_type_symbol
  _atom_site_label
  _atom_site_symmetry_multiplicity
  _atom_site_fract_x
  _atom_site_fract_y
  _atom_site_fract_z
  _atom_site_occupancy
  Si  Si1       1.0  0.50000  0.77292  0.54563  1.0000
  Si  Si2       1.0  0.00000  0.72708  0.62104  1.0000
  Si  Si3       1.0  0.50000  0.56818  0.57703  1.0000
  Si  Si4       1.0  0.00000  0.93182  0.58964  1.0000
  Si  Si5       1.0  0.00000  0.52678  0.52168  1.0000
  Si  Si6       1.0  0.50000  0.97322  0.64499  1.0000
  Si  Si7       1.0  0.00000  0.27292  0.37896  1.0000
  Si  Si8       1.0  0.50000  0.22708  0.45437  1.0000
  Si  Si9       1.0  0.00000  0.06818  0.41036  1.0000
  Si  Si10      1.0  0.50000  0.43182  0.42297  1.0000
  Si  Si11      1.0  0.50000  0.02678  0.35501  1.0000
  Si  Si12      1.0  0.00000  0.47322  0.47832  1.0000
  As  As1       1.0  0.50000  0.41208  0.54746  1.0000
  As  As2       1.0  0.00000  0.08792  0.61920  1.0000
  As  As3       1.0  0.50000  0.98595  0.55867  1.0000
  As  As4       1.0  0.00000  0.51405  0.60800  1.0000
  As  As5       1.0  0.00000  0.76893  0.51507  1.0000
  As  As6       1.0  0.50000  0.73107  0.65160  1.0000
  As  As7       1.0  0.00000  0.91208  0.38080  1.0000
  As  As8       1.0  0.50000  0.58792  0.45254  1.0000
  As  As9       1.0  0.00000  0.48595  0.39200  1.0000
  As  As10      1.0  0.50000  0.01405  0.44133  1.0000
  As  As11      1.0  0.50000  0.26893  0.34840  1.0000
  As  As12      1.0  0.00000  0.23107  0.48493  1.0000
