data_image0
_chemical_formula_structural       As8Rh4As8Rh4
_chemical_formula_sum              "As16 Rh8"
_cell_length_a       6.05832
_cell_length_b       6.14851
_cell_length_c       36.4396
_cell_angle_alpha    90
_cell_angle_beta     90
_cell_angle_gamma    114.274

_space_group_name_H-M_alt    "P 1"
_space_group_IT_number       1

loop_
  _space_group_symop_operation_xyz
  'x, y, z'

loop_
  _atom_site_type_symbol
  _atom_site_label
  _atom_site_symmetry_multiplicity
  _atom_site_fract_x
  _atom_site_fract_y
  _atom_site_fract_z
  _atom_site_occupancy
  As  As1       1.0  0.15619  0.87030  0.43689  1.0000
  As  As2       1.0  0.84381  0.62970  0.35356  1.0000
  As  As3       1.0  0.84381  0.12970  0.47978  1.0000
  As  As4       1.0  0.15619  0.37030  0.39644  1.0000
  As  As5       1.0  0.33854  0.18256  0.35338  1.0000
  As  As6       1.0  0.66146  0.31744  0.43672  1.0000
  As  As7       1.0  0.66146  0.81744  0.39662  1.0000
  As  As8       1.0  0.33854  0.68256  0.47995  1.0000
  Rh  Rh1       1.0  0.27215  0.78939  0.37492  1.0000
  Rh  Rh2       1.0  0.72785  0.71061  0.45826  1.0000
  Rh  Rh3       1.0  0.72785  0.21061  0.37508  1.0000
  Rh  Rh4       1.0  0.27215  0.28939  0.45841  1.0000
  As  As9       1.0  0.15619  0.87030  0.60356  1.0000
  As  As10      1.0  0.84381  0.62970  0.52022  1.0000
  As  As11      1.0  0.84381  0.12970  0.64644  1.0000
  As  As12      1.0  0.15619  0.37030  0.56311  1.0000
  As  As13      1.0  0.33854  0.18256  0.52005  1.0000
  As  As14      1.0  0.66146  0.31744  0.60338  1.0000
  As  As15      1.0  0.66146  0.81744  0.56328  1.0000
  As  As16      1.0  0.33854  0.68256  0.64662  1.0000
  Rh  Rh5       1.0  0.27215  0.78939  0.54159  1.0000
  Rh  Rh6       1.0  0.72785  0.71061  0.62492  1.0000
  Rh  Rh7       1.0  0.72785  0.21061  0.54174  1.0000
  Rh  Rh8       1.0  0.27215  0.28939  0.62508  1.0000
