data_image0
_chemical_formula_structural       Pd8V4
_chemical_formula_sum              "Pd8 V4"
_cell_length_a       4.61303
_cell_length_b       4.69814
_cell_length_c       30.6456
_cell_angle_alpha    90.9178
_cell_angle_beta     91.8698
_cell_angle_gamma    60.5975

_space_group_name_H-M_alt    "P 1"
_space_group_IT_number       1

loop_
  _space_group_symop_operation_xyz
  'x, y, z'

loop_
  _atom_site_type_symbol
  _atom_site_label
  _atom_site_symmetry_multiplicity
  _atom_site_fract_x
  _atom_site_fract_y
  _atom_site_fract_z
  _atom_site_occupancy
  Pd  Pd1       1.0  0.59052  0.67610  0.53571  1.0000
  Pd  Pd2       1.0  0.94767  0.67610  0.60714  1.0000
  Pd  Pd3       1.0  0.62376  0.32390  0.60714  1.0000
  Pd  Pd4       1.0  0.26662  0.32390  0.53571  1.0000
  Pd  Pd5       1.0  0.87624  0.67610  0.39286  1.0000
  Pd  Pd6       1.0  0.23338  0.67610  0.46429  1.0000
  Pd  Pd7       1.0  0.90948  0.32390  0.46429  1.0000
  Pd  Pd8       1.0  0.55233  0.32390  0.39286  1.0000
  V   V1        1.0  0.28571  0.00000  0.60714  1.0000
  V   V2        1.0  0.92857  0.00000  0.53571  1.0000
  V   V3        1.0  0.57143  0.00000  0.46429  1.0000
  V   V4        1.0  0.21429  0.00000  0.39286  1.0000
