data_image0
_chemical_formula_structural       Nb9Rh9Nb9Rh9
_chemical_formula_sum              "Nb18 Rh18"
_cell_length_a       7.44694
_cell_length_b       7.46596
_cell_length_c       33.6729
_cell_angle_alpha    68.7611
_cell_angle_beta     79.6125
_cell_angle_gamma    74.1569

_space_group_name_H-M_alt    "P 1"
_space_group_IT_number       1

loop_
  _space_group_symop_operation_xyz
  'x, y, z'

loop_
  _atom_site_type_symbol
  _atom_site_label
  _atom_site_symmetry_multiplicity
  _atom_site_fract_x
  _atom_site_fract_y
  _atom_site_fract_z
  _atom_site_occupancy
  Nb  Nb1       1.0  0.30409  0.83573  0.43007  1.0000
  Nb  Nb2       1.0  0.63743  0.83573  0.37451  1.0000
  Nb  Nb3       1.0  0.97076  0.83573  0.48562  1.0000
  Nb  Nb4       1.0  0.50000  0.50000  0.49537  1.0000
  Nb  Nb5       1.0  0.83333  0.50000  0.43981  1.0000
  Nb  Nb6       1.0  0.16667  0.50000  0.38426  1.0000
  Nb  Nb7       1.0  0.36257  0.16427  0.44956  1.0000
  Nb  Nb8       1.0  0.69591  0.16427  0.39401  1.0000
  Nb  Nb9       1.0  0.02924  0.16427  0.33845  1.0000
  Rh  Rh1       1.0  0.50000  0.50000  0.41204  1.0000
  Rh  Rh2       1.0  0.83333  0.50000  0.35648  1.0000
  Rh  Rh3       1.0  0.16667  0.50000  0.46759  1.0000
  Rh  Rh4       1.0  0.30815  0.83223  0.34809  1.0000
  Rh  Rh5       1.0  0.64149  0.83223  0.45920  1.0000
  Rh  Rh6       1.0  0.97482  0.83223  0.40364  1.0000
  Rh  Rh7       1.0  0.69185  0.16777  0.47599  1.0000
  Rh  Rh8       1.0  0.02518  0.16777  0.42043  1.0000
  Rh  Rh9       1.0  0.35851  0.16777  0.36487  1.0000
  Nb  Nb10      1.0  0.30409  0.83573  0.59674  1.0000
  Nb  Nb11      1.0  0.63743  0.83573  0.54118  1.0000
  Nb  Nb12      1.0  0.97076  0.83573  0.65229  1.0000
  Nb  Nb13      1.0  0.50000  0.50000  0.66204  1.0000
  Nb  Nb14      1.0  0.83333  0.50000  0.60648  1.0000
  Nb  Nb15      1.0  0.16667  0.50000  0.55093  1.0000
  Nb  Nb16      1.0  0.36257  0.16427  0.61623  1.0000
  Nb  Nb17      1.0  0.69591  0.16427  0.56067  1.0000
  Nb  Nb18      1.0  0.02924  0.16427  0.50512  1.0000
  Rh  Rh10      1.0  0.50000  0.50000  0.57870  1.0000
  Rh  Rh11      1.0  0.83333  0.50000  0.52315  1.0000
  Rh  Rh12      1.0  0.16667  0.50000  0.63426  1.0000
  Rh  Rh13      1.0  0.30815  0.83223  0.51475  1.0000
  Rh  Rh14      1.0  0.64149  0.83223  0.62587  1.0000
  Rh  Rh15      1.0  0.97482  0.83223  0.57031  1.0000
  Rh  Rh16      1.0  0.69185  0.16777  0.64265  1.0000
  Rh  Rh17      1.0  0.02518  0.16777  0.58710  1.0000
  Rh  Rh18      1.0  0.35851  0.16777  0.53154  1.0000
