data_image0
_chemical_formula_structural       Au8Ca8
_chemical_formula_sum              "Au8 Ca8"
_cell_length_a       5.77272
_cell_length_b       6.03338
_cell_length_c       34.6186
_cell_angle_alpha    86.8743
_cell_angle_beta     86.454
_cell_angle_gamma    77.134

_space_group_name_H-M_alt    "P 1"
_space_group_IT_number       1

loop_
  _space_group_symop_operation_xyz
  'x, y, z'

loop_
  _atom_site_type_symbol
  _atom_site_label
  _atom_site_symmetry_multiplicity
  _atom_site_fract_x
  _atom_site_fract_y
  _atom_site_fract_z
  _atom_site_occupancy
  Au  Au1       1.0  0.27339  0.52877  0.44425  1.0000
  Au  Au2       1.0  0.44006  0.94544  0.36091  1.0000
  Au  Au3       1.0  0.89327  0.88789  0.47242  1.0000
  Au  Au4       1.0  0.05994  0.30456  0.38909  1.0000
  Au  Au5       1.0  0.94006  0.69544  0.61091  1.0000
  Au  Au6       1.0  0.10673  0.11211  0.52758  1.0000
  Au  Au7       1.0  0.55994  0.05456  0.63909  1.0000
  Au  Au8       1.0  0.72661  0.47123  0.55575  1.0000
  Ca  Ca1       1.0  0.78614  0.41224  0.46755  1.0000
  Ca  Ca2       1.0  0.95281  0.82891  0.38422  1.0000
  Ca  Ca3       1.0  0.38053  0.00443  0.44911  1.0000
  Ca  Ca4       1.0  0.54719  0.42109  0.36578  1.0000
  Ca  Ca5       1.0  0.45281  0.57891  0.63422  1.0000
  Ca  Ca6       1.0  0.61947  0.99557  0.55089  1.0000
  Ca  Ca7       1.0  0.04719  0.17109  0.61578  1.0000
  Ca  Ca8       1.0  0.21386  0.58776  0.53245  1.0000
