data_image0
_chemical_formula_structural       Co6Ga3V3
_chemical_formula_sum              "Co6 Ga3 V3"
_cell_length_a       4.00363
_cell_length_b       4.00363
_cell_length_c       39.2274
_cell_angle_alpha    90
_cell_angle_beta     90
_cell_angle_gamma    120

_space_group_name_H-M_alt    "P 1"
_space_group_IT_number       1

loop_
  _space_group_symop_operation_xyz
  'x, y, z'

loop_
  _atom_site_type_symbol
  _atom_site_label
  _atom_site_symmetry_multiplicity
  _atom_site_fract_x
  _atom_site_fract_y
  _atom_site_fract_z
  _atom_site_occupancy
  Co  Co1       1.0  0.66667  0.33333  0.57292  1.0000
  Co  Co2       1.0  0.33333  0.66667  0.48958  1.0000
  Co  Co3       1.0  0.00000  0.00000  0.40625  1.0000
  Co  Co4       1.0  0.33333  0.66667  0.61458  1.0000
  Co  Co5       1.0  0.00000  0.00000  0.53125  1.0000
  Co  Co6       1.0  0.66667  0.33333  0.44792  1.0000
  Ga  Ga1       1.0  0.66667  0.33333  0.51042  1.0000
  Ga  Ga2       1.0  0.33333  0.66667  0.42708  1.0000
  Ga  Ga3       1.0  0.00000  0.00000  0.59375  1.0000
  V   V1        1.0  0.00000  0.00000  0.46875  1.0000
  V   V2        1.0  0.66667  0.33333  0.38542  1.0000
  V   V3        1.0  0.33333  0.66667  0.55208  1.0000
