data_image0
_chemical_formula_structural       Ca2Cu8In2
_chemical_formula_sum              "Ca2 Cu8 In2"
_cell_length_a       5.05642
_cell_length_b       5.05642
_cell_length_c       28.6034
_cell_angle_alpha    90
_cell_angle_beta     90
_cell_angle_gamma    90

_space_group_name_H-M_alt    "P 1"
_space_group_IT_number       1

loop_
  _space_group_symop_operation_xyz
  'x, y, z'

loop_
  _atom_site_type_symbol
  _atom_site_label
  _atom_site_symmetry_multiplicity
  _atom_site_fract_x
  _atom_site_fract_y
  _atom_site_fract_z
  _atom_site_occupancy
  Ca  Ca1       1.0  0.00000  0.00000  0.38542  1.0000
  Ca  Ca2       1.0  0.50000  0.50000  0.51042  1.0000
  Cu  Cu1       1.0  0.75128  0.00000  0.54151  1.0000
  Cu  Cu2       1.0  0.74872  0.50000  0.41651  1.0000
  Cu  Cu3       1.0  0.00000  0.75128  0.47933  1.0000
  Cu  Cu4       1.0  0.50000  0.74872  0.60433  1.0000
  Cu  Cu5       1.0  0.25128  0.50000  0.41651  1.0000
  Cu  Cu6       1.0  0.24872  0.00000  0.54151  1.0000
  Cu  Cu7       1.0  0.50000  0.25128  0.60433  1.0000
  Cu  Cu8       1.0  0.00000  0.24872  0.47933  1.0000
  In  In1       1.0  0.00000  0.50000  0.57292  1.0000
  In  In2       1.0  0.50000  0.00000  0.44792  1.0000
