data_image0
_chemical_formula_structural       Sn3Au15
_chemical_formula_sum              "Sn3 Au15"
_cell_length_a       5.08804
_cell_length_b       5.08804
_cell_length_c       42.9717
_cell_angle_alpha    90
_cell_angle_beta     90
_cell_angle_gamma    120

_space_group_name_H-M_alt    "P 1"
_space_group_IT_number       1

loop_
  _space_group_symop_operation_xyz
  'x, y, z'

loop_
  _atom_site_type_symbol
  _atom_site_label
  _atom_site_symmetry_multiplicity
  _atom_site_fract_x
  _atom_site_fract_y
  _atom_site_fract_z
  _atom_site_occupancy
  Sn  Sn1       1.0  0.66667  0.33333  0.41667  1.0000
  Sn  Sn2       1.0  0.33333  0.66667  0.52778  1.0000
  Sn  Sn3       1.0  0.00000  0.00000  0.63889  1.0000
  Au  Au1       1.0  0.00000  0.00000  0.41554  1.0000
  Au  Au2       1.0  0.00580  0.66667  0.36111  1.0000
  Au  Au3       1.0  0.66086  0.99420  0.36111  1.0000
  Au  Au4       1.0  0.33333  0.33914  0.36111  1.0000
  Au  Au5       1.0  0.66667  0.33333  0.64001  1.0000
  Au  Au6       1.0  0.66667  0.33333  0.52665  1.0000
  Au  Au7       1.0  0.67247  0.00000  0.47222  1.0000
  Au  Au8       1.0  0.32753  0.32753  0.47222  1.0000
  Au  Au9       1.0  0.00000  0.67247  0.47222  1.0000
  Au  Au10      1.0  0.33333  0.66667  0.41779  1.0000
  Au  Au11      1.0  0.33333  0.66667  0.63776  1.0000
  Au  Au12      1.0  0.33914  0.33333  0.58333  1.0000
  Au  Au13      1.0  0.99420  0.66086  0.58333  1.0000
  Au  Au14      1.0  0.66667  0.00580  0.58333  1.0000
  Au  Au15      1.0  0.00000  0.00000  0.52890  1.0000
