data_image0
_chemical_formula_structural       Co2Sb4Co2Sb4
_chemical_formula_sum              "Co4 Sb8"
_cell_length_a       3.34915
_cell_length_b       6.32868
_cell_length_c       33.2644
_cell_angle_alpha    90
_cell_angle_beta     90
_cell_angle_gamma    90

_space_group_name_H-M_alt    "P 1"
_space_group_IT_number       1

loop_
  _space_group_symop_operation_xyz
  'x, y, z'

loop_
  _atom_site_type_symbol
  _atom_site_label
  _atom_site_symmetry_multiplicity
  _atom_site_fract_x
  _atom_site_fract_y
  _atom_site_fract_z
  _atom_site_occupancy
  Co  Co1       1.0  0.00000  0.00000  0.48611  1.0000
  Co  Co2       1.0  0.50000  0.50000  0.40278  1.0000
  Sb  Sb1       1.0  0.00000  0.64316  0.45260  1.0000
  Sb  Sb2       1.0  0.00000  0.35684  0.35295  1.0000
  Sb  Sb3       1.0  0.50000  0.85684  0.36927  1.0000
  Sb  Sb4       1.0  0.50000  0.14316  0.43629  1.0000
  Co  Co3       1.0  0.00000  0.00000  0.65278  1.0000
  Co  Co4       1.0  0.50000  0.50000  0.56944  1.0000
  Sb  Sb5       1.0  0.00000  0.64316  0.61927  1.0000
  Sb  Sb6       1.0  0.00000  0.35684  0.51962  1.0000
  Sb  Sb7       1.0  0.50000  0.85684  0.53594  1.0000
  Sb  Sb8       1.0  0.50000  0.14316  0.60295  1.0000
