data_image0
_chemical_formula_structural       Al4Au8
_chemical_formula_sum              "Al4 Au8"
_cell_length_a       4.66233
_cell_length_b       5.01724
_cell_length_c       28.8998
_cell_angle_alpha    90.2223
_cell_angle_beta     90
_cell_angle_gamma    90

_space_group_name_H-M_alt    "P 1"
_space_group_IT_number       1

loop_
  _space_group_symop_operation_xyz
  'x, y, z'

loop_
  _atom_site_type_symbol
  _atom_site_label
  _atom_site_symmetry_multiplicity
  _atom_site_fract_x
  _atom_site_fract_y
  _atom_site_fract_z
  _atom_site_occupancy
  Al  Al1       1.0  0.00000  0.46429  0.51190  1.0000
  Al  Al2       1.0  0.50000  0.25000  0.58333  1.0000
  Al  Al3       1.0  0.00000  0.89286  0.36905  1.0000
  Al  Al4       1.0  0.50000  0.67857  0.44048  1.0000
  Au  Au1       1.0  0.00000  0.00718  0.56126  1.0000
  Au  Au2       1.0  0.50000  0.79290  0.63269  1.0000
  Au  Au3       1.0  0.00000  0.49282  0.60541  1.0000
  Au  Au4       1.0  0.50000  0.70710  0.53398  1.0000
  Au  Au5       1.0  0.00000  0.43575  0.41840  1.0000
  Au  Au6       1.0  0.50000  0.22147  0.48983  1.0000
  Au  Au7       1.0  0.00000  0.92139  0.46255  1.0000
  Au  Au8       1.0  0.50000  0.13568  0.39112  1.0000
