data_image0
_chemical_formula_structural       Ca12Au4Ca12Au4
_chemical_formula_sum              "Ca24 Au8"
_cell_length_a       7.72636
_cell_length_b       9.74607
_cell_length_c       33.4974
_cell_angle_alpha    90
_cell_angle_beta     90
_cell_angle_gamma    90

_space_group_name_H-M_alt    "P 1"
_space_group_IT_number       1

loop_
  _space_group_symop_operation_xyz
  'x, y, z'

loop_
  _atom_site_type_symbol
  _atom_site_label
  _atom_site_symmetry_multiplicity
  _atom_site_fract_x
  _atom_site_fract_y
  _atom_site_fract_z
  _atom_site_occupancy
  Ca  Ca1       1.0  0.17493  0.43628  0.38254  1.0000
  Ca  Ca2       1.0  0.32507  0.56372  0.48254  1.0000
  Ca  Ca3       1.0  0.67493  0.06372  0.41746  1.0000
  Ca  Ca4       1.0  0.82507  0.93628  0.31746  1.0000
  Ca  Ca5       1.0  0.03650  0.25000  0.47871  1.0000
  Ca  Ca6       1.0  0.46350  0.75000  0.37871  1.0000
  Ca  Ca7       1.0  0.53650  0.25000  0.32129  1.0000
  Ca  Ca8       1.0  0.96350  0.75000  0.42129  1.0000
  Ca  Ca9       1.0  0.17493  0.06372  0.38254  1.0000
  Ca  Ca10      1.0  0.32507  0.93628  0.48254  1.0000
  Ca  Ca11      1.0  0.67493  0.43628  0.41746  1.0000
  Ca  Ca12      1.0  0.82507  0.56372  0.31746  1.0000
  Au  Au1       1.0  0.62200  0.75000  0.45998  1.0000
  Au  Au2       1.0  0.87800  0.25000  0.35998  1.0000
  Au  Au3       1.0  0.12200  0.75000  0.34002  1.0000
  Au  Au4       1.0  0.37800  0.25000  0.44002  1.0000
  Ca  Ca13      1.0  0.17493  0.43628  0.58254  1.0000
  Ca  Ca14      1.0  0.32507  0.56372  0.68254  1.0000
  Ca  Ca15      1.0  0.67493  0.06372  0.61746  1.0000
  Ca  Ca16      1.0  0.82507  0.93628  0.51746  1.0000
  Ca  Ca17      1.0  0.03650  0.25000  0.67871  1.0000
  Ca  Ca18      1.0  0.46350  0.75000  0.57871  1.0000
  Ca  Ca19      1.0  0.53650  0.25000  0.52129  1.0000
  Ca  Ca20      1.0  0.96350  0.75000  0.62129  1.0000
  Ca  Ca21      1.0  0.17493  0.06372  0.58254  1.0000
  Ca  Ca22      1.0  0.32507  0.93628  0.68254  1.0000
  Ca  Ca23      1.0  0.67493  0.43628  0.61746  1.0000
  Ca  Ca24      1.0  0.82507  0.56372  0.51746  1.0000
  Au  Au5       1.0  0.62200  0.75000  0.65998  1.0000
  Au  Au6       1.0  0.87800  0.25000  0.55998  1.0000
  Au  Au7       1.0  0.12200  0.75000  0.54002  1.0000
  Au  Au8       1.0  0.37800  0.25000  0.64002  1.0000
