data_image0
_chemical_formula_structural       H12Ti6
_chemical_formula_sum              "H12 Ti6"
_cell_length_a       3.06788
_cell_length_b       5.25914
_cell_length_c       28.1902
_cell_angle_alpha    86.4377
_cell_angle_beta     88.6029
_cell_angle_gamma    76.2308

_space_group_name_H-M_alt    "P 1"
_space_group_IT_number       1

loop_
  _space_group_symop_operation_xyz
  'x, y, z'

loop_
  _atom_site_type_symbol
  _atom_site_label
  _atom_site_symmetry_multiplicity
  _atom_site_fract_x
  _atom_site_fract_y
  _atom_site_fract_z
  _atom_site_occupancy
  H   H1        1.0  0.88492  0.84524  0.38492  1.0000
  H   H2        1.0  0.59921  0.36905  0.43254  1.0000
  H   H3        1.0  0.31349  0.89286  0.48016  1.0000
  H   H4        1.0  0.24206  0.10714  0.40873  1.0000
  H   H5        1.0  0.95635  0.63095  0.45635  1.0000
  H   H6        1.0  0.52778  0.58333  0.36111  1.0000
  H   H7        1.0  0.02778  0.41667  0.52778  1.0000
  H   H8        1.0  0.74206  0.94048  0.57540  1.0000
  H   H9        1.0  0.45635  0.46429  0.62302  1.0000
  H   H10       1.0  0.38492  0.67857  0.55159  1.0000
  H   H11       1.0  0.09921  0.20238  0.59921  1.0000
  H   H12       1.0  0.67063  0.15476  0.50397  1.0000
  Ti  Ti1       1.0  0.49206  0.52381  0.49206  1.0000
  Ti  Ti2       1.0  0.06349  0.47619  0.39683  1.0000
  Ti  Ti3       1.0  0.77778  0.00000  0.44444  1.0000
  Ti  Ti4       1.0  0.63492  0.09524  0.63492  1.0000
  Ti  Ti5       1.0  0.20635  0.04762  0.53968  1.0000
  Ti  Ti6       1.0  0.92063  0.57143  0.58730  1.0000
