data_image0
_chemical_formula_structural       Ca8As4Ca8As4
_chemical_formula_sum              "Ca16 As8"
_cell_length_a       4.50547
_cell_length_b       15.6438
_cell_length_c       31.5383
_cell_angle_alpha    90
_cell_angle_beta     90
_cell_angle_gamma    90

_space_group_name_H-M_alt    "P 1"
_space_group_IT_number       1

loop_
  _space_group_symop_operation_xyz
  'x, y, z'

loop_
  _atom_site_type_symbol
  _atom_site_label
  _atom_site_symmetry_multiplicity
  _atom_site_fract_x
  _atom_site_fract_y
  _atom_site_fract_z
  _atom_site_occupancy
  Ca  Ca1       1.0  0.00000  0.00000  0.39286  1.0000
  Ca  Ca2       1.0  0.00000  0.50000  0.39286  1.0000
  Ca  Ca3       1.0  0.50000  0.82078  0.39286  1.0000
  Ca  Ca4       1.0  0.00000  0.67922  0.46429  1.0000
  Ca  Ca5       1.0  0.50000  0.50000  0.46429  1.0000
  Ca  Ca6       1.0  0.50000  0.00000  0.46429  1.0000
  Ca  Ca7       1.0  0.00000  0.32078  0.46429  1.0000
  Ca  Ca8       1.0  0.50000  0.17922  0.39286  1.0000
  As  As1       1.0  0.50000  0.63439  0.39286  1.0000
  As  As2       1.0  0.00000  0.86561  0.46429  1.0000
  As  As3       1.0  0.00000  0.13439  0.46429  1.0000
  As  As4       1.0  0.50000  0.36561  0.39286  1.0000
  Ca  Ca9       1.0  0.00000  0.00000  0.53571  1.0000
  Ca  Ca10      1.0  0.00000  0.50000  0.53571  1.0000
  Ca  Ca11      1.0  0.50000  0.82078  0.53571  1.0000
  Ca  Ca12      1.0  0.00000  0.67922  0.60714  1.0000
  Ca  Ca13      1.0  0.50000  0.50000  0.60714  1.0000
  Ca  Ca14      1.0  0.50000  0.00000  0.60714  1.0000
  Ca  Ca15      1.0  0.00000  0.32078  0.60714  1.0000
  Ca  Ca16      1.0  0.50000  0.17922  0.53571  1.0000
  As  As5       1.0  0.50000  0.63439  0.53571  1.0000
  As  As6       1.0  0.00000  0.86561  0.60714  1.0000
  As  As7       1.0  0.00000  0.13439  0.60714  1.0000
  As  As8       1.0  0.50000  0.36561  0.53571  1.0000
