data_image0
_chemical_formula_structural       V2Pd4V2Pd4V2Pd4V2Pd4
_chemical_formula_sum              "V8 Pd16"
_cell_length_a       3.74293
_cell_length_b       9.80266
_cell_length_c       35.0531
_cell_angle_alpha    123.376
_cell_angle_beta     90
_cell_angle_gamma    90

_space_group_name_H-M_alt    "P 1"
_space_group_IT_number       1

loop_
  _space_group_symop_operation_xyz
  'x, y, z'

loop_
  _atom_site_type_symbol
  _atom_site_label
  _atom_site_symmetry_multiplicity
  _atom_site_fract_x
  _atom_site_fract_y
  _atom_site_fract_z
  _atom_site_occupancy
  V   V1        1.0  0.00000  0.00000  0.40385  1.0000
  V   V2        1.0  0.50000  0.50000  0.36538  1.0000
  Pd  Pd1       1.0  0.50000  0.16195  0.39030  1.0000
  Pd  Pd2       1.0  0.00000  0.33805  0.37893  1.0000
  Pd  Pd3       1.0  0.00000  0.66195  0.35184  1.0000
  Pd  Pd4       1.0  0.50000  0.83805  0.41739  1.0000
  V   V3        1.0  0.00000  0.00000  0.48077  1.0000
  V   V4        1.0  0.50000  0.50000  0.44231  1.0000
  Pd  Pd5       1.0  0.50000  0.16195  0.46722  1.0000
  Pd  Pd6       1.0  0.00000  0.33805  0.45585  1.0000
  Pd  Pd7       1.0  0.00000  0.66195  0.42876  1.0000
  Pd  Pd8       1.0  0.50000  0.83805  0.49432  1.0000
  V   V5        1.0  0.00000  0.00000  0.55769  1.0000
  V   V6        1.0  0.50000  0.50000  0.51923  1.0000
  Pd  Pd9       1.0  0.50000  0.16195  0.54415  1.0000
  Pd  Pd10      1.0  0.00000  0.33805  0.53278  1.0000
  Pd  Pd11      1.0  0.00000  0.66195  0.50568  1.0000
  Pd  Pd12      1.0  0.50000  0.83805  0.57124  1.0000
  V   V7        1.0  0.00000  0.00000  0.63462  1.0000
  V   V8        1.0  0.50000  0.50000  0.59615  1.0000
  Pd  Pd13      1.0  0.50000  0.16195  0.62107  1.0000
  Pd  Pd14      1.0  0.00000  0.33805  0.60970  1.0000
  Pd  Pd15      1.0  0.00000  0.66195  0.58261  1.0000
  Pd  Pd16      1.0  0.50000  0.83805  0.64816  1.0000
