data_image0
_chemical_formula_structural       Cr6Sn6Rh12
_chemical_formula_sum              "Cr6 Sn6 Rh12"
_cell_length_a       4.01511
_cell_length_b       10.7463
_cell_length_c       32.7707
_cell_angle_alpha    77.6991
_cell_angle_beta     90
_cell_angle_gamma    90

_space_group_name_H-M_alt    "P 1"
_space_group_IT_number       1

loop_
  _space_group_symop_operation_xyz
  'x, y, z'

loop_
  _atom_site_type_symbol
  _atom_site_label
  _atom_site_symmetry_multiplicity
  _atom_site_fract_x
  _atom_site_fract_y
  _atom_site_fract_z
  _atom_site_occupancy
  Cr  Cr1       1.0  0.00000  0.66667  0.43750  1.0000
  Cr  Cr2       1.0  0.00000  0.00000  0.60417  1.0000
  Cr  Cr3       1.0  0.00000  0.33333  0.52083  1.0000
  Cr  Cr4       1.0  0.50000  0.66667  0.56250  1.0000
  Cr  Cr5       1.0  0.50000  0.00000  0.47917  1.0000
  Cr  Cr6       1.0  0.50000  0.33333  0.39583  1.0000
  Sn  Sn1       1.0  0.50000  0.50000  0.47917  1.0000
  Sn  Sn2       1.0  0.50000  0.83333  0.39583  1.0000
  Sn  Sn3       1.0  0.50000  0.16667  0.56250  1.0000
  Sn  Sn4       1.0  0.00000  0.83333  0.52083  1.0000
  Sn  Sn5       1.0  0.00000  0.16667  0.43750  1.0000
  Sn  Sn6       1.0  0.00000  0.50000  0.60417  1.0000
  Rh  Rh1       1.0  0.50000  0.75000  0.47917  1.0000
  Rh  Rh2       1.0  0.50000  0.08333  0.39583  1.0000
  Rh  Rh3       1.0  0.50000  0.41667  0.56250  1.0000
  Rh  Rh4       1.0  0.00000  0.58333  0.52083  1.0000
  Rh  Rh5       1.0  0.00000  0.91667  0.43750  1.0000
  Rh  Rh6       1.0  0.00000  0.25000  0.60417  1.0000
  Rh  Rh7       1.0  0.00000  0.75000  0.60417  1.0000
  Rh  Rh8       1.0  0.00000  0.08333  0.52083  1.0000
  Rh  Rh9       1.0  0.00000  0.41667  0.43750  1.0000
  Rh  Rh10      1.0  0.50000  0.91667  0.56250  1.0000
  Rh  Rh11      1.0  0.50000  0.25000  0.47917  1.0000
  Rh  Rh12      1.0  0.50000  0.58333  0.39583  1.0000
