data_image0
_chemical_formula_structural       Co8As8Co8As8
_chemical_formula_sum              "Co16 As16"
_cell_length_a       6.0778
_cell_length_b       6.07734
_cell_length_c       36.464
_cell_angle_alpha    70.5349
_cell_angle_beta     90
_cell_angle_gamma    90

_space_group_name_H-M_alt    "P 1"
_space_group_IT_number       1

loop_
  _space_group_symop_operation_xyz
  'x, y, z'

loop_
  _atom_site_type_symbol
  _atom_site_label
  _atom_site_symmetry_multiplicity
  _atom_site_fract_x
  _atom_site_fract_y
  _atom_site_fract_z
  _atom_site_occupancy
  Co  Co1       1.0  0.00000  0.25000  0.36458  1.0000
  Co  Co2       1.0  0.00000  0.75000  0.44792  1.0000
  Co  Co3       1.0  0.50000  0.00000  0.40625  1.0000
  Co  Co4       1.0  0.50000  0.50000  0.48958  1.0000
  Co  Co5       1.0  0.00000  0.50000  0.40625  1.0000
  Co  Co6       1.0  0.00000  0.00000  0.48958  1.0000
  Co  Co7       1.0  0.50000  0.25000  0.44792  1.0000
  Co  Co8       1.0  0.50000  0.75000  0.36458  1.0000
  As  As1       1.0  0.16667  0.37500  0.46875  1.0000
  As  As2       1.0  0.16667  0.87500  0.38542  1.0000
  As  As3       1.0  0.66667  0.12500  0.34375  1.0000
  As  As4       1.0  0.66667  0.62500  0.42708  1.0000
  As  As5       1.0  0.33333  0.37500  0.38542  1.0000
  As  As6       1.0  0.33333  0.87500  0.46875  1.0000
  As  As7       1.0  0.83333  0.12500  0.42708  1.0000
  As  As8       1.0  0.83333  0.62500  0.34375  1.0000
  Co  Co9       1.0  0.00000  0.25000  0.53125  1.0000
  Co  Co10      1.0  0.00000  0.75000  0.61458  1.0000
  Co  Co11      1.0  0.50000  0.00000  0.57292  1.0000
  Co  Co12      1.0  0.50000  0.50000  0.65625  1.0000
  Co  Co13      1.0  0.00000  0.50000  0.57292  1.0000
  Co  Co14      1.0  0.00000  0.00000  0.65625  1.0000
  Co  Co15      1.0  0.50000  0.25000  0.61458  1.0000
  Co  Co16      1.0  0.50000  0.75000  0.53125  1.0000
  As  As9       1.0  0.16667  0.37500  0.63542  1.0000
  As  As10      1.0  0.16667  0.87500  0.55208  1.0000
  As  As11      1.0  0.66667  0.12500  0.51042  1.0000
  As  As12      1.0  0.66667  0.62500  0.59375  1.0000
  As  As13      1.0  0.33333  0.37500  0.55208  1.0000
  As  As14      1.0  0.33333  0.87500  0.63542  1.0000
  As  As15      1.0  0.83333  0.12500  0.59375  1.0000
  As  As16      1.0  0.83333  0.62500  0.51042  1.0000
