data_image0
_chemical_formula_structural       In8Ag4In8Ag4
_chemical_formula_sum              "In16 Ag8"
_cell_length_a       6.76379
_cell_length_b       6.76379
_cell_length_c       34.2641
_cell_angle_alpha    90
_cell_angle_beta     90
_cell_angle_gamma    90

_space_group_name_H-M_alt    "P 1"
_space_group_IT_number       1

loop_
  _space_group_symop_operation_xyz
  'x, y, z'

loop_
  _atom_site_type_symbol
  _atom_site_label
  _atom_site_symmetry_multiplicity
  _atom_site_fract_x
  _atom_site_fract_y
  _atom_site_fract_z
  _atom_site_occupancy
  In  In1       1.0  0.34451  0.84451  0.38889  1.0000
  In  In2       1.0  0.15549  0.34451  0.38889  1.0000
  In  In3       1.0  0.34451  0.15549  0.47222  1.0000
  In  In4       1.0  0.15549  0.65549  0.47222  1.0000
  In  In5       1.0  0.84451  0.34451  0.47222  1.0000
  In  In6       1.0  0.65549  0.84451  0.47222  1.0000
  In  In7       1.0  0.84451  0.65549  0.38889  1.0000
  In  In8       1.0  0.65549  0.15549  0.38889  1.0000
  Ag  Ag1       1.0  0.50000  0.50000  0.34722  1.0000
  Ag  Ag2       1.0  0.00000  0.00000  0.34722  1.0000
  Ag  Ag3       1.0  0.00000  0.00000  0.43056  1.0000
  Ag  Ag4       1.0  0.50000  0.50000  0.43056  1.0000
  In  In9       1.0  0.34451  0.84451  0.55556  1.0000
  In  In10      1.0  0.15549  0.34451  0.55556  1.0000
  In  In11      1.0  0.34451  0.15549  0.63889  1.0000
  In  In12      1.0  0.15549  0.65549  0.63889  1.0000
  In  In13      1.0  0.84451  0.34451  0.63889  1.0000
  In  In14      1.0  0.65549  0.84451  0.63889  1.0000
  In  In15      1.0  0.84451  0.65549  0.55556  1.0000
  In  In16      1.0  0.65549  0.15549  0.55556  1.0000
  Ag  Ag5       1.0  0.50000  0.50000  0.51389  1.0000
  Ag  Ag6       1.0  0.00000  0.00000  0.51389  1.0000
  Ag  Ag7       1.0  0.00000  0.00000  0.59722  1.0000
  Ag  Ag8       1.0  0.50000  0.50000  0.59722  1.0000
