data_image0
_chemical_formula_structural       Ti4Al8Ti4Al8
_chemical_formula_sum              "Ti8 Al16"
_cell_length_a       3.89922
_cell_length_b       12.694
_cell_length_c       31.7671
_cell_angle_alpha    71.7709
_cell_angle_beta     90
_cell_angle_gamma    90

_space_group_name_H-M_alt    "P 1"
_space_group_IT_number       1

loop_
  _space_group_symop_operation_xyz
  'x, y, z'

loop_
  _atom_site_type_symbol
  _atom_site_label
  _atom_site_symmetry_multiplicity
  _atom_site_fract_x
  _atom_site_fract_y
  _atom_site_fract_z
  _atom_site_occupancy
  Ti  Ti1       1.0  0.50000  0.15601  0.47008  1.0000
  Ti  Ti2       1.0  0.00000  0.34399  0.44658  1.0000
  Ti  Ti3       1.0  0.00000  0.65601  0.40758  1.0000
  Ti  Ti4       1.0  0.50000  0.84399  0.38408  1.0000
  Al  Al1       1.0  0.00000  0.00000  0.48958  1.0000
  Al  Al2       1.0  0.50000  0.00000  0.42708  1.0000
  Al  Al3       1.0  0.50000  0.32708  0.38620  1.0000
  Al  Al4       1.0  0.00000  0.17292  0.40547  1.0000
  Al  Al5       1.0  0.50000  0.50000  0.42708  1.0000
  Al  Al6       1.0  0.00000  0.50000  0.48958  1.0000
  Al  Al7       1.0  0.00000  0.82708  0.44870  1.0000
  Al  Al8       1.0  0.50000  0.67292  0.46797  1.0000
  Ti  Ti5       1.0  0.50000  0.15601  0.59508  1.0000
  Ti  Ti6       1.0  0.00000  0.34399  0.57158  1.0000
  Ti  Ti7       1.0  0.00000  0.65601  0.53258  1.0000
  Ti  Ti8       1.0  0.50000  0.84399  0.50908  1.0000
  Al  Al9       1.0  0.00000  0.00000  0.61458  1.0000
  Al  Al10      1.0  0.50000  0.00000  0.55208  1.0000
  Al  Al11      1.0  0.50000  0.32708  0.51120  1.0000
  Al  Al12      1.0  0.00000  0.17292  0.53047  1.0000
  Al  Al13      1.0  0.50000  0.50000  0.55208  1.0000
  Al  Al14      1.0  0.00000  0.50000  0.61458  1.0000
  Al  Al15      1.0  0.00000  0.82708  0.57370  1.0000
  Al  Al16      1.0  0.50000  0.67292  0.59297  1.0000
