data_image0
_chemical_formula_structural       Ag24Al12
_chemical_formula_sum              "Ag24 Al12"
_cell_length_a       5.00051
_cell_length_b       9.73478
_cell_length_c       35.7598
_cell_angle_alpha    88.421
_cell_angle_beta     89.9223
_cell_angle_gamma    89.8573

_space_group_name_H-M_alt    "P 1"
_space_group_IT_number       1

loop_
  _space_group_symop_operation_xyz
  'x, y, z'

loop_
  _atom_site_type_symbol
  _atom_site_label
  _atom_site_symmetry_multiplicity
  _atom_site_fract_x
  _atom_site_fract_y
  _atom_site_fract_z
  _atom_site_occupancy
  Ag  Ag1       1.0  0.09380  0.98533  0.62092  1.0000
  Ag  Ag2       1.0  0.09380  0.20755  0.50981  1.0000
  Ag  Ag3       1.0  0.59380  0.59644  0.56536  1.0000
  Ag  Ag4       1.0  0.11234  0.24940  0.65864  1.0000
  Ag  Ag5       1.0  0.11234  0.47162  0.54753  1.0000
  Ag  Ag6       1.0  0.61234  0.86051  0.60309  1.0000
  Ag  Ag7       1.0  0.27655  0.95431  0.54506  1.0000
  Ag  Ag8       1.0  0.77655  0.34320  0.60062  1.0000
  Ag  Ag9       1.0  0.27655  0.73208  0.65617  1.0000
  Ag  Ag10      1.0  0.79509  0.82948  0.52723  1.0000
  Ag  Ag11      1.0  0.29509  0.21837  0.58278  1.0000
  Ag  Ag12      1.0  0.79509  0.60726  0.63834  1.0000
  Ag  Ag13      1.0  0.59380  0.81866  0.45425  1.0000
  Ag  Ag14      1.0  0.59380  0.04089  0.34314  1.0000
  Ag  Ag15      1.0  0.09380  0.42978  0.39870  1.0000
  Ag  Ag16      1.0  0.61234  0.08273  0.49198  1.0000
  Ag  Ag17      1.0  0.61234  0.30495  0.38087  1.0000
  Ag  Ag18      1.0  0.11234  0.69384  0.43642  1.0000
  Ag  Ag19      1.0  0.77655  0.78764  0.37839  1.0000
  Ag  Ag20      1.0  0.27655  0.17653  0.43395  1.0000
  Ag  Ag21      1.0  0.77655  0.56542  0.48950  1.0000
  Ag  Ag22      1.0  0.29509  0.66282  0.36056  1.0000
  Ag  Ag23      1.0  0.79509  0.05171  0.41612  1.0000
  Ag  Ag24      1.0  0.29509  0.44059  0.47167  1.0000
  Al  Al1       1.0  0.60780  0.11368  0.63926  1.0000
  Al  Al2       1.0  0.60780  0.33591  0.52815  1.0000
  Al  Al3       1.0  0.10780  0.72480  0.58370  1.0000
  Al  Al4       1.0  0.78109  0.09002  0.56445  1.0000
  Al  Al5       1.0  0.28109  0.47891  0.62000  1.0000
  Al  Al6       1.0  0.28109  0.70113  0.50889  1.0000
  Al  Al7       1.0  0.10780  0.94702  0.47259  1.0000
  Al  Al8       1.0  0.10780  0.16924  0.36148  1.0000
  Al  Al9       1.0  0.60780  0.55813  0.41703  1.0000
  Al  Al10      1.0  0.28109  0.92335  0.39778  1.0000
  Al  Al11      1.0  0.78109  0.31224  0.45334  1.0000
  Al  Al12      1.0  0.78109  0.53446  0.34222  1.0000
