data_image0
_chemical_formula_structural       Ti5Ga5Ti5Ga5
_chemical_formula_sum              "Ti10 Ga10"
_cell_length_a       6.21052
_cell_length_b       4.80411
_cell_length_c       33.2952
_cell_angle_alpha    73.3212
_cell_angle_beta     77.0656
_cell_angle_gamma    75.0159

_space_group_name_H-M_alt    "P 1"
_space_group_IT_number       1

loop_
  _space_group_symop_operation_xyz
  'x, y, z'

loop_
  _atom_site_type_symbol
  _atom_site_label
  _atom_site_symmetry_multiplicity
  _atom_site_fract_x
  _atom_site_fract_y
  _atom_site_fract_z
  _atom_site_occupancy
  Ti  Ti1       1.0  0.40000  0.80000  0.44167  1.0000
  Ti  Ti2       1.0  0.80000  0.60000  0.47500  1.0000
  Ti  Ti3       1.0  0.00000  0.00000  0.40833  1.0000
  Ti  Ti4       1.0  0.20000  0.40000  0.34167  1.0000
  Ti  Ti5       1.0  0.60000  0.20000  0.37500  1.0000
  Ga  Ga1       1.0  0.40000  0.80000  0.35833  1.0000
  Ga  Ga2       1.0  0.80000  0.60000  0.39167  1.0000
  Ga  Ga3       1.0  0.00000  0.00000  0.49167  1.0000
  Ga  Ga4       1.0  0.20000  0.40000  0.42500  1.0000
  Ga  Ga5       1.0  0.60000  0.20000  0.45833  1.0000
  Ti  Ti6       1.0  0.40000  0.80000  0.60833  1.0000
  Ti  Ti7       1.0  0.80000  0.60000  0.64167  1.0000
  Ti  Ti8       1.0  0.00000  0.00000  0.57500  1.0000
  Ti  Ti9       1.0  0.20000  0.40000  0.50833  1.0000
  Ti  Ti10      1.0  0.60000  0.20000  0.54167  1.0000
  Ga  Ga6       1.0  0.40000  0.80000  0.52500  1.0000
  Ga  Ga7       1.0  0.80000  0.60000  0.55833  1.0000
  Ga  Ga8       1.0  0.00000  0.00000  0.65833  1.0000
  Ga  Ga9       1.0  0.20000  0.40000  0.59167  1.0000
  Ga  Ga10      1.0  0.60000  0.20000  0.62500  1.0000
