data_image0
_chemical_formula_structural       Sn16Au4
_chemical_formula_sum              "Sn16 Au4"
_cell_length_a       6.55099
_cell_length_b       6.52731
_cell_length_c       34.9145
_cell_angle_alpha    90
_cell_angle_beta     90
_cell_angle_gamma    90

_space_group_name_H-M_alt    "P 1"
_space_group_IT_number       1

loop_
  _space_group_symop_operation_xyz
  'x, y, z'

loop_
  _atom_site_type_symbol
  _atom_site_label
  _atom_site_symmetry_multiplicity
  _atom_site_fract_x
  _atom_site_fract_y
  _atom_site_fract_z
  _atom_site_occupancy
  Sn  Sn1       1.0  0.33993  0.33331  0.44117  1.0000
  Sn  Sn2       1.0  0.66007  0.66669  0.44117  1.0000
  Sn  Sn3       1.0  0.83993  0.16669  0.44117  1.0000
  Sn  Sn4       1.0  0.16007  0.83331  0.44117  1.0000
  Sn  Sn5       1.0  0.66007  0.16669  0.35883  1.0000
  Sn  Sn6       1.0  0.33993  0.83331  0.35883  1.0000
  Sn  Sn7       1.0  0.16007  0.33331  0.35883  1.0000
  Sn  Sn8       1.0  0.83993  0.66669  0.35883  1.0000
  Sn  Sn9       1.0  0.83993  0.33331  0.60783  1.0000
  Sn  Sn10      1.0  0.16007  0.66669  0.60783  1.0000
  Sn  Sn11      1.0  0.33993  0.16669  0.60783  1.0000
  Sn  Sn12      1.0  0.66007  0.83331  0.60783  1.0000
  Sn  Sn13      1.0  0.16007  0.16669  0.52550  1.0000
  Sn  Sn14      1.0  0.83993  0.83331  0.52550  1.0000
  Sn  Sn15      1.0  0.66007  0.33331  0.52550  1.0000
  Sn  Sn16      1.0  0.33993  0.66669  0.52550  1.0000
  Au  Au1       1.0  0.50000  0.50000  0.65000  1.0000
  Au  Au2       1.0  0.00000  0.00000  0.65000  1.0000
  Au  Au3       1.0  0.00000  0.50000  0.48333  1.0000
  Au  Au4       1.0  0.50000  0.00000  0.48333  1.0000
