data_image0
_chemical_formula_structural       V4H2V4H2V4H2
_chemical_formula_sum              "V12 H6"
_cell_length_a       4.37743
_cell_length_b       4.37803
_cell_length_c       29.0783
_cell_angle_alpha    90
_cell_angle_beta     90
_cell_angle_gamma    97.326

_space_group_name_H-M_alt    "P 1"
_space_group_IT_number       1

loop_
  _space_group_symop_operation_xyz
  'x, y, z'

loop_
  _atom_site_type_symbol
  _atom_site_label
  _atom_site_symmetry_multiplicity
  _atom_site_fract_x
  _atom_site_fract_y
  _atom_site_fract_z
  _atom_site_occupancy
  V   V1        1.0  0.76960  0.73161  0.37500  1.0000
  V   V2        1.0  0.23040  0.26839  0.37500  1.0000
  V   V3        1.0  0.26960  0.73161  0.42500  1.0000
  V   V4        1.0  0.73040  0.26839  0.42500  1.0000
  H   H1        1.0  0.50000  0.00000  0.37500  1.0000
  H   H2        1.0  0.00000  0.00000  0.42500  1.0000
  V   V5        1.0  0.76960  0.73161  0.47500  1.0000
  V   V6        1.0  0.23040  0.26839  0.47500  1.0000
  V   V7        1.0  0.26960  0.73161  0.52500  1.0000
  V   V8        1.0  0.73040  0.26839  0.52500  1.0000
  H   H3        1.0  0.50000  0.00000  0.47500  1.0000
  H   H4        1.0  0.00000  0.00000  0.52500  1.0000
  V   V9        1.0  0.76960  0.73161  0.57500  1.0000
  V   V10       1.0  0.23040  0.26839  0.57500  1.0000
  V   V11       1.0  0.26960  0.73161  0.62500  1.0000
  V   V12       1.0  0.73040  0.26839  0.62500  1.0000
  H   H5        1.0  0.50000  0.00000  0.57500  1.0000
  H   H6        1.0  0.00000  0.00000  0.62500  1.0000
