data_image0
_chemical_formula_structural       Rh4Pb8Rh4Pb8
_chemical_formula_sum              "Rh8 Pb16"
_cell_length_a       6.66439
_cell_length_b       6.66439
_cell_length_c       34.9128
_cell_angle_alpha    90
_cell_angle_beta     90
_cell_angle_gamma    90

_space_group_name_H-M_alt    "P 1"
_space_group_IT_number       1

loop_
  _space_group_symop_operation_xyz
  'x, y, z'

loop_
  _atom_site_type_symbol
  _atom_site_label
  _atom_site_symmetry_multiplicity
  _atom_site_fract_x
  _atom_site_fract_y
  _atom_site_fract_z
  _atom_site_occupancy
  Rh  Rh1       1.0  0.00000  0.00000  0.43056  1.0000
  Rh  Rh2       1.0  0.00000  0.00000  0.34722  1.0000
  Rh  Rh3       1.0  0.50000  0.50000  0.34722  1.0000
  Rh  Rh4       1.0  0.50000  0.50000  0.43056  1.0000
  Pb  Pb1       1.0  0.33275  0.83275  0.38889  1.0000
  Pb  Pb2       1.0  0.16725  0.66725  0.47222  1.0000
  Pb  Pb3       1.0  0.16725  0.33275  0.38889  1.0000
  Pb  Pb4       1.0  0.33275  0.16725  0.47222  1.0000
  Pb  Pb5       1.0  0.83275  0.33275  0.47222  1.0000
  Pb  Pb6       1.0  0.66725  0.16725  0.38889  1.0000
  Pb  Pb7       1.0  0.66725  0.83275  0.47222  1.0000
  Pb  Pb8       1.0  0.83275  0.66725  0.38889  1.0000
  Rh  Rh5       1.0  0.00000  0.00000  0.59722  1.0000
  Rh  Rh6       1.0  0.00000  0.00000  0.51389  1.0000
  Rh  Rh7       1.0  0.50000  0.50000  0.51389  1.0000
  Rh  Rh8       1.0  0.50000  0.50000  0.59722  1.0000
  Pb  Pb9       1.0  0.33275  0.83275  0.55556  1.0000
  Pb  Pb10      1.0  0.16725  0.66725  0.63889  1.0000
  Pb  Pb11      1.0  0.16725  0.33275  0.55556  1.0000
  Pb  Pb12      1.0  0.33275  0.16725  0.63889  1.0000
  Pb  Pb13      1.0  0.83275  0.33275  0.63889  1.0000
  Pb  Pb14      1.0  0.66725  0.16725  0.55556  1.0000
  Pb  Pb15      1.0  0.66725  0.83275  0.63889  1.0000
  Pb  Pb16      1.0  0.83275  0.66725  0.55556  1.0000
