data_image0
_chemical_formula_structural       Sb8Ru8Sb8Ru8
_chemical_formula_sum              "Sb16 Ru16"
_cell_length_a       6.57499
_cell_length_b       6.9766
_cell_length_c       41.8596
_cell_angle_alpha    65.039
_cell_angle_beta     90
_cell_angle_gamma    90

_space_group_name_H-M_alt    "P 1"
_space_group_IT_number       1

loop_
  _space_group_symop_operation_xyz
  'x, y, z'

loop_
  _atom_site_type_symbol
  _atom_site_label
  _atom_site_symmetry_multiplicity
  _atom_site_fract_x
  _atom_site_fract_y
  _atom_site_fract_z
  _atom_site_occupancy
  Sb  Sb1       1.0  0.41999  0.47514  0.45419  1.0000
  Sb  Sb2       1.0  0.41999  0.97514  0.37086  1.0000
  Sb  Sb3       1.0  0.58001  0.52486  0.37914  1.0000
  Sb  Sb4       1.0  0.58001  0.02486  0.46248  1.0000
  Sb  Sb5       1.0  0.08001  0.72514  0.49586  1.0000
  Sb  Sb6       1.0  0.08001  0.22514  0.41252  1.0000
  Sb  Sb7       1.0  0.91999  0.27486  0.33748  1.0000
  Sb  Sb8       1.0  0.91999  0.77486  0.42081  1.0000
  Ru  Ru1       1.0  0.79400  0.37852  0.43809  1.0000
  Ru  Ru2       1.0  0.79400  0.87852  0.35475  1.0000
  Ru  Ru3       1.0  0.20600  0.62148  0.39525  1.0000
  Ru  Ru4       1.0  0.20600  0.12148  0.47858  1.0000
  Ru  Ru5       1.0  0.70600  0.62852  0.47975  1.0000
  Ru  Ru6       1.0  0.70600  0.12852  0.39642  1.0000
  Ru  Ru7       1.0  0.29400  0.37148  0.35358  1.0000
  Ru  Ru8       1.0  0.29400  0.87148  0.43691  1.0000
  Sb  Sb9       1.0  0.41999  0.47514  0.62086  1.0000
  Sb  Sb10      1.0  0.41999  0.97514  0.53752  1.0000
  Sb  Sb11      1.0  0.58001  0.52486  0.54581  1.0000
  Sb  Sb12      1.0  0.58001  0.02486  0.62914  1.0000
  Sb  Sb13      1.0  0.08001  0.72514  0.66252  1.0000
  Sb  Sb14      1.0  0.08001  0.22514  0.57919  1.0000
  Sb  Sb15      1.0  0.91999  0.27486  0.50414  1.0000
  Sb  Sb16      1.0  0.91999  0.77486  0.58748  1.0000
  Ru  Ru9       1.0  0.79400  0.37852  0.60475  1.0000
  Ru  Ru10      1.0  0.79400  0.87852  0.52142  1.0000
  Ru  Ru11      1.0  0.20600  0.62148  0.56191  1.0000
  Ru  Ru12      1.0  0.20600  0.12148  0.64525  1.0000
  Ru  Ru13      1.0  0.70600  0.62852  0.64642  1.0000
  Ru  Ru14      1.0  0.70600  0.12852  0.56309  1.0000
  Ru  Ru15      1.0  0.29400  0.37148  0.52025  1.0000
  Ru  Ru16      1.0  0.29400  0.87148  0.60358  1.0000
