data_image0
_chemical_formula_structural       Nb18Rh18
_chemical_formula_sum              "Nb18 Rh18"
_cell_length_a       7.44694
_cell_length_b       7.54186
_cell_length_c       30.0702
_cell_angle_alpha    87.9252
_cell_angle_beta     88.7097
_cell_angle_gamma    82.1786

_space_group_name_H-M_alt    "P 1"
_space_group_IT_number       1

loop_
  _space_group_symop_operation_xyz
  'x, y, z'

loop_
  _atom_site_type_symbol
  _atom_site_label
  _atom_site_symmetry_multiplicity
  _atom_site_fract_x
  _atom_site_fract_y
  _atom_site_fract_z
  _atom_site_occupancy
  Nb  Nb1       1.0  0.56790  0.64146  0.59713  1.0000
  Nb  Nb2       1.0  0.84567  0.75257  0.54158  1.0000
  Nb  Nb3       1.0  0.29012  0.53035  0.65269  1.0000
  Nb  Nb4       1.0  0.77315  0.28704  0.60648  1.0000
  Nb  Nb5       1.0  0.05093  0.39815  0.55093  1.0000
  Nb  Nb6       1.0  0.49537  0.17593  0.66204  1.0000
  Nb  Nb7       1.0  0.53396  0.15484  0.50472  1.0000
  Nb  Nb8       1.0  0.97840  0.93261  0.61583  1.0000
  Nb  Nb9       1.0  0.25618  0.04372  0.56027  1.0000
  Nb  Nb10      1.0  0.40123  0.97479  0.43047  1.0000
  Nb  Nb11      1.0  0.67901  0.08591  0.37491  1.0000
  Nb  Nb12      1.0  0.12345  0.86368  0.48602  1.0000
  Nb  Nb13      1.0  0.60648  0.62037  0.43981  1.0000
  Nb  Nb14      1.0  0.88426  0.73148  0.38426  1.0000
  Nb  Nb15      1.0  0.32870  0.50926  0.49537  1.0000
  Nb  Nb16      1.0  0.36729  0.48817  0.33805  1.0000
  Nb  Nb17      1.0  0.81173  0.26595  0.44916  1.0000
  Nb  Nb18      1.0  0.08951  0.37706  0.39361  1.0000
  Rh  Rh1       1.0  0.68981  0.45370  0.52315  1.0000
  Rh  Rh2       1.0  0.13426  0.23148  0.63426  1.0000
  Rh  Rh3       1.0  0.41204  0.34259  0.57870  1.0000
  Rh  Rh4       1.0  0.48939  0.80309  0.51457  1.0000
  Rh  Rh5       1.0  0.93383  0.58087  0.62568  1.0000
  Rh  Rh6       1.0  0.21161  0.69198  0.57013  1.0000
  Rh  Rh7       1.0  0.89024  0.10432  0.53173  1.0000
  Rh  Rh8       1.0  0.33468  0.88210  0.64284  1.0000
  Rh  Rh9       1.0  0.61246  0.99321  0.58728  1.0000
  Rh  Rh10      1.0  0.52315  0.78704  0.35648  1.0000
  Rh  Rh11      1.0  0.96759  0.56481  0.46759  1.0000
  Rh  Rh12      1.0  0.24537  0.67593  0.41204  1.0000
  Rh  Rh13      1.0  0.32272  0.13642  0.34790  1.0000
  Rh  Rh14      1.0  0.76717  0.91420  0.45902  1.0000
  Rh  Rh15      1.0  0.04495  0.02531  0.40346  1.0000
  Rh  Rh16      1.0  0.72357  0.43765  0.36506  1.0000
  Rh  Rh17      1.0  0.16802  0.21543  0.47617  1.0000
  Rh  Rh18      1.0  0.44579  0.32654  0.42061  1.0000
