data_image0
_chemical_formula_structural       As18W12
_chemical_formula_sum              "As18 W12"
_cell_length_a       6.85778
_cell_length_b       9.34086
_cell_length_c       30.4791
_cell_angle_alpha    87.0601
_cell_angle_beta     84.4094
_cell_angle_gamma    75.554

_space_group_name_H-M_alt    "P 1"
_space_group_IT_number       1

loop_
  _space_group_symop_operation_xyz
  'x, y, z'

loop_
  _atom_site_type_symbol
  _atom_site_label
  _atom_site_symmetry_multiplicity
  _atom_site_fract_x
  _atom_site_fract_y
  _atom_site_fract_z
  _atom_site_occupancy
  As  As1       1.0  0.84916  0.23053  0.56938  1.0000
  As  As2       1.0  0.96902  0.40583  0.61243  1.0000
  As  As3       1.0  0.22767  0.05921  0.62702  1.0000
  As  As4       1.0  0.59052  0.57715  0.55480  1.0000
  As  As5       1.0  0.64199  0.92467  0.56107  1.0000
  As  As6       1.0  0.17619  0.71170  0.62075  1.0000
  As  As7       1.0  0.94007  0.41235  0.47847  1.0000
  As  As8       1.0  0.05993  0.58765  0.52153  1.0000
  As  As9       1.0  0.31858  0.24103  0.53611  1.0000
  As  As10      1.0  0.68142  0.75897  0.46389  1.0000
  As  As11      1.0  0.73290  0.10649  0.47016  1.0000
  As  As12      1.0  0.26710  0.89351  0.52984  1.0000
  As  As13      1.0  0.03098  0.59417  0.38757  1.0000
  As  As14      1.0  0.15084  0.76947  0.43062  1.0000
  As  As15      1.0  0.40948  0.42285  0.44520  1.0000
  As  As16      1.0  0.77233  0.94079  0.37298  1.0000
  As  As17      1.0  0.82381  0.28830  0.37925  1.0000
  As  As18      1.0  0.35801  0.07533  0.43893  1.0000
  W   W1        1.0  0.84124  0.68498  0.59308  1.0000
  W   W2        1.0  0.97694  0.95138  0.58874  1.0000
  W   W3        1.0  0.29786  0.46756  0.58004  1.0000
  W   W4        1.0  0.52032  0.16881  0.60178  1.0000
  W   W5        1.0  0.93215  0.86680  0.50217  1.0000
  W   W6        1.0  0.06785  0.13320  0.49783  1.0000
  W   W7        1.0  0.38877  0.64937  0.48913  1.0000
  W   W8        1.0  0.61123  0.35063  0.51087  1.0000
  W   W9        1.0  0.02306  0.04862  0.41126  1.0000
  W   W10       1.0  0.15876  0.31502  0.40692  1.0000
  W   W11       1.0  0.47968  0.83119  0.39822  1.0000
  W   W12       1.0  0.70214  0.53244  0.41996  1.0000
