data_image0
_chemical_formula_structural       Co4As8Co4As8Co4As8
_chemical_formula_sum              "Co12 As24"
_cell_length_a       10.5571
_cell_length_b       6.58257
_cell_length_c       33.805
_cell_angle_alpha    117.831
_cell_angle_beta     106.924
_cell_angle_gamma    82.1891

_space_group_name_H-M_alt    "P 1"
_space_group_IT_number       1

loop_
  _space_group_symop_operation_xyz
  'x, y, z'

loop_
  _atom_site_type_symbol
  _atom_site_label
  _atom_site_symmetry_multiplicity
  _atom_site_fract_x
  _atom_site_fract_y
  _atom_site_fract_z
  _atom_site_occupancy
  Co  Co1       1.0  0.25000  0.50000  0.36742  1.0000
  Co  Co2       1.0  0.75000  0.50000  0.41288  1.0000
  Co  Co3       1.0  0.00000  0.00000  0.43561  1.0000
  Co  Co4       1.0  0.50000  0.00000  0.39015  1.0000
  As  As1       1.0  0.34433  0.13621  0.43384  1.0000
  As  As2       1.0  0.84433  0.13621  0.38838  1.0000
  As  As3       1.0  0.15567  0.86379  0.39192  1.0000
  As  As4       1.0  0.65567  0.86379  0.43738  1.0000
  As  As5       1.0  0.09433  0.36379  0.38634  1.0000
  As  As6       1.0  0.59433  0.36379  0.43180  1.0000
  As  As7       1.0  0.40567  0.63621  0.43941  1.0000
  As  As8       1.0  0.90567  0.63621  0.39396  1.0000
  Co  Co5       1.0  0.25000  0.50000  0.45833  1.0000
  Co  Co6       1.0  0.75000  0.50000  0.50379  1.0000
  Co  Co7       1.0  0.00000  0.00000  0.52652  1.0000
  Co  Co8       1.0  0.50000  0.00000  0.48106  1.0000
  As  As9       1.0  0.34433  0.13621  0.52475  1.0000
  As  As10      1.0  0.84433  0.13621  0.47929  1.0000
  As  As11      1.0  0.15567  0.86379  0.48283  1.0000
  As  As12      1.0  0.65567  0.86379  0.52828  1.0000
  As  As13      1.0  0.09433  0.36379  0.47725  1.0000
  As  As14      1.0  0.59433  0.36379  0.52271  1.0000
  As  As15      1.0  0.40567  0.63621  0.53032  1.0000
  As  As16      1.0  0.90567  0.63621  0.48487  1.0000
  Co  Co9       1.0  0.25000  0.50000  0.54924  1.0000
  Co  Co10      1.0  0.75000  0.50000  0.59470  1.0000
  Co  Co11      1.0  0.00000  0.00000  0.61742  1.0000
  Co  Co12      1.0  0.50000  0.00000  0.57197  1.0000
  As  As17      1.0  0.34433  0.13621  0.61565  1.0000
  As  As18      1.0  0.84433  0.13621  0.57020  1.0000
  As  As19      1.0  0.15567  0.86379  0.57374  1.0000
  As  As20      1.0  0.65567  0.86379  0.61919  1.0000
  As  As21      1.0  0.09433  0.36379  0.56816  1.0000
  As  As22      1.0  0.59433  0.36379  0.61362  1.0000
  As  As23      1.0  0.40567  0.63621  0.62123  1.0000
  As  As24      1.0  0.90567  0.63621  0.57578  1.0000
