data_image0
_chemical_formula_structural       Pd8Zn8
_chemical_formula_sum              "Pd8 Zn8"
_cell_length_a       4.41041
_cell_length_b       5.25752
_cell_length_c       33.5422
_cell_angle_alpha    87.6721
_cell_angle_beta     87.2247
_cell_angle_gamma    82.3863

_space_group_name_H-M_alt    "P 1"
_space_group_IT_number       1

loop_
  _space_group_symop_operation_xyz
  'x, y, z'

loop_
  _atom_site_type_symbol
  _atom_site_label
  _atom_site_symmetry_multiplicity
  _atom_site_fract_x
  _atom_site_fract_y
  _atom_site_fract_z
  _atom_site_occupancy
  Pd  Pd1       1.0  0.48214  0.44643  0.51786  1.0000
  Pd  Pd2       1.0  0.87500  0.37500  0.62500  1.0000
  Pd  Pd3       1.0  0.41071  0.73214  0.58929  1.0000
  Pd  Pd4       1.0  0.94643  0.08929  0.55357  1.0000
  Pd  Pd5       1.0  0.62500  0.87500  0.37500  1.0000
  Pd  Pd6       1.0  0.01786  0.80357  0.48214  1.0000
  Pd  Pd7       1.0  0.55357  0.16071  0.44643  1.0000
  Pd  Pd8       1.0  0.08929  0.51786  0.41071  1.0000
  Zn  Zn1       1.0  0.41071  0.23214  0.58929  1.0000
  Zn  Zn2       1.0  0.94643  0.58929  0.55357  1.0000
  Zn  Zn3       1.0  0.48214  0.94643  0.51786  1.0000
  Zn  Zn4       1.0  0.87500  0.87500  0.62500  1.0000
  Zn  Zn5       1.0  0.55357  0.66071  0.44643  1.0000
  Zn  Zn6       1.0  0.08929  0.01786  0.41071  1.0000
  Zn  Zn7       1.0  0.62500  0.37500  0.37500  1.0000
  Zn  Zn8       1.0  0.01786  0.30357  0.48214  1.0000
