data_image0
_chemical_formula_structural       Ir32Si32
_chemical_formula_sum              "Ir32 Si32"
_cell_length_a       8.40515
_cell_length_b       8.99415
_cell_length_c       33.0978
_cell_angle_alpha    96.1391
_cell_angle_beta     91.8828
_cell_angle_gamma    96.9443

_space_group_name_H-M_alt    "P 1"
_space_group_IT_number       1

loop_
  _space_group_symop_operation_xyz
  'x, y, z'

loop_
  _atom_site_type_symbol
  _atom_site_label
  _atom_site_symmetry_multiplicity
  _atom_site_fract_x
  _atom_site_fract_y
  _atom_site_fract_z
  _atom_site_occupancy
  Ir  Ir1       1.0  0.89809  0.20779  0.39578  1.0000
  Ir  Ir2       1.0  0.39809  0.75324  0.35032  1.0000
  Ir  Ir3       1.0  0.10191  0.06494  0.33149  1.0000
  Ir  Ir4       1.0  0.60191  0.51949  0.37695  1.0000
  Ir  Ir5       1.0  0.60357  0.02099  0.37710  1.0000
  Ir  Ir6       1.0  0.10357  0.56644  0.33164  1.0000
  Ir  Ir7       1.0  0.39643  0.25174  0.35017  1.0000
  Ir  Ir8       1.0  0.89643  0.70628  0.39563  1.0000
  Ir  Ir9       1.0  0.89809  0.11688  0.48669  1.0000
  Ir  Ir10      1.0  0.39809  0.66233  0.44123  1.0000
  Ir  Ir11      1.0  0.10191  0.97403  0.42240  1.0000
  Ir  Ir12      1.0  0.60191  0.42858  0.46786  1.0000
  Ir  Ir13      1.0  0.60357  0.93008  0.46801  1.0000
  Ir  Ir14      1.0  0.10357  0.47553  0.42255  1.0000
  Ir  Ir15      1.0  0.39643  0.16083  0.44108  1.0000
  Ir  Ir16      1.0  0.89643  0.61537  0.48654  1.0000
  Ir  Ir17      1.0  0.89809  0.02597  0.57760  1.0000
  Ir  Ir18      1.0  0.39809  0.57142  0.53214  1.0000
  Ir  Ir19      1.0  0.10191  0.88312  0.51331  1.0000
  Ir  Ir20      1.0  0.60191  0.33767  0.55877  1.0000
  Ir  Ir21      1.0  0.60357  0.83917  0.55892  1.0000
  Ir  Ir22      1.0  0.10357  0.38463  0.51346  1.0000
  Ir  Ir23      1.0  0.39643  0.06992  0.53199  1.0000
  Ir  Ir24      1.0  0.89643  0.52447  0.57745  1.0000
  Ir  Ir25      1.0  0.89809  0.93506  0.66851  1.0000
  Ir  Ir26      1.0  0.39809  0.48051  0.62305  1.0000
  Ir  Ir27      1.0  0.10191  0.79221  0.60422  1.0000
  Ir  Ir28      1.0  0.60191  0.24676  0.64968  1.0000
  Ir  Ir29      1.0  0.60357  0.74826  0.64983  1.0000
  Ir  Ir30      1.0  0.10357  0.29372  0.60437  1.0000
  Ir  Ir31      1.0  0.39643  0.97901  0.62290  1.0000
  Ir  Ir32      1.0  0.89643  0.43356  0.66836  1.0000
  Si  Si1       1.0  0.31121  0.99699  0.37470  1.0000
  Si  Si2       1.0  0.81121  0.54245  0.32924  1.0000
  Si  Si3       1.0  0.68879  0.27573  0.35257  1.0000
  Si  Si4       1.0  0.18879  0.73028  0.39803  1.0000
  Si  Si5       1.0  0.87169  0.94201  0.36920  1.0000
  Si  Si6       1.0  0.37169  0.48746  0.32375  1.0000
  Si  Si7       1.0  0.12831  0.33072  0.35807  1.0000
  Si  Si8       1.0  0.62831  0.78527  0.40353  1.0000
  Si  Si9       1.0  0.31121  0.90609  0.46561  1.0000
  Si  Si10      1.0  0.81121  0.45154  0.42015  1.0000
  Si  Si11      1.0  0.68879  0.18482  0.44348  1.0000
  Si  Si12      1.0  0.18879  0.63937  0.48894  1.0000
  Si  Si13      1.0  0.87169  0.85110  0.46011  1.0000
  Si  Si14      1.0  0.37169  0.39655  0.41466  1.0000
  Si  Si15      1.0  0.12831  0.23981  0.44898  1.0000
  Si  Si16      1.0  0.62831  0.69436  0.49444  1.0000
  Si  Si17      1.0  0.31121  0.81518  0.55652  1.0000
  Si  Si18      1.0  0.81121  0.36063  0.51106  1.0000
  Si  Si19      1.0  0.68879  0.09391  0.53439  1.0000
  Si  Si20      1.0  0.18879  0.54846  0.57985  1.0000
  Si  Si21      1.0  0.87169  0.76019  0.55102  1.0000
  Si  Si22      1.0  0.37169  0.30564  0.50556  1.0000
  Si  Si23      1.0  0.12831  0.14890  0.53989  1.0000
  Si  Si24      1.0  0.62831  0.60345  0.58534  1.0000
  Si  Si25      1.0  0.31121  0.72427  0.64743  1.0000
  Si  Si26      1.0  0.81121  0.26972  0.60197  1.0000
  Si  Si27      1.0  0.68879  0.00301  0.62530  1.0000
  Si  Si28      1.0  0.18879  0.45755  0.67076  1.0000
  Si  Si29      1.0  0.87169  0.66928  0.64193  1.0000
  Si  Si30      1.0  0.37169  0.21473  0.59647  1.0000
  Si  Si31      1.0  0.12831  0.05799  0.63080  1.0000
  Si  Si32      1.0  0.62831  0.51254  0.67625  1.0000
