data_image0
_chemical_formula_structural       Co4Sb8Co4Sb8Co4Sb8
_chemical_formula_sum              "Co12 Sb24"
_cell_length_a       11.5829
_cell_length_b       7.16024
_cell_length_c       33.4915
_cell_angle_alpha    117.888
_cell_angle_beta     106.807
_cell_angle_gamma    82.2271

_space_group_name_H-M_alt    "P 1"
_space_group_IT_number       1

loop_
  _space_group_symop_operation_xyz
  'x, y, z'

loop_
  _atom_site_type_symbol
  _atom_site_label
  _atom_site_symmetry_multiplicity
  _atom_site_fract_x
  _atom_site_fract_y
  _atom_site_fract_z
  _atom_site_occupancy
  Co  Co1       1.0  0.00000  0.00000  0.42917  1.0000
  Co  Co2       1.0  0.50000  0.00000  0.37917  1.0000
  Co  Co3       1.0  0.25000  0.50000  0.35417  1.0000
  Co  Co4       1.0  0.75000  0.50000  0.40417  1.0000
  Sb  Sb1       1.0  0.10053  0.35684  0.37490  1.0000
  Sb  Sb2       1.0  0.60053  0.35684  0.42490  1.0000
  Sb  Sb3       1.0  0.39947  0.64316  0.43343  1.0000
  Sb  Sb4       1.0  0.89947  0.64316  0.38343  1.0000
  Sb  Sb5       1.0  0.35053  0.14316  0.42854  1.0000
  Sb  Sb6       1.0  0.85053  0.14316  0.37854  1.0000
  Sb  Sb7       1.0  0.14947  0.85684  0.37980  1.0000
  Sb  Sb8       1.0  0.64947  0.85684  0.42980  1.0000
  Co  Co5       1.0  0.00000  0.00000  0.52917  1.0000
  Co  Co6       1.0  0.50000  0.00000  0.47917  1.0000
  Co  Co7       1.0  0.25000  0.50000  0.45417  1.0000
  Co  Co8       1.0  0.75000  0.50000  0.50417  1.0000
  Sb  Sb9       1.0  0.10053  0.35684  0.47490  1.0000
  Sb  Sb10      1.0  0.60053  0.35684  0.52490  1.0000
  Sb  Sb11      1.0  0.39947  0.64316  0.53343  1.0000
  Sb  Sb12      1.0  0.89947  0.64316  0.48343  1.0000
  Sb  Sb13      1.0  0.35053  0.14316  0.52854  1.0000
  Sb  Sb14      1.0  0.85053  0.14316  0.47854  1.0000
  Sb  Sb15      1.0  0.14947  0.85684  0.47980  1.0000
  Sb  Sb16      1.0  0.64947  0.85684  0.52980  1.0000
  Co  Co9       1.0  0.00000  0.00000  0.62917  1.0000
  Co  Co10      1.0  0.50000  0.00000  0.57917  1.0000
  Co  Co11      1.0  0.25000  0.50000  0.55417  1.0000
  Co  Co12      1.0  0.75000  0.50000  0.60417  1.0000
  Sb  Sb17      1.0  0.10053  0.35684  0.57490  1.0000
  Sb  Sb18      1.0  0.60053  0.35684  0.62490  1.0000
  Sb  Sb19      1.0  0.39947  0.64316  0.63343  1.0000
  Sb  Sb20      1.0  0.89947  0.64316  0.58343  1.0000
  Sb  Sb21      1.0  0.35053  0.14316  0.62854  1.0000
  Sb  Sb22      1.0  0.85053  0.14316  0.57854  1.0000
  Sb  Sb23      1.0  0.14947  0.85684  0.57980  1.0000
  Sb  Sb24      1.0  0.64947  0.85684  0.62980  1.0000
