data_image0
_chemical_formula_structural       Ti12Ga6Ti12Ga6
_chemical_formula_sum              "Ti24 Ga12"
_cell_length_a       4.46698
_cell_length_b       10.4331
_cell_length_c       41.9945
_cell_angle_alpha    98.5644
_cell_angle_beta     108.609
_cell_angle_gamma    64.6494

_space_group_name_H-M_alt    "P 1"
_space_group_IT_number       1

loop_
  _space_group_symop_operation_xyz
  'x, y, z'

loop_
  _atom_site_type_symbol
  _atom_site_label
  _atom_site_symmetry_multiplicity
  _atom_site_fract_x
  _atom_site_fract_y
  _atom_site_fract_z
  _atom_site_occupancy
  Ti  Ti1       1.0  0.33333  0.52778  0.42593  1.0000
  Ti  Ti2       1.0  0.33333  0.86111  0.37037  1.0000
  Ti  Ti3       1.0  0.33333  0.19444  0.48148  1.0000
  Ti  Ti4       1.0  0.66667  0.80556  0.46296  1.0000
  Ti  Ti5       1.0  0.66667  0.13889  0.40741  1.0000
  Ti  Ti6       1.0  0.66667  0.47222  0.35185  1.0000
  Ti  Ti7       1.0  0.00000  0.66667  0.36111  1.0000
  Ti  Ti8       1.0  0.00000  0.00000  0.47222  1.0000
  Ti  Ti9       1.0  0.00000  0.33333  0.41667  1.0000
  Ti  Ti10      1.0  0.00000  0.83333  0.41667  1.0000
  Ti  Ti11      1.0  0.00000  0.16667  0.36111  1.0000
  Ti  Ti12      1.0  0.00000  0.50000  0.47222  1.0000
  Ga  Ga1       1.0  0.33333  0.69444  0.48148  1.0000
  Ga  Ga2       1.0  0.33333  0.02778  0.42593  1.0000
  Ga  Ga3       1.0  0.33333  0.36111  0.37037  1.0000
  Ga  Ga4       1.0  0.66667  0.63889  0.40741  1.0000
  Ga  Ga5       1.0  0.66667  0.97222  0.35185  1.0000
  Ga  Ga6       1.0  0.66667  0.30556  0.46296  1.0000
  Ti  Ti13      1.0  0.33333  0.52778  0.59259  1.0000
  Ti  Ti14      1.0  0.33333  0.86111  0.53704  1.0000
  Ti  Ti15      1.0  0.33333  0.19444  0.64815  1.0000
  Ti  Ti16      1.0  0.66667  0.80556  0.62963  1.0000
  Ti  Ti17      1.0  0.66667  0.13889  0.57407  1.0000
  Ti  Ti18      1.0  0.66667  0.47222  0.51852  1.0000
  Ti  Ti19      1.0  0.00000  0.66667  0.52778  1.0000
  Ti  Ti20      1.0  0.00000  0.00000  0.63889  1.0000
  Ti  Ti21      1.0  0.00000  0.33333  0.58333  1.0000
  Ti  Ti22      1.0  0.00000  0.83333  0.58333  1.0000
  Ti  Ti23      1.0  0.00000  0.16667  0.52778  1.0000
  Ti  Ti24      1.0  0.00000  0.50000  0.63889  1.0000
  Ga  Ga7       1.0  0.33333  0.69444  0.64815  1.0000
  Ga  Ga8       1.0  0.33333  0.02778  0.59259  1.0000
  Ga  Ga9       1.0  0.33333  0.36111  0.53704  1.0000
  Ga  Ga10      1.0  0.66667  0.63889  0.57407  1.0000
  Ga  Ga11      1.0  0.66667  0.97222  0.51852  1.0000
  Ga  Ga12      1.0  0.66667  0.30556  0.62963  1.0000
