data_image0
_chemical_formula_structural       Pt6W3
_chemical_formula_sum              "Pt6 W3"
_cell_length_a       3.91349
_cell_length_b       4.77243
_cell_length_c       28.8824
_cell_angle_alpha    91.7623
_cell_angle_beta     90
_cell_angle_gamma    114.205

_space_group_name_H-M_alt    "P 1"
_space_group_IT_number       1

loop_
  _space_group_symop_operation_xyz
  'x, y, z'

loop_
  _atom_site_type_symbol
  _atom_site_label
  _atom_site_symmetry_multiplicity
  _atom_site_fract_x
  _atom_site_fract_y
  _atom_site_fract_z
  _atom_site_occupancy
  Pt  Pt1       1.0  0.25423  0.50847  0.40876  1.0000
  Pt  Pt2       1.0  0.95789  0.91577  0.37912  1.0000
  Pt  Pt3       1.0  0.16333  0.32665  0.49967  1.0000
  Pt  Pt4       1.0  0.86698  0.73396  0.47003  1.0000
  Pt  Pt5       1.0  0.07242  0.14483  0.59057  1.0000
  Pt  Pt6       1.0  0.77607  0.55214  0.56094  1.0000
  W   W1        1.0  0.56061  0.12121  0.43939  1.0000
  W   W2        1.0  0.46970  0.93939  0.53030  1.0000
  W   W3        1.0  0.37879  0.75758  0.62121  1.0000
