data_image0
_chemical_formula_structural       Ca8In4Pt8Ca8In4Pt8
_chemical_formula_sum              "Ca16 In8 Pt16"
_cell_length_a       10.0468
_cell_length_b       8.1062
_cell_length_c       33.7941
_cell_angle_alpha    90
_cell_angle_beta     90
_cell_angle_gamma    104.654

_space_group_name_H-M_alt    "P 1"
_space_group_IT_number       1

loop_
  _space_group_symop_operation_xyz
  'x, y, z'

loop_
  _atom_site_type_symbol
  _atom_site_label
  _atom_site_symmetry_multiplicity
  _atom_site_fract_x
  _atom_site_fract_y
  _atom_site_fract_z
  _atom_site_occupancy
  Ca  Ca1       1.0  0.35105  0.35091  0.35785  1.0000
  Ca  Ca2       1.0  0.14895  0.14909  0.44118  1.0000
  Ca  Ca3       1.0  0.14895  0.64909  0.39215  1.0000
  Ca  Ca4       1.0  0.35105  0.85091  0.47548  1.0000
  Ca  Ca5       1.0  0.85105  0.35091  0.44118  1.0000
  Ca  Ca6       1.0  0.64895  0.14909  0.35785  1.0000
  Ca  Ca7       1.0  0.64895  0.64909  0.47548  1.0000
  Ca  Ca8       1.0  0.85105  0.85091  0.39215  1.0000
  In  In1       1.0  0.50000  0.25000  0.44195  1.0000
  In  In2       1.0  0.00000  0.75000  0.47472  1.0000
  In  In3       1.0  0.00000  0.25000  0.35861  1.0000
  In  In4       1.0  0.50000  0.75000  0.39139  1.0000
  Pt  Pt1       1.0  0.36340  0.99630  0.39343  1.0000
  Pt  Pt2       1.0  0.13660  0.50370  0.47677  1.0000
  Pt  Pt3       1.0  0.13660  0.00370  0.35657  1.0000
  Pt  Pt4       1.0  0.36340  0.49630  0.43990  1.0000
  Pt  Pt5       1.0  0.86340  0.99630  0.47677  1.0000
  Pt  Pt6       1.0  0.63660  0.50370  0.39343  1.0000
  Pt  Pt7       1.0  0.63660  0.00370  0.43990  1.0000
  Pt  Pt8       1.0  0.86340  0.49630  0.35657  1.0000
  Ca  Ca9       1.0  0.35105  0.35091  0.52452  1.0000
  Ca  Ca10      1.0  0.14895  0.14909  0.60785  1.0000
  Ca  Ca11      1.0  0.14895  0.64909  0.55882  1.0000
  Ca  Ca12      1.0  0.35105  0.85091  0.64215  1.0000
  Ca  Ca13      1.0  0.85105  0.35091  0.60785  1.0000
  Ca  Ca14      1.0  0.64895  0.14909  0.52452  1.0000
  Ca  Ca15      1.0  0.64895  0.64909  0.64215  1.0000
  Ca  Ca16      1.0  0.85105  0.85091  0.55882  1.0000
  In  In5       1.0  0.50000  0.25000  0.60861  1.0000
  In  In6       1.0  0.00000  0.75000  0.64139  1.0000
  In  In7       1.0  0.00000  0.25000  0.52528  1.0000
  In  In8       1.0  0.50000  0.75000  0.55805  1.0000
  Pt  Pt9       1.0  0.36340  0.99630  0.56010  1.0000
  Pt  Pt10      1.0  0.13660  0.50370  0.64343  1.0000
  Pt  Pt11      1.0  0.13660  0.00370  0.52323  1.0000
  Pt  Pt12      1.0  0.36340  0.49630  0.60657  1.0000
  Pt  Pt13      1.0  0.86340  0.99630  0.64343  1.0000
  Pt  Pt14      1.0  0.63660  0.50370  0.56010  1.0000
  Pt  Pt15      1.0  0.63660  0.00370  0.60657  1.0000
  Pt  Pt16      1.0  0.86340  0.49630  0.52323  1.0000
