data_image0
_chemical_formula_structural       Pb16Pt8
_chemical_formula_sum              "Pb16 Pt8"
_cell_length_a       5.69475
_cell_length_b       9.85114
_cell_length_c       39.5538
_cell_angle_alpha    90
_cell_angle_beta     89.7503
_cell_angle_gamma    90

_space_group_name_H-M_alt    "P 1"
_space_group_IT_number       1

loop_
  _space_group_symop_operation_xyz
  'x, y, z'

loop_
  _atom_site_type_symbol
  _atom_site_label
  _atom_site_symmetry_multiplicity
  _atom_site_fract_x
  _atom_site_fract_y
  _atom_site_fract_z
  _atom_site_occupancy
  Pb  Pb1       1.0  0.13362  0.75000  0.48886  1.0000
  Pb  Pb2       1.0  0.38362  0.25000  0.55136  1.0000
  Pb  Pb3       1.0  0.88362  0.25000  0.42636  1.0000
  Pb  Pb4       1.0  0.63362  0.75000  0.61386  1.0000
  Pb  Pb5       1.0  0.37500  0.41092  0.46875  1.0000
  Pb  Pb6       1.0  0.62500  0.91092  0.53125  1.0000
  Pb  Pb7       1.0  0.12500  0.91092  0.40625  1.0000
  Pb  Pb8       1.0  0.87500  0.41092  0.59375  1.0000
  Pb  Pb9       1.0  0.62500  0.58908  0.53125  1.0000
  Pb  Pb10      1.0  0.87500  0.08908  0.59375  1.0000
  Pb  Pb11      1.0  0.37500  0.08908  0.46875  1.0000
  Pb  Pb12      1.0  0.12500  0.58908  0.40625  1.0000
  Pb  Pb13      1.0  0.11638  0.75000  0.57364  1.0000
  Pb  Pb14      1.0  0.36638  0.25000  0.38614  1.0000
  Pb  Pb15      1.0  0.86638  0.25000  0.51114  1.0000
  Pb  Pb16      1.0  0.61638  0.75000  0.44864  1.0000
  Pt  Pt1       1.0  0.87500  0.50000  0.46875  1.0000
  Pt  Pt2       1.0  0.12500  0.00000  0.53125  1.0000
  Pt  Pt3       1.0  0.62500  0.00000  0.40625  1.0000
  Pt  Pt4       1.0  0.37500  0.50000  0.59375  1.0000
  Pt  Pt5       1.0  0.12500  0.50000  0.53125  1.0000
  Pt  Pt6       1.0  0.37500  0.00000  0.59375  1.0000
  Pt  Pt7       1.0  0.87500  0.00000  0.46875  1.0000
  Pt  Pt8       1.0  0.62500  0.50000  0.40625  1.0000
