data_image0
_chemical_formula_structural       Ni20
_chemical_formula_sum              "Ni20"
_cell_length_a       2.44398
_cell_length_b       7.33194
_cell_length_c       34.6494
_cell_angle_alpha    94.0447
_cell_angle_beta     90
_cell_angle_gamma    90

_space_group_name_H-M_alt    "P 1"
_space_group_IT_number       1

loop_
  _space_group_symop_operation_xyz
  'x, y, z'

loop_
  _atom_site_type_symbol
  _atom_site_label
  _atom_site_symmetry_multiplicity
  _atom_site_fract_x
  _atom_site_fract_y
  _atom_site_fract_z
  _atom_site_occupancy
  Ni  Ni1       1.0  0.00000  0.75833  0.64167  1.0000
  Ni  Ni2       1.0  0.00000  0.19167  0.60833  1.0000
  Ni  Ni3       1.0  0.00000  0.49167  0.50833  1.0000
  Ni  Ni4       1.0  0.00000  0.62500  0.57500  1.0000
  Ni  Ni5       1.0  0.00000  0.05833  0.54167  1.0000
  Ni  Ni6       1.0  0.50000  0.90833  0.59167  1.0000
  Ni  Ni7       1.0  0.50000  0.34167  0.55833  1.0000
  Ni  Ni8       1.0  0.50000  0.47500  0.62500  1.0000
  Ni  Ni9       1.0  0.50000  0.77500  0.52500  1.0000
  Ni  Ni10      1.0  0.50000  0.04167  0.65833  1.0000
  Ni  Ni11      1.0  0.00000  0.92500  0.47500  1.0000
  Ni  Ni12      1.0  0.00000  0.35833  0.44167  1.0000
  Ni  Ni13      1.0  0.00000  0.65833  0.34167  1.0000
  Ni  Ni14      1.0  0.00000  0.79167  0.40833  1.0000
  Ni  Ni15      1.0  0.00000  0.22500  0.37500  1.0000
  Ni  Ni16      1.0  0.50000  0.07500  0.42500  1.0000
  Ni  Ni17      1.0  0.50000  0.50833  0.39167  1.0000
  Ni  Ni18      1.0  0.50000  0.64167  0.45833  1.0000
  Ni  Ni19      1.0  0.50000  0.94167  0.35833  1.0000
  Ni  Ni20      1.0  0.50000  0.20833  0.49167  1.0000
