data_image0
_chemical_formula_structural       V4Co4Si4V4Co4Si4V4Co4Si4V4Co4Si4
_chemical_formula_sum              "V16 Co16 Si16"
_cell_length_a       5.89386
_cell_length_b       7.61211
_cell_length_c       38.6198
_cell_angle_alpha    117.466
_cell_angle_beta     90
_cell_angle_gamma    90

_space_group_name_H-M_alt    "P 1"
_space_group_IT_number       1

loop_
  _space_group_symop_operation_xyz
  'x, y, z'

loop_
  _atom_site_type_symbol
  _atom_site_label
  _atom_site_symmetry_multiplicity
  _atom_site_fract_x
  _atom_site_fract_y
  _atom_site_fract_z
  _atom_site_occupancy
  V   V1        1.0  0.47499  0.67803  0.40255  1.0000
  V   V2        1.0  0.02501  0.17803  0.40255  1.0000
  V   V3        1.0  0.97499  0.82197  0.32472  1.0000
  V   V4        1.0  0.52501  0.32197  0.32472  1.0000
  Co  Co1       1.0  0.64282  0.93907  0.38082  1.0000
  Co  Co2       1.0  0.14282  0.56093  0.34645  1.0000
  Co  Co3       1.0  0.85718  0.43907  0.38082  1.0000
  Co  Co4       1.0  0.35718  0.06093  0.34645  1.0000
  Si  Si1       1.0  0.76696  0.62379  0.35216  1.0000
  Si  Si2       1.0  0.26696  0.87621  0.37511  1.0000
  Si  Si3       1.0  0.23304  0.37621  0.37511  1.0000
  Si  Si4       1.0  0.73304  0.12379  0.35216  1.0000
  V   V5        1.0  0.47499  0.67803  0.49346  1.0000
  V   V6        1.0  0.02501  0.17803  0.49346  1.0000
  V   V7        1.0  0.97499  0.82197  0.41563  1.0000
  V   V8        1.0  0.52501  0.32197  0.41563  1.0000
  Co  Co5       1.0  0.64282  0.93907  0.47173  1.0000
  Co  Co6       1.0  0.14282  0.56093  0.43736  1.0000
  Co  Co7       1.0  0.85718  0.43907  0.47173  1.0000
  Co  Co8       1.0  0.35718  0.06093  0.43736  1.0000
  Si  Si5       1.0  0.76696  0.62379  0.44307  1.0000
  Si  Si6       1.0  0.26696  0.87621  0.46602  1.0000
  Si  Si7       1.0  0.23304  0.37621  0.46602  1.0000
  Si  Si8       1.0  0.73304  0.12379  0.44307  1.0000
  V   V9        1.0  0.47499  0.67803  0.58437  1.0000
  V   V10       1.0  0.02501  0.17803  0.58437  1.0000
  V   V11       1.0  0.97499  0.82197  0.50654  1.0000
  V   V12       1.0  0.52501  0.32197  0.50654  1.0000
  Co  Co9       1.0  0.64282  0.93907  0.56264  1.0000
  Co  Co10      1.0  0.14282  0.56093  0.52827  1.0000
  Co  Co11      1.0  0.85718  0.43907  0.56264  1.0000
  Co  Co12      1.0  0.35718  0.06093  0.52827  1.0000
  Si  Si9       1.0  0.76696  0.62379  0.53398  1.0000
  Si  Si10      1.0  0.26696  0.87621  0.55693  1.0000
  Si  Si11      1.0  0.23304  0.37621  0.55693  1.0000
  Si  Si12      1.0  0.73304  0.12379  0.53398  1.0000
  V   V13       1.0  0.47499  0.67803  0.67528  1.0000
  V   V14       1.0  0.02501  0.17803  0.67528  1.0000
  V   V15       1.0  0.97499  0.82197  0.59745  1.0000
  V   V16       1.0  0.52501  0.32197  0.59745  1.0000
  Co  Co13      1.0  0.64282  0.93907  0.65355  1.0000
  Co  Co14      1.0  0.14282  0.56093  0.61918  1.0000
  Co  Co15      1.0  0.85718  0.43907  0.65355  1.0000
  Co  Co16      1.0  0.35718  0.06093  0.61918  1.0000
  Si  Si13      1.0  0.76696  0.62379  0.62489  1.0000
  Si  Si14      1.0  0.26696  0.87621  0.64784  1.0000
  Si  Si15      1.0  0.23304  0.37621  0.64784  1.0000
  Si  Si16      1.0  0.73304  0.12379  0.62489  1.0000
