data_image0
_chemical_formula_structural       Cu6Sn6Cu6Sn6
_chemical_formula_sum              "Cu12 Sn12"
_cell_length_a       5.01432
_cell_length_b       10.8685
_cell_length_c       28.7552
_cell_angle_alpha    79.1066
_cell_angle_beta     90
_cell_angle_gamma    90

_space_group_name_H-M_alt    "P 1"
_space_group_IT_number       1

loop_
  _space_group_symop_operation_xyz
  'x, y, z'

loop_
  _atom_site_type_symbol
  _atom_site_label
  _atom_site_symmetry_multiplicity
  _atom_site_fract_x
  _atom_site_fract_y
  _atom_site_fract_z
  _atom_site_occupancy
  Cu  Cu1       1.0  0.00000  0.66667  0.44048  1.0000
  Cu  Cu2       1.0  0.00000  0.33333  0.39286  1.0000
  Cu  Cu3       1.0  0.00000  0.00000  0.48810  1.0000
  Cu  Cu4       1.0  0.50000  0.66667  0.44048  1.0000
  Cu  Cu5       1.0  0.50000  0.33333  0.39286  1.0000
  Cu  Cu6       1.0  0.50000  0.00000  0.48810  1.0000
  Sn  Sn1       1.0  0.75000  0.55556  0.37698  1.0000
  Sn  Sn2       1.0  0.75000  0.22222  0.47222  1.0000
  Sn  Sn3       1.0  0.75000  0.88889  0.42460  1.0000
  Sn  Sn4       1.0  0.25000  0.77778  0.36111  1.0000
  Sn  Sn5       1.0  0.25000  0.44444  0.45635  1.0000
  Sn  Sn6       1.0  0.25000  0.11111  0.40873  1.0000
  Cu  Cu7       1.0  0.00000  0.66667  0.58333  1.0000
  Cu  Cu8       1.0  0.00000  0.33333  0.53571  1.0000
  Cu  Cu9       1.0  0.00000  0.00000  0.63095  1.0000
  Cu  Cu10      1.0  0.50000  0.66667  0.58333  1.0000
  Cu  Cu11      1.0  0.50000  0.33333  0.53571  1.0000
  Cu  Cu12      1.0  0.50000  0.00000  0.63095  1.0000
  Sn  Sn7       1.0  0.75000  0.55556  0.51984  1.0000
  Sn  Sn8       1.0  0.75000  0.22222  0.61508  1.0000
  Sn  Sn9       1.0  0.75000  0.88889  0.56746  1.0000
  Sn  Sn10      1.0  0.25000  0.77778  0.50397  1.0000
  Sn  Sn11      1.0  0.25000  0.44444  0.59921  1.0000
  Sn  Sn12      1.0  0.25000  0.11111  0.55159  1.0000
