data_image0
_chemical_formula_structural       Mn4Fe4As4Mn4Fe4As4
_chemical_formula_sum              "Mn8 Fe8 As8"
_cell_length_a       3.56831
_cell_length_b       6.71284
_cell_length_c       40.277
_cell_angle_alpha    64.2225
_cell_angle_beta     90
_cell_angle_gamma    90

_space_group_name_H-M_alt    "P 1"
_space_group_IT_number       1

loop_
  _space_group_symop_operation_xyz
  'x, y, z'

loop_
  _atom_site_type_symbol
  _atom_site_label
  _atom_site_symmetry_multiplicity
  _atom_site_fract_x
  _atom_site_fract_y
  _atom_site_fract_z
  _atom_site_occupancy
  Mn  Mn1       1.0  0.00000  0.91103  0.33934  1.0000
  Mn  Mn2       1.0  0.00000  0.41103  0.42267  1.0000
  Mn  Mn3       1.0  0.50000  0.33897  0.49399  1.0000
  Mn  Mn4       1.0  0.50000  0.83897  0.41066  1.0000
  Fe  Fe1       1.0  0.50000  0.75000  0.47917  1.0000
  Fe  Fe2       1.0  0.50000  0.25000  0.39583  1.0000
  Fe  Fe3       1.0  0.00000  0.00000  0.43750  1.0000
  Fe  Fe4       1.0  0.00000  0.50000  0.35417  1.0000
  As  As1       1.0  0.00000  0.12434  0.37489  1.0000
  As  As2       1.0  0.00000  0.62434  0.45822  1.0000
  As  As3       1.0  0.50000  0.12566  0.45844  1.0000
  As  As4       1.0  0.50000  0.62566  0.37511  1.0000
  Mn  Mn5       1.0  0.00000  0.91103  0.50601  1.0000
  Mn  Mn6       1.0  0.00000  0.41103  0.58934  1.0000
  Mn  Mn7       1.0  0.50000  0.33897  0.66066  1.0000
  Mn  Mn8       1.0  0.50000  0.83897  0.57733  1.0000
  Fe  Fe5       1.0  0.50000  0.75000  0.64583  1.0000
  Fe  Fe6       1.0  0.50000  0.25000  0.56250  1.0000
  Fe  Fe7       1.0  0.00000  0.00000  0.60417  1.0000
  Fe  Fe8       1.0  0.00000  0.50000  0.52083  1.0000
  As  As5       1.0  0.00000  0.12434  0.54156  1.0000
  As  As6       1.0  0.00000  0.62434  0.62489  1.0000
  As  As7       1.0  0.50000  0.12566  0.62511  1.0000
  As  As8       1.0  0.50000  0.62566  0.54178  1.0000
