data_image0
_chemical_formula_structural       As12Fe12Mn12
_chemical_formula_sum              "As12 Fe12 Mn12"
_cell_length_a       6.71284
_cell_length_b       7.6023
_cell_length_c       32.4184
_cell_angle_alpha    85.6713
_cell_angle_beta     85.0964
_cell_angle_gamma    67.4185

_space_group_name_H-M_alt    "P 1"
_space_group_IT_number       1

loop_
  _space_group_symop_operation_xyz
  'x, y, z'

loop_
  _atom_site_type_symbol
  _atom_site_label
  _atom_site_symmetry_multiplicity
  _atom_site_fract_x
  _atom_site_fract_y
  _atom_site_fract_z
  _atom_site_occupancy
  As  As1       1.0  0.87226  0.47965  0.60324  1.0000
  As  As2       1.0  0.44369  0.86061  0.55562  1.0000
  As  As3       1.0  0.01512  0.24156  0.50800  1.0000
  As  As4       1.0  0.01663  0.74257  0.50787  1.0000
  As  As5       1.0  0.87377  0.98066  0.60311  1.0000
  As  As6       1.0  0.44520  0.36162  0.55549  1.0000
  As  As7       1.0  0.58655  0.62251  0.46038  1.0000
  As  As8       1.0  0.15797  0.00346  0.41276  1.0000
  As  As9       1.0  0.72940  0.38442  0.36514  1.0000
  As  As10      1.0  0.73092  0.88542  0.36502  1.0000
  As  As11      1.0  0.58806  0.12352  0.46025  1.0000
  As  As12      1.0  0.15949  0.50447  0.41264  1.0000
  Fe  Fe1       1.0  0.23016  0.38492  0.61508  1.0000
  Fe  Fe2       1.0  0.80159  0.76587  0.56746  1.0000
  Fe  Fe3       1.0  0.37302  0.14683  0.51984  1.0000
  Fe  Fe4       1.0  0.08730  0.45635  0.54365  1.0000
  Fe  Fe5       1.0  0.94444  0.69444  0.63889  1.0000
  Fe  Fe6       1.0  0.51587  0.07540  0.59127  1.0000
  Fe  Fe7       1.0  0.94444  0.52778  0.47222  1.0000
  Fe  Fe8       1.0  0.51587  0.90873  0.42460  1.0000
  Fe  Fe9       1.0  0.08730  0.28968  0.37698  1.0000
  Fe  Fe10      1.0  0.80159  0.59921  0.40079  1.0000
  Fe  Fe11      1.0  0.65873  0.83730  0.49603  1.0000
  Fe  Fe12      1.0  0.23016  0.21825  0.44841  1.0000
  Mn  Mn1       1.0  0.62848  0.31714  0.62355  1.0000
  Mn  Mn2       1.0  0.19991  0.69809  0.57593  1.0000
  Mn  Mn3       1.0  0.77134  0.07904  0.52831  1.0000
  Mn  Mn4       1.0  0.54612  0.76223  0.63042  1.0000
  Mn  Mn5       1.0  0.11755  0.14318  0.58280  1.0000
  Mn  Mn6       1.0  0.68898  0.52413  0.53518  1.0000
  Mn  Mn7       1.0  0.34277  0.45999  0.48070  1.0000
  Mn  Mn8       1.0  0.91420  0.84095  0.43308  1.0000
  Mn  Mn9       1.0  0.48563  0.22190  0.38546  1.0000
  Mn  Mn10      1.0  0.26041  0.90508  0.48756  1.0000
  Mn  Mn11      1.0  0.83183  0.28604  0.43994  1.0000
  Mn  Mn12      1.0  0.40326  0.66699  0.39232  1.0000
