data_image0
_chemical_formula_structural       Fe2Ni2Pt4Fe2Ni2Pt4
_chemical_formula_sum              "Fe4 Ni4 Pt8"
_cell_length_a       3.7623
_cell_length_b       5.19448
_cell_length_c       31.1669
_cell_angle_alpha    92.8193
_cell_angle_beta     90
_cell_angle_gamma    90

_space_group_name_H-M_alt    "P 1"
_space_group_IT_number       1

loop_
  _space_group_symop_operation_xyz
  'x, y, z'

loop_
  _atom_site_type_symbol
  _atom_site_label
  _atom_site_symmetry_multiplicity
  _atom_site_fract_x
  _atom_site_fract_y
  _atom_site_fract_z
  _atom_site_occupancy
  Fe  Fe1       1.0  0.00000  0.00000  0.47917  1.0000
  Fe  Fe2       1.0  0.00000  0.50000  0.39583  1.0000
  Ni  Ni1       1.0  0.50000  0.75000  0.35417  1.0000
  Ni  Ni2       1.0  0.50000  0.25000  0.43750  1.0000
  Pt  Pt1       1.0  0.00000  0.00000  0.39583  1.0000
  Pt  Pt2       1.0  0.00000  0.50000  0.47917  1.0000
  Pt  Pt3       1.0  0.50000  0.25000  0.35417  1.0000
  Pt  Pt4       1.0  0.50000  0.75000  0.43750  1.0000
  Fe  Fe3       1.0  0.00000  0.00000  0.64583  1.0000
  Fe  Fe4       1.0  0.00000  0.50000  0.56250  1.0000
  Ni  Ni3       1.0  0.50000  0.75000  0.52083  1.0000
  Ni  Ni4       1.0  0.50000  0.25000  0.60417  1.0000
  Pt  Pt5       1.0  0.00000  0.00000  0.56250  1.0000
  Pt  Pt6       1.0  0.00000  0.50000  0.64583  1.0000
  Pt  Pt7       1.0  0.50000  0.25000  0.52083  1.0000
  Pt  Pt8       1.0  0.50000  0.75000  0.60417  1.0000
