data_image0
_chemical_formula_structural       Fe2Sb2As2Fe2Sb2As2Fe2Sb2As2
_chemical_formula_sum              "Fe6 Sb6 As6"
_cell_length_a       6.17998
_cell_length_b       6.2566
_cell_length_c       33.093
_cell_angle_alpha    118.741
_cell_angle_beta     90
_cell_angle_gamma    90

_space_group_name_H-M_alt    "P 1"
_space_group_IT_number       1

loop_
  _space_group_symop_operation_xyz
  'x, y, z'

loop_
  _atom_site_type_symbol
  _atom_site_label
  _atom_site_symmetry_multiplicity
  _atom_site_fract_x
  _atom_site_fract_y
  _atom_site_fract_z
  _atom_site_occupancy
  Fe  Fe1       1.0  0.30795  0.72662  0.40697  1.0000
  Fe  Fe2       1.0  0.80795  0.27338  0.41122  1.0000
  Sb  Sb1       1.0  0.94259  0.92934  0.42539  1.0000
  Sb  Sb2       1.0  0.44259  0.07066  0.39279  1.0000
  As  As1       1.0  0.65706  0.55817  0.39165  1.0000
  As  As2       1.0  0.15706  0.44183  0.42653  1.0000
  Fe  Fe3       1.0  0.30795  0.72662  0.49787  1.0000
  Fe  Fe4       1.0  0.80795  0.27338  0.50213  1.0000
  Sb  Sb3       1.0  0.94259  0.92934  0.51630  1.0000
  Sb  Sb4       1.0  0.44259  0.07066  0.48370  1.0000
  As  As3       1.0  0.65706  0.55817  0.48256  1.0000
  As  As4       1.0  0.15706  0.44183  0.51744  1.0000
  Fe  Fe5       1.0  0.30795  0.72662  0.58878  1.0000
  Fe  Fe6       1.0  0.80795  0.27338  0.59303  1.0000
  Sb  Sb5       1.0  0.94259  0.92934  0.60721  1.0000
  Sb  Sb6       1.0  0.44259  0.07066  0.57461  1.0000
  As  As5       1.0  0.65706  0.55817  0.57347  1.0000
  As  As6       1.0  0.15706  0.44183  0.60835  1.0000
