data_image0
_chemical_formula_structural       Sn12Ti24
_chemical_formula_sum              "Sn12 Ti24"
_cell_length_a       7.27187
_cell_length_b       9.83795
_cell_length_c       31.2232
_cell_angle_alpha    90.3733
_cell_angle_beta     96.056
_cell_angle_gamma    91.6032

_space_group_name_H-M_alt    "P 1"
_space_group_IT_number       1

loop_
  _space_group_symop_operation_xyz
  'x, y, z'

loop_
  _atom_site_type_symbol
  _atom_site_label
  _atom_site_symmetry_multiplicity
  _atom_site_fract_x
  _atom_site_fract_y
  _atom_site_fract_z
  _atom_site_occupancy
  Sn  Sn1       1.0  0.84921  0.86111  0.53968  1.0000
  Sn  Sn2       1.0  0.08730  0.52778  0.63492  1.0000
  Sn  Sn3       1.0  0.46825  0.19444  0.58730  1.0000
  Sn  Sn4       1.0  0.36508  0.80556  0.57937  1.0000
  Sn  Sn5       1.0  0.74603  0.47222  0.53175  1.0000
  Sn  Sn6       1.0  0.98413  0.13889  0.62698  1.0000
  Sn  Sn7       1.0  0.99206  0.86111  0.39683  1.0000
  Sn  Sn8       1.0  0.23016  0.52778  0.49206  1.0000
  Sn  Sn9       1.0  0.61111  0.19444  0.44444  1.0000
  Sn  Sn10      1.0  0.50794  0.80556  0.43651  1.0000
  Sn  Sn11      1.0  0.88889  0.47222  0.38889  1.0000
  Sn  Sn12      1.0  0.12698  0.13889  0.48413  1.0000
  Ti  Ti1       1.0  0.15873  0.02778  0.56349  1.0000
  Ti  Ti2       1.0  0.53968  0.69444  0.51587  1.0000
  Ti  Ti3       1.0  0.77778  0.36111  0.61111  1.0000
  Ti  Ti4       1.0  0.05556  0.63889  0.55556  1.0000
  Ti  Ti5       1.0  0.43651  0.30556  0.50794  1.0000
  Ti  Ti6       1.0  0.67460  0.97222  0.60317  1.0000
  Ti  Ti7       1.0  0.48810  0.00000  0.51190  1.0000
  Ti  Ti8       1.0  0.72619  0.66667  0.60714  1.0000
  Ti  Ti9       1.0  0.10714  0.33333  0.55952  1.0000
  Ti  Ti10      1.0  0.03571  0.83333  0.63095  1.0000
  Ti  Ti11      1.0  0.41667  0.50000  0.58333  1.0000
  Ti  Ti12      1.0  0.79762  0.16667  0.53571  1.0000
  Ti  Ti13      1.0  0.30159  0.02778  0.42063  1.0000
  Ti  Ti14      1.0  0.68254  0.69444  0.37302  1.0000
  Ti  Ti15      1.0  0.92063  0.36111  0.46825  1.0000
  Ti  Ti16      1.0  0.19841  0.63889  0.41270  1.0000
  Ti  Ti17      1.0  0.57937  0.30556  0.36508  1.0000
  Ti  Ti18      1.0  0.81746  0.97222  0.46032  1.0000
  Ti  Ti19      1.0  0.63095  0.00000  0.36905  1.0000
  Ti  Ti20      1.0  0.86905  0.66667  0.46429  1.0000
  Ti  Ti21      1.0  0.25000  0.33333  0.41667  1.0000
  Ti  Ti22      1.0  0.17857  0.83333  0.48810  1.0000
  Ti  Ti23      1.0  0.55952  0.50000  0.44048  1.0000
  Ti  Ti24      1.0  0.94048  0.16667  0.39286  1.0000
