data_image0
_chemical_formula_structural       Al3Fe3Al3Fe3
_chemical_formula_sum              "Al6 Fe6"
_cell_length_a       2.84077
_cell_length_b       6.35216
_cell_length_c       32.1397
_cell_angle_alpha    71.5651
_cell_angle_beta     90
_cell_angle_gamma    90

_space_group_name_H-M_alt    "P 1"
_space_group_IT_number       1

loop_
  _space_group_symop_operation_xyz
  'x, y, z'

loop_
  _atom_site_type_symbol
  _atom_site_label
  _atom_site_symmetry_multiplicity
  _atom_site_fract_x
  _atom_site_fract_y
  _atom_site_fract_z
  _atom_site_occupancy
  Al  Al1       1.0  0.00000  0.66667  0.44792  1.0000
  Al  Al2       1.0  0.00000  0.33333  0.40625  1.0000
  Al  Al3       1.0  0.00000  0.00000  0.48958  1.0000
  Fe  Fe1       1.0  0.50000  0.66667  0.38542  1.0000
  Fe  Fe2       1.0  0.50000  0.33333  0.46875  1.0000
  Fe  Fe3       1.0  0.50000  0.00000  0.42708  1.0000
  Al  Al4       1.0  0.00000  0.66667  0.57292  1.0000
  Al  Al5       1.0  0.00000  0.33333  0.53125  1.0000
  Al  Al6       1.0  0.00000  0.00000  0.61458  1.0000
  Fe  Fe4       1.0  0.50000  0.66667  0.51042  1.0000
  Fe  Fe5       1.0  0.50000  0.33333  0.59375  1.0000
  Fe  Fe6       1.0  0.50000  0.00000  0.55208  1.0000
