data_image0
_chemical_formula_structural       Ga8Cu4Ga8Cu4
_chemical_formula_sum              "Ga16 Cu8"
_cell_length_a       3.95145
_cell_length_b       8.05595
_cell_length_c       42.1217
_cell_angle_alpha    71.3811
_cell_angle_beta     90
_cell_angle_gamma    60.6265

_space_group_name_H-M_alt    "P 1"
_space_group_IT_number       1

loop_
  _space_group_symop_operation_xyz
  'x, y, z'

loop_
  _atom_site_type_symbol
  _atom_site_label
  _atom_site_symmetry_multiplicity
  _atom_site_fract_x
  _atom_site_fract_y
  _atom_site_fract_z
  _atom_site_occupancy
  Ga  Ga1       1.0  0.85779  0.64221  0.43342  1.0000
  Ga  Ga2       1.0  0.60779  0.39221  0.47509  1.0000
  Ga  Ga3       1.0  0.10779  0.89221  0.39176  1.0000
  Ga  Ga4       1.0  0.35779  0.14221  0.35009  1.0000
  Ga  Ga5       1.0  0.64221  0.85779  0.46935  1.0000
  Ga  Ga6       1.0  0.39221  0.60779  0.34435  1.0000
  Ga  Ga7       1.0  0.89221  0.10779  0.42769  1.0000
  Ga  Ga8       1.0  0.14221  0.35779  0.38602  1.0000
  Cu  Cu1       1.0  0.75000  0.75000  0.36806  1.0000
  Cu  Cu2       1.0  0.50000  0.50000  0.40972  1.0000
  Cu  Cu3       1.0  0.00000  0.00000  0.49306  1.0000
  Cu  Cu4       1.0  0.25000  0.25000  0.45139  1.0000
  Ga  Ga9       1.0  0.85779  0.64221  0.60009  1.0000
  Ga  Ga10      1.0  0.60779  0.39221  0.64176  1.0000
  Ga  Ga11      1.0  0.10779  0.89221  0.55842  1.0000
  Ga  Ga12      1.0  0.35779  0.14221  0.51676  1.0000
  Ga  Ga13      1.0  0.64221  0.85779  0.63602  1.0000
  Ga  Ga14      1.0  0.39221  0.60779  0.51102  1.0000
  Ga  Ga15      1.0  0.89221  0.10779  0.59435  1.0000
  Ga  Ga16      1.0  0.14221  0.35779  0.55269  1.0000
  Cu  Cu5       1.0  0.75000  0.75000  0.53472  1.0000
  Cu  Cu6       1.0  0.50000  0.50000  0.57639  1.0000
  Cu  Cu7       1.0  0.00000  0.00000  0.65972  1.0000
  Cu  Cu8       1.0  0.25000  0.25000  0.61806  1.0000
