data_image0
_chemical_formula_structural       Fe4As4Fe4As4
_chemical_formula_sum              "Fe8 As8"
_cell_length_a       3.26518
_cell_length_b       5.90769
_cell_length_c       31.8969
_cell_angle_alpha    90
_cell_angle_beta     90
_cell_angle_gamma    90

_space_group_name_H-M_alt    "P 1"
_space_group_IT_number       1

loop_
  _space_group_symop_operation_xyz
  'x, y, z'

loop_
  _atom_site_type_symbol
  _atom_site_label
  _atom_site_symmetry_multiplicity
  _atom_site_fract_x
  _atom_site_fract_y
  _atom_site_fract_z
  _atom_site_occupancy
  Fe  Fe1       1.0  0.25000  0.79987  0.47923  1.0000
  Fe  Fe2       1.0  0.75000  0.20013  0.47910  1.0000
  Fe  Fe3       1.0  0.25000  0.70013  0.39590  1.0000
  Fe  Fe4       1.0  0.75000  0.29987  0.39577  1.0000
  As  As1       1.0  0.25000  0.42397  0.34570  1.0000
  As  As2       1.0  0.75000  0.57603  0.44597  1.0000
  As  As3       1.0  0.25000  0.07603  0.42903  1.0000
  As  As4       1.0  0.75000  0.92397  0.36264  1.0000
  Fe  Fe5       1.0  0.25000  0.79987  0.64590  1.0000
  Fe  Fe6       1.0  0.75000  0.20013  0.64577  1.0000
  Fe  Fe7       1.0  0.25000  0.70013  0.56257  1.0000
  Fe  Fe8       1.0  0.75000  0.29987  0.56243  1.0000
  As  As5       1.0  0.25000  0.42397  0.51236  1.0000
  As  As6       1.0  0.75000  0.57603  0.61264  1.0000
  As  As7       1.0  0.25000  0.07603  0.59570  1.0000
  As  As8       1.0  0.75000  0.92397  0.52930  1.0000
