data_image0
_chemical_formula_structural       As4Pd12Pb8
_chemical_formula_sum              "As4 Pd12 Pb8"
_cell_length_a       6.81353
_cell_length_b       5.78514
_cell_length_c       35.7076
_cell_angle_alpha    90
_cell_angle_beta     90
_cell_angle_gamma    90

_space_group_name_H-M_alt    "P 1"
_space_group_IT_number       1

loop_
  _space_group_symop_operation_xyz
  'x, y, z'

loop_
  _atom_site_type_symbol
  _atom_site_label
  _atom_site_symmetry_multiplicity
  _atom_site_fract_x
  _atom_site_fract_y
  _atom_site_fract_z
  _atom_site_occupancy
  As  As1       1.0  0.20690  0.29525  0.44444  1.0000
  As  As2       1.0  0.29310  0.79525  0.61111  1.0000
  As  As3       1.0  0.70690  0.29525  0.61111  1.0000
  As  As4       1.0  0.79310  0.79525  0.44444  1.0000
  Pd  Pd1       1.0  0.04407  0.00004  0.48452  1.0000
  Pd  Pd2       1.0  0.45593  0.50004  0.57104  1.0000
  Pd  Pd3       1.0  0.94675  0.97935  0.61111  1.0000
  Pd  Pd4       1.0  0.05325  0.47935  0.61111  1.0000
  Pd  Pd5       1.0  0.54407  0.00004  0.57104  1.0000
  Pd  Pd6       1.0  0.95593  0.50004  0.48452  1.0000
  Pd  Pd7       1.0  0.54407  0.00004  0.65118  1.0000
  Pd  Pd8       1.0  0.95593  0.50004  0.40437  1.0000
  Pd  Pd9       1.0  0.44675  0.97935  0.44444  1.0000
  Pd  Pd10      1.0  0.55325  0.47935  0.44444  1.0000
  Pd  Pd11      1.0  0.04407  0.00004  0.40437  1.0000
  Pd  Pd12      1.0  0.45593  0.50004  0.65118  1.0000
  Pb  Pb1       1.0  0.33599  0.69266  0.50416  1.0000
  Pb  Pb2       1.0  0.16401  0.19266  0.55139  1.0000
  Pb  Pb3       1.0  0.66401  0.19266  0.50416  1.0000
  Pb  Pb4       1.0  0.83599  0.69266  0.55139  1.0000
  Pb  Pb5       1.0  0.83599  0.69266  0.33750  1.0000
  Pb  Pb6       1.0  0.66401  0.19266  0.38473  1.0000
  Pb  Pb7       1.0  0.16401  0.19266  0.33750  1.0000
  Pb  Pb8       1.0  0.33599  0.69266  0.38473  1.0000
