data_image0
_chemical_formula_structural       In2As2Pd10In2As2Pd10
_chemical_formula_sum              "In4 As4 Pd20"
_cell_length_a       3.98534
_cell_length_b       14.5061
_cell_length_c       31.8827
_cell_angle_alpha    105.946
_cell_angle_beta     90
_cell_angle_gamma    90

_space_group_name_H-M_alt    "P 1"
_space_group_IT_number       1

loop_
  _space_group_symop_operation_xyz
  'x, y, z'

loop_
  _atom_site_type_symbol
  _atom_site_label
  _atom_site_symmetry_multiplicity
  _atom_site_fract_x
  _atom_site_fract_y
  _atom_site_fract_z
  _atom_site_occupancy
  In  In1       1.0  0.50000  0.00000  0.41071  1.0000
  In  In2       1.0  0.50000  0.50000  0.47321  1.0000
  As  As1       1.0  0.00000  0.25000  0.37946  1.0000
  As  As2       1.0  0.00000  0.75000  0.44196  1.0000
  Pd  Pd1       1.0  0.00000  0.00000  0.47321  1.0000
  Pd  Pd2       1.0  0.00000  0.50000  0.41071  1.0000
  Pd  Pd3       1.0  0.00000  0.35564  0.45517  1.0000
  Pd  Pd4       1.0  0.00000  0.85564  0.39267  1.0000
  Pd  Pd5       1.0  0.50000  0.35564  0.39267  1.0000
  Pd  Pd6       1.0  0.50000  0.85564  0.45517  1.0000
  Pd  Pd7       1.0  0.00000  0.14436  0.42876  1.0000
  Pd  Pd8       1.0  0.00000  0.64436  0.49126  1.0000
  Pd  Pd9       1.0  0.50000  0.14436  0.49126  1.0000
  Pd  Pd10      1.0  0.50000  0.64436  0.42876  1.0000
  In  In3       1.0  0.50000  0.00000  0.53571  1.0000
  In  In4       1.0  0.50000  0.50000  0.59821  1.0000
  As  As3       1.0  0.00000  0.25000  0.50446  1.0000
  As  As4       1.0  0.00000  0.75000  0.56696  1.0000
  Pd  Pd11      1.0  0.00000  0.00000  0.59821  1.0000
  Pd  Pd12      1.0  0.00000  0.50000  0.53571  1.0000
  Pd  Pd13      1.0  0.00000  0.35564  0.58017  1.0000
  Pd  Pd14      1.0  0.00000  0.85564  0.51767  1.0000
  Pd  Pd15      1.0  0.50000  0.35564  0.51767  1.0000
  Pd  Pd16      1.0  0.50000  0.85564  0.58017  1.0000
  Pd  Pd17      1.0  0.00000  0.14436  0.55376  1.0000
  Pd  Pd18      1.0  0.00000  0.64436  0.61626  1.0000
  Pd  Pd19      1.0  0.50000  0.14436  0.61626  1.0000
  Pd  Pd20      1.0  0.50000  0.64436  0.55376  1.0000
