data_image0
_chemical_formula_structural       Al3Pt2Al3Pt2
_chemical_formula_sum              "Al6 Pt4"
_cell_length_a       4.20087
_cell_length_b       4.20087
_cell_length_c       31.1408
_cell_angle_alpha    90
_cell_angle_beta     90
_cell_angle_gamma    120

_space_group_name_H-M_alt    "P 1"
_space_group_IT_number       1

loop_
  _space_group_symop_operation_xyz
  'x, y, z'

loop_
  _atom_site_type_symbol
  _atom_site_label
  _atom_site_symmetry_multiplicity
  _atom_site_fract_x
  _atom_site_fract_y
  _atom_site_fract_z
  _atom_site_occupancy
  Al  Al1       1.0  0.00000  0.00000  0.48333  1.0000
  Al  Al2       1.0  0.33333  0.66667  0.42447  1.0000
  Al  Al3       1.0  0.66667  0.33333  0.37553  1.0000
  Pt  Pt1       1.0  0.33333  0.66667  0.34448  1.0000
  Pt  Pt2       1.0  0.66667  0.33333  0.45552  1.0000
  Al  Al4       1.0  0.00000  0.00000  0.65000  1.0000
  Al  Al5       1.0  0.33333  0.66667  0.59114  1.0000
  Al  Al6       1.0  0.66667  0.33333  0.54220  1.0000
  Pt  Pt3       1.0  0.33333  0.66667  0.51115  1.0000
  Pt  Pt4       1.0  0.66667  0.33333  0.62218  1.0000
