data_image0
_chemical_formula_structural       Sb4Rh8
_chemical_formula_sum              "Sb4 Rh8"
_cell_length_a       4.15622
_cell_length_b       5.75505
_cell_length_c       31.6988
_cell_angle_alpha    90
_cell_angle_beta     90
_cell_angle_gamma    90

_space_group_name_H-M_alt    "P 1"
_space_group_IT_number       1

loop_
  _space_group_symop_operation_xyz
  'x, y, z'

loop_
  _atom_site_type_symbol
  _atom_site_label
  _atom_site_symmetry_multiplicity
  _atom_site_fract_x
  _atom_site_fract_y
  _atom_site_fract_z
  _atom_site_occupancy
  Sb  Sb1       1.0  0.75000  0.71613  0.40189  1.0000
  Sb  Sb2       1.0  0.25000  0.28387  0.59811  1.0000
  Sb  Sb3       1.0  0.75000  0.21613  0.47311  1.0000
  Sb  Sb4       1.0  0.25000  0.78387  0.52689  1.0000
  Rh  Rh1       1.0  0.75000  0.15901  0.39240  1.0000
  Rh  Rh2       1.0  0.25000  0.84099  0.60760  1.0000
  Rh  Rh3       1.0  0.75000  0.65901  0.48260  1.0000
  Rh  Rh4       1.0  0.25000  0.34099  0.51740  1.0000
  Rh  Rh5       1.0  0.75000  0.03906  0.54993  1.0000
  Rh  Rh6       1.0  0.25000  0.96094  0.45007  1.0000
  Rh  Rh7       1.0  0.75000  0.53906  0.57507  1.0000
  Rh  Rh8       1.0  0.25000  0.46094  0.42493  1.0000
