data_image0
_chemical_formula_structural       Si4Pt4Si4Pt4
_chemical_formula_sum              "Si8 Pt8"
_cell_length_a       3.61529
_cell_length_b       5.92092
_cell_length_c       33.4256
_cell_angle_alpha    90
_cell_angle_beta     90
_cell_angle_gamma    90

_space_group_name_H-M_alt    "P 1"
_space_group_IT_number       1

loop_
  _space_group_symop_operation_xyz
  'x, y, z'

loop_
  _atom_site_type_symbol
  _atom_site_label
  _atom_site_symmetry_multiplicity
  _atom_site_fract_x
  _atom_site_fract_y
  _atom_site_fract_z
  _atom_site_occupancy
  Si  Si1       1.0  0.25000  0.08372  0.40464  1.0000
  Si  Si2       1.0  0.25000  0.41628  0.48798  1.0000
  Si  Si3       1.0  0.75000  0.91628  0.34536  1.0000
  Si  Si4       1.0  0.75000  0.58372  0.42869  1.0000
  Pt  Pt1       1.0  0.25000  0.69331  0.37448  1.0000
  Pt  Pt2       1.0  0.25000  0.80669  0.45781  1.0000
  Pt  Pt3       1.0  0.75000  0.30669  0.37552  1.0000
  Pt  Pt4       1.0  0.75000  0.19331  0.45886  1.0000
  Si  Si5       1.0  0.25000  0.08372  0.57131  1.0000
  Si  Si6       1.0  0.25000  0.41628  0.65464  1.0000
  Si  Si7       1.0  0.75000  0.91628  0.51202  1.0000
  Si  Si8       1.0  0.75000  0.58372  0.59536  1.0000
  Pt  Pt5       1.0  0.25000  0.69331  0.54114  1.0000
  Pt  Pt6       1.0  0.25000  0.80669  0.62448  1.0000
  Pt  Pt7       1.0  0.75000  0.30669  0.54219  1.0000
  Pt  Pt8       1.0  0.75000  0.19331  0.62552  1.0000
