data_image0
_chemical_formula_structural       Nb6Rh6Nb6Rh6
_chemical_formula_sum              "Nb12 Rh12"
_cell_length_a       6.99233
_cell_length_b       5.61215
_cell_length_c       39.285
_cell_angle_alpha    119.527
_cell_angle_beta     102.257
_cell_angle_gamma    77.7434

_space_group_name_H-M_alt    "P 1"
_space_group_IT_number       1

loop_
  _space_group_symop_operation_xyz
  'x, y, z'

loop_
  _atom_site_type_symbol
  _atom_site_label
  _atom_site_symmetry_multiplicity
  _atom_site_fract_x
  _atom_site_fract_y
  _atom_site_fract_z
  _atom_site_occupancy
  Nb  Nb1       1.0  0.83573  0.62599  0.39867  1.0000
  Nb  Nb2       1.0  0.83573  0.12599  0.47010  1.0000
  Nb  Nb3       1.0  0.50000  0.50000  0.41667  1.0000
  Nb  Nb4       1.0  0.50000  0.00000  0.48810  1.0000
  Nb  Nb5       1.0  0.16427  0.87401  0.36324  1.0000
  Nb  Nb6       1.0  0.16427  0.37401  0.43467  1.0000
  Rh  Rh1       1.0  0.50000  0.50000  0.48810  1.0000
  Rh  Rh2       1.0  0.50000  0.00000  0.41667  1.0000
  Rh  Rh3       1.0  0.83223  0.62166  0.47072  1.0000
  Rh  Rh4       1.0  0.83223  0.12166  0.39929  1.0000
  Rh  Rh5       1.0  0.16777  0.37834  0.36262  1.0000
  Rh  Rh6       1.0  0.16777  0.87834  0.43405  1.0000
  Nb  Nb7       1.0  0.83573  0.62599  0.54152  1.0000
  Nb  Nb8       1.0  0.83573  0.12599  0.61295  1.0000
  Nb  Nb9       1.0  0.50000  0.50000  0.55952  1.0000
  Nb  Nb10      1.0  0.50000  0.00000  0.63095  1.0000
  Nb  Nb11      1.0  0.16427  0.87401  0.50609  1.0000
  Nb  Nb12      1.0  0.16427  0.37401  0.57752  1.0000
  Rh  Rh7       1.0  0.50000  0.50000  0.63095  1.0000
  Rh  Rh8       1.0  0.50000  0.00000  0.55952  1.0000
  Rh  Rh9       1.0  0.83223  0.62166  0.61357  1.0000
  Rh  Rh10      1.0  0.83223  0.12166  0.54214  1.0000
  Rh  Rh11      1.0  0.16777  0.37834  0.50547  1.0000
  Rh  Rh12      1.0  0.16777  0.87834  0.57690  1.0000
