data_image0
_chemical_formula_structural       Nb3Au6Nb3Au6
_chemical_formula_sum              "Nb6 Au12"
_cell_length_a       2.72697
_cell_length_b       12.2521
_cell_length_c       32.416
_cell_angle_alpha    79.1066
_cell_angle_beta     90
_cell_angle_gamma    90

_space_group_name_H-M_alt    "P 1"
_space_group_IT_number       1

loop_
  _space_group_symop_operation_xyz
  'x, y, z'

loop_
  _atom_site_type_symbol
  _atom_site_label
  _atom_site_symmetry_multiplicity
  _atom_site_fract_x
  _atom_site_fract_y
  _atom_site_fract_z
  _atom_site_occupancy
  Nb  Nb1       1.0  0.00000  0.66667  0.44444  1.0000
  Nb  Nb2       1.0  0.00000  0.33333  0.39683  1.0000
  Nb  Nb3       1.0  0.00000  0.00000  0.49206  1.0000
  Au  Au1       1.0  0.50000  0.77778  0.36508  1.0000
  Au  Au2       1.0  0.50000  0.44444  0.46032  1.0000
  Au  Au3       1.0  0.50000  0.11111  0.41270  1.0000
  Au  Au4       1.0  0.50000  0.55556  0.38095  1.0000
  Au  Au5       1.0  0.50000  0.22222  0.47619  1.0000
  Au  Au6       1.0  0.50000  0.88889  0.42857  1.0000
  Nb  Nb4       1.0  0.00000  0.66667  0.58730  1.0000
  Nb  Nb5       1.0  0.00000  0.33333  0.53968  1.0000
  Nb  Nb6       1.0  0.00000  0.00000  0.63492  1.0000
  Au  Au7       1.0  0.50000  0.77778  0.50794  1.0000
  Au  Au8       1.0  0.50000  0.44444  0.60317  1.0000
  Au  Au9       1.0  0.50000  0.11111  0.55556  1.0000
  Au  Au10      1.0  0.50000  0.55556  0.52381  1.0000
  Au  Au11      1.0  0.50000  0.22222  0.61905  1.0000
  Au  Au12      1.0  0.50000  0.88889  0.57143  1.0000
