data_image0
_chemical_formula_structural       Al6Au12
_chemical_formula_sum              "Al6 Au12"
_cell_length_a       5.01724
_cell_length_b       6.84909
_cell_length_c       30.6291
_cell_angle_alpha    92.4232
_cell_angle_beta     92.7725
_cell_angle_gamma    104.958

_space_group_name_H-M_alt    "P 1"
_space_group_IT_number       1

loop_
  _space_group_symop_operation_xyz
  'x, y, z'

loop_
  _atom_site_type_symbol
  _atom_site_label
  _atom_site_symmetry_multiplicity
  _atom_site_fract_x
  _atom_site_fract_y
  _atom_site_fract_z
  _atom_site_occupancy
  Al  Al1       1.0  0.50794  0.01587  0.50794  1.0000
  Al  Al2       1.0  0.26984  0.87302  0.60317  1.0000
  Al  Al3       1.0  0.88889  0.44444  0.55556  1.0000
  Al  Al4       1.0  0.36508  0.73016  0.36508  1.0000
  Al  Al5       1.0  0.12698  0.58730  0.46032  1.0000
  Al  Al6       1.0  0.74603  0.15873  0.41270  1.0000
  Au  Au1       1.0  0.36598  0.24703  0.57201  1.0000
  Au  Au2       1.0  0.98503  0.81846  0.52439  1.0000
  Au  Au3       1.0  0.74693  0.67560  0.61963  1.0000
  Au  Au4       1.0  0.17370  0.49900  0.63434  1.0000
  Au  Au5       1.0  0.79275  0.07043  0.58672  1.0000
  Au  Au6       1.0  0.41180  0.64186  0.53910  1.0000
  Au  Au7       1.0  0.22312  0.96131  0.42915  1.0000
  Au  Au8       1.0  0.84217  0.53274  0.38153  1.0000
  Au  Au9       1.0  0.60407  0.38989  0.47677  1.0000
  Au  Au10      1.0  0.03085  0.21329  0.49149  1.0000
  Au  Au11      1.0  0.64989  0.78472  0.44387  1.0000
  Au  Au12      1.0  0.26894  0.35615  0.39625  1.0000
