data_image0
_chemical_formula_structural       Ca4Ga4Au4
_chemical_formula_sum              "Ca4 Ga4 Au4"
_cell_length_a       4.5147
_cell_length_b       7.20442
_cell_length_c       30.5425
_cell_angle_alpha    90
_cell_angle_beta     90
_cell_angle_gamma    90

_space_group_name_H-M_alt    "P 1"
_space_group_IT_number       1

loop_
  _space_group_symop_operation_xyz
  'x, y, z'

loop_
  _atom_site_type_symbol
  _atom_site_label
  _atom_site_symmetry_multiplicity
  _atom_site_fract_x
  _atom_site_fract_y
  _atom_site_fract_z
  _atom_site_occupancy
  Ca  Ca1       1.0  0.75000  0.49408  0.51238  1.0000
  Ca  Ca2       1.0  0.25000  0.00592  0.38738  1.0000
  Ca  Ca3       1.0  0.75000  0.99408  0.48762  1.0000
  Ca  Ca4       1.0  0.25000  0.50592  0.61262  1.0000
  Ga  Ga1       1.0  0.25000  0.18040  0.54264  1.0000
  Ga  Ga2       1.0  0.75000  0.31960  0.41764  1.0000
  Ga  Ga3       1.0  0.25000  0.68040  0.45736  1.0000
  Ga  Ga4       1.0  0.75000  0.81960  0.58236  1.0000
  Au  Au1       1.0  0.25000  0.79312  0.53915  1.0000
  Au  Au2       1.0  0.75000  0.20688  0.58585  1.0000
  Au  Au3       1.0  0.25000  0.29312  0.46085  1.0000
  Au  Au4       1.0  0.75000  0.70688  0.41415  1.0000
