data_image0
_chemical_formula_structural       In3Si3Pt15
_chemical_formula_sum              "In3 Si3 Pt15"
_cell_length_a       3.94765
_cell_length_b       10.5866
_cell_length_c       32.3295
_cell_angle_alpha    77.4635
_cell_angle_beta     90
_cell_angle_gamma    90

_space_group_name_H-M_alt    "P 1"
_space_group_IT_number       1

loop_
  _space_group_symop_operation_xyz
  'x, y, z'

loop_
  _atom_site_type_symbol
  _atom_site_label
  _atom_site_symmetry_multiplicity
  _atom_site_fract_x
  _atom_site_fract_y
  _atom_site_fract_z
  _atom_site_occupancy
  In  In1       1.0  0.50000  0.50000  0.47619  1.0000
  In  In2       1.0  0.50000  0.83333  0.39286  1.0000
  In  In3       1.0  0.50000  0.16667  0.55952  1.0000
  Si  Si1       1.0  0.00000  0.83333  0.51786  1.0000
  Si  Si2       1.0  0.00000  0.16667  0.43452  1.0000
  Si  Si3       1.0  0.00000  0.50000  0.60119  1.0000
  Pt  Pt1       1.0  0.00000  0.66667  0.43452  1.0000
  Pt  Pt2       1.0  0.00000  0.00000  0.60119  1.0000
  Pt  Pt3       1.0  0.00000  0.33333  0.51786  1.0000
  Pt  Pt4       1.0  0.00000  0.73437  0.59337  1.0000
  Pt  Pt5       1.0  0.00000  0.06770  0.51004  1.0000
  Pt  Pt6       1.0  0.00000  0.40103  0.42671  1.0000
  Pt  Pt7       1.0  0.50000  0.90103  0.55171  1.0000
  Pt  Pt8       1.0  0.50000  0.23437  0.46837  1.0000
  Pt  Pt9       1.0  0.50000  0.56770  0.38504  1.0000
  Pt  Pt10      1.0  0.00000  0.59897  0.52567  1.0000
  Pt  Pt11      1.0  0.00000  0.93230  0.44234  1.0000
  Pt  Pt12      1.0  0.00000  0.26563  0.60901  1.0000
  Pt  Pt13      1.0  0.50000  0.76563  0.48401  1.0000
  Pt  Pt14      1.0  0.50000  0.09897  0.40067  1.0000
  Pt  Pt15      1.0  0.50000  0.43230  0.56734  1.0000
