data_image0
_chemical_formula_structural       Al4Ag8Al4Ag8
_chemical_formula_sum              "Al8 Ag16"
_cell_length_a       4.98837
_cell_length_b       9.75345
_cell_length_c       35.7711
_cell_angle_alpha    62.7134
_cell_angle_beta     90
_cell_angle_gamma    90

_space_group_name_H-M_alt    "P 1"
_space_group_IT_number       1

loop_
  _space_group_symop_operation_xyz
  'x, y, z'

loop_
  _atom_site_type_symbol
  _atom_site_label
  _atom_site_symmetry_multiplicity
  _atom_site_fract_x
  _atom_site_fract_y
  _atom_site_fract_z
  _atom_site_occupancy
  Al  Al1       1.0  0.17329  0.50000  0.46875  1.0000
  Al  Al2       1.0  0.82671  0.50000  0.40625  1.0000
  Al  Al3       1.0  0.67329  0.00000  0.40625  1.0000
  Al  Al4       1.0  0.32671  0.00000  0.46875  1.0000
  Ag  Ag1       1.0  0.18275  0.83951  0.42631  1.0000
  Ag  Ag2       1.0  0.68275  0.66049  0.44869  1.0000
  Ag  Ag3       1.0  0.81725  0.83951  0.48881  1.0000
  Ag  Ag4       1.0  0.31725  0.66049  0.38619  1.0000
  Ag  Ag5       1.0  0.68275  0.33951  0.48881  1.0000
  Ag  Ag6       1.0  0.18275  0.16049  0.38619  1.0000
  Ag  Ag7       1.0  0.31725  0.33951  0.42631  1.0000
  Ag  Ag8       1.0  0.81725  0.16049  0.44869  1.0000
  Al  Al5       1.0  0.17329  0.50000  0.59375  1.0000
  Al  Al6       1.0  0.82671  0.50000  0.53125  1.0000
  Al  Al7       1.0  0.67329  0.00000  0.53125  1.0000
  Al  Al8       1.0  0.32671  0.00000  0.59375  1.0000
  Ag  Ag9       1.0  0.18275  0.83951  0.55131  1.0000
  Ag  Ag10      1.0  0.68275  0.66049  0.57369  1.0000
  Ag  Ag11      1.0  0.81725  0.83951  0.61381  1.0000
  Ag  Ag12      1.0  0.31725  0.66049  0.51119  1.0000
  Ag  Ag13      1.0  0.68275  0.33951  0.61381  1.0000
  Ag  Ag14      1.0  0.18275  0.16049  0.51119  1.0000
  Ag  Ag15      1.0  0.31725  0.33951  0.55131  1.0000
  Ag  Ag16      1.0  0.81725  0.16049  0.57369  1.0000
