data_image0
_chemical_formula_structural       Cu5Au5Cu5Au5
_chemical_formula_sum              "Cu10 Au10"
_cell_length_a       6.28878
_cell_length_b       4.565
_cell_length_c       32.1708
_cell_angle_alpha    78.1657
_cell_angle_beta     76.4333
_cell_angle_gamma    74.0069

_space_group_name_H-M_alt    "P 1"
_space_group_IT_number       1

loop_
  _space_group_symop_operation_xyz
  'x, y, z'

loop_
  _atom_site_type_symbol
  _atom_site_label
  _atom_site_symmetry_multiplicity
  _atom_site_fract_x
  _atom_site_fract_y
  _atom_site_fract_z
  _atom_site_occupancy
  Cu  Cu1       1.0  0.40000  0.80000  0.44167  1.0000
  Cu  Cu2       1.0  0.80000  0.60000  0.47500  1.0000
  Cu  Cu3       1.0  0.00000  0.00000  0.40833  1.0000
  Cu  Cu4       1.0  0.20000  0.40000  0.34167  1.0000
  Cu  Cu5       1.0  0.60000  0.20000  0.37500  1.0000
  Au  Au1       1.0  0.40000  0.80000  0.35833  1.0000
  Au  Au2       1.0  0.80000  0.60000  0.39167  1.0000
  Au  Au3       1.0  0.00000  0.00000  0.49167  1.0000
  Au  Au4       1.0  0.20000  0.40000  0.42500  1.0000
  Au  Au5       1.0  0.60000  0.20000  0.45833  1.0000
  Cu  Cu6       1.0  0.40000  0.80000  0.60833  1.0000
  Cu  Cu7       1.0  0.80000  0.60000  0.64167  1.0000
  Cu  Cu8       1.0  0.00000  0.00000  0.57500  1.0000
  Cu  Cu9       1.0  0.20000  0.40000  0.50833  1.0000
  Cu  Cu10      1.0  0.60000  0.20000  0.54167  1.0000
  Au  Au6       1.0  0.40000  0.80000  0.52500  1.0000
  Au  Au7       1.0  0.80000  0.60000  0.55833  1.0000
  Au  Au8       1.0  0.00000  0.00000  0.65833  1.0000
  Au  Au9       1.0  0.20000  0.40000  0.59167  1.0000
  Au  Au10      1.0  0.60000  0.20000  0.62500  1.0000
