data_image0
_chemical_formula_structural       Zn12
_chemical_formula_sum              "Zn12"
_cell_length_a       4.45345
_cell_length_b       5.70894
_cell_length_c       30.8544
_cell_angle_alpha    103.014
_cell_angle_beta     90
_cell_angle_gamma    67.0429

_space_group_name_H-M_alt    "P 1"
_space_group_IT_number       1

loop_
  _space_group_symop_operation_xyz
  'x, y, z'

loop_
  _atom_site_type_symbol
  _atom_site_label
  _atom_site_symmetry_multiplicity
  _atom_site_fract_x
  _atom_site_fract_y
  _atom_site_fract_z
  _atom_site_occupancy
  Zn  Zn1       1.0  0.04167  0.25000  0.42708  1.0000
  Zn  Zn2       1.0  0.54167  0.25000  0.38542  1.0000
  Zn  Zn3       1.0  0.45833  0.75000  0.44792  1.0000
  Zn  Zn4       1.0  0.95833  0.75000  0.40625  1.0000
  Zn  Zn5       1.0  0.04167  0.25000  0.51042  1.0000
  Zn  Zn6       1.0  0.54167  0.25000  0.46875  1.0000
  Zn  Zn7       1.0  0.45833  0.75000  0.53125  1.0000
  Zn  Zn8       1.0  0.95833  0.75000  0.48958  1.0000
  Zn  Zn9       1.0  0.04167  0.25000  0.59375  1.0000
  Zn  Zn10      1.0  0.54167  0.25000  0.55208  1.0000
  Zn  Zn11      1.0  0.45833  0.75000  0.61458  1.0000
  Zn  Zn12      1.0  0.95833  0.75000  0.57292  1.0000
