data_image0
_chemical_formula_structural       Ga8Sn16V16
_chemical_formula_sum              "Ga8 Sn16 V16"
_cell_length_a       5.54237
_cell_length_b       9.68415
_cell_length_c       33.3453
_cell_angle_alpha    90
_cell_angle_beta     90
_cell_angle_gamma    106.628

_space_group_name_H-M_alt    "P 1"
_space_group_IT_number       1

loop_
  _space_group_symop_operation_xyz
  'x, y, z'

loop_
  _atom_site_type_symbol
  _atom_site_label
  _atom_site_symmetry_multiplicity
  _atom_site_fract_x
  _atom_site_fract_y
  _atom_site_fract_z
  _atom_site_occupancy
  Ga  Ga1       1.0  0.26893  0.03787  0.44000  1.0000
  Ga  Ga2       1.0  0.73107  0.96213  0.34000  1.0000
  Ga  Ga3       1.0  0.23107  0.96213  0.34000  1.0000
  Ga  Ga4       1.0  0.76893  0.03787  0.44000  1.0000
  Ga  Ga5       1.0  0.26893  0.03787  0.64000  1.0000
  Ga  Ga6       1.0  0.73107  0.96213  0.54000  1.0000
  Ga  Ga7       1.0  0.23107  0.96213  0.54000  1.0000
  Ga  Ga8       1.0  0.76893  0.03787  0.64000  1.0000
  Sn  Sn1       1.0  0.77859  0.55717  0.40505  1.0000
  Sn  Sn2       1.0  0.11128  0.22256  0.30487  1.0000
  Sn  Sn3       1.0  0.27859  0.55717  0.47495  1.0000
  Sn  Sn4       1.0  0.22141  0.44283  0.37495  1.0000
  Sn  Sn5       1.0  0.38872  0.77744  0.40487  1.0000
  Sn  Sn6       1.0  0.88872  0.77744  0.47513  1.0000
  Sn  Sn7       1.0  0.61128  0.22256  0.37513  1.0000
  Sn  Sn8       1.0  0.72141  0.44283  0.30505  1.0000
  Sn  Sn9       1.0  0.77859  0.55717  0.60505  1.0000
  Sn  Sn10      1.0  0.11128  0.22256  0.50487  1.0000
  Sn  Sn11      1.0  0.27859  0.55717  0.67495  1.0000
  Sn  Sn12      1.0  0.22141  0.44283  0.57495  1.0000
  Sn  Sn13      1.0  0.38872  0.77744  0.60487  1.0000
  Sn  Sn14      1.0  0.88872  0.77744  0.67513  1.0000
  Sn  Sn15      1.0  0.61128  0.22256  0.57513  1.0000
  Sn  Sn16      1.0  0.72141  0.44283  0.50505  1.0000
  V   V1        1.0  0.42664  0.85328  0.48436  1.0000
  V   V2        1.0  0.07336  0.14672  0.38436  1.0000
  V   V3        1.0  0.90910  0.31819  0.44000  1.0000
  V   V4        1.0  0.40910  0.31819  0.44000  1.0000
  V   V5        1.0  0.09090  0.68181  0.34000  1.0000
  V   V6        1.0  0.57336  0.14672  0.49564  1.0000
  V   V7        1.0  0.92664  0.85328  0.39564  1.0000
  V   V8        1.0  0.59090  0.68181  0.34000  1.0000
  V   V9        1.0  0.42664  0.85328  0.68436  1.0000
  V   V10       1.0  0.07336  0.14672  0.58436  1.0000
  V   V11       1.0  0.90910  0.31819  0.64000  1.0000
  V   V12       1.0  0.40910  0.31819  0.64000  1.0000
  V   V13       1.0  0.09090  0.68181  0.54000  1.0000
  V   V14       1.0  0.57336  0.14672  0.69564  1.0000
  V   V15       1.0  0.92664  0.85328  0.59564  1.0000
  V   V16       1.0  0.59090  0.68181  0.54000  1.0000
