data_image0
_chemical_formula_structural       Al8Ti4
_chemical_formula_sum              "Al8 Ti4"
_cell_length_a       3.97089
_cell_length_b       6.33587
_cell_length_c       29.8389
_cell_angle_alpha    95.9113
_cell_angle_beta     90
_cell_angle_gamma    90

_space_group_name_H-M_alt    "P 1"
_space_group_IT_number       1

loop_
  _space_group_symop_operation_xyz
  'x, y, z'

loop_
  _atom_site_type_symbol
  _atom_site_label
  _atom_site_symmetry_multiplicity
  _atom_site_fract_x
  _atom_site_fract_y
  _atom_site_fract_z
  _atom_site_occupancy
  Al  Al1       1.0  0.00000  0.97917  0.48958  1.0000
  Al  Al2       1.0  0.50000  0.85417  0.42708  1.0000
  Al  Al3       1.0  0.50000  0.42656  0.38620  1.0000
  Al  Al4       1.0  0.50000  0.28178  0.46797  1.0000
  Al  Al5       1.0  0.00000  0.22917  0.61458  1.0000
  Al  Al6       1.0  0.50000  0.10417  0.55208  1.0000
  Al  Al7       1.0  0.50000  0.67656  0.51120  1.0000
  Al  Al8       1.0  0.50000  0.53178  0.59297  1.0000
  Ti  Ti1       1.0  0.00000  0.12718  0.40758  1.0000
  Ti  Ti2       1.0  0.00000  0.58115  0.44658  1.0000
  Ti  Ti3       1.0  0.00000  0.37718  0.53258  1.0000
  Ti  Ti4       1.0  0.00000  0.83115  0.57158  1.0000
