data_image0
_chemical_formula_structural       Ga9Ni6Ga9Ni6
_chemical_formula_sum              "Ga18 Ni12"
_cell_length_a       4.03439
_cell_length_b       9.39343
_cell_length_c       37.6652
_cell_angle_alpha    99.1938
_cell_angle_beta     108.744
_cell_angle_gamma    64.5647

_space_group_name_H-M_alt    "P 1"
_space_group_IT_number       1

loop_
  _space_group_symop_operation_xyz
  'x, y, z'

loop_
  _atom_site_type_symbol
  _atom_site_label
  _atom_site_symmetry_multiplicity
  _atom_site_fract_x
  _atom_site_fract_y
  _atom_site_fract_z
  _atom_site_occupancy
  Ga  Ga1       1.0  0.00000  0.66667  0.38333  1.0000
  Ga  Ga2       1.0  0.00000  0.00000  0.49444  1.0000
  Ga  Ga3       1.0  0.00000  0.33333  0.43889  1.0000
  Ga  Ga4       1.0  0.66667  0.76831  0.47277  1.0000
  Ga  Ga5       1.0  0.66667  0.10164  0.41721  1.0000
  Ga  Ga6       1.0  0.66667  0.43497  0.36166  1.0000
  Ga  Ga7       1.0  0.33333  0.56503  0.46056  1.0000
  Ga  Ga8       1.0  0.33333  0.89836  0.40501  1.0000
  Ga  Ga9       1.0  0.33333  0.23169  0.34945  1.0000
  Ni  Ni1       1.0  0.66667  0.60101  0.41700  1.0000
  Ni  Ni2       1.0  0.66667  0.93435  0.36145  1.0000
  Ni  Ni3       1.0  0.66667  0.26768  0.47256  1.0000
  Ni  Ni4       1.0  0.33333  0.73232  0.34966  1.0000
  Ni  Ni5       1.0  0.33333  0.06565  0.46077  1.0000
  Ni  Ni6       1.0  0.33333  0.39899  0.40522  1.0000
  Ga  Ga10      1.0  0.00000  0.66667  0.55000  1.0000
  Ga  Ga11      1.0  0.00000  0.00000  0.66111  1.0000
  Ga  Ga12      1.0  0.00000  0.33333  0.60556  1.0000
  Ga  Ga13      1.0  0.66667  0.76831  0.63944  1.0000
  Ga  Ga14      1.0  0.66667  0.10164  0.58388  1.0000
  Ga  Ga15      1.0  0.66667  0.43497  0.52832  1.0000
  Ga  Ga16      1.0  0.33333  0.56503  0.62723  1.0000
  Ga  Ga17      1.0  0.33333  0.89836  0.57168  1.0000
  Ga  Ga18      1.0  0.33333  0.23169  0.51612  1.0000
  Ni  Ni7       1.0  0.66667  0.60101  0.58367  1.0000
  Ni  Ni8       1.0  0.66667  0.93435  0.52812  1.0000
  Ni  Ni9       1.0  0.66667  0.26768  0.63923  1.0000
  Ni  Ni10      1.0  0.33333  0.73232  0.51633  1.0000
  Ni  Ni11      1.0  0.33333  0.06565  0.62744  1.0000
  Ni  Ni12      1.0  0.33333  0.39899  0.57188  1.0000
