data_image0
_chemical_formula_structural       Ru12
_chemical_formula_sum              "Ru12"
_cell_length_a       4.6498
_cell_length_b       5.01636
_cell_length_c       29.5302
_cell_angle_alpha    105.52
_cell_angle_beta     90
_cell_angle_gamma    62.3892

_space_group_name_H-M_alt    "P 1"
_space_group_IT_number       1

loop_
  _space_group_symop_operation_xyz
  'x, y, z'

loop_
  _atom_site_type_symbol
  _atom_site_label
  _atom_site_symmetry_multiplicity
  _atom_site_fract_x
  _atom_site_fract_y
  _atom_site_fract_z
  _atom_site_occupancy
  Ru  Ru1       1.0  0.70833  0.25000  0.42045  1.0000
  Ru  Ru2       1.0  0.20833  0.25000  0.37500  1.0000
  Ru  Ru3       1.0  0.79167  0.75000  0.44318  1.0000
  Ru  Ru4       1.0  0.29167  0.75000  0.39773  1.0000
  Ru  Ru5       1.0  0.70833  0.25000  0.51136  1.0000
  Ru  Ru6       1.0  0.20833  0.25000  0.46591  1.0000
  Ru  Ru7       1.0  0.79167  0.75000  0.53409  1.0000
  Ru  Ru8       1.0  0.29167  0.75000  0.48864  1.0000
  Ru  Ru9       1.0  0.70833  0.25000  0.60227  1.0000
  Ru  Ru10      1.0  0.20833  0.25000  0.55682  1.0000
  Ru  Ru11      1.0  0.79167  0.75000  0.62500  1.0000
  Ru  Ru12      1.0  0.29167  0.75000  0.57955  1.0000
