data_image0
_chemical_formula_structural       Ti2Au8Ti2Au8
_chemical_formula_sum              "Ti4 Au16"
_cell_length_a       6.4695
_cell_length_b       3.93428
_cell_length_c       38.817
_cell_angle_alpha    90
_cell_angle_beta     90
_cell_angle_gamma    90

_space_group_name_H-M_alt    "P 1"
_space_group_IT_number       1

loop_
  _space_group_symop_operation_xyz
  'x, y, z'

loop_
  _atom_site_type_symbol
  _atom_site_label
  _atom_site_symmetry_multiplicity
  _atom_site_fract_x
  _atom_site_fract_y
  _atom_site_fract_z
  _atom_site_occupancy
  Ti  Ti1       1.0  0.00000  0.00000  0.45833  1.0000
  Ti  Ti2       1.0  0.50000  0.50000  0.37500  1.0000
  Au  Au1       1.0  0.79308  0.00000  0.39249  1.0000
  Au  Au2       1.0  0.20692  0.00000  0.35751  1.0000
  Au  Au3       1.0  0.89506  0.50000  0.34051  1.0000
  Au  Au4       1.0  0.10494  0.50000  0.40949  1.0000
  Au  Au5       1.0  0.29308  0.50000  0.47582  1.0000
  Au  Au6       1.0  0.70692  0.50000  0.44084  1.0000
  Au  Au7       1.0  0.39506  0.00000  0.42385  1.0000
  Au  Au8       1.0  0.60494  0.00000  0.49282  1.0000
  Ti  Ti3       1.0  0.00000  0.00000  0.62500  1.0000
  Ti  Ti4       1.0  0.50000  0.50000  0.54167  1.0000
  Au  Au9       1.0  0.79308  0.00000  0.55916  1.0000
  Au  Au10      1.0  0.20692  0.00000  0.52418  1.0000
  Au  Au11      1.0  0.89506  0.50000  0.50718  1.0000
  Au  Au12      1.0  0.10494  0.50000  0.57615  1.0000
  Au  Au13      1.0  0.29308  0.50000  0.64249  1.0000
  Au  Au14      1.0  0.70692  0.50000  0.60751  1.0000
  Au  Au15      1.0  0.39506  0.00000  0.59051  1.0000
  Au  Au16      1.0  0.60494  0.00000  0.65949  1.0000
