data_image0
_chemical_formula_structural       Nb6Rh6Nb6Rh6Nb6Rh6
_chemical_formula_sum              "Nb18 Rh18"
_cell_length_a       4.84864
_cell_length_b       14.2674
_cell_length_c       31.0872
_cell_angle_alpha    101.425
_cell_angle_beta     90
_cell_angle_gamma    103.937

_space_group_name_H-M_alt    "P 1"
_space_group_IT_number       1

loop_
  _space_group_symop_operation_xyz
  'x, y, z'

loop_
  _atom_site_type_symbol
  _atom_site_label
  _atom_site_symmetry_multiplicity
  _atom_site_fract_x
  _atom_site_fract_y
  _atom_site_fract_z
  _atom_site_occupancy
  Nb  Nb1       1.0  0.74801  0.41787  0.40162  1.0000
  Nb  Nb2       1.0  0.74801  0.91787  0.44708  1.0000
  Nb  Nb3       1.0  0.00000  0.25000  0.38636  1.0000
  Nb  Nb4       1.0  0.00000  0.75000  0.43182  1.0000
  Nb  Nb5       1.0  0.25199  0.08213  0.37110  1.0000
  Nb  Nb6       1.0  0.25199  0.58213  0.41656  1.0000
  Rh  Rh1       1.0  0.50000  0.25000  0.43182  1.0000
  Rh  Rh2       1.0  0.50000  0.75000  0.38636  1.0000
  Rh  Rh3       1.0  0.25669  0.41611  0.44692  1.0000
  Rh  Rh4       1.0  0.25669  0.91611  0.40146  1.0000
  Rh  Rh5       1.0  0.74331  0.08389  0.41672  1.0000
  Rh  Rh6       1.0  0.74331  0.58389  0.37126  1.0000
  Nb  Nb7       1.0  0.74801  0.41787  0.49253  1.0000
  Nb  Nb8       1.0  0.74801  0.91787  0.53799  1.0000
  Nb  Nb9       1.0  0.00000  0.25000  0.47727  1.0000
  Nb  Nb10      1.0  0.00000  0.75000  0.52273  1.0000
  Nb  Nb11      1.0  0.25199  0.08213  0.46201  1.0000
  Nb  Nb12      1.0  0.25199  0.58213  0.50747  1.0000
  Rh  Rh7       1.0  0.50000  0.25000  0.52273  1.0000
  Rh  Rh8       1.0  0.50000  0.75000  0.47727  1.0000
  Rh  Rh9       1.0  0.25669  0.41611  0.53783  1.0000
  Rh  Rh10      1.0  0.25669  0.91611  0.49237  1.0000
  Rh  Rh11      1.0  0.74331  0.08389  0.50763  1.0000
  Rh  Rh12      1.0  0.74331  0.58389  0.46217  1.0000
  Nb  Nb13      1.0  0.74801  0.41787  0.58344  1.0000
  Nb  Nb14      1.0  0.74801  0.91787  0.62890  1.0000
  Nb  Nb15      1.0  0.00000  0.25000  0.56818  1.0000
  Nb  Nb16      1.0  0.00000  0.75000  0.61364  1.0000
  Nb  Nb17      1.0  0.25199  0.08213  0.55292  1.0000
  Nb  Nb18      1.0  0.25199  0.58213  0.59838  1.0000
  Rh  Rh13      1.0  0.50000  0.25000  0.61364  1.0000
  Rh  Rh14      1.0  0.50000  0.75000  0.56818  1.0000
  Rh  Rh15      1.0  0.25669  0.41611  0.62874  1.0000
  Rh  Rh16      1.0  0.25669  0.91611  0.58328  1.0000
  Rh  Rh17      1.0  0.74331  0.08389  0.59854  1.0000
  Rh  Rh18      1.0  0.74331  0.58389  0.55308  1.0000
