data_image0
_chemical_formula_structural       Rh12W4Rh12W4
_chemical_formula_sum              "Rh24 W8"
_cell_length_a       5.42965
_cell_length_b       11.6861
_cell_length_c       34.5401
_cell_angle_alpha    68.3179
_cell_angle_beta     90
_cell_angle_gamma    62.3141

_space_group_name_H-M_alt    "P 1"
_space_group_IT_number       1

loop_
  _space_group_symop_operation_xyz
  'x, y, z'

loop_
  _atom_site_type_symbol
  _atom_site_label
  _atom_site_symmetry_multiplicity
  _atom_site_fract_x
  _atom_site_fract_y
  _atom_site_fract_z
  _atom_site_occupancy
  Rh  Rh1       1.0  0.66561  0.08360  0.38018  1.0000
  Rh  Rh2       1.0  0.66561  0.58360  0.44268  1.0000
  Rh  Rh3       1.0  0.83280  0.41640  0.40107  1.0000
  Rh  Rh4       1.0  0.83280  0.91640  0.46357  1.0000
  Rh  Rh5       1.0  0.83280  0.16720  0.43223  1.0000
  Rh  Rh6       1.0  0.83280  0.66720  0.49473  1.0000
  Rh  Rh7       1.0  0.16720  0.33280  0.47402  1.0000
  Rh  Rh8       1.0  0.16720  0.83280  0.41152  1.0000
  Rh  Rh9       1.0  0.16720  0.08360  0.38018  1.0000
  Rh  Rh10      1.0  0.16720  0.58360  0.44268  1.0000
  Rh  Rh11      1.0  0.33439  0.41640  0.40107  1.0000
  Rh  Rh12      1.0  0.33439  0.91640  0.46357  1.0000
  W   W1        1.0  0.66667  0.33333  0.47396  1.0000
  W   W2        1.0  0.66667  0.83333  0.41146  1.0000
  W   W3        1.0  0.33333  0.16667  0.43229  1.0000
  W   W4        1.0  0.33333  0.66667  0.49479  1.0000
  Rh  Rh13      1.0  0.66561  0.08360  0.50518  1.0000
  Rh  Rh14      1.0  0.66561  0.58360  0.56768  1.0000
  Rh  Rh15      1.0  0.83280  0.41640  0.52607  1.0000
  Rh  Rh16      1.0  0.83280  0.91640  0.58857  1.0000
  Rh  Rh17      1.0  0.83280  0.16720  0.55723  1.0000
  Rh  Rh18      1.0  0.83280  0.66720  0.61973  1.0000
  Rh  Rh19      1.0  0.16720  0.33280  0.59902  1.0000
  Rh  Rh20      1.0  0.16720  0.83280  0.53652  1.0000
  Rh  Rh21      1.0  0.16720  0.08360  0.50518  1.0000
  Rh  Rh22      1.0  0.16720  0.58360  0.56768  1.0000
  Rh  Rh23      1.0  0.33439  0.41640  0.52607  1.0000
  Rh  Rh24      1.0  0.33439  0.91640  0.58857  1.0000
  W   W5        1.0  0.66667  0.33333  0.59896  1.0000
  W   W6        1.0  0.66667  0.83333  0.53646  1.0000
  W   W7        1.0  0.33333  0.16667  0.55729  1.0000
  W   W8        1.0  0.33333  0.66667  0.61979  1.0000
