data_image0
_chemical_formula_structural       Ca4Cu4Ga2
_chemical_formula_sum              "Ca4 Cu4 Ga2"
_cell_length_a       4.1696
_cell_length_b       5.60472
_cell_length_c       37.0519
_cell_angle_alpha    92.5409
_cell_angle_beta     90
_cell_angle_gamma    111.837

_space_group_name_H-M_alt    "P 1"
_space_group_IT_number       1

loop_
  _space_group_symop_operation_xyz
  'x, y, z'

loop_
  _atom_site_type_symbol
  _atom_site_label
  _atom_site_symmetry_multiplicity
  _atom_site_fract_x
  _atom_site_fract_y
  _atom_site_fract_z
  _atom_site_occupancy
  Ca  Ca1       1.0  0.74703  0.49405  0.44950  1.0000
  Ca  Ca2       1.0  0.49703  0.99405  0.57450  1.0000
  Ca  Ca3       1.0  0.45297  0.90595  0.40050  1.0000
  Ca  Ca4       1.0  0.20297  0.40595  0.52550  1.0000
  Cu  Cu1       1.0  0.15997  0.31993  0.39502  1.0000
  Cu  Cu2       1.0  0.90997  0.81993  0.52002  1.0000
  Cu  Cu3       1.0  0.79003  0.58007  0.57998  1.0000
  Cu  Cu4       1.0  0.04003  0.08007  0.45498  1.0000
  Ga  Ga1       1.0  0.47500  0.95000  0.48750  1.0000
  Ga  Ga2       1.0  0.22500  0.45000  0.61250  1.0000
