data_image0
_chemical_formula_structural       Fe4Sb8Fe4Sb8Fe4Sb8
_chemical_formula_sum              "Fe12 Sb24"
_cell_length_a       11.7943
_cell_length_b       7.16315
_cell_length_c       35.3787
_cell_angle_alpha    116.679
_cell_angle_beta     105.825
_cell_angle_gamma    82.9671

_space_group_name_H-M_alt    "P 1"
_space_group_IT_number       1

loop_
  _space_group_symop_operation_xyz
  'x, y, z'

loop_
  _atom_site_type_symbol
  _atom_site_label
  _atom_site_symmetry_multiplicity
  _atom_site_fract_x
  _atom_site_fract_y
  _atom_site_fract_z
  _atom_site_occupancy
  Fe  Fe1       1.0  0.00000  0.00000  0.43561  1.0000
  Fe  Fe2       1.0  0.50000  0.00000  0.39015  1.0000
  Fe  Fe3       1.0  0.25000  0.50000  0.36742  1.0000
  Fe  Fe4       1.0  0.75000  0.50000  0.41288  1.0000
  Sb  Sb1       1.0  0.09824  0.35518  0.38592  1.0000
  Sb  Sb2       1.0  0.59824  0.35518  0.43137  1.0000
  Sb  Sb3       1.0  0.40176  0.64482  0.43984  1.0000
  Sb  Sb4       1.0  0.90176  0.64482  0.39439  1.0000
  Sb  Sb5       1.0  0.15176  0.85518  0.39078  1.0000
  Sb  Sb6       1.0  0.65176  0.85518  0.43624  1.0000
  Sb  Sb7       1.0  0.34824  0.14482  0.43497  1.0000
  Sb  Sb8       1.0  0.84824  0.14482  0.38952  1.0000
  Fe  Fe5       1.0  0.00000  0.00000  0.52652  1.0000
  Fe  Fe6       1.0  0.50000  0.00000  0.48106  1.0000
  Fe  Fe7       1.0  0.25000  0.50000  0.45833  1.0000
  Fe  Fe8       1.0  0.75000  0.50000  0.50379  1.0000
  Sb  Sb9       1.0  0.09824  0.35518  0.47683  1.0000
  Sb  Sb10      1.0  0.59824  0.35518  0.52228  1.0000
  Sb  Sb11      1.0  0.40176  0.64482  0.53075  1.0000
  Sb  Sb12      1.0  0.90176  0.64482  0.48529  1.0000
  Sb  Sb13      1.0  0.15176  0.85518  0.48169  1.0000
  Sb  Sb14      1.0  0.65176  0.85518  0.52715  1.0000
  Sb  Sb15      1.0  0.34824  0.14482  0.52588  1.0000
  Sb  Sb16      1.0  0.84824  0.14482  0.48043  1.0000
  Fe  Fe9       1.0  0.00000  0.00000  0.61742  1.0000
  Fe  Fe10      1.0  0.50000  0.00000  0.57197  1.0000
  Fe  Fe11      1.0  0.25000  0.50000  0.54924  1.0000
  Fe  Fe12      1.0  0.75000  0.50000  0.59470  1.0000
  Sb  Sb17      1.0  0.09824  0.35518  0.56774  1.0000
  Sb  Sb18      1.0  0.59824  0.35518  0.61319  1.0000
  Sb  Sb19      1.0  0.40176  0.64482  0.62166  1.0000
  Sb  Sb20      1.0  0.90176  0.64482  0.57620  1.0000
  Sb  Sb21      1.0  0.15176  0.85518  0.57260  1.0000
  Sb  Sb22      1.0  0.65176  0.85518  0.61806  1.0000
  Sb  Sb23      1.0  0.34824  0.14482  0.61679  1.0000
  Sb  Sb24      1.0  0.84824  0.14482  0.57134  1.0000
