data_image0
_chemical_formula_structural       Nb4Au8Nb4Au8
_chemical_formula_sum              "Nb8 Au16"
_cell_length_a       8.02088
_cell_length_b       5.37412
_cell_length_c       37.6189
_cell_angle_alpha    119.015
_cell_angle_beta     90
_cell_angle_gamma    90

_space_group_name_H-M_alt    "P 1"
_space_group_IT_number       1

loop_
  _space_group_symop_operation_xyz
  'x, y, z'

loop_
  _atom_site_type_symbol
  _atom_site_label
  _atom_site_symmetry_multiplicity
  _atom_site_fract_x
  _atom_site_fract_y
  _atom_site_fract_z
  _atom_site_occupancy
  Nb  Nb1       1.0  0.00000  0.50000  0.41071  1.0000
  Nb  Nb2       1.0  0.00000  0.00000  0.48214  1.0000
  Nb  Nb3       1.0  0.50000  0.25000  0.44643  1.0000
  Nb  Nb4       1.0  0.50000  0.75000  0.37500  1.0000
  Au  Au1       1.0  0.16667  0.50000  0.48214  1.0000
  Au  Au2       1.0  0.16667  0.00000  0.41071  1.0000
  Au  Au3       1.0  0.66667  0.25000  0.37500  1.0000
  Au  Au4       1.0  0.66667  0.75000  0.44643  1.0000
  Au  Au5       1.0  0.33333  0.25000  0.37500  1.0000
  Au  Au6       1.0  0.33333  0.75000  0.44643  1.0000
  Au  Au7       1.0  0.83333  0.00000  0.41071  1.0000
  Au  Au8       1.0  0.83333  0.50000  0.48214  1.0000
  Nb  Nb5       1.0  0.00000  0.50000  0.55357  1.0000
  Nb  Nb6       1.0  0.00000  0.00000  0.62500  1.0000
  Nb  Nb7       1.0  0.50000  0.25000  0.58929  1.0000
  Nb  Nb8       1.0  0.50000  0.75000  0.51786  1.0000
  Au  Au9       1.0  0.16667  0.50000  0.62500  1.0000
  Au  Au10      1.0  0.16667  0.00000  0.55357  1.0000
  Au  Au11      1.0  0.66667  0.25000  0.51786  1.0000
  Au  Au12      1.0  0.66667  0.75000  0.58929  1.0000
  Au  Au13      1.0  0.33333  0.25000  0.51786  1.0000
  Au  Au14      1.0  0.33333  0.75000  0.58929  1.0000
  Au  Au15      1.0  0.83333  0.00000  0.55357  1.0000
  Au  Au16      1.0  0.83333  0.50000  0.62500  1.0000
