data_image0
_chemical_formula_structural       Pt15Pb5Pt15Pb5
_chemical_formula_sum              "Pt30 Pb10"
_cell_length_a       5.74893
_cell_length_b       9.08986
_cell_length_c       35.2049
_cell_angle_alpha    75.0368
_cell_angle_beta     90
_cell_angle_gamma    71.5651

_space_group_name_H-M_alt    "P 1"
_space_group_IT_number       1

loop_
  _space_group_symop_operation_xyz
  'x, y, z'

loop_
  _atom_site_type_symbol
  _atom_site_label
  _atom_site_symmetry_multiplicity
  _atom_site_fract_x
  _atom_site_fract_y
  _atom_site_fract_z
  _atom_site_occupancy
  Pt  Pt1       1.0  0.50000  0.50000  0.39000  1.0000
  Pt  Pt2       1.0  0.30000  0.90000  0.43000  1.0000
  Pt  Pt3       1.0  0.70000  0.10000  0.35000  1.0000
  Pt  Pt4       1.0  0.10000  0.30000  0.47000  1.0000
  Pt  Pt5       1.0  0.90000  0.70000  0.31000  1.0000
  Pt  Pt6       1.0  0.00000  0.50000  0.39000  1.0000
  Pt  Pt7       1.0  0.80000  0.90000  0.43000  1.0000
  Pt  Pt8       1.0  0.20000  0.10000  0.35000  1.0000
  Pt  Pt9       1.0  0.60000  0.30000  0.47000  1.0000
  Pt  Pt10      1.0  0.40000  0.70000  0.31000  1.0000
  Pt  Pt11      1.0  0.90000  0.20000  0.41000  1.0000
  Pt  Pt12      1.0  0.70000  0.60000  0.45000  1.0000
  Pt  Pt13      1.0  0.10000  0.80000  0.37000  1.0000
  Pt  Pt14      1.0  0.50000  0.00000  0.49000  1.0000
  Pt  Pt15      1.0  0.30000  0.40000  0.33000  1.0000
  Pb  Pb1       1.0  0.80000  0.40000  0.33000  1.0000
  Pb  Pb2       1.0  0.60000  0.80000  0.37000  1.0000
  Pb  Pb3       1.0  0.00000  0.00000  0.49000  1.0000
  Pb  Pb4       1.0  0.40000  0.20000  0.41000  1.0000
  Pb  Pb5       1.0  0.20000  0.60000  0.45000  1.0000
  Pt  Pt16      1.0  0.50000  0.50000  0.59000  1.0000
  Pt  Pt17      1.0  0.30000  0.90000  0.63000  1.0000
  Pt  Pt18      1.0  0.70000  0.10000  0.55000  1.0000
  Pt  Pt19      1.0  0.10000  0.30000  0.67000  1.0000
  Pt  Pt20      1.0  0.90000  0.70000  0.51000  1.0000
  Pt  Pt21      1.0  0.00000  0.50000  0.59000  1.0000
  Pt  Pt22      1.0  0.80000  0.90000  0.63000  1.0000
  Pt  Pt23      1.0  0.20000  0.10000  0.55000  1.0000
  Pt  Pt24      1.0  0.60000  0.30000  0.67000  1.0000
  Pt  Pt25      1.0  0.40000  0.70000  0.51000  1.0000
  Pt  Pt26      1.0  0.90000  0.20000  0.61000  1.0000
  Pt  Pt27      1.0  0.70000  0.60000  0.65000  1.0000
  Pt  Pt28      1.0  0.10000  0.80000  0.57000  1.0000
  Pt  Pt29      1.0  0.50000  0.00000  0.69000  1.0000
  Pt  Pt30      1.0  0.30000  0.40000  0.53000  1.0000
  Pb  Pb6       1.0  0.80000  0.40000  0.53000  1.0000
  Pb  Pb7       1.0  0.60000  0.80000  0.57000  1.0000
  Pb  Pb8       1.0  0.00000  0.00000  0.69000  1.0000
  Pb  Pb9       1.0  0.40000  0.20000  0.61000  1.0000
  Pb  Pb10      1.0  0.20000  0.60000  0.65000  1.0000
