data_image0
_chemical_formula_structural       Fe4Ge8
_chemical_formula_sum              "Fe4 Ge8"
_cell_length_a       4.774
_cell_length_b       4.774
_cell_length_c       29.8871
_cell_angle_alpha    86.7054
_cell_angle_beta     86.7054
_cell_angle_gamma    75.0222

_space_group_name_H-M_alt    "P 1"
_space_group_IT_number       1

loop_
  _space_group_symop_operation_xyz
  'x, y, z'

loop_
  _atom_site_type_symbol
  _atom_site_label
  _atom_site_symmetry_multiplicity
  _atom_site_fract_x
  _atom_site_fract_y
  _atom_site_fract_z
  _atom_site_occupancy
  Fe  Fe1       1.0  0.71875  0.71875  0.40625  1.0000
  Fe  Fe2       1.0  0.09375  0.09375  0.53125  1.0000
  Fe  Fe3       1.0  0.90625  0.90625  0.46875  1.0000
  Fe  Fe4       1.0  0.28125  0.28125  0.59375  1.0000
  Ge  Ge1       1.0  0.37106  0.05872  0.45702  1.0000
  Ge  Ge2       1.0  0.74606  0.43372  0.58202  1.0000
  Ge  Ge3       1.0  0.87122  0.18356  0.39452  1.0000
  Ge  Ge4       1.0  0.24622  0.55856  0.51952  1.0000
  Ge  Ge5       1.0  0.75378  0.44144  0.48048  1.0000
  Ge  Ge6       1.0  0.12878  0.81644  0.60548  1.0000
  Ge  Ge7       1.0  0.62894  0.94128  0.54298  1.0000
  Ge  Ge8       1.0  0.25394  0.56628  0.41798  1.0000
