data_image0
_chemical_formula_structural       Co12As12
_chemical_formula_sum              "Co12 As12"
_cell_length_a       3.42232
_cell_length_b       11.9596
_cell_length_c       31.1195
_cell_angle_alpha    103.664
_cell_angle_beta     90
_cell_angle_gamma    90

_space_group_name_H-M_alt    "P 1"
_space_group_IT_number       1

loop_
  _space_group_symop_operation_xyz
  'x, y, z'

loop_
  _atom_site_type_symbol
  _atom_site_label
  _atom_site_symmetry_multiplicity
  _atom_site_fract_x
  _atom_site_fract_y
  _atom_site_fract_z
  _atom_site_occupancy
  Co  Co1       1.0  0.25000  0.39889  0.40802  1.0000
  Co  Co2       1.0  0.25000  0.06556  0.49135  1.0000
  Co  Co3       1.0  0.25000  0.73223  0.57468  1.0000
  Co  Co4       1.0  0.25000  0.60048  0.38381  1.0000
  Co  Co5       1.0  0.25000  0.26715  0.46714  1.0000
  Co  Co6       1.0  0.25000  0.93381  0.55048  1.0000
  Co  Co7       1.0  0.75000  0.26777  0.59198  1.0000
  Co  Co8       1.0  0.75000  0.93444  0.42532  1.0000
  Co  Co9       1.0  0.75000  0.60111  0.50865  1.0000
  Co  Co10      1.0  0.75000  0.06619  0.61619  1.0000
  Co  Co11      1.0  0.75000  0.73285  0.44952  1.0000
  Co  Co12      1.0  0.75000  0.39952  0.53286  1.0000
  As  As1       1.0  0.25000  0.40378  0.58527  1.0000
  As  As2       1.0  0.25000  0.07045  0.41860  1.0000
  As  As3       1.0  0.25000  0.73712  0.50194  1.0000
  As  As4       1.0  0.75000  0.53723  0.42691  1.0000
  As  As5       1.0  0.75000  0.20390  0.51024  1.0000
  As  As6       1.0  0.75000  0.87057  0.59357  1.0000
  As  As7       1.0  0.75000  0.26288  0.41473  1.0000
  As  As8       1.0  0.75000  0.92955  0.49806  1.0000
  As  As9       1.0  0.75000  0.59622  0.58140  1.0000
  As  As10      1.0  0.25000  0.12943  0.57309  1.0000
  As  As11      1.0  0.25000  0.79610  0.40643  1.0000
  As  As12      1.0  0.25000  0.46277  0.48976  1.0000
