data_image0
_chemical_formula_structural       Si4Ni4Si4Ni4Si4Ni4
_chemical_formula_sum              "Si12 Ni12"
_cell_length_a       5.0935
_cell_length_b       5.52328
_cell_length_c       30.2494
_cell_angle_alpha    90
_cell_angle_beta     90
_cell_angle_gamma    90

_space_group_name_H-M_alt    "P 1"
_space_group_IT_number       1

loop_
  _space_group_symop_operation_xyz
  'x, y, z'

loop_
  _atom_site_type_symbol
  _atom_site_label
  _atom_site_symmetry_multiplicity
  _atom_site_fract_x
  _atom_site_fract_y
  _atom_site_fract_z
  _atom_site_occupancy
  Si  Si1       1.0  0.82164  0.08609  0.41667  1.0000
  Si  Si2       1.0  0.17836  0.91391  0.36111  1.0000
  Si  Si3       1.0  0.32164  0.41391  0.41667  1.0000
  Si  Si4       1.0  0.67836  0.58609  0.36111  1.0000
  Ni  Ni1       1.0  0.50915  0.18772  0.36111  1.0000
  Ni  Ni2       1.0  0.49085  0.81228  0.41667  1.0000
  Ni  Ni3       1.0  0.00915  0.31228  0.36111  1.0000
  Ni  Ni4       1.0  0.99085  0.68772  0.41667  1.0000
  Si  Si5       1.0  0.82164  0.08609  0.52778  1.0000
  Si  Si6       1.0  0.17836  0.91391  0.47222  1.0000
  Si  Si7       1.0  0.32164  0.41391  0.52778  1.0000
  Si  Si8       1.0  0.67836  0.58609  0.47222  1.0000
  Ni  Ni5       1.0  0.50915  0.18772  0.47222  1.0000
  Ni  Ni6       1.0  0.49085  0.81228  0.52778  1.0000
  Ni  Ni7       1.0  0.00915  0.31228  0.47222  1.0000
  Ni  Ni8       1.0  0.99085  0.68772  0.52778  1.0000
  Si  Si9       1.0  0.82164  0.08609  0.63889  1.0000
  Si  Si10      1.0  0.17836  0.91391  0.58333  1.0000
  Si  Si11      1.0  0.32164  0.41391  0.63889  1.0000
  Si  Si12      1.0  0.67836  0.58609  0.58333  1.0000
  Ni  Ni9       1.0  0.50915  0.18772  0.58333  1.0000
  Ni  Ni10      1.0  0.49085  0.81228  0.63889  1.0000
  Ni  Ni11      1.0  0.00915  0.31228  0.58333  1.0000
  Ni  Ni12      1.0  0.99085  0.68772  0.63889  1.0000
