data_image0
_chemical_formula_structural       Ni6Sb12Ni6Sb12
_chemical_formula_sum              "Ni12 Sb24"
_cell_length_a       9.18874
_cell_length_b       7.2826
_cell_length_c       38.9158
_cell_angle_alpha    107.396
_cell_angle_beta     90.2858
_cell_angle_gamma    65.0353

_space_group_name_H-M_alt    "P 1"
_space_group_IT_number       1

loop_
  _space_group_symop_operation_xyz
  'x, y, z'

loop_
  _atom_site_type_symbol
  _atom_site_label
  _atom_site_symmetry_multiplicity
  _atom_site_fract_x
  _atom_site_fract_y
  _atom_site_fract_z
  _atom_site_occupancy
  Ni  Ni1       1.0  0.50000  0.50000  0.47222  1.0000
  Ni  Ni2       1.0  0.83333  0.50000  0.41667  1.0000
  Ni  Ni3       1.0  0.16667  0.50000  0.36111  1.0000
  Ni  Ni4       1.0  0.66667  0.00000  0.36111  1.0000
  Ni  Ni5       1.0  0.00000  0.00000  0.47222  1.0000
  Ni  Ni6       1.0  0.33333  0.00000  0.41667  1.0000
  Sb  Sb1       1.0  0.69207  0.13959  0.47618  1.0000
  Sb  Sb2       1.0  0.02541  0.13959  0.42062  1.0000
  Sb  Sb3       1.0  0.35874  0.13959  0.36507  1.0000
  Sb  Sb4       1.0  0.30793  0.86041  0.46827  1.0000
  Sb  Sb5       1.0  0.64126  0.86041  0.41271  1.0000
  Sb  Sb6       1.0  0.97459  0.86041  0.35716  1.0000
  Sb  Sb7       1.0  0.71487  0.63959  0.48378  1.0000
  Sb  Sb8       1.0  0.04820  0.63959  0.42822  1.0000
  Sb  Sb9       1.0  0.38153  0.63959  0.37267  1.0000
  Sb  Sb10      1.0  0.61847  0.36041  0.40511  1.0000
  Sb  Sb11      1.0  0.95180  0.36041  0.34956  1.0000
  Sb  Sb12      1.0  0.28513  0.36041  0.46067  1.0000
  Ni  Ni7       1.0  0.50000  0.50000  0.63889  1.0000
  Ni  Ni8       1.0  0.83333  0.50000  0.58333  1.0000
  Ni  Ni9       1.0  0.16667  0.50000  0.52778  1.0000
  Ni  Ni10      1.0  0.66667  0.00000  0.52778  1.0000
  Ni  Ni11      1.0  0.00000  0.00000  0.63889  1.0000
  Ni  Ni12      1.0  0.33333  0.00000  0.58333  1.0000
  Sb  Sb13      1.0  0.69207  0.13959  0.64284  1.0000
  Sb  Sb14      1.0  0.02541  0.13959  0.58729  1.0000
  Sb  Sb15      1.0  0.35874  0.13959  0.53173  1.0000
  Sb  Sb16      1.0  0.30793  0.86041  0.63493  1.0000
  Sb  Sb17      1.0  0.64126  0.86041  0.57938  1.0000
  Sb  Sb18      1.0  0.97459  0.86041  0.52382  1.0000
  Sb  Sb19      1.0  0.71487  0.63959  0.65044  1.0000
  Sb  Sb20      1.0  0.04820  0.63959  0.59489  1.0000
  Sb  Sb21      1.0  0.38153  0.63959  0.53933  1.0000
  Sb  Sb22      1.0  0.61847  0.36041  0.57178  1.0000
  Sb  Sb23      1.0  0.95180  0.36041  0.51622  1.0000
  Sb  Sb24      1.0  0.28513  0.36041  0.62733  1.0000
