data_image0
_chemical_formula_structural       Sb16Os8
_chemical_formula_sum              "Sb16 Os8"
_cell_length_a       6.75895
_cell_length_b       9.27652
_cell_length_c       38.0229
_cell_angle_alpha    74.2157
_cell_angle_beta     67.1062
_cell_angle_gamma    70.7329

_space_group_name_H-M_alt    "P 1"
_space_group_IT_number       1

loop_
  _space_group_symop_operation_xyz
  'x, y, z'

loop_
  _atom_site_type_symbol
  _atom_site_label
  _atom_site_symmetry_multiplicity
  _atom_site_fract_x
  _atom_site_fract_y
  _atom_site_fract_z
  _atom_site_occupancy
  Sb  Sb1       1.0  0.43478  0.97429  0.57501  1.0000
  Sb  Sb2       1.0  0.18478  0.72429  0.38751  1.0000
  Sb  Sb3       1.0  0.68478  0.22429  0.51251  1.0000
  Sb  Sb4       1.0  0.93478  0.47429  0.45001  1.0000
  Sb  Sb5       1.0  0.06522  0.52571  0.50833  1.0000
  Sb  Sb6       1.0  0.81522  0.27571  0.57083  1.0000
  Sb  Sb7       1.0  0.31522  0.77571  0.44583  1.0000
  Sb  Sb8       1.0  0.56522  0.02571  0.38333  1.0000
  Sb  Sb9       1.0  0.70758  0.88335  0.47274  1.0000
  Sb  Sb10      1.0  0.45758  0.63335  0.53524  1.0000
  Sb  Sb11      1.0  0.95758  0.13335  0.41024  1.0000
  Sb  Sb12      1.0  0.20758  0.38335  0.59774  1.0000
  Sb  Sb13      1.0  0.04242  0.86665  0.54809  1.0000
  Sb  Sb14      1.0  0.79242  0.61665  0.61059  1.0000
  Sb  Sb15      1.0  0.29242  0.11665  0.48559  1.0000
  Sb  Sb16      1.0  0.54242  0.36665  0.42309  1.0000
  Os  Os1       1.0  0.75000  0.75000  0.54167  1.0000
  Os  Os2       1.0  0.50000  0.50000  0.60417  1.0000
  Os  Os3       1.0  0.00000  0.00000  0.47917  1.0000
  Os  Os4       1.0  0.25000  0.25000  0.41667  1.0000
  Os  Os5       1.0  0.75000  0.75000  0.41667  1.0000
  Os  Os6       1.0  0.50000  0.50000  0.47917  1.0000
  Os  Os7       1.0  0.00000  0.00000  0.60417  1.0000
  Os  Os8       1.0  0.25000  0.25000  0.54167  1.0000
