data_image0
_chemical_formula_structural       Si4Ir4Si4Ir4
_chemical_formula_sum              "Si8 Ir8"
_cell_length_a       3.20128
_cell_length_b       6.31611
_cell_length_c       33.2734
_cell_angle_alpha    90
_cell_angle_beta     90
_cell_angle_gamma    90

_space_group_name_H-M_alt    "P 1"
_space_group_IT_number       1

loop_
  _space_group_symop_operation_xyz
  'x, y, z'

loop_
  _atom_site_type_symbol
  _atom_site_label
  _atom_site_symmetry_multiplicity
  _atom_site_fract_x
  _atom_site_fract_y
  _atom_site_fract_z
  _atom_site_occupancy
  Si  Si1       1.0  0.75000  0.93951  0.34452  1.0000
  Si  Si2       1.0  0.25000  0.06049  0.40548  1.0000
  Si  Si3       1.0  0.75000  0.56049  0.42785  1.0000
  Si  Si4       1.0  0.25000  0.43951  0.48882  1.0000
  Ir  Ir1       1.0  0.75000  0.29452  0.37472  1.0000
  Ir  Ir2       1.0  0.25000  0.70548  0.37528  1.0000
  Ir  Ir3       1.0  0.75000  0.20548  0.45806  1.0000
  Ir  Ir4       1.0  0.25000  0.79452  0.45861  1.0000
  Si  Si5       1.0  0.75000  0.93951  0.51118  1.0000
  Si  Si6       1.0  0.25000  0.06049  0.57215  1.0000
  Si  Si7       1.0  0.75000  0.56049  0.59452  1.0000
  Si  Si8       1.0  0.25000  0.43951  0.65548  1.0000
  Ir  Ir5       1.0  0.75000  0.29452  0.54139  1.0000
  Ir  Ir6       1.0  0.25000  0.70548  0.54194  1.0000
  Ir  Ir7       1.0  0.75000  0.20548  0.62472  1.0000
  Ir  Ir8       1.0  0.25000  0.79452  0.62528  1.0000
