data_image0
_chemical_formula_structural       Ni10Sb10Ni10Sb10
_chemical_formula_sum              "Ni20 Sb20"
_cell_length_a       10.3533
_cell_length_b       6.41137
_cell_length_c       38.4682
_cell_angle_alpha    63.819
_cell_angle_beta     83.3765
_cell_angle_gamma    62.5237

_space_group_name_H-M_alt    "P 1"
_space_group_IT_number       1

loop_
  _space_group_symop_operation_xyz
  'x, y, z'

loop_
  _atom_site_type_symbol
  _atom_site_label
  _atom_site_symmetry_multiplicity
  _atom_site_fract_x
  _atom_site_fract_y
  _atom_site_fract_z
  _atom_site_occupancy
  Ni  Ni1       1.0  0.40000  0.80000  0.35000  1.0000
  Ni  Ni2       1.0  0.80000  0.60000  0.38333  1.0000
  Ni  Ni3       1.0  0.00000  0.00000  0.48333  1.0000
  Ni  Ni4       1.0  0.20000  0.40000  0.41667  1.0000
  Ni  Ni5       1.0  0.60000  0.20000  0.45000  1.0000
  Ni  Ni6       1.0  0.30000  0.10000  0.38333  1.0000
  Ni  Ni7       1.0  0.70000  0.90000  0.41667  1.0000
  Ni  Ni8       1.0  0.90000  0.30000  0.35000  1.0000
  Ni  Ni9       1.0  0.10000  0.70000  0.45000  1.0000
  Ni  Ni10      1.0  0.50000  0.50000  0.48333  1.0000
  Sb  Sb1       1.0  0.55000  0.68333  0.41111  1.0000
  Sb  Sb2       1.0  0.95000  0.48333  0.44444  1.0000
  Sb  Sb3       1.0  0.15000  0.88333  0.37778  1.0000
  Sb  Sb4       1.0  0.35000  0.28333  0.47778  1.0000
  Sb  Sb5       1.0  0.75000  0.08333  0.34444  1.0000
  Sb  Sb6       1.0  0.25000  0.91667  0.45556  1.0000
  Sb  Sb7       1.0  0.65000  0.71667  0.48889  1.0000
  Sb  Sb8       1.0  0.85000  0.11667  0.42222  1.0000
  Sb  Sb9       1.0  0.05000  0.51667  0.35556  1.0000
  Sb  Sb10      1.0  0.45000  0.31667  0.38889  1.0000
  Ni  Ni11      1.0  0.40000  0.80000  0.51667  1.0000
  Ni  Ni12      1.0  0.80000  0.60000  0.55000  1.0000
  Ni  Ni13      1.0  0.00000  0.00000  0.65000  1.0000
  Ni  Ni14      1.0  0.20000  0.40000  0.58333  1.0000
  Ni  Ni15      1.0  0.60000  0.20000  0.61667  1.0000
  Ni  Ni16      1.0  0.30000  0.10000  0.55000  1.0000
  Ni  Ni17      1.0  0.70000  0.90000  0.58333  1.0000
  Ni  Ni18      1.0  0.90000  0.30000  0.51667  1.0000
  Ni  Ni19      1.0  0.10000  0.70000  0.61667  1.0000
  Ni  Ni20      1.0  0.50000  0.50000  0.65000  1.0000
  Sb  Sb11      1.0  0.55000  0.68333  0.57778  1.0000
  Sb  Sb12      1.0  0.95000  0.48333  0.61111  1.0000
  Sb  Sb13      1.0  0.15000  0.88333  0.54444  1.0000
  Sb  Sb14      1.0  0.35000  0.28333  0.64444  1.0000
  Sb  Sb15      1.0  0.75000  0.08333  0.51111  1.0000
  Sb  Sb16      1.0  0.25000  0.91667  0.62222  1.0000
  Sb  Sb17      1.0  0.65000  0.71667  0.65556  1.0000
  Sb  Sb18      1.0  0.85000  0.11667  0.58889  1.0000
  Sb  Sb19      1.0  0.05000  0.51667  0.52222  1.0000
  Sb  Sb20      1.0  0.45000  0.31667  0.55556  1.0000
