data_image0
_chemical_formula_structural       H6V12
_chemical_formula_sum              "H6 V12"
_cell_length_a       2.62761
_cell_length_b       6.367
_cell_length_c       30.1513
_cell_angle_alpha    90.1933
_cell_angle_beta     90.0688
_cell_angle_gamma    80.4591

_space_group_name_H-M_alt    "P 1"
_space_group_IT_number       1

loop_
  _space_group_symop_operation_xyz
  'x, y, z'

loop_
  _atom_site_type_symbol
  _atom_site_label
  _atom_site_symmetry_multiplicity
  _atom_site_fract_x
  _atom_site_fract_y
  _atom_site_fract_z
  _atom_site_occupancy
  H   H1        1.0  0.41667  0.97222  0.63889  1.0000
  H   H2        1.0  0.41667  0.52778  0.52778  1.0000
  H   H3        1.0  0.91667  0.25000  0.58333  1.0000
  H   H4        1.0  0.91667  0.80556  0.47222  1.0000
  H   H5        1.0  0.91667  0.36111  0.36111  1.0000
  H   H6        1.0  0.41667  0.08333  0.41667  1.0000
  V   V1        1.0  0.01226  0.92783  0.59409  1.0000
  V   V2        1.0  0.51226  0.65005  0.64965  1.0000
  V   V3        1.0  0.51226  0.20561  0.53853  1.0000
  V   V4        1.0  0.82107  0.57217  0.57258  1.0000
  V   V5        1.0  0.32107  0.29439  0.62813  1.0000
  V   V6        1.0  0.32107  0.84995  0.51702  1.0000
  V   V7        1.0  0.51226  0.76116  0.42742  1.0000
  V   V8        1.0  0.01226  0.48339  0.48298  1.0000
  V   V9        1.0  0.01226  0.03894  0.37187  1.0000
  V   V10       1.0  0.32107  0.40550  0.40591  1.0000
  V   V11       1.0  0.82107  0.12773  0.46147  1.0000
  V   V12       1.0  0.82107  0.68328  0.35035  1.0000
