data_image0
_chemical_formula_structural       Au8
_chemical_formula_sum              "Au8"
_cell_length_a       2.88518
_cell_length_b       4.08027
_cell_length_c       34.6222
_cell_angle_alpha    90
_cell_angle_beta     90
_cell_angle_gamma    90

_space_group_name_H-M_alt    "P 1"
_space_group_IT_number       1

loop_
  _space_group_symop_operation_xyz
  'x, y, z'

loop_
  _atom_site_type_symbol
  _atom_site_label
  _atom_site_symmetry_multiplicity
  _atom_site_fract_x
  _atom_site_fract_y
  _atom_site_fract_z
  _atom_site_occupancy
  Au  Au1       1.0  0.00000  0.00000  0.60417  1.0000
  Au  Au2       1.0  0.00000  0.00000  0.52083  1.0000
  Au  Au3       1.0  0.50000  0.50000  0.64583  1.0000
  Au  Au4       1.0  0.50000  0.50000  0.56250  1.0000
  Au  Au5       1.0  0.00000  0.00000  0.43750  1.0000
  Au  Au6       1.0  0.00000  0.00000  0.35417  1.0000
  Au  Au7       1.0  0.50000  0.50000  0.47917  1.0000
  Au  Au8       1.0  0.50000  0.50000  0.39583  1.0000
