data_image0
_chemical_formula_structural       Si4Pt12Si4Pt12
_chemical_formula_sum              "Si8 Pt24"
_cell_length_a       7.80797
_cell_length_b       5.37625
_cell_length_c       33.5145
_cell_angle_alpha    88.7245
_cell_angle_beta     90
_cell_angle_gamma    90

_space_group_name_H-M_alt    "P 1"
_space_group_IT_number       1

loop_
  _space_group_symop_operation_xyz
  'x, y, z'

loop_
  _atom_site_type_symbol
  _atom_site_label
  _atom_site_symmetry_multiplicity
  _atom_site_fract_x
  _atom_site_fract_y
  _atom_site_fract_z
  _atom_site_occupancy
  Si  Si1       1.0  0.00000  0.78820  0.36006  1.0000
  Si  Si2       1.0  0.00000  0.21180  0.43160  1.0000
  Si  Si3       1.0  0.50000  0.28820  0.44340  1.0000
  Si  Si4       1.0  0.50000  0.71180  0.34827  1.0000
  Pt  Pt1       1.0  0.22588  0.00000  0.39583  1.0000
  Pt  Pt2       1.0  0.77412  0.00000  0.39583  1.0000
  Pt  Pt3       1.0  0.31553  0.50000  0.39583  1.0000
  Pt  Pt4       1.0  0.68447  0.50000  0.39583  1.0000
  Pt  Pt5       1.0  0.00000  0.35365  0.35973  1.0000
  Pt  Pt6       1.0  0.00000  0.64635  0.43194  1.0000
  Pt  Pt7       1.0  0.72588  0.50000  0.47917  1.0000
  Pt  Pt8       1.0  0.27412  0.50000  0.47917  1.0000
  Pt  Pt9       1.0  0.81553  0.00000  0.47917  1.0000
  Pt  Pt10      1.0  0.18447  0.00000  0.47917  1.0000
  Pt  Pt11      1.0  0.50000  0.85365  0.44306  1.0000
  Pt  Pt12      1.0  0.50000  0.14635  0.34861  1.0000
  Si  Si5       1.0  0.00000  0.78820  0.52673  1.0000
  Si  Si6       1.0  0.00000  0.21180  0.59827  1.0000
  Si  Si7       1.0  0.50000  0.28820  0.61006  1.0000
  Si  Si8       1.0  0.50000  0.71180  0.51494  1.0000
  Pt  Pt13      1.0  0.22588  0.00000  0.56250  1.0000
  Pt  Pt14      1.0  0.77412  0.00000  0.56250  1.0000
  Pt  Pt15      1.0  0.31553  0.50000  0.56250  1.0000
  Pt  Pt16      1.0  0.68447  0.50000  0.56250  1.0000
  Pt  Pt17      1.0  0.00000  0.35365  0.52639  1.0000
  Pt  Pt18      1.0  0.00000  0.64635  0.59861  1.0000
  Pt  Pt19      1.0  0.72588  0.50000  0.64583  1.0000
  Pt  Pt20      1.0  0.27412  0.50000  0.64583  1.0000
  Pt  Pt21      1.0  0.81553  0.00000  0.64583  1.0000
  Pt  Pt22      1.0  0.18447  0.00000  0.64583  1.0000
  Pt  Pt23      1.0  0.50000  0.85365  0.60973  1.0000
  Pt  Pt24      1.0  0.50000  0.14635  0.51527  1.0000
