data_image0
_chemical_formula_structural       Ni6Sn8Ni6Sn8Ni6Sn8
_chemical_formula_sum              "Ni18 Sn24"
_cell_length_a       5.19283
_cell_length_b       14.5425
_cell_length_c       40.3363
_cell_angle_alpha    56.3074
_cell_angle_beta     90
_cell_angle_gamma    77.4063

_space_group_name_H-M_alt    "P 1"
_space_group_IT_number       1

loop_
  _space_group_symop_operation_xyz
  'x, y, z'

loop_
  _atom_site_type_symbol
  _atom_site_label
  _atom_site_symmetry_multiplicity
  _atom_site_fract_x
  _atom_site_fract_y
  _atom_site_fract_z
  _atom_site_occupancy
  Ni  Ni1       1.0  0.00000  0.00000  0.42500  1.0000
  Ni  Ni2       1.0  0.33650  0.28414  0.41817  1.0000
  Ni  Ni3       1.0  0.66350  0.21586  0.38183  1.0000
  Ni  Ni4       1.0  0.00000  0.50000  0.37500  1.0000
  Ni  Ni5       1.0  0.33650  0.78414  0.36817  1.0000
  Ni  Ni6       1.0  0.66350  0.71586  0.43183  1.0000
  Sn  Sn1       1.0  0.68744  0.07173  0.36065  1.0000
  Sn  Sn2       1.0  0.31256  0.42827  0.43935  1.0000
  Sn  Sn3       1.0  0.81222  0.32817  0.40937  1.0000
  Sn  Sn4       1.0  0.18778  0.17183  0.39063  1.0000
  Sn  Sn5       1.0  0.68744  0.57173  0.41065  1.0000
  Sn  Sn6       1.0  0.31256  0.92827  0.38935  1.0000
  Sn  Sn7       1.0  0.81222  0.82817  0.35937  1.0000
  Sn  Sn8       1.0  0.18778  0.67183  0.44063  1.0000
  Ni  Ni7       1.0  0.00000  0.00000  0.52500  1.0000
  Ni  Ni8       1.0  0.33650  0.28414  0.51817  1.0000
  Ni  Ni9       1.0  0.66350  0.21586  0.48183  1.0000
  Ni  Ni10      1.0  0.00000  0.50000  0.47500  1.0000
  Ni  Ni11      1.0  0.33650  0.78414  0.46817  1.0000
  Ni  Ni12      1.0  0.66350  0.71586  0.53183  1.0000
  Sn  Sn9       1.0  0.68744  0.07173  0.46065  1.0000
  Sn  Sn10      1.0  0.31256  0.42827  0.53935  1.0000
  Sn  Sn11      1.0  0.81222  0.32817  0.50937  1.0000
  Sn  Sn12      1.0  0.18778  0.17183  0.49063  1.0000
  Sn  Sn13      1.0  0.68744  0.57173  0.51065  1.0000
  Sn  Sn14      1.0  0.31256  0.92827  0.48935  1.0000
  Sn  Sn15      1.0  0.81222  0.82817  0.45937  1.0000
  Sn  Sn16      1.0  0.18778  0.67183  0.54063  1.0000
  Ni  Ni13      1.0  0.00000  0.00000  0.62500  1.0000
  Ni  Ni14      1.0  0.33650  0.28414  0.61817  1.0000
  Ni  Ni15      1.0  0.66350  0.21586  0.58183  1.0000
  Ni  Ni16      1.0  0.00000  0.50000  0.57500  1.0000
  Ni  Ni17      1.0  0.33650  0.78414  0.56817  1.0000
  Ni  Ni18      1.0  0.66350  0.71586  0.63183  1.0000
  Sn  Sn17      1.0  0.68744  0.07173  0.56065  1.0000
  Sn  Sn18      1.0  0.31256  0.42827  0.63935  1.0000
  Sn  Sn19      1.0  0.81222  0.32817  0.60937  1.0000
  Sn  Sn20      1.0  0.18778  0.17183  0.59063  1.0000
  Sn  Sn21      1.0  0.68744  0.57173  0.61065  1.0000
  Sn  Sn22      1.0  0.31256  0.92827  0.58935  1.0000
  Sn  Sn23      1.0  0.81222  0.82817  0.55937  1.0000
  Sn  Sn24      1.0  0.18778  0.67183  0.64063  1.0000
