data_image0
_chemical_formula_structural       Co4Pt4Co4Pt4
_chemical_formula_sum              "Co8 Pt8"
_cell_length_a       3.71786
_cell_length_b       6.38959
_cell_length_c       31.1795
_cell_angle_alpha    91.1054
_cell_angle_beta     90
_cell_angle_gamma    54.4184

_space_group_name_H-M_alt    "P 1"
_space_group_IT_number       1

loop_
  _space_group_symop_operation_xyz
  'x, y, z'

loop_
  _atom_site_type_symbol
  _atom_site_label
  _atom_site_symmetry_multiplicity
  _atom_site_fract_x
  _atom_site_fract_y
  _atom_site_fract_z
  _atom_site_occupancy
  Co  Co1       1.0  0.75000  0.75000  0.35417  1.0000
  Co  Co2       1.0  0.50000  0.50000  0.39583  1.0000
  Co  Co3       1.0  0.00000  0.00000  0.47917  1.0000
  Co  Co4       1.0  0.25000  0.25000  0.43750  1.0000
  Pt  Pt1       1.0  0.75000  0.75000  0.43750  1.0000
  Pt  Pt2       1.0  0.50000  0.50000  0.47917  1.0000
  Pt  Pt3       1.0  0.00000  0.00000  0.39583  1.0000
  Pt  Pt4       1.0  0.25000  0.25000  0.35417  1.0000
  Co  Co5       1.0  0.75000  0.75000  0.52083  1.0000
  Co  Co6       1.0  0.50000  0.50000  0.56250  1.0000
  Co  Co7       1.0  0.00000  0.00000  0.64583  1.0000
  Co  Co8       1.0  0.25000  0.25000  0.60417  1.0000
  Pt  Pt5       1.0  0.75000  0.75000  0.60417  1.0000
  Pt  Pt6       1.0  0.50000  0.50000  0.64583  1.0000
  Pt  Pt7       1.0  0.00000  0.00000  0.56250  1.0000
  Pt  Pt8       1.0  0.25000  0.25000  0.52083  1.0000
