data_image0
_chemical_formula_structural       Ti18
_chemical_formula_sum              "Ti18"
_cell_length_a       4.50008
_cell_length_b       7.15485
_cell_length_c       37.0313
_cell_angle_alpha    97.2554
_cell_angle_beta     115.171
_cell_angle_gamma    71.6707

_space_group_name_H-M_alt    "P 1"
_space_group_IT_number       1

loop_
  _space_group_symop_operation_xyz
  'x, y, z'

loop_
  _atom_site_type_symbol
  _atom_site_label
  _atom_site_symmetry_multiplicity
  _atom_site_fract_x
  _atom_site_fract_y
  _atom_site_fract_z
  _atom_site_occupancy
  Ti  Ti1       1.0  0.00000  0.00000  0.47619  1.0000
  Ti  Ti2       1.0  0.00000  0.33333  0.38095  1.0000
  Ti  Ti3       1.0  0.00000  0.66667  0.42857  1.0000
  Ti  Ti4       1.0  0.66667  0.05556  0.38889  1.0000
  Ti  Ti5       1.0  0.66667  0.38889  0.43651  1.0000
  Ti  Ti6       1.0  0.66667  0.72222  0.48413  1.0000
  Ti  Ti7       1.0  0.33333  0.94444  0.42063  1.0000
  Ti  Ti8       1.0  0.33333  0.27778  0.46825  1.0000
  Ti  Ti9       1.0  0.33333  0.61111  0.37302  1.0000
  Ti  Ti10      1.0  0.00000  0.00000  0.61905  1.0000
  Ti  Ti11      1.0  0.00000  0.33333  0.52381  1.0000
  Ti  Ti12      1.0  0.00000  0.66667  0.57143  1.0000
  Ti  Ti13      1.0  0.66667  0.05556  0.53175  1.0000
  Ti  Ti14      1.0  0.66667  0.38889  0.57937  1.0000
  Ti  Ti15      1.0  0.66667  0.72222  0.62698  1.0000
  Ti  Ti16      1.0  0.33333  0.94444  0.56349  1.0000
  Ti  Ti17      1.0  0.33333  0.27778  0.61111  1.0000
  Ti  Ti18      1.0  0.33333  0.61111  0.51587  1.0000
