data_image0
_chemical_formula_structural       Au6In6Pd12
_chemical_formula_sum              "Au6 In6 Pd12"
_cell_length_a       6.39048
_cell_length_b       7.8267
_cell_length_c       34.4138
_cell_angle_alpha    94.3478
_cell_angle_beta     90
_cell_angle_gamma    114.095

_space_group_name_H-M_alt    "P 1"
_space_group_IT_number       1

loop_
  _space_group_symop_operation_xyz
  'x, y, z'

loop_
  _atom_site_type_symbol
  _atom_site_label
  _atom_site_symmetry_multiplicity
  _atom_site_fract_x
  _atom_site_fract_y
  _atom_site_fract_z
  _atom_site_occupancy
  Au  Au1       1.0  0.69792  0.39583  0.53125  1.0000
  Au  Au2       1.0  0.28125  0.56250  0.44792  1.0000
  Au  Au3       1.0  0.11458  0.22917  0.61458  1.0000
  Au  Au4       1.0  0.98958  0.97917  0.48958  1.0000
  Au  Au5       1.0  0.57292  0.14583  0.40625  1.0000
  Au  Au6       1.0  0.40625  0.81250  0.57292  1.0000
  In  In1       1.0  0.19792  0.39583  0.53125  1.0000
  In  In2       1.0  0.78125  0.56250  0.44792  1.0000
  In  In3       1.0  0.61458  0.22917  0.61458  1.0000
  In  In4       1.0  0.48958  0.97917  0.48958  1.0000
  In  In5       1.0  0.07292  0.14583  0.40625  1.0000
  In  In6       1.0  0.90625  0.81250  0.57292  1.0000
  Pd  Pd1       1.0  0.51042  0.52083  0.59375  1.0000
  Pd  Pd2       1.0  0.09375  0.68750  0.51042  1.0000
  Pd  Pd3       1.0  0.67708  0.85417  0.42708  1.0000
  Pd  Pd4       1.0  0.17708  0.85417  0.42708  1.0000
  Pd  Pd5       1.0  0.01042  0.52083  0.59375  1.0000
  Pd  Pd6       1.0  0.59375  0.68750  0.51042  1.0000
  Pd  Pd7       1.0  0.96875  0.43750  0.38542  1.0000
  Pd  Pd8       1.0  0.80208  0.10417  0.55208  1.0000
  Pd  Pd9       1.0  0.38542  0.27083  0.46875  1.0000
  Pd  Pd10      1.0  0.88542  0.27083  0.46875  1.0000
  Pd  Pd11      1.0  0.46875  0.43750  0.38542  1.0000
  Pd  Pd12      1.0  0.30208  0.10417  0.55208  1.0000
