data_image0
_chemical_formula_structural       Co4As4Co4As4
_chemical_formula_sum              "Co8 As8"
_cell_length_a       3.50902
_cell_length_b       6.07734
_cell_length_c       36.464
_cell_angle_alpha    70.5349
_cell_angle_beta     106.78
_cell_angle_gamma    73.22

_space_group_name_H-M_alt    "P 1"
_space_group_IT_number       1

loop_
  _space_group_symop_operation_xyz
  'x, y, z'

loop_
  _atom_site_type_symbol
  _atom_site_label
  _atom_site_symmetry_multiplicity
  _atom_site_fract_x
  _atom_site_fract_y
  _atom_site_fract_z
  _atom_site_occupancy
  Co  Co1       1.0  0.00000  0.25000  0.36458  1.0000
  Co  Co2       1.0  0.00000  0.75000  0.44792  1.0000
  Co  Co3       1.0  0.00000  0.00000  0.48958  1.0000
  Co  Co4       1.0  0.00000  0.50000  0.40625  1.0000
  As  As1       1.0  0.33333  0.04167  0.44097  1.0000
  As  As2       1.0  0.33333  0.54167  0.35764  1.0000
  As  As3       1.0  0.66667  0.95833  0.37153  1.0000
  As  As4       1.0  0.66667  0.45833  0.45486  1.0000
  Co  Co5       1.0  0.00000  0.25000  0.53125  1.0000
  Co  Co6       1.0  0.00000  0.75000  0.61458  1.0000
  Co  Co7       1.0  0.00000  0.00000  0.65625  1.0000
  Co  Co8       1.0  0.00000  0.50000  0.57292  1.0000
  As  As5       1.0  0.33333  0.04167  0.60764  1.0000
  As  As6       1.0  0.33333  0.54167  0.52431  1.0000
  As  As7       1.0  0.66667  0.95833  0.53819  1.0000
  As  As8       1.0  0.66667  0.45833  0.62153  1.0000
