data_image0
_chemical_formula_structural       Al4Au8Al4Au8
_chemical_formula_sum              "Al8 Au16"
_cell_length_a       4.66233
_cell_length_b       9.47745
_cell_length_c       32.6363
_cell_angle_alpha    104.239
_cell_angle_beta     90
_cell_angle_gamma    75.7609

_space_group_name_H-M_alt    "P 1"
_space_group_IT_number       1

loop_
  _space_group_symop_operation_xyz
  'x, y, z'

loop_
  _atom_site_type_symbol
  _atom_site_label
  _atom_site_symmetry_multiplicity
  _atom_site_fract_x
  _atom_site_fract_y
  _atom_site_fract_z
  _atom_site_occupancy
  Al  Al1       1.0  0.00000  0.00000  0.49405  1.0000
  Al  Al2       1.0  0.50000  0.00000  0.42262  1.0000
  Al  Al3       1.0  0.75000  0.50000  0.45833  1.0000
  Al  Al4       1.0  0.25000  0.50000  0.38690  1.0000
  Au  Au1       1.0  0.92274  0.15452  0.43366  1.0000
  Au  Au2       1.0  0.42274  0.15452  0.36223  1.0000
  Au  Au3       1.0  0.82726  0.34548  0.37587  1.0000
  Au  Au4       1.0  0.32726  0.34548  0.44730  1.0000
  Au  Au5       1.0  0.67274  0.65452  0.39794  1.0000
  Au  Au6       1.0  0.17274  0.65452  0.46937  1.0000
  Au  Au7       1.0  0.57726  0.84548  0.48301  1.0000
  Au  Au8       1.0  0.07726  0.84548  0.41158  1.0000
  Al  Al5       1.0  0.00000  0.00000  0.63690  1.0000
  Al  Al6       1.0  0.50000  0.00000  0.56548  1.0000
  Al  Al7       1.0  0.75000  0.50000  0.60119  1.0000
  Al  Al8       1.0  0.25000  0.50000  0.52976  1.0000
  Au  Au9       1.0  0.92274  0.15452  0.57651  1.0000
  Au  Au10      1.0  0.42274  0.15452  0.50508  1.0000
  Au  Au11      1.0  0.82726  0.34548  0.51872  1.0000
  Au  Au12      1.0  0.32726  0.34548  0.59015  1.0000
  Au  Au13      1.0  0.67274  0.65452  0.54080  1.0000
  Au  Au14      1.0  0.17274  0.65452  0.61223  1.0000
  Au  Au15      1.0  0.57726  0.84548  0.62587  1.0000
  Au  Au16      1.0  0.07726  0.84548  0.55444  1.0000
