data_image0
_chemical_formula_structural       Ga18Pt12
_chemical_formula_sum              "Ga18 Pt12"
_cell_length_a       6.73937
_cell_length_b       9.00712
_cell_length_c       28.2012
_cell_angle_alpha    90.1766
_cell_angle_beta     95.1534
_cell_angle_gamma    90.7391

_space_group_name_H-M_alt    "P 1"
_space_group_IT_number       1

loop_
  _space_group_symop_operation_xyz
  'x, y, z'

loop_
  _atom_site_type_symbol
  _atom_site_label
  _atom_site_symmetry_multiplicity
  _atom_site_fract_x
  _atom_site_fract_y
  _atom_site_fract_z
  _atom_site_occupancy
  Ga  Ga1       1.0  0.51429  0.00000  0.48571  1.0000
  Ga  Ga2       1.0  0.27619  0.66667  0.39048  1.0000
  Ga  Ga3       1.0  0.89524  0.33333  0.43810  1.0000
  Ga  Ga4       1.0  0.88094  0.67437  0.43700  1.0000
  Ga  Ga5       1.0  0.49999  0.34103  0.48461  1.0000
  Ga  Ga6       1.0  0.26189  0.00770  0.38938  1.0000
  Ga  Ga7       1.0  0.90954  0.99230  0.43920  1.0000
  Ga  Ga8       1.0  0.52859  0.65897  0.48681  1.0000
  Ga  Ga9       1.0  0.29049  0.32563  0.39158  1.0000
  Ga  Ga10      1.0  0.37143  0.00000  0.62857  1.0000
  Ga  Ga11      1.0  0.13333  0.66667  0.53333  1.0000
  Ga  Ga12      1.0  0.75238  0.33333  0.58095  1.0000
  Ga  Ga13      1.0  0.73808  0.67437  0.57985  1.0000
  Ga  Ga14      1.0  0.35713  0.34103  0.62747  1.0000
  Ga  Ga15      1.0  0.11903  0.00770  0.53223  1.0000
  Ga  Ga16      1.0  0.76668  0.99230  0.58205  1.0000
  Ga  Ga17      1.0  0.38573  0.65897  0.62967  1.0000
  Ga  Ga18      1.0  0.14763  0.32563  0.53443  1.0000
  Pt  Pt1       1.0  0.58509  0.83367  0.41424  1.0000
  Pt  Pt2       1.0  0.20413  0.50034  0.46186  1.0000
  Pt  Pt3       1.0  0.96604  0.16701  0.36662  1.0000
  Pt  Pt4       1.0  0.20539  0.83299  0.46195  1.0000
  Pt  Pt5       1.0  0.96730  0.49966  0.36672  1.0000
  Pt  Pt6       1.0  0.58634  0.16633  0.41433  1.0000
  Pt  Pt7       1.0  0.44223  0.83367  0.55709  1.0000
  Pt  Pt8       1.0  0.06128  0.50034  0.60471  1.0000
  Pt  Pt9       1.0  0.82318  0.16701  0.50948  1.0000
  Pt  Pt10      1.0  0.06253  0.83299  0.60481  1.0000
  Pt  Pt11      1.0  0.82444  0.49966  0.50957  1.0000
  Pt  Pt12      1.0  0.44349  0.16633  0.55719  1.0000
