data_image0
_chemical_formula_structural       Ca12
_chemical_formula_sum              "Ca12"
_cell_length_a       10.1734
_cell_length_b       7.43728
_cell_length_c       30.7613
_cell_angle_alpha    104.981
_cell_angle_beta     79.1066
_cell_angle_gamma    66.9942

_space_group_name_H-M_alt    "P 1"
_space_group_IT_number       1

loop_
  _space_group_symop_operation_xyz
  'x, y, z'

loop_
  _atom_site_type_symbol
  _atom_site_label
  _atom_site_symmetry_multiplicity
  _atom_site_fract_x
  _atom_site_fract_y
  _atom_site_fract_z
  _atom_site_occupancy
  Ca  Ca1       1.0  0.02778  0.25000  0.45139  1.0000
  Ca  Ca2       1.0  0.36111  0.25000  0.49306  1.0000
  Ca  Ca3       1.0  0.69444  0.25000  0.40972  1.0000
  Ca  Ca4       1.0  0.63889  0.75000  0.38194  1.0000
  Ca  Ca5       1.0  0.97222  0.75000  0.42361  1.0000
  Ca  Ca6       1.0  0.30556  0.75000  0.46528  1.0000
  Ca  Ca7       1.0  0.02778  0.25000  0.57639  1.0000
  Ca  Ca8       1.0  0.36111  0.25000  0.61806  1.0000
  Ca  Ca9       1.0  0.69444  0.25000  0.53472  1.0000
  Ca  Ca10      1.0  0.63889  0.75000  0.50694  1.0000
  Ca  Ca11      1.0  0.97222  0.75000  0.54861  1.0000
  Ca  Ca12      1.0  0.30556  0.75000  0.59028  1.0000
