data_image0
_chemical_formula_structural       Co16Ti8
_chemical_formula_sum              "Co16 Ti8"
_cell_length_a       4.62525
_cell_length_b       4.62525
_cell_length_c       39.2465
_cell_angle_alpha    90
_cell_angle_beta     90
_cell_angle_gamma    90

_space_group_name_H-M_alt    "P 1"
_space_group_IT_number       1

loop_
  _space_group_symop_operation_xyz
  'x, y, z'

loop_
  _atom_site_type_symbol
  _atom_site_label
  _atom_site_symmetry_multiplicity
  _atom_site_fract_x
  _atom_site_fract_y
  _atom_site_fract_z
  _atom_site_occupancy
  Co  Co1       1.0  0.50000  0.75000  0.61111  1.0000
  Co  Co2       1.0  0.75000  0.50000  0.56944  1.0000
  Co  Co3       1.0  0.25000  0.50000  0.56944  1.0000
  Co  Co4       1.0  0.00000  0.75000  0.52778  1.0000
  Co  Co5       1.0  0.00000  0.25000  0.52778  1.0000
  Co  Co6       1.0  0.25000  0.00000  0.65278  1.0000
  Co  Co7       1.0  0.75000  0.00000  0.65278  1.0000
  Co  Co8       1.0  0.50000  0.25000  0.61111  1.0000
  Co  Co9       1.0  0.50000  0.75000  0.44444  1.0000
  Co  Co10      1.0  0.75000  0.50000  0.40278  1.0000
  Co  Co11      1.0  0.25000  0.50000  0.40278  1.0000
  Co  Co12      1.0  0.00000  0.75000  0.36111  1.0000
  Co  Co13      1.0  0.00000  0.25000  0.36111  1.0000
  Co  Co14      1.0  0.25000  0.00000  0.48611  1.0000
  Co  Co15      1.0  0.75000  0.00000  0.48611  1.0000
  Co  Co16      1.0  0.50000  0.25000  0.44444  1.0000
  Ti  Ti1       1.0  0.00000  0.00000  0.59028  1.0000
  Ti  Ti2       1.0  0.50000  0.00000  0.54861  1.0000
  Ti  Ti3       1.0  0.50000  0.50000  0.50694  1.0000
  Ti  Ti4       1.0  0.00000  0.50000  0.63194  1.0000
  Ti  Ti5       1.0  0.00000  0.00000  0.42361  1.0000
  Ti  Ti6       1.0  0.50000  0.00000  0.38194  1.0000
  Ti  Ti7       1.0  0.50000  0.50000  0.34028  1.0000
  Ti  Ti8       1.0  0.00000  0.50000  0.46528  1.0000
