data_image0
_chemical_formula_structural       In9Ni9In9Ni9
_chemical_formula_sum              "In18 Ni18"
_cell_length_a       5.19975
_cell_length_b       10.072
_cell_length_c       40.5341
_cell_angle_alpha    81.4074
_cell_angle_beta     112.634
_cell_angle_gamma    75.0409

_space_group_name_H-M_alt    "P 1"
_space_group_IT_number       1

loop_
  _space_group_symop_operation_xyz
  'x, y, z'

loop_
  _atom_site_type_symbol
  _atom_site_label
  _atom_site_symmetry_multiplicity
  _atom_site_fract_x
  _atom_site_fract_y
  _atom_site_fract_z
  _atom_site_occupancy
  In  In1       1.0  0.00000  0.00000  0.48148  1.0000
  In  In2       1.0  0.00000  0.33333  0.37037  1.0000
  In  In3       1.0  0.00000  0.66667  0.42593  1.0000
  In  In4       1.0  0.66667  0.05556  0.37963  1.0000
  In  In5       1.0  0.66667  0.38889  0.43519  1.0000
  In  In6       1.0  0.66667  0.72222  0.32407  1.0000
  In  In7       1.0  0.33333  0.94444  0.41667  1.0000
  In  In8       1.0  0.33333  0.27778  0.47222  1.0000
  In  In9       1.0  0.33333  0.61111  0.36111  1.0000
  Ni  Ni1       1.0  0.00000  0.83333  0.37037  1.0000
  Ni  Ni2       1.0  0.00000  0.16667  0.42593  1.0000
  Ni  Ni3       1.0  0.00000  0.50000  0.48148  1.0000
  Ni  Ni4       1.0  0.50000  0.83333  0.37037  1.0000
  Ni  Ni5       1.0  0.50000  0.16667  0.42593  1.0000
  Ni  Ni6       1.0  0.50000  0.50000  0.48148  1.0000
  Ni  Ni7       1.0  0.50000  0.00000  0.48148  1.0000
  Ni  Ni8       1.0  0.50000  0.33333  0.37037  1.0000
  Ni  Ni9       1.0  0.50000  0.66667  0.42593  1.0000
  In  In10      1.0  0.00000  0.00000  0.64815  1.0000
  In  In11      1.0  0.00000  0.33333  0.53704  1.0000
  In  In12      1.0  0.00000  0.66667  0.59259  1.0000
  In  In13      1.0  0.66667  0.05556  0.54630  1.0000
  In  In14      1.0  0.66667  0.38889  0.60185  1.0000
  In  In15      1.0  0.66667  0.72222  0.49074  1.0000
  In  In16      1.0  0.33333  0.94444  0.58333  1.0000
  In  In17      1.0  0.33333  0.27778  0.63889  1.0000
  In  In18      1.0  0.33333  0.61111  0.52778  1.0000
  Ni  Ni10      1.0  0.00000  0.83333  0.53704  1.0000
  Ni  Ni11      1.0  0.00000  0.16667  0.59259  1.0000
  Ni  Ni12      1.0  0.00000  0.50000  0.64815  1.0000
  Ni  Ni13      1.0  0.50000  0.83333  0.53704  1.0000
  Ni  Ni14      1.0  0.50000  0.16667  0.59259  1.0000
  Ni  Ni15      1.0  0.50000  0.50000  0.64815  1.0000
  Ni  Ni16      1.0  0.50000  0.00000  0.64815  1.0000
  Ni  Ni17      1.0  0.50000  0.33333  0.53704  1.0000
  Ni  Ni18      1.0  0.50000  0.66667  0.59259  1.0000
