data_image0
_chemical_formula_structural       Fe4As8Fe4As8
_chemical_formula_sum              "Fe8 As16"
_cell_length_a       2.84942
_cell_length_b       12.9333
_cell_length_c       36.6873
_cell_angle_alpha    113.906
_cell_angle_beta     90
_cell_angle_gamma    90

_space_group_name_H-M_alt    "P 1"
_space_group_IT_number       1

loop_
  _space_group_symop_operation_xyz
  'x, y, z'

loop_
  _atom_site_type_symbol
  _atom_site_label
  _atom_site_symmetry_multiplicity
  _atom_site_fract_x
  _atom_site_fract_y
  _atom_site_fract_z
  _atom_site_occupancy
  Fe  Fe1       1.0  0.00000  0.50000  0.42262  1.0000
  Fe  Fe2       1.0  0.00000  0.00000  0.49405  1.0000
  Fe  Fe3       1.0  0.50000  0.25000  0.45833  1.0000
  Fe  Fe4       1.0  0.50000  0.75000  0.38690  1.0000
  As  As1       1.0  0.00000  0.31963  0.37126  1.0000
  As  As2       1.0  0.00000  0.81963  0.44269  1.0000
  As  As3       1.0  0.00000  0.18037  0.40255  1.0000
  As  As4       1.0  0.00000  0.68037  0.47398  1.0000
  As  As5       1.0  0.50000  0.43037  0.45851  1.0000
  As  As6       1.0  0.50000  0.93037  0.38708  1.0000
  As  As7       1.0  0.50000  0.06963  0.45816  1.0000
  As  As8       1.0  0.50000  0.56963  0.38673  1.0000
  Fe  Fe5       1.0  0.00000  0.50000  0.56548  1.0000
  Fe  Fe6       1.0  0.00000  0.00000  0.63690  1.0000
  Fe  Fe7       1.0  0.50000  0.25000  0.60119  1.0000
  Fe  Fe8       1.0  0.50000  0.75000  0.52976  1.0000
  As  As9       1.0  0.00000  0.31963  0.51412  1.0000
  As  As10      1.0  0.00000  0.81963  0.58554  1.0000
  As  As11      1.0  0.00000  0.18037  0.54541  1.0000
  As  As12      1.0  0.00000  0.68037  0.61684  1.0000
  As  As13      1.0  0.50000  0.43037  0.60136  1.0000
  As  As14      1.0  0.50000  0.93037  0.52994  1.0000
  As  As15      1.0  0.50000  0.06963  0.60102  1.0000
  As  As16      1.0  0.50000  0.56963  0.52959  1.0000
