data_image0
_chemical_formula_structural       Ca8
_chemical_formula_sum              "Ca8"
_cell_length_a       6.36615
_cell_length_b       6.66002
_cell_length_c       30.7613
_cell_angle_alpha    90
_cell_angle_beta     90
_cell_angle_gamma    90

_space_group_name_H-M_alt    "P 1"
_space_group_IT_number       1

loop_
  _space_group_symop_operation_xyz
  'x, y, z'

loop_
  _atom_site_type_symbol
  _atom_site_label
  _atom_site_symmetry_multiplicity
  _atom_site_fract_x
  _atom_site_fract_y
  _atom_site_fract_z
  _atom_site_occupancy
  Ca  Ca1       1.0  0.75000  0.33333  0.46875  1.0000
  Ca  Ca2       1.0  0.75000  0.83333  0.40625  1.0000
  Ca  Ca3       1.0  0.25000  0.66667  0.46875  1.0000
  Ca  Ca4       1.0  0.25000  0.16667  0.40625  1.0000
  Ca  Ca5       1.0  0.75000  0.33333  0.59375  1.0000
  Ca  Ca6       1.0  0.75000  0.83333  0.53125  1.0000
  Ca  Ca7       1.0  0.25000  0.66667  0.59375  1.0000
  Ca  Ca8       1.0  0.25000  0.16667  0.53125  1.0000
