data_image0
_chemical_formula_structural       Pt2Rh6Pt2Rh6
_chemical_formula_sum              "Pt4 Rh12"
_cell_length_a       3.81265
_cell_length_b       7.6027
_cell_length_c       30.5012
_cell_angle_alpha    90
_cell_angle_beta     90
_cell_angle_gamma    90

_space_group_name_H-M_alt    "P 1"
_space_group_IT_number       1

loop_
  _space_group_symop_operation_xyz
  'x, y, z'

loop_
  _atom_site_type_symbol
  _atom_site_label
  _atom_site_symmetry_multiplicity
  _atom_site_fract_x
  _atom_site_fract_y
  _atom_site_fract_z
  _atom_site_occupancy
  Pt  Pt1       1.0  0.00000  0.00000  0.46875  1.0000
  Pt  Pt2       1.0  0.50000  0.50000  0.40625  1.0000
  Rh  Rh1       1.0  0.00000  0.25000  0.40625  1.0000
  Rh  Rh2       1.0  0.50000  0.25000  0.46875  1.0000
  Rh  Rh3       1.0  0.50000  0.00000  0.40625  1.0000
  Rh  Rh4       1.0  0.50000  0.75000  0.46875  1.0000
  Rh  Rh5       1.0  0.00000  0.75000  0.40625  1.0000
  Rh  Rh6       1.0  0.00000  0.50000  0.46875  1.0000
  Pt  Pt3       1.0  0.00000  0.00000  0.59375  1.0000
  Pt  Pt4       1.0  0.50000  0.50000  0.53125  1.0000
  Rh  Rh7       1.0  0.00000  0.25000  0.53125  1.0000
  Rh  Rh8       1.0  0.50000  0.25000  0.59375  1.0000
  Rh  Rh9       1.0  0.50000  0.00000  0.53125  1.0000
  Rh  Rh10      1.0  0.50000  0.75000  0.59375  1.0000
  Rh  Rh11      1.0  0.00000  0.75000  0.53125  1.0000
  Rh  Rh12      1.0  0.00000  0.50000  0.59375  1.0000
