data_image0
_chemical_formula_structural       Al8Mo3
_chemical_formula_sum              "Al8 Mo3"
_cell_length_a       3.62399
_cell_length_b       4.92357
_cell_length_c       39.3437
_cell_angle_alpha    92.2988
_cell_angle_beta     90
_cell_angle_gamma    111.594

_space_group_name_H-M_alt    "P 1"
_space_group_IT_number       1

loop_
  _space_group_symop_operation_xyz
  'x, y, z'

loop_
  _atom_site_type_symbol
  _atom_site_label
  _atom_site_symmetry_multiplicity
  _atom_site_fract_x
  _atom_site_fract_y
  _atom_site_fract_z
  _atom_site_occupancy
  Al  Al1       1.0  0.20514  0.41027  0.47745  1.0000
  Al  Al2       1.0  0.79486  0.58973  0.52255  1.0000
  Al  Al3       1.0  0.08462  0.16925  0.54479  1.0000
  Al  Al4       1.0  0.91538  0.83075  0.45521  1.0000
  Al  Al5       1.0  0.38293  0.76586  0.56947  1.0000
  Al  Al6       1.0  0.61707  0.23414  0.43053  1.0000
  Al  Al7       1.0  0.01723  0.03446  0.38543  1.0000
  Al  Al8       1.0  0.98277  0.96554  0.61457  1.0000
  Mo  Mo1       1.0  0.50000  0.00000  0.50000  1.0000
  Mo  Mo2       1.0  0.32028  0.64055  0.41487  1.0000
  Mo  Mo3       1.0  0.67972  0.35945  0.58513  1.0000
