data_image0
_chemical_formula_structural       Sb4Ru2Sb4Ru2
_chemical_formula_sum              "Sb8 Ru4"
_cell_length_a       3.18173
_cell_length_b       6.65716
_cell_length_c       35.7001
_cell_angle_alpha    90
_cell_angle_beta     90
_cell_angle_gamma    90

_space_group_name_H-M_alt    "P 1"
_space_group_IT_number       1

loop_
  _space_group_symop_operation_xyz
  'x, y, z'

loop_
  _atom_site_type_symbol
  _atom_site_label
  _atom_site_symmetry_multiplicity
  _atom_site_fract_x
  _atom_site_fract_y
  _atom_site_fract_z
  _atom_site_occupancy
  Sb  Sb1       1.0  0.50000  0.85769  0.37234  1.0000
  Sb  Sb2       1.0  0.50000  0.14231  0.43322  1.0000
  Sb  Sb3       1.0  0.00000  0.64231  0.45567  1.0000
  Sb  Sb4       1.0  0.00000  0.35769  0.34989  1.0000
  Ru  Ru1       1.0  0.50000  0.50000  0.40278  1.0000
  Ru  Ru2       1.0  0.00000  0.00000  0.48611  1.0000
  Sb  Sb5       1.0  0.50000  0.85769  0.53900  1.0000
  Sb  Sb6       1.0  0.50000  0.14231  0.59989  1.0000
  Sb  Sb7       1.0  0.00000  0.64231  0.62234  1.0000
  Sb  Sb8       1.0  0.00000  0.35769  0.51655  1.0000
  Ru  Ru3       1.0  0.50000  0.50000  0.56944  1.0000
  Ru  Ru4       1.0  0.00000  0.00000  0.65278  1.0000
