data_image0
_chemical_formula_structural       Ni4Sb8Ni4Sb8
_chemical_formula_sum              "Ni8 Sb16"
_cell_length_a       6.23815
_cell_length_b       6.48597
_cell_length_c       38.9158
_cell_angle_alpha    70.8148
_cell_angle_beta     90
_cell_angle_gamma    90

_space_group_name_H-M_alt    "P 1"
_space_group_IT_number       1

loop_
  _space_group_symop_operation_xyz
  'x, y, z'

loop_
  _atom_site_type_symbol
  _atom_site_label
  _atom_site_symmetry_multiplicity
  _atom_site_fract_x
  _atom_site_fract_y
  _atom_site_fract_z
  _atom_site_occupancy
  Ni  Ni1       1.0  0.50000  0.50000  0.45833  1.0000
  Ni  Ni2       1.0  0.50000  0.00000  0.37500  1.0000
  Ni  Ni3       1.0  0.00000  0.50000  0.37500  1.0000
  Ni  Ni4       1.0  0.00000  0.00000  0.45833  1.0000
  Sb  Sb1       1.0  0.86041  0.39210  0.44035  1.0000
  Sb  Sb2       1.0  0.86041  0.89210  0.35702  1.0000
  Sb  Sb3       1.0  0.13959  0.60790  0.47632  1.0000
  Sb  Sb4       1.0  0.13959  0.10790  0.39298  1.0000
  Sb  Sb5       1.0  0.36041  0.10790  0.47632  1.0000
  Sb  Sb6       1.0  0.36041  0.60790  0.39298  1.0000
  Sb  Sb7       1.0  0.63959  0.39210  0.35702  1.0000
  Sb  Sb8       1.0  0.63959  0.89210  0.44035  1.0000
  Ni  Ni5       1.0  0.50000  0.50000  0.62500  1.0000
  Ni  Ni6       1.0  0.50000  0.00000  0.54167  1.0000
  Ni  Ni7       1.0  0.00000  0.50000  0.54167  1.0000
  Ni  Ni8       1.0  0.00000  0.00000  0.62500  1.0000
  Sb  Sb9       1.0  0.86041  0.39210  0.60702  1.0000
  Sb  Sb10      1.0  0.86041  0.89210  0.52368  1.0000
  Sb  Sb11      1.0  0.13959  0.60790  0.64298  1.0000
  Sb  Sb12      1.0  0.13959  0.10790  0.55965  1.0000
  Sb  Sb13      1.0  0.36041  0.10790  0.64298  1.0000
  Sb  Sb14      1.0  0.36041  0.60790  0.55965  1.0000
  Sb  Sb15      1.0  0.63959  0.39210  0.52368  1.0000
  Sb  Sb16      1.0  0.63959  0.89210  0.60702  1.0000
