data_image0
_chemical_formula_structural       As24Co12
_chemical_formula_sum              "As24 Co12"
_cell_length_a       7.70635
_cell_length_b       8.29652
_cell_length_c       31.6631
_cell_angle_alpha    82.6127
_cell_angle_beta     86.0596
_cell_angle_gamma    82.4652

_space_group_name_H-M_alt    "P 1"
_space_group_IT_number       1

loop_
  _space_group_symop_operation_xyz
  'x, y, z'

loop_
  _atom_site_type_symbol
  _atom_site_label
  _atom_site_symmetry_multiplicity
  _atom_site_fract_x
  _atom_site_fract_y
  _atom_site_fract_z
  _atom_site_occupancy
  As  As1       1.0  0.27622  0.45044  0.56857  1.0000
  As  As2       1.0  0.77622  0.85953  0.61402  1.0000
  As  As3       1.0  0.72378  0.30714  0.55265  1.0000
  As  As4       1.0  0.22378  0.71623  0.59810  1.0000
  As  As5       1.0  0.91243  0.47097  0.62640  1.0000
  As  As6       1.0  0.41243  0.06188  0.58095  1.0000
  As  As7       1.0  0.08757  0.10479  0.58572  1.0000
  As  As8       1.0  0.58757  0.51388  0.63117  1.0000
  As  As9       1.0  0.27622  0.63225  0.47766  1.0000
  As  As10      1.0  0.77622  0.04134  0.52311  1.0000
  As  As11      1.0  0.72378  0.48896  0.46174  1.0000
  As  As12      1.0  0.22378  0.89805  0.50719  1.0000
  As  As13      1.0  0.91243  0.65279  0.53549  1.0000
  As  As14      1.0  0.41243  0.24370  0.49004  1.0000
  As  As15      1.0  0.08757  0.28661  0.49481  1.0000
  As  As16      1.0  0.58757  0.69570  0.54026  1.0000
  As  As17      1.0  0.27622  0.81407  0.38675  1.0000
  As  As18      1.0  0.77622  0.22316  0.43220  1.0000
  As  As19      1.0  0.72378  0.67078  0.37083  1.0000
  As  As20      1.0  0.22378  0.07987  0.41628  1.0000
  As  As21      1.0  0.91243  0.83461  0.44459  1.0000
  As  As22      1.0  0.41243  0.42551  0.39913  1.0000
  As  As23      1.0  0.08757  0.46842  0.40390  1.0000
  As  As24      1.0  0.58757  0.87752  0.44935  1.0000
  Co  Co1       1.0  0.00000  0.37879  0.56061  1.0000
  Co  Co2       1.0  0.50000  0.78788  0.60606  1.0000
  Co  Co3       1.0  0.00000  0.87879  0.56061  1.0000
  Co  Co4       1.0  0.50000  0.28788  0.60606  1.0000
  Co  Co5       1.0  0.00000  0.56061  0.46970  1.0000
  Co  Co6       1.0  0.50000  0.96970  0.51515  1.0000
  Co  Co7       1.0  0.00000  0.06061  0.46970  1.0000
  Co  Co8       1.0  0.50000  0.46970  0.51515  1.0000
  Co  Co9       1.0  0.00000  0.74242  0.37879  1.0000
  Co  Co10      1.0  0.50000  0.15152  0.42424  1.0000
  Co  Co11      1.0  0.00000  0.24242  0.37879  1.0000
  Co  Co12      1.0  0.50000  0.65152  0.42424  1.0000
