data_image0
_chemical_formula_structural       Ca4Mn4Sb8
_chemical_formula_sum              "Ca4 Mn4 Sb8"
_cell_length_a       4.18953
_cell_length_b       4.19558
_cell_length_c       40.3472
_cell_angle_alpha    90
_cell_angle_beta     90
_cell_angle_gamma    90

_space_group_name_H-M_alt    "P 1"
_space_group_IT_number       1

loop_
  _space_group_symop_operation_xyz
  'x, y, z'

loop_
  _atom_site_type_symbol
  _atom_site_label
  _atom_site_symmetry_multiplicity
  _atom_site_fract_x
  _atom_site_fract_y
  _atom_site_fract_z
  _atom_site_occupancy
  Ca  Ca1       1.0  0.25000  0.73591  0.52879  1.0000
  Ca  Ca2       1.0  0.75000  0.26409  0.40871  1.0000
  Ca  Ca3       1.0  0.75000  0.23591  0.65871  1.0000
  Ca  Ca4       1.0  0.25000  0.76409  0.27879  1.0000
  Mn  Mn1       1.0  0.25000  0.23496  0.59381  1.0000
  Mn  Mn2       1.0  0.75000  0.76504  0.34369  1.0000
  Mn  Mn3       1.0  0.75000  0.73496  0.59369  1.0000
  Mn  Mn4       1.0  0.25000  0.26504  0.34381  1.0000
  Sb  Sb1       1.0  0.25000  0.23353  0.46912  1.0000
  Sb  Sb2       1.0  0.75000  0.76647  0.46838  1.0000
  Sb  Sb3       1.0  0.75000  0.73353  0.71838  1.0000
  Sb  Sb4       1.0  0.25000  0.26647  0.71912  1.0000
  Sb  Sb5       1.0  0.25000  0.73516  0.63129  1.0000
  Sb  Sb6       1.0  0.75000  0.26484  0.30621  1.0000
  Sb  Sb7       1.0  0.75000  0.23516  0.55621  1.0000
  Sb  Sb8       1.0  0.25000  0.76484  0.38129  1.0000
