data_image0
_chemical_formula_structural       Fe3Si6Fe3Si6Fe3Si6
_chemical_formula_sum              "Fe9 Si18"
_cell_length_a       5.99729
_cell_length_b       5.75766
_cell_length_c       37.9302
_cell_angle_alpha    109.232
_cell_angle_beta     71.5651
_cell_angle_gamma    77.9759

_space_group_name_H-M_alt    "P 1"
_space_group_IT_number       1

loop_
  _space_group_symop_operation_xyz
  'x, y, z'

loop_
  _atom_site_type_symbol
  _atom_site_label
  _atom_site_symmetry_multiplicity
  _atom_site_fract_x
  _atom_site_fract_y
  _atom_site_fract_z
  _atom_site_occupancy
  Fe  Fe1       1.0  0.00000  0.00000  0.43333  1.0000
  Fe  Fe2       1.0  0.33333  0.00000  0.36667  1.0000
  Fe  Fe3       1.0  0.66667  0.00000  0.40000  1.0000
  Si  Si1       1.0  0.75757  0.72728  0.43182  1.0000
  Si  Si2       1.0  0.09091  0.72728  0.36515  1.0000
  Si  Si3       1.0  0.42424  0.72728  0.39849  1.0000
  Si  Si4       1.0  0.90909  0.27272  0.40151  1.0000
  Si  Si5       1.0  0.24243  0.27272  0.43485  1.0000
  Si  Si6       1.0  0.57576  0.27272  0.36818  1.0000
  Fe  Fe4       1.0  0.00000  0.00000  0.53333  1.0000
  Fe  Fe5       1.0  0.33333  0.00000  0.46667  1.0000
  Fe  Fe6       1.0  0.66667  0.00000  0.50000  1.0000
  Si  Si7       1.0  0.75757  0.72728  0.53182  1.0000
  Si  Si8       1.0  0.09091  0.72728  0.46515  1.0000
  Si  Si9       1.0  0.42424  0.72728  0.49849  1.0000
  Si  Si10      1.0  0.90909  0.27272  0.50151  1.0000
  Si  Si11      1.0  0.24243  0.27272  0.53485  1.0000
  Si  Si12      1.0  0.57576  0.27272  0.46818  1.0000
  Fe  Fe7       1.0  0.00000  0.00000  0.63333  1.0000
  Fe  Fe8       1.0  0.33333  0.00000  0.56667  1.0000
  Fe  Fe9       1.0  0.66667  0.00000  0.60000  1.0000
  Si  Si13      1.0  0.75757  0.72728  0.63182  1.0000
  Si  Si14      1.0  0.09091  0.72728  0.56515  1.0000
  Si  Si15      1.0  0.42424  0.72728  0.59849  1.0000
  Si  Si16      1.0  0.90909  0.27272  0.60151  1.0000
  Si  Si17      1.0  0.24243  0.27272  0.63485  1.0000
  Si  Si18      1.0  0.57576  0.27272  0.56818  1.0000
