data_image0
_chemical_formula_structural       Ti4Ag2Ti4Ag2Ti4Ag2
_chemical_formula_sum              "Ti12 Ag6"
_cell_length_a       2.87627
_cell_length_b       11.9379
_cell_length_c       28.7627
_cell_angle_alpha    90
_cell_angle_beta     90
_cell_angle_gamma    90

_space_group_name_H-M_alt    "P 1"
_space_group_IT_number       1

loop_
  _space_group_symop_operation_xyz
  'x, y, z'

loop_
  _atom_site_type_symbol
  _atom_site_label
  _atom_site_symmetry_multiplicity
  _atom_site_fract_x
  _atom_site_fract_y
  _atom_site_fract_z
  _atom_site_occupancy
  Ti  Ti1       1.0  0.00000  0.32742  0.42500  1.0000
  Ti  Ti2       1.0  0.50000  0.17258  0.37500  1.0000
  Ti  Ti3       1.0  0.50000  0.82742  0.37500  1.0000
  Ti  Ti4       1.0  0.00000  0.67258  0.42500  1.0000
  Ag  Ag1       1.0  0.00000  0.00000  0.42500  1.0000
  Ag  Ag2       1.0  0.50000  0.50000  0.37500  1.0000
  Ti  Ti5       1.0  0.00000  0.32742  0.52500  1.0000
  Ti  Ti6       1.0  0.50000  0.17258  0.47500  1.0000
  Ti  Ti7       1.0  0.50000  0.82742  0.47500  1.0000
  Ti  Ti8       1.0  0.00000  0.67258  0.52500  1.0000
  Ag  Ag3       1.0  0.00000  0.00000  0.52500  1.0000
  Ag  Ag4       1.0  0.50000  0.50000  0.47500  1.0000
  Ti  Ti9       1.0  0.00000  0.32742  0.62500  1.0000
  Ti  Ti10      1.0  0.50000  0.17258  0.57500  1.0000
  Ti  Ti11      1.0  0.50000  0.82742  0.57500  1.0000
  Ti  Ti12      1.0  0.00000  0.67258  0.62500  1.0000
  Ag  Ag5       1.0  0.00000  0.00000  0.62500  1.0000
  Ag  Ag6       1.0  0.50000  0.50000  0.57500  1.0000
