data_image0
_chemical_formula_structural       H10V20
_chemical_formula_sum              "H10 V20"
_cell_length_a       2.62761
_cell_length_b       9.22626
_cell_length_c       34.4067
_cell_angle_alpha    94.6351
_cell_angle_beta     90.3213
_cell_angle_gamma    94.2201

_space_group_name_H-M_alt    "P 1"
_space_group_IT_number       1

loop_
  _space_group_symop_operation_xyz
  'x, y, z'

loop_
  _atom_site_type_symbol
  _atom_site_label
  _atom_site_symmetry_multiplicity
  _atom_site_fract_x
  _atom_site_fract_y
  _atom_site_fract_z
  _atom_site_occupancy
  H   H1        1.0  0.91667  0.05556  0.42778  1.0000
  H   H2        1.0  0.21667  0.52222  0.46111  1.0000
  H   H3        1.0  0.61667  0.58889  0.39444  1.0000
  H   H4        1.0  0.51667  0.98889  0.49444  1.0000
  H   H5        1.0  0.31667  0.12222  0.36111  1.0000
  H   H6        1.0  0.41667  0.38889  0.59444  1.0000
  H   H7        1.0  0.71667  0.85556  0.62778  1.0000
  H   H8        1.0  0.11667  0.92222  0.56111  1.0000
  H   H9        1.0  0.01667  0.32222  0.66111  1.0000
  H   H10       1.0  0.81667  0.45556  0.52778  1.0000
  V   V1        1.0  0.37463  0.19878  0.41875  1.0000
  V   V2        1.0  0.67463  0.66544  0.45208  1.0000
  V   V3        1.0  0.07463  0.73211  0.38542  1.0000
  V   V4        1.0  0.97463  0.13211  0.48542  1.0000
  V   V5        1.0  0.77463  0.26544  0.35208  1.0000
  V   V6        1.0  0.75871  0.37900  0.47014  1.0000
  V   V7        1.0  0.55871  0.51234  0.33681  1.0000
  V   V8        1.0  0.45871  0.91234  0.43681  1.0000
  V   V9        1.0  0.85871  0.97900  0.37014  1.0000
  V   V10       1.0  0.15871  0.44567  0.40347  1.0000
  V   V11       1.0  0.87463  0.53211  0.58542  1.0000
  V   V12       1.0  0.17463  0.99878  0.61875  1.0000
  V   V13       1.0  0.57463  0.06544  0.55208  1.0000
  V   V14       1.0  0.47463  0.46544  0.65208  1.0000
  V   V15       1.0  0.27463  0.59878  0.51875  1.0000
  V   V16       1.0  0.25871  0.71234  0.63681  1.0000
  V   V17       1.0  0.05871  0.84567  0.50347  1.0000
  V   V18       1.0  0.95871  0.24567  0.60347  1.0000
  V   V19       1.0  0.35871  0.31234  0.53681  1.0000
  V   V20       1.0  0.65871  0.77900  0.57014  1.0000
