data_image0
_chemical_formula_structural       Ca4Ga2Cu4Ca4Ga2Cu4
_chemical_formula_sum              "Ca8 Ga4 Cu8"
_cell_length_a       5.41923
_cell_length_b       8.88244
_cell_length_c       29.1872
_cell_angle_alpha    90
_cell_angle_beta     90
_cell_angle_gamma    90

_space_group_name_H-M_alt    "P 1"
_space_group_IT_number       1

loop_
  _space_group_symop_operation_xyz
  'x, y, z'

loop_
  _atom_site_type_symbol
  _atom_site_label
  _atom_site_symmetry_multiplicity
  _atom_site_fract_x
  _atom_site_fract_y
  _atom_site_fract_z
  _atom_site_occupancy
  Ca  Ca1       1.0  0.00000  0.30397  0.39286  1.0000
  Ca  Ca2       1.0  0.50000  0.19603  0.46429  1.0000
  Ca  Ca3       1.0  0.50000  0.80397  0.46429  1.0000
  Ca  Ca4       1.0  0.00000  0.69603  0.39286  1.0000
  Ga  Ga1       1.0  0.00000  0.00000  0.46429  1.0000
  Ga  Ga2       1.0  0.50000  0.50000  0.39286  1.0000
  Cu  Cu1       1.0  0.73986  0.00000  0.39286  1.0000
  Cu  Cu2       1.0  0.76014  0.50000  0.46429  1.0000
  Cu  Cu3       1.0  0.23986  0.50000  0.46429  1.0000
  Cu  Cu4       1.0  0.26014  0.00000  0.39286  1.0000
  Ca  Ca5       1.0  0.00000  0.30397  0.53571  1.0000
  Ca  Ca6       1.0  0.50000  0.19603  0.60714  1.0000
  Ca  Ca7       1.0  0.50000  0.80397  0.60714  1.0000
  Ca  Ca8       1.0  0.00000  0.69603  0.53571  1.0000
  Ga  Ga3       1.0  0.00000  0.00000  0.60714  1.0000
  Ga  Ga4       1.0  0.50000  0.50000  0.53571  1.0000
  Cu  Cu5       1.0  0.73986  0.00000  0.53571  1.0000
  Cu  Cu6       1.0  0.76014  0.50000  0.60714  1.0000
  Cu  Cu7       1.0  0.23986  0.50000  0.60714  1.0000
  Cu  Cu8       1.0  0.26014  0.00000  0.53571  1.0000
