data_image0
_chemical_formula_structural       Ca12Zn4
_chemical_formula_sum              "Ca12 Zn4"
_cell_length_a       6.81313
_cell_length_b       10.7637
_cell_length_c       28.7352
_cell_angle_alpha    88.9805
_cell_angle_beta     87.0088
_cell_angle_gamma    83.6659

_space_group_name_H-M_alt    "P 1"
_space_group_IT_number       1

loop_
  _space_group_symop_operation_xyz
  'x, y, z'

loop_
  _atom_site_type_symbol
  _atom_site_label
  _atom_site_symmetry_multiplicity
  _atom_site_fract_x
  _atom_site_fract_y
  _atom_site_fract_z
  _atom_site_occupancy
  Ca  Ca1       1.0  0.51897  0.63207  0.38207  1.0000
  Ca  Ca2       1.0  0.32478  0.21168  0.46168  1.0000
  Ca  Ca3       1.0  0.21027  0.55514  0.49457  1.0000
  Ca  Ca4       1.0  0.75848  0.41361  0.47418  1.0000
  Ca  Ca5       1.0  0.68084  0.95710  0.39653  1.0000
  Ca  Ca6       1.0  0.16291  0.88665  0.44722  1.0000
  Ca  Ca7       1.0  0.64397  0.75707  0.50707  1.0000
  Ca  Ca8       1.0  0.44978  0.33668  0.58668  1.0000
  Ca  Ca9       1.0  0.33527  0.68014  0.61957  1.0000
  Ca  Ca10      1.0  0.88348  0.53861  0.59918  1.0000
  Ca  Ca11      1.0  0.80584  0.08210  0.52153  1.0000
  Ca  Ca12      1.0  0.28791  0.01165  0.57222  1.0000
  Zn  Zn1       1.0  0.91653  0.67223  0.42223  1.0000
  Zn  Zn2       1.0  0.92722  0.17152  0.42152  1.0000
  Zn  Zn3       1.0  0.04153  0.79723  0.54723  1.0000
  Zn  Zn4       1.0  0.05222  0.29652  0.54652  1.0000
