data_image0
_chemical_formula_structural       Re12Pt4Re12Pt4
_chemical_formula_sum              "Re24 Pt8"
_cell_length_a       4.38526
_cell_length_b       9.57681
_cell_length_c       33.175
_cell_angle_alpha    90
_cell_angle_beta     90
_cell_angle_gamma    90

_space_group_name_H-M_alt    "P 1"
_space_group_IT_number       1

loop_
  _space_group_symop_operation_xyz
  'x, y, z'

loop_
  _atom_site_type_symbol
  _atom_site_label
  _atom_site_symmetry_multiplicity
  _atom_site_fract_x
  _atom_site_fract_y
  _atom_site_fract_z
  _atom_site_occupancy
  Re  Re1       1.0  0.75000  0.42036  0.35601  1.0000
  Re  Re2       1.0  0.75000  0.92036  0.43935  1.0000
  Re  Re3       1.0  0.75000  0.42036  0.43565  1.0000
  Re  Re4       1.0  0.75000  0.92036  0.35232  1.0000
  Re  Re5       1.0  0.75000  0.15928  0.47917  1.0000
  Re  Re6       1.0  0.75000  0.65928  0.39583  1.0000
  Re  Re7       1.0  0.25000  0.57964  0.43565  1.0000
  Re  Re8       1.0  0.25000  0.07964  0.35232  1.0000
  Re  Re9       1.0  0.25000  0.57964  0.35601  1.0000
  Re  Re10      1.0  0.25000  0.07964  0.43935  1.0000
  Re  Re11      1.0  0.25000  0.84072  0.47917  1.0000
  Re  Re12      1.0  0.25000  0.34072  0.39583  1.0000
  Pt  Pt1       1.0  0.25000  0.33333  0.47917  1.0000
  Pt  Pt2       1.0  0.25000  0.83333  0.39583  1.0000
  Pt  Pt3       1.0  0.75000  0.66667  0.47917  1.0000
  Pt  Pt4       1.0  0.75000  0.16667  0.39583  1.0000
  Re  Re13      1.0  0.75000  0.42036  0.52268  1.0000
  Re  Re14      1.0  0.75000  0.92036  0.60601  1.0000
  Re  Re15      1.0  0.75000  0.42036  0.60232  1.0000
  Re  Re16      1.0  0.75000  0.92036  0.51899  1.0000
  Re  Re17      1.0  0.75000  0.15928  0.64583  1.0000
  Re  Re18      1.0  0.75000  0.65928  0.56250  1.0000
  Re  Re19      1.0  0.25000  0.57964  0.60232  1.0000
  Re  Re20      1.0  0.25000  0.07964  0.51899  1.0000
  Re  Re21      1.0  0.25000  0.57964  0.52268  1.0000
  Re  Re22      1.0  0.25000  0.07964  0.60601  1.0000
  Re  Re23      1.0  0.25000  0.84072  0.64583  1.0000
  Re  Re24      1.0  0.25000  0.34072  0.56250  1.0000
  Pt  Pt5       1.0  0.25000  0.33333  0.64583  1.0000
  Pt  Pt6       1.0  0.25000  0.83333  0.56250  1.0000
  Pt  Pt7       1.0  0.75000  0.66667  0.64583  1.0000
  Pt  Pt8       1.0  0.75000  0.16667  0.56250  1.0000
