data_image0
_chemical_formula_structural       Pt8W4
_chemical_formula_sum              "Pt8 W4"
_cell_length_a       4.77243
_cell_length_b       4.77243
_cell_length_c       31.6764
_cell_angle_alpha    91.4463
_cell_angle_beta     91.4463
_cell_angle_gamma    119.71

_space_group_name_H-M_alt    "P 1"
_space_group_IT_number       1

loop_
  _space_group_symop_operation_xyz
  'x, y, z'

loop_
  _atom_site_type_symbol
  _atom_site_label
  _atom_site_symmetry_multiplicity
  _atom_site_fract_x
  _atom_site_fract_y
  _atom_site_fract_z
  _atom_site_occupancy
  Pt  Pt1       1.0  0.73442  0.40844  0.46429  1.0000
  Pt  Pt2       1.0  0.37728  0.05129  0.39286  1.0000
  Pt  Pt3       1.0  0.05129  0.37728  0.39286  1.0000
  Pt  Pt4       1.0  0.40844  0.73442  0.46429  1.0000
  Pt  Pt5       1.0  0.44871  0.12272  0.60714  1.0000
  Pt  Pt6       1.0  0.09156  0.76558  0.53571  1.0000
  Pt  Pt7       1.0  0.76558  0.09156  0.53571  1.0000
  Pt  Pt8       1.0  0.12272  0.44871  0.60714  1.0000
  W   W1        1.0  0.71429  0.71429  0.39286  1.0000
  W   W2        1.0  0.07143  0.07143  0.46429  1.0000
  W   W3        1.0  0.42857  0.42857  0.53571  1.0000
  W   W4        1.0  0.78571  0.78571  0.60714  1.0000
