data_image0
_chemical_formula_structural       Si4Pd4Si4Pd4Si4Pd4
_chemical_formula_sum              "Si12 Pd12"
_cell_length_a       5.55812
_cell_length_b       7.00104
_cell_length_c       34.3298
_cell_angle_alpha    119.364
_cell_angle_beta     90
_cell_angle_gamma    90

_space_group_name_H-M_alt    "P 1"
_space_group_IT_number       1

loop_
  _space_group_symop_operation_xyz
  'x, y, z'

loop_
  _atom_site_type_symbol
  _atom_site_label
  _atom_site_symmetry_multiplicity
  _atom_site_fract_x
  _atom_site_fract_y
  _atom_site_fract_z
  _atom_site_occupancy
  Si  Si1       1.0  0.67731  0.07314  0.38231  1.0000
  Si  Si2       1.0  0.32269  0.92686  0.41769  1.0000
  Si  Si3       1.0  0.17731  0.42686  0.41769  1.0000
  Si  Si4       1.0  0.82269  0.57314  0.38231  1.0000
  Pd  Pd1       1.0  0.50423  0.69108  0.44411  1.0000
  Pd  Pd2       1.0  0.49577  0.30892  0.35589  1.0000
  Pd  Pd3       1.0  0.00423  0.80892  0.35589  1.0000
  Pd  Pd4       1.0  0.99577  0.19108  0.44411  1.0000
  Si  Si5       1.0  0.67731  0.07314  0.48231  1.0000
  Si  Si6       1.0  0.32269  0.92686  0.51769  1.0000
  Si  Si7       1.0  0.17731  0.42686  0.51769  1.0000
  Si  Si8       1.0  0.82269  0.57314  0.48231  1.0000
  Pd  Pd5       1.0  0.50423  0.69108  0.54411  1.0000
  Pd  Pd6       1.0  0.49577  0.30892  0.45589  1.0000
  Pd  Pd7       1.0  0.00423  0.80892  0.45589  1.0000
  Pd  Pd8       1.0  0.99577  0.19108  0.54411  1.0000
  Si  Si9       1.0  0.67731  0.07314  0.58231  1.0000
  Si  Si10      1.0  0.32269  0.92686  0.61769  1.0000
  Si  Si11      1.0  0.17731  0.42686  0.61769  1.0000
  Si  Si12      1.0  0.82269  0.57314  0.58231  1.0000
  Pd  Pd9       1.0  0.50423  0.69108  0.64411  1.0000
  Pd  Pd10      1.0  0.49577  0.30892  0.55589  1.0000
  Pd  Pd11      1.0  0.00423  0.80892  0.55589  1.0000
  Pd  Pd12      1.0  0.99577  0.19108  0.64411  1.0000
