data_image0
_chemical_formula_structural       Ca4In2Pt4
_chemical_formula_sum              "Ca4 In2 Pt4"
_cell_length_a       5.63234
_cell_length_b       5.75892
_cell_length_c       31.4243
_cell_angle_alpha    92.9342
_cell_angle_beta     90
_cell_angle_gamma    119.276

_space_group_name_H-M_alt    "P 1"
_space_group_IT_number       1

loop_
  _space_group_symop_operation_xyz
  'x, y, z'

loop_
  _atom_site_type_symbol
  _atom_site_label
  _atom_site_symmetry_multiplicity
  _atom_site_fract_x
  _atom_site_fract_y
  _atom_site_fract_z
  _atom_site_occupancy
  Ca  Ca1       1.0  0.01458  0.32335  0.51273  1.0000
  Ca  Ca2       1.0  0.66623  0.62665  0.46227  1.0000
  Ca  Ca3       1.0  0.08542  0.87665  0.58727  1.0000
  Ca  Ca4       1.0  0.18377  0.07335  0.38773  1.0000
  In  In1       1.0  0.33582  0.97500  0.48750  1.0000
  In  In2       1.0  0.76418  0.22500  0.61250  1.0000
  Pt  Pt1       1.0  0.70007  0.12134  0.42408  1.0000
  Pt  Pt2       1.0  0.55373  0.82866  0.55092  1.0000
  Pt  Pt3       1.0  0.14993  0.57866  0.42592  1.0000
  Pt  Pt4       1.0  0.54627  0.37134  0.54908  1.0000
