data_image0
_chemical_formula_structural       Nb4Si4Rh4Nb4Si4Rh4
_chemical_formula_sum              "Nb8 Si8 Rh8"
_cell_length_a       3.73729
_cell_length_b       7.28957
_cell_length_c       38.3087
_cell_angle_alpha    90
_cell_angle_beta     90
_cell_angle_gamma    90

_space_group_name_H-M_alt    "P 1"
_space_group_IT_number       1

loop_
  _space_group_symop_operation_xyz
  'x, y, z'

loop_
  _atom_site_type_symbol
  _atom_site_label
  _atom_site_symmetry_multiplicity
  _atom_site_fract_x
  _atom_site_fract_y
  _atom_site_fract_z
  _atom_site_occupancy
  Nb  Nb1       1.0  0.25000  0.67343  0.39314  1.0000
  Nb  Nb2       1.0  0.75000  0.17343  0.46797  1.0000
  Nb  Nb3       1.0  0.25000  0.82657  0.47647  1.0000
  Nb  Nb4       1.0  0.75000  0.32657  0.38464  1.0000
  Si  Si1       1.0  0.75000  0.87541  0.42743  1.0000
  Si  Si2       1.0  0.75000  0.62459  0.34410  1.0000
  Si  Si3       1.0  0.25000  0.12459  0.35034  1.0000
  Si  Si4       1.0  0.25000  0.37541  0.43368  1.0000
  Rh  Rh1       1.0  0.75000  0.93745  0.36468  1.0000
  Rh  Rh2       1.0  0.75000  0.56255  0.44801  1.0000
  Rh  Rh3       1.0  0.25000  0.43745  0.49643  1.0000
  Rh  Rh4       1.0  0.25000  0.06255  0.41310  1.0000
  Nb  Nb5       1.0  0.25000  0.67343  0.55980  1.0000
  Nb  Nb6       1.0  0.75000  0.17343  0.63464  1.0000
  Nb  Nb7       1.0  0.25000  0.82657  0.64314  1.0000
  Nb  Nb8       1.0  0.75000  0.32657  0.55131  1.0000
  Si  Si5       1.0  0.75000  0.87541  0.59410  1.0000
  Si  Si6       1.0  0.75000  0.62459  0.51077  1.0000
  Si  Si7       1.0  0.25000  0.12459  0.51701  1.0000
  Si  Si8       1.0  0.25000  0.37541  0.60034  1.0000
  Rh  Rh5       1.0  0.75000  0.93745  0.53135  1.0000
  Rh  Rh6       1.0  0.75000  0.56255  0.61468  1.0000
  Rh  Rh7       1.0  0.25000  0.43745  0.66310  1.0000
  Rh  Rh8       1.0  0.25000  0.06255  0.57977  1.0000
