data_image0
_chemical_formula_structural       As18Mo12
_chemical_formula_sum              "As18 Mo12"
_cell_length_a       6.85047
_cell_length_b       8.15778
_cell_length_c       31.069
_cell_angle_alpha    84.2551
_cell_angle_beta     88.4518
_cell_angle_gamma    78.9416

_space_group_name_H-M_alt    "P 1"
_space_group_IT_number       1

loop_
  _space_group_symop_operation_xyz
  'x, y, z'

loop_
  _atom_site_type_symbol
  _atom_site_label
  _atom_site_symmetry_multiplicity
  _atom_site_fract_x
  _atom_site_fract_y
  _atom_site_fract_z
  _atom_site_occupancy
  As  As1       1.0  0.77478  0.61430  0.43273  1.0000
  As  As2       1.0  0.38522  0.54570  0.40727  1.0000
  As  As3       1.0  0.78217  0.32413  0.36146  1.0000
  As  As4       1.0  0.47783  0.93587  0.37854  1.0000
  As  As5       1.0  0.15000  0.19835  0.43046  1.0000
  As  As6       1.0  0.01000  0.96165  0.40954  1.0000
  As  As7       1.0  0.67478  0.51430  0.53273  1.0000
  As  As8       1.0  0.28522  0.44570  0.50727  1.0000
  As  As9       1.0  0.68217  0.22413  0.46146  1.0000
  As  As10      1.0  0.37783  0.83587  0.47854  1.0000
  As  As11      1.0  0.05000  0.09835  0.53046  1.0000
  As  As12      1.0  0.91000  0.86165  0.50954  1.0000
  As  As13      1.0  0.57478  0.41430  0.63273  1.0000
  As  As14      1.0  0.18522  0.34570  0.60727  1.0000
  As  As15      1.0  0.58217  0.12413  0.56146  1.0000
  As  As16      1.0  0.27783  0.73587  0.57854  1.0000
  As  As17      1.0  0.95000  0.99835  0.63046  1.0000
  As  As18      1.0  0.81000  0.76165  0.60954  1.0000
  Mo  Mo1       1.0  0.67959  0.92687  0.44480  1.0000
  Mo  Mo2       1.0  0.48041  0.23313  0.39520  1.0000
  Mo  Mo3       1.0  0.21119  0.77976  0.35505  1.0000
  Mo  Mo4       1.0  0.04881  0.48024  0.38495  1.0000
  Mo  Mo5       1.0  0.57959  0.82687  0.54480  1.0000
  Mo  Mo6       1.0  0.38041  0.13313  0.49520  1.0000
  Mo  Mo7       1.0  0.11119  0.67976  0.45505  1.0000
  Mo  Mo8       1.0  0.94881  0.38024  0.48495  1.0000
  Mo  Mo9       1.0  0.47959  0.72687  0.64480  1.0000
  Mo  Mo10      1.0  0.28041  0.03313  0.59520  1.0000
  Mo  Mo11      1.0  0.01119  0.57976  0.55505  1.0000
  Mo  Mo12      1.0  0.84881  0.28024  0.58495  1.0000
