data_image0
_chemical_formula_structural       Ir16
_chemical_formula_sum              "Ir16"
_cell_length_a       2.71011
_cell_length_b       6.63838
_cell_length_c       37.5523
_cell_angle_alpha    90
_cell_angle_beta     90
_cell_angle_gamma    90

_space_group_name_H-M_alt    "P 1"
_space_group_IT_number       1

loop_
  _space_group_symop_operation_xyz
  'x, y, z'

loop_
  _atom_site_type_symbol
  _atom_site_label
  _atom_site_symmetry_multiplicity
  _atom_site_fract_x
  _atom_site_fract_y
  _atom_site_fract_z
  _atom_site_occupancy
  Ir  Ir1       1.0  0.00000  0.02083  0.48958  1.0000
  Ir  Ir2       1.0  0.00000  0.02083  0.36458  1.0000
  Ir  Ir3       1.0  0.00000  0.68750  0.40625  1.0000
  Ir  Ir4       1.0  0.00000  0.35417  0.44792  1.0000
  Ir  Ir5       1.0  0.50000  0.35417  0.38542  1.0000
  Ir  Ir6       1.0  0.50000  0.02083  0.42708  1.0000
  Ir  Ir7       1.0  0.50000  0.68750  0.46875  1.0000
  Ir  Ir8       1.0  0.50000  0.68750  0.34375  1.0000
  Ir  Ir9       1.0  0.00000  0.68750  0.65625  1.0000
  Ir  Ir10      1.0  0.00000  0.68750  0.53125  1.0000
  Ir  Ir11      1.0  0.00000  0.35417  0.57292  1.0000
  Ir  Ir12      1.0  0.00000  0.02083  0.61458  1.0000
  Ir  Ir13      1.0  0.50000  0.02083  0.55208  1.0000
  Ir  Ir14      1.0  0.50000  0.68750  0.59375  1.0000
  Ir  Ir15      1.0  0.50000  0.35417  0.63542  1.0000
  Ir  Ir16      1.0  0.50000  0.35417  0.51042  1.0000
