data_image0
_chemical_formula_structural       Al9Cu6Al9Cu6
_chemical_formula_sum              "Al18 Cu12"
_cell_length_a       4.10154
_cell_length_b       9.59979
_cell_length_c       38.7398
_cell_angle_alpha    98.1434
_cell_angle_beta     108.519
_cell_angle_gamma    64.7066

_space_group_name_H-M_alt    "P 1"
_space_group_IT_number       1

loop_
  _space_group_symop_operation_xyz
  'x, y, z'

loop_
  _atom_site_type_symbol
  _atom_site_label
  _atom_site_symmetry_multiplicity
  _atom_site_fract_x
  _atom_site_fract_y
  _atom_site_fract_z
  _atom_site_occupancy
  Al  Al1       1.0  0.00000  0.66667  0.36111  1.0000
  Al  Al2       1.0  0.00000  0.00000  0.47222  1.0000
  Al  Al3       1.0  0.00000  0.33333  0.41667  1.0000
  Al  Al4       1.0  0.66667  0.67290  0.41874  1.0000
  Al  Al5       1.0  0.66667  0.00623  0.36319  1.0000
  Al  Al6       1.0  0.66667  0.33957  0.47430  1.0000
  Al  Al7       1.0  0.33333  0.66043  0.47014  1.0000
  Al  Al8       1.0  0.33333  0.99377  0.41459  1.0000
  Al  Al9       1.0  0.33333  0.32710  0.35903  1.0000
  Cu  Cu1       1.0  0.66667  0.83584  0.47306  1.0000
  Cu  Cu2       1.0  0.66667  0.16918  0.41750  1.0000
  Cu  Cu3       1.0  0.66667  0.50251  0.36195  1.0000
  Cu  Cu4       1.0  0.33333  0.49749  0.41583  1.0000
  Cu  Cu5       1.0  0.33333  0.83082  0.36027  1.0000
  Cu  Cu6       1.0  0.33333  0.16415  0.47138  1.0000
  Al  Al10      1.0  0.00000  0.66667  0.52778  1.0000
  Al  Al11      1.0  0.00000  0.00000  0.63889  1.0000
  Al  Al12      1.0  0.00000  0.33333  0.58333  1.0000
  Al  Al13      1.0  0.66667  0.67290  0.58541  1.0000
  Al  Al14      1.0  0.66667  0.00623  0.52986  1.0000
  Al  Al15      1.0  0.66667  0.33957  0.64097  1.0000
  Al  Al16      1.0  0.33333  0.66043  0.63681  1.0000
  Al  Al17      1.0  0.33333  0.99377  0.58126  1.0000
  Al  Al18      1.0  0.33333  0.32710  0.52570  1.0000
  Cu  Cu7       1.0  0.66667  0.83584  0.63973  1.0000
  Cu  Cu8       1.0  0.66667  0.16918  0.58417  1.0000
  Cu  Cu9       1.0  0.66667  0.50251  0.52862  1.0000
  Cu  Cu10      1.0  0.33333  0.49749  0.58250  1.0000
  Cu  Cu11      1.0  0.33333  0.83082  0.52694  1.0000
  Cu  Cu12      1.0  0.33333  0.16415  0.63805  1.0000
