data_image0
_chemical_formula_structural       Ti24
_chemical_formula_sum              "Ti24"
_cell_length_a       7.79437
_cell_length_b       5.29018
_cell_length_c       37.0313
_cell_angle_alpha    116.564
_cell_angle_beta     90
_cell_angle_gamma    90

_space_group_name_H-M_alt    "P 1"
_space_group_IT_number       1

loop_
  _space_group_symop_operation_xyz
  'x, y, z'

loop_
  _atom_site_type_symbol
  _atom_site_label
  _atom_site_symmetry_multiplicity
  _atom_site_fract_x
  _atom_site_fract_y
  _atom_site_fract_z
  _atom_site_occupancy
  Ti  Ti1       1.0  0.00000  0.50000  0.41071  1.0000
  Ti  Ti2       1.0  0.00000  0.00000  0.48214  1.0000
  Ti  Ti3       1.0  0.50000  0.25000  0.44643  1.0000
  Ti  Ti4       1.0  0.50000  0.75000  0.37500  1.0000
  Ti  Ti5       1.0  0.33333  0.25000  0.37500  1.0000
  Ti  Ti6       1.0  0.33333  0.75000  0.44643  1.0000
  Ti  Ti7       1.0  0.83333  0.00000  0.41071  1.0000
  Ti  Ti8       1.0  0.83333  0.50000  0.48214  1.0000
  Ti  Ti9       1.0  0.16667  0.50000  0.48214  1.0000
  Ti  Ti10      1.0  0.16667  0.00000  0.41071  1.0000
  Ti  Ti11      1.0  0.66667  0.25000  0.37500  1.0000
  Ti  Ti12      1.0  0.66667  0.75000  0.44643  1.0000
  Ti  Ti13      1.0  0.00000  0.50000  0.55357  1.0000
  Ti  Ti14      1.0  0.00000  0.00000  0.62500  1.0000
  Ti  Ti15      1.0  0.50000  0.25000  0.58929  1.0000
  Ti  Ti16      1.0  0.50000  0.75000  0.51786  1.0000
  Ti  Ti17      1.0  0.33333  0.25000  0.51786  1.0000
  Ti  Ti18      1.0  0.33333  0.75000  0.58929  1.0000
  Ti  Ti19      1.0  0.83333  0.00000  0.55357  1.0000
  Ti  Ti20      1.0  0.83333  0.50000  0.62500  1.0000
  Ti  Ti21      1.0  0.16667  0.50000  0.62500  1.0000
  Ti  Ti22      1.0  0.16667  0.00000  0.55357  1.0000
  Ti  Ti23      1.0  0.66667  0.25000  0.51786  1.0000
  Ti  Ti24      1.0  0.66667  0.75000  0.58929  1.0000
