data_image0
_chemical_formula_structural       Ga12Pt20
_chemical_formula_sum              "Ga12 Pt20"
_cell_length_a       5.46831
_cell_length_b       11.6232
_cell_length_c       29.6409
_cell_angle_alpha    88.1396
_cell_angle_beta     88.3812
_cell_angle_gamma    85.8687

_space_group_name_H-M_alt    "P 1"
_space_group_IT_number       1

loop_
  _space_group_symop_operation_xyz
  'x, y, z'

loop_
  _atom_site_type_symbol
  _atom_site_label
  _atom_site_symmetry_multiplicity
  _atom_site_fract_x
  _atom_site_fract_y
  _atom_site_fract_z
  _atom_site_occupancy
  Ga  Ga1       1.0  0.00000  0.92969  0.57031  1.0000
  Ga  Ga2       1.0  0.00000  0.49219  0.50781  1.0000
  Ga  Ga3       1.0  0.71455  0.30480  0.55247  1.0000
  Ga  Ga4       1.0  0.71455  0.74230  0.61497  1.0000
  Ga  Ga5       1.0  0.28545  0.55457  0.58815  1.0000
  Ga  Ga6       1.0  0.28545  0.11707  0.52565  1.0000
  Ga  Ga7       1.0  0.00000  0.05469  0.44531  1.0000
  Ga  Ga8       1.0  0.00000  0.61719  0.38281  1.0000
  Ga  Ga9       1.0  0.71455  0.42980  0.42747  1.0000
  Ga  Ga10      1.0  0.71455  0.86730  0.48997  1.0000
  Ga  Ga11      1.0  0.28545  0.67957  0.46315  1.0000
  Ga  Ga12      1.0  0.28545  0.24207  0.40065  1.0000
  Pt  Pt1       1.0  0.50000  0.71094  0.53906  1.0000
  Pt  Pt2       1.0  0.50000  0.14844  0.60156  1.0000
  Pt  Pt3       1.0  0.00000  0.71094  0.53906  1.0000
  Pt  Pt4       1.0  0.00000  0.14844  0.60156  1.0000
  Pt  Pt5       1.0  0.50000  0.49219  0.50781  1.0000
  Pt  Pt6       1.0  0.50000  0.92969  0.57031  1.0000
  Pt  Pt7       1.0  0.20870  0.77588  0.61977  1.0000
  Pt  Pt8       1.0  0.20870  0.33838  0.55727  1.0000
  Pt  Pt9       1.0  0.79130  0.52099  0.58336  1.0000
  Pt  Pt10      1.0  0.79130  0.08349  0.52086  1.0000
  Pt  Pt11      1.0  0.50000  0.83594  0.41406  1.0000
  Pt  Pt12      1.0  0.50000  0.27344  0.47656  1.0000
  Pt  Pt13      1.0  0.00000  0.83594  0.41406  1.0000
  Pt  Pt14      1.0  0.00000  0.27344  0.47656  1.0000
  Pt  Pt15      1.0  0.50000  0.61719  0.38281  1.0000
  Pt  Pt16      1.0  0.50000  0.05469  0.44531  1.0000
  Pt  Pt17      1.0  0.20870  0.90088  0.49477  1.0000
  Pt  Pt18      1.0  0.20870  0.46338  0.43227  1.0000
  Pt  Pt19      1.0  0.79130  0.64599  0.45836  1.0000
  Pt  Pt20      1.0  0.79130  0.20849  0.39586  1.0000
