data_image0
_chemical_formula_structural       V8H4V8H4
_chemical_formula_sum              "V16 H8"
_cell_length_a       2.90783
_cell_length_b       9.27576
_cell_length_c       30.6462
_cell_angle_alpha    69.4129
_cell_angle_beta     90
_cell_angle_gamma    90

_space_group_name_H-M_alt    "P 1"
_space_group_IT_number       1

loop_
  _space_group_symop_operation_xyz
  'x, y, z'

loop_
  _atom_site_type_symbol
  _atom_site_label
  _atom_site_symmetry_multiplicity
  _atom_site_fract_x
  _atom_site_fract_y
  _atom_site_fract_z
  _atom_site_occupancy
  V   V1        1.0  0.50000  0.38480  0.40074  1.0000
  V   V2        1.0  0.50000  0.88480  0.47216  1.0000
  V   V3        1.0  0.50000  0.11520  0.37307  1.0000
  V   V4        1.0  0.50000  0.61520  0.44450  1.0000
  V   V5        1.0  0.00000  0.13480  0.43645  1.0000
  V   V6        1.0  0.00000  0.63480  0.36502  1.0000
  V   V7        1.0  0.00000  0.36520  0.48022  1.0000
  V   V8        1.0  0.00000  0.86520  0.40879  1.0000
  H   H1        1.0  0.50000  0.25000  0.45833  1.0000
  H   H2        1.0  0.50000  0.75000  0.38690  1.0000
  H   H3        1.0  0.00000  0.50000  0.42262  1.0000
  H   H4        1.0  0.00000  0.00000  0.49405  1.0000
  V   V9        1.0  0.50000  0.38480  0.54359  1.0000
  V   V10       1.0  0.50000  0.88480  0.61502  1.0000
  V   V11       1.0  0.50000  0.11520  0.51593  1.0000
  V   V12       1.0  0.50000  0.61520  0.58736  1.0000
  V   V13       1.0  0.00000  0.13480  0.57931  1.0000
  V   V14       1.0  0.00000  0.63480  0.50788  1.0000
  V   V15       1.0  0.00000  0.36520  0.62307  1.0000
  V   V16       1.0  0.00000  0.86520  0.55165  1.0000
  H   H5        1.0  0.50000  0.25000  0.60119  1.0000
  H   H6        1.0  0.50000  0.75000  0.52976  1.0000
  H   H7        1.0  0.00000  0.50000  0.56548  1.0000
  H   H8        1.0  0.00000  0.00000  0.63690  1.0000
