data_image0
_chemical_formula_structural       Ge24Os12
_chemical_formula_sum              "Ge24 Os12"
_cell_length_a       6.93018
_cell_length_b       9.01307
_cell_length_c       30.2298
_cell_angle_alpha    91.4177
_cell_angle_beta     90.0201
_cell_angle_gamma    96.1955

_space_group_name_H-M_alt    "P 1"
_space_group_IT_number       1

loop_
  _space_group_symop_operation_xyz
  'x, y, z'

loop_
  _atom_site_type_symbol
  _atom_site_label
  _atom_site_symmetry_multiplicity
  _atom_site_fract_x
  _atom_site_fract_y
  _atom_site_fract_z
  _atom_site_occupancy
  Ge  Ge1       1.0  0.06112  0.87778  0.40673  1.0000
  Ge  Ge2       1.0  0.11112  0.37778  0.35673  1.0000
  Ge  Ge3       1.0  0.12221  0.62222  0.40994  1.0000
  Ge  Ge4       1.0  0.17221  0.12222  0.35994  1.0000
  Ge  Ge5       1.0  0.51077  0.84350  0.37776  1.0000
  Ge  Ge6       1.0  0.46077  0.34350  0.42776  1.0000
  Ge  Ge7       1.0  0.67256  0.65650  0.43891  1.0000
  Ge  Ge8       1.0  0.72256  0.15650  0.38891  1.0000
  Ge  Ge9       1.0  0.96112  0.87778  0.50673  1.0000
  Ge  Ge10      1.0  0.01112  0.37778  0.45673  1.0000
  Ge  Ge11      1.0  0.02221  0.62222  0.50994  1.0000
  Ge  Ge12      1.0  0.07221  0.12222  0.45994  1.0000
  Ge  Ge13      1.0  0.41077  0.84350  0.47776  1.0000
  Ge  Ge14      1.0  0.36077  0.34350  0.52776  1.0000
  Ge  Ge15      1.0  0.57256  0.65650  0.53891  1.0000
  Ge  Ge16      1.0  0.62256  0.15650  0.48891  1.0000
  Ge  Ge17      1.0  0.86112  0.87778  0.60673  1.0000
  Ge  Ge18      1.0  0.91112  0.37778  0.55673  1.0000
  Ge  Ge19      1.0  0.92221  0.62222  0.60994  1.0000
  Ge  Ge20      1.0  0.97221  0.12222  0.55994  1.0000
  Ge  Ge21      1.0  0.31077  0.84350  0.57776  1.0000
  Ge  Ge22      1.0  0.26077  0.34350  0.62776  1.0000
  Ge  Ge23      1.0  0.47256  0.65650  0.63891  1.0000
  Ge  Ge24      1.0  0.52256  0.15650  0.58891  1.0000
  Os  Os1       1.0  0.75758  0.94629  0.44338  1.0000
  Os  Os2       1.0  0.80758  0.44629  0.39338  1.0000
  Os  Os3       1.0  0.42576  0.55371  0.37329  1.0000
  Os  Os4       1.0  0.37576  0.05371  0.42329  1.0000
  Os  Os5       1.0  0.65758  0.94629  0.54338  1.0000
  Os  Os6       1.0  0.70758  0.44629  0.49338  1.0000
  Os  Os7       1.0  0.32576  0.55371  0.47329  1.0000
  Os  Os8       1.0  0.27576  0.05371  0.52329  1.0000
  Os  Os9       1.0  0.55758  0.94629  0.64338  1.0000
  Os  Os10      1.0  0.60758  0.44629  0.59338  1.0000
  Os  Os11      1.0  0.22576  0.55371  0.57329  1.0000
  Os  Os12      1.0  0.17576  0.05371  0.62329  1.0000
