data_image0
_chemical_formula_structural       Ti6Au6Ti6Au6
_chemical_formula_sum              "Ti12 Au12"
_cell_length_a       7.44415
_cell_length_b       5.66658
_cell_length_c       32.4477
_cell_angle_alpha    106.538
_cell_angle_beta     85.6172
_cell_angle_gamma    65.5696

_space_group_name_H-M_alt    "P 1"
_space_group_IT_number       1

loop_
  _space_group_symop_operation_xyz
  'x, y, z'

loop_
  _atom_site_type_symbol
  _atom_site_label
  _atom_site_symmetry_multiplicity
  _atom_site_fract_x
  _atom_site_fract_y
  _atom_site_fract_z
  _atom_site_occupancy
  Ti  Ti1       1.0  0.81278  0.31165  0.48954  1.0000
  Ti  Ti2       1.0  0.14612  0.31165  0.43398  1.0000
  Ti  Ti3       1.0  0.47945  0.31165  0.37842  1.0000
  Ti  Ti4       1.0  0.52055  0.68835  0.45491  1.0000
  Ti  Ti5       1.0  0.85388  0.68835  0.39935  1.0000
  Ti  Ti6       1.0  0.18722  0.68835  0.34380  1.0000
  Au  Au1       1.0  0.47745  0.81764  0.37876  1.0000
  Au  Au2       1.0  0.81079  0.81764  0.48987  1.0000
  Au  Au3       1.0  0.14412  0.81764  0.43431  1.0000
  Au  Au4       1.0  0.52255  0.18236  0.45458  1.0000
  Au  Au5       1.0  0.85588  0.18236  0.39902  1.0000
  Au  Au6       1.0  0.18921  0.18236  0.34346  1.0000
  Ti  Ti7       1.0  0.81278  0.31165  0.65620  1.0000
  Ti  Ti8       1.0  0.14612  0.31165  0.60065  1.0000
  Ti  Ti9       1.0  0.47945  0.31165  0.54509  1.0000
  Ti  Ti10      1.0  0.52055  0.68835  0.62158  1.0000
  Ti  Ti11      1.0  0.85388  0.68835  0.56602  1.0000
  Ti  Ti12      1.0  0.18722  0.68835  0.51046  1.0000
  Au  Au7       1.0  0.47745  0.81764  0.54542  1.0000
  Au  Au8       1.0  0.81079  0.81764  0.65654  1.0000
  Au  Au9       1.0  0.14412  0.81764  0.60098  1.0000
  Au  Au10      1.0  0.52255  0.18236  0.62124  1.0000
  Au  Au11      1.0  0.85588  0.18236  0.56569  1.0000
  Au  Au12      1.0  0.18921  0.18236  0.51013  1.0000
