data_image0
_chemical_formula_structural       Si12W6Si12W6
_chemical_formula_sum              "Si24 W12"
_cell_length_a       6.5954
_cell_length_b       7.92712
_cell_length_c       32.0371
_cell_angle_alpha    90
_cell_angle_beta     90
_cell_angle_gamma    90

_space_group_name_H-M_alt    "P 1"
_space_group_IT_number       1

loop_
  _space_group_symop_operation_xyz
  'x, y, z'

loop_
  _atom_site_type_symbol
  _atom_site_label
  _atom_site_symmetry_multiplicity
  _atom_site_fract_x
  _atom_site_fract_y
  _atom_site_fract_z
  _atom_site_occupancy
  Si  Si1       1.0  0.16667  0.16363  0.48810  1.0000
  Si  Si2       1.0  0.16667  0.66363  0.41667  1.0000
  Si  Si3       1.0  0.83333  0.58181  0.38160  1.0000
  Si  Si4       1.0  0.83333  0.08181  0.45303  1.0000
  Si  Si5       1.0  0.50000  0.58181  0.45173  1.0000
  Si  Si6       1.0  0.50000  0.08181  0.38030  1.0000
  Si  Si7       1.0  0.16667  0.83637  0.48810  1.0000
  Si  Si8       1.0  0.16667  0.33637  0.41667  1.0000
  Si  Si9       1.0  0.83333  0.41819  0.45173  1.0000
  Si  Si10      1.0  0.83333  0.91819  0.38030  1.0000
  Si  Si11      1.0  0.50000  0.41819  0.38160  1.0000
  Si  Si12      1.0  0.50000  0.91819  0.45303  1.0000
  W   W1        1.0  0.50000  0.75000  0.38095  1.0000
  W   W2        1.0  0.50000  0.25000  0.45238  1.0000
  W   W3        1.0  0.83333  0.25000  0.38095  1.0000
  W   W4        1.0  0.83333  0.75000  0.45238  1.0000
  W   W5        1.0  0.16667  0.50000  0.48810  1.0000
  W   W6        1.0  0.16667  0.00000  0.41667  1.0000
  Si  Si13      1.0  0.16667  0.16363  0.63095  1.0000
  Si  Si14      1.0  0.16667  0.66363  0.55952  1.0000
  Si  Si15      1.0  0.83333  0.58181  0.52446  1.0000
  Si  Si16      1.0  0.83333  0.08181  0.59589  1.0000
  Si  Si17      1.0  0.50000  0.58181  0.59459  1.0000
  Si  Si18      1.0  0.50000  0.08181  0.52316  1.0000
  Si  Si19      1.0  0.16667  0.83637  0.63095  1.0000
  Si  Si20      1.0  0.16667  0.33637  0.55952  1.0000
  Si  Si21      1.0  0.83333  0.41819  0.59459  1.0000
  Si  Si22      1.0  0.83333  0.91819  0.52316  1.0000
  Si  Si23      1.0  0.50000  0.41819  0.52446  1.0000
  Si  Si24      1.0  0.50000  0.91819  0.59589  1.0000
  W   W7        1.0  0.50000  0.75000  0.52381  1.0000
  W   W8        1.0  0.50000  0.25000  0.59524  1.0000
  W   W9        1.0  0.83333  0.25000  0.52381  1.0000
  W   W10       1.0  0.83333  0.75000  0.59524  1.0000
  W   W11       1.0  0.16667  0.50000  0.63095  1.0000
  W   W12       1.0  0.16667  0.00000  0.55952  1.0000
