data_image0
_chemical_formula_structural       Ca12Zn12
_chemical_formula_sum              "Ca12 Zn12"
_cell_length_a       5.99994
_cell_length_b       9.51643
_cell_length_c       32.6084
_cell_angle_alpha    83.0838
_cell_angle_beta     87.3327
_cell_angle_gamma    80.9464

_space_group_name_H-M_alt    "P 1"
_space_group_IT_number       1

loop_
  _space_group_symop_operation_xyz
  'x, y, z'

loop_
  _atom_site_type_symbol
  _atom_site_label
  _atom_site_symmetry_multiplicity
  _atom_site_fract_x
  _atom_site_fract_y
  _atom_site_fract_z
  _atom_site_occupancy
  Ca  Ca1       1.0  0.76857  0.43518  0.46991  1.0000
  Ca  Ca2       1.0  0.99079  0.65740  0.35880  1.0000
  Ca  Ca3       1.0  0.87968  0.04629  0.41435  1.0000
  Ca  Ca4       1.0  0.34254  0.17593  0.47453  1.0000
  Ca  Ca5       1.0  0.56477  0.39815  0.36342  1.0000
  Ca  Ca6       1.0  0.45366  0.78704  0.41898  1.0000
  Ca  Ca7       1.0  0.43523  0.60185  0.63658  1.0000
  Ca  Ca8       1.0  0.65746  0.82407  0.52547  1.0000
  Ca  Ca9       1.0  0.54634  0.21296  0.58102  1.0000
  Ca  Ca10      1.0  0.00921  0.34260  0.64120  1.0000
  Ca  Ca11      1.0  0.23143  0.56482  0.53009  1.0000
  Ca  Ca12      1.0  0.12032  0.95371  0.58565  1.0000
  Zn  Zn1       1.0  0.25459  0.49943  0.43779  1.0000
  Zn  Zn2       1.0  0.14348  0.88832  0.49334  1.0000
  Zn  Zn3       1.0  0.36570  0.11054  0.38223  1.0000
  Zn  Zn4       1.0  0.18985  0.94502  0.33999  1.0000
  Zn  Zn5       1.0  0.07874  0.33391  0.39555  1.0000
  Zn  Zn6       1.0  0.96763  0.72280  0.45110  1.0000
  Zn  Zn7       1.0  0.92126  0.66609  0.60445  1.0000
  Zn  Zn8       1.0  0.81015  0.05498  0.66001  1.0000
  Zn  Zn9       1.0  0.03237  0.27720  0.54890  1.0000
  Zn  Zn10      1.0  0.85652  0.11168  0.50666  1.0000
  Zn  Zn11      1.0  0.74541  0.50057  0.56221  1.0000
  Zn  Zn12      1.0  0.63430  0.88946  0.61777  1.0000
