data_image0
_chemical_formula_structural       Si12W6
_chemical_formula_sum              "Si12 W6"
_cell_length_a       4.51026
_cell_length_b       6.39459
_cell_length_c       29.7112
_cell_angle_alpha    87.0244
_cell_angle_beta     85.7794
_cell_angle_gamma    80.1554

_space_group_name_H-M_alt    "P 1"
_space_group_IT_number       1

loop_
  _space_group_symop_operation_xyz
  'x, y, z'

loop_
  _atom_site_type_symbol
  _atom_site_label
  _atom_site_symmetry_multiplicity
  _atom_site_fract_x
  _atom_site_fract_y
  _atom_site_fract_z
  _atom_site_occupancy
  Si  Si1       1.0  0.44657  0.23901  0.49214  1.0000
  Si  Si2       1.0  0.77991  0.09615  0.39690  1.0000
  Si  Si3       1.0  0.11324  0.66758  0.44452  1.0000
  Si  Si4       1.0  0.22009  0.28480  0.41262  1.0000
  Si  Si5       1.0  0.55343  0.85623  0.46024  1.0000
  Si  Si6       1.0  0.88676  0.71337  0.36500  1.0000
  Si  Si7       1.0  0.44657  0.95329  0.63500  1.0000
  Si  Si8       1.0  0.77991  0.81044  0.53976  1.0000
  Si  Si9       1.0  0.11324  0.38186  0.58738  1.0000
  Si  Si10      1.0  0.22009  0.99909  0.55548  1.0000
  Si  Si11      1.0  0.55343  0.57052  0.60310  1.0000
  Si  Si12      1.0  0.88676  0.42766  0.50786  1.0000
  W   W1        1.0  0.00000  0.04762  0.47619  1.0000
  W   W2        1.0  0.33333  0.90476  0.38095  1.0000
  W   W3        1.0  0.66667  0.47619  0.42857  1.0000
  W   W4        1.0  0.00000  0.76190  0.61905  1.0000
  W   W5        1.0  0.33333  0.61905  0.52381  1.0000
  W   W6        1.0  0.66667  0.19048  0.57143  1.0000
