data_image0
_chemical_formula_structural       As10Ga10
_chemical_formula_sum              "As10 Ga10"
_cell_length_a       4.01925
_cell_length_b       12.0578
_cell_length_c       37.9175
_cell_angle_alpha    92.0249
_cell_angle_beta     90
_cell_angle_gamma    90

_space_group_name_H-M_alt    "P 1"
_space_group_IT_number       1

loop_
  _space_group_symop_operation_xyz
  'x, y, z'

loop_
  _atom_site_type_symbol
  _atom_site_label
  _atom_site_symmetry_multiplicity
  _atom_site_fract_x
  _atom_site_fract_y
  _atom_site_fract_z
  _atom_site_occupancy
  As  As1       1.0  0.00000  0.90625  0.50625  1.0000
  As  As2       1.0  0.00000  0.45625  0.45625  1.0000
  As  As3       1.0  0.00000  0.35625  0.55625  1.0000
  As  As4       1.0  0.00000  0.00625  0.40625  1.0000
  As  As5       1.0  0.00000  0.80625  0.60625  1.0000
  As  As6       1.0  0.50000  0.18125  0.48125  1.0000
  As  As7       1.0  0.50000  0.73125  0.43125  1.0000
  As  As8       1.0  0.50000  0.63125  0.53125  1.0000
  As  As9       1.0  0.50000  0.28125  0.38125  1.0000
  As  As10      1.0  0.50000  0.08125  0.58125  1.0000
  Ga  Ga1       1.0  0.00000  0.19375  0.59375  1.0000
  Ga  Ga2       1.0  0.00000  0.74375  0.54375  1.0000
  Ga  Ga3       1.0  0.00000  0.39375  0.39375  1.0000
  Ga  Ga4       1.0  0.00000  0.29375  0.49375  1.0000
  Ga  Ga5       1.0  0.00000  0.84375  0.44375  1.0000
  Ga  Ga6       1.0  0.50000  0.01875  0.51875  1.0000
  Ga  Ga7       1.0  0.50000  0.56875  0.46875  1.0000
  Ga  Ga8       1.0  0.50000  0.46875  0.56875  1.0000
  Ga  Ga9       1.0  0.50000  0.11875  0.41875  1.0000
  Ga  Ga10      1.0  0.50000  0.91875  0.61875  1.0000
