data_image0
_chemical_formula_structural       As12V20
_chemical_formula_sum              "As12 V20"
_cell_length_a       7.0399
_cell_length_b       7.0399
_cell_length_c       30.621
_cell_angle_alpha    95.8068
_cell_angle_beta     95.805
_cell_angle_gamma    96.8918

_space_group_name_H-M_alt    "P 1"
_space_group_IT_number       1

loop_
  _space_group_symop_operation_xyz
  'x, y, z'

loop_
  _atom_site_type_symbol
  _atom_site_label
  _atom_site_symmetry_multiplicity
  _atom_site_fract_x
  _atom_site_fract_y
  _atom_site_fract_z
  _atom_site_occupancy
  As  As1       1.0  0.23329  0.68974  0.59487  1.0000
  As  As2       1.0  0.88058  0.06699  0.61942  1.0000
  As  As3       1.0  0.97656  0.21872  0.52344  1.0000
  As  As4       1.0  0.62386  0.59598  0.54799  1.0000
  As  As5       1.0  0.39286  0.21429  0.60714  1.0000
  As  As6       1.0  0.46429  0.07143  0.53571  1.0000
  As  As7       1.0  0.37614  0.40402  0.45201  1.0000
  As  As8       1.0  0.02344  0.78128  0.47656  1.0000
  As  As9       1.0  0.11942  0.93301  0.38058  1.0000
  As  As10      1.0  0.76671  0.31026  0.40513  1.0000
  As  As11      1.0  0.53571  0.92857  0.46429  1.0000
  As  As12      1.0  0.60714  0.78571  0.39286  1.0000
  V   V1        1.0  0.51750  0.56841  0.63174  1.0000
  V   V2        1.0  0.33965  0.71731  0.51112  1.0000
  V   V3        1.0  0.08465  0.37007  0.61042  1.0000
  V   V4        1.0  0.77250  0.91565  0.53244  1.0000
  V   V5        1.0  0.72239  0.31433  0.58255  1.0000
  V   V6        1.0  0.31178  0.38291  0.53899  1.0000
  V   V7        1.0  0.96429  0.57143  0.53571  1.0000
  V   V8        1.0  0.89286  0.71429  0.60714  1.0000
  V   V9        1.0  0.13476  0.97138  0.56031  1.0000
  V   V10       1.0  0.54536  0.90280  0.60387  1.0000
  V   V11       1.0  0.66035  0.28269  0.48888  1.0000
  V   V12       1.0  0.48250  0.43159  0.36826  1.0000
  V   V13       1.0  0.22750  0.08435  0.46756  1.0000
  V   V14       1.0  0.91535  0.62993  0.38958  1.0000
  V   V15       1.0  0.86524  0.02862  0.43969  1.0000
  V   V16       1.0  0.45464  0.09720  0.39613  1.0000
  V   V17       1.0  0.10714  0.28571  0.39286  1.0000
  V   V18       1.0  0.03571  0.42857  0.46429  1.0000
  V   V19       1.0  0.27761  0.68567  0.41745  1.0000
  V   V20       1.0  0.68822  0.61709  0.46101  1.0000
