data_image0
_chemical_formula_structural       Ga6Ni10Ga6Ni10Ga6Ni10Ga6Ni10
_chemical_formula_sum              "Ga24 Ni40"
_cell_length_a       7.41678
_cell_length_b       7.66244
_cell_length_c       40.4082
_cell_angle_alpha    61.3529
_cell_angle_beta     90
_cell_angle_gamma    90

_space_group_name_H-M_alt    "P 1"
_space_group_IT_number       1

loop_
  _space_group_symop_operation_xyz
  'x, y, z'

loop_
  _atom_site_type_symbol
  _atom_site_label
  _atom_site_symmetry_multiplicity
  _atom_site_fract_x
  _atom_site_fract_y
  _atom_site_fract_z
  _atom_site_occupancy
  Ga  Ga1       1.0  0.00000  0.00000  0.39773  1.0000
  Ga  Ga2       1.0  0.78018  0.50000  0.39773  1.0000
  Ga  Ga3       1.0  0.21982  0.50000  0.39773  1.0000
  Ga  Ga4       1.0  0.50000  0.50000  0.35227  1.0000
  Ga  Ga5       1.0  0.28018  0.00000  0.35227  1.0000
  Ga  Ga6       1.0  0.71982  0.00000  0.35227  1.0000
  Ni  Ni1       1.0  0.00000  0.50000  0.35227  1.0000
  Ni  Ni2       1.0  0.75000  0.75000  0.32955  1.0000
  Ni  Ni3       1.0  0.25000  0.75000  0.32955  1.0000
  Ni  Ni4       1.0  0.00000  0.22764  0.33158  1.0000
  Ni  Ni5       1.0  0.00000  0.77236  0.37297  1.0000
  Ni  Ni6       1.0  0.50000  0.00000  0.39773  1.0000
  Ni  Ni7       1.0  0.25000  0.25000  0.37500  1.0000
  Ni  Ni8       1.0  0.75000  0.25000  0.37500  1.0000
  Ni  Ni9       1.0  0.50000  0.72764  0.37703  1.0000
  Ni  Ni10      1.0  0.50000  0.27236  0.32751  1.0000
  Ga  Ga7       1.0  0.00000  0.00000  0.48864  1.0000
  Ga  Ga8       1.0  0.78018  0.50000  0.48864  1.0000
  Ga  Ga9       1.0  0.21982  0.50000  0.48864  1.0000
  Ga  Ga10      1.0  0.50000  0.50000  0.44318  1.0000
  Ga  Ga11      1.0  0.28018  0.00000  0.44318  1.0000
  Ga  Ga12      1.0  0.71982  0.00000  0.44318  1.0000
  Ni  Ni11      1.0  0.00000  0.50000  0.44318  1.0000
  Ni  Ni12      1.0  0.75000  0.75000  0.42045  1.0000
  Ni  Ni13      1.0  0.25000  0.75000  0.42045  1.0000
  Ni  Ni14      1.0  0.00000  0.22764  0.42249  1.0000
  Ni  Ni15      1.0  0.00000  0.77236  0.46388  1.0000
  Ni  Ni16      1.0  0.50000  0.00000  0.48864  1.0000
  Ni  Ni17      1.0  0.25000  0.25000  0.46591  1.0000
  Ni  Ni18      1.0  0.75000  0.25000  0.46591  1.0000
  Ni  Ni19      1.0  0.50000  0.72764  0.46794  1.0000
  Ni  Ni20      1.0  0.50000  0.27236  0.41842  1.0000
  Ga  Ga13      1.0  0.00000  0.00000  0.57955  1.0000
  Ga  Ga14      1.0  0.78018  0.50000  0.57955  1.0000
  Ga  Ga15      1.0  0.21982  0.50000  0.57955  1.0000
  Ga  Ga16      1.0  0.50000  0.50000  0.53409  1.0000
  Ga  Ga17      1.0  0.28018  0.00000  0.53409  1.0000
  Ga  Ga18      1.0  0.71982  0.00000  0.53409  1.0000
  Ni  Ni21      1.0  0.00000  0.50000  0.53409  1.0000
  Ni  Ni22      1.0  0.75000  0.75000  0.51136  1.0000
  Ni  Ni23      1.0  0.25000  0.75000  0.51136  1.0000
  Ni  Ni24      1.0  0.00000  0.22764  0.51340  1.0000
  Ni  Ni25      1.0  0.00000  0.77236  0.55479  1.0000
  Ni  Ni26      1.0  0.50000  0.00000  0.57955  1.0000
  Ni  Ni27      1.0  0.25000  0.25000  0.55682  1.0000
  Ni  Ni28      1.0  0.75000  0.25000  0.55682  1.0000
  Ni  Ni29      1.0  0.50000  0.72764  0.55885  1.0000
  Ni  Ni30      1.0  0.50000  0.27236  0.50933  1.0000
  Ga  Ga19      1.0  0.00000  0.00000  0.67045  1.0000
  Ga  Ga20      1.0  0.78018  0.50000  0.67045  1.0000
  Ga  Ga21      1.0  0.21982  0.50000  0.67045  1.0000
  Ga  Ga22      1.0  0.50000  0.50000  0.62500  1.0000
  Ga  Ga23      1.0  0.28018  0.00000  0.62500  1.0000
  Ga  Ga24      1.0  0.71982  0.00000  0.62500  1.0000
  Ni  Ni31      1.0  0.00000  0.50000  0.62500  1.0000
  Ni  Ni32      1.0  0.75000  0.75000  0.60227  1.0000
  Ni  Ni33      1.0  0.25000  0.75000  0.60227  1.0000
  Ni  Ni34      1.0  0.00000  0.22764  0.60431  1.0000
  Ni  Ni35      1.0  0.00000  0.77236  0.64569  1.0000
  Ni  Ni36      1.0  0.50000  0.00000  0.67045  1.0000
  Ni  Ni37      1.0  0.25000  0.25000  0.64773  1.0000
  Ni  Ni38      1.0  0.75000  0.25000  0.64773  1.0000
  Ni  Ni39      1.0  0.50000  0.72764  0.64976  1.0000
  Ni  Ni40      1.0  0.50000  0.27236  0.60024  1.0000
