data_image0
_chemical_formula_structural       Mn2Fe2As2Mn2Fe2As2
_chemical_formula_sum              "Mn4 Fe4 As4"
_cell_length_a       3.56831
_cell_length_b       3.56831
_cell_length_c       34.1154
_cell_angle_alpha    90
_cell_angle_beta     90
_cell_angle_gamma    90

_space_group_name_H-M_alt    "P 1"
_space_group_IT_number       1

loop_
  _space_group_symop_operation_xyz
  'x, y, z'

loop_
  _atom_site_type_symbol
  _atom_site_label
  _atom_site_symmetry_multiplicity
  _atom_site_fract_x
  _atom_site_fract_y
  _atom_site_fract_z
  _atom_site_occupancy
  Mn  Mn1       1.0  0.50000  0.00000  0.47034  1.0000
  Mn  Mn2       1.0  0.00000  0.50000  0.36299  1.0000
  Fe  Fe1       1.0  0.50000  0.50000  0.41667  1.0000
  Fe  Fe2       1.0  0.00000  0.00000  0.41667  1.0000
  As  As1       1.0  0.50000  0.00000  0.37478  1.0000
  As  As2       1.0  0.00000  0.50000  0.45855  1.0000
  Mn  Mn3       1.0  0.50000  0.00000  0.63701  1.0000
  Mn  Mn4       1.0  0.00000  0.50000  0.52966  1.0000
  Fe  Fe3       1.0  0.50000  0.50000  0.58333  1.0000
  Fe  Fe4       1.0  0.00000  0.00000  0.58333  1.0000
  As  As3       1.0  0.50000  0.00000  0.54145  1.0000
  As  As4       1.0  0.00000  0.50000  0.62522  1.0000
