data_image0
_chemical_formula_structural       Cu6Pt6
_chemical_formula_sum              "Cu6 Pt6"
_cell_length_a       4.50568
_cell_length_b       4.68879
_cell_length_c       29.7778
_cell_angle_alpha    90
_cell_angle_beta     90
_cell_angle_gamma    110.297

_space_group_name_H-M_alt    "P 1"
_space_group_IT_number       1

loop_
  _space_group_symop_operation_xyz
  'x, y, z'

loop_
  _atom_site_type_symbol
  _atom_site_label
  _atom_site_symmetry_multiplicity
  _atom_site_fract_x
  _atom_site_fract_y
  _atom_site_fract_z
  _atom_site_occupancy
  Cu  Cu1       1.0  0.00000  0.50000  0.61364  1.0000
  Cu  Cu2       1.0  0.00000  0.00000  0.56818  1.0000
  Cu  Cu3       1.0  0.00000  0.50000  0.52273  1.0000
  Cu  Cu4       1.0  0.00000  0.00000  0.47727  1.0000
  Cu  Cu5       1.0  0.00000  0.50000  0.43182  1.0000
  Cu  Cu6       1.0  0.00000  0.00000  0.38636  1.0000
  Pt  Pt1       1.0  0.50000  0.50000  0.56818  1.0000
  Pt  Pt2       1.0  0.50000  0.00000  0.61364  1.0000
  Pt  Pt3       1.0  0.50000  0.50000  0.47727  1.0000
  Pt  Pt4       1.0  0.50000  0.00000  0.52273  1.0000
  Pt  Pt5       1.0  0.50000  0.50000  0.38636  1.0000
  Pt  Pt6       1.0  0.50000  0.00000  0.43182  1.0000
