data_image0
_chemical_formula_structural       Pd3Au9Pd3Au9
_chemical_formula_sum              "Pd6 Au18"
_cell_length_a       4.02668
_cell_length_b       9.00393
_cell_length_c       34.1675
_cell_angle_alpha    71.5651
_cell_angle_beta     90
_cell_angle_gamma    90

_space_group_name_H-M_alt    "P 1"
_space_group_IT_number       1

loop_
  _space_group_symop_operation_xyz
  'x, y, z'

loop_
  _atom_site_type_symbol
  _atom_site_label
  _atom_site_symmetry_multiplicity
  _atom_site_fract_x
  _atom_site_fract_y
  _atom_site_fract_z
  _atom_site_occupancy
  Pd  Pd1       1.0  0.00000  0.66667  0.43056  1.0000
  Pd  Pd2       1.0  0.00000  0.33333  0.37500  1.0000
  Pd  Pd3       1.0  0.00000  0.00000  0.48611  1.0000
  Au  Au1       1.0  0.50000  0.50000  0.40278  1.0000
  Au  Au2       1.0  0.50000  0.16667  0.34722  1.0000
  Au  Au3       1.0  0.50000  0.83333  0.45833  1.0000
  Au  Au4       1.0  0.50000  0.83333  0.37500  1.0000
  Au  Au5       1.0  0.50000  0.50000  0.48611  1.0000
  Au  Au6       1.0  0.50000  0.16667  0.43056  1.0000
  Au  Au7       1.0  0.00000  0.66667  0.34722  1.0000
  Au  Au8       1.0  0.00000  0.33333  0.45833  1.0000
  Au  Au9       1.0  0.00000  0.00000  0.40278  1.0000
  Pd  Pd4       1.0  0.00000  0.66667  0.59722  1.0000
  Pd  Pd5       1.0  0.00000  0.33333  0.54167  1.0000
  Pd  Pd6       1.0  0.00000  0.00000  0.65278  1.0000
  Au  Au10      1.0  0.50000  0.50000  0.56944  1.0000
  Au  Au11      1.0  0.50000  0.16667  0.51389  1.0000
  Au  Au12      1.0  0.50000  0.83333  0.62500  1.0000
  Au  Au13      1.0  0.50000  0.83333  0.54167  1.0000
  Au  Au14      1.0  0.50000  0.50000  0.65278  1.0000
  Au  Au15      1.0  0.50000  0.16667  0.59722  1.0000
  Au  Au16      1.0  0.00000  0.66667  0.51389  1.0000
  Au  Au17      1.0  0.00000  0.33333  0.62500  1.0000
  Au  Au18      1.0  0.00000  0.00000  0.56944  1.0000
