data_image0
_chemical_formula_structural       Al10Cu10
_chemical_formula_sum              "Al10 Cu10"
_cell_length_a       6.31856
_cell_length_b       6.3191
_cell_length_c       30.053
_cell_angle_alpha    87.1258
_cell_angle_beta     87.1235
_cell_angle_gamma    65.7165

_space_group_name_H-M_alt    "P 1"
_space_group_IT_number       1

loop_
  _space_group_symop_operation_xyz
  'x, y, z'

loop_
  _atom_site_type_symbol
  _atom_site_label
  _atom_site_symmetry_multiplicity
  _atom_site_fract_x
  _atom_site_fract_y
  _atom_site_fract_z
  _atom_site_occupancy
  Al  Al1       1.0  0.09375  0.09375  0.59375  1.0000
  Al  Al2       1.0  0.69977  0.08935  0.55078  1.0000
  Al  Al3       1.0  0.36273  0.97315  0.51172  1.0000
  Al  Al4       1.0  0.81779  0.58280  0.57853  1.0000
  Al  Al5       1.0  0.36971  0.60470  0.60897  1.0000
  Al  Al6       1.0  0.96875  0.96875  0.46875  1.0000
  Al  Al7       1.0  0.57477  0.96435  0.42578  1.0000
  Al  Al8       1.0  0.23773  0.84815  0.38672  1.0000
  Al  Al9       1.0  0.69279  0.45780  0.45353  1.0000
  Al  Al10      1.0  0.24471  0.47970  0.48397  1.0000
  Cu  Cu1       1.0  0.53125  0.53125  0.53125  1.0000
  Cu  Cu2       1.0  0.28818  0.32291  0.56349  1.0000
  Cu  Cu3       1.0  0.89932  0.86459  0.62401  1.0000
  Cu  Cu4       1.0  0.09883  0.77301  0.54487  1.0000
  Cu  Cu5       1.0  0.96367  0.28949  0.51763  1.0000
  Cu  Cu6       1.0  0.40625  0.40625  0.40625  1.0000
  Cu  Cu7       1.0  0.16318  0.19791  0.43849  1.0000
  Cu  Cu8       1.0  0.77432  0.73959  0.49901  1.0000
  Cu  Cu9       1.0  0.97383  0.64801  0.41987  1.0000
  Cu  Cu10      1.0  0.83867  0.16449  0.39263  1.0000
