data_image0
_chemical_formula_structural       Sn3Pd9Sn3Pd9
_chemical_formula_sum              "Sn6 Pd18"
_cell_length_a       3.97186
_cell_length_b       8.88134
_cell_length_c       33.7023
_cell_angle_alpha    71.5651
_cell_angle_beta     90
_cell_angle_gamma    90

_space_group_name_H-M_alt    "P 1"
_space_group_IT_number       1

loop_
  _space_group_symop_operation_xyz
  'x, y, z'

loop_
  _atom_site_type_symbol
  _atom_site_label
  _atom_site_symmetry_multiplicity
  _atom_site_fract_x
  _atom_site_fract_y
  _atom_site_fract_z
  _atom_site_occupancy
  Sn  Sn1       1.0  0.00000  0.66667  0.43056  1.0000
  Sn  Sn2       1.0  0.00000  0.33333  0.37500  1.0000
  Sn  Sn3       1.0  0.00000  0.00000  0.48611  1.0000
  Pd  Pd1       1.0  0.50000  0.50000  0.40278  1.0000
  Pd  Pd2       1.0  0.50000  0.16667  0.34722  1.0000
  Pd  Pd3       1.0  0.50000  0.83333  0.45833  1.0000
  Pd  Pd4       1.0  0.00000  0.66667  0.34722  1.0000
  Pd  Pd5       1.0  0.00000  0.33333  0.45833  1.0000
  Pd  Pd6       1.0  0.00000  0.00000  0.40278  1.0000
  Pd  Pd7       1.0  0.50000  0.83333  0.37500  1.0000
  Pd  Pd8       1.0  0.50000  0.50000  0.48611  1.0000
  Pd  Pd9       1.0  0.50000  0.16667  0.43056  1.0000
  Sn  Sn4       1.0  0.00000  0.66667  0.59722  1.0000
  Sn  Sn5       1.0  0.00000  0.33333  0.54167  1.0000
  Sn  Sn6       1.0  0.00000  0.00000  0.65278  1.0000
  Pd  Pd10      1.0  0.50000  0.50000  0.56944  1.0000
  Pd  Pd11      1.0  0.50000  0.16667  0.51389  1.0000
  Pd  Pd12      1.0  0.50000  0.83333  0.62500  1.0000
  Pd  Pd13      1.0  0.00000  0.66667  0.51389  1.0000
  Pd  Pd14      1.0  0.00000  0.33333  0.62500  1.0000
  Pd  Pd15      1.0  0.00000  0.00000  0.56944  1.0000
  Pd  Pd16      1.0  0.50000  0.83333  0.54167  1.0000
  Pd  Pd17      1.0  0.50000  0.50000  0.65278  1.0000
  Pd  Pd18      1.0  0.50000  0.16667  0.59722  1.0000
