data_image0
_chemical_formula_structural       Al6Pd10Al6Pd10
_chemical_formula_sum              "Al12 Pd20"
_cell_length_a       4.02492
_cell_length_b       10.4681
_cell_length_c       32.1684
_cell_angle_alpha    90
_cell_angle_beta     90
_cell_angle_gamma    90

_space_group_name_H-M_alt    "P 1"
_space_group_IT_number       1

loop_
  _space_group_symop_operation_xyz
  'x, y, z'

loop_
  _atom_site_type_symbol
  _atom_site_label
  _atom_site_symmetry_multiplicity
  _atom_site_fract_x
  _atom_site_fract_y
  _atom_site_fract_z
  _atom_site_occupancy
  Al  Al1       1.0  0.00000  0.00000  0.47917  1.0000
  Al  Al2       1.0  0.00000  0.50000  0.39583  1.0000
  Al  Al3       1.0  0.50000  0.64293  0.45234  1.0000
  Al  Al4       1.0  0.50000  0.35707  0.33933  1.0000
  Al  Al5       1.0  0.50000  0.85707  0.36901  1.0000
  Al  Al6       1.0  0.50000  0.14293  0.42266  1.0000
  Pd  Pd1       1.0  0.50000  0.89449  0.44809  1.0000
  Pd  Pd2       1.0  0.50000  0.10551  0.34357  1.0000
  Pd  Pd3       1.0  0.50000  0.60551  0.36476  1.0000
  Pd  Pd4       1.0  0.50000  0.39449  0.42691  1.0000
  Pd  Pd5       1.0  0.00000  0.50000  0.47917  1.0000
  Pd  Pd6       1.0  0.00000  0.00000  0.39583  1.0000
  Pd  Pd7       1.0  0.00000  0.76740  0.49524  1.0000
  Pd  Pd8       1.0  0.00000  0.23260  0.46310  1.0000
  Pd  Pd9       1.0  0.00000  0.73260  0.41190  1.0000
  Pd  Pd10      1.0  0.00000  0.26740  0.37976  1.0000
  Al  Al7       1.0  0.00000  0.00000  0.64583  1.0000
  Al  Al8       1.0  0.00000  0.50000  0.56250  1.0000
  Al  Al9       1.0  0.50000  0.64293  0.61901  1.0000
  Al  Al10      1.0  0.50000  0.35707  0.50599  1.0000
  Al  Al11      1.0  0.50000  0.85707  0.53567  1.0000
  Al  Al12      1.0  0.50000  0.14293  0.58933  1.0000
  Pd  Pd11      1.0  0.50000  0.89449  0.61476  1.0000
  Pd  Pd12      1.0  0.50000  0.10551  0.51024  1.0000
  Pd  Pd13      1.0  0.50000  0.60551  0.53143  1.0000
  Pd  Pd14      1.0  0.50000  0.39449  0.59357  1.0000
  Pd  Pd15      1.0  0.00000  0.50000  0.64583  1.0000
  Pd  Pd16      1.0  0.00000  0.00000  0.56250  1.0000
  Pd  Pd17      1.0  0.00000  0.76740  0.66190  1.0000
  Pd  Pd18      1.0  0.00000  0.23260  0.62976  1.0000
  Pd  Pd19      1.0  0.00000  0.73260  0.57857  1.0000
  Pd  Pd20      1.0  0.00000  0.26740  0.54643  1.0000
