data_image0
_chemical_formula_structural       Cr4Sn4Rh8Cr4Sn4Rh8
_chemical_formula_sum              "Cr8 Sn8 Rh16"
_cell_length_a       5.67822
_cell_length_b       8.19268
_cell_length_c       34.0693
_cell_angle_alpha    110.276
_cell_angle_beta     90
_cell_angle_gamma    69.724

_space_group_name_H-M_alt    "P 1"
_space_group_IT_number       1

loop_
  _space_group_symop_operation_xyz
  'x, y, z'

loop_
  _atom_site_type_symbol
  _atom_site_label
  _atom_site_symmetry_multiplicity
  _atom_site_fract_x
  _atom_site_fract_y
  _atom_site_fract_z
  _atom_site_occupancy
  Cr  Cr1       1.0  0.00000  0.00000  0.48958  1.0000
  Cr  Cr2       1.0  0.50000  0.00000  0.40625  1.0000
  Cr  Cr3       1.0  0.75000  0.50000  0.44792  1.0000
  Cr  Cr4       1.0  0.25000  0.50000  0.36458  1.0000
  Sn  Sn1       1.0  0.00000  0.00000  0.40625  1.0000
  Sn  Sn2       1.0  0.50000  0.00000  0.48958  1.0000
  Sn  Sn3       1.0  0.75000  0.50000  0.36458  1.0000
  Sn  Sn4       1.0  0.25000  0.50000  0.44792  1.0000
  Rh  Rh1       1.0  0.12500  0.25000  0.38542  1.0000
  Rh  Rh2       1.0  0.62500  0.25000  0.46875  1.0000
  Rh  Rh3       1.0  0.62500  0.25000  0.38542  1.0000
  Rh  Rh4       1.0  0.12500  0.25000  0.46875  1.0000
  Rh  Rh5       1.0  0.37500  0.75000  0.42708  1.0000
  Rh  Rh6       1.0  0.87500  0.75000  0.34375  1.0000
  Rh  Rh7       1.0  0.87500  0.75000  0.42708  1.0000
  Rh  Rh8       1.0  0.37500  0.75000  0.34375  1.0000
  Cr  Cr5       1.0  0.00000  0.00000  0.65625  1.0000
  Cr  Cr6       1.0  0.50000  0.00000  0.57292  1.0000
  Cr  Cr7       1.0  0.75000  0.50000  0.61458  1.0000
  Cr  Cr8       1.0  0.25000  0.50000  0.53125  1.0000
  Sn  Sn5       1.0  0.00000  0.00000  0.57292  1.0000
  Sn  Sn6       1.0  0.50000  0.00000  0.65625  1.0000
  Sn  Sn7       1.0  0.75000  0.50000  0.53125  1.0000
  Sn  Sn8       1.0  0.25000  0.50000  0.61458  1.0000
  Rh  Rh9       1.0  0.12500  0.25000  0.55208  1.0000
  Rh  Rh10      1.0  0.62500  0.25000  0.63542  1.0000
  Rh  Rh11      1.0  0.62500  0.25000  0.55208  1.0000
  Rh  Rh12      1.0  0.12500  0.25000  0.63542  1.0000
  Rh  Rh13      1.0  0.37500  0.75000  0.59375  1.0000
  Rh  Rh14      1.0  0.87500  0.75000  0.51042  1.0000
  Rh  Rh15      1.0  0.87500  0.75000  0.59375  1.0000
  Rh  Rh16      1.0  0.37500  0.75000  0.51042  1.0000
