data_image0
_chemical_formula_structural       Fe8Sb16
_chemical_formula_sum              "Fe8 Sb16"
_cell_length_a       6.52185
_cell_length_b       9.07433
_cell_length_c       36.5515
_cell_angle_alpha    75.8449
_cell_angle_beta     68.4958
_cell_angle_gamma    69.5385

_space_group_name_H-M_alt    "P 1"
_space_group_IT_number       1

loop_
  _space_group_symop_operation_xyz
  'x, y, z'

loop_
  _atom_site_type_symbol
  _atom_site_label
  _atom_site_symmetry_multiplicity
  _atom_site_fract_x
  _atom_site_fract_y
  _atom_site_fract_z
  _atom_site_occupancy
  Fe  Fe1       1.0  0.75000  0.75000  0.41667  1.0000
  Fe  Fe2       1.0  0.50000  0.50000  0.47917  1.0000
  Fe  Fe3       1.0  0.00000  0.00000  0.60417  1.0000
  Fe  Fe4       1.0  0.25000  0.25000  0.54167  1.0000
  Fe  Fe5       1.0  0.75000  0.75000  0.54167  1.0000
  Fe  Fe6       1.0  0.50000  0.50000  0.60417  1.0000
  Fe  Fe7       1.0  0.00000  0.00000  0.47917  1.0000
  Fe  Fe8       1.0  0.25000  0.25000  0.41667  1.0000
  Sb  Sb1       1.0  0.71977  0.87847  0.47334  1.0000
  Sb  Sb2       1.0  0.46977  0.62847  0.53584  1.0000
  Sb  Sb3       1.0  0.96977  0.12847  0.41084  1.0000
  Sb  Sb4       1.0  0.21977  0.37847  0.59834  1.0000
  Sb  Sb5       1.0  0.03023  0.87153  0.54749  1.0000
  Sb  Sb6       1.0  0.78023  0.62153  0.60999  1.0000
  Sb  Sb7       1.0  0.28023  0.12153  0.48499  1.0000
  Sb  Sb8       1.0  0.53023  0.37153  0.42249  1.0000
  Sb  Sb9       1.0  0.42505  0.97671  0.57378  1.0000
  Sb  Sb10      1.0  0.17505  0.72671  0.38628  1.0000
  Sb  Sb11      1.0  0.67505  0.22671  0.51128  1.0000
  Sb  Sb12      1.0  0.92505  0.47671  0.44878  1.0000
  Sb  Sb13      1.0  0.07495  0.52329  0.50955  1.0000
  Sb  Sb14      1.0  0.82495  0.27329  0.57205  1.0000
  Sb  Sb15      1.0  0.32495  0.77329  0.44705  1.0000
  Sb  Sb16      1.0  0.57495  0.02329  0.38455  1.0000
