data_image0
_chemical_formula_structural       InAsPd5InAsPd5
_chemical_formula_sum              "In2 As2 Pd10"
_cell_length_a       3.98534
_cell_length_b       6.97393
_cell_length_c       31.8827
_cell_angle_alpha    90
_cell_angle_beta     90
_cell_angle_gamma    90

_space_group_name_H-M_alt    "P 1"
_space_group_IT_number       1

loop_
  _space_group_symop_operation_xyz
  'x, y, z'

loop_
  _atom_site_type_symbol
  _atom_site_label
  _atom_site_symmetry_multiplicity
  _atom_site_fract_x
  _atom_site_fract_y
  _atom_site_fract_z
  _atom_site_occupancy
  In  In1       1.0  0.50000  0.00000  0.40179  1.0000
  As  As1       1.0  0.00000  0.50000  0.46429  1.0000
  Pd  Pd1       1.0  0.00000  0.00000  0.46429  1.0000
  Pd  Pd2       1.0  0.00000  0.71128  0.40179  1.0000
  Pd  Pd3       1.0  0.50000  0.71128  0.46429  1.0000
  Pd  Pd4       1.0  0.00000  0.28872  0.40179  1.0000
  Pd  Pd5       1.0  0.50000  0.28872  0.46429  1.0000
  In  In2       1.0  0.50000  0.00000  0.52679  1.0000
  As  As2       1.0  0.00000  0.50000  0.58929  1.0000
  Pd  Pd6       1.0  0.00000  0.00000  0.58929  1.0000
  Pd  Pd7       1.0  0.00000  0.71128  0.52679  1.0000
  Pd  Pd8       1.0  0.50000  0.71128  0.58929  1.0000
  Pd  Pd9       1.0  0.00000  0.28872  0.52679  1.0000
  Pd  Pd10      1.0  0.50000  0.28872  0.58929  1.0000
