data_image0
_chemical_formula_structural       Fe20H20
_chemical_formula_sum              "Fe20 H20"
_cell_length_a       2.55692
_cell_length_b       7.67077
_cell_length_c       36.2506
_cell_angle_alpha    94.0447
_cell_angle_beta     90
_cell_angle_gamma    90

_space_group_name_H-M_alt    "P 1"
_space_group_IT_number       1

loop_
  _space_group_symop_operation_xyz
  'x, y, z'

loop_
  _atom_site_type_symbol
  _atom_site_label
  _atom_site_symmetry_multiplicity
  _atom_site_fract_x
  _atom_site_fract_y
  _atom_site_fract_z
  _atom_site_occupancy
  Fe  Fe1       1.0  0.00000  0.75833  0.64167  1.0000
  Fe  Fe2       1.0  0.00000  0.19167  0.60833  1.0000
  Fe  Fe3       1.0  0.00000  0.49167  0.50833  1.0000
  Fe  Fe4       1.0  0.00000  0.62500  0.57500  1.0000
  Fe  Fe5       1.0  0.00000  0.05833  0.54167  1.0000
  Fe  Fe6       1.0  0.50000  0.90833  0.59167  1.0000
  Fe  Fe7       1.0  0.50000  0.34167  0.55833  1.0000
  Fe  Fe8       1.0  0.50000  0.47500  0.62500  1.0000
  Fe  Fe9       1.0  0.50000  0.77500  0.52500  1.0000
  Fe  Fe10      1.0  0.50000  0.04167  0.65833  1.0000
  Fe  Fe11      1.0  0.00000  0.92500  0.47500  1.0000
  Fe  Fe12      1.0  0.00000  0.35833  0.44167  1.0000
  Fe  Fe13      1.0  0.00000  0.65833  0.34167  1.0000
  Fe  Fe14      1.0  0.00000  0.79167  0.40833  1.0000
  Fe  Fe15      1.0  0.00000  0.22500  0.37500  1.0000
  Fe  Fe16      1.0  0.50000  0.07500  0.42500  1.0000
  Fe  Fe17      1.0  0.50000  0.50833  0.39167  1.0000
  Fe  Fe18      1.0  0.50000  0.64167  0.45833  1.0000
  Fe  Fe19      1.0  0.50000  0.94167  0.35833  1.0000
  Fe  Fe20      1.0  0.50000  0.20833  0.49167  1.0000
  H   H1        1.0  0.50000  0.69167  0.60833  1.0000
  H   H2        1.0  0.50000  0.12500  0.57500  1.0000
  H   H3        1.0  0.50000  0.25833  0.64167  1.0000
  H   H4        1.0  0.50000  0.55833  0.54167  1.0000
  H   H5        1.0  0.50000  0.99167  0.50833  1.0000
  H   H6        1.0  0.00000  0.84167  0.55833  1.0000
  H   H7        1.0  0.00000  0.27500  0.52500  1.0000
  H   H8        1.0  0.00000  0.40833  0.59167  1.0000
  H   H9        1.0  0.00000  0.54167  0.65833  1.0000
  H   H10       1.0  0.00000  0.97500  0.62500  1.0000
  H   H11       1.0  0.50000  0.85833  0.44167  1.0000
  H   H12       1.0  0.50000  0.29167  0.40833  1.0000
  H   H13       1.0  0.50000  0.42500  0.47500  1.0000
  H   H14       1.0  0.50000  0.72500  0.37500  1.0000
  H   H15       1.0  0.50000  0.15833  0.34167  1.0000
  H   H16       1.0  0.00000  0.00833  0.39167  1.0000
  H   H17       1.0  0.00000  0.44167  0.35833  1.0000
  H   H18       1.0  0.00000  0.57500  0.42500  1.0000
  H   H19       1.0  0.00000  0.70833  0.49167  1.0000
  H   H20       1.0  0.00000  0.14167  0.45833  1.0000
