data_image0
_chemical_formula_structural       Al8Ca12Si8
_chemical_formula_sum              "Al8 Ca12 Si8"
_cell_length_a       6.04615
_cell_length_b       9.67337
_cell_length_c       36.1577
_cell_angle_alpha    88.8564
_cell_angle_beta     86.3385
_cell_angle_gamma    71.7891

_space_group_name_H-M_alt    "P 1"
_space_group_IT_number       1

loop_
  _space_group_symop_operation_xyz
  'x, y, z'

loop_
  _atom_site_type_symbol
  _atom_site_label
  _atom_site_symmetry_multiplicity
  _atom_site_fract_x
  _atom_site_fract_y
  _atom_site_fract_z
  _atom_site_occupancy
  Al  Al1       1.0  0.66981  0.86275  0.64881  1.0000
  Al  Al2       1.0  0.25315  0.86275  0.56548  1.0000
  Al  Al3       1.0  0.53257  0.13725  0.64881  1.0000
  Al  Al4       1.0  0.11590  0.13725  0.56548  1.0000
  Al  Al5       1.0  0.83648  0.86275  0.48214  1.0000
  Al  Al6       1.0  0.41981  0.86275  0.39881  1.0000
  Al  Al7       1.0  0.69923  0.13725  0.48214  1.0000
  Al  Al8       1.0  0.28257  0.13725  0.39881  1.0000
  Ca  Ca1       1.0  0.10119  0.00000  0.64881  1.0000
  Ca  Ca2       1.0  0.68452  0.00000  0.56548  1.0000
  Ca  Ca3       1.0  0.28964  0.37311  0.52381  1.0000
  Ca  Ca4       1.0  0.70630  0.37311  0.60714  1.0000
  Ca  Ca5       1.0  0.07941  0.62689  0.60714  1.0000
  Ca  Ca6       1.0  0.66275  0.62689  0.52381  1.0000
  Ca  Ca7       1.0  0.26786  0.00000  0.48214  1.0000
  Ca  Ca8       1.0  0.85119  0.00000  0.39881  1.0000
  Ca  Ca9       1.0  0.45630  0.37311  0.35714  1.0000
  Ca  Ca10      1.0  0.87297  0.37311  0.44048  1.0000
  Ca  Ca11      1.0  0.24608  0.62689  0.44048  1.0000
  Ca  Ca12      1.0  0.82941  0.62689  0.35714  1.0000
  Si  Si1       1.0  0.12048  0.71142  0.52381  1.0000
  Si  Si2       1.0  0.53715  0.71142  0.60714  1.0000
  Si  Si3       1.0  0.24857  0.28858  0.60714  1.0000
  Si  Si4       1.0  0.83190  0.28858  0.52381  1.0000
  Si  Si5       1.0  0.28715  0.71142  0.35714  1.0000
  Si  Si6       1.0  0.70381  0.71142  0.44048  1.0000
  Si  Si7       1.0  0.41523  0.28858  0.44048  1.0000
  Si  Si8       1.0  0.99857  0.28858  0.35714  1.0000
