data_image0
_chemical_formula_structural       Ga6Ti6
_chemical_formula_sum              "Ga6 Ti6"
_cell_length_a       4.80411
_cell_length_b       5.5492
_cell_length_c       28.4557
_cell_angle_alpha    87.1542
_cell_angle_beta     89.9473
_cell_angle_gamma    73.3212

_space_group_name_H-M_alt    "P 1"
_space_group_IT_number       1

loop_
  _space_group_symop_operation_xyz
  'x, y, z'

loop_
  _atom_site_type_symbol
  _atom_site_label
  _atom_site_symmetry_multiplicity
  _atom_site_fract_x
  _atom_site_fract_y
  _atom_site_fract_z
  _atom_site_occupancy
  Ga  Ga1       1.0  0.56250  0.47917  0.52083  1.0000
  Ga  Ga2       1.0  0.47917  0.72917  0.60417  1.0000
  Ga  Ga3       1.0  0.02083  0.10417  0.56250  1.0000
  Ga  Ga4       1.0  0.18750  0.60417  0.39583  1.0000
  Ga  Ga5       1.0  0.10417  0.85417  0.47917  1.0000
  Ga  Ga6       1.0  0.64583  0.22917  0.43750  1.0000
  Ti  Ti1       1.0  0.02083  0.60417  0.56250  1.0000
  Ti  Ti2       1.0  0.56250  0.97917  0.52083  1.0000
  Ti  Ti3       1.0  0.47917  0.22917  0.60417  1.0000
  Ti  Ti4       1.0  0.64583  0.72917  0.43750  1.0000
  Ti  Ti5       1.0  0.18750  0.10417  0.39583  1.0000
  Ti  Ti6       1.0  0.10417  0.35417  0.47917  1.0000
