data_image0
_chemical_formula_structural       Cu12Ge4Cu12Ge4
_chemical_formula_sum              "Cu24 Ge8"
_cell_length_a       5.24415
_cell_length_b       6.13227
_cell_length_c       36.7936
_cell_angle_alpha    85.7687
_cell_angle_beta     90
_cell_angle_gamma    90

_space_group_name_H-M_alt    "P 1"
_space_group_IT_number       1

loop_
  _space_group_symop_operation_xyz
  'x, y, z'

loop_
  _atom_site_type_symbol
  _atom_site_label
  _atom_site_symmetry_multiplicity
  _atom_site_fract_x
  _atom_site_fract_y
  _atom_site_fract_z
  _atom_site_occupancy
  Cu  Cu1       1.0  0.50000  0.41583  0.36097  1.0000
  Cu  Cu2       1.0  0.50000  0.91583  0.44430  1.0000
  Cu  Cu3       1.0  0.00000  0.33417  0.43070  1.0000
  Cu  Cu4       1.0  0.00000  0.83417  0.34736  1.0000
  Cu  Cu5       1.0  0.75100  0.58252  0.47209  1.0000
  Cu  Cu6       1.0  0.75100  0.08252  0.38875  1.0000
  Cu  Cu7       1.0  0.24900  0.58252  0.47209  1.0000
  Cu  Cu8       1.0  0.24900  0.08252  0.38875  1.0000
  Cu  Cu9       1.0  0.74900  0.16748  0.48625  1.0000
  Cu  Cu10      1.0  0.74900  0.66748  0.40291  1.0000
  Cu  Cu11      1.0  0.25100  0.16748  0.48625  1.0000
  Cu  Cu12      1.0  0.25100  0.66748  0.40291  1.0000
  Ge  Ge1       1.0  0.50000  0.33675  0.43112  1.0000
  Ge  Ge2       1.0  0.50000  0.83675  0.34779  1.0000
  Ge  Ge3       1.0  0.00000  0.41325  0.36054  1.0000
  Ge  Ge4       1.0  0.00000  0.91325  0.44388  1.0000
  Cu  Cu13      1.0  0.50000  0.41583  0.52764  1.0000
  Cu  Cu14      1.0  0.50000  0.91583  0.61097  1.0000
  Cu  Cu15      1.0  0.00000  0.33417  0.59736  1.0000
  Cu  Cu16      1.0  0.00000  0.83417  0.51403  1.0000
  Cu  Cu17      1.0  0.75100  0.58252  0.63875  1.0000
  Cu  Cu18      1.0  0.75100  0.08252  0.55542  1.0000
  Cu  Cu19      1.0  0.24900  0.58252  0.63875  1.0000
  Cu  Cu20      1.0  0.24900  0.08252  0.55542  1.0000
  Cu  Cu21      1.0  0.74900  0.16748  0.65291  1.0000
  Cu  Cu22      1.0  0.74900  0.66748  0.56958  1.0000
  Cu  Cu23      1.0  0.25100  0.16748  0.65291  1.0000
  Cu  Cu24      1.0  0.25100  0.66748  0.56958  1.0000
  Ge  Ge5       1.0  0.50000  0.33675  0.59779  1.0000
  Ge  Ge6       1.0  0.50000  0.83675  0.51446  1.0000
  Ge  Ge7       1.0  0.00000  0.41325  0.52721  1.0000
  Ge  Ge8       1.0  0.00000  0.91325  0.61054  1.0000
