data_image0
_chemical_formula_structural       Nb18Rh18
_chemical_formula_sum              "Nb18 Rh18"
_cell_length_a       7.44694
_cell_length_b       7.54186
_cell_length_c       33.1496
_cell_angle_alpha    84.896
_cell_angle_beta     87.6218
_cell_angle_gamma    64.3582

_space_group_name_H-M_alt    "P 1"
_space_group_IT_number       1

loop_
  _space_group_symop_operation_xyz
  'x, y, z'

loop_
  _atom_site_type_symbol
  _atom_site_label
  _atom_site_symmetry_multiplicity
  _atom_site_fract_x
  _atom_site_fract_y
  _atom_site_fract_z
  _atom_site_occupancy
  Nb  Nb1       1.0  0.59700  0.16427  0.59758  1.0000
  Nb  Nb2       1.0  0.87478  0.16427  0.65313  1.0000
  Nb  Nb3       1.0  0.31923  0.16427  0.54202  1.0000
  Nb  Nb4       1.0  0.61574  0.50000  0.55093  1.0000
  Nb  Nb5       1.0  0.89352  0.50000  0.60648  1.0000
  Nb  Nb6       1.0  0.17130  0.50000  0.66204  1.0000
  Nb  Nb7       1.0  0.19003  0.83573  0.61539  1.0000
  Nb  Nb8       1.0  0.63448  0.83573  0.50428  1.0000
  Nb  Nb9       1.0  0.91225  0.83573  0.55983  1.0000
  Nb  Nb10      1.0  0.76367  0.16427  0.43091  1.0000
  Nb  Nb11      1.0  0.04145  0.16427  0.48647  1.0000
  Nb  Nb12      1.0  0.48589  0.16427  0.37535  1.0000
  Nb  Nb13      1.0  0.78241  0.50000  0.38426  1.0000
  Nb  Nb14      1.0  0.06019  0.50000  0.43981  1.0000
  Nb  Nb15      1.0  0.33796  0.50000  0.49537  1.0000
  Nb  Nb16      1.0  0.35670  0.83573  0.44872  1.0000
  Nb  Nb17      1.0  0.80114  0.83573  0.33761  1.0000
  Nb  Nb18      1.0  0.07892  0.83573  0.39316  1.0000
  Rh  Rh1       1.0  0.53241  0.50000  0.63426  1.0000
  Rh  Rh2       1.0  0.97685  0.50000  0.52315  1.0000
  Rh  Rh3       1.0  0.25463  0.50000  0.57870  1.0000
  Rh  Rh4       1.0  0.68322  0.16777  0.51308  1.0000
  Rh  Rh5       1.0  0.96100  0.16777  0.56864  1.0000
  Rh  Rh6       1.0  0.23878  0.16777  0.62420  1.0000
  Rh  Rh7       1.0  0.54826  0.83223  0.58877  1.0000
  Rh  Rh8       1.0  0.82604  0.83223  0.64432  1.0000
  Rh  Rh9       1.0  0.27048  0.83223  0.53321  1.0000
  Rh  Rh10      1.0  0.69907  0.50000  0.46759  1.0000
  Rh  Rh11      1.0  0.14352  0.50000  0.35648  1.0000
  Rh  Rh12      1.0  0.42130  0.50000  0.41204  1.0000
  Rh  Rh13      1.0  0.84989  0.16777  0.34642  1.0000
  Rh  Rh14      1.0  0.12767  0.16777  0.40197  1.0000
  Rh  Rh15      1.0  0.40544  0.16777  0.45753  1.0000
  Rh  Rh16      1.0  0.71493  0.83223  0.42210  1.0000
  Rh  Rh17      1.0  0.99270  0.83223  0.47766  1.0000
  Rh  Rh18      1.0  0.43715  0.83223  0.36655  1.0000
