data_image0
_chemical_formula_structural       Ag8In16
_chemical_formula_sum              "Ag8 In16"
_cell_length_a       5.57023
_cell_length_b       9.56545
_cell_length_c       39.2431
_cell_angle_alpha    90
_cell_angle_beta     91.6615
_cell_angle_gamma    90

_space_group_name_H-M_alt    "P 1"
_space_group_IT_number       1

loop_
  _space_group_symop_operation_xyz
  'x, y, z'

loop_
  _atom_site_type_symbol
  _atom_site_label
  _atom_site_symmetry_multiplicity
  _atom_site_fract_x
  _atom_site_fract_y
  _atom_site_fract_z
  _atom_site_occupancy
  Ag  Ag1       1.0  0.87500  0.50000  0.53125  1.0000
  Ag  Ag2       1.0  0.62500  0.00000  0.59375  1.0000
  Ag  Ag3       1.0  0.12500  0.00000  0.46875  1.0000
  Ag  Ag4       1.0  0.37500  0.50000  0.40625  1.0000
  Ag  Ag5       1.0  0.12500  0.50000  0.46875  1.0000
  Ag  Ag6       1.0  0.87500  0.00000  0.53125  1.0000
  Ag  Ag7       1.0  0.37500  0.00000  0.40625  1.0000
  Ag  Ag8       1.0  0.62500  0.50000  0.59375  1.0000
  In  In1       1.0  0.89176  0.75000  0.57431  1.0000
  In  In2       1.0  0.64176  0.25000  0.38681  1.0000
  In  In3       1.0  0.14176  0.25000  0.51181  1.0000
  In  In4       1.0  0.39176  0.75000  0.44931  1.0000
  In  In5       1.0  0.37500  0.59451  0.53125  1.0000
  In  In6       1.0  0.12500  0.09451  0.59375  1.0000
  In  In7       1.0  0.62500  0.09451  0.46875  1.0000
  In  In8       1.0  0.87500  0.59451  0.40625  1.0000
  In  In9       1.0  0.62500  0.40549  0.46875  1.0000
  In  In10      1.0  0.37500  0.90549  0.53125  1.0000
  In  In11      1.0  0.87500  0.90549  0.40625  1.0000
  In  In12      1.0  0.12500  0.40549  0.59375  1.0000
  In  In13      1.0  0.85824  0.75000  0.48819  1.0000
  In  In14      1.0  0.60824  0.25000  0.55069  1.0000
  In  In15      1.0  0.10824  0.25000  0.42569  1.0000
  In  In16      1.0  0.35824  0.75000  0.61319  1.0000
