data_image0
_chemical_formula_structural       Ca4As4Au4Ca4As4Au4
_chemical_formula_sum              "Ca8 As8 Au8"
_cell_length_a       7.88941
_cell_length_b       7.58521
_cell_length_c       30.6553
_cell_angle_alpha    90
_cell_angle_beta     90
_cell_angle_gamma    90

_space_group_name_H-M_alt    "P 1"
_space_group_IT_number       1

loop_
  _space_group_symop_operation_xyz
  'x, y, z'

loop_
  _atom_site_type_symbol
  _atom_site_label
  _atom_site_symmetry_multiplicity
  _atom_site_fract_x
  _atom_site_fract_y
  _atom_site_fract_z
  _atom_site_occupancy
  Ca  Ca1       1.0  0.50000  0.50000  0.39286  1.0000
  Ca  Ca2       1.0  0.50000  0.00000  0.46429  1.0000
  Ca  Ca3       1.0  0.00000  0.50000  0.39286  1.0000
  Ca  Ca4       1.0  0.00000  0.00000  0.46429  1.0000
  As  As1       1.0  0.75000  0.33333  0.46429  1.0000
  As  As2       1.0  0.75000  0.83333  0.39286  1.0000
  As  As3       1.0  0.25000  0.66667  0.46429  1.0000
  As  As4       1.0  0.25000  0.16667  0.39286  1.0000
  Au  Au1       1.0  0.75000  0.66667  0.46429  1.0000
  Au  Au2       1.0  0.75000  0.16667  0.39286  1.0000
  Au  Au3       1.0  0.25000  0.33333  0.46429  1.0000
  Au  Au4       1.0  0.25000  0.83333  0.39286  1.0000
  Ca  Ca5       1.0  0.50000  0.50000  0.53571  1.0000
  Ca  Ca6       1.0  0.50000  0.00000  0.60714  1.0000
  Ca  Ca7       1.0  0.00000  0.50000  0.53571  1.0000
  Ca  Ca8       1.0  0.00000  0.00000  0.60714  1.0000
  As  As5       1.0  0.75000  0.33333  0.60714  1.0000
  As  As6       1.0  0.75000  0.83333  0.53571  1.0000
  As  As7       1.0  0.25000  0.66667  0.60714  1.0000
  As  As8       1.0  0.25000  0.16667  0.53571  1.0000
  Au  Au5       1.0  0.75000  0.66667  0.60714  1.0000
  Au  Au6       1.0  0.75000  0.16667  0.53571  1.0000
  Au  Au7       1.0  0.25000  0.33333  0.60714  1.0000
  Au  Au8       1.0  0.25000  0.83333  0.53571  1.0000
