data_image0
_chemical_formula_structural       Co4As4Co4As4Co4As4Co4As4
_chemical_formula_sum              "Co16 As16"
_cell_length_a       3.50902
_cell_length_b       10.526
_cell_length_c       38.5992
_cell_angle_alpha    109.473
_cell_angle_beta     120
_cell_angle_gamma    80.4049

_space_group_name_H-M_alt    "P 1"
_space_group_IT_number       1

loop_
  _space_group_symop_operation_xyz
  'x, y, z'

loop_
  _atom_site_type_symbol
  _atom_site_label
  _atom_site_symmetry_multiplicity
  _atom_site_fract_x
  _atom_site_fract_y
  _atom_site_fract_z
  _atom_site_occupancy
  Co  Co1       1.0  0.00000  0.25000  0.32386  1.0000
  Co  Co2       1.0  0.00000  0.75000  0.36932  1.0000
  Co  Co3       1.0  0.00000  0.00000  0.39205  1.0000
  Co  Co4       1.0  0.00000  0.50000  0.34659  1.0000
  As  As1       1.0  0.33333  0.37500  0.39583  1.0000
  As  As2       1.0  0.33333  0.87500  0.35038  1.0000
  As  As3       1.0  0.66667  0.12500  0.34280  1.0000
  As  As4       1.0  0.66667  0.62500  0.38826  1.0000
  Co  Co5       1.0  0.00000  0.25000  0.41477  1.0000
  Co  Co6       1.0  0.00000  0.75000  0.46023  1.0000
  Co  Co7       1.0  0.00000  0.00000  0.48295  1.0000
  Co  Co8       1.0  0.00000  0.50000  0.43750  1.0000
  As  As5       1.0  0.33333  0.37500  0.48674  1.0000
  As  As6       1.0  0.33333  0.87500  0.44129  1.0000
  As  As7       1.0  0.66667  0.12500  0.43371  1.0000
  As  As8       1.0  0.66667  0.62500  0.47917  1.0000
  Co  Co9       1.0  0.00000  0.25000  0.50568  1.0000
  Co  Co10      1.0  0.00000  0.75000  0.55114  1.0000
  Co  Co11      1.0  0.00000  0.00000  0.57386  1.0000
  Co  Co12      1.0  0.00000  0.50000  0.52841  1.0000
  As  As9       1.0  0.33333  0.37500  0.57765  1.0000
  As  As10      1.0  0.33333  0.87500  0.53220  1.0000
  As  As11      1.0  0.66667  0.12500  0.52462  1.0000
  As  As12      1.0  0.66667  0.62500  0.57008  1.0000
  Co  Co13      1.0  0.00000  0.25000  0.59659  1.0000
  Co  Co14      1.0  0.00000  0.75000  0.64205  1.0000
  Co  Co15      1.0  0.00000  0.00000  0.66477  1.0000
  Co  Co16      1.0  0.00000  0.50000  0.61932  1.0000
  As  As13      1.0  0.33333  0.37500  0.66856  1.0000
  As  As14      1.0  0.33333  0.87500  0.62311  1.0000
  As  As15      1.0  0.66667  0.12500  0.61553  1.0000
  As  As16      1.0  0.66667  0.62500  0.66098  1.0000
