data_image0
_chemical_formula_structural       Ca4Si8Au8Ca4Si8Au8
_chemical_formula_sum              "Ca8 Si16 Au16"
_cell_length_a       6.09779
_cell_length_b       10.8411
_cell_length_c       36.5868
_cell_angle_alpha    106.334
_cell_angle_beta     90
_cell_angle_gamma    73.6661

_space_group_name_H-M_alt    "P 1"
_space_group_IT_number       1

loop_
  _space_group_symop_operation_xyz
  'x, y, z'

loop_
  _atom_site_type_symbol
  _atom_site_label
  _atom_site_symmetry_multiplicity
  _atom_site_fract_x
  _atom_site_fract_y
  _atom_site_fract_z
  _atom_site_occupancy
  Ca  Ca1       1.0  0.00000  0.00000  0.48750  1.0000
  Ca  Ca2       1.0  0.50000  0.00000  0.40417  1.0000
  Ca  Ca3       1.0  0.75000  0.50000  0.44583  1.0000
  Ca  Ca4       1.0  0.25000  0.50000  0.36250  1.0000
  Si  Si1       1.0  0.94251  0.11498  0.41375  1.0000
  Si  Si2       1.0  0.44251  0.11498  0.49708  1.0000
  Si  Si3       1.0  0.80749  0.38502  0.35292  1.0000
  Si  Si4       1.0  0.30749  0.38502  0.43625  1.0000
  Si  Si5       1.0  0.69251  0.61498  0.37208  1.0000
  Si  Si6       1.0  0.19251  0.61498  0.45541  1.0000
  Si  Si7       1.0  0.55749  0.88502  0.47792  1.0000
  Si  Si8       1.0  0.05749  0.88502  0.39459  1.0000
  Au  Au1       1.0  0.12500  0.25000  0.38333  1.0000
  Au  Au2       1.0  0.62500  0.25000  0.46667  1.0000
  Au  Au3       1.0  0.62500  0.25000  0.38333  1.0000
  Au  Au4       1.0  0.12500  0.25000  0.46667  1.0000
  Au  Au5       1.0  0.37500  0.75000  0.42500  1.0000
  Au  Au6       1.0  0.87500  0.75000  0.34167  1.0000
  Au  Au7       1.0  0.87500  0.75000  0.42500  1.0000
  Au  Au8       1.0  0.37500  0.75000  0.34167  1.0000
  Ca  Ca5       1.0  0.00000  0.00000  0.65417  1.0000
  Ca  Ca6       1.0  0.50000  0.00000  0.57083  1.0000
  Ca  Ca7       1.0  0.75000  0.50000  0.61250  1.0000
  Ca  Ca8       1.0  0.25000  0.50000  0.52917  1.0000
  Si  Si9       1.0  0.94251  0.11498  0.58041  1.0000
  Si  Si10      1.0  0.44251  0.11498  0.66375  1.0000
  Si  Si11      1.0  0.80749  0.38502  0.51959  1.0000
  Si  Si12      1.0  0.30749  0.38502  0.60292  1.0000
  Si  Si13      1.0  0.69251  0.61498  0.53875  1.0000
  Si  Si14      1.0  0.19251  0.61498  0.62208  1.0000
  Si  Si15      1.0  0.55749  0.88502  0.64459  1.0000
  Si  Si16      1.0  0.05749  0.88502  0.56125  1.0000
  Au  Au9       1.0  0.12500  0.25000  0.55000  1.0000
  Au  Au10      1.0  0.62500  0.25000  0.63333  1.0000
  Au  Au11      1.0  0.62500  0.25000  0.55000  1.0000
  Au  Au12      1.0  0.12500  0.25000  0.63333  1.0000
  Au  Au13      1.0  0.37500  0.75000  0.59167  1.0000
  Au  Au14      1.0  0.87500  0.75000  0.50833  1.0000
  Au  Au15      1.0  0.87500  0.75000  0.59167  1.0000
  Au  Au16      1.0  0.37500  0.75000  0.50833  1.0000
