data_image0
_chemical_formula_structural       NbAu2NbAu2
_chemical_formula_sum              "Nb2 Au4"
_cell_length_a       4.63086
_cell_length_b       2.72697
_cell_length_c       32.416
_cell_angle_alpha    90
_cell_angle_beta     120
_cell_angle_gamma    90

_space_group_name_H-M_alt    "P 1"
_space_group_IT_number       1

loop_
  _space_group_symop_operation_xyz
  'x, y, z'

loop_
  _atom_site_type_symbol
  _atom_site_label
  _atom_site_symmetry_multiplicity
  _atom_site_fract_x
  _atom_site_fract_y
  _atom_site_fract_z
  _atom_site_occupancy
  Nb  Nb1       1.0  0.00000  0.00000  0.42857  1.0000
  Au  Au1       1.0  0.33333  0.50000  0.38095  1.0000
  Au  Au2       1.0  0.66667  0.50000  0.47619  1.0000
  Nb  Nb2       1.0  0.00000  0.00000  0.57143  1.0000
  Au  Au3       1.0  0.33333  0.50000  0.52381  1.0000
  Au  Au4       1.0  0.66667  0.50000  0.61905  1.0000
