data_image0
_chemical_formula_structural       Al12W6Al12W6
_chemical_formula_sum              "Al24 W12"
_cell_length_a       8.36301
_cell_length_b       8.27869
_cell_length_c       33.7987
_cell_angle_alpha    106.955
_cell_angle_beta     90
_cell_angle_gamma    59.6625

_space_group_name_H-M_alt    "P 1"
_space_group_IT_number       1

loop_
  _space_group_symop_operation_xyz
  'x, y, z'

loop_
  _atom_site_type_symbol
  _atom_site_label
  _atom_site_symmetry_multiplicity
  _atom_site_fract_x
  _atom_site_fract_y
  _atom_site_fract_z
  _atom_site_occupancy
  Al  Al1       1.0  0.24812  0.16667  0.39286  1.0000
  Al  Al2       1.0  0.74812  0.16667  0.46429  1.0000
  Al  Al3       1.0  0.49906  0.83333  0.40516  1.0000
  Al  Al4       1.0  0.99906  0.83333  0.47659  1.0000
  Al  Al5       1.0  0.66573  0.50000  0.45198  1.0000
  Al  Al6       1.0  0.16573  0.50000  0.38055  1.0000
  Al  Al7       1.0  0.58521  0.16667  0.39286  1.0000
  Al  Al8       1.0  0.08521  0.16667  0.46429  1.0000
  Al  Al9       1.0  0.66761  0.83333  0.47579  1.0000
  Al  Al10      1.0  0.16761  0.83333  0.40436  1.0000
  Al  Al11      1.0  0.83427  0.50000  0.38135  1.0000
  Al  Al12      1.0  0.33427  0.50000  0.45278  1.0000
  W   W1        1.0  0.50000  0.50000  0.38095  1.0000
  W   W2        1.0  0.00000  0.50000  0.45238  1.0000
  W   W3        1.0  0.83333  0.83333  0.40476  1.0000
  W   W4        1.0  0.33333  0.83333  0.47619  1.0000
  W   W5        1.0  0.91667  0.16667  0.39286  1.0000
  W   W6        1.0  0.41667  0.16667  0.46429  1.0000
  Al  Al13      1.0  0.24812  0.16667  0.53571  1.0000
  Al  Al14      1.0  0.74812  0.16667  0.60714  1.0000
  Al  Al15      1.0  0.49906  0.83333  0.54802  1.0000
  Al  Al16      1.0  0.99906  0.83333  0.61945  1.0000
  Al  Al17      1.0  0.66573  0.50000  0.59484  1.0000
  Al  Al18      1.0  0.16573  0.50000  0.52341  1.0000
  Al  Al19      1.0  0.58521  0.16667  0.53571  1.0000
  Al  Al20      1.0  0.08521  0.16667  0.60714  1.0000
  Al  Al21      1.0  0.66761  0.83333  0.61865  1.0000
  Al  Al22      1.0  0.16761  0.83333  0.54722  1.0000
  Al  Al23      1.0  0.83427  0.50000  0.52421  1.0000
  Al  Al24      1.0  0.33427  0.50000  0.59564  1.0000
  W   W7        1.0  0.50000  0.50000  0.52381  1.0000
  W   W8        1.0  0.00000  0.50000  0.59524  1.0000
  W   W9        1.0  0.83333  0.83333  0.54762  1.0000
  W   W10       1.0  0.33333  0.83333  0.61905  1.0000
  W   W11       1.0  0.91667  0.16667  0.53571  1.0000
  W   W12       1.0  0.41667  0.16667  0.60714  1.0000
