data_image0
_chemical_formula_structural       Si8Ir8Si8Ir8Si8Ir8
_chemical_formula_sum              "Si24 Ir24"
_cell_length_a       11.5439
_cell_length_b       7.08106
_cell_length_c       35.2141
_cell_angle_alpha    116.878
_cell_angle_beta     106.1
_cell_angle_gamma    82.7978

_space_group_name_H-M_alt    "P 1"
_space_group_IT_number       1

loop_
  _space_group_symop_operation_xyz
  'x, y, z'

loop_
  _atom_site_type_symbol
  _atom_site_label
  _atom_site_symmetry_multiplicity
  _atom_site_fract_x
  _atom_site_fract_y
  _atom_site_fract_z
  _atom_site_occupancy
  Si  Si1       1.0  0.34145  0.06049  0.37745  1.0000
  Si  Si2       1.0  0.84145  0.06049  0.42290  1.0000
  Si  Si3       1.0  0.15855  0.93951  0.39528  1.0000
  Si  Si4       1.0  0.65855  0.93951  0.44073  1.0000
  Si  Si5       1.0  0.09145  0.43951  0.38918  1.0000
  Si  Si6       1.0  0.59145  0.43951  0.43463  1.0000
  Si  Si7       1.0  0.40855  0.56049  0.38355  1.0000
  Si  Si8       1.0  0.90855  0.56049  0.42900  1.0000
  Ir  Ir1       1.0  0.25083  0.70548  0.42785  1.0000
  Ir  Ir2       1.0  0.75083  0.70548  0.38239  1.0000
  Ir  Ir3       1.0  0.24917  0.29452  0.43579  1.0000
  Ir  Ir4       1.0  0.74917  0.29452  0.39034  1.0000
  Ir  Ir5       1.0  0.00083  0.79452  0.41321  1.0000
  Ir  Ir6       1.0  0.50083  0.79452  0.36776  1.0000
  Ir  Ir7       1.0  0.49917  0.20548  0.45042  1.0000
  Ir  Ir8       1.0  0.99917  0.20548  0.40497  1.0000
  Si  Si9       1.0  0.34145  0.06049  0.46836  1.0000
  Si  Si10      1.0  0.84145  0.06049  0.51381  1.0000
  Si  Si11      1.0  0.15855  0.93951  0.48619  1.0000
  Si  Si12      1.0  0.65855  0.93951  0.53164  1.0000
  Si  Si13      1.0  0.09145  0.43951  0.48009  1.0000
  Si  Si14      1.0  0.59145  0.43951  0.52554  1.0000
  Si  Si15      1.0  0.40855  0.56049  0.47446  1.0000
  Si  Si16      1.0  0.90855  0.56049  0.51991  1.0000
  Ir  Ir9       1.0  0.25083  0.70548  0.51875  1.0000
  Ir  Ir10      1.0  0.75083  0.70548  0.47330  1.0000
  Ir  Ir11      1.0  0.24917  0.29452  0.52670  1.0000
  Ir  Ir12      1.0  0.74917  0.29452  0.48125  1.0000
  Ir  Ir13      1.0  0.00083  0.79452  0.50412  1.0000
  Ir  Ir14      1.0  0.50083  0.79452  0.45867  1.0000
  Ir  Ir15      1.0  0.49917  0.20548  0.54133  1.0000
  Ir  Ir16      1.0  0.99917  0.20548  0.49588  1.0000
  Si  Si17      1.0  0.34145  0.06049  0.55927  1.0000
  Si  Si18      1.0  0.84145  0.06049  0.60472  1.0000
  Si  Si19      1.0  0.15855  0.93951  0.57710  1.0000
  Si  Si20      1.0  0.65855  0.93951  0.62255  1.0000
  Si  Si21      1.0  0.09145  0.43951  0.57100  1.0000
  Si  Si22      1.0  0.59145  0.43951  0.61645  1.0000
  Si  Si23      1.0  0.40855  0.56049  0.56537  1.0000
  Si  Si24      1.0  0.90855  0.56049  0.61082  1.0000
  Ir  Ir17      1.0  0.25083  0.70548  0.60966  1.0000
  Ir  Ir18      1.0  0.75083  0.70548  0.56421  1.0000
  Ir  Ir19      1.0  0.24917  0.29452  0.61761  1.0000
  Ir  Ir20      1.0  0.74917  0.29452  0.57215  1.0000
  Ir  Ir21      1.0  0.00083  0.79452  0.59503  1.0000
  Ir  Ir22      1.0  0.50083  0.79452  0.54958  1.0000
  Ir  Ir23      1.0  0.49917  0.20548  0.63224  1.0000
  Ir  Ir24      1.0  0.99917  0.20548  0.58679  1.0000
