data_image0
_chemical_formula_structural       Al9Pd6Al9Pd6
_chemical_formula_sum              "Al18 Pd12"
_cell_length_a       4.19782
_cell_length_b       9.85845
_cell_length_c       39.9457
_cell_angle_alpha    97.4773
_cell_angle_beta     108.377
_cell_angle_gamma    64.7981

_space_group_name_H-M_alt    "P 1"
_space_group_IT_number       1

loop_
  _space_group_symop_operation_xyz
  'x, y, z'

loop_
  _atom_site_type_symbol
  _atom_site_label
  _atom_site_symmetry_multiplicity
  _atom_site_fract_x
  _atom_site_fract_y
  _atom_site_fract_z
  _atom_site_occupancy
  Al  Al1       1.0  0.00000  0.66667  0.36111  1.0000
  Al  Al2       1.0  0.00000  0.00000  0.47222  1.0000
  Al  Al3       1.0  0.00000  0.33333  0.41667  1.0000
  Al  Al4       1.0  0.66667  0.77057  0.45130  1.0000
  Al  Al5       1.0  0.66667  0.10390  0.39574  1.0000
  Al  Al6       1.0  0.66667  0.43723  0.34019  1.0000
  Al  Al7       1.0  0.33333  0.56277  0.43759  1.0000
  Al  Al8       1.0  0.33333  0.89610  0.38203  1.0000
  Al  Al9       1.0  0.33333  0.22943  0.49314  1.0000
  Pd  Pd1       1.0  0.66667  0.60823  0.39719  1.0000
  Pd  Pd2       1.0  0.66667  0.94156  0.34163  1.0000
  Pd  Pd3       1.0  0.66667  0.27489  0.45274  1.0000
  Pd  Pd4       1.0  0.33333  0.72511  0.49170  1.0000
  Pd  Pd5       1.0  0.33333  0.05844  0.43615  1.0000
  Pd  Pd6       1.0  0.33333  0.39177  0.38059  1.0000
  Al  Al10      1.0  0.00000  0.66667  0.52778  1.0000
  Al  Al11      1.0  0.00000  0.00000  0.63889  1.0000
  Al  Al12      1.0  0.00000  0.33333  0.58333  1.0000
  Al  Al13      1.0  0.66667  0.77057  0.61797  1.0000
  Al  Al14      1.0  0.66667  0.10390  0.56241  1.0000
  Al  Al15      1.0  0.66667  0.43723  0.50686  1.0000
  Al  Al16      1.0  0.33333  0.56277  0.60426  1.0000
  Al  Al17      1.0  0.33333  0.89610  0.54870  1.0000
  Al  Al18      1.0  0.33333  0.22943  0.65981  1.0000
  Pd  Pd7       1.0  0.66667  0.60823  0.56385  1.0000
  Pd  Pd8       1.0  0.66667  0.94156  0.50830  1.0000
  Pd  Pd9       1.0  0.66667  0.27489  0.61941  1.0000
  Pd  Pd10      1.0  0.33333  0.72511  0.65837  1.0000
  Pd  Pd11      1.0  0.33333  0.05844  0.60281  1.0000
  Pd  Pd12      1.0  0.33333  0.39177  0.54726  1.0000
