data_image0
_chemical_formula_structural       Al4Au8
_chemical_formula_sum              "Al4 Au8"
_cell_length_a       3.30923
_cell_length_b       4.98622
_cell_length_c       34.1401
_cell_angle_alpha    87.0094
_cell_angle_beta     87.222
_cell_angle_gamma    70.6197

_space_group_name_H-M_alt    "P 1"
_space_group_IT_number       1

loop_
  _space_group_symop_operation_xyz
  'x, y, z'

loop_
  _atom_site_type_symbol
  _atom_site_label
  _atom_site_symmetry_multiplicity
  _atom_site_fract_x
  _atom_site_fract_y
  _atom_site_fract_z
  _atom_site_occupancy
  Al  Al1       1.0  0.36364  0.90909  0.36364  1.0000
  Al  Al2       1.0  0.45455  0.63636  0.45455  1.0000
  Al  Al3       1.0  0.54545  0.36364  0.54545  1.0000
  Al  Al4       1.0  0.63636  0.09091  0.63636  1.0000
  Au  Au1       1.0  0.67642  0.31480  0.33236  1.0000
  Au  Au2       1.0  0.05085  0.50338  0.39491  1.0000
  Au  Au3       1.0  0.76733  0.04207  0.42327  1.0000
  Au  Au4       1.0  0.14176  0.23066  0.48582  1.0000
  Au  Au5       1.0  0.85824  0.76934  0.51418  1.0000
  Au  Au6       1.0  0.23267  0.95793  0.57673  1.0000
  Au  Au7       1.0  0.94915  0.49662  0.60509  1.0000
  Au  Au8       1.0  0.32358  0.68520  0.66764  1.0000
