data_image0
_chemical_formula_structural       FeCuPt2FeCuPt2
_chemical_formula_sum              "Fe2 Cu2 Pt4"
_cell_length_a       3.85188
_cell_length_b       3.48618
_cell_length_c       30.815
_cell_angle_alpha    90
_cell_angle_beta     90
_cell_angle_gamma    90

_space_group_name_H-M_alt    "P 1"
_space_group_IT_number       1

loop_
  _space_group_symop_operation_xyz
  'x, y, z'

loop_
  _atom_site_type_symbol
  _atom_site_label
  _atom_site_symmetry_multiplicity
  _atom_site_fract_x
  _atom_site_fract_y
  _atom_site_fract_z
  _atom_site_occupancy
  Fe  Fe1       1.0  0.50000  0.00000  0.40625  1.0000
  Cu  Cu1       1.0  0.00000  0.00000  0.46875  1.0000
  Pt  Pt1       1.0  0.00000  0.50000  0.40625  1.0000
  Pt  Pt2       1.0  0.50000  0.50000  0.46875  1.0000
  Fe  Fe2       1.0  0.50000  0.00000  0.53125  1.0000
  Cu  Cu2       1.0  0.00000  0.00000  0.59375  1.0000
  Pt  Pt3       1.0  0.00000  0.50000  0.53125  1.0000
  Pt  Pt4       1.0  0.50000  0.50000  0.59375  1.0000
