data_image0
_chemical_formula_structural       V8H4V8H4V8H4
_chemical_formula_sum              "V24 H12"
_cell_length_a       9.22514
_cell_length_b       5.78286
_cell_length_c       31.9862
_cell_angle_alpha    90
_cell_angle_beta     108.373
_cell_angle_gamma    51.1884

_space_group_name_H-M_alt    "P 1"
_space_group_IT_number       1

loop_
  _space_group_symop_operation_xyz
  'x, y, z'

loop_
  _atom_site_type_symbol
  _atom_site_label
  _atom_site_symmetry_multiplicity
  _atom_site_fract_x
  _atom_site_fract_y
  _atom_site_fract_z
  _atom_site_occupancy
  V   V1        1.0  0.51899  0.73161  0.44491  1.0000
  V   V2        1.0  0.01899  0.73161  0.39945  1.0000
  V   V3        1.0  0.48101  0.26839  0.44146  1.0000
  V   V4        1.0  0.98101  0.26839  0.39600  1.0000
  V   V5        1.0  0.26899  0.73161  0.37673  1.0000
  V   V6        1.0  0.76899  0.73161  0.42218  1.0000
  V   V7        1.0  0.73101  0.26839  0.41873  1.0000
  V   V8        1.0  0.23101  0.26839  0.37327  1.0000
  H   H1        1.0  0.25000  0.00000  0.42045  1.0000
  H   H2        1.0  0.75000  0.00000  0.37500  1.0000
  H   H3        1.0  0.50000  0.00000  0.39773  1.0000
  H   H4        1.0  0.00000  0.00000  0.44318  1.0000
  V   V9        1.0  0.51899  0.73161  0.53582  1.0000
  V   V10       1.0  0.01899  0.73161  0.49036  1.0000
  V   V11       1.0  0.48101  0.26839  0.53236  1.0000
  V   V12       1.0  0.98101  0.26839  0.48691  1.0000
  V   V13       1.0  0.26899  0.73161  0.46764  1.0000
  V   V14       1.0  0.76899  0.73161  0.51309  1.0000
  V   V15       1.0  0.73101  0.26839  0.50964  1.0000
  V   V16       1.0  0.23101  0.26839  0.46418  1.0000
  H   H5        1.0  0.25000  0.00000  0.51136  1.0000
  H   H6        1.0  0.75000  0.00000  0.46591  1.0000
  H   H7        1.0  0.50000  0.00000  0.48864  1.0000
  H   H8        1.0  0.00000  0.00000  0.53409  1.0000
  V   V17       1.0  0.51899  0.73161  0.62673  1.0000
  V   V18       1.0  0.01899  0.73161  0.58127  1.0000
  V   V19       1.0  0.48101  0.26839  0.62327  1.0000
  V   V20       1.0  0.98101  0.26839  0.57782  1.0000
  V   V21       1.0  0.26899  0.73161  0.55854  1.0000
  V   V22       1.0  0.76899  0.73161  0.60400  1.0000
  V   V23       1.0  0.73101  0.26839  0.60055  1.0000
  V   V24       1.0  0.23101  0.26839  0.55509  1.0000
  H   H9        1.0  0.25000  0.00000  0.60227  1.0000
  H   H10       1.0  0.75000  0.00000  0.55682  1.0000
  H   H11       1.0  0.50000  0.00000  0.57955  1.0000
  H   H12       1.0  0.00000  0.00000  0.62500  1.0000
