data_image0
_chemical_formula_structural       Ga4Cu12Ga4Cu12
_chemical_formula_sum              "Ga8 Cu24"
_cell_length_a       4.18076
_cell_length_b       8.93592
_cell_length_c       30.9549
_cell_angle_alpha    90
_cell_angle_beta     90
_cell_angle_gamma    90

_space_group_name_H-M_alt    "P 1"
_space_group_IT_number       1

loop_
  _space_group_symop_operation_xyz
  'x, y, z'

loop_
  _atom_site_type_symbol
  _atom_site_label
  _atom_site_symmetry_multiplicity
  _atom_site_fract_x
  _atom_site_fract_y
  _atom_site_fract_z
  _atom_site_occupancy
  Ga  Ga1       1.0  0.25000  0.33333  0.47917  1.0000
  Ga  Ga2       1.0  0.25000  0.83333  0.39583  1.0000
  Ga  Ga3       1.0  0.75000  0.66667  0.47917  1.0000
  Ga  Ga4       1.0  0.75000  0.16667  0.39583  1.0000
  Cu  Cu1       1.0  0.75000  0.41733  0.35450  1.0000
  Cu  Cu2       1.0  0.75000  0.91733  0.43783  1.0000
  Cu  Cu3       1.0  0.75000  0.41733  0.43717  1.0000
  Cu  Cu4       1.0  0.75000  0.91733  0.35384  1.0000
  Cu  Cu5       1.0  0.75000  0.16535  0.47917  1.0000
  Cu  Cu6       1.0  0.75000  0.66535  0.39583  1.0000
  Cu  Cu7       1.0  0.25000  0.58267  0.43717  1.0000
  Cu  Cu8       1.0  0.25000  0.08267  0.35384  1.0000
  Cu  Cu9       1.0  0.25000  0.58267  0.35450  1.0000
  Cu  Cu10      1.0  0.25000  0.08267  0.43783  1.0000
  Cu  Cu11      1.0  0.25000  0.83465  0.47917  1.0000
  Cu  Cu12      1.0  0.25000  0.33465  0.39583  1.0000
  Ga  Ga5       1.0  0.25000  0.33333  0.64583  1.0000
  Ga  Ga6       1.0  0.25000  0.83333  0.56250  1.0000
  Ga  Ga7       1.0  0.75000  0.66667  0.64583  1.0000
  Ga  Ga8       1.0  0.75000  0.16667  0.56250  1.0000
  Cu  Cu13      1.0  0.75000  0.41733  0.52116  1.0000
  Cu  Cu14      1.0  0.75000  0.91733  0.60450  1.0000
  Cu  Cu15      1.0  0.75000  0.41733  0.60384  1.0000
  Cu  Cu16      1.0  0.75000  0.91733  0.52050  1.0000
  Cu  Cu17      1.0  0.75000  0.16535  0.64583  1.0000
  Cu  Cu18      1.0  0.75000  0.66535  0.56250  1.0000
  Cu  Cu19      1.0  0.25000  0.58267  0.60384  1.0000
  Cu  Cu20      1.0  0.25000  0.08267  0.52050  1.0000
  Cu  Cu21      1.0  0.25000  0.58267  0.52116  1.0000
  Cu  Cu22      1.0  0.25000  0.08267  0.60450  1.0000
  Cu  Cu23      1.0  0.25000  0.83465  0.64583  1.0000
  Cu  Cu24      1.0  0.25000  0.33465  0.56250  1.0000
