data_image0
_chemical_formula_structural       Sn4Rh8
_chemical_formula_sum              "Sn4 Rh8"
_cell_length_a       4.23687
_cell_length_b       5.50338
_cell_length_c       31.8878
_cell_angle_alpha    90
_cell_angle_beta     90
_cell_angle_gamma    90

_space_group_name_H-M_alt    "P 1"
_space_group_IT_number       1

loop_
  _space_group_symop_operation_xyz
  'x, y, z'

loop_
  _atom_site_type_symbol
  _atom_site_label
  _atom_site_symmetry_multiplicity
  _atom_site_fract_x
  _atom_site_fract_y
  _atom_site_fract_z
  _atom_site_occupancy
  Sn  Sn1       1.0  0.75000  0.30415  0.43260  1.0000
  Sn  Sn2       1.0  0.75000  0.80415  0.60906  1.0000
  Sn  Sn3       1.0  0.25000  0.69585  0.48406  1.0000
  Sn  Sn4       1.0  0.25000  0.19585  0.55760  1.0000
  Rh  Rh1       1.0  0.25000  0.67383  0.56656  1.0000
  Rh  Rh2       1.0  0.75000  0.95945  0.52756  1.0000
  Rh  Rh3       1.0  0.75000  0.45945  0.51410  1.0000
  Rh  Rh4       1.0  0.75000  0.32617  0.60010  1.0000
  Rh  Rh5       1.0  0.75000  0.82617  0.44156  1.0000
  Rh  Rh6       1.0  0.25000  0.17383  0.47510  1.0000
  Rh  Rh7       1.0  0.25000  0.54055  0.40256  1.0000
  Rh  Rh8       1.0  0.25000  0.04055  0.38910  1.0000
