data_image0
_chemical_formula_structural       Fe3Ni3Pt6Fe3Ni3Pt6
_chemical_formula_sum              "Fe6 Ni6 Pt12"
_cell_length_a       5.3207
_cell_length_b       5.19448
_cell_length_c       38.4831
_cell_angle_alpha    92.283
_cell_angle_beta     90
_cell_angle_gamma    59.1929

_space_group_name_H-M_alt    "P 1"
_space_group_IT_number       1

loop_
  _space_group_symop_operation_xyz
  'x, y, z'

loop_
  _atom_site_type_symbol
  _atom_site_label
  _atom_site_symmetry_multiplicity
  _atom_site_fract_x
  _atom_site_fract_y
  _atom_site_fract_z
  _atom_site_occupancy
  Fe  Fe1       1.0  0.66667  0.66667  0.36111  1.0000
  Fe  Fe2       1.0  0.00000  0.00000  0.47222  1.0000
  Fe  Fe3       1.0  0.33333  0.33333  0.41667  1.0000
  Ni  Ni1       1.0  0.83333  0.33333  0.41667  1.0000
  Ni  Ni2       1.0  0.16667  0.66667  0.36111  1.0000
  Ni  Ni3       1.0  0.50000  0.00000  0.47222  1.0000
  Pt  Pt1       1.0  0.33333  0.83333  0.41667  1.0000
  Pt  Pt2       1.0  0.66667  0.16667  0.36111  1.0000
  Pt  Pt3       1.0  0.00000  0.50000  0.47222  1.0000
  Pt  Pt4       1.0  0.83333  0.83333  0.41667  1.0000
  Pt  Pt5       1.0  0.16667  0.16667  0.36111  1.0000
  Pt  Pt6       1.0  0.50000  0.50000  0.47222  1.0000
  Fe  Fe4       1.0  0.66667  0.66667  0.52778  1.0000
  Fe  Fe5       1.0  0.00000  0.00000  0.63889  1.0000
  Fe  Fe6       1.0  0.33333  0.33333  0.58333  1.0000
  Ni  Ni4       1.0  0.83333  0.33333  0.58333  1.0000
  Ni  Ni5       1.0  0.16667  0.66667  0.52778  1.0000
  Ni  Ni6       1.0  0.50000  0.00000  0.63889  1.0000
  Pt  Pt7       1.0  0.33333  0.83333  0.58333  1.0000
  Pt  Pt8       1.0  0.66667  0.16667  0.52778  1.0000
  Pt  Pt9       1.0  0.00000  0.50000  0.63889  1.0000
  Pt  Pt10      1.0  0.83333  0.83333  0.58333  1.0000
  Pt  Pt11      1.0  0.16667  0.16667  0.52778  1.0000
  Pt  Pt12      1.0  0.50000  0.50000  0.63889  1.0000
