data_image0
_chemical_formula_structural       Ca2Si4Au4
_chemical_formula_sum              "Ca2 Si4 Au4"
_cell_length_a       4.31179
_cell_length_b       4.31179
_cell_length_c       39.787
_cell_angle_alpha    90
_cell_angle_beta     90
_cell_angle_gamma    90

_space_group_name_H-M_alt    "P 1"
_space_group_IT_number       1

loop_
  _space_group_symop_operation_xyz
  'x, y, z'

loop_
  _atom_site_type_symbol
  _atom_site_label
  _atom_site_symmetry_multiplicity
  _atom_site_fract_x
  _atom_site_fract_y
  _atom_site_fract_z
  _atom_site_occupancy
  Ca  Ca1       1.0  0.00000  0.00000  0.61250  1.0000
  Ca  Ca2       1.0  0.50000  0.50000  0.48750  1.0000
  Si  Si1       1.0  0.50000  0.50000  0.39124  1.0000
  Si  Si2       1.0  0.00000  0.00000  0.45876  1.0000
  Si  Si3       1.0  0.00000  0.00000  0.51624  1.0000
  Si  Si4       1.0  0.50000  0.50000  0.58376  1.0000
  Au  Au1       1.0  0.00000  0.50000  0.42500  1.0000
  Au  Au2       1.0  0.50000  0.00000  0.42500  1.0000
  Au  Au3       1.0  0.50000  0.00000  0.55000  1.0000
  Au  Au4       1.0  0.00000  0.50000  0.55000  1.0000
