data_image0
_chemical_formula_structural       Ca6Cu12Ge12
_chemical_formula_sum              "Ca6 Cu12 Ge12"
_cell_length_a       5.84163
_cell_length_b       8.22476
_cell_length_c       32.7613
_cell_angle_alpha    95.4825
_cell_angle_beta     94.8433
_cell_angle_gamma    100.776

_space_group_name_H-M_alt    "P 1"
_space_group_IT_number       1

loop_
  _space_group_symop_operation_xyz
  'x, y, z'

loop_
  _atom_site_type_symbol
  _atom_site_label
  _atom_site_symmetry_multiplicity
  _atom_site_fract_x
  _atom_site_fract_y
  _atom_site_fract_z
  _atom_site_occupancy
  Ca  Ca1       1.0  0.50556  0.01111  0.50556  1.0000
  Ca  Ca2       1.0  0.28333  0.90000  0.61667  1.0000
  Ca  Ca3       1.0  0.89444  0.45556  0.56111  1.0000
  Ca  Ca4       1.0  0.33889  0.67778  0.33889  1.0000
  Ca  Ca5       1.0  0.11667  0.56667  0.45000  1.0000
  Ca  Ca6       1.0  0.72778  0.12222  0.39444  1.0000
  Cu  Cu1       1.0  0.43611  0.53889  0.60278  1.0000
  Cu  Cu2       1.0  0.04722  0.09444  0.54722  1.0000
  Cu  Cu3       1.0  0.82500  0.98333  0.65833  1.0000
  Cu  Cu4       1.0  0.13056  0.26111  0.63056  1.0000
  Cu  Cu5       1.0  0.74167  0.81667  0.57500  1.0000
  Cu  Cu6       1.0  0.35278  0.37222  0.51944  1.0000
  Cu  Cu7       1.0  0.26944  0.20556  0.43611  1.0000
  Cu  Cu8       1.0  0.88056  0.76111  0.38056  1.0000
  Cu  Cu9       1.0  0.65833  0.65000  0.49167  1.0000
  Cu  Cu10      1.0  0.96389  0.92778  0.46389  1.0000
  Cu  Cu11      1.0  0.57500  0.48333  0.40833  1.0000
  Cu  Cu12      1.0  0.18611  0.03889  0.35278  1.0000
  Ge  Ge1       1.0  0.14673  0.55464  0.65120  1.0000
  Ge  Ge2       1.0  0.75784  0.11020  0.59565  1.0000
  Ge  Ge3       1.0  0.36895  0.66575  0.54009  1.0000
  Ge  Ge4       1.0  0.41994  0.24536  0.58213  1.0000
  Ge  Ge5       1.0  0.03105  0.80091  0.52658  1.0000
  Ge  Ge6       1.0  0.80882  0.68980  0.63769  1.0000
  Ge  Ge7       1.0  0.98006  0.22131  0.48454  1.0000
  Ge  Ge8       1.0  0.59118  0.77686  0.42898  1.0000
  Ge  Ge9       1.0  0.20229  0.33242  0.37342  1.0000
  Ge  Ge10      1.0  0.25327  0.91203  0.41546  1.0000
  Ge  Ge11      1.0  0.86438  0.46758  0.35991  1.0000
  Ge  Ge12      1.0  0.64216  0.35647  0.47102  1.0000
