data_image0
_chemical_formula_structural       V12H6V12H6
_chemical_formula_sum              "V24 H12"
_cell_length_a       4.37803
_cell_length_b       7.279
_cell_length_c       31.5314
_cell_angle_alpha    93.3734
_cell_angle_beta     96.0972
_cell_angle_gamma    85.602

_space_group_name_H-M_alt    "P 1"
_space_group_IT_number       1

loop_
  _space_group_symop_operation_xyz
  'x, y, z'

loop_
  _atom_site_type_symbol
  _atom_site_label
  _atom_site_symmetry_multiplicity
  _atom_site_fract_x
  _atom_site_fract_y
  _atom_site_fract_z
  _atom_site_occupancy
  V   V1        1.0  0.73161  0.57680  0.37718  1.0000
  V   V2        1.0  0.73161  0.24347  0.48829  1.0000
  V   V3        1.0  0.73161  0.91013  0.43273  1.0000
  V   V4        1.0  0.26839  0.75653  0.48393  1.0000
  V   V5        1.0  0.26839  0.42320  0.42838  1.0000
  V   V6        1.0  0.26839  0.08987  0.37282  1.0000
  V   V7        1.0  0.73161  0.91013  0.34940  1.0000
  V   V8        1.0  0.73161  0.57680  0.46051  1.0000
  V   V9        1.0  0.73161  0.24347  0.40496  1.0000
  V   V10       1.0  0.26839  0.75653  0.40060  1.0000
  V   V11       1.0  0.26839  0.42320  0.34504  1.0000
  V   V12       1.0  0.26839  0.08987  0.45616  1.0000
  H   H1        1.0  0.00000  0.66667  0.34722  1.0000
  H   H2        1.0  0.00000  0.33333  0.45833  1.0000
  H   H3        1.0  0.00000  0.00000  0.40278  1.0000
  H   H4        1.0  0.00000  0.66667  0.43056  1.0000
  H   H5        1.0  0.00000  0.33333  0.37500  1.0000
  H   H6        1.0  0.00000  0.00000  0.48611  1.0000
  V   V13       1.0  0.73161  0.57680  0.54384  1.0000
  V   V14       1.0  0.73161  0.24347  0.65496  1.0000
  V   V15       1.0  0.73161  0.91013  0.59940  1.0000
  V   V16       1.0  0.26839  0.75653  0.65060  1.0000
  V   V17       1.0  0.26839  0.42320  0.59504  1.0000
  V   V18       1.0  0.26839  0.08987  0.53949  1.0000
  V   V19       1.0  0.73161  0.91013  0.51607  1.0000
  V   V20       1.0  0.73161  0.57680  0.62718  1.0000
  V   V21       1.0  0.73161  0.24347  0.57162  1.0000
  V   V22       1.0  0.26839  0.75653  0.56727  1.0000
  V   V23       1.0  0.26839  0.42320  0.51171  1.0000
  V   V24       1.0  0.26839  0.08987  0.62282  1.0000
  H   H7        1.0  0.00000  0.66667  0.51389  1.0000
  H   H8        1.0  0.00000  0.33333  0.62500  1.0000
  H   H9        1.0  0.00000  0.00000  0.56944  1.0000
  H   H10       1.0  0.00000  0.66667  0.59722  1.0000
  H   H11       1.0  0.00000  0.33333  0.54167  1.0000
  H   H12       1.0  0.00000  0.00000  0.65278  1.0000
