data_image0
_chemical_formula_structural       V6Pd12V6Pd12
_chemical_formula_sum              "V12 Pd24"
_cell_length_a       6.56442
_cell_length_b       9.80266
_cell_length_c       32.2912
_cell_angle_alpha    108.757
_cell_angle_beta     91.0058
_cell_angle_gamma    63.1314

_space_group_name_H-M_alt    "P 1"
_space_group_IT_number       1

loop_
  _space_group_symop_operation_xyz
  'x, y, z'

loop_
  _atom_site_type_symbol
  _atom_site_label
  _atom_site_symmetry_multiplicity
  _atom_site_fract_x
  _atom_site_fract_y
  _atom_site_fract_z
  _atom_site_occupancy
  V   V1        1.0  0.66667  0.00000  0.37698  1.0000
  V   V2        1.0  0.00000  0.00000  0.47222  1.0000
  V   V3        1.0  0.33333  0.00000  0.42460  1.0000
  V   V4        1.0  0.33333  0.50000  0.49603  1.0000
  V   V5        1.0  0.66667  0.50000  0.44841  1.0000
  V   V6        1.0  0.00000  0.50000  0.40079  1.0000
  Pd  Pd1       1.0  0.55870  0.16195  0.46384  1.0000
  Pd  Pd2       1.0  0.89203  0.16195  0.41622  1.0000
  Pd  Pd3       1.0  0.22537  0.16195  0.36860  1.0000
  Pd  Pd4       1.0  0.44130  0.33805  0.40918  1.0000
  Pd  Pd5       1.0  0.77463  0.33805  0.36156  1.0000
  Pd  Pd6       1.0  0.10797  0.33805  0.45680  1.0000
  Pd  Pd7       1.0  0.22537  0.66195  0.44003  1.0000
  Pd  Pd8       1.0  0.55870  0.66195  0.39241  1.0000
  Pd  Pd9       1.0  0.89203  0.66195  0.48765  1.0000
  Pd  Pd10      1.0  0.10797  0.83805  0.38537  1.0000
  Pd  Pd11      1.0  0.44130  0.83805  0.48061  1.0000
  Pd  Pd12      1.0  0.77463  0.83805  0.43299  1.0000
  V   V7        1.0  0.66667  0.00000  0.51984  1.0000
  V   V8        1.0  0.00000  0.00000  0.61508  1.0000
  V   V9        1.0  0.33333  0.00000  0.56746  1.0000
  V   V10       1.0  0.33333  0.50000  0.63889  1.0000
  V   V11       1.0  0.66667  0.50000  0.59127  1.0000
  V   V12       1.0  0.00000  0.50000  0.54365  1.0000
  Pd  Pd13      1.0  0.55870  0.16195  0.60669  1.0000
  Pd  Pd14      1.0  0.89203  0.16195  0.55907  1.0000
  Pd  Pd15      1.0  0.22537  0.16195  0.51146  1.0000
  Pd  Pd16      1.0  0.44130  0.33805  0.55204  1.0000
  Pd  Pd17      1.0  0.77463  0.33805  0.50442  1.0000
  Pd  Pd18      1.0  0.10797  0.33805  0.59966  1.0000
  Pd  Pd19      1.0  0.22537  0.66195  0.58288  1.0000
  Pd  Pd20      1.0  0.55870  0.66195  0.53527  1.0000
  Pd  Pd21      1.0  0.89203  0.66195  0.63050  1.0000
  Pd  Pd22      1.0  0.10797  0.83805  0.52823  1.0000
  Pd  Pd23      1.0  0.44130  0.83805  0.62346  1.0000
  Pd  Pd24      1.0  0.77463  0.83805  0.57585  1.0000
