data_image0
_chemical_formula_structural       Mn2As2Mn2As2Mn2As2
_chemical_formula_sum              "Mn6 As6"
_cell_length_a       3.47653
_cell_length_b       5.23
_cell_length_c       34.7653
_cell_angle_alpha    90
_cell_angle_beta     120
_cell_angle_gamma    90

_space_group_name_H-M_alt    "P 1"
_space_group_IT_number       1

loop_
  _space_group_symop_operation_xyz
  'x, y, z'

loop_
  _atom_site_type_symbol
  _atom_site_label
  _atom_site_symmetry_multiplicity
  _atom_site_fract_x
  _atom_site_fract_y
  _atom_site_fract_z
  _atom_site_occupancy
  Mn  Mn1       1.0  0.00000  0.50000  0.42500  1.0000
  Mn  Mn2       1.0  0.00000  0.00000  0.42500  1.0000
  As  As1       1.0  0.33333  0.75000  0.39167  1.0000
  As  As2       1.0  0.66667  0.25000  0.35833  1.0000
  Mn  Mn3       1.0  0.00000  0.50000  0.52500  1.0000
  Mn  Mn4       1.0  0.00000  0.00000  0.52500  1.0000
  As  As3       1.0  0.33333  0.75000  0.49167  1.0000
  As  As4       1.0  0.66667  0.25000  0.45833  1.0000
  Mn  Mn5       1.0  0.00000  0.50000  0.62500  1.0000
  Mn  Mn6       1.0  0.00000  0.00000  0.62500  1.0000
  As  As5       1.0  0.33333  0.75000  0.59167  1.0000
  As  As6       1.0  0.66667  0.25000  0.55833  1.0000
