data_image0
_chemical_formula_structural       Zn18Co6
_chemical_formula_sum              "Zn18 Co6"
_cell_length_a       3.56928
_cell_length_b       10.5443
_cell_length_c       34.1675
_cell_angle_alpha    67.3094
_cell_angle_beta     90
_cell_angle_gamma    90

_space_group_name_H-M_alt    "P 1"
_space_group_IT_number       1

loop_
  _space_group_symop_operation_xyz
  'x, y, z'

loop_
  _atom_site_type_symbol
  _atom_site_label
  _atom_site_symmetry_multiplicity
  _atom_site_fract_x
  _atom_site_fract_y
  _atom_site_fract_z
  _atom_site_occupancy
  Zn  Zn1       1.0  0.00000  0.58333  0.52083  1.0000
  Zn  Zn2       1.0  0.00000  0.91667  0.43750  1.0000
  Zn  Zn3       1.0  0.00000  0.25000  0.60417  1.0000
  Zn  Zn4       1.0  0.50000  0.75000  0.47917  1.0000
  Zn  Zn5       1.0  0.50000  0.08333  0.39583  1.0000
  Zn  Zn6       1.0  0.50000  0.41667  0.56250  1.0000
  Zn  Zn7       1.0  0.00000  0.83333  0.52083  1.0000
  Zn  Zn8       1.0  0.00000  0.16667  0.43750  1.0000
  Zn  Zn9       1.0  0.00000  0.50000  0.60417  1.0000
  Zn  Zn10      1.0  0.50000  0.91667  0.56250  1.0000
  Zn  Zn11      1.0  0.50000  0.25000  0.47917  1.0000
  Zn  Zn12      1.0  0.50000  0.58333  0.39583  1.0000
  Zn  Zn13      1.0  0.00000  0.75000  0.60417  1.0000
  Zn  Zn14      1.0  0.00000  0.08333  0.52083  1.0000
  Zn  Zn15      1.0  0.00000  0.41667  0.43750  1.0000
  Zn  Zn16      1.0  0.50000  0.50000  0.47917  1.0000
  Zn  Zn17      1.0  0.50000  0.83333  0.39583  1.0000
  Zn  Zn18      1.0  0.50000  0.16667  0.56250  1.0000
  Co  Co1       1.0  0.00000  0.66667  0.43750  1.0000
  Co  Co2       1.0  0.00000  0.00000  0.60417  1.0000
  Co  Co3       1.0  0.00000  0.33333  0.52083  1.0000
  Co  Co4       1.0  0.50000  0.66667  0.56250  1.0000
  Co  Co5       1.0  0.50000  0.00000  0.47917  1.0000
  Co  Co6       1.0  0.50000  0.33333  0.39583  1.0000
