data_image0
_chemical_formula_structural       Ga18Ni12
_chemical_formula_sum              "Ga18 Ni12"
_cell_length_a       6.27754
_cell_length_b       8.48293
_cell_length_c       30.6414
_cell_angle_alpha    89.4342
_cell_angle_beta     85.9129
_cell_angle_gamma    88.6191

_space_group_name_H-M_alt    "P 1"
_space_group_IT_number       1

loop_
  _space_group_symop_operation_xyz
  'x, y, z'

loop_
  _atom_site_type_symbol
  _atom_site_label
  _atom_site_symmetry_multiplicity
  _atom_site_fract_x
  _atom_site_fract_y
  _atom_site_fract_z
  _atom_site_occupancy
  Ga  Ga1       1.0  0.02500  0.00000  0.48750  1.0000
  Ga  Ga2       1.0  0.85833  0.66667  0.40417  1.0000
  Ga  Ga3       1.0  0.44167  0.33333  0.44583  1.0000
  Ga  Ga4       1.0  0.42509  0.67614  0.44465  1.0000
  Ga  Ga5       1.0  0.00843  0.34280  0.48632  1.0000
  Ga  Ga6       1.0  0.84176  0.00947  0.40298  1.0000
  Ga  Ga7       1.0  0.45824  0.99053  0.44702  1.0000
  Ga  Ga8       1.0  0.04157  0.65720  0.48868  1.0000
  Ga  Ga9       1.0  0.87491  0.32386  0.40535  1.0000
  Ga  Ga10      1.0  0.77500  0.00000  0.61250  1.0000
  Ga  Ga11      1.0  0.60833  0.66667  0.52917  1.0000
  Ga  Ga12      1.0  0.19167  0.33333  0.57083  1.0000
  Ga  Ga13      1.0  0.17509  0.67614  0.56965  1.0000
  Ga  Ga14      1.0  0.75843  0.34280  0.61132  1.0000
  Ga  Ga15      1.0  0.59176  0.00947  0.52798  1.0000
  Ga  Ga16      1.0  0.20824  0.99053  0.57202  1.0000
  Ga  Ga17      1.0  0.79157  0.65720  0.61368  1.0000
  Ga  Ga18      1.0  0.62491  0.32386  0.53035  1.0000
  Ni  Ni1       1.0  0.13233  0.84343  0.42374  1.0000
  Ni  Ni2       1.0  0.71566  0.51010  0.46540  1.0000
  Ni  Ni3       1.0  0.54899  0.17677  0.38207  1.0000
  Ni  Ni4       1.0  0.75101  0.82323  0.46793  1.0000
  Ni  Ni5       1.0  0.58434  0.48990  0.38460  1.0000
  Ni  Ni6       1.0  0.16767  0.15657  0.42626  1.0000
  Ni  Ni7       1.0  0.88233  0.84343  0.54874  1.0000
  Ni  Ni8       1.0  0.46566  0.51010  0.59040  1.0000
  Ni  Ni9       1.0  0.29899  0.17677  0.50707  1.0000
  Ni  Ni10      1.0  0.50101  0.82323  0.59293  1.0000
  Ni  Ni11      1.0  0.33434  0.48990  0.50960  1.0000
  Ni  Ni12      1.0  0.91767  0.15657  0.55126  1.0000
