data_image0
_chemical_formula_structural       Si12Ru12
_chemical_formula_sum              "Si12 Ru12"
_cell_length_a       6.6433
_cell_length_b       6.6433
_cell_length_c       32.5454
_cell_angle_alpha    90
_cell_angle_beta     90
_cell_angle_gamma    60

_space_group_name_H-M_alt    "P 1"
_space_group_IT_number       1

loop_
  _space_group_symop_operation_xyz
  'x, y, z'

loop_
  _atom_site_type_symbol
  _atom_site_label
  _atom_site_symmetry_multiplicity
  _atom_site_fract_x
  _atom_site_fract_y
  _atom_site_fract_z
  _atom_site_occupancy
  Si  Si1       1.0  0.44189  0.61621  0.51357  1.0000
  Si  Si2       1.0  0.77523  0.94955  0.43024  1.0000
  Si  Si3       1.0  0.10856  0.28288  0.59690  1.0000
  Si  Si4       1.0  0.61621  0.94189  0.51357  1.0000
  Si  Si5       1.0  0.94955  0.27523  0.43024  1.0000
  Si  Si6       1.0  0.28288  0.60856  0.59690  1.0000
  Si  Si7       1.0  0.94189  0.44189  0.51357  1.0000
  Si  Si8       1.0  0.27523  0.77523  0.43024  1.0000
  Si  Si9       1.0  0.60856  0.10856  0.59690  1.0000
  Si  Si10      1.0  0.66667  0.66667  0.37596  1.0000
  Si  Si11      1.0  0.00000  0.00000  0.54262  1.0000
  Si  Si12      1.0  0.33333  0.33333  0.45929  1.0000
  Ru  Ru1       1.0  0.91386  0.67228  0.57257  1.0000
  Ru  Ru2       1.0  0.24719  0.00561  0.48923  1.0000
  Ru  Ru3       1.0  0.58053  0.33895  0.40590  1.0000
  Ru  Ru4       1.0  0.67228  0.41386  0.57257  1.0000
  Ru  Ru5       1.0  0.00561  0.74719  0.48923  1.0000
  Ru  Ru6       1.0  0.33895  0.08053  0.40590  1.0000
  Ru  Ru7       1.0  0.41386  0.91386  0.57257  1.0000
  Ru  Ru8       1.0  0.74719  0.24719  0.48923  1.0000
  Ru  Ru9       1.0  0.08053  0.58053  0.40590  1.0000
  Ru  Ru10      1.0  0.66667  0.66667  0.44897  1.0000
  Ru  Ru11      1.0  0.00000  0.00000  0.61564  1.0000
  Ru  Ru12      1.0  0.33333  0.33333  0.53230  1.0000
