data_image0
_chemical_formula_structural       Si8Pt8Si8Pt8Si8Pt8
_chemical_formula_sum              "Si24 Pt24"
_cell_length_a       5.92092
_cell_length_b       11.7137
_cell_length_c       32.5376
_cell_angle_alpha    107.977
_cell_angle_beta     90
_cell_angle_gamma    90

_space_group_name_H-M_alt    "P 1"
_space_group_IT_number       1

loop_
  _space_group_symop_operation_xyz
  'x, y, z'

loop_
  _atom_site_type_symbol
  _atom_site_label
  _atom_site_symmetry_multiplicity
  _atom_site_fract_x
  _atom_site_fract_y
  _atom_site_fract_z
  _atom_site_occupancy
  Si  Si1       1.0  0.08372  0.33893  0.39183  1.0000
  Si  Si2       1.0  0.08372  0.83893  0.33627  1.0000
  Si  Si3       1.0  0.41628  0.08893  0.36405  1.0000
  Si  Si4       1.0  0.41628  0.58893  0.41960  1.0000
  Si  Si5       1.0  0.91628  0.16107  0.42762  1.0000
  Si  Si6       1.0  0.91628  0.66107  0.37206  1.0000
  Si  Si7       1.0  0.58372  0.41107  0.34429  1.0000
  Si  Si8       1.0  0.58372  0.91107  0.39984  1.0000
  Pt  Pt1       1.0  0.69331  0.24843  0.38177  1.0000
  Pt  Pt2       1.0  0.69331  0.74843  0.43733  1.0000
  Pt  Pt3       1.0  0.80669  0.49843  0.40955  1.0000
  Pt  Pt4       1.0  0.80669  0.99843  0.35399  1.0000
  Pt  Pt5       1.0  0.30669  0.25157  0.43767  1.0000
  Pt  Pt6       1.0  0.30669  0.75157  0.38212  1.0000
  Pt  Pt7       1.0  0.19331  0.00157  0.40990  1.0000
  Pt  Pt8       1.0  0.19331  0.50157  0.35434  1.0000
  Si  Si9       1.0  0.08372  0.33893  0.50294  1.0000
  Si  Si10      1.0  0.08372  0.83893  0.44738  1.0000
  Si  Si11      1.0  0.41628  0.08893  0.47516  1.0000
  Si  Si12      1.0  0.41628  0.58893  0.53071  1.0000
  Si  Si13      1.0  0.91628  0.16107  0.53873  1.0000
  Si  Si14      1.0  0.91628  0.66107  0.48317  1.0000
  Si  Si15      1.0  0.58372  0.41107  0.45540  1.0000
  Si  Si16      1.0  0.58372  0.91107  0.51095  1.0000
  Pt  Pt9       1.0  0.69331  0.24843  0.49288  1.0000
  Pt  Pt10      1.0  0.69331  0.74843  0.54844  1.0000
  Pt  Pt11      1.0  0.80669  0.49843  0.52066  1.0000
  Pt  Pt12      1.0  0.80669  0.99843  0.46510  1.0000
  Pt  Pt13      1.0  0.30669  0.25157  0.54879  1.0000
  Pt  Pt14      1.0  0.30669  0.75157  0.49323  1.0000
  Pt  Pt15      1.0  0.19331  0.00157  0.52101  1.0000
  Pt  Pt16      1.0  0.19331  0.50157  0.46545  1.0000
  Si  Si17      1.0  0.08372  0.33893  0.61405  1.0000
  Si  Si18      1.0  0.08372  0.83893  0.55849  1.0000
  Si  Si19      1.0  0.41628  0.08893  0.58627  1.0000
  Si  Si20      1.0  0.41628  0.58893  0.64183  1.0000
  Si  Si21      1.0  0.91628  0.16107  0.64984  1.0000
  Si  Si22      1.0  0.91628  0.66107  0.59429  1.0000
  Si  Si23      1.0  0.58372  0.41107  0.56651  1.0000
  Si  Si24      1.0  0.58372  0.91107  0.62206  1.0000
  Pt  Pt17      1.0  0.69331  0.24843  0.60399  1.0000
  Pt  Pt18      1.0  0.69331  0.74843  0.65955  1.0000
  Pt  Pt19      1.0  0.80669  0.49843  0.63177  1.0000
  Pt  Pt20      1.0  0.80669  0.99843  0.57621  1.0000
  Pt  Pt21      1.0  0.30669  0.25157  0.65990  1.0000
  Pt  Pt22      1.0  0.30669  0.75157  0.60434  1.0000
  Pt  Pt23      1.0  0.19331  0.00157  0.63212  1.0000
  Pt  Pt24      1.0  0.19331  0.50157  0.57656  1.0000
