data_image0
_chemical_formula_structural       As4Pb8Pd12
_chemical_formula_sum              "As4 Pb8 Pd12"
_cell_length_a       6.85738
_cell_length_b       8.93824
_cell_length_c       33.0904
_cell_angle_alpha    91.0463
_cell_angle_beta     90.3027
_cell_angle_gamma    112.254

_space_group_name_H-M_alt    "P 1"
_space_group_IT_number       1

loop_
  _space_group_symop_operation_xyz
  'x, y, z'

loop_
  _atom_site_type_symbol
  _atom_site_label
  _atom_site_symmetry_multiplicity
  _atom_site_fract_x
  _atom_site_fract_y
  _atom_site_fract_z
  _atom_site_occupancy
  As  As1       1.0  0.93137  0.29417  0.46569  1.0000
  As  As2       1.0  0.18137  0.79417  0.59069  1.0000
  As  As3       1.0  0.20292  0.25108  0.60146  1.0000
  As  As4       1.0  0.95292  0.75108  0.47646  1.0000
  Pb  Pb1       1.0  0.74948  0.33875  0.55389  1.0000
  Pb  Pb2       1.0  0.49948  0.83875  0.42889  1.0000
  Pb  Pb3       1.0  0.33352  0.10390  0.48761  1.0000
  Pb  Pb4       1.0  0.58352  0.60390  0.61261  1.0000
  Pb  Pb5       1.0  0.70648  0.92475  0.53239  1.0000
  Pb  Pb6       1.0  0.45648  0.42475  0.40739  1.0000
  Pb  Pb7       1.0  0.12651  0.01791  0.38410  1.0000
  Pb  Pb8       1.0  0.37651  0.51791  0.50910  1.0000
  Pd  Pd1       1.0  0.60648  0.16788  0.42346  1.0000
  Pd  Pd2       1.0  0.85648  0.66788  0.54846  1.0000
  Pd  Pd3       1.0  0.38021  0.08216  0.56989  1.0000
  Pd  Pd4       1.0  0.13021  0.58216  0.44489  1.0000
  Pd  Pd5       1.0  0.91236  0.01630  0.45618  1.0000
  Pd  Pd6       1.0  0.16236  0.51630  0.58118  1.0000
  Pd  Pd7       1.0  0.06398  0.21305  0.53199  1.0000
  Pd  Pd8       1.0  0.81398  0.71305  0.40699  1.0000
  Pd  Pd9       1.0  0.27724  0.78809  0.51840  1.0000
  Pd  Pd10      1.0  0.02724  0.28809  0.39340  1.0000
  Pd  Pd11      1.0  0.95945  0.96195  0.59994  1.0000
  Pd  Pd12      1.0  0.70945  0.46195  0.47494  1.0000
