data_image0
_chemical_formula_structural       Ag12Sn4
_chemical_formula_sum              "Ag12 Sn4"
_cell_length_a       5.83321
_cell_length_b       7.06163
_cell_length_c       28.2465
_cell_angle_alpha    85.8497
_cell_angle_beta     90
_cell_angle_gamma    90

_space_group_name_H-M_alt    "P 1"
_space_group_IT_number       1

loop_
  _space_group_symop_operation_xyz
  'x, y, z'

loop_
  _atom_site_type_symbol
  _atom_site_label
  _atom_site_symmetry_multiplicity
  _atom_site_fract_x
  _atom_site_fract_y
  _atom_site_fract_z
  _atom_site_occupancy
  Ag  Ag1       1.0  0.25032  0.33171  0.45793  1.0000
  Ag  Ag2       1.0  0.25032  0.83171  0.58293  1.0000
  Ag  Ag3       1.0  0.74968  0.33171  0.45793  1.0000
  Ag  Ag4       1.0  0.74968  0.83171  0.58293  1.0000
  Ag  Ag5       1.0  0.24968  0.41829  0.60457  1.0000
  Ag  Ag6       1.0  0.24968  0.91829  0.47957  1.0000
  Ag  Ag7       1.0  0.75032  0.41829  0.60457  1.0000
  Ag  Ag8       1.0  0.75032  0.91829  0.47957  1.0000
  Ag  Ag9       1.0  0.50000  0.08689  0.39672  1.0000
  Ag  Ag10      1.0  0.50000  0.58689  0.52172  1.0000
  Ag  Ag11      1.0  0.00000  0.66311  0.41578  1.0000
  Ag  Ag12      1.0  0.00000  0.16311  0.54078  1.0000
  Sn  Sn1       1.0  0.00000  0.08410  0.39603  1.0000
  Sn  Sn2       1.0  0.00000  0.58410  0.52103  1.0000
  Sn  Sn3       1.0  0.50000  0.66590  0.41647  1.0000
  Sn  Sn4       1.0  0.50000  0.16590  0.54147  1.0000
