data_image0
_chemical_formula_structural       Ti18
_chemical_formula_sum              "Ti18"
_cell_length_a       7.79437
_cell_length_b       5.29018
_cell_length_c       31.7411
_cell_angle_alpha    94.8992
_cell_angle_beta     90
_cell_angle_gamma    42.5504

_space_group_name_H-M_alt    "P 1"
_space_group_IT_number       1

loop_
  _space_group_symop_operation_xyz
  'x, y, z'

loop_
  _atom_site_type_symbol
  _atom_site_label
  _atom_site_symmetry_multiplicity
  _atom_site_fract_x
  _atom_site_fract_y
  _atom_site_fract_z
  _atom_site_occupancy
  Ti  Ti1       1.0  0.66667  0.66667  0.37963  1.0000
  Ti  Ti2       1.0  0.00000  0.00000  0.49074  1.0000
  Ti  Ti3       1.0  0.33333  0.33333  0.43519  1.0000
  Ti  Ti4       1.0  0.83333  0.66667  0.46296  1.0000
  Ti  Ti5       1.0  0.16667  0.00000  0.40741  1.0000
  Ti  Ti6       1.0  0.50000  0.33333  0.35185  1.0000
  Ti  Ti7       1.0  0.50000  0.66667  0.46296  1.0000
  Ti  Ti8       1.0  0.83333  0.00000  0.40741  1.0000
  Ti  Ti9       1.0  0.16667  0.33333  0.35185  1.0000
  Ti  Ti10      1.0  0.66667  0.66667  0.54630  1.0000
  Ti  Ti11      1.0  0.00000  0.00000  0.65741  1.0000
  Ti  Ti12      1.0  0.33333  0.33333  0.60185  1.0000
  Ti  Ti13      1.0  0.83333  0.66667  0.62963  1.0000
  Ti  Ti14      1.0  0.16667  0.00000  0.57407  1.0000
  Ti  Ti15      1.0  0.50000  0.33333  0.51852  1.0000
  Ti  Ti16      1.0  0.50000  0.66667  0.62963  1.0000
  Ti  Ti17      1.0  0.83333  0.00000  0.57407  1.0000
  Ti  Ti18      1.0  0.16667  0.33333  0.51852  1.0000
