data_image0
_chemical_formula_structural       Co4Cu2Ge4Co4Cu2Ge4
_chemical_formula_sum              "Co8 Cu4 Ge8"
_cell_length_a       3.81394
_cell_length_b       4.95155
_cell_length_c       39.579
_cell_angle_alpha    90
_cell_angle_beta     90
_cell_angle_gamma    90

_space_group_name_H-M_alt    "P 1"
_space_group_IT_number       1

loop_
  _space_group_symop_operation_xyz
  'x, y, z'

loop_
  _atom_site_type_symbol
  _atom_site_label
  _atom_site_symmetry_multiplicity
  _atom_site_fract_x
  _atom_site_fract_y
  _atom_site_fract_z
  _atom_site_occupancy
  Co  Co1       1.0  0.50000  0.75000  0.45659  1.0000
  Co  Co2       1.0  0.50000  0.25000  0.34341  1.0000
  Co  Co3       1.0  0.50000  0.00000  0.40000  1.0000
  Co  Co4       1.0  0.50000  0.50000  0.40000  1.0000
  Cu  Cu1       1.0  0.00000  0.50000  0.48333  1.0000
  Cu  Cu2       1.0  0.00000  0.00000  0.48333  1.0000
  Ge  Ge1       1.0  0.00000  0.75000  0.42033  1.0000
  Ge  Ge2       1.0  0.00000  0.25000  0.37967  1.0000
  Ge  Ge3       1.0  0.50000  0.75000  0.34930  1.0000
  Ge  Ge4       1.0  0.50000  0.25000  0.45070  1.0000
  Co  Co5       1.0  0.50000  0.75000  0.62325  1.0000
  Co  Co6       1.0  0.50000  0.25000  0.51008  1.0000
  Co  Co7       1.0  0.50000  0.00000  0.56667  1.0000
  Co  Co8       1.0  0.50000  0.50000  0.56667  1.0000
  Cu  Cu3       1.0  0.00000  0.50000  0.65000  1.0000
  Cu  Cu4       1.0  0.00000  0.00000  0.65000  1.0000
  Ge  Ge5       1.0  0.00000  0.75000  0.58700  1.0000
  Ge  Ge6       1.0  0.00000  0.25000  0.54633  1.0000
  Ge  Ge7       1.0  0.50000  0.75000  0.51596  1.0000
  Ge  Ge8       1.0  0.50000  0.25000  0.61737  1.0000
