data_image0
_chemical_formula_structural       Mo8As12
_chemical_formula_sum              "Mo8 As12"
_cell_length_a       3.22174
_cell_length_b       9.59374
_cell_length_c       33.4789
_cell_angle_alpha    79.4403
_cell_angle_beta     90
_cell_angle_gamma    90

_space_group_name_H-M_alt    "P 1"
_space_group_IT_number       1

loop_
  _space_group_symop_operation_xyz
  'x, y, z'

loop_
  _atom_site_type_symbol
  _atom_site_label
  _atom_site_symmetry_multiplicity
  _atom_site_fract_x
  _atom_site_fract_y
  _atom_site_fract_z
  _atom_site_occupancy
  Mo  Mo1       1.0  0.50000  0.37636  0.35066  1.0000
  Mo  Mo2       1.0  0.50000  0.62364  0.51601  1.0000
  Mo  Mo3       1.0  0.50000  0.71572  0.64982  1.0000
  Mo  Mo4       1.0  0.50000  0.28428  0.55018  1.0000
  Mo  Mo5       1.0  0.00000  0.87636  0.51732  1.0000
  Mo  Mo6       1.0  0.00000  0.12364  0.34934  1.0000
  Mo  Mo7       1.0  0.00000  0.21572  0.48316  1.0000
  Mo  Mo8       1.0  0.00000  0.78428  0.38351  1.0000
  As  As1       1.0  0.50000  0.58024  0.39091  1.0000
  As  As2       1.0  0.50000  0.41976  0.47576  1.0000
  As  As3       1.0  0.50000  0.22902  0.62846  1.0000
  As  As4       1.0  0.50000  0.77098  0.57154  1.0000
  As  As5       1.0  0.00000  0.47583  0.56512  1.0000
  As  As6       1.0  0.00000  0.52417  0.63488  1.0000
  As  As7       1.0  0.00000  0.08024  0.55758  1.0000
  As  As8       1.0  0.00000  0.91976  0.64242  1.0000
  As  As9       1.0  0.00000  0.72902  0.46180  1.0000
  As  As10      1.0  0.00000  0.27098  0.40487  1.0000
  As  As11      1.0  0.50000  0.97583  0.39845  1.0000
  As  As12      1.0  0.50000  0.02417  0.46821  1.0000
