data_image0
_chemical_formula_structural       Fe6As12Fe6As12
_chemical_formula_sum              "Fe12 As24"
_cell_length_a       7.74244
_cell_length_b       6.56273
_cell_length_c       35.7933
_cell_angle_alpha    101.969
_cell_angle_beta     75.9281
_cell_angle_gamma    71.3624

_space_group_name_H-M_alt    "P 1"
_space_group_IT_number       1

loop_
  _space_group_symop_operation_xyz
  'x, y, z'

loop_
  _atom_site_type_symbol
  _atom_site_label
  _atom_site_symmetry_multiplicity
  _atom_site_fract_x
  _atom_site_fract_y
  _atom_site_fract_z
  _atom_site_occupancy
  Fe  Fe1       1.0  0.66667  0.00000  0.37037  1.0000
  Fe  Fe2       1.0  0.00000  0.00000  0.48148  1.0000
  Fe  Fe3       1.0  0.33333  0.00000  0.42593  1.0000
  Fe  Fe4       1.0  0.50000  0.50000  0.48148  1.0000
  Fe  Fe5       1.0  0.83333  0.50000  0.42593  1.0000
  Fe  Fe6       1.0  0.16667  0.50000  0.37037  1.0000
  As  As1       1.0  0.60614  0.36074  0.41032  1.0000
  As  As2       1.0  0.93947  0.36074  0.35476  1.0000
  As  As3       1.0  0.27281  0.36074  0.46587  1.0000
  As  As4       1.0  0.72719  0.63926  0.33042  1.0000
  As  As5       1.0  0.06053  0.63926  0.44153  1.0000
  As  As6       1.0  0.39386  0.63926  0.38598  1.0000
  As  As7       1.0  0.67997  0.13926  0.48135  1.0000
  As  As8       1.0  0.01330  0.13926  0.42579  1.0000
  As  As9       1.0  0.34663  0.13926  0.37024  1.0000
  As  As10      1.0  0.32003  0.86074  0.48162  1.0000
  As  As11      1.0  0.65337  0.86074  0.42606  1.0000
  As  As12      1.0  0.98670  0.86074  0.37051  1.0000
  Fe  Fe7       1.0  0.66667  0.00000  0.53704  1.0000
  Fe  Fe8       1.0  0.00000  0.00000  0.64815  1.0000
  Fe  Fe9       1.0  0.33333  0.00000  0.59259  1.0000
  Fe  Fe10      1.0  0.50000  0.50000  0.64815  1.0000
  Fe  Fe11      1.0  0.83333  0.50000  0.59259  1.0000
  Fe  Fe12      1.0  0.16667  0.50000  0.53704  1.0000
  As  As13      1.0  0.60614  0.36074  0.57698  1.0000
  As  As14      1.0  0.93947  0.36074  0.52143  1.0000
  As  As15      1.0  0.27281  0.36074  0.63254  1.0000
  As  As16      1.0  0.72719  0.63926  0.49709  1.0000
  As  As17      1.0  0.06053  0.63926  0.60820  1.0000
  As  As18      1.0  0.39386  0.63926  0.55265  1.0000
  As  As19      1.0  0.67997  0.13926  0.64801  1.0000
  As  As20      1.0  0.01330  0.13926  0.59246  1.0000
  As  As21      1.0  0.34663  0.13926  0.53690  1.0000
  As  As22      1.0  0.32003  0.86074  0.64828  1.0000
  As  As23      1.0  0.65337  0.86074  0.59273  1.0000
  As  As24      1.0  0.98670  0.86074  0.53717  1.0000
