data_image0
_chemical_formula_structural       Mo4Si8
_chemical_formula_sum              "Mo4 Si8"
_cell_length_a       4.50865
_cell_length_b       4.50865
_cell_length_c       31.6184
_cell_angle_alpha    90
_cell_angle_beta     90
_cell_angle_gamma    119.879

_space_group_name_H-M_alt    "P 1"
_space_group_IT_number       1

loop_
  _space_group_symop_operation_xyz
  'x, y, z'

loop_
  _atom_site_type_symbol
  _atom_site_label
  _atom_site_symmetry_multiplicity
  _atom_site_fract_x
  _atom_site_fract_y
  _atom_site_fract_z
  _atom_site_occupancy
  Mo  Mo1       1.0  0.50000  0.50000  0.39286  1.0000
  Mo  Mo2       1.0  0.00000  0.00000  0.46429  1.0000
  Mo  Mo3       1.0  0.50000  0.50000  0.53571  1.0000
  Mo  Mo4       1.0  0.00000  0.00000  0.60714  1.0000
  Si  Si1       1.0  0.33516  0.66484  0.46429  1.0000
  Si  Si2       1.0  0.83516  0.16484  0.39286  1.0000
  Si  Si3       1.0  0.16484  0.83516  0.39286  1.0000
  Si  Si4       1.0  0.66484  0.33516  0.46429  1.0000
  Si  Si5       1.0  0.33516  0.66484  0.60714  1.0000
  Si  Si6       1.0  0.83516  0.16484  0.53571  1.0000
  Si  Si7       1.0  0.16484  0.83516  0.53571  1.0000
  Si  Si8       1.0  0.66484  0.33516  0.60714  1.0000
