data_image0
_chemical_formula_structural       Ca3Pb3Ca3Pb3
_chemical_formula_sum              "Ca6 Pb6"
_cell_length_a       3.55013
_cell_length_b       8.43788
_cell_length_c       34.6692
_cell_angle_alpha    95.2046
_cell_angle_beta     90
_cell_angle_gamma    90

_space_group_name_H-M_alt    "P 1"
_space_group_IT_number       1

loop_
  _space_group_symop_operation_xyz
  'x, y, z'

loop_
  _atom_site_type_symbol
  _atom_site_label
  _atom_site_symmetry_multiplicity
  _atom_site_fract_x
  _atom_site_fract_y
  _atom_site_fract_z
  _atom_site_occupancy
  Ca  Ca1       1.0  0.00000  0.66667  0.37500  1.0000
  Ca  Ca2       1.0  0.00000  0.00000  0.48611  1.0000
  Ca  Ca3       1.0  0.00000  0.33333  0.43056  1.0000
  Pb  Pb1       1.0  0.50000  0.66667  0.45833  1.0000
  Pb  Pb2       1.0  0.50000  0.00000  0.40278  1.0000
  Pb  Pb3       1.0  0.50000  0.33333  0.34722  1.0000
  Ca  Ca4       1.0  0.00000  0.66667  0.54167  1.0000
  Ca  Ca5       1.0  0.00000  0.00000  0.65278  1.0000
  Ca  Ca6       1.0  0.00000  0.33333  0.59722  1.0000
  Pb  Pb4       1.0  0.50000  0.66667  0.62500  1.0000
  Pb  Pb5       1.0  0.50000  0.00000  0.56944  1.0000
  Pb  Pb6       1.0  0.50000  0.33333  0.51389  1.0000
