data_image0
_chemical_formula_structural       Ag5Au15Ag5Au15
_chemical_formula_sum              "Ag10 Au30"
_cell_length_a       5.75513
_cell_length_b       9.09966
_cell_length_c       35.2428
_cell_angle_alpha    75.0368
_cell_angle_beta     90
_cell_angle_gamma    71.5651

_space_group_name_H-M_alt    "P 1"
_space_group_IT_number       1

loop_
  _space_group_symop_operation_xyz
  'x, y, z'

loop_
  _atom_site_type_symbol
  _atom_site_label
  _atom_site_symmetry_multiplicity
  _atom_site_fract_x
  _atom_site_fract_y
  _atom_site_fract_z
  _atom_site_occupancy
  Ag  Ag1       1.0  0.80000  0.40000  0.43000  1.0000
  Ag  Ag2       1.0  0.60000  0.80000  0.47000  1.0000
  Ag  Ag3       1.0  0.00000  0.00000  0.39000  1.0000
  Ag  Ag4       1.0  0.40000  0.20000  0.31000  1.0000
  Ag  Ag5       1.0  0.20000  0.60000  0.35000  1.0000
  Au  Au1       1.0  0.60000  0.30000  0.37000  1.0000
  Au  Au2       1.0  0.40000  0.70000  0.41000  1.0000
  Au  Au3       1.0  0.80000  0.90000  0.33000  1.0000
  Au  Au4       1.0  0.20000  0.10000  0.45000  1.0000
  Au  Au5       1.0  0.00000  0.50000  0.49000  1.0000
  Au  Au6       1.0  0.10000  0.30000  0.37000  1.0000
  Au  Au7       1.0  0.90000  0.70000  0.41000  1.0000
  Au  Au8       1.0  0.30000  0.90000  0.33000  1.0000
  Au  Au9       1.0  0.70000  0.10000  0.45000  1.0000
  Au  Au10      1.0  0.50000  0.50000  0.49000  1.0000
  Au  Au11      1.0  0.70000  0.60000  0.35000  1.0000
  Au  Au12      1.0  0.50000  0.00000  0.39000  1.0000
  Au  Au13      1.0  0.90000  0.20000  0.31000  1.0000
  Au  Au14      1.0  0.30000  0.40000  0.43000  1.0000
  Au  Au15      1.0  0.10000  0.80000  0.47000  1.0000
  Ag  Ag6       1.0  0.80000  0.40000  0.63000  1.0000
  Ag  Ag7       1.0  0.60000  0.80000  0.67000  1.0000
  Ag  Ag8       1.0  0.00000  0.00000  0.59000  1.0000
  Ag  Ag9       1.0  0.40000  0.20000  0.51000  1.0000
  Ag  Ag10      1.0  0.20000  0.60000  0.55000  1.0000
  Au  Au16      1.0  0.60000  0.30000  0.57000  1.0000
  Au  Au17      1.0  0.40000  0.70000  0.61000  1.0000
  Au  Au18      1.0  0.80000  0.90000  0.53000  1.0000
  Au  Au19      1.0  0.20000  0.10000  0.65000  1.0000
  Au  Au20      1.0  0.00000  0.50000  0.69000  1.0000
  Au  Au21      1.0  0.10000  0.30000  0.57000  1.0000
  Au  Au22      1.0  0.90000  0.70000  0.61000  1.0000
  Au  Au23      1.0  0.30000  0.90000  0.53000  1.0000
  Au  Au24      1.0  0.70000  0.10000  0.65000  1.0000
  Au  Au25      1.0  0.50000  0.50000  0.69000  1.0000
  Au  Au26      1.0  0.70000  0.60000  0.55000  1.0000
  Au  Au27      1.0  0.50000  0.00000  0.59000  1.0000
  Au  Au28      1.0  0.90000  0.20000  0.51000  1.0000
  Au  Au29      1.0  0.30000  0.40000  0.63000  1.0000
  Au  Au30      1.0  0.10000  0.80000  0.67000  1.0000
