data_image0
_chemical_formula_structural       InAsPt5
_chemical_formula_sum              "In1 As1 Pt5"
_cell_length_a       4.00653
_cell_length_b       4.00653
_cell_length_c       28.2469
_cell_angle_alpha    90
_cell_angle_beta     90
_cell_angle_gamma    90

_space_group_name_H-M_alt    "P 1"
_space_group_IT_number       1

loop_
  _space_group_symop_operation_xyz
  'x, y, z'

loop_
  _atom_site_type_symbol
  _atom_site_label
  _atom_site_symmetry_multiplicity
  _atom_site_fract_x
  _atom_site_fract_y
  _atom_site_fract_z
  _atom_site_occupancy
  In  In1       1.0  0.50000  0.50000  0.58929  1.0000
  As  As1       1.0  0.00000  0.00000  0.46429  1.0000
  Pt  Pt1       1.0  0.00000  0.50000  0.41055  1.0000
  Pt  Pt2       1.0  0.00000  0.50000  0.51802  1.0000
  Pt  Pt3       1.0  0.50000  0.00000  0.41055  1.0000
  Pt  Pt4       1.0  0.50000  0.00000  0.51802  1.0000
  Pt  Pt5       1.0  0.00000  0.00000  0.58929  1.0000
