data_image0
_chemical_formula_structural       Ca4
_chemical_formula_sum              "Ca4"
_cell_length_a       3.84517
_cell_length_b       3.84517
_cell_length_c       38.1969
_cell_angle_alpha    90
_cell_angle_beta     90
_cell_angle_gamma    120

_space_group_name_H-M_alt    "P 1"
_space_group_IT_number       1

loop_
  _space_group_symop_operation_xyz
  'x, y, z'

loop_
  _atom_site_type_symbol
  _atom_site_label
  _atom_site_symmetry_multiplicity
  _atom_site_fract_x
  _atom_site_fract_y
  _atom_site_fract_z
  _atom_site_occupancy
  Ca  Ca1       1.0  0.33333  0.66667  0.37500  1.0000
  Ca  Ca2       1.0  0.66667  0.33333  0.45833  1.0000
  Ca  Ca3       1.0  0.33333  0.66667  0.54167  1.0000
  Ca  Ca4       1.0  0.66667  0.33333  0.62500  1.0000
