data_image0
_chemical_formula_structural       Au4Ca4
_chemical_formula_sum              "Au4 Ca4"
_cell_length_a       4.57064
_cell_length_b       5.77272
_cell_length_c       29.628
_cell_angle_alpha    91.5428
_cell_angle_beta     90
_cell_angle_gamma    90

_space_group_name_H-M_alt    "P 1"
_space_group_IT_number       1

loop_
  _space_group_symop_operation_xyz
  'x, y, z'

loop_
  _atom_site_type_symbol
  _atom_site_label
  _atom_site_symmetry_multiplicity
  _atom_site_fract_x
  _atom_site_fract_y
  _atom_site_fract_z
  _atom_site_occupancy
  Au  Au1       1.0  0.75000  0.01665  0.42738  1.0000
  Au  Au2       1.0  0.25000  0.73335  0.44762  1.0000
  Au  Au3       1.0  0.75000  0.26665  0.55238  1.0000
  Au  Au4       1.0  0.25000  0.98335  0.57262  1.0000
  Ca  Ca1       1.0  0.75000  0.50609  0.39242  1.0000
  Ca  Ca2       1.0  0.25000  0.24391  0.48258  1.0000
  Ca  Ca3       1.0  0.75000  0.75609  0.51742  1.0000
  Ca  Ca4       1.0  0.25000  0.49391  0.60758  1.0000
