data_image0
_chemical_formula_structural       Co4Sb4Co4Sb4Co4Sb4
_chemical_formula_sum              "Co12 Sb12"
_cell_length_a       3.81885
_cell_length_b       10.9505
_cell_length_c       38.1885
_cell_angle_alpha    110.41
_cell_angle_beta     120
_cell_angle_gamma    79.9581

_space_group_name_H-M_alt    "P 1"
_space_group_IT_number       1

loop_
  _space_group_symop_operation_xyz
  'x, y, z'

loop_
  _atom_site_type_symbol
  _atom_site_label
  _atom_site_symmetry_multiplicity
  _atom_site_fract_x
  _atom_site_fract_y
  _atom_site_fract_z
  _atom_site_occupancy
  Co  Co1       1.0  0.00000  0.00000  0.43125  1.0000
  Co  Co2       1.0  0.00000  0.50000  0.38125  1.0000
  Co  Co3       1.0  0.00000  0.25000  0.35625  1.0000
  Co  Co4       1.0  0.00000  0.75000  0.40625  1.0000
  Sb  Sb1       1.0  0.66667  0.12500  0.37708  1.0000
  Sb  Sb2       1.0  0.66667  0.62500  0.42708  1.0000
  Sb  Sb3       1.0  0.33333  0.37500  0.43542  1.0000
  Sb  Sb4       1.0  0.33333  0.87500  0.38542  1.0000
  Co  Co5       1.0  0.00000  0.00000  0.53125  1.0000
  Co  Co6       1.0  0.00000  0.50000  0.48125  1.0000
  Co  Co7       1.0  0.00000  0.25000  0.45625  1.0000
  Co  Co8       1.0  0.00000  0.75000  0.50625  1.0000
  Sb  Sb5       1.0  0.66667  0.12500  0.47708  1.0000
  Sb  Sb6       1.0  0.66667  0.62500  0.52708  1.0000
  Sb  Sb7       1.0  0.33333  0.37500  0.53542  1.0000
  Sb  Sb8       1.0  0.33333  0.87500  0.48542  1.0000
  Co  Co9       1.0  0.00000  0.00000  0.63125  1.0000
  Co  Co10      1.0  0.00000  0.50000  0.58125  1.0000
  Co  Co11      1.0  0.00000  0.25000  0.55625  1.0000
  Co  Co12      1.0  0.00000  0.75000  0.60625  1.0000
  Sb  Sb9       1.0  0.66667  0.12500  0.57708  1.0000
  Sb  Sb10      1.0  0.66667  0.62500  0.62708  1.0000
  Sb  Sb11      1.0  0.33333  0.37500  0.63542  1.0000
  Sb  Sb12      1.0  0.33333  0.87500  0.58542  1.0000
