data_image0
_chemical_formula_structural       Au8Ca4
_chemical_formula_sum              "Au8 Ca4"
_cell_length_a       5.82894
_cell_length_b       5.82894
_cell_length_c       31.9691
_cell_angle_alpha    89.1035
_cell_angle_beta     89.1035
_cell_angle_gamma    73.6234

_space_group_name_H-M_alt    "P 1"
_space_group_IT_number       1

loop_
  _space_group_symop_operation_xyz
  'x, y, z'

loop_
  _atom_site_type_symbol
  _atom_site_label
  _atom_site_symmetry_multiplicity
  _atom_site_fract_x
  _atom_site_fract_y
  _atom_site_fract_z
  _atom_site_occupancy
  Au  Au1       1.0  0.33293  0.90991  0.39524  1.0000
  Au  Au2       1.0  0.91707  0.34009  0.47976  1.0000
  Au  Au3       1.0  0.90991  0.33293  0.39524  1.0000
  Au  Au4       1.0  0.34009  0.91707  0.47976  1.0000
  Au  Au5       1.0  0.08293  0.65991  0.52024  1.0000
  Au  Au6       1.0  0.66707  0.09009  0.60476  1.0000
  Au  Au7       1.0  0.65991  0.08293  0.52024  1.0000
  Au  Au8       1.0  0.09009  0.66707  0.60476  1.0000
  Ca  Ca1       1.0  0.40452  0.40452  0.44242  1.0000
  Ca  Ca2       1.0  0.84548  0.84548  0.43258  1.0000
  Ca  Ca3       1.0  0.15452  0.15452  0.56742  1.0000
  Ca  Ca4       1.0  0.59548  0.59548  0.55758  1.0000
