data_image0
_chemical_formula_structural       Fe6Sb6As6Fe6Sb6As6
_chemical_formula_sum              "Fe12 Sb12 As12"
_cell_length_a       8.14232
_cell_length_b       6.87335
_cell_length_c       37.5396
_cell_angle_alpha    102.15
_cell_angle_beta     76.384
_cell_angle_gamma    71.1286

_space_group_name_H-M_alt    "P 1"
_space_group_IT_number       1

loop_
  _space_group_symop_operation_xyz
  'x, y, z'

loop_
  _atom_site_type_symbol
  _atom_site_label
  _atom_site_symmetry_multiplicity
  _atom_site_fract_x
  _atom_site_fract_y
  _atom_site_fract_z
  _atom_site_occupancy
  Fe  Fe1       1.0  0.52711  0.69205  0.42822  1.0000
  Fe  Fe2       1.0  0.86044  0.69205  0.37267  1.0000
  Fe  Fe3       1.0  0.19378  0.69205  0.48378  1.0000
  Fe  Fe4       1.0  0.67819  0.19205  0.47858  1.0000
  Fe  Fe5       1.0  0.01152  0.19205  0.42303  1.0000
  Fe  Fe6       1.0  0.34486  0.19205  0.36747  1.0000
  Sb  Sb1       1.0  0.67108  0.05741  0.37044  1.0000
  Sb  Sb2       1.0  0.00442  0.05741  0.48155  1.0000
  Sb  Sb3       1.0  0.33775  0.05741  0.42600  1.0000
  Sb  Sb4       1.0  0.62398  0.55741  0.35474  1.0000
  Sb  Sb5       1.0  0.95731  0.55741  0.46585  1.0000
  Sb  Sb6       1.0  0.29064  0.55741  0.41029  1.0000
  As  As1       1.0  0.69963  0.34294  0.42754  1.0000
  As  As2       1.0  0.03296  0.34294  0.37199  1.0000
  As  As3       1.0  0.36630  0.34294  0.48310  1.0000
  As  As4       1.0  0.40508  0.84294  0.32936  1.0000
  As  As5       1.0  0.73841  0.84294  0.44047  1.0000
  As  As6       1.0  0.07174  0.84294  0.38492  1.0000
  Fe  Fe7       1.0  0.52711  0.69205  0.59489  1.0000
  Fe  Fe8       1.0  0.86044  0.69205  0.53933  1.0000
  Fe  Fe9       1.0  0.19378  0.69205  0.65044  1.0000
  Fe  Fe10      1.0  0.67819  0.19205  0.64525  1.0000
  Fe  Fe11      1.0  0.01152  0.19205  0.58969  1.0000
  Fe  Fe12      1.0  0.34486  0.19205  0.53414  1.0000
  Sb  Sb7       1.0  0.67108  0.05741  0.53711  1.0000
  Sb  Sb8       1.0  0.00442  0.05741  0.64822  1.0000
  Sb  Sb9       1.0  0.33775  0.05741  0.59266  1.0000
  Sb  Sb10      1.0  0.62398  0.55741  0.52140  1.0000
  Sb  Sb11      1.0  0.95731  0.55741  0.63252  1.0000
  Sb  Sb12      1.0  0.29064  0.55741  0.57696  1.0000
  As  As7       1.0  0.69963  0.34294  0.59421  1.0000
  As  As8       1.0  0.03296  0.34294  0.53866  1.0000
  As  As9       1.0  0.36630  0.34294  0.64977  1.0000
  As  As10      1.0  0.40508  0.84294  0.49603  1.0000
  As  As11      1.0  0.73841  0.84294  0.60714  1.0000
  As  As12      1.0  0.07174  0.84294  0.55158  1.0000
