data_image0
_chemical_formula_structural       Ni6Sb2Ni6Sb2
_chemical_formula_sum              "Ni12 Sb4"
_cell_length_a       4.21041
_cell_length_b       4.48141
_cell_length_c       31.6023
_cell_angle_alpha    90
_cell_angle_beta     90
_cell_angle_gamma    90

_space_group_name_H-M_alt    "P 1"
_space_group_IT_number       1

loop_
  _space_group_symop_operation_xyz
  'x, y, z'

loop_
  _atom_site_type_symbol
  _atom_site_label
  _atom_site_symmetry_multiplicity
  _atom_site_fract_x
  _atom_site_fract_y
  _atom_site_fract_z
  _atom_site_occupancy
  Ni  Ni1       1.0  0.50000  0.17003  0.43752  1.0000
  Ni  Ni2       1.0  0.50000  0.17003  0.35415  1.0000
  Ni  Ni3       1.0  0.00000  0.82997  0.43748  1.0000
  Ni  Ni4       1.0  0.00000  0.82997  0.35419  1.0000
  Ni  Ni5       1.0  0.00000  0.31952  0.39583  1.0000
  Ni  Ni6       1.0  0.50000  0.68048  0.47917  1.0000
  Sb  Sb1       1.0  0.50000  0.67763  0.39583  1.0000
  Sb  Sb2       1.0  0.00000  0.32237  0.47917  1.0000
  Ni  Ni7       1.0  0.50000  0.17003  0.60419  1.0000
  Ni  Ni8       1.0  0.50000  0.17003  0.52081  1.0000
  Ni  Ni9       1.0  0.00000  0.82997  0.60415  1.0000
  Ni  Ni10      1.0  0.00000  0.82997  0.52085  1.0000
  Ni  Ni11      1.0  0.00000  0.31952  0.56250  1.0000
  Ni  Ni12      1.0  0.50000  0.68048  0.64583  1.0000
  Sb  Sb3       1.0  0.50000  0.67763  0.56250  1.0000
  Sb  Sb4       1.0  0.00000  0.32237  0.64583  1.0000
