data_image0
_chemical_formula_structural       Al4Au8Al4Au8Al4Au8
_chemical_formula_sum              "Al12 Au24"
_cell_length_a       3.29676
_cell_length_b       18.0744
_cell_length_c       32.9676
_cell_angle_alpha    100.51
_cell_angle_beta     90
_cell_angle_gamma    90

_space_group_name_H-M_alt    "P 1"
_space_group_IT_number       1

loop_
  _space_group_symop_operation_xyz
  'x, y, z'

loop_
  _atom_site_type_symbol
  _atom_site_label
  _atom_site_symmetry_multiplicity
  _atom_site_fract_x
  _atom_site_fract_y
  _atom_site_fract_z
  _atom_site_occupancy
  Al  Al1       1.0  0.00000  0.00000  0.43750  1.0000
  Al  Al2       1.0  0.00000  0.50000  0.38750  1.0000
  Al  Al3       1.0  0.50000  0.25000  0.41250  1.0000
  Al  Al4       1.0  0.50000  0.75000  0.36250  1.0000
  Au  Au1       1.0  0.50000  0.07726  0.39523  1.0000
  Au  Au2       1.0  0.50000  0.57726  0.44523  1.0000
  Au  Au3       1.0  0.00000  0.17274  0.35477  1.0000
  Au  Au4       1.0  0.00000  0.67274  0.40477  1.0000
  Au  Au5       1.0  0.00000  0.32726  0.37023  1.0000
  Au  Au6       1.0  0.00000  0.82726  0.42023  1.0000
  Au  Au7       1.0  0.50000  0.42274  0.42977  1.0000
  Au  Au8       1.0  0.50000  0.92274  0.37977  1.0000
  Al  Al5       1.0  0.00000  0.00000  0.53750  1.0000
  Al  Al6       1.0  0.00000  0.50000  0.48750  1.0000
  Al  Al7       1.0  0.50000  0.25000  0.51250  1.0000
  Al  Al8       1.0  0.50000  0.75000  0.46250  1.0000
  Au  Au9       1.0  0.50000  0.07726  0.49523  1.0000
  Au  Au10      1.0  0.50000  0.57726  0.54523  1.0000
  Au  Au11      1.0  0.00000  0.17274  0.45477  1.0000
  Au  Au12      1.0  0.00000  0.67274  0.50477  1.0000
  Au  Au13      1.0  0.00000  0.32726  0.47023  1.0000
  Au  Au14      1.0  0.00000  0.82726  0.52023  1.0000
  Au  Au15      1.0  0.50000  0.42274  0.52977  1.0000
  Au  Au16      1.0  0.50000  0.92274  0.47977  1.0000
  Al  Al9       1.0  0.00000  0.00000  0.63750  1.0000
  Al  Al10      1.0  0.00000  0.50000  0.58750  1.0000
  Al  Al11      1.0  0.50000  0.25000  0.61250  1.0000
  Al  Al12      1.0  0.50000  0.75000  0.56250  1.0000
  Au  Au17      1.0  0.50000  0.07726  0.59523  1.0000
  Au  Au18      1.0  0.50000  0.57726  0.64523  1.0000
  Au  Au19      1.0  0.00000  0.17274  0.55477  1.0000
  Au  Au20      1.0  0.00000  0.67274  0.60477  1.0000
  Au  Au21      1.0  0.00000  0.32726  0.57023  1.0000
  Au  Au22      1.0  0.00000  0.82726  0.62023  1.0000
  Au  Au23      1.0  0.50000  0.42274  0.62977  1.0000
  Au  Au24      1.0  0.50000  0.92274  0.57977  1.0000
