data_image0
_chemical_formula_structural       Ca6Zn6Si6Ca6Zn6Si6
_chemical_formula_sum              "Ca12 Zn12 Si12"
_cell_length_a       11.0529
_cell_length_b       9.12445
_cell_length_c       33.4208
_cell_angle_alpha    103.234
_cell_angle_beta     79.1066
_cell_angle_gamma    69.751

_space_group_name_H-M_alt    "P 1"
_space_group_IT_number       1

loop_
  _space_group_symop_operation_xyz
  'x, y, z'

loop_
  _atom_site_type_symbol
  _atom_site_label
  _atom_site_symmetry_multiplicity
  _atom_site_fract_x
  _atom_site_fract_y
  _atom_site_fract_z
  _atom_site_occupancy
  Ca  Ca1       1.0  0.83333  0.50000  0.39583  1.0000
  Ca  Ca2       1.0  0.16667  0.50000  0.43750  1.0000
  Ca  Ca3       1.0  0.50000  0.50000  0.47917  1.0000
  Ca  Ca4       1.0  0.00000  0.00000  0.47917  1.0000
  Ca  Ca5       1.0  0.33333  0.00000  0.39583  1.0000
  Ca  Ca6       1.0  0.66667  0.00000  0.43750  1.0000
  Zn  Zn1       1.0  0.02778  0.25000  0.43056  1.0000
  Zn  Zn2       1.0  0.36111  0.25000  0.47222  1.0000
  Zn  Zn3       1.0  0.69444  0.25000  0.38889  1.0000
  Zn  Zn4       1.0  0.63889  0.75000  0.48611  1.0000
  Zn  Zn5       1.0  0.97222  0.75000  0.40278  1.0000
  Zn  Zn6       1.0  0.30556  0.75000  0.44444  1.0000
  Si  Si1       1.0  0.80556  0.25000  0.44444  1.0000
  Si  Si2       1.0  0.13889  0.25000  0.48611  1.0000
  Si  Si3       1.0  0.47222  0.25000  0.40278  1.0000
  Si  Si4       1.0  0.86111  0.75000  0.47222  1.0000
  Si  Si5       1.0  0.19444  0.75000  0.38889  1.0000
  Si  Si6       1.0  0.52778  0.75000  0.43056  1.0000
  Ca  Ca7       1.0  0.83333  0.50000  0.52083  1.0000
  Ca  Ca8       1.0  0.16667  0.50000  0.56250  1.0000
  Ca  Ca9       1.0  0.50000  0.50000  0.60417  1.0000
  Ca  Ca10      1.0  0.00000  0.00000  0.60417  1.0000
  Ca  Ca11      1.0  0.33333  0.00000  0.52083  1.0000
  Ca  Ca12      1.0  0.66667  0.00000  0.56250  1.0000
  Zn  Zn7       1.0  0.02778  0.25000  0.55556  1.0000
  Zn  Zn8       1.0  0.36111  0.25000  0.59722  1.0000
  Zn  Zn9       1.0  0.69444  0.25000  0.51389  1.0000
  Zn  Zn10      1.0  0.63889  0.75000  0.61111  1.0000
  Zn  Zn11      1.0  0.97222  0.75000  0.52778  1.0000
  Zn  Zn12      1.0  0.30556  0.75000  0.56944  1.0000
  Si  Si7       1.0  0.80556  0.25000  0.56944  1.0000
  Si  Si8       1.0  0.13889  0.25000  0.61111  1.0000
  Si  Si9       1.0  0.47222  0.25000  0.52778  1.0000
  Si  Si10      1.0  0.86111  0.75000  0.59722  1.0000
  Si  Si11      1.0  0.19444  0.75000  0.51389  1.0000
  Si  Si12      1.0  0.52778  0.75000  0.55556  1.0000
