data_image0
_chemical_formula_structural       Pd3AuPd3Au
_chemical_formula_sum              "Pd6 Au2"
_cell_length_a       3.92431
_cell_length_b       3.92431
_cell_length_c       31.3945
_cell_angle_alpha    90
_cell_angle_beta     90
_cell_angle_gamma    90

_space_group_name_H-M_alt    "P 1"
_space_group_IT_number       1

loop_
  _space_group_symop_operation_xyz
  'x, y, z'

loop_
  _atom_site_type_symbol
  _atom_site_label
  _atom_site_symmetry_multiplicity
  _atom_site_fract_x
  _atom_site_fract_y
  _atom_site_fract_z
  _atom_site_occupancy
  Pd  Pd1       1.0  0.50000  0.00000  0.40625  1.0000
  Pd  Pd2       1.0  0.00000  0.50000  0.40625  1.0000
  Pd  Pd3       1.0  0.50000  0.50000  0.46875  1.0000
  Au  Au1       1.0  0.00000  0.00000  0.46875  1.0000
  Pd  Pd4       1.0  0.50000  0.00000  0.53125  1.0000
  Pd  Pd5       1.0  0.00000  0.50000  0.53125  1.0000
  Pd  Pd6       1.0  0.50000  0.50000  0.59375  1.0000
  Au  Au2       1.0  0.00000  0.00000  0.59375  1.0000
