data_image0
_chemical_formula_structural       Al12Ni4
_chemical_formula_sum              "Al12 Ni4"
_cell_length_a       4.8072
_cell_length_b       6.55725
_cell_length_c       29.1792
_cell_angle_alpha    90
_cell_angle_beta     90
_cell_angle_gamma    90

_space_group_name_H-M_alt    "P 1"
_space_group_IT_number       1

loop_
  _space_group_symop_operation_xyz
  'x, y, z'

loop_
  _atom_site_type_symbol
  _atom_site_label
  _atom_site_symmetry_multiplicity
  _atom_site_fract_x
  _atom_site_fract_y
  _atom_site_fract_z
  _atom_site_occupancy
  Al  Al1       1.0  0.91517  0.00857  0.53125  1.0000
  Al  Al2       1.0  0.36106  0.17143  0.58010  1.0000
  Al  Al3       1.0  0.36106  0.17143  0.48240  1.0000
  Al  Al4       1.0  0.86106  0.32857  0.60740  1.0000
  Al  Al5       1.0  0.13894  0.67143  0.58010  1.0000
  Al  Al6       1.0  0.63894  0.82857  0.45510  1.0000
  Al  Al7       1.0  0.13894  0.67143  0.48240  1.0000
  Al  Al8       1.0  0.63894  0.82857  0.60740  1.0000
  Al  Al9       1.0  0.86106  0.32857  0.45510  1.0000
  Al  Al10      1.0  0.58483  0.50857  0.53125  1.0000
  Al  Al11      1.0  0.08483  0.99143  0.40625  1.0000
  Al  Al12      1.0  0.41517  0.49143  0.40625  1.0000
  Ni  Ni1       1.0  0.44384  0.87125  0.53125  1.0000
  Ni  Ni2       1.0  0.05616  0.37125  0.53125  1.0000
  Ni  Ni3       1.0  0.55616  0.12875  0.40625  1.0000
  Ni  Ni4       1.0  0.94384  0.62875  0.40625  1.0000
