data_image0
_chemical_formula_structural       Ca6Al4Si4
_chemical_formula_sum              "Ca6 Al4 Si4"
_cell_length_a       4.04908
_cell_length_b       4.49008
_cell_length_c       55.1332
_cell_angle_alpha    90
_cell_angle_beta     90
_cell_angle_gamma    90

_space_group_name_H-M_alt    "P 1"
_space_group_IT_number       1

loop_
  _space_group_symop_operation_xyz
  'x, y, z'

loop_
  _atom_site_type_symbol
  _atom_site_label
  _atom_site_symmetry_multiplicity
  _atom_site_fract_x
  _atom_site_fract_y
  _atom_site_fract_z
  _atom_site_occupancy
  Ca  Ca1       1.0  0.00000  0.50000  0.48810  1.0000
  Ca  Ca2       1.0  0.50000  0.50000  0.42591  1.0000
  Ca  Ca3       1.0  0.00000  0.00000  0.38361  1.0000
  Ca  Ca4       1.0  0.50000  0.00000  0.65476  1.0000
  Ca  Ca5       1.0  0.00000  0.00000  0.59258  1.0000
  Ca  Ca6       1.0  0.50000  0.50000  0.55028  1.0000
  Al  Al1       1.0  0.00000  0.50000  0.34430  1.0000
  Al  Al2       1.0  0.50000  0.00000  0.46522  1.0000
  Al  Al3       1.0  0.50000  0.00000  0.51097  1.0000
  Al  Al4       1.0  0.00000  0.50000  0.63189  1.0000
  Si  Si1       1.0  0.50000  0.50000  0.36952  1.0000
  Si  Si2       1.0  0.00000  0.00000  0.44000  1.0000
  Si  Si3       1.0  0.00000  0.00000  0.53619  1.0000
  Si  Si4       1.0  0.50000  0.50000  0.60667  1.0000
