data_image0
_chemical_formula_structural       Si8Rh8Si8Rh8Si8Rh8Si8Rh8
_chemical_formula_sum              "Si32 Rh32"
_cell_length_a       6.36415
_cell_length_b       11.4816
_cell_length_c       33.8241
_cell_angle_alpha    105.534
_cell_angle_beta     90
_cell_angle_gamma    90

_space_group_name_H-M_alt    "P 1"
_space_group_IT_number       1

loop_
  _space_group_symop_operation_xyz
  'x, y, z'

loop_
  _atom_site_type_symbol
  _atom_site_label
  _atom_site_symmetry_multiplicity
  _atom_site_fract_x
  _atom_site_fract_y
  _atom_site_fract_z
  _atom_site_occupancy
  Si  Si1       1.0  0.94378  0.15761  0.37796  1.0000
  Si  Si2       1.0  0.94378  0.65761  0.33251  1.0000
  Si  Si3       1.0  0.05622  0.34239  0.34931  1.0000
  Si  Si4       1.0  0.05622  0.84239  0.39476  1.0000
  Si  Si5       1.0  0.55622  0.40761  0.40069  1.0000
  Si  Si6       1.0  0.55622  0.90761  0.35524  1.0000
  Si  Si7       1.0  0.44378  0.09239  0.32658  1.0000
  Si  Si8       1.0  0.44378  0.59239  0.37204  1.0000
  Rh  Rh1       1.0  0.29735  0.24856  0.38623  1.0000
  Rh  Rh2       1.0  0.29735  0.74856  0.34078  1.0000
  Rh  Rh3       1.0  0.70265  0.25144  0.34104  1.0000
  Rh  Rh4       1.0  0.70265  0.75144  0.38649  1.0000
  Rh  Rh5       1.0  0.20265  0.49856  0.40896  1.0000
  Rh  Rh6       1.0  0.20265  0.99856  0.36351  1.0000
  Rh  Rh7       1.0  0.79735  0.00144  0.31831  1.0000
  Rh  Rh8       1.0  0.79735  0.50144  0.36377  1.0000
  Si  Si9       1.0  0.94378  0.15761  0.46887  1.0000
  Si  Si10      1.0  0.94378  0.65761  0.42342  1.0000
  Si  Si11      1.0  0.05622  0.34239  0.44022  1.0000
  Si  Si12      1.0  0.05622  0.84239  0.48567  1.0000
  Si  Si13      1.0  0.55622  0.40761  0.49160  1.0000
  Si  Si14      1.0  0.55622  0.90761  0.44615  1.0000
  Si  Si15      1.0  0.44378  0.09239  0.41749  1.0000
  Si  Si16      1.0  0.44378  0.59239  0.46294  1.0000
  Rh  Rh9       1.0  0.29735  0.24856  0.47714  1.0000
  Rh  Rh10      1.0  0.29735  0.74856  0.43169  1.0000
  Rh  Rh11      1.0  0.70265  0.25144  0.43195  1.0000
  Rh  Rh12      1.0  0.70265  0.75144  0.47740  1.0000
  Rh  Rh13      1.0  0.20265  0.49856  0.49987  1.0000
  Rh  Rh14      1.0  0.20265  0.99856  0.45441  1.0000
  Rh  Rh15      1.0  0.79735  0.00144  0.40922  1.0000
  Rh  Rh16      1.0  0.79735  0.50144  0.45468  1.0000
  Si  Si17      1.0  0.94378  0.15761  0.55978  1.0000
  Si  Si18      1.0  0.94378  0.65761  0.51433  1.0000
  Si  Si19      1.0  0.05622  0.34239  0.53113  1.0000
  Si  Si20      1.0  0.05622  0.84239  0.57658  1.0000
  Si  Si21      1.0  0.55622  0.40761  0.58251  1.0000
  Si  Si22      1.0  0.55622  0.90761  0.53706  1.0000
  Si  Si23      1.0  0.44378  0.09239  0.50840  1.0000
  Si  Si24      1.0  0.44378  0.59239  0.55385  1.0000
  Rh  Rh17      1.0  0.29735  0.24856  0.56805  1.0000
  Rh  Rh18      1.0  0.29735  0.74856  0.52260  1.0000
  Rh  Rh19      1.0  0.70265  0.25144  0.52286  1.0000
  Rh  Rh20      1.0  0.70265  0.75144  0.56831  1.0000
  Rh  Rh21      1.0  0.20265  0.49856  0.59078  1.0000
  Rh  Rh22      1.0  0.20265  0.99856  0.54532  1.0000
  Rh  Rh23      1.0  0.79735  0.00144  0.50013  1.0000
  Rh  Rh24      1.0  0.79735  0.50144  0.54559  1.0000
  Si  Si25      1.0  0.94378  0.15761  0.65069  1.0000
  Si  Si26      1.0  0.94378  0.65761  0.60524  1.0000
  Si  Si27      1.0  0.05622  0.34239  0.62204  1.0000
  Si  Si28      1.0  0.05622  0.84239  0.66749  1.0000
  Si  Si29      1.0  0.55622  0.40761  0.67342  1.0000
  Si  Si30      1.0  0.55622  0.90761  0.62796  1.0000
  Si  Si31      1.0  0.44378  0.09239  0.59931  1.0000
  Si  Si32      1.0  0.44378  0.59239  0.64476  1.0000
  Rh  Rh25      1.0  0.29735  0.24856  0.65896  1.0000
  Rh  Rh26      1.0  0.29735  0.74856  0.61351  1.0000
  Rh  Rh27      1.0  0.70265  0.25144  0.61377  1.0000
  Rh  Rh28      1.0  0.70265  0.75144  0.65922  1.0000
  Rh  Rh29      1.0  0.20265  0.49856  0.68169  1.0000
  Rh  Rh30      1.0  0.20265  0.99856  0.63623  1.0000
  Rh  Rh31      1.0  0.79735  0.00144  0.59104  1.0000
  Rh  Rh32      1.0  0.79735  0.50144  0.63649  1.0000
