data_image0
_chemical_formula_structural       H8Ni8
_chemical_formula_sum              "H8 Ni8"
_cell_length_a       2.59499
_cell_length_b       3.66987
_cell_length_c       31.1399
_cell_angle_alpha    90
_cell_angle_beta     90
_cell_angle_gamma    90

_space_group_name_H-M_alt    "P 1"
_space_group_IT_number       1

loop_
  _space_group_symop_operation_xyz
  'x, y, z'

loop_
  _atom_site_type_symbol
  _atom_site_label
  _atom_site_symmetry_multiplicity
  _atom_site_fract_x
  _atom_site_fract_y
  _atom_site_fract_z
  _atom_site_occupancy
  H   H1        1.0  0.50000  0.00000  0.64583  1.0000
  H   H2        1.0  0.50000  0.00000  0.56250  1.0000
  H   H3        1.0  0.00000  0.50000  0.52083  1.0000
  H   H4        1.0  0.00000  0.50000  0.60417  1.0000
  H   H5        1.0  0.50000  0.00000  0.47917  1.0000
  H   H6        1.0  0.50000  0.00000  0.39583  1.0000
  H   H7        1.0  0.00000  0.50000  0.35417  1.0000
  H   H8        1.0  0.00000  0.50000  0.43750  1.0000
  Ni  Ni1       1.0  0.00000  0.00000  0.60417  1.0000
  Ni  Ni2       1.0  0.00000  0.00000  0.52083  1.0000
  Ni  Ni3       1.0  0.50000  0.50000  0.64583  1.0000
  Ni  Ni4       1.0  0.50000  0.50000  0.56250  1.0000
  Ni  Ni5       1.0  0.00000  0.00000  0.43750  1.0000
  Ni  Ni6       1.0  0.00000  0.00000  0.35417  1.0000
  Ni  Ni7       1.0  0.50000  0.50000  0.47917  1.0000
  Ni  Ni8       1.0  0.50000  0.50000  0.39583  1.0000
