data_image0
_chemical_formula_structural       Si4Pd4Si4Pd4
_chemical_formula_sum              "Si8 Pd8"
_cell_length_a       3.43298
_cell_length_b       5.55812
_cell_length_c       36.6094
_cell_angle_alpha    90
_cell_angle_beta     90
_cell_angle_gamma    90

_space_group_name_H-M_alt    "P 1"
_space_group_IT_number       1

loop_
  _space_group_symop_operation_xyz
  'x, y, z'

loop_
  _atom_site_type_symbol
  _atom_site_label
  _atom_site_symmetry_multiplicity
  _atom_site_fract_x
  _atom_site_fract_y
  _atom_site_fract_z
  _atom_site_occupancy
  Si  Si1       1.0  0.25000  0.67731  0.49136  1.0000
  Si  Si2       1.0  0.75000  0.32269  0.46698  1.0000
  Si  Si3       1.0  0.25000  0.17731  0.38364  1.0000
  Si  Si4       1.0  0.75000  0.82269  0.40802  1.0000
  Pd  Pd1       1.0  0.25000  0.50423  0.42768  1.0000
  Pd  Pd2       1.0  0.75000  0.49577  0.36399  1.0000
  Pd  Pd3       1.0  0.25000  0.00423  0.44732  1.0000
  Pd  Pd4       1.0  0.75000  0.99577  0.34435  1.0000
  Si  Si5       1.0  0.25000  0.67731  0.65802  1.0000
  Si  Si6       1.0  0.75000  0.32269  0.63364  1.0000
  Si  Si7       1.0  0.25000  0.17731  0.55031  1.0000
  Si  Si8       1.0  0.75000  0.82269  0.57469  1.0000
  Pd  Pd5       1.0  0.25000  0.50423  0.59435  1.0000
  Pd  Pd6       1.0  0.75000  0.49577  0.53065  1.0000
  Pd  Pd7       1.0  0.25000  0.00423  0.61399  1.0000
  Pd  Pd8       1.0  0.75000  0.99577  0.51101  1.0000
