data_image0
_chemical_formula_structural       Pb10
_chemical_formula_sum              "Pb10"
_cell_length_a       3.48479
_cell_length_b       10.4544
_cell_length_c       32.8755
_cell_angle_alpha    92.0249
_cell_angle_beta     90
_cell_angle_gamma    90

_space_group_name_H-M_alt    "P 1"
_space_group_IT_number       1

loop_
  _space_group_symop_operation_xyz
  'x, y, z'

loop_
  _atom_site_type_symbol
  _atom_site_label
  _atom_site_symmetry_multiplicity
  _atom_site_fract_x
  _atom_site_fract_y
  _atom_site_fract_z
  _atom_site_occupancy
  Pb  Pb1       1.0  0.00000  0.18750  0.58750  1.0000
  Pb  Pb2       1.0  0.00000  0.73750  0.53750  1.0000
  Pb  Pb3       1.0  0.00000  0.38750  0.38750  1.0000
  Pb  Pb4       1.0  0.00000  0.28750  0.48750  1.0000
  Pb  Pb5       1.0  0.00000  0.83750  0.43750  1.0000
  Pb  Pb6       1.0  0.50000  0.01250  0.51250  1.0000
  Pb  Pb7       1.0  0.50000  0.56250  0.46250  1.0000
  Pb  Pb8       1.0  0.50000  0.46250  0.56250  1.0000
  Pb  Pb9       1.0  0.50000  0.11250  0.41250  1.0000
  Pb  Pb10      1.0  0.50000  0.91250  0.61250  1.0000
