data_image0
_chemical_formula_structural       Pt12V4
_chemical_formula_sum              "Pt12 V4"
_cell_length_a       4.75386
_cell_length_b       4.75386
_cell_length_c       32.5072
_cell_angle_alpha    90
_cell_angle_beta     90
_cell_angle_gamma    110.522

_space_group_name_H-M_alt    "P 1"
_space_group_IT_number       1

loop_
  _space_group_symop_operation_xyz
  'x, y, z'

loop_
  _atom_site_type_symbol
  _atom_site_label
  _atom_site_symmetry_multiplicity
  _atom_site_fract_x
  _atom_site_fract_y
  _atom_site_fract_z
  _atom_site_occupancy
  Pt  Pt1       1.0  0.00000  0.50000  0.35417  1.0000
  Pt  Pt2       1.0  0.50000  0.00000  0.43750  1.0000
  Pt  Pt3       1.0  0.50000  0.00000  0.35417  1.0000
  Pt  Pt4       1.0  0.00000  0.50000  0.43750  1.0000
  Pt  Pt5       1.0  0.00000  0.00000  0.39583  1.0000
  Pt  Pt6       1.0  0.50000  0.50000  0.47917  1.0000
  Pt  Pt7       1.0  0.00000  0.50000  0.52083  1.0000
  Pt  Pt8       1.0  0.50000  0.00000  0.60417  1.0000
  Pt  Pt9       1.0  0.50000  0.00000  0.52083  1.0000
  Pt  Pt10      1.0  0.00000  0.50000  0.60417  1.0000
  Pt  Pt11      1.0  0.00000  0.00000  0.56250  1.0000
  Pt  Pt12      1.0  0.50000  0.50000  0.64583  1.0000
  V   V1        1.0  0.50000  0.50000  0.39583  1.0000
  V   V2        1.0  0.00000  0.00000  0.47917  1.0000
  V   V3        1.0  0.50000  0.50000  0.56250  1.0000
  V   V4        1.0  0.00000  0.00000  0.64583  1.0000
