data_image0
_chemical_formula_structural       Ga12Os6
_chemical_formula_sum              "Ga12 Os6"
_cell_length_a       4.75202
_cell_length_b       4.94485
_cell_length_c       33.4314
_cell_angle_alpha    91.6826
_cell_angle_beta     92.3562
_cell_angle_gamma    103.753

_space_group_name_H-M_alt    "P 1"
_space_group_IT_number       1

loop_
  _space_group_symop_operation_xyz
  'x, y, z'

loop_
  _atom_site_type_symbol
  _atom_site_label
  _atom_site_symmetry_multiplicity
  _atom_site_fract_x
  _atom_site_fract_y
  _atom_site_fract_z
  _atom_site_occupancy
  Ga  Ga1       1.0  0.59941  0.48559  0.42147  1.0000
  Ga  Ga2       1.0  0.04385  0.15225  0.53258  1.0000
  Ga  Ga3       1.0  0.48830  0.81892  0.64369  1.0000
  Ga  Ga4       1.0  0.12282  0.59775  0.38408  1.0000
  Ga  Ga5       1.0  0.56726  0.26441  0.49520  1.0000
  Ga  Ga6       1.0  0.01170  0.93108  0.60631  1.0000
  Ga  Ga7       1.0  0.95615  0.84775  0.46742  1.0000
  Ga  Ga8       1.0  0.40059  0.51441  0.57853  1.0000
  Ga  Ga9       1.0  0.51170  0.18108  0.35631  1.0000
  Ga  Ga10      1.0  0.98830  0.06892  0.39369  1.0000
  Ga  Ga11      1.0  0.43274  0.73559  0.50480  1.0000
  Ga  Ga12      1.0  0.87718  0.40225  0.61592  1.0000
  Os  Os1       1.0  0.63889  0.70833  0.34722  1.0000
  Os  Os2       1.0  0.08333  0.37500  0.45833  1.0000
  Os  Os3       1.0  0.52778  0.04167  0.56944  1.0000
  Os  Os4       1.0  0.47222  0.95833  0.43056  1.0000
  Os  Os5       1.0  0.91667  0.62500  0.54167  1.0000
  Os  Os6       1.0  0.36111  0.29167  0.65278  1.0000
