data_image0
_chemical_formula_structural       Au16Ti4
_chemical_formula_sum              "Au16 Ti4"
_cell_length_a       4.97964
_cell_length_b       4.97964
_cell_length_c       33.6918
_cell_angle_alpha    87.0595
_cell_angle_beta     87.0595
_cell_angle_gamma    81.0221

_space_group_name_H-M_alt    "P 1"
_space_group_IT_number       1

loop_
  _space_group_symop_operation_xyz
  'x, y, z'

loop_
  _atom_site_type_symbol
  _atom_site_label
  _atom_site_symmetry_multiplicity
  _atom_site_fract_x
  _atom_site_fract_y
  _atom_site_fract_z
  _atom_site_occupancy
  Au  Au1       1.0  0.13038  0.71654  0.31049  1.0000
  Au  Au2       1.0  0.83038  0.41654  0.41049  1.0000
  Au  Au3       1.0  0.96962  0.38346  0.48951  1.0000
  Au  Au4       1.0  0.26962  0.68346  0.38951  1.0000
  Au  Au5       1.0  0.66010  0.45021  0.32931  1.0000
  Au  Au6       1.0  0.36010  0.15021  0.42931  1.0000
  Au  Au7       1.0  0.73990  0.94979  0.37069  1.0000
  Au  Au8       1.0  0.43990  0.64979  0.47069  1.0000
  Au  Au9       1.0  0.53038  0.11654  0.51049  1.0000
  Au  Au10      1.0  0.23038  0.81654  0.61049  1.0000
  Au  Au11      1.0  0.36962  0.78346  0.68951  1.0000
  Au  Au12      1.0  0.66962  0.08346  0.58951  1.0000
  Au  Au13      1.0  0.06010  0.85021  0.52931  1.0000
  Au  Au14      1.0  0.76010  0.55021  0.62931  1.0000
  Au  Au15      1.0  0.13990  0.34979  0.57069  1.0000
  Au  Au16      1.0  0.83990  0.04979  0.67069  1.0000
  Ti  Ti1       1.0  0.90000  0.90000  0.45000  1.0000
  Ti  Ti2       1.0  0.20000  0.20000  0.35000  1.0000
  Ti  Ti3       1.0  0.30000  0.30000  0.65000  1.0000
  Ti  Ti4       1.0  0.60000  0.60000  0.55000  1.0000
