data_image0
_chemical_formula_structural       Si8Rh16
_chemical_formula_sum              "Si8 Rh16"
_cell_length_a       3.91627
_cell_length_b       9.12973
_cell_length_c       36.5189
_cell_angle_alpha    72.9528
_cell_angle_beta     90
_cell_angle_gamma    90

_space_group_name_H-M_alt    "P 1"
_space_group_IT_number       1

loop_
  _space_group_symop_operation_xyz
  'x, y, z'

loop_
  _atom_site_type_symbol
  _atom_site_label
  _atom_site_symmetry_multiplicity
  _atom_site_fract_x
  _atom_site_fract_y
  _atom_site_fract_z
  _atom_site_occupancy
  Si  Si1       1.0  0.75000  0.33603  0.58748  1.0000
  Si  Si2       1.0  0.75000  0.83603  0.46248  1.0000
  Si  Si3       1.0  0.25000  0.66397  0.55836  1.0000
  Si  Si4       1.0  0.25000  0.16397  0.43336  1.0000
  Si  Si5       1.0  0.75000  0.44176  0.48891  1.0000
  Si  Si6       1.0  0.75000  0.94176  0.61391  1.0000
  Si  Si7       1.0  0.25000  0.55824  0.40692  1.0000
  Si  Si8       1.0  0.25000  0.05824  0.53192  1.0000
  Rh  Rh1       1.0  0.25000  0.41479  0.54517  1.0000
  Rh  Rh2       1.0  0.25000  0.91479  0.42017  1.0000
  Rh  Rh3       1.0  0.75000  0.58521  0.60066  1.0000
  Rh  Rh4       1.0  0.75000  0.08521  0.47566  1.0000
  Rh  Rh5       1.0  0.25000  0.11099  0.59422  1.0000
  Rh  Rh6       1.0  0.25000  0.61099  0.46922  1.0000
  Rh  Rh7       1.0  0.75000  0.88901  0.55161  1.0000
  Rh  Rh8       1.0  0.75000  0.38901  0.42661  1.0000
  Rh  Rh9       1.0  0.75000  0.63550  0.52146  1.0000
  Rh  Rh10      1.0  0.75000  0.13550  0.39646  1.0000
  Rh  Rh11      1.0  0.25000  0.36450  0.37437  1.0000
  Rh  Rh12      1.0  0.25000  0.86450  0.49937  1.0000
  Rh  Rh13      1.0  0.75000  0.20582  0.53904  1.0000
  Rh  Rh14      1.0  0.75000  0.70582  0.41404  1.0000
  Rh  Rh15      1.0  0.25000  0.79418  0.60679  1.0000
  Rh  Rh16      1.0  0.25000  0.29418  0.48179  1.0000
