data_image0
_chemical_formula_structural       Al4Pt4Al4Pt4
_chemical_formula_sum              "Al8 Pt8"
_cell_length_a       4.86787
_cell_length_b       4.86787
_cell_length_c       34.0751
_cell_angle_alpha    90
_cell_angle_beta     90
_cell_angle_gamma    90

_space_group_name_H-M_alt    "P 1"
_space_group_IT_number       1

loop_
  _space_group_symop_operation_xyz
  'x, y, z'

loop_
  _atom_site_type_symbol
  _atom_site_label
  _atom_site_symmetry_multiplicity
  _atom_site_fract_x
  _atom_site_fract_y
  _atom_site_fract_z
  _atom_site_occupancy
  Al  Al1       1.0  0.84402  0.84402  0.47772  1.0000
  Al  Al2       1.0  0.15598  0.34402  0.45085  1.0000
  Al  Al3       1.0  0.65598  0.15598  0.40629  1.0000
  Al  Al4       1.0  0.34402  0.65598  0.37943  1.0000
  Pt  Pt1       1.0  0.15487  0.15487  0.37927  1.0000
  Pt  Pt2       1.0  0.84513  0.65487  0.40645  1.0000
  Pt  Pt3       1.0  0.34513  0.84513  0.45070  1.0000
  Pt  Pt4       1.0  0.65487  0.34513  0.47788  1.0000
  Al  Al5       1.0  0.84402  0.84402  0.62057  1.0000
  Al  Al6       1.0  0.15598  0.34402  0.59371  1.0000
  Al  Al7       1.0  0.65598  0.15598  0.54915  1.0000
  Al  Al8       1.0  0.34402  0.65598  0.52228  1.0000
  Pt  Pt5       1.0  0.15487  0.15487  0.52212  1.0000
  Pt  Pt6       1.0  0.84513  0.65487  0.54930  1.0000
  Pt  Pt7       1.0  0.34513  0.84513  0.59355  1.0000
  Pt  Pt8       1.0  0.65487  0.34513  0.62073  1.0000
