data_image0
_chemical_formula_structural       Na16Si16
_chemical_formula_sum              "Na16 Si16"
_cell_length_a       6.83529
_cell_length_b       10.1777
_cell_length_c       33.4012
_cell_angle_alpha    91.0576
_cell_angle_beta     94.7613
_cell_angle_gamma    102.52

_space_group_name_H-M_alt    "P 1"
_space_group_IT_number       1

loop_
  _space_group_symop_operation_xyz
  'x, y, z'

loop_
  _atom_site_type_symbol
  _atom_site_label
  _atom_site_symmetry_multiplicity
  _atom_site_fract_x
  _atom_site_fract_y
  _atom_site_fract_z
  _atom_site_occupancy
  Na  Na1       1.0  0.36916  0.61257  0.66053  1.0000
  Na  Na2       1.0  0.73480  0.08546  0.53750  1.0000
  Na  Na3       1.0  0.29751  0.55410  0.50614  1.0000
  Na  Na4       1.0  0.93187  0.08121  0.62917  1.0000
  Na  Na5       1.0  0.28058  0.17348  0.53165  1.0000
  Na  Na6       1.0  0.99351  0.43947  0.58131  1.0000
  Na  Na7       1.0  0.38609  0.99319  0.63502  1.0000
  Na  Na8       1.0  0.67316  0.72719  0.58536  1.0000
  Na  Na9       1.0  0.70249  0.44590  0.49386  1.0000
  Na  Na10      1.0  0.06813  0.91879  0.37083  1.0000
  Na  Na11      1.0  0.63084  0.38743  0.33947  1.0000
  Na  Na12      1.0  0.26520  0.91454  0.46250  1.0000
  Na  Na13      1.0  0.61391  0.00681  0.36498  1.0000
  Na  Na14      1.0  0.32684  0.27281  0.41464  1.0000
  Na  Na15      1.0  0.71942  0.82652  0.46835  1.0000
  Na  Na16      1.0  0.00649  0.56053  0.41869  1.0000
  Si  Si1       1.0  0.62641  0.24828  0.60600  1.0000
  Si  Si2       1.0  0.51497  0.43102  0.57331  1.0000
  Si  Si3       1.0  0.04025  0.91838  0.56067  1.0000
  Si  Si4       1.0  0.15169  0.73564  0.59336  1.0000
  Si  Si5       1.0  0.65124  0.45520  0.64236  1.0000
  Si  Si6       1.0  0.32036  0.30900  0.62184  1.0000
  Si  Si7       1.0  0.01542  0.71147  0.52431  1.0000
  Si  Si8       1.0  0.34630  0.85767  0.54483  1.0000
  Si  Si9       1.0  0.95975  0.08162  0.43933  1.0000
  Si  Si10      1.0  0.84831  0.26436  0.40664  1.0000
  Si  Si11      1.0  0.37359  0.75172  0.39400  1.0000
  Si  Si12      1.0  0.48503  0.56898  0.42669  1.0000
  Si  Si13      1.0  0.98458  0.28853  0.47569  1.0000
  Si  Si14      1.0  0.65370  0.14233  0.45517  1.0000
  Si  Si15      1.0  0.34876  0.54480  0.35764  1.0000
  Si  Si16      1.0  0.67964  0.69100  0.37816  1.0000
