data_image0
_chemical_formula_structural       Ca4Cu4Sb4Ca4Cu4Sb4
_chemical_formula_sum              "Ca8 Cu8 Sb8"
_cell_length_a       7.63046
_cell_length_b       9.20176
_cell_length_c       35.2436
_cell_angle_alpha    118.605
_cell_angle_beta     90
_cell_angle_gamma    90

_space_group_name_H-M_alt    "P 1"
_space_group_IT_number       1

loop_
  _space_group_symop_operation_xyz
  'x, y, z'

loop_
  _atom_site_type_symbol
  _atom_site_label
  _atom_site_symmetry_multiplicity
  _atom_site_fract_x
  _atom_site_fract_y
  _atom_site_fract_z
  _atom_site_occupancy
  Ca  Ca1       1.0  0.00000  0.00000  0.48958  1.0000
  Ca  Ca2       1.0  0.50000  0.00000  0.42708  1.0000
  Ca  Ca3       1.0  0.00000  0.50000  0.42708  1.0000
  Ca  Ca4       1.0  0.50000  0.50000  0.48958  1.0000
  Cu  Cu1       1.0  0.33333  0.75000  0.45833  1.0000
  Cu  Cu2       1.0  0.83333  0.75000  0.39583  1.0000
  Cu  Cu3       1.0  0.16667  0.25000  0.45833  1.0000
  Cu  Cu4       1.0  0.66667  0.25000  0.39583  1.0000
  Sb  Sb1       1.0  0.33333  0.25000  0.39583  1.0000
  Sb  Sb2       1.0  0.83333  0.25000  0.45833  1.0000
  Sb  Sb3       1.0  0.16667  0.75000  0.39583  1.0000
  Sb  Sb4       1.0  0.66667  0.75000  0.45833  1.0000
  Ca  Ca5       1.0  0.00000  0.00000  0.61458  1.0000
  Ca  Ca6       1.0  0.50000  0.00000  0.55208  1.0000
  Ca  Ca7       1.0  0.00000  0.50000  0.55208  1.0000
  Ca  Ca8       1.0  0.50000  0.50000  0.61458  1.0000
  Cu  Cu5       1.0  0.33333  0.75000  0.58333  1.0000
  Cu  Cu6       1.0  0.83333  0.75000  0.52083  1.0000
  Cu  Cu7       1.0  0.16667  0.25000  0.58333  1.0000
  Cu  Cu8       1.0  0.66667  0.25000  0.52083  1.0000
  Sb  Sb5       1.0  0.33333  0.25000  0.52083  1.0000
  Sb  Sb6       1.0  0.83333  0.25000  0.58333  1.0000
  Sb  Sb7       1.0  0.16667  0.75000  0.52083  1.0000
  Sb  Sb8       1.0  0.66667  0.75000  0.58333  1.0000
