data_image0
_chemical_formula_structural       V8H4V8H4
_chemical_formula_sum              "V16 H8"
_cell_length_a       4.37743
_cell_length_b       5.25572
_cell_length_c       36.7901
_cell_angle_alpha    67.1833
_cell_angle_beta     96.0975
_cell_angle_gamma    96.0975

_space_group_name_H-M_alt    "P 1"
_space_group_IT_number       1

loop_
  _space_group_symop_operation_xyz
  'x, y, z'

loop_
  _atom_site_type_symbol
  _atom_site_label
  _atom_site_symmetry_multiplicity
  _atom_site_fract_x
  _atom_site_fract_y
  _atom_site_fract_z
  _atom_site_occupancy
  V   V1        1.0  0.76960  0.61581  0.36773  1.0000
  V   V2        1.0  0.76960  0.11581  0.43916  1.0000
  V   V3        1.0  0.23040  0.38419  0.47750  1.0000
  V   V4        1.0  0.23040  0.88419  0.40608  1.0000
  V   V5        1.0  0.26960  0.36581  0.40345  1.0000
  V   V6        1.0  0.26960  0.86581  0.47488  1.0000
  V   V7        1.0  0.73040  0.13419  0.37036  1.0000
  V   V8        1.0  0.73040  0.63419  0.44179  1.0000
  H   H1        1.0  0.50000  0.75000  0.38690  1.0000
  H   H2        1.0  0.50000  0.25000  0.45833  1.0000
  H   H3        1.0  0.00000  0.50000  0.42262  1.0000
  H   H4        1.0  0.00000  0.00000  0.49405  1.0000
  V   V9        1.0  0.76960  0.61581  0.51059  1.0000
  V   V10       1.0  0.76960  0.11581  0.58202  1.0000
  V   V11       1.0  0.23040  0.38419  0.62036  1.0000
  V   V12       1.0  0.23040  0.88419  0.54893  1.0000
  V   V13       1.0  0.26960  0.36581  0.54631  1.0000
  V   V14       1.0  0.26960  0.86581  0.61773  1.0000
  V   V15       1.0  0.73040  0.13419  0.51322  1.0000
  V   V16       1.0  0.73040  0.63419  0.58465  1.0000
  H   H5        1.0  0.50000  0.75000  0.52976  1.0000
  H   H6        1.0  0.50000  0.25000  0.60119  1.0000
  H   H7        1.0  0.00000  0.50000  0.56548  1.0000
  H   H8        1.0  0.00000  0.00000  0.63690  1.0000
