data_image0
_chemical_formula_structural       Ti6In8Ti6In8Ti6In8
_chemical_formula_sum              "Ti18 In24"
_cell_length_a       9.85225
_cell_length_b       9.85225
_cell_length_c       29.3651
_cell_angle_alpha    90
_cell_angle_beta     90
_cell_angle_gamma    90

_space_group_name_H-M_alt    "P 1"
_space_group_IT_number       1

loop_
  _space_group_symop_operation_xyz
  'x, y, z'

loop_
  _atom_site_type_symbol
  _atom_site_label
  _atom_site_symmetry_multiplicity
  _atom_site_fract_x
  _atom_site_fract_y
  _atom_site_fract_z
  _atom_site_occupancy
  Ti  Ti1       1.0  0.50000  0.00000  0.41429  1.0000
  Ti  Ti2       1.0  0.00000  0.50000  0.41429  1.0000
  Ti  Ti3       1.0  0.67611  0.17611  0.36429  1.0000
  Ti  Ti4       1.0  0.17611  0.32389  0.36429  1.0000
  Ti  Ti5       1.0  0.82389  0.67611  0.36429  1.0000
  Ti  Ti6       1.0  0.32389  0.82389  0.36429  1.0000
  In  In1       1.0  0.21231  0.05996  0.41429  1.0000
  In  In2       1.0  0.05996  0.78769  0.41429  1.0000
  In  In3       1.0  0.94004  0.21231  0.41429  1.0000
  In  In4       1.0  0.78769  0.94004  0.41429  1.0000
  In  In5       1.0  0.28769  0.55996  0.41429  1.0000
  In  In6       1.0  0.71231  0.44004  0.41429  1.0000
  In  In7       1.0  0.55996  0.71231  0.41429  1.0000
  In  In8       1.0  0.44004  0.28769  0.41429  1.0000
  Ti  Ti7       1.0  0.50000  0.00000  0.51429  1.0000
  Ti  Ti8       1.0  0.00000  0.50000  0.51429  1.0000
  Ti  Ti9       1.0  0.67611  0.17611  0.46429  1.0000
  Ti  Ti10      1.0  0.17611  0.32389  0.46429  1.0000
  Ti  Ti11      1.0  0.82389  0.67611  0.46429  1.0000
  Ti  Ti12      1.0  0.32389  0.82389  0.46429  1.0000
  In  In9       1.0  0.21231  0.05996  0.51429  1.0000
  In  In10      1.0  0.05996  0.78769  0.51429  1.0000
  In  In11      1.0  0.94004  0.21231  0.51429  1.0000
  In  In12      1.0  0.78769  0.94004  0.51429  1.0000
  In  In13      1.0  0.28769  0.55996  0.51429  1.0000
  In  In14      1.0  0.71231  0.44004  0.51429  1.0000
  In  In15      1.0  0.55996  0.71231  0.51429  1.0000
  In  In16      1.0  0.44004  0.28769  0.51429  1.0000
  Ti  Ti13      1.0  0.50000  0.00000  0.61429  1.0000
  Ti  Ti14      1.0  0.00000  0.50000  0.61429  1.0000
  Ti  Ti15      1.0  0.67611  0.17611  0.56429  1.0000
  Ti  Ti16      1.0  0.17611  0.32389  0.56429  1.0000
  Ti  Ti17      1.0  0.82389  0.67611  0.56429  1.0000
  Ti  Ti18      1.0  0.32389  0.82389  0.56429  1.0000
  In  In17      1.0  0.21231  0.05996  0.61429  1.0000
  In  In18      1.0  0.05996  0.78769  0.61429  1.0000
  In  In19      1.0  0.94004  0.21231  0.61429  1.0000
  In  In20      1.0  0.78769  0.94004  0.61429  1.0000
  In  In21      1.0  0.28769  0.55996  0.61429  1.0000
  In  In22      1.0  0.71231  0.44004  0.61429  1.0000
  In  In23      1.0  0.55996  0.71231  0.61429  1.0000
  In  In24      1.0  0.44004  0.28769  0.61429  1.0000
