data_image0
_chemical_formula_structural       Pt8W4
_chemical_formula_sum              "Pt8 W4"
_cell_length_a       4.77243
_cell_length_b       4.79333
_cell_length_c       31.7465
_cell_angle_alpha    89.9912
_cell_angle_beta     87.4068
_cell_angle_gamma    80.3685

_space_group_name_H-M_alt    "P 1"
_space_group_IT_number       1

loop_
  _space_group_symop_operation_xyz
  'x, y, z'

loop_
  _atom_site_type_symbol
  _atom_site_label
  _atom_site_symmetry_multiplicity
  _atom_site_fract_x
  _atom_site_fract_y
  _atom_site_fract_z
  _atom_site_occupancy
  Pt  Pt1       1.0  0.20282  0.48009  0.50996  1.0000
  Pt  Pt2       1.0  0.95282  0.85509  0.57246  1.0000
  Pt  Pt3       1.0  0.45282  0.10509  0.44746  1.0000
  Pt  Pt4       1.0  0.70282  0.73009  0.38496  1.0000
  Pt  Pt5       1.0  0.71385  0.56158  0.46921  1.0000
  Pt  Pt6       1.0  0.46385  0.93658  0.53171  1.0000
  Pt  Pt7       1.0  0.96385  0.18658  0.40671  1.0000
  Pt  Pt8       1.0  0.21385  0.31158  0.59421  1.0000
  W   W1        1.0  0.20833  0.64583  0.42708  1.0000
  W   W2        1.0  0.95833  0.02083  0.48958  1.0000
  W   W3        1.0  0.45833  0.77083  0.61458  1.0000
  W   W4        1.0  0.70833  0.39583  0.55208  1.0000
