data_image0
_chemical_formula_structural       Al3Co6Si6Al3Co6Si6
_chemical_formula_sum              "Al6 Co12 Si12"
_cell_length_a       4.58767
_cell_length_b       10.3009
_cell_length_c       31.1469
_cell_angle_alpha    79.1066
_cell_angle_beta     90
_cell_angle_gamma    90

_space_group_name_H-M_alt    "P 1"
_space_group_IT_number       1

loop_
  _space_group_symop_operation_xyz
  'x, y, z'

loop_
  _atom_site_type_symbol
  _atom_site_label
  _atom_site_symmetry_multiplicity
  _atom_site_fract_x
  _atom_site_fract_y
  _atom_site_fract_z
  _atom_site_occupancy
  Al  Al1       1.0  0.00000  0.66667  0.45417  1.0000
  Al  Al2       1.0  0.00000  0.33333  0.41250  1.0000
  Al  Al3       1.0  0.00000  0.00000  0.49583  1.0000
  Co  Co1       1.0  0.83730  0.77778  0.38472  1.0000
  Co  Co2       1.0  0.83730  0.44444  0.46806  1.0000
  Co  Co3       1.0  0.83730  0.11111  0.42639  1.0000
  Co  Co4       1.0  0.16270  0.55556  0.39861  1.0000
  Co  Co5       1.0  0.16270  0.22222  0.48194  1.0000
  Co  Co6       1.0  0.16270  0.88889  0.44028  1.0000
  Si  Si1       1.0  0.65214  0.55556  0.39861  1.0000
  Si  Si2       1.0  0.65214  0.22222  0.48194  1.0000
  Si  Si3       1.0  0.65214  0.88889  0.44028  1.0000
  Si  Si4       1.0  0.34786  0.77778  0.38472  1.0000
  Si  Si5       1.0  0.34786  0.44444  0.46806  1.0000
  Si  Si6       1.0  0.34786  0.11111  0.42639  1.0000
  Al  Al4       1.0  0.00000  0.66667  0.57917  1.0000
  Al  Al5       1.0  0.00000  0.33333  0.53750  1.0000
  Al  Al6       1.0  0.00000  0.00000  0.62083  1.0000
  Co  Co7       1.0  0.83730  0.77778  0.50972  1.0000
  Co  Co8       1.0  0.83730  0.44444  0.59306  1.0000
  Co  Co9       1.0  0.83730  0.11111  0.55139  1.0000
  Co  Co10      1.0  0.16270  0.55556  0.52361  1.0000
  Co  Co11      1.0  0.16270  0.22222  0.60694  1.0000
  Co  Co12      1.0  0.16270  0.88889  0.56528  1.0000
  Si  Si7       1.0  0.65214  0.55556  0.52361  1.0000
  Si  Si8       1.0  0.65214  0.22222  0.60694  1.0000
  Si  Si9       1.0  0.65214  0.88889  0.56528  1.0000
  Si  Si10      1.0  0.34786  0.77778  0.50972  1.0000
  Si  Si11      1.0  0.34786  0.44444  0.59306  1.0000
  Si  Si12      1.0  0.34786  0.11111  0.55139  1.0000
