data_image0
_chemical_formula_structural       Ca12Zn4Ca12Zn4Ca12Zn4
_chemical_formula_sum              "Ca36 Zn12"
_cell_length_a       15.3042
_cell_length_b       10.7637
_cell_length_c       40.2261
_cell_angle_alpha    111.945
_cell_angle_beta     121.714
_cell_angle_gamma    78.67

_space_group_name_H-M_alt    "P 1"
_space_group_IT_number       1

loop_
  _space_group_symop_operation_xyz
  'x, y, z'

loop_
  _atom_site_type_symbol
  _atom_site_label
  _atom_site_symmetry_multiplicity
  _atom_site_fract_x
  _atom_site_fract_y
  _atom_site_fract_z
  _atom_site_occupancy
  Ca  Ca1       1.0  0.43155  0.75000  0.36131  1.0000
  Ca  Ca2       1.0  0.06845  0.25000  0.38869  1.0000
  Ca  Ca3       1.0  0.14215  0.93943  0.42237  1.0000
  Ca  Ca4       1.0  0.35785  0.06057  0.42763  1.0000
  Ca  Ca5       1.0  0.35785  0.43943  0.36551  1.0000
  Ca  Ca6       1.0  0.14215  0.56057  0.38449  1.0000
  Ca  Ca7       1.0  0.93155  0.75000  0.41131  1.0000
  Ca  Ca8       1.0  0.56845  0.25000  0.43869  1.0000
  Ca  Ca9       1.0  0.64215  0.93943  0.37237  1.0000
  Ca  Ca10      1.0  0.85785  0.06057  0.37763  1.0000
  Ca  Ca11      1.0  0.85785  0.43943  0.41551  1.0000
  Ca  Ca12      1.0  0.64215  0.56057  0.43449  1.0000
  Zn  Zn1       1.0  0.25285  0.75000  0.37557  1.0000
  Zn  Zn2       1.0  0.24715  0.25000  0.37443  1.0000
  Zn  Zn3       1.0  0.75285  0.75000  0.42557  1.0000
  Zn  Zn4       1.0  0.74715  0.25000  0.42443  1.0000
  Ca  Ca13      1.0  0.43155  0.75000  0.46131  1.0000
  Ca  Ca14      1.0  0.06845  0.25000  0.48869  1.0000
  Ca  Ca15      1.0  0.14215  0.93943  0.52237  1.0000
  Ca  Ca16      1.0  0.35785  0.06057  0.52763  1.0000
  Ca  Ca17      1.0  0.35785  0.43943  0.46551  1.0000
  Ca  Ca18      1.0  0.14215  0.56057  0.48449  1.0000
  Ca  Ca19      1.0  0.93155  0.75000  0.51131  1.0000
  Ca  Ca20      1.0  0.56845  0.25000  0.53869  1.0000
  Ca  Ca21      1.0  0.64215  0.93943  0.47237  1.0000
  Ca  Ca22      1.0  0.85785  0.06057  0.47763  1.0000
  Ca  Ca23      1.0  0.85785  0.43943  0.51551  1.0000
  Ca  Ca24      1.0  0.64215  0.56057  0.53449  1.0000
  Zn  Zn5       1.0  0.25285  0.75000  0.47557  1.0000
  Zn  Zn6       1.0  0.24715  0.25000  0.47443  1.0000
  Zn  Zn7       1.0  0.75285  0.75000  0.52557  1.0000
  Zn  Zn8       1.0  0.74715  0.25000  0.52443  1.0000
  Ca  Ca25      1.0  0.43155  0.75000  0.56131  1.0000
  Ca  Ca26      1.0  0.06845  0.25000  0.58869  1.0000
  Ca  Ca27      1.0  0.14215  0.93943  0.62237  1.0000
  Ca  Ca28      1.0  0.35785  0.06057  0.62763  1.0000
  Ca  Ca29      1.0  0.35785  0.43943  0.56551  1.0000
  Ca  Ca30      1.0  0.14215  0.56057  0.58449  1.0000
  Ca  Ca31      1.0  0.93155  0.75000  0.61131  1.0000
  Ca  Ca32      1.0  0.56845  0.25000  0.63869  1.0000
  Ca  Ca33      1.0  0.64215  0.93943  0.57237  1.0000
  Ca  Ca34      1.0  0.85785  0.06057  0.57763  1.0000
  Ca  Ca35      1.0  0.85785  0.43943  0.61551  1.0000
  Ca  Ca36      1.0  0.64215  0.56057  0.63449  1.0000
  Zn  Zn9       1.0  0.25285  0.75000  0.57557  1.0000
  Zn  Zn10      1.0  0.24715  0.25000  0.57443  1.0000
  Zn  Zn11      1.0  0.75285  0.75000  0.62557  1.0000
  Zn  Zn12      1.0  0.74715  0.25000  0.62443  1.0000
