data_image0
_chemical_formula_structural       Ga6Pt10Ga6Pt10
_chemical_formula_sum              "Ga12 Pt20"
_cell_length_a       7.43141
_cell_length_b       8.93717
_cell_length_c       31.4851
_cell_angle_alpha    63.8727
_cell_angle_beta     90
_cell_angle_gamma    90

_space_group_name_H-M_alt    "P 1"
_space_group_IT_number       1

loop_
  _space_group_symop_operation_xyz
  'x, y, z'

loop_
  _atom_site_type_symbol
  _atom_site_label
  _atom_site_symmetry_multiplicity
  _atom_site_fract_x
  _atom_site_fract_y
  _atom_site_fract_z
  _atom_site_occupancy
  Ga  Ga1       1.0  0.00000  0.00000  0.48438  1.0000
  Ga  Ga2       1.0  0.50000  0.78545  0.44869  1.0000
  Ga  Ga3       1.0  0.50000  0.21455  0.39506  1.0000
  Ga  Ga4       1.0  0.50000  0.50000  0.42188  1.0000
  Ga  Ga5       1.0  0.00000  0.28545  0.38619  1.0000
  Ga  Ga6       1.0  0.00000  0.71455  0.45756  1.0000
  Pt  Pt1       1.0  0.50000  0.00000  0.48438  1.0000
  Pt  Pt2       1.0  0.75000  0.25000  0.45312  1.0000
  Pt  Pt3       1.0  0.75000  0.75000  0.39062  1.0000
  Pt  Pt4       1.0  0.79130  0.00000  0.42188  1.0000
  Pt  Pt5       1.0  0.20870  0.00000  0.42188  1.0000
  Pt  Pt6       1.0  0.00000  0.50000  0.42188  1.0000
  Pt  Pt7       1.0  0.25000  0.75000  0.39062  1.0000
  Pt  Pt8       1.0  0.25000  0.25000  0.45312  1.0000
  Pt  Pt9       1.0  0.29130  0.50000  0.48438  1.0000
  Pt  Pt10      1.0  0.70870  0.50000  0.48438  1.0000
  Ga  Ga7       1.0  0.00000  0.00000  0.60938  1.0000
  Ga  Ga8       1.0  0.50000  0.78545  0.57369  1.0000
  Ga  Ga9       1.0  0.50000  0.21455  0.52006  1.0000
  Ga  Ga10      1.0  0.50000  0.50000  0.54688  1.0000
  Ga  Ga11      1.0  0.00000  0.28545  0.51119  1.0000
  Ga  Ga12      1.0  0.00000  0.71455  0.58256  1.0000
  Pt  Pt11      1.0  0.50000  0.00000  0.60938  1.0000
  Pt  Pt12      1.0  0.75000  0.25000  0.57812  1.0000
  Pt  Pt13      1.0  0.75000  0.75000  0.51562  1.0000
  Pt  Pt14      1.0  0.79130  0.00000  0.54688  1.0000
  Pt  Pt15      1.0  0.20870  0.00000  0.54688  1.0000
  Pt  Pt16      1.0  0.00000  0.50000  0.54688  1.0000
  Pt  Pt17      1.0  0.25000  0.75000  0.51562  1.0000
  Pt  Pt18      1.0  0.25000  0.25000  0.57812  1.0000
  Pt  Pt19      1.0  0.29130  0.50000  0.60938  1.0000
  Pt  Pt20      1.0  0.70870  0.50000  0.60938  1.0000
