data_image0
_chemical_formula_structural       Na4Ge4Au4Na4Ge4Au4
_chemical_formula_sum              "Na8 Ge8 Au8"
_cell_length_a       7.2252
_cell_length_b       7.46624
_cell_length_c       30.9645
_cell_angle_alpha    90
_cell_angle_beta     90
_cell_angle_gamma    90

_space_group_name_H-M_alt    "P 1"
_space_group_IT_number       1

loop_
  _space_group_symop_operation_xyz
  'x, y, z'

loop_
  _atom_site_type_symbol
  _atom_site_label
  _atom_site_symmetry_multiplicity
  _atom_site_fract_x
  _atom_site_fract_y
  _atom_site_fract_z
  _atom_site_occupancy
  Na  Na1       1.0  0.50000  0.71904  0.46429  1.0000
  Na  Na2       1.0  0.50000  0.09284  0.39286  1.0000
  Na  Na3       1.0  0.00000  0.21904  0.39286  1.0000
  Na  Na4       1.0  0.00000  0.59284  0.46429  1.0000
  Ge  Ge1       1.0  0.67549  0.32347  0.46429  1.0000
  Ge  Ge2       1.0  0.32451  0.32347  0.46429  1.0000
  Ge  Ge3       1.0  0.17549  0.82347  0.39286  1.0000
  Ge  Ge4       1.0  0.82451  0.82347  0.39286  1.0000
  Au  Au1       1.0  0.20257  0.99952  0.46429  1.0000
  Au  Au2       1.0  0.79743  0.99952  0.46429  1.0000
  Au  Au3       1.0  0.70257  0.49952  0.39286  1.0000
  Au  Au4       1.0  0.29743  0.49952  0.39286  1.0000
  Na  Na5       1.0  0.50000  0.71904  0.60714  1.0000
  Na  Na6       1.0  0.50000  0.09284  0.53571  1.0000
  Na  Na7       1.0  0.00000  0.21904  0.53571  1.0000
  Na  Na8       1.0  0.00000  0.59284  0.60714  1.0000
  Ge  Ge5       1.0  0.67549  0.32347  0.60714  1.0000
  Ge  Ge6       1.0  0.32451  0.32347  0.60714  1.0000
  Ge  Ge7       1.0  0.17549  0.82347  0.53571  1.0000
  Ge  Ge8       1.0  0.82451  0.82347  0.53571  1.0000
  Au  Au5       1.0  0.20257  0.99952  0.60714  1.0000
  Au  Au6       1.0  0.79743  0.99952  0.60714  1.0000
  Au  Au7       1.0  0.70257  0.49952  0.53571  1.0000
  Au  Au8       1.0  0.29743  0.49952  0.53571  1.0000
