data_image0
_chemical_formula_structural       Co6Sb12Co6Sb12
_chemical_formula_sum              "Co12 Sb24"
_cell_length_a       8.69505
_cell_length_b       7.16024
_cell_length_c       38.8629
_cell_angle_alpha    103.996
_cell_angle_beta     81.5222
_cell_angle_gamma    68.8795

_space_group_name_H-M_alt    "P 1"
_space_group_IT_number       1

loop_
  _space_group_symop_operation_xyz
  'x, y, z'

loop_
  _atom_site_type_symbol
  _atom_site_label
  _atom_site_symmetry_multiplicity
  _atom_site_fract_x
  _atom_site_fract_y
  _atom_site_fract_z
  _atom_site_occupancy
  Co  Co1       1.0  0.66667  0.00000  0.37037  1.0000
  Co  Co2       1.0  0.00000  0.00000  0.48148  1.0000
  Co  Co3       1.0  0.33333  0.00000  0.42593  1.0000
  Co  Co4       1.0  0.50000  0.50000  0.48148  1.0000
  Co  Co5       1.0  0.83333  0.50000  0.42593  1.0000
  Co  Co6       1.0  0.16667  0.50000  0.37037  1.0000
  Sb  Sb1       1.0  0.61474  0.35684  0.41253  1.0000
  Sb  Sb2       1.0  0.94807  0.35684  0.35698  1.0000
  Sb  Sb3       1.0  0.28140  0.35684  0.46809  1.0000
  Sb  Sb4       1.0  0.71860  0.64316  0.32821  1.0000
  Sb  Sb5       1.0  0.05193  0.64316  0.43932  1.0000
  Sb  Sb6       1.0  0.38526  0.64316  0.38376  1.0000
  Sb  Sb7       1.0  0.68597  0.14316  0.48400  1.0000
  Sb  Sb8       1.0  0.01930  0.14316  0.42844  1.0000
  Sb  Sb9       1.0  0.35263  0.14316  0.37289  1.0000
  Sb  Sb10      1.0  0.31403  0.85684  0.47897  1.0000
  Sb  Sb11      1.0  0.64737  0.85684  0.42341  1.0000
  Sb  Sb12      1.0  0.98070  0.85684  0.36786  1.0000
  Co  Co7       1.0  0.66667  0.00000  0.53704  1.0000
  Co  Co8       1.0  0.00000  0.00000  0.64815  1.0000
  Co  Co9       1.0  0.33333  0.00000  0.59259  1.0000
  Co  Co10      1.0  0.50000  0.50000  0.64815  1.0000
  Co  Co11      1.0  0.83333  0.50000  0.59259  1.0000
  Co  Co12      1.0  0.16667  0.50000  0.53704  1.0000
  Sb  Sb13      1.0  0.61474  0.35684  0.57920  1.0000
  Sb  Sb14      1.0  0.94807  0.35684  0.52365  1.0000
  Sb  Sb15      1.0  0.28140  0.35684  0.63476  1.0000
  Sb  Sb16      1.0  0.71860  0.64316  0.49487  1.0000
  Sb  Sb17      1.0  0.05193  0.64316  0.60598  1.0000
  Sb  Sb18      1.0  0.38526  0.64316  0.55043  1.0000
  Sb  Sb19      1.0  0.68597  0.14316  0.65066  1.0000
  Sb  Sb20      1.0  0.01930  0.14316  0.59511  1.0000
  Sb  Sb21      1.0  0.35263  0.14316  0.53955  1.0000
  Sb  Sb22      1.0  0.31403  0.85684  0.64563  1.0000
  Sb  Sb23      1.0  0.64737  0.85684  0.59008  1.0000
  Sb  Sb24      1.0  0.98070  0.85684  0.53452  1.0000
