data_image0
_chemical_formula_structural       Al16Ru8
_chemical_formula_sum              "Al16 Ru8"
_cell_length_a       4.63523
_cell_length_b       8.76561
_cell_length_c       32.4139
_cell_angle_alpha    90
_cell_angle_beta     90.923
_cell_angle_gamma    90

_space_group_name_H-M_alt    "P 1"
_space_group_IT_number       1

loop_
  _space_group_symop_operation_xyz
  'x, y, z'

loop_
  _atom_site_type_symbol
  _atom_site_label
  _atom_site_symmetry_multiplicity
  _atom_site_fract_x
  _atom_site_fract_y
  _atom_site_fract_z
  _atom_site_occupancy
  Al  Al1       1.0  0.78527  0.75000  0.61405  1.0000
  Al  Al2       1.0  0.28527  0.75000  0.48905  1.0000
  Al  Al3       1.0  0.29806  0.75000  0.40678  1.0000
  Al  Al4       1.0  0.79806  0.75000  0.53178  1.0000
  Al  Al5       1.0  0.04806  0.50000  0.59428  1.0000
  Al  Al6       1.0  0.54806  0.50000  0.46928  1.0000
  Al  Al7       1.0  0.53527  0.50000  0.55155  1.0000
  Al  Al8       1.0  0.03527  0.50000  0.42655  1.0000
  Al  Al9       1.0  0.53527  0.25000  0.42655  1.0000
  Al  Al10      1.0  0.03527  0.25000  0.55155  1.0000
  Al  Al11      1.0  0.04806  0.25000  0.46928  1.0000
  Al  Al12      1.0  0.54806  0.25000  0.59428  1.0000
  Al  Al13      1.0  0.29806  0.00000  0.53178  1.0000
  Al  Al14      1.0  0.79806  0.00000  0.40678  1.0000
  Al  Al15      1.0  0.28527  0.00000  0.61405  1.0000
  Al  Al16      1.0  0.78527  0.00000  0.48905  1.0000
  Ru  Ru1       1.0  0.79167  0.75000  0.44792  1.0000
  Ru  Ru2       1.0  0.29167  0.75000  0.57292  1.0000
  Ru  Ru3       1.0  0.04167  0.50000  0.51042  1.0000
  Ru  Ru4       1.0  0.54167  0.50000  0.38542  1.0000
  Ru  Ru5       1.0  0.04167  0.25000  0.38542  1.0000
  Ru  Ru6       1.0  0.54167  0.25000  0.51042  1.0000
  Ru  Ru7       1.0  0.79167  0.00000  0.57292  1.0000
  Ru  Ru8       1.0  0.29167  0.00000  0.44792  1.0000
