data_image0
_chemical_formula_structural       Ga4Pt12
_chemical_formula_sum              "Ga4 Pt12"
_cell_length_a       5.46779
_cell_length_b       5.52425
_cell_length_c       36.0704
_cell_angle_alpha    86.592
_cell_angle_beta     85.6532
_cell_angle_gamma    60.3375

_space_group_name_H-M_alt    "P 1"
_space_group_IT_number       1

loop_
  _space_group_symop_operation_xyz
  'x, y, z'

loop_
  _atom_site_type_symbol
  _atom_site_label
  _atom_site_symmetry_multiplicity
  _atom_site_fract_x
  _atom_site_fract_y
  _atom_site_fract_z
  _atom_site_occupancy
  Ga  Ga1       1.0  0.03125  0.53125  0.40625  1.0000
  Ga  Ga2       1.0  0.65625  0.15625  0.53125  1.0000
  Ga  Ga3       1.0  0.34375  0.84375  0.46875  1.0000
  Ga  Ga4       1.0  0.96875  0.46875  0.59375  1.0000
  Pt  Pt1       1.0  0.84375  0.84375  0.46875  1.0000
  Pt  Pt2       1.0  0.46875  0.46875  0.59375  1.0000
  Pt  Pt3       1.0  0.53125  0.53125  0.40625  1.0000
  Pt  Pt4       1.0  0.15625  0.15625  0.53125  1.0000
  Pt  Pt5       1.0  0.37088  0.37088  0.47418  1.0000
  Pt  Pt6       1.0  0.99588  0.99588  0.59918  1.0000
  Pt  Pt7       1.0  0.62912  0.62912  0.52582  1.0000
  Pt  Pt8       1.0  0.00412  0.00412  0.40082  1.0000
  Pt  Pt9       1.0  0.90344  0.31662  0.46332  1.0000
  Pt  Pt10      1.0  0.52844  0.94162  0.58832  1.0000
  Pt  Pt11      1.0  0.09656  0.68338  0.53668  1.0000
  Pt  Pt12      1.0  0.47156  0.05838  0.41168  1.0000
