data_image0
_chemical_formula_structural       Mn3Zn9Mn3Zn9
_chemical_formula_sum              "Mn6 Zn18"
_cell_length_a       5.21283
_cell_length_b       5.21283
_cell_length_c       38.3063
_cell_angle_alpha    90
_cell_angle_beta     90
_cell_angle_gamma    60

_space_group_name_H-M_alt    "P 1"
_space_group_IT_number       1

loop_
  _space_group_symop_operation_xyz
  'x, y, z'

loop_
  _atom_site_type_symbol
  _atom_site_label
  _atom_site_symmetry_multiplicity
  _atom_site_fract_x
  _atom_site_fract_y
  _atom_site_fract_z
  _atom_site_occupancy
  Mn  Mn1       1.0  0.66667  0.66667  0.36111  1.0000
  Mn  Mn2       1.0  0.00000  0.00000  0.47222  1.0000
  Mn  Mn3       1.0  0.33333  0.33333  0.41667  1.0000
  Zn  Zn1       1.0  0.83333  0.83333  0.41667  1.0000
  Zn  Zn2       1.0  0.16667  0.16667  0.36111  1.0000
  Zn  Zn3       1.0  0.50000  0.50000  0.47222  1.0000
  Zn  Zn4       1.0  0.83333  0.33333  0.41667  1.0000
  Zn  Zn5       1.0  0.16667  0.66667  0.36111  1.0000
  Zn  Zn6       1.0  0.50000  0.00000  0.47222  1.0000
  Zn  Zn7       1.0  0.33333  0.83333  0.41667  1.0000
  Zn  Zn8       1.0  0.66667  0.16667  0.36111  1.0000
  Zn  Zn9       1.0  0.00000  0.50000  0.47222  1.0000
  Mn  Mn4       1.0  0.66667  0.66667  0.52778  1.0000
  Mn  Mn5       1.0  0.00000  0.00000  0.63889  1.0000
  Mn  Mn6       1.0  0.33333  0.33333  0.58333  1.0000
  Zn  Zn10      1.0  0.83333  0.83333  0.58333  1.0000
  Zn  Zn11      1.0  0.16667  0.16667  0.52778  1.0000
  Zn  Zn12      1.0  0.50000  0.50000  0.63889  1.0000
  Zn  Zn13      1.0  0.83333  0.33333  0.58333  1.0000
  Zn  Zn14      1.0  0.16667  0.66667  0.52778  1.0000
  Zn  Zn15      1.0  0.50000  0.00000  0.63889  1.0000
  Zn  Zn16      1.0  0.33333  0.83333  0.58333  1.0000
  Zn  Zn17      1.0  0.66667  0.16667  0.52778  1.0000
  Zn  Zn18      1.0  0.00000  0.50000  0.63889  1.0000
