data_image0
_chemical_formula_structural       Si4Ir12
_chemical_formula_sum              "Si4 Ir12"
_cell_length_a       5.2297
_cell_length_b       5.2297
_cell_length_c       31.8856
_cell_angle_alpha    90
_cell_angle_beta     90
_cell_angle_gamma    90

_space_group_name_H-M_alt    "P 1"
_space_group_IT_number       1

loop_
  _space_group_symop_operation_xyz
  'x, y, z'

loop_
  _atom_site_type_symbol
  _atom_site_label
  _atom_site_symmetry_multiplicity
  _atom_site_fract_x
  _atom_site_fract_y
  _atom_site_fract_z
  _atom_site_occupancy
  Si  Si1       1.0  0.50000  0.00000  0.53125  1.0000
  Si  Si2       1.0  0.00000  0.50000  0.53125  1.0000
  Si  Si3       1.0  0.00000  0.50000  0.40625  1.0000
  Si  Si4       1.0  0.50000  0.00000  0.40625  1.0000
  Ir  Ir1       1.0  0.50000  0.50000  0.53125  1.0000
  Ir  Ir2       1.0  0.00000  0.00000  0.53125  1.0000
  Ir  Ir3       1.0  0.18485  0.68485  0.59375  1.0000
  Ir  Ir4       1.0  0.31515  0.18485  0.59375  1.0000
  Ir  Ir5       1.0  0.68485  0.81515  0.59375  1.0000
  Ir  Ir6       1.0  0.81515  0.31515  0.59375  1.0000
  Ir  Ir7       1.0  0.00000  0.00000  0.40625  1.0000
  Ir  Ir8       1.0  0.50000  0.50000  0.40625  1.0000
  Ir  Ir9       1.0  0.68485  0.18485  0.46875  1.0000
  Ir  Ir10      1.0  0.81515  0.68485  0.46875  1.0000
  Ir  Ir11      1.0  0.18485  0.31515  0.46875  1.0000
  Ir  Ir12      1.0  0.31515  0.81515  0.46875  1.0000
