data_image0
_chemical_formula_structural       As18W12
_chemical_formula_sum              "As18 W12"
_cell_length_a       6.85778
_cell_length_b       8.11989
_cell_length_c       30.9044
_cell_angle_alpha    88.3297
_cell_angle_beta     86.8654
_cell_angle_gamma    84.5168

_space_group_name_H-M_alt    "P 1"
_space_group_IT_number       1

loop_
  _space_group_symop_operation_xyz
  'x, y, z'

loop_
  _atom_site_type_symbol
  _atom_site_label
  _atom_site_symmetry_multiplicity
  _atom_site_fract_x
  _atom_site_fract_y
  _atom_site_fract_z
  _atom_site_occupancy
  As  As1       1.0  0.94392  0.26824  0.36246  1.0000
  As  As2       1.0  0.77608  0.01176  0.35754  1.0000
  As  As3       1.0  0.58238  0.24967  0.43707  1.0000
  As  As4       1.0  0.23762  0.93033  0.38293  1.0000
  As  As5       1.0  0.21476  0.53539  0.41781  1.0000
  As  As6       1.0  0.60524  0.64461  0.40219  1.0000
  As  As7       1.0  0.04392  0.16824  0.46246  1.0000
  As  As8       1.0  0.87608  0.91176  0.45754  1.0000
  As  As9       1.0  0.68238  0.14967  0.53707  1.0000
  As  As10      1.0  0.33762  0.83033  0.48293  1.0000
  As  As11      1.0  0.31476  0.43539  0.51781  1.0000
  As  As12      1.0  0.70524  0.54461  0.50219  1.0000
  As  As13      1.0  0.14392  0.06824  0.56246  1.0000
  As  As14      1.0  0.97608  0.81176  0.55754  1.0000
  As  As15      1.0  0.78238  0.04967  0.63707  1.0000
  As  As16      1.0  0.43762  0.73033  0.58293  1.0000
  As  As17      1.0  0.41476  0.33539  0.61781  1.0000
  As  As18      1.0  0.80524  0.44461  0.60219  1.0000
  W   W1        1.0  0.95384  0.74070  0.38816  1.0000
  W   W2        1.0  0.86616  0.43930  0.43184  1.0000
  W   W3        1.0  0.54461  0.94986  0.42251  1.0000
  W   W4        1.0  0.27539  0.23014  0.39749  1.0000
  W   W5        1.0  0.05384  0.64070  0.48816  1.0000
  W   W6        1.0  0.96616  0.33930  0.53184  1.0000
  W   W7        1.0  0.64461  0.84986  0.52251  1.0000
  W   W8        1.0  0.37539  0.13014  0.49749  1.0000
  W   W9        1.0  0.15384  0.54070  0.58816  1.0000
  W   W10       1.0  0.06616  0.23930  0.63184  1.0000
  W   W11       1.0  0.74461  0.74986  0.62251  1.0000
  W   W12       1.0  0.47539  0.03014  0.59749  1.0000
