data_image0
_chemical_formula_structural       Re12Ir4Re12Ir4
_chemical_formula_sum              "Re24 Ir8"
_cell_length_a       3.85578
_cell_length_b       15.9595
_cell_length_c       30.8462
_cell_angle_alpha    103.981
_cell_angle_beta     90
_cell_angle_gamma    90

_space_group_name_H-M_alt    "P 1"
_space_group_IT_number       1

loop_
  _space_group_symop_operation_xyz
  'x, y, z'

loop_
  _atom_site_type_symbol
  _atom_site_label
  _atom_site_symmetry_multiplicity
  _atom_site_fract_x
  _atom_site_fract_y
  _atom_site_fract_z
  _atom_site_occupancy
  Re  Re1       1.0  0.00000  0.12500  0.44531  1.0000
  Re  Re2       1.0  0.00000  0.62500  0.38281  1.0000
  Re  Re3       1.0  0.50000  0.12500  0.38281  1.0000
  Re  Re4       1.0  0.50000  0.62500  0.44531  1.0000
  Re  Re5       1.0  0.50000  0.00000  0.42969  1.0000
  Re  Re6       1.0  0.50000  0.50000  0.49219  1.0000
  Re  Re7       1.0  0.50000  0.37500  0.41406  1.0000
  Re  Re8       1.0  0.50000  0.87500  0.47656  1.0000
  Re  Re9       1.0  0.00000  0.37500  0.47656  1.0000
  Re  Re10      1.0  0.00000  0.87500  0.41406  1.0000
  Re  Re11      1.0  0.00000  0.25000  0.39844  1.0000
  Re  Re12      1.0  0.00000  0.75000  0.46094  1.0000
  Ir  Ir1       1.0  0.00000  0.00000  0.49219  1.0000
  Ir  Ir2       1.0  0.00000  0.50000  0.42969  1.0000
  Ir  Ir3       1.0  0.50000  0.25000  0.46094  1.0000
  Ir  Ir4       1.0  0.50000  0.75000  0.39844  1.0000
  Re  Re13      1.0  0.00000  0.12500  0.57031  1.0000
  Re  Re14      1.0  0.00000  0.62500  0.50781  1.0000
  Re  Re15      1.0  0.50000  0.12500  0.50781  1.0000
  Re  Re16      1.0  0.50000  0.62500  0.57031  1.0000
  Re  Re17      1.0  0.50000  0.00000  0.55469  1.0000
  Re  Re18      1.0  0.50000  0.50000  0.61719  1.0000
  Re  Re19      1.0  0.50000  0.37500  0.53906  1.0000
  Re  Re20      1.0  0.50000  0.87500  0.60156  1.0000
  Re  Re21      1.0  0.00000  0.37500  0.60156  1.0000
  Re  Re22      1.0  0.00000  0.87500  0.53906  1.0000
  Re  Re23      1.0  0.00000  0.25000  0.52344  1.0000
  Re  Re24      1.0  0.00000  0.75000  0.58594  1.0000
  Ir  Ir5       1.0  0.00000  0.00000  0.61719  1.0000
  Ir  Ir6       1.0  0.00000  0.50000  0.55469  1.0000
  Ir  Ir7       1.0  0.50000  0.25000  0.58594  1.0000
  Ir  Ir8       1.0  0.50000  0.75000  0.52344  1.0000
