data_image0
_chemical_formula_structural       As24Fe12
_chemical_formula_sum              "As24 Fe12"
_cell_length_a       7.90056
_cell_length_b       8.39869
_cell_length_c       29.5692
_cell_angle_alpha    94.3354
_cell_angle_beta     91.8353
_cell_angle_gamma    96.4741

_space_group_name_H-M_alt    "P 1"
_space_group_IT_number       1

loop_
  _space_group_symop_operation_xyz
  'x, y, z'

loop_
  _atom_site_type_symbol
  _atom_site_label
  _atom_site_symmetry_multiplicity
  _atom_site_fract_x
  _atom_site_fract_y
  _atom_site_fract_z
  _atom_site_occupancy
  As  As1       1.0  0.90921  0.89692  0.37303  1.0000
  As  As2       1.0  0.40921  0.35147  0.41848  1.0000
  As  As3       1.0  0.09079  0.31520  0.41485  1.0000
  As  As4       1.0  0.59079  0.86065  0.36940  1.0000
  As  As5       1.0  0.26995  0.97807  0.43114  1.0000
  As  As6       1.0  0.76995  0.52352  0.38569  1.0000
  As  As7       1.0  0.73005  0.14314  0.44765  1.0000
  As  As8       1.0  0.23005  0.68860  0.40219  1.0000
  As  As9       1.0  0.90921  0.80601  0.46393  1.0000
  As  As10      1.0  0.40921  0.26056  0.50939  1.0000
  As  As11      1.0  0.09079  0.22429  0.50576  1.0000
  As  As12      1.0  0.59079  0.76974  0.46031  1.0000
  As  As13      1.0  0.26995  0.88716  0.52205  1.0000
  As  As14      1.0  0.76995  0.43261  0.47659  1.0000
  As  As15      1.0  0.73005  0.05223  0.53856  1.0000
  As  As16      1.0  0.23005  0.59769  0.49310  1.0000
  As  As17      1.0  0.90921  0.71510  0.55484  1.0000
  As  As18      1.0  0.40921  0.16965  0.60030  1.0000
  As  As19      1.0  0.09079  0.13338  0.59667  1.0000
  As  As20      1.0  0.59079  0.67883  0.55122  1.0000
  As  As21      1.0  0.26995  0.79625  0.61296  1.0000
  As  As22      1.0  0.76995  0.34170  0.56750  1.0000
  As  As23      1.0  0.73005  0.96133  0.62947  1.0000
  As  As24      1.0  0.23005  0.50678  0.58401  1.0000
  Fe  Fe1       1.0  0.00000  0.56061  0.43939  1.0000
  Fe  Fe2       1.0  0.50000  0.10606  0.39394  1.0000
  Fe  Fe3       1.0  0.00000  0.06061  0.43939  1.0000
  Fe  Fe4       1.0  0.50000  0.60606  0.39394  1.0000
  Fe  Fe5       1.0  0.00000  0.46970  0.53030  1.0000
  Fe  Fe6       1.0  0.50000  0.01515  0.48485  1.0000
  Fe  Fe7       1.0  0.00000  0.96970  0.53030  1.0000
  Fe  Fe8       1.0  0.50000  0.51515  0.48485  1.0000
  Fe  Fe9       1.0  0.00000  0.37879  0.62121  1.0000
  Fe  Fe10      1.0  0.50000  0.92424  0.57576  1.0000
  Fe  Fe11      1.0  0.00000  0.87879  0.62121  1.0000
  Fe  Fe12      1.0  0.50000  0.42424  0.57576  1.0000
