data_image0
_chemical_formula_structural       Sb2Pd2Sb2Pd2
_chemical_formula_sum              "Sb4 Pd4"
_cell_length_a       4.07888
_cell_length_b       5.59269
_cell_length_c       32.6311
_cell_angle_alpha    90
_cell_angle_beta     120
_cell_angle_gamma    90

_space_group_name_H-M_alt    "P 1"
_space_group_IT_number       1

loop_
  _space_group_symop_operation_xyz
  'x, y, z'

loop_
  _atom_site_type_symbol
  _atom_site_label
  _atom_site_symmetry_multiplicity
  _atom_site_fract_x
  _atom_site_fract_y
  _atom_site_fract_z
  _atom_site_occupancy
  Sb  Sb1       1.0  0.66667  0.25000  0.38542  1.0000
  Sb  Sb2       1.0  0.33333  0.75000  0.42708  1.0000
  Pd  Pd1       1.0  0.00000  0.00000  0.46875  1.0000
  Pd  Pd2       1.0  0.00000  0.50000  0.46875  1.0000
  Sb  Sb3       1.0  0.66667  0.25000  0.51042  1.0000
  Sb  Sb4       1.0  0.33333  0.75000  0.55208  1.0000
  Pd  Pd3       1.0  0.00000  0.00000  0.59375  1.0000
  Pd  Pd4       1.0  0.00000  0.50000  0.59375  1.0000
