data_image0
_chemical_formula_structural       Al6Ni12Al6Ni12
_chemical_formula_sum              "Al12 Ni24"
_cell_length_a       4.90211
_cell_length_b       10.5228
_cell_length_c       31.818
_cell_angle_alpha    79.1066
_cell_angle_beta     90
_cell_angle_gamma    90

_space_group_name_H-M_alt    "P 1"
_space_group_IT_number       1

loop_
  _space_group_symop_operation_xyz
  'x, y, z'

loop_
  _atom_site_type_symbol
  _atom_site_label
  _atom_site_symmetry_multiplicity
  _atom_site_fract_x
  _atom_site_fract_y
  _atom_site_fract_z
  _atom_site_occupancy
  Al  Al1       1.0  0.69058  0.77778  0.38194  1.0000
  Al  Al2       1.0  0.69058  0.44444  0.46528  1.0000
  Al  Al3       1.0  0.69058  0.11111  0.42361  1.0000
  Al  Al4       1.0  0.30942  0.55556  0.39583  1.0000
  Al  Al5       1.0  0.30942  0.22222  0.47917  1.0000
  Al  Al6       1.0  0.30942  0.88889  0.43750  1.0000
  Ni  Ni1       1.0  0.18666  0.77778  0.38194  1.0000
  Ni  Ni2       1.0  0.18666  0.44444  0.46528  1.0000
  Ni  Ni3       1.0  0.18666  0.11111  0.42361  1.0000
  Ni  Ni4       1.0  0.81334  0.55556  0.39583  1.0000
  Ni  Ni5       1.0  0.81334  0.22222  0.47917  1.0000
  Ni  Ni6       1.0  0.81334  0.88889  0.43750  1.0000
  Ni  Ni7       1.0  0.00000  0.66667  0.45139  1.0000
  Ni  Ni8       1.0  0.00000  0.33333  0.40972  1.0000
  Ni  Ni9       1.0  0.00000  0.00000  0.49306  1.0000
  Ni  Ni10      1.0  0.50000  0.66667  0.45139  1.0000
  Ni  Ni11      1.0  0.50000  0.33333  0.40972  1.0000
  Ni  Ni12      1.0  0.50000  0.00000  0.49306  1.0000
  Al  Al7       1.0  0.69058  0.77778  0.50694  1.0000
  Al  Al8       1.0  0.69058  0.44444  0.59028  1.0000
  Al  Al9       1.0  0.69058  0.11111  0.54861  1.0000
  Al  Al10      1.0  0.30942  0.55556  0.52083  1.0000
  Al  Al11      1.0  0.30942  0.22222  0.60417  1.0000
  Al  Al12      1.0  0.30942  0.88889  0.56250  1.0000
  Ni  Ni13      1.0  0.18666  0.77778  0.50694  1.0000
  Ni  Ni14      1.0  0.18666  0.44444  0.59028  1.0000
  Ni  Ni15      1.0  0.18666  0.11111  0.54861  1.0000
  Ni  Ni16      1.0  0.81334  0.55556  0.52083  1.0000
  Ni  Ni17      1.0  0.81334  0.22222  0.60417  1.0000
  Ni  Ni18      1.0  0.81334  0.88889  0.56250  1.0000
  Ni  Ni19      1.0  0.00000  0.66667  0.57639  1.0000
  Ni  Ni20      1.0  0.00000  0.33333  0.53472  1.0000
  Ni  Ni21      1.0  0.00000  0.00000  0.61806  1.0000
  Ni  Ni22      1.0  0.50000  0.66667  0.57639  1.0000
  Ni  Ni23      1.0  0.50000  0.33333  0.53472  1.0000
  Ni  Ni24      1.0  0.50000  0.00000  0.61806  1.0000
