data_image0
_chemical_formula_structural       Co6Sb12
_chemical_formula_sum              "Co6 Sb12"
_cell_length_a       6.47715
_cell_length_b       7.16024
_cell_length_c       36.2228
_cell_angle_alpha    63.5953
_cell_angle_beta     70.5618
_cell_angle_gamma    76.0038

_space_group_name_H-M_alt    "P 1"
_space_group_IT_number       1

loop_
  _space_group_symop_operation_xyz
  'x, y, z'

loop_
  _atom_site_type_symbol
  _atom_site_label
  _atom_site_symmetry_multiplicity
  _atom_site_fract_x
  _atom_site_fract_y
  _atom_site_fract_z
  _atom_site_occupancy
  Co  Co1       1.0  0.66667  0.66667  0.45139  1.0000
  Co  Co2       1.0  0.00000  0.00000  0.61806  1.0000
  Co  Co3       1.0  0.33333  0.33333  0.53472  1.0000
  Co  Co4       1.0  0.66667  0.66667  0.57639  1.0000
  Co  Co5       1.0  0.00000  0.00000  0.49306  1.0000
  Co  Co6       1.0  0.33333  0.33333  0.40972  1.0000
  Sb  Sb1       1.0  0.68176  0.83754  0.49788  1.0000
  Sb  Sb2       1.0  0.01509  0.17088  0.41455  1.0000
  Sb  Sb3       1.0  0.34842  0.50421  0.58121  1.0000
  Sb  Sb4       1.0  0.98491  0.82912  0.57156  1.0000
  Sb  Sb5       1.0  0.31824  0.16246  0.48823  1.0000
  Sb  Sb6       1.0  0.65158  0.49579  0.40490  1.0000
  Sb  Sb7       1.0  0.91965  0.36175  0.56341  1.0000
  Sb  Sb8       1.0  0.25298  0.69509  0.48007  1.0000
  Sb  Sb9       1.0  0.58632  0.02842  0.39674  1.0000
  Sb  Sb10      1.0  0.41368  0.97158  0.58937  1.0000
  Sb  Sb11      1.0  0.74702  0.30491  0.50604  1.0000
  Sb  Sb12      1.0  0.08035  0.63825  0.42270  1.0000
