data_image0
_chemical_formula_structural       V6Si12V6Si12
_chemical_formula_sum              "V12 Si24"
_cell_length_a       4.5262
_cell_length_b       13.4223
_cell_length_c       36.2096
_cell_angle_alpha    99.7069
_cell_angle_beta     60
_cell_angle_gamma    80.2931

_space_group_name_H-M_alt    "P 1"
_space_group_IT_number       1

loop_
  _space_group_symop_operation_xyz
  'x, y, z'

loop_
  _atom_site_type_symbol
  _atom_site_label
  _atom_site_symmetry_multiplicity
  _atom_site_fract_x
  _atom_site_fract_y
  _atom_site_fract_z
  _atom_site_occupancy
  V   V1        1.0  0.33333  0.16667  0.46875  1.0000
  V   V2        1.0  0.83333  0.66667  0.40625  1.0000
  V   V3        1.0  0.66667  0.33333  0.42708  1.0000
  V   V4        1.0  0.16667  0.83333  0.48958  1.0000
  V   V5        1.0  0.50000  0.00000  0.38542  1.0000
  V   V6        1.0  0.00000  0.50000  0.44792  1.0000
  Si  Si1       1.0  0.83716  0.00000  0.42756  1.0000
  Si  Si2       1.0  0.33716  0.50000  0.49006  1.0000
  Si  Si3       1.0  0.34098  0.33333  0.38494  1.0000
  Si  Si4       1.0  0.84098  0.83333  0.44744  1.0000
  Si  Si5       1.0  0.99618  0.16667  0.42804  1.0000
  Si  Si6       1.0  0.49618  0.66667  0.49054  1.0000
  Si  Si7       1.0  0.16284  0.00000  0.46827  1.0000
  Si  Si8       1.0  0.66284  0.50000  0.40577  1.0000
  Si  Si9       1.0  0.99235  0.33333  0.46923  1.0000
  Si  Si10      1.0  0.49235  0.83333  0.40673  1.0000
  Si  Si11      1.0  0.67049  0.16667  0.38446  1.0000
  Si  Si12      1.0  0.17049  0.66667  0.44696  1.0000
  V   V7        1.0  0.33333  0.16667  0.59375  1.0000
  V   V8        1.0  0.83333  0.66667  0.53125  1.0000
  V   V9        1.0  0.66667  0.33333  0.55208  1.0000
  V   V10       1.0  0.16667  0.83333  0.61458  1.0000
  V   V11       1.0  0.50000  0.00000  0.51042  1.0000
  V   V12       1.0  0.00000  0.50000  0.57292  1.0000
  Si  Si13      1.0  0.83716  0.00000  0.55256  1.0000
  Si  Si14      1.0  0.33716  0.50000  0.61506  1.0000
  Si  Si15      1.0  0.34098  0.33333  0.50994  1.0000
  Si  Si16      1.0  0.84098  0.83333  0.57244  1.0000
  Si  Si17      1.0  0.99618  0.16667  0.55304  1.0000
  Si  Si18      1.0  0.49618  0.66667  0.61554  1.0000
  Si  Si19      1.0  0.16284  0.00000  0.59327  1.0000
  Si  Si20      1.0  0.66284  0.50000  0.53077  1.0000
  Si  Si21      1.0  0.99235  0.33333  0.59423  1.0000
  Si  Si22      1.0  0.49235  0.83333  0.53173  1.0000
  Si  Si23      1.0  0.67049  0.16667  0.50946  1.0000
  Si  Si24      1.0  0.17049  0.66667  0.57196  1.0000
