data_image0
_chemical_formula_structural       Si8W4
_chemical_formula_sum              "Si8 W4"
_cell_length_a       4.51026
_cell_length_b       4.53302
_cell_length_c       31.3532
_cell_angle_alpha    90
_cell_angle_beta     89.6663
_cell_angle_gamma    90

_space_group_name_H-M_alt    "P 1"
_space_group_IT_number       1

loop_
  _space_group_symop_operation_xyz
  'x, y, z'

loop_
  _atom_site_type_symbol
  _atom_site_label
  _atom_site_symmetry_multiplicity
  _atom_site_fract_x
  _atom_site_fract_y
  _atom_site_fract_z
  _atom_site_occupancy
  Si  Si1       1.0  0.37261  0.50000  0.44812  1.0000
  Si  Si2       1.0  0.62261  0.00000  0.51062  1.0000
  Si  Si3       1.0  0.12261  0.00000  0.38562  1.0000
  Si  Si4       1.0  0.87261  0.50000  0.57312  1.0000
  Si  Si5       1.0  0.87739  0.50000  0.48938  1.0000
  Si  Si6       1.0  0.12739  0.00000  0.55188  1.0000
  Si  Si7       1.0  0.62739  0.00000  0.42688  1.0000
  Si  Si8       1.0  0.37739  0.50000  0.61438  1.0000
  W   W1        1.0  0.87500  0.50000  0.40625  1.0000
  W   W2        1.0  0.12500  0.00000  0.46875  1.0000
  W   W3        1.0  0.62500  0.00000  0.59375  1.0000
  W   W4        1.0  0.37500  0.50000  0.53125  1.0000
