data_image0
_chemical_formula_structural       Na24Sn8Zn4
_chemical_formula_sum              "Na24 Sn8 Zn4"
_cell_length_a       9.98851
_cell_length_b       10.2827
_cell_length_c       31.4353
_cell_angle_alpha    86.8986
_cell_angle_beta     83.2003
_cell_angle_gamma    68.7795

_space_group_name_H-M_alt    "P 1"
_space_group_IT_number       1

loop_
  _space_group_symop_operation_xyz
  'x, y, z'

loop_
  _atom_site_type_symbol
  _atom_site_label
  _atom_site_symmetry_multiplicity
  _atom_site_fract_x
  _atom_site_fract_y
  _atom_site_fract_z
  _atom_site_occupancy
  Na  Na1       1.0  0.33259  0.79408  0.48128  1.0000
  Na  Na2       1.0  0.83259  0.87742  0.39795  1.0000
  Na  Na3       1.0  0.87809  0.24998  0.34091  1.0000
  Na  Na4       1.0  0.37809  0.16664  0.42424  1.0000
  Na  Na5       1.0  0.82800  0.56068  0.36915  1.0000
  Na  Na6       1.0  0.32800  0.47734  0.45249  1.0000
  Na  Na7       1.0  0.12191  0.00002  0.40909  1.0000
  Na  Na8       1.0  0.62191  0.91669  0.49243  1.0000
  Na  Na9       1.0  0.66741  0.28925  0.43539  1.0000
  Na  Na10      1.0  0.16741  0.37258  0.35205  1.0000
  Na  Na11      1.0  0.17200  0.68932  0.38085  1.0000
  Na  Na12      1.0  0.67200  0.60599  0.46418  1.0000
  Na  Na13      1.0  0.33259  0.62742  0.64795  1.0000
  Na  Na14      1.0  0.83259  0.71075  0.56461  1.0000
  Na  Na15      1.0  0.87809  0.08331  0.50757  1.0000
  Na  Na16      1.0  0.37809  0.99998  0.59091  1.0000
  Na  Na17      1.0  0.82800  0.39401  0.53582  1.0000
  Na  Na18      1.0  0.32800  0.31068  0.61915  1.0000
  Na  Na19      1.0  0.12191  0.83336  0.57576  1.0000
  Na  Na20      1.0  0.62191  0.75002  0.65909  1.0000
  Na  Na21      1.0  0.66741  0.12258  0.60205  1.0000
  Na  Na22      1.0  0.16741  0.20592  0.51872  1.0000
  Na  Na23      1.0  0.17200  0.52266  0.54751  1.0000
  Na  Na24      1.0  0.67200  0.43932  0.63085  1.0000
  Sn  Sn1       1.0  0.02030  0.77141  0.47922  1.0000
  Sn  Sn2       1.0  0.52030  0.85475  0.39589  1.0000
  Sn  Sn3       1.0  0.97970  0.31192  0.43745  1.0000
  Sn  Sn4       1.0  0.47970  0.39525  0.35411  1.0000
  Sn  Sn5       1.0  0.02030  0.60475  0.64589  1.0000
  Sn  Sn6       1.0  0.52030  0.68808  0.56255  1.0000
  Sn  Sn7       1.0  0.97970  0.14525  0.60411  1.0000
  Sn  Sn8       1.0  0.47970  0.22859  0.52078  1.0000
  Zn  Zn1       1.0  0.50000  0.62500  0.37500  1.0000
  Zn  Zn2       1.0  0.00000  0.54167  0.45833  1.0000
  Zn  Zn3       1.0  0.50000  0.45833  0.54167  1.0000
  Zn  Zn4       1.0  0.00000  0.37500  0.62500  1.0000
