data_image0
_chemical_formula_structural       Al12Ni24
_chemical_formula_sum              "Al12 Ni24"
_cell_length_a       6.31262
_cell_length_b       8.45495
_cell_length_c       30.3098
_cell_angle_alpha    90.1355
_cell_angle_beta     85.0756
_cell_angle_gamma    90.3252

_space_group_name_H-M_alt    "P 1"
_space_group_IT_number       1

loop_
  _space_group_symop_operation_xyz
  'x, y, z'

loop_
  _atom_site_type_symbol
  _atom_site_label
  _atom_site_symmetry_multiplicity
  _atom_site_fract_x
  _atom_site_fract_y
  _atom_site_fract_z
  _atom_site_occupancy
  Al  Al1       1.0  0.42355  0.00797  0.44692  1.0000
  Al  Al2       1.0  0.00689  0.67464  0.48859  1.0000
  Al  Al3       1.0  0.84022  0.34130  0.40525  1.0000
  Al  Al4       1.0  0.45145  0.65870  0.44891  1.0000
  Al  Al5       1.0  0.03478  0.32536  0.49058  1.0000
  Al  Al6       1.0  0.86811  0.99203  0.40725  1.0000
  Al  Al7       1.0  0.17355  0.00797  0.57192  1.0000
  Al  Al8       1.0  0.75689  0.67464  0.61359  1.0000
  Al  Al9       1.0  0.59022  0.34130  0.53025  1.0000
  Al  Al10      1.0  0.20145  0.65870  0.57391  1.0000
  Al  Al11      1.0  0.78478  0.32536  0.61558  1.0000
  Al  Al12      1.0  0.61811  0.99203  0.53225  1.0000
  Ni  Ni1       1.0  0.71750  0.84000  0.46792  1.0000
  Ni  Ni2       1.0  0.55084  0.50666  0.38458  1.0000
  Ni  Ni3       1.0  0.13417  0.17333  0.42625  1.0000
  Ni  Ni4       1.0  0.15750  0.82667  0.42792  1.0000
  Ni  Ni5       1.0  0.74083  0.49334  0.46958  1.0000
  Ni  Ni6       1.0  0.57416  0.16000  0.38625  1.0000
  Ni  Ni7       1.0  0.02083  0.00000  0.48958  1.0000
  Ni  Ni8       1.0  0.85417  0.66667  0.40625  1.0000
  Ni  Ni9       1.0  0.43750  0.33333  0.44792  1.0000
  Ni  Ni10      1.0  0.56250  0.83333  0.38542  1.0000
  Ni  Ni11      1.0  0.14583  0.50000  0.42708  1.0000
  Ni  Ni12      1.0  0.72917  0.16667  0.46875  1.0000
  Ni  Ni13      1.0  0.46750  0.84000  0.59292  1.0000
  Ni  Ni14      1.0  0.30084  0.50666  0.50958  1.0000
  Ni  Ni15      1.0  0.88417  0.17333  0.55125  1.0000
  Ni  Ni16      1.0  0.90750  0.82667  0.55292  1.0000
  Ni  Ni17      1.0  0.49083  0.49334  0.59458  1.0000
  Ni  Ni18      1.0  0.32416  0.16000  0.51125  1.0000
  Ni  Ni19      1.0  0.77083  0.00000  0.61458  1.0000
  Ni  Ni20      1.0  0.60417  0.66667  0.53125  1.0000
  Ni  Ni21      1.0  0.18750  0.33333  0.57292  1.0000
  Ni  Ni22      1.0  0.31250  0.83333  0.51042  1.0000
  Ni  Ni23      1.0  0.89583  0.50000  0.55208  1.0000
  Ni  Ni24      1.0  0.47917  0.16667  0.59375  1.0000
