data_image0
_chemical_formula_structural       Ru18
_chemical_formula_sum              "Ru18"
_cell_length_a       7.10268
_cell_length_b       5.01636
_cell_length_c       32.2147
_cell_angle_alpha    105.52
_cell_angle_beta     79.1066
_cell_angle_gamma    66.1375

_space_group_name_H-M_alt    "P 1"
_space_group_IT_number       1

loop_
  _space_group_symop_operation_xyz
  'x, y, z'

loop_
  _atom_site_type_symbol
  _atom_site_label
  _atom_site_symmetry_multiplicity
  _atom_site_fract_x
  _atom_site_fract_y
  _atom_site_fract_z
  _atom_site_occupancy
  Ru  Ru1       1.0  0.80556  0.25000  0.42130  1.0000
  Ru  Ru2       1.0  0.13889  0.25000  0.44907  1.0000
  Ru  Ru3       1.0  0.47222  0.25000  0.39352  1.0000
  Ru  Ru4       1.0  0.86111  0.75000  0.43981  1.0000
  Ru  Ru5       1.0  0.19444  0.75000  0.38426  1.0000
  Ru  Ru6       1.0  0.52778  0.75000  0.41204  1.0000
  Ru  Ru7       1.0  0.80556  0.25000  0.50463  1.0000
  Ru  Ru8       1.0  0.13889  0.25000  0.53241  1.0000
  Ru  Ru9       1.0  0.47222  0.25000  0.47685  1.0000
  Ru  Ru10      1.0  0.86111  0.75000  0.52315  1.0000
  Ru  Ru11      1.0  0.19444  0.75000  0.46759  1.0000
  Ru  Ru12      1.0  0.52778  0.75000  0.49537  1.0000
  Ru  Ru13      1.0  0.80556  0.25000  0.58796  1.0000
  Ru  Ru14      1.0  0.13889  0.25000  0.61574  1.0000
  Ru  Ru15      1.0  0.47222  0.25000  0.56019  1.0000
  Ru  Ru16      1.0  0.86111  0.75000  0.60648  1.0000
  Ru  Ru17      1.0  0.19444  0.75000  0.55093  1.0000
  Ru  Ru18      1.0  0.52778  0.75000  0.57870  1.0000
