data_image0
_chemical_formula_structural       In12Rh4
_chemical_formula_sum              "In12 Rh4"
_cell_length_a       6.98176
_cell_length_b       6.98176
_cell_length_c       28.5253
_cell_angle_alpha    90
_cell_angle_beta     90
_cell_angle_gamma    90

_space_group_name_H-M_alt    "P 1"
_space_group_IT_number       1

loop_
  _space_group_symop_operation_xyz
  'x, y, z'

loop_
  _atom_site_type_symbol
  _atom_site_label
  _atom_site_symmetry_multiplicity
  _atom_site_fract_x
  _atom_site_fract_y
  _atom_site_fract_z
  _atom_site_occupancy
  In  In1       1.0  0.00000  0.50000  0.59375  1.0000
  In  In2       1.0  0.00000  0.50000  0.46875  1.0000
  In  In3       1.0  0.50000  0.00000  0.46875  1.0000
  In  In4       1.0  0.50000  0.00000  0.59375  1.0000
  In  In5       1.0  0.15178  0.15178  0.40787  1.0000
  In  In6       1.0  0.34822  0.65178  0.53287  1.0000
  In  In7       1.0  0.65178  0.34822  0.53287  1.0000
  In  In8       1.0  0.65178  0.34822  0.40463  1.0000
  In  In9       1.0  0.34822  0.65178  0.40463  1.0000
  In  In10      1.0  0.84822  0.84822  0.40787  1.0000
  In  In11      1.0  0.15178  0.15178  0.52963  1.0000
  In  In12      1.0  0.84822  0.84822  0.52963  1.0000
  Rh  Rh1       1.0  0.34498  0.34498  0.59375  1.0000
  Rh  Rh2       1.0  0.15502  0.84498  0.46875  1.0000
  Rh  Rh3       1.0  0.84498  0.15502  0.46875  1.0000
  Rh  Rh4       1.0  0.65502  0.65502  0.59375  1.0000
