data_image0
_chemical_formula_structural       Ga3Cu3Pt6Ga3Cu3Pt6
_chemical_formula_sum              "Ga6 Cu6 Pt12"
_cell_length_a       3.51833
_cell_length_b       8.85058
_cell_length_c       33.5856
_cell_angle_alpha    71.5651
_cell_angle_beta     90
_cell_angle_gamma    90

_space_group_name_H-M_alt    "P 1"
_space_group_IT_number       1

loop_
  _space_group_symop_operation_xyz
  'x, y, z'

loop_
  _atom_site_type_symbol
  _atom_site_label
  _atom_site_symmetry_multiplicity
  _atom_site_fract_x
  _atom_site_fract_y
  _atom_site_fract_z
  _atom_site_occupancy
  Ga  Ga1       1.0  0.00000  0.66667  0.34722  1.0000
  Ga  Ga2       1.0  0.00000  0.33333  0.45833  1.0000
  Ga  Ga3       1.0  0.00000  0.00000  0.40278  1.0000
  Cu  Cu1       1.0  0.00000  0.66667  0.43056  1.0000
  Cu  Cu2       1.0  0.00000  0.33333  0.37500  1.0000
  Cu  Cu3       1.0  0.00000  0.00000  0.48611  1.0000
  Pt  Pt1       1.0  0.50000  0.50000  0.40278  1.0000
  Pt  Pt2       1.0  0.50000  0.16667  0.34722  1.0000
  Pt  Pt3       1.0  0.50000  0.83333  0.45833  1.0000
  Pt  Pt4       1.0  0.50000  0.83333  0.37500  1.0000
  Pt  Pt5       1.0  0.50000  0.50000  0.48611  1.0000
  Pt  Pt6       1.0  0.50000  0.16667  0.43056  1.0000
  Ga  Ga4       1.0  0.00000  0.66667  0.51389  1.0000
  Ga  Ga5       1.0  0.00000  0.33333  0.62500  1.0000
  Ga  Ga6       1.0  0.00000  0.00000  0.56944  1.0000
  Cu  Cu4       1.0  0.00000  0.66667  0.59722  1.0000
  Cu  Cu5       1.0  0.00000  0.33333  0.54167  1.0000
  Cu  Cu6       1.0  0.00000  0.00000  0.65278  1.0000
  Pt  Pt7       1.0  0.50000  0.50000  0.56944  1.0000
  Pt  Pt8       1.0  0.50000  0.16667  0.51389  1.0000
  Pt  Pt9       1.0  0.50000  0.83333  0.62500  1.0000
  Pt  Pt10      1.0  0.50000  0.83333  0.54167  1.0000
  Pt  Pt11      1.0  0.50000  0.50000  0.65278  1.0000
  Pt  Pt12      1.0  0.50000  0.16667  0.59722  1.0000
