data_image0
_chemical_formula_structural       Mo6Si12
_chemical_formula_sum              "Mo6 Si12"
_cell_length_a       4.50865
_cell_length_b       6.38204
_cell_length_c       29.6143
_cell_angle_alpha    86.9512
_cell_angle_beta     85.6824
_cell_angle_gamma    79.9404

_space_group_name_H-M_alt    "P 1"
_space_group_IT_number       1

loop_
  _space_group_symop_operation_xyz
  'x, y, z'

loop_
  _atom_site_type_symbol
  _atom_site_label
  _atom_site_symmetry_multiplicity
  _atom_site_fract_x
  _atom_site_fract_y
  _atom_site_fract_z
  _atom_site_occupancy
  Mo  Mo1       1.0  0.00000  0.01587  0.49206  1.0000
  Mo  Mo2       1.0  0.33333  0.87302  0.39683  1.0000
  Mo  Mo3       1.0  0.66667  0.44444  0.44444  1.0000
  Mo  Mo4       1.0  0.00000  0.73016  0.63492  1.0000
  Mo  Mo5       1.0  0.33333  0.58730  0.53968  1.0000
  Mo  Mo6       1.0  0.66667  0.15873  0.58730  1.0000
  Si  Si1       1.0  0.21979  0.25292  0.42848  1.0000
  Si  Si2       1.0  0.55312  0.82435  0.47610  1.0000
  Si  Si3       1.0  0.88645  0.68150  0.38087  1.0000
  Si  Si4       1.0  0.44688  0.49311  0.36517  1.0000
  Si  Si5       1.0  0.78021  0.06454  0.41279  1.0000
  Si  Si6       1.0  0.11355  0.63596  0.46040  1.0000
  Si  Si7       1.0  0.21979  0.96721  0.57134  1.0000
  Si  Si8       1.0  0.55312  0.53864  0.61896  1.0000
  Si  Si9       1.0  0.88645  0.39578  0.52372  1.0000
  Si  Si10      1.0  0.44688  0.20739  0.50802  1.0000
  Si  Si11      1.0  0.78021  0.77882  0.55564  1.0000
  Si  Si12      1.0  0.11355  0.35025  0.60326  1.0000
