data_image0
_chemical_formula_structural       NbAu2NbAu2NbAu2
_chemical_formula_sum              "Nb3 Au6"
_cell_length_a       4.63086
_cell_length_b       4.63086
_cell_length_c       29.9967
_cell_angle_alpha    90
_cell_angle_beta     90
_cell_angle_gamma    120

_space_group_name_H-M_alt    "P 1"
_space_group_IT_number       1

loop_
  _space_group_symop_operation_xyz
  'x, y, z'

loop_
  _atom_site_type_symbol
  _atom_site_label
  _atom_site_symmetry_multiplicity
  _atom_site_fract_x
  _atom_site_fract_y
  _atom_site_fract_z
  _atom_site_occupancy
  Nb  Nb1       1.0  0.00000  0.00000  0.43939  1.0000
  Au  Au1       1.0  0.66667  0.33333  0.39394  1.0000
  Au  Au2       1.0  0.33333  0.66667  0.39394  1.0000
  Nb  Nb2       1.0  0.00000  0.00000  0.53030  1.0000
  Au  Au3       1.0  0.66667  0.33333  0.48485  1.0000
  Au  Au4       1.0  0.33333  0.66667  0.48485  1.0000
  Nb  Nb3       1.0  0.00000  0.00000  0.62121  1.0000
  Au  Au5       1.0  0.66667  0.33333  0.57576  1.0000
  Au  Au6       1.0  0.33333  0.66667  0.57576  1.0000
