data_image0
_chemical_formula_structural       As24Nb12
_chemical_formula_sum              "As24 Nb12"
_cell_length_a       4.96781
_cell_length_b       13.6886
_cell_length_c       31.8107
_cell_angle_alpha    92.083
_cell_angle_beta     92.799
_cell_angle_gamma    96.6829

_space_group_name_H-M_alt    "P 1"
_space_group_IT_number       1

loop_
  _space_group_symop_operation_xyz
  'x, y, z'

loop_
  _atom_site_type_symbol
  _atom_site_label
  _atom_site_symmetry_multiplicity
  _atom_site_fract_x
  _atom_site_fract_y
  _atom_site_fract_z
  _atom_site_occupancy
  As  As1       1.0  0.57890  0.23572  0.58772  1.0000
  As  As2       1.0  0.47890  0.73572  0.63772  1.0000
  As  As3       1.0  0.12110  0.26428  0.56228  1.0000
  As  As4       1.0  0.02110  0.76428  0.61228  1.0000
  As  As5       1.0  0.43301  0.44661  0.63517  1.0000
  As  As6       1.0  0.53301  0.94661  0.58517  1.0000
  As  As7       1.0  0.06699  0.05339  0.61483  1.0000
  As  As8       1.0  0.16699  0.55339  0.56483  1.0000
  As  As9       1.0  0.77890  0.23572  0.48772  1.0000
  As  As10      1.0  0.67890  0.73572  0.53772  1.0000
  As  As11      1.0  0.32110  0.26428  0.46228  1.0000
  As  As12      1.0  0.22110  0.76428  0.51228  1.0000
  As  As13      1.0  0.63301  0.44661  0.53517  1.0000
  As  As14      1.0  0.73301  0.94661  0.48517  1.0000
  As  As15      1.0  0.26699  0.05339  0.51483  1.0000
  As  As16      1.0  0.36699  0.55339  0.46483  1.0000
  As  As17      1.0  0.97890  0.23572  0.38772  1.0000
  As  As18      1.0  0.87890  0.73572  0.43772  1.0000
  As  As19      1.0  0.52110  0.26428  0.36228  1.0000
  As  As20      1.0  0.42110  0.76428  0.41228  1.0000
  As  As21      1.0  0.83301  0.44661  0.43517  1.0000
  As  As22      1.0  0.93301  0.94661  0.38517  1.0000
  As  As23      1.0  0.46699  0.05339  0.41483  1.0000
  As  As24      1.0  0.56699  0.55339  0.36483  1.0000
  Nb  Nb1       1.0  0.59396  0.09803  0.64411  1.0000
  Nb  Nb2       1.0  0.69396  0.59803  0.59411  1.0000
  Nb  Nb3       1.0  0.90604  0.40197  0.60589  1.0000
  Nb  Nb4       1.0  0.00604  0.90197  0.55589  1.0000
  Nb  Nb5       1.0  0.79396  0.09803  0.54411  1.0000
  Nb  Nb6       1.0  0.89396  0.59803  0.49411  1.0000
  Nb  Nb7       1.0  0.10604  0.40197  0.50589  1.0000
  Nb  Nb8       1.0  0.20604  0.90197  0.45589  1.0000
  Nb  Nb9       1.0  0.99396  0.09803  0.44411  1.0000
  Nb  Nb10      1.0  0.09396  0.59803  0.39411  1.0000
  Nb  Nb11      1.0  0.30604  0.40197  0.40589  1.0000
  Nb  Nb12      1.0  0.40604  0.90197  0.35589  1.0000
