data_image0
_chemical_formula_structural       Ga3Ni6V3
_chemical_formula_sum              "Ga3 Ni6 V3"
_cell_length_a       4.0446
_cell_length_b       4.0446
_cell_length_c       39.6289
_cell_angle_alpha    90
_cell_angle_beta     90
_cell_angle_gamma    120

_space_group_name_H-M_alt    "P 1"
_space_group_IT_number       1

loop_
  _space_group_symop_operation_xyz
  'x, y, z'

loop_
  _atom_site_type_symbol
  _atom_site_label
  _atom_site_symmetry_multiplicity
  _atom_site_fract_x
  _atom_site_fract_y
  _atom_site_fract_z
  _atom_site_occupancy
  Ga  Ga1       1.0  0.33333  0.66667  0.42708  1.0000
  Ga  Ga2       1.0  0.00000  0.00000  0.59375  1.0000
  Ga  Ga3       1.0  0.66667  0.33333  0.51042  1.0000
  Ni  Ni1       1.0  0.00000  0.00000  0.53125  1.0000
  Ni  Ni2       1.0  0.66667  0.33333  0.44792  1.0000
  Ni  Ni3       1.0  0.33333  0.66667  0.61458  1.0000
  Ni  Ni4       1.0  0.33333  0.66667  0.48958  1.0000
  Ni  Ni5       1.0  0.00000  0.00000  0.40625  1.0000
  Ni  Ni6       1.0  0.66667  0.33333  0.57292  1.0000
  V   V1        1.0  0.00000  0.00000  0.46875  1.0000
  V   V2        1.0  0.66667  0.33333  0.38542  1.0000
  V   V3        1.0  0.33333  0.66667  0.55208  1.0000
