data_image0
_chemical_formula_structural       Co2Pt2Co2Pt2
_chemical_formula_sum              "Co4 Pt4"
_cell_length_a       3.63069
_cell_length_b       3.71786
_cell_length_c       29.7429
_cell_angle_alpha    90
_cell_angle_beta     90
_cell_angle_gamma    90

_space_group_name_H-M_alt    "P 1"
_space_group_IT_number       1

loop_
  _space_group_symop_operation_xyz
  'x, y, z'

loop_
  _atom_site_type_symbol
  _atom_site_label
  _atom_site_symmetry_multiplicity
  _atom_site_fract_x
  _atom_site_fract_y
  _atom_site_fract_z
  _atom_site_occupancy
  Co  Co1       1.0  0.00000  0.50000  0.40625  1.0000
  Co  Co2       1.0  0.00000  0.00000  0.46875  1.0000
  Pt  Pt1       1.0  0.50000  0.50000  0.46875  1.0000
  Pt  Pt2       1.0  0.50000  0.00000  0.40625  1.0000
  Co  Co3       1.0  0.00000  0.50000  0.53125  1.0000
  Co  Co4       1.0  0.00000  0.00000  0.59375  1.0000
  Pt  Pt3       1.0  0.50000  0.50000  0.59375  1.0000
  Pt  Pt4       1.0  0.50000  0.00000  0.53125  1.0000
