data_image0
_chemical_formula_structural       Sn16Pt4Sn16Pt4
_chemical_formula_sum              "Sn32 Pt8"
_cell_length_a       6.42911
_cell_length_b       13.0741
_cell_length_c       38.4852
_cell_angle_alpha    60.6197
_cell_angle_beta     90
_cell_angle_gamma    90

_space_group_name_H-M_alt    "P 1"
_space_group_IT_number       1

loop_
  _space_group_symop_operation_xyz
  'x, y, z'

loop_
  _atom_site_type_symbol
  _atom_site_label
  _atom_site_symmetry_multiplicity
  _atom_site_fract_x
  _atom_site_fract_y
  _atom_site_fract_z
  _atom_site_occupancy
  Sn  Sn1       1.0  0.33371  0.12540  0.42633  1.0000
  Sn  Sn2       1.0  0.66629  0.87460  0.46813  1.0000
  Sn  Sn3       1.0  0.83371  0.87460  0.38480  1.0000
  Sn  Sn4       1.0  0.16629  0.12540  0.34300  1.0000
  Sn  Sn5       1.0  0.83371  0.12540  0.39854  1.0000
  Sn  Sn6       1.0  0.16629  0.87460  0.44034  1.0000
  Sn  Sn7       1.0  0.66629  0.12540  0.48187  1.0000
  Sn  Sn8       1.0  0.33371  0.87460  0.35700  1.0000
  Sn  Sn9       1.0  0.83371  0.62540  0.34300  1.0000
  Sn  Sn10      1.0  0.16629  0.37460  0.38480  1.0000
  Sn  Sn11      1.0  0.33371  0.37460  0.46813  1.0000
  Sn  Sn12      1.0  0.66629  0.62540  0.42633  1.0000
  Sn  Sn13      1.0  0.33371  0.62540  0.48187  1.0000
  Sn  Sn14      1.0  0.66629  0.37460  0.35700  1.0000
  Sn  Sn15      1.0  0.16629  0.62540  0.39854  1.0000
  Sn  Sn16      1.0  0.83371  0.37460  0.44034  1.0000
  Pt  Pt1       1.0  0.00000  0.00000  0.47500  1.0000
  Pt  Pt2       1.0  0.50000  0.00000  0.39167  1.0000
  Pt  Pt3       1.0  0.50000  0.50000  0.39167  1.0000
  Pt  Pt4       1.0  0.00000  0.50000  0.47500  1.0000
  Sn  Sn17      1.0  0.33371  0.12540  0.59300  1.0000
  Sn  Sn18      1.0  0.66629  0.87460  0.63480  1.0000
  Sn  Sn19      1.0  0.83371  0.87460  0.55146  1.0000
  Sn  Sn20      1.0  0.16629  0.12540  0.50966  1.0000
  Sn  Sn21      1.0  0.83371  0.12540  0.56520  1.0000
  Sn  Sn22      1.0  0.16629  0.87460  0.60700  1.0000
  Sn  Sn23      1.0  0.66629  0.12540  0.64854  1.0000
  Sn  Sn24      1.0  0.33371  0.87460  0.52367  1.0000
  Sn  Sn25      1.0  0.83371  0.62540  0.50966  1.0000
  Sn  Sn26      1.0  0.16629  0.37460  0.55146  1.0000
  Sn  Sn27      1.0  0.33371  0.37460  0.63480  1.0000
  Sn  Sn28      1.0  0.66629  0.62540  0.59300  1.0000
  Sn  Sn29      1.0  0.33371  0.62540  0.64854  1.0000
  Sn  Sn30      1.0  0.66629  0.37460  0.52367  1.0000
  Sn  Sn31      1.0  0.16629  0.62540  0.56520  1.0000
  Sn  Sn32      1.0  0.83371  0.37460  0.60700  1.0000
  Pt  Pt5       1.0  0.00000  0.00000  0.64167  1.0000
  Pt  Pt6       1.0  0.50000  0.00000  0.55833  1.0000
  Pt  Pt7       1.0  0.50000  0.50000  0.55833  1.0000
  Pt  Pt8       1.0  0.00000  0.50000  0.64167  1.0000
