data_image0
_chemical_formula_structural       In6Pd4In6Pd4
_chemical_formula_sum              "In12 Pd8"
_cell_length_a       7.87056
_cell_length_b       7.12339
_cell_length_c       31.8085
_cell_angle_alpha    108.6
_cell_angle_beta     90
_cell_angle_gamma    56.4651

_space_group_name_H-M_alt    "P 1"
_space_group_IT_number       1

loop_
  _space_group_symop_operation_xyz
  'x, y, z'

loop_
  _atom_site_type_symbol
  _atom_site_label
  _atom_site_symmetry_multiplicity
  _atom_site_fract_x
  _atom_site_fract_y
  _atom_site_fract_z
  _atom_site_occupancy
  In  In1       1.0  0.00000  0.00000  0.46429  1.0000
  In  In2       1.0  0.50000  0.00000  0.39286  1.0000
  In  In3       1.0  0.84530  0.64274  0.43877  1.0000
  In  In4       1.0  0.34530  0.64274  0.36734  1.0000
  In  In5       1.0  0.65470  0.35726  0.41838  1.0000
  In  In6       1.0  0.15470  0.35726  0.48980  1.0000
  Pd  Pd1       1.0  0.09384  0.14564  0.40326  1.0000
  Pd  Pd2       1.0  0.59384  0.14564  0.47469  1.0000
  Pd  Pd3       1.0  0.40616  0.85436  0.45388  1.0000
  Pd  Pd4       1.0  0.90616  0.85436  0.38245  1.0000
  In  In7       1.0  0.00000  0.00000  0.60714  1.0000
  In  In8       1.0  0.50000  0.00000  0.53571  1.0000
  In  In9       1.0  0.84530  0.64274  0.58162  1.0000
  In  In10      1.0  0.34530  0.64274  0.51020  1.0000
  In  In11      1.0  0.65470  0.35726  0.56123  1.0000
  In  In12      1.0  0.15470  0.35726  0.63266  1.0000
  Pd  Pd5       1.0  0.09384  0.14564  0.54612  1.0000
  Pd  Pd6       1.0  0.59384  0.14564  0.61755  1.0000
  Pd  Pd7       1.0  0.40616  0.85436  0.59674  1.0000
  Pd  Pd8       1.0  0.90616  0.85436  0.52531  1.0000
