data_image0
_chemical_formula_structural       In6Ni6In6Ni6
_chemical_formula_sum              "In12 Ni12"
_cell_length_a       4.31298
_cell_length_b       9.00624
_cell_length_c       31.1985
_cell_angle_alpha    90
_cell_angle_beta     90
_cell_angle_gamma    90

_space_group_name_H-M_alt    "P 1"
_space_group_IT_number       1

loop_
  _space_group_symop_operation_xyz
  'x, y, z'

loop_
  _atom_site_type_symbol
  _atom_site_label
  _atom_site_symmetry_multiplicity
  _atom_site_fract_x
  _atom_site_fract_y
  _atom_site_fract_z
  _atom_site_occupancy
  In  In1       1.0  0.00000  0.50000  0.38889  1.0000
  In  In2       1.0  0.00000  0.00000  0.47222  1.0000
  In  In3       1.0  0.50000  0.33333  0.47222  1.0000
  In  In4       1.0  0.50000  0.83333  0.38889  1.0000
  In  In5       1.0  0.50000  0.66667  0.47222  1.0000
  In  In6       1.0  0.50000  0.16667  0.38889  1.0000
  Ni  Ni1       1.0  0.00000  0.75000  0.34722  1.0000
  Ni  Ni2       1.0  0.00000  0.25000  0.43056  1.0000
  Ni  Ni3       1.0  0.00000  0.50000  0.47222  1.0000
  Ni  Ni4       1.0  0.00000  0.00000  0.38889  1.0000
  Ni  Ni5       1.0  0.00000  0.25000  0.34722  1.0000
  Ni  Ni6       1.0  0.00000  0.75000  0.43056  1.0000
  In  In7       1.0  0.00000  0.50000  0.55556  1.0000
  In  In8       1.0  0.00000  0.00000  0.63889  1.0000
  In  In9       1.0  0.50000  0.33333  0.63889  1.0000
  In  In10      1.0  0.50000  0.83333  0.55556  1.0000
  In  In11      1.0  0.50000  0.66667  0.63889  1.0000
  In  In12      1.0  0.50000  0.16667  0.55556  1.0000
  Ni  Ni7       1.0  0.00000  0.75000  0.51389  1.0000
  Ni  Ni8       1.0  0.00000  0.25000  0.59722  1.0000
  Ni  Ni9       1.0  0.00000  0.50000  0.63889  1.0000
  Ni  Ni10      1.0  0.00000  0.00000  0.55556  1.0000
  Ni  Ni11      1.0  0.00000  0.25000  0.51389  1.0000
  Ni  Ni12      1.0  0.00000  0.75000  0.59722  1.0000
