data_image0
_chemical_formula_structural       Co4Sb8
_chemical_formula_sum              "Co4 Sb8"
_cell_length_a       3.34915
_cell_length_b       8.41361
_cell_length_c       33.6544
_cell_angle_alpha    82.4382
_cell_angle_beta     90
_cell_angle_gamma    90

_space_group_name_H-M_alt    "P 1"
_space_group_IT_number       1

loop_
  _space_group_symop_operation_xyz
  'x, y, z'

loop_
  _atom_site_type_symbol
  _atom_site_label
  _atom_site_symmetry_multiplicity
  _atom_site_fract_x
  _atom_site_fract_y
  _atom_site_fract_z
  _atom_site_occupancy
  Co  Co1       1.0  0.00000  0.50000  0.43750  1.0000
  Co  Co2       1.0  0.00000  0.00000  0.56250  1.0000
  Co  Co3       1.0  0.50000  0.50000  0.56250  1.0000
  Co  Co4       1.0  0.50000  0.00000  0.43750  1.0000
  Sb  Sb1       1.0  0.00000  0.42211  0.61776  1.0000
  Sb  Sb2       1.0  0.00000  0.92211  0.49276  1.0000
  Sb  Sb3       1.0  0.00000  0.57789  0.50724  1.0000
  Sb  Sb4       1.0  0.00000  0.07789  0.38224  1.0000
  Sb  Sb5       1.0  0.50000  0.77895  0.58197  1.0000
  Sb  Sb6       1.0  0.50000  0.27895  0.45697  1.0000
  Sb  Sb7       1.0  0.50000  0.22105  0.54303  1.0000
  Sb  Sb8       1.0  0.50000  0.72105  0.41803  1.0000
