data_image0
_chemical_formula_structural       Ca6Cu6Sb6Ca6Cu6Sb6
_chemical_formula_sum              "Ca12 Cu12 Sb12"
_cell_length_a       8.07864
_cell_length_b       11.6557
_cell_length_c       30.8382
_cell_angle_alpha    79.1066
_cell_angle_beta     90
_cell_angle_gamma    90

_space_group_name_H-M_alt    "P 1"
_space_group_IT_number       1

loop_
  _space_group_symop_operation_xyz
  'x, y, z'

loop_
  _atom_site_type_symbol
  _atom_site_label
  _atom_site_symmetry_multiplicity
  _atom_site_fract_x
  _atom_site_fract_y
  _atom_site_fract_z
  _atom_site_occupancy
  Ca  Ca1       1.0  0.00000  0.66667  0.42857  1.0000
  Ca  Ca2       1.0  0.00000  0.33333  0.38095  1.0000
  Ca  Ca3       1.0  0.00000  0.00000  0.47619  1.0000
  Ca  Ca4       1.0  0.50000  0.66667  0.42857  1.0000
  Ca  Ca5       1.0  0.50000  0.33333  0.38095  1.0000
  Ca  Ca6       1.0  0.50000  0.00000  0.47619  1.0000
  Cu  Cu1       1.0  0.75000  0.55556  0.36508  1.0000
  Cu  Cu2       1.0  0.75000  0.22222  0.46032  1.0000
  Cu  Cu3       1.0  0.75000  0.88889  0.41270  1.0000
  Cu  Cu4       1.0  0.25000  0.77778  0.49206  1.0000
  Cu  Cu5       1.0  0.25000  0.44444  0.44444  1.0000
  Cu  Cu6       1.0  0.25000  0.11111  0.39683  1.0000
  Sb  Sb1       1.0  0.25000  0.55556  0.36508  1.0000
  Sb  Sb2       1.0  0.25000  0.22222  0.46032  1.0000
  Sb  Sb3       1.0  0.25000  0.88889  0.41270  1.0000
  Sb  Sb4       1.0  0.75000  0.77778  0.49206  1.0000
  Sb  Sb5       1.0  0.75000  0.44444  0.44444  1.0000
  Sb  Sb6       1.0  0.75000  0.11111  0.39683  1.0000
  Ca  Ca7       1.0  0.00000  0.66667  0.57143  1.0000
  Ca  Ca8       1.0  0.00000  0.33333  0.52381  1.0000
  Ca  Ca9       1.0  0.00000  0.00000  0.61905  1.0000
  Ca  Ca10      1.0  0.50000  0.66667  0.57143  1.0000
  Ca  Ca11      1.0  0.50000  0.33333  0.52381  1.0000
  Ca  Ca12      1.0  0.50000  0.00000  0.61905  1.0000
  Cu  Cu7       1.0  0.75000  0.55556  0.50794  1.0000
  Cu  Cu8       1.0  0.75000  0.22222  0.60317  1.0000
  Cu  Cu9       1.0  0.75000  0.88889  0.55556  1.0000
  Cu  Cu10      1.0  0.25000  0.77778  0.63492  1.0000
  Cu  Cu11      1.0  0.25000  0.44444  0.58730  1.0000
  Cu  Cu12      1.0  0.25000  0.11111  0.53968  1.0000
  Sb  Sb7       1.0  0.25000  0.55556  0.50794  1.0000
  Sb  Sb8       1.0  0.25000  0.22222  0.60317  1.0000
  Sb  Sb9       1.0  0.25000  0.88889  0.55556  1.0000
  Sb  Sb10      1.0  0.75000  0.77778  0.63492  1.0000
  Sb  Sb11      1.0  0.75000  0.44444  0.58730  1.0000
  Sb  Sb12      1.0  0.75000  0.11111  0.53968  1.0000
