data_image0
_chemical_formula_structural       Nb6Rh6
_chemical_formula_sum              "Nb6 Rh6"
_cell_length_a       2.82611
_cell_length_b       7.46596
_cell_length_c       37.7494
_cell_angle_alpha    111.116
_cell_angle_beta     90
_cell_angle_gamma    90

_space_group_name_H-M_alt    "P 1"
_space_group_IT_number       1

loop_
  _space_group_symop_operation_xyz
  'x, y, z'

loop_
  _atom_site_type_symbol
  _atom_site_label
  _atom_site_symmetry_multiplicity
  _atom_site_fract_x
  _atom_site_fract_y
  _atom_site_fract_z
  _atom_site_occupancy
  Nb  Nb1       1.0  0.00000  0.20813  0.37555  1.0000
  Nb  Nb2       1.0  0.00000  0.70813  0.50055  1.0000
  Nb  Nb3       1.0  0.00000  0.25000  0.55208  1.0000
  Nb  Nb4       1.0  0.00000  0.75000  0.42708  1.0000
  Nb  Nb5       1.0  0.00000  0.79187  0.60362  1.0000
  Nb  Nb6       1.0  0.00000  0.29187  0.47862  1.0000
  Rh  Rh1       1.0  0.50000  0.50000  0.61458  1.0000
  Rh  Rh2       1.0  0.50000  0.00000  0.48958  1.0000
  Rh  Rh3       1.0  0.50000  0.45554  0.43653  1.0000
  Rh  Rh4       1.0  0.50000  0.95554  0.56153  1.0000
  Rh  Rh5       1.0  0.50000  0.54446  0.54264  1.0000
  Rh  Rh6       1.0  0.50000  0.04446  0.41764  1.0000
