data_image0
_chemical_formula_structural       Nb4As8
_chemical_formula_sum              "Nb4 As8"
_cell_length_a       3.37862
_cell_length_b       7.79464
_cell_length_c       35.0049
_cell_angle_alpha    68.4825
_cell_angle_beta     90
_cell_angle_gamma    90

_space_group_name_H-M_alt    "P 1"
_space_group_IT_number       1

loop_
  _space_group_symop_operation_xyz
  'x, y, z'

loop_
  _atom_site_type_symbol
  _atom_site_label
  _atom_site_symmetry_multiplicity
  _atom_site_fract_x
  _atom_site_fract_y
  _atom_site_fract_z
  _atom_site_occupancy
  Nb  Nb1       1.0  0.00000  0.96088  0.56493  1.0000
  Nb  Nb2       1.0  0.00000  0.03912  0.39340  1.0000
  Nb  Nb3       1.0  0.50000  0.46088  0.43993  1.0000
  Nb  Nb4       1.0  0.50000  0.53912  0.51840  1.0000
  As  As1       1.0  0.50000  0.88712  0.51453  1.0000
  As  As2       1.0  0.50000  0.11288  0.44380  1.0000
  As  As3       1.0  0.00000  0.70172  0.45543  1.0000
  As  As4       1.0  0.00000  0.29828  0.50290  1.0000
  As  As5       1.0  0.00000  0.38712  0.38953  1.0000
  As  As6       1.0  0.00000  0.61288  0.56880  1.0000
  As  As7       1.0  0.50000  0.20172  0.58043  1.0000
  As  As8       1.0  0.50000  0.79828  0.62790  1.0000
