data_image0
_chemical_formula_structural       Ti4Al8Ti4Al8Ti4Al8
_chemical_formula_sum              "Ti12 Al24"
_cell_length_a       3.97089
_cell_length_b       14.3591
_cell_length_c       38.9922
_cell_angle_alpha    122.895
_cell_angle_beta     90
_cell_angle_gamma    90

_space_group_name_H-M_alt    "P 1"
_space_group_IT_number       1

loop_
  _space_group_symop_operation_xyz
  'x, y, z'

loop_
  _atom_site_type_symbol
  _atom_site_label
  _atom_site_symmetry_multiplicity
  _atom_site_fract_x
  _atom_site_fract_y
  _atom_site_fract_z
  _atom_site_occupancy
  Ti  Ti1       1.0  0.00000  0.84399  0.44380  1.0000
  Ti  Ti2       1.0  0.00000  0.65601  0.35620  1.0000
  Ti  Ti3       1.0  0.00000  0.34399  0.39380  1.0000
  Ti  Ti4       1.0  0.00000  0.15601  0.40620  1.0000
  Al  Al1       1.0  0.00000  0.00000  0.42500  1.0000
  Al  Al2       1.0  0.50000  0.00000  0.37500  1.0000
  Al  Al3       1.0  0.50000  0.67292  0.40958  1.0000
  Al  Al4       1.0  0.50000  0.82708  0.39042  1.0000
  Al  Al5       1.0  0.00000  0.50000  0.37500  1.0000
  Al  Al6       1.0  0.50000  0.50000  0.42500  1.0000
  Al  Al7       1.0  0.50000  0.17292  0.35958  1.0000
  Al  Al8       1.0  0.50000  0.32708  0.44042  1.0000
  Ti  Ti5       1.0  0.00000  0.84399  0.54380  1.0000
  Ti  Ti6       1.0  0.00000  0.65601  0.45620  1.0000
  Ti  Ti7       1.0  0.00000  0.34399  0.49380  1.0000
  Ti  Ti8       1.0  0.00000  0.15601  0.50620  1.0000
  Al  Al9       1.0  0.00000  0.00000  0.52500  1.0000
  Al  Al10      1.0  0.50000  0.00000  0.47500  1.0000
  Al  Al11      1.0  0.50000  0.67292  0.50958  1.0000
  Al  Al12      1.0  0.50000  0.82708  0.49042  1.0000
  Al  Al13      1.0  0.00000  0.50000  0.47500  1.0000
  Al  Al14      1.0  0.50000  0.50000  0.52500  1.0000
  Al  Al15      1.0  0.50000  0.17292  0.45958  1.0000
  Al  Al16      1.0  0.50000  0.32708  0.54042  1.0000
  Ti  Ti9       1.0  0.00000  0.84399  0.64380  1.0000
  Ti  Ti10      1.0  0.00000  0.65601  0.55620  1.0000
  Ti  Ti11      1.0  0.00000  0.34399  0.59380  1.0000
  Ti  Ti12      1.0  0.00000  0.15601  0.60620  1.0000
  Al  Al17      1.0  0.00000  0.00000  0.62500  1.0000
  Al  Al18      1.0  0.50000  0.00000  0.57500  1.0000
  Al  Al19      1.0  0.50000  0.67292  0.60958  1.0000
  Al  Al20      1.0  0.50000  0.82708  0.59042  1.0000
  Al  Al21      1.0  0.00000  0.50000  0.57500  1.0000
  Al  Al22      1.0  0.50000  0.50000  0.62500  1.0000
  Al  Al23      1.0  0.50000  0.17292  0.55958  1.0000
  Al  Al24      1.0  0.50000  0.32708  0.64042  1.0000
