data_image0
_chemical_formula_structural       Au6Na12Sb6
_chemical_formula_sum              "Au6 Na12 Sb6"
_cell_length_a       5.92744
_cell_length_b       8.30682
_cell_length_c       37.1738
_cell_angle_alpha    83.8938
_cell_angle_beta     89.5794
_cell_angle_gamma    81.4147

_space_group_name_H-M_alt    "P 1"
_space_group_IT_number       1

loop_
  _space_group_symop_operation_xyz
  'x, y, z'

loop_
  _atom_site_type_symbol
  _atom_site_label
  _atom_site_symmetry_multiplicity
  _atom_site_fract_x
  _atom_site_fract_y
  _atom_site_fract_z
  _atom_site_occupancy
  Au  Au1       1.0  0.96528  0.29861  0.46528  1.0000
  Au  Au2       1.0  0.07639  0.74306  0.57639  1.0000
  Au  Au3       1.0  0.85417  0.85417  0.35417  1.0000
  Au  Au4       1.0  0.02083  0.02083  0.52083  1.0000
  Au  Au5       1.0  0.13194  0.46528  0.63194  1.0000
  Au  Au6       1.0  0.90972  0.57639  0.40972  1.0000
  Na  Na1       1.0  0.49119  0.09021  0.47568  1.0000
  Na  Na2       1.0  0.60230  0.53465  0.58679  1.0000
  Na  Na3       1.0  0.38008  0.64576  0.36457  1.0000
  Na  Na4       1.0  0.32825  0.06257  0.34377  1.0000
  Na  Na5       1.0  0.43936  0.50702  0.45488  1.0000
  Na  Na6       1.0  0.55047  0.95146  0.56599  1.0000
  Na  Na7       1.0  0.09219  0.93060  0.43578  1.0000
  Na  Na8       1.0  0.20330  0.37505  0.54689  1.0000
  Na  Na9       1.0  0.31441  0.81949  0.65800  1.0000
  Na  Na10      1.0  0.72726  0.22217  0.38367  1.0000
  Na  Na11      1.0  0.83837  0.66662  0.49478  1.0000
  Na  Na12      1.0  0.94948  0.11106  0.60589  1.0000
  Sb  Sb1       1.0  0.20250  0.30500  0.40437  1.0000
  Sb  Sb2       1.0  0.31361  0.74944  0.51549  1.0000
  Sb  Sb3       1.0  0.42472  0.19389  0.62660  1.0000
  Sb  Sb4       1.0  0.72806  0.29222  0.52618  1.0000
  Sb  Sb5       1.0  0.83917  0.73667  0.63729  1.0000
  Sb  Sb6       1.0  0.61694  0.84778  0.41507  1.0000
