data_image0
_chemical_formula_structural       Au6Rh6Zn12
_chemical_formula_sum              "Au6 Rh6 Zn12"
_cell_length_a       6.08599
_cell_length_b       7.45378
_cell_length_c       32.774
_cell_angle_alpha    94.3478
_cell_angle_beta     90
_cell_angle_gamma    114.095

_space_group_name_H-M_alt    "P 1"
_space_group_IT_number       1

loop_
  _space_group_symop_operation_xyz
  'x, y, z'

loop_
  _atom_site_type_symbol
  _atom_site_label
  _atom_site_symmetry_multiplicity
  _atom_site_fract_x
  _atom_site_fract_y
  _atom_site_fract_z
  _atom_site_occupancy
  Au  Au1       1.0  0.69792  0.39583  0.53125  1.0000
  Au  Au2       1.0  0.28125  0.56250  0.44792  1.0000
  Au  Au3       1.0  0.11458  0.22917  0.61458  1.0000
  Au  Au4       1.0  0.98958  0.97917  0.48958  1.0000
  Au  Au5       1.0  0.57292  0.14583  0.40625  1.0000
  Au  Au6       1.0  0.40625  0.81250  0.57292  1.0000
  Rh  Rh1       1.0  0.19792  0.39583  0.53125  1.0000
  Rh  Rh2       1.0  0.78125  0.56250  0.44792  1.0000
  Rh  Rh3       1.0  0.61458  0.22917  0.61458  1.0000
  Rh  Rh4       1.0  0.48958  0.97917  0.48958  1.0000
  Rh  Rh5       1.0  0.07292  0.14583  0.40625  1.0000
  Rh  Rh6       1.0  0.90625  0.81250  0.57292  1.0000
  Zn  Zn1       1.0  0.67708  0.85417  0.42708  1.0000
  Zn  Zn2       1.0  0.51042  0.52083  0.59375  1.0000
  Zn  Zn3       1.0  0.09375  0.68750  0.51042  1.0000
  Zn  Zn4       1.0  0.46875  0.43750  0.38542  1.0000
  Zn  Zn5       1.0  0.30208  0.10417  0.55208  1.0000
  Zn  Zn6       1.0  0.88542  0.27083  0.46875  1.0000
  Zn  Zn7       1.0  0.38542  0.27083  0.46875  1.0000
  Zn  Zn8       1.0  0.96875  0.43750  0.38542  1.0000
  Zn  Zn9       1.0  0.80208  0.10417  0.55208  1.0000
  Zn  Zn10      1.0  0.01042  0.52083  0.59375  1.0000
  Zn  Zn11      1.0  0.59375  0.68750  0.51042  1.0000
  Zn  Zn12      1.0  0.17708  0.85417  0.42708  1.0000
