data_image0
_chemical_formula_structural       Al24W6
_chemical_formula_sum              "Al24 W6"
_cell_length_a       5.23845
_cell_length_b       9.22935
_cell_length_c       30.7465
_cell_angle_alpha    90.0976
_cell_angle_beta     90.344
_cell_angle_gamma    73.5133

_space_group_name_H-M_alt    "P 1"
_space_group_IT_number       1

loop_
  _space_group_symop_operation_xyz
  'x, y, z'

loop_
  _atom_site_type_symbol
  _atom_site_label
  _atom_site_symmetry_multiplicity
  _atom_site_fract_x
  _atom_site_fract_y
  _atom_site_fract_z
  _atom_site_occupancy
  Al  Al1       1.0  0.75487  0.00000  0.39041  1.0000
  Al  Al2       1.0  0.00634  0.00000  0.49678  1.0000
  Al  Al3       1.0  0.31700  0.84624  0.41931  1.0000
  Al  Al4       1.0  0.16324  0.15376  0.41931  1.0000
  Al  Al5       1.0  0.59098  0.76346  0.34066  1.0000
  Al  Al6       1.0  0.35445  0.23654  0.34066  1.0000
  Al  Al7       1.0  0.86579  0.75300  0.43970  1.0000
  Al  Al8       1.0  0.61879  0.24700  0.43970  1.0000
  Al  Al9       1.0  0.51833  0.52994  0.40232  1.0000
  Al  Al10      1.0  0.04827  0.47006  0.40232  1.0000
  Al  Al11      1.0  0.78880  0.50023  0.48400  1.0000
  Al  Al12      1.0  0.28904  0.49977  0.48400  1.0000
  Al  Al13      1.0  0.58821  0.00000  0.55708  1.0000
  Al  Al14      1.0  0.83968  0.00000  0.66345  1.0000
  Al  Al15      1.0  0.15034  0.84624  0.58597  1.0000
  Al  Al16      1.0  0.99657  0.15376  0.58597  1.0000
  Al  Al17      1.0  0.42431  0.76346  0.50732  1.0000
  Al  Al18      1.0  0.18778  0.23654  0.50732  1.0000
  Al  Al19      1.0  0.69912  0.75300  0.60637  1.0000
  Al  Al20      1.0  0.45212  0.24700  0.60637  1.0000
  Al  Al21      1.0  0.35167  0.52994  0.56899  1.0000
  Al  Al22      1.0  0.88161  0.47006  0.56899  1.0000
  Al  Al23      1.0  0.62214  0.50023  0.65067  1.0000
  Al  Al24      1.0  0.12237  0.49977  0.65067  1.0000
  W   W1        1.0  0.51947  0.00000  0.47043  1.0000
  W   W2        1.0  0.10582  0.72598  0.36021  1.0000
  W   W3        1.0  0.83181  0.27402  0.36021  1.0000
  W   W4        1.0  0.35280  0.00000  0.63710  1.0000
  W   W5        1.0  0.93916  0.72598  0.52687  1.0000
  W   W6        1.0  0.66514  0.27402  0.52687  1.0000
