data_image0
_chemical_formula_structural       Pb8Pt4
_chemical_formula_sum              "Pb8 Pt4"
_cell_length_a       5.69475
_cell_length_b       5.69475
_cell_length_c       39.4046
_cell_angle_alpha    90
_cell_angle_beta     90
_cell_angle_gamma    119.75

_space_group_name_H-M_alt    "P 1"
_space_group_IT_number       1

loop_
  _space_group_symop_operation_xyz
  'x, y, z'

loop_
  _atom_site_type_symbol
  _atom_site_label
  _atom_site_symmetry_multiplicity
  _atom_site_fract_x
  _atom_site_fract_y
  _atom_site_fract_z
  _atom_site_occupancy
  Pb  Pb1       1.0  0.25000  0.75000  0.39440  1.0000
  Pb  Pb2       1.0  0.75000  0.25000  0.51940  1.0000
  Pb  Pb3       1.0  0.58908  0.41092  0.60417  1.0000
  Pb  Pb4       1.0  0.08908  0.91092  0.47917  1.0000
  Pb  Pb5       1.0  0.91092  0.08908  0.60417  1.0000
  Pb  Pb6       1.0  0.41092  0.58908  0.47917  1.0000
  Pb  Pb7       1.0  0.75000  0.25000  0.43894  1.0000
  Pb  Pb8       1.0  0.25000  0.75000  0.56394  1.0000
  Pt  Pt1       1.0  0.75000  0.75000  0.54167  1.0000
  Pt  Pt2       1.0  0.25000  0.25000  0.41667  1.0000
  Pt  Pt3       1.0  0.75000  0.75000  0.41667  1.0000
  Pt  Pt4       1.0  0.25000  0.25000  0.54167  1.0000
