data_image0
_chemical_formula_structural       Ca9Pb3
_chemical_formula_sum              "Ca9 Pb3"
_cell_length_a       7.07317
_cell_length_b       7.07317
_cell_length_c       34.6513
_cell_angle_alpha    90
_cell_angle_beta     90
_cell_angle_gamma    60

_space_group_name_H-M_alt    "P 1"
_space_group_IT_number       1

loop_
  _space_group_symop_operation_xyz
  'x, y, z'

loop_
  _atom_site_type_symbol
  _atom_site_label
  _atom_site_symmetry_multiplicity
  _atom_site_fract_x
  _atom_site_fract_y
  _atom_site_fract_z
  _atom_site_occupancy
  Ca  Ca1       1.0  0.83333  0.83333  0.50000  1.0000
  Ca  Ca2       1.0  0.16667  0.16667  0.41667  1.0000
  Ca  Ca3       1.0  0.50000  0.50000  0.58333  1.0000
  Ca  Ca4       1.0  0.83333  0.33333  0.50000  1.0000
  Ca  Ca5       1.0  0.16667  0.66667  0.41667  1.0000
  Ca  Ca6       1.0  0.50000  0.00000  0.58333  1.0000
  Ca  Ca7       1.0  0.33333  0.83333  0.50000  1.0000
  Ca  Ca8       1.0  0.66667  0.16667  0.41667  1.0000
  Ca  Ca9       1.0  0.00000  0.50000  0.58333  1.0000
  Pb  Pb1       1.0  0.66667  0.66667  0.41667  1.0000
  Pb  Pb2       1.0  0.00000  0.00000  0.58333  1.0000
  Pb  Pb3       1.0  0.33333  0.33333  0.50000  1.0000
