data_image0
_chemical_formula_structural       Cu9Pd3Cu9Pd3
_chemical_formula_sum              "Cu18 Pd6"
_cell_length_a       5.17275
_cell_length_b       5.17275
_cell_length_c       38.0118
_cell_angle_alpha    90
_cell_angle_beta     90
_cell_angle_gamma    60

_space_group_name_H-M_alt    "P 1"
_space_group_IT_number       1

loop_
  _space_group_symop_operation_xyz
  'x, y, z'

loop_
  _atom_site_type_symbol
  _atom_site_label
  _atom_site_symmetry_multiplicity
  _atom_site_fract_x
  _atom_site_fract_y
  _atom_site_fract_z
  _atom_site_occupancy
  Cu  Cu1       1.0  0.83333  0.83333  0.41667  1.0000
  Cu  Cu2       1.0  0.16667  0.16667  0.36111  1.0000
  Cu  Cu3       1.0  0.50000  0.50000  0.47222  1.0000
  Cu  Cu4       1.0  0.83333  0.33333  0.41667  1.0000
  Cu  Cu5       1.0  0.16667  0.66667  0.36111  1.0000
  Cu  Cu6       1.0  0.50000  0.00000  0.47222  1.0000
  Cu  Cu7       1.0  0.33333  0.83333  0.41667  1.0000
  Cu  Cu8       1.0  0.66667  0.16667  0.36111  1.0000
  Cu  Cu9       1.0  0.00000  0.50000  0.47222  1.0000
  Pd  Pd1       1.0  0.66667  0.66667  0.36111  1.0000
  Pd  Pd2       1.0  0.00000  0.00000  0.47222  1.0000
  Pd  Pd3       1.0  0.33333  0.33333  0.41667  1.0000
  Cu  Cu10      1.0  0.83333  0.83333  0.58333  1.0000
  Cu  Cu11      1.0  0.16667  0.16667  0.52778  1.0000
  Cu  Cu12      1.0  0.50000  0.50000  0.63889  1.0000
  Cu  Cu13      1.0  0.83333  0.33333  0.58333  1.0000
  Cu  Cu14      1.0  0.16667  0.66667  0.52778  1.0000
  Cu  Cu15      1.0  0.50000  0.00000  0.63889  1.0000
  Cu  Cu16      1.0  0.33333  0.83333  0.58333  1.0000
  Cu  Cu17      1.0  0.66667  0.16667  0.52778  1.0000
  Cu  Cu18      1.0  0.00000  0.50000  0.63889  1.0000
  Pd  Pd4       1.0  0.66667  0.66667  0.52778  1.0000
  Pd  Pd5       1.0  0.00000  0.00000  0.63889  1.0000
  Pd  Pd6       1.0  0.33333  0.33333  0.58333  1.0000
