data_image0
_chemical_formula_structural       Al16Ti8
_chemical_formula_sum              "Al16 Ti8"
_cell_length_a       5.56524
_cell_length_b       6.33587
_cell_length_c       32.6176
_cell_angle_alpha    88.4837
_cell_angle_beta     86.5303
_cell_angle_gamma    102.45

_space_group_name_H-M_alt    "P 1"
_space_group_IT_number       1

loop_
  _space_group_symop_operation_xyz
  'x, y, z'

loop_
  _atom_site_type_symbol
  _atom_site_label
  _atom_site_symmetry_multiplicity
  _atom_site_fract_x
  _atom_site_fract_y
  _atom_site_fract_z
  _atom_site_occupancy
  Al  Al1       1.0  0.00000  0.48611  0.48611  1.0000
  Al  Al2       1.0  0.50000  0.40278  0.40278  1.0000
  Al  Al3       1.0  0.00000  0.40278  0.40278  1.0000
  Al  Al4       1.0  0.50000  0.48611  0.48611  1.0000
  Al  Al5       1.0  0.83646  0.77588  0.43003  1.0000
  Al  Al6       1.0  0.33646  0.69254  0.34670  1.0000
  Al  Al7       1.0  0.16354  0.02968  0.37552  1.0000
  Al  Al8       1.0  0.66354  0.11301  0.45885  1.0000
  Al  Al9       1.0  0.00000  0.65278  0.65278  1.0000
  Al  Al10      1.0  0.50000  0.56944  0.56944  1.0000
  Al  Al11      1.0  0.00000  0.56944  0.56944  1.0000
  Al  Al12      1.0  0.50000  0.65278  0.65278  1.0000
  Al  Al13      1.0  0.83646  0.94254  0.59670  1.0000
  Al  Al14      1.0  0.33646  0.85921  0.51337  1.0000
  Al  Al15      1.0  0.16354  0.19635  0.54219  1.0000
  Al  Al16      1.0  0.66354  0.27968  0.62552  1.0000
  Ti  Ti1       1.0  0.67200  0.06209  0.37411  1.0000
  Ti  Ti2       1.0  0.17200  0.14543  0.45745  1.0000
  Ti  Ti3       1.0  0.82800  0.66013  0.34811  1.0000
  Ti  Ti4       1.0  0.32800  0.74346  0.43144  1.0000
  Ti  Ti5       1.0  0.67200  0.22876  0.54078  1.0000
  Ti  Ti6       1.0  0.17200  0.31209  0.62411  1.0000
  Ti  Ti7       1.0  0.82800  0.82679  0.51478  1.0000
  Ti  Ti8       1.0  0.32800  0.91013  0.59811  1.0000
