data_image0
_chemical_formula_structural       Sb4Ru2Sb4Ru2Sb4Ru2
_chemical_formula_sum              "Sb12 Ru6"
_cell_length_a       6.65716
_cell_length_b       6.7473
_cell_length_c       34.999
_cell_angle_alpha    118.135
_cell_angle_beta     90
_cell_angle_gamma    90

_space_group_name_H-M_alt    "P 1"
_space_group_IT_number       1

loop_
  _space_group_symop_operation_xyz
  'x, y, z'

loop_
  _atom_site_type_symbol
  _atom_site_label
  _atom_site_symmetry_multiplicity
  _atom_site_fract_x
  _atom_site_fract_y
  _atom_site_fract_z
  _atom_site_occupancy
  Sb  Sb1       1.0  0.85769  0.31735  0.39249  1.0000
  Sb  Sb2       1.0  0.14231  0.68265  0.42570  1.0000
  Sb  Sb3       1.0  0.64231  0.81735  0.39249  1.0000
  Sb  Sb4       1.0  0.35769  0.18265  0.42570  1.0000
  Ru  Ru1       1.0  0.50000  0.50000  0.40909  1.0000
  Ru  Ru2       1.0  0.00000  0.00000  0.40909  1.0000
  Sb  Sb5       1.0  0.85769  0.31735  0.48340  1.0000
  Sb  Sb6       1.0  0.14231  0.68265  0.51660  1.0000
  Sb  Sb7       1.0  0.64231  0.81735  0.48340  1.0000
  Sb  Sb8       1.0  0.35769  0.18265  0.51660  1.0000
  Ru  Ru3       1.0  0.50000  0.50000  0.50000  1.0000
  Ru  Ru4       1.0  0.00000  0.00000  0.50000  1.0000
  Sb  Sb9       1.0  0.85769  0.31735  0.57430  1.0000
  Sb  Sb10      1.0  0.14231  0.68265  0.60751  1.0000
  Sb  Sb11      1.0  0.64231  0.81735  0.57430  1.0000
  Sb  Sb12      1.0  0.35769  0.18265  0.60751  1.0000
  Ru  Ru5       1.0  0.50000  0.50000  0.59091  1.0000
  Ru  Ru6       1.0  0.00000  0.00000  0.59091  1.0000
