data_image0
_chemical_formula_structural       Al8Au8
_chemical_formula_sum              "Al8 Au8"
_cell_length_a       3.36384
_cell_length_b       9.16556
_cell_length_c       35.1013
_cell_angle_alpha    89.6051
_cell_angle_beta     90
_cell_angle_gamma    90

_space_group_name_H-M_alt    "P 1"
_space_group_IT_number       1

loop_
  _space_group_symop_operation_xyz
  'x, y, z'

loop_
  _atom_site_type_symbol
  _atom_site_label
  _atom_site_symmetry_multiplicity
  _atom_site_fract_x
  _atom_site_fract_y
  _atom_site_fract_z
  _atom_site_occupancy
  Al  Al1       1.0  0.25000  0.61464  0.51627  1.0000
  Al  Al2       1.0  0.25000  0.11464  0.39127  1.0000
  Al  Al3       1.0  0.75000  0.38536  0.48373  1.0000
  Al  Al4       1.0  0.75000  0.88536  0.60873  1.0000
  Al  Al5       1.0  0.25000  0.05113  0.53238  1.0000
  Al  Al6       1.0  0.25000  0.55113  0.40738  1.0000
  Al  Al7       1.0  0.75000  0.94887  0.46762  1.0000
  Al  Al8       1.0  0.75000  0.44887  0.59262  1.0000
  Au  Au1       1.0  0.25000  0.16490  0.46431  1.0000
  Au  Au2       1.0  0.25000  0.66490  0.58931  1.0000
  Au  Au3       1.0  0.75000  0.83510  0.53569  1.0000
  Au  Au4       1.0  0.75000  0.33510  0.41069  1.0000
  Au  Au5       1.0  0.25000  0.34270  0.53853  1.0000
  Au  Au6       1.0  0.25000  0.84270  0.41353  1.0000
  Au  Au7       1.0  0.75000  0.65730  0.46147  1.0000
  Au  Au8       1.0  0.75000  0.15730  0.58647  1.0000
