data_image0
_chemical_formula_structural       Ni6Sn8Ni6Sn8
_chemical_formula_sum              "Ni12 Sn16"
_cell_length_a       4.03363
_cell_length_b       11.8506
_cell_length_c       31.157
_cell_angle_alpha    80.1757
_cell_angle_beta     90
_cell_angle_gamma    90

_space_group_name_H-M_alt    "P 1"
_space_group_IT_number       1

loop_
  _space_group_symop_operation_xyz
  'x, y, z'

loop_
  _atom_site_type_symbol
  _atom_site_label
  _atom_site_symmetry_multiplicity
  _atom_site_fract_x
  _atom_site_fract_y
  _atom_site_fract_z
  _atom_site_occupancy
  Ni  Ni1       1.0  0.00000  0.00000  0.47024  1.0000
  Ni  Ni2       1.0  0.50000  0.71586  0.40701  1.0000
  Ni  Ni3       1.0  0.00000  0.78414  0.45013  1.0000
  Ni  Ni4       1.0  0.50000  0.50000  0.38690  1.0000
  Ni  Ni5       1.0  0.00000  0.21586  0.49034  1.0000
  Ni  Ni6       1.0  0.50000  0.28414  0.36680  1.0000
  Sn  Sn1       1.0  0.50000  0.92827  0.43010  1.0000
  Sn  Sn2       1.0  0.00000  0.57173  0.42704  1.0000
  Sn  Sn3       1.0  0.50000  0.67183  0.49364  1.0000
  Sn  Sn4       1.0  0.00000  0.82817  0.36351  1.0000
  Sn  Sn5       1.0  0.00000  0.42827  0.34677  1.0000
  Sn  Sn6       1.0  0.50000  0.07173  0.34371  1.0000
  Sn  Sn7       1.0  0.00000  0.17183  0.41030  1.0000
  Sn  Sn8       1.0  0.50000  0.32817  0.44684  1.0000
  Ni  Ni7       1.0  0.00000  0.00000  0.63690  1.0000
  Ni  Ni8       1.0  0.50000  0.71586  0.57368  1.0000
  Ni  Ni9       1.0  0.00000  0.78414  0.61680  1.0000
  Ni  Ni10      1.0  0.50000  0.50000  0.55357  1.0000
  Ni  Ni11      1.0  0.00000  0.21586  0.65701  1.0000
  Ni  Ni12      1.0  0.50000  0.28414  0.53347  1.0000
  Sn  Sn9       1.0  0.50000  0.92827  0.59677  1.0000
  Sn  Sn10      1.0  0.00000  0.57173  0.59371  1.0000
  Sn  Sn11      1.0  0.50000  0.67183  0.66030  1.0000
  Sn  Sn12      1.0  0.00000  0.82817  0.53017  1.0000
  Sn  Sn13      1.0  0.00000  0.42827  0.51343  1.0000
  Sn  Sn14      1.0  0.50000  0.07173  0.51038  1.0000
  Sn  Sn15      1.0  0.00000  0.17183  0.57697  1.0000
  Sn  Sn16      1.0  0.50000  0.32817  0.61351  1.0000
