data_image0
_chemical_formula_structural       Ag4Ca8Si12
_chemical_formula_sum              "Ag4 Ca8 Si12"
_cell_length_a       8.23328
_cell_length_b       8.23328
_cell_length_c       34.2748
_cell_angle_alpha    90
_cell_angle_beta     90
_cell_angle_gamma    119.935

_space_group_name_H-M_alt    "P 1"
_space_group_IT_number       1

loop_
  _space_group_symop_operation_xyz
  'x, y, z'

loop_
  _atom_site_type_symbol
  _atom_site_label
  _atom_site_symmetry_multiplicity
  _atom_site_fract_x
  _atom_site_fract_y
  _atom_site_fract_z
  _atom_site_occupancy
  Ag  Ag1       1.0  0.66662  0.33338  0.41667  1.0000
  Ag  Ag2       1.0  0.33338  0.66662  0.41667  1.0000
  Ag  Ag3       1.0  0.16662  0.83338  0.54167  1.0000
  Ag  Ag4       1.0  0.83338  0.16662  0.54167  1.0000
  Ca  Ca1       1.0  0.50000  0.00000  0.60417  1.0000
  Ca  Ca2       1.0  0.50000  0.50000  0.47989  1.0000
  Ca  Ca3       1.0  0.50000  0.00000  0.47917  1.0000
  Ca  Ca4       1.0  0.50000  0.50000  0.60345  1.0000
  Ca  Ca5       1.0  0.00000  0.50000  0.47917  1.0000
  Ca  Ca6       1.0  0.00000  0.00000  0.60489  1.0000
  Ca  Ca7       1.0  0.00000  0.50000  0.60417  1.0000
  Ca  Ca8       1.0  0.00000  0.00000  0.47845  1.0000
  Si  Si1       1.0  0.32447  0.16276  0.41667  1.0000
  Si  Si2       1.0  0.16276  0.32447  0.41667  1.0000
  Si  Si3       1.0  0.67553  0.83724  0.41667  1.0000
  Si  Si4       1.0  0.83724  0.67553  0.41667  1.0000
  Si  Si5       1.0  0.16158  0.83842  0.41667  1.0000
  Si  Si6       1.0  0.83842  0.16158  0.41667  1.0000
  Si  Si7       1.0  0.82447  0.66276  0.54167  1.0000
  Si  Si8       1.0  0.66276  0.82447  0.54167  1.0000
  Si  Si9       1.0  0.17553  0.33724  0.54167  1.0000
  Si  Si10      1.0  0.33724  0.17553  0.54167  1.0000
  Si  Si11      1.0  0.66158  0.33842  0.54167  1.0000
  Si  Si12      1.0  0.33842  0.66158  0.54167  1.0000
