data_image0
_chemical_formula_structural       Sb12Ru6Sb12Ru6
_chemical_formula_sum              "Sb24 Ru12"
_cell_length_a       8.71184
_cell_length_b       7.37842
_cell_length_c       40.4838
_cell_angle_alpha    101.733
_cell_angle_beta     75.0583
_cell_angle_gamma    71.6404

_space_group_name_H-M_alt    "P 1"
_space_group_IT_number       1

loop_
  _space_group_symop_operation_xyz
  'x, y, z'

loop_
  _atom_site_type_symbol
  _atom_site_label
  _atom_site_symmetry_multiplicity
  _atom_site_fract_x
  _atom_site_fract_y
  _atom_site_fract_z
  _atom_site_occupancy
  Sb  Sb1       1.0  0.68011  0.14231  0.47264  1.0000
  Sb  Sb2       1.0  0.01344  0.14231  0.41709  1.0000
  Sb  Sb3       1.0  0.34678  0.14231  0.36153  1.0000
  Sb  Sb4       1.0  0.31989  0.85769  0.47180  1.0000
  Sb  Sb5       1.0  0.65322  0.85769  0.41624  1.0000
  Sb  Sb6       1.0  0.98656  0.85769  0.36069  1.0000
  Sb  Sb7       1.0  0.60832  0.35769  0.40128  1.0000
  Sb  Sb8       1.0  0.94165  0.35769  0.34572  1.0000
  Sb  Sb9       1.0  0.27499  0.35769  0.45683  1.0000
  Sb  Sb10      1.0  0.72501  0.64231  0.48761  1.0000
  Sb  Sb11      1.0  0.05835  0.64231  0.43206  1.0000
  Sb  Sb12      1.0  0.39168  0.64231  0.37650  1.0000
  Ru  Ru1       1.0  0.50000  0.50000  0.47222  1.0000
  Ru  Ru2       1.0  0.83333  0.50000  0.41667  1.0000
  Ru  Ru3       1.0  0.16667  0.50000  0.36111  1.0000
  Ru  Ru4       1.0  0.66667  0.00000  0.36111  1.0000
  Ru  Ru5       1.0  0.00000  0.00000  0.47222  1.0000
  Ru  Ru6       1.0  0.33333  0.00000  0.41667  1.0000
  Sb  Sb13      1.0  0.68011  0.14231  0.63931  1.0000
  Sb  Sb14      1.0  0.01344  0.14231  0.58376  1.0000
  Sb  Sb15      1.0  0.34678  0.14231  0.52820  1.0000
  Sb  Sb16      1.0  0.31989  0.85769  0.63847  1.0000
  Sb  Sb17      1.0  0.65322  0.85769  0.58291  1.0000
  Sb  Sb18      1.0  0.98656  0.85769  0.52736  1.0000
  Sb  Sb19      1.0  0.60832  0.35769  0.56794  1.0000
  Sb  Sb20      1.0  0.94165  0.35769  0.51239  1.0000
  Sb  Sb21      1.0  0.27499  0.35769  0.62350  1.0000
  Sb  Sb22      1.0  0.72501  0.64231  0.65428  1.0000
  Sb  Sb23      1.0  0.05835  0.64231  0.59872  1.0000
  Sb  Sb24      1.0  0.39168  0.64231  0.54317  1.0000
  Ru  Ru7       1.0  0.50000  0.50000  0.63889  1.0000
  Ru  Ru8       1.0  0.83333  0.50000  0.58333  1.0000
  Ru  Ru9       1.0  0.16667  0.50000  0.52778  1.0000
  Ru  Ru10      1.0  0.66667  0.00000  0.52778  1.0000
  Ru  Ru11      1.0  0.00000  0.00000  0.63889  1.0000
  Ru  Ru12      1.0  0.33333  0.00000  0.58333  1.0000
