data_image0
_chemical_formula_structural       Re12
_chemical_formula_sum              "Re12"
_cell_length_a       4.76253
_cell_length_b       5.22788
_cell_length_c       30.2461
_cell_angle_alpha    105.247
_cell_angle_beta     90
_cell_angle_gamma    62.9033

_space_group_name_H-M_alt    "P 1"
_space_group_IT_number       1

loop_
  _space_group_symop_operation_xyz
  'x, y, z'

loop_
  _atom_site_type_symbol
  _atom_site_label
  _atom_site_symmetry_multiplicity
  _atom_site_fract_x
  _atom_site_fract_y
  _atom_site_fract_z
  _atom_site_occupancy
  Re  Re1       1.0  0.04167  0.25000  0.42045  1.0000
  Re  Re2       1.0  0.54167  0.25000  0.37500  1.0000
  Re  Re3       1.0  0.45833  0.75000  0.44318  1.0000
  Re  Re4       1.0  0.95833  0.75000  0.39773  1.0000
  Re  Re5       1.0  0.04167  0.25000  0.51136  1.0000
  Re  Re6       1.0  0.54167  0.25000  0.46591  1.0000
  Re  Re7       1.0  0.45833  0.75000  0.53409  1.0000
  Re  Re8       1.0  0.95833  0.75000  0.48864  1.0000
  Re  Re9       1.0  0.04167  0.25000  0.60227  1.0000
  Re  Re10      1.0  0.54167  0.25000  0.55682  1.0000
  Re  Re11      1.0  0.45833  0.75000  0.62500  1.0000
  Re  Re12      1.0  0.95833  0.75000  0.57955  1.0000
