data_image0
_chemical_formula_structural       Co2Zn26
_chemical_formula_sum              "Co2 Zn26"
_cell_length_a       6.48112
_cell_length_b       6.48112
_cell_length_c       34.1938
_cell_angle_alpha    84.8922
_cell_angle_beta     84.8922
_cell_angle_gamma    70.1853

_space_group_name_H-M_alt    "P 1"
_space_group_IT_number       1

loop_
  _space_group_symop_operation_xyz
  'x, y, z'

loop_
  _atom_site_type_symbol
  _atom_site_label
  _atom_site_symmetry_multiplicity
  _atom_site_fract_x
  _atom_site_fract_y
  _atom_site_fract_z
  _atom_site_occupancy
  Co  Co1       1.0  0.36224  0.36224  0.63776  1.0000
  Co  Co2       1.0  0.50510  0.50510  0.49490  1.0000
  Zn  Zn1       1.0  0.43367  0.43367  0.56633  1.0000
  Zn  Zn2       1.0  0.05676  0.05676  0.55628  1.0000
  Zn  Zn3       1.0  0.81058  0.81058  0.57637  1.0000
  Zn  Zn4       1.0  0.60186  0.60186  0.61953  1.0000
  Zn  Zn5       1.0  0.26548  0.26548  0.51312  1.0000
  Zn  Zn6       1.0  0.17218  0.75935  0.61163  1.0000
  Zn  Zn7       1.0  0.10800  0.69516  0.52103  1.0000
  Zn  Zn8       1.0  0.69516  0.10800  0.52103  1.0000
  Zn  Zn9       1.0  0.75935  0.17218  0.61163  1.0000
  Zn  Zn10      1.0  0.45886  0.81744  0.53791  1.0000
  Zn  Zn11      1.0  0.04990  0.40849  0.59474  1.0000
  Zn  Zn12      1.0  0.40849  0.04990  0.59474  1.0000
  Zn  Zn13      1.0  0.81744  0.45886  0.53791  1.0000
  Zn  Zn14      1.0  0.57653  0.57653  0.42347  1.0000
  Zn  Zn15      1.0  0.19962  0.19962  0.41342  1.0000
  Zn  Zn16      1.0  0.95344  0.95344  0.43351  1.0000
  Zn  Zn17      1.0  0.74472  0.74472  0.47667  1.0000
  Zn  Zn18      1.0  0.40834  0.40834  0.37027  1.0000
  Zn  Zn19      1.0  0.31504  0.90221  0.46877  1.0000
  Zn  Zn20      1.0  0.25085  0.83802  0.37817  1.0000
  Zn  Zn21      1.0  0.83802  0.25085  0.37817  1.0000
  Zn  Zn22      1.0  0.90221  0.31504  0.46877  1.0000
  Zn  Zn23      1.0  0.60172  0.96030  0.39505  1.0000
  Zn  Zn24      1.0  0.19276  0.55134  0.45189  1.0000
  Zn  Zn25      1.0  0.55134  0.19276  0.45189  1.0000
  Zn  Zn26      1.0  0.96030  0.60172  0.39505  1.0000
