data_image0
_chemical_formula_structural       Ti2Au2Ti2Au2
_chemical_formula_sum              "Ti4 Au4"
_cell_length_a       2.9535
_cell_length_b       4.53021
_cell_length_c       33.852
_cell_angle_alpha    90
_cell_angle_beta     90
_cell_angle_gamma    90

_space_group_name_H-M_alt    "P 1"
_space_group_IT_number       1

loop_
  _space_group_symop_operation_xyz
  'x, y, z'

loop_
  _atom_site_type_symbol
  _atom_site_label
  _atom_site_symmetry_multiplicity
  _atom_site_fract_x
  _atom_site_fract_y
  _atom_site_fract_z
  _atom_site_occupancy
  Ti  Ti1       1.0  0.00000  0.75000  0.36595  1.0000
  Ti  Ti2       1.0  0.00000  0.25000  0.41976  1.0000
  Au  Au1       1.0  0.50000  0.75000  0.43823  1.0000
  Au  Au2       1.0  0.50000  0.25000  0.49034  1.0000
  Ti  Ti3       1.0  0.00000  0.75000  0.50881  1.0000
  Ti  Ti4       1.0  0.00000  0.25000  0.56262  1.0000
  Au  Au3       1.0  0.50000  0.75000  0.58109  1.0000
  Au  Au4       1.0  0.50000  0.25000  0.63319  1.0000
