data_image0
_chemical_formula_structural       Ga3Pt2Ga3Pt2
_chemical_formula_sum              "Ga6 Pt4"
_cell_length_a       4.22546
_cell_length_b       4.22546
_cell_length_c       31.5013
_cell_angle_alpha    90
_cell_angle_beta     90
_cell_angle_gamma    120

_space_group_name_H-M_alt    "P 1"
_space_group_IT_number       1

loop_
  _space_group_symop_operation_xyz
  'x, y, z'

loop_
  _atom_site_type_symbol
  _atom_site_label
  _atom_site_symmetry_multiplicity
  _atom_site_fract_x
  _atom_site_fract_y
  _atom_site_fract_z
  _atom_site_occupancy
  Ga  Ga1       1.0  0.00000  0.00000  0.48333  1.0000
  Ga  Ga2       1.0  0.33333  0.66667  0.42393  1.0000
  Ga  Ga3       1.0  0.66667  0.33333  0.37607  1.0000
  Pt  Pt1       1.0  0.33333  0.66667  0.34428  1.0000
  Pt  Pt2       1.0  0.66667  0.33333  0.45572  1.0000
  Ga  Ga4       1.0  0.00000  0.00000  0.65000  1.0000
  Ga  Ga5       1.0  0.33333  0.66667  0.59059  1.0000
  Ga  Ga6       1.0  0.66667  0.33333  0.54274  1.0000
  Pt  Pt3       1.0  0.33333  0.66667  0.51094  1.0000
  Pt  Pt4       1.0  0.66667  0.33333  0.62239  1.0000
