data_image0
_chemical_formula_structural       Au12Ti12
_chemical_formula_sum              "Au12 Ti12"
_cell_length_a       6.62644
_cell_length_b       7.25485
_cell_length_c       29.7021
_cell_angle_alpha    87.5235
_cell_angle_beta     88.3322
_cell_angle_gamma    86.5844

_space_group_name_H-M_alt    "P 1"
_space_group_IT_number       1

loop_
  _space_group_symop_operation_xyz
  'x, y, z'

loop_
  _atom_site_type_symbol
  _atom_site_label
  _atom_site_symmetry_multiplicity
  _atom_site_fract_x
  _atom_site_fract_y
  _atom_site_fract_z
  _atom_site_occupancy
  Au  Au1       1.0  0.96618  0.97233  0.62193  1.0000
  Au  Au2       1.0  0.46618  0.56324  0.57647  1.0000
  Au  Au3       1.0  0.03382  0.61858  0.58262  1.0000
  Au  Au4       1.0  0.53382  0.02767  0.62807  1.0000
  Au  Au5       1.0  0.96618  0.15415  0.53102  1.0000
  Au  Au6       1.0  0.46618  0.74506  0.48556  1.0000
  Au  Au7       1.0  0.03382  0.80040  0.49171  1.0000
  Au  Au8       1.0  0.53382  0.20949  0.53717  1.0000
  Au  Au9       1.0  0.96618  0.33597  0.44011  1.0000
  Au  Au10      1.0  0.46618  0.92688  0.39465  1.0000
  Au  Au11      1.0  0.03382  0.98222  0.40080  1.0000
  Au  Au12      1.0  0.53382  0.39131  0.44626  1.0000
  Ti  Ti1       1.0  0.21918  0.27024  0.59947  1.0000
  Ti  Ti2       1.0  0.71918  0.86114  0.55402  1.0000
  Ti  Ti3       1.0  0.78082  0.32067  0.60507  1.0000
  Ti  Ti4       1.0  0.28082  0.91158  0.55962  1.0000
  Ti  Ti5       1.0  0.21918  0.45205  0.50856  1.0000
  Ti  Ti6       1.0  0.71918  0.04296  0.46311  1.0000
  Ti  Ti7       1.0  0.78082  0.50249  0.51417  1.0000
  Ti  Ti8       1.0  0.28082  0.09340  0.46871  1.0000
  Ti  Ti9       1.0  0.21918  0.63387  0.41765  1.0000
  Ti  Ti10      1.0  0.71918  0.22478  0.37220  1.0000
  Ti  Ti11      1.0  0.78082  0.68431  0.42326  1.0000
  Ti  Ti12      1.0  0.28082  0.27522  0.37780  1.0000
