data_image0
_chemical_formula_structural       Co8Sb16
_chemical_formula_sum              "Co8 Sb16"
_cell_length_a       6.48297
_cell_length_b       9.02323
_cell_length_c       36.0929
_cell_angle_alpha    91.0943
_cell_angle_beta     109.042
_cell_angle_gamma    70.9578

_space_group_name_H-M_alt    "P 1"
_space_group_IT_number       1

loop_
  _space_group_symop_operation_xyz
  'x, y, z'

loop_
  _atom_site_type_symbol
  _atom_site_label
  _atom_site_symmetry_multiplicity
  _atom_site_fract_x
  _atom_site_fract_y
  _atom_site_fract_z
  _atom_site_occupancy
  Co  Co1       1.0  0.71734  0.63490  0.45567  1.0000
  Co  Co2       1.0  0.71734  0.13490  0.58067  1.0000
  Co  Co3       1.0  0.78266  0.61435  0.58581  1.0000
  Co  Co4       1.0  0.78266  0.11435  0.46081  1.0000
  Co  Co5       1.0  0.28266  0.36510  0.52349  1.0000
  Co  Co6       1.0  0.28266  0.86510  0.39849  1.0000
  Co  Co7       1.0  0.21734  0.38565  0.39336  1.0000
  Co  Co8       1.0  0.21734  0.88565  0.51836  1.0000
  Sb  Sb1       1.0  0.83362  0.35210  0.61546  1.0000
  Sb  Sb2       1.0  0.83362  0.85210  0.49046  1.0000
  Sb  Sb3       1.0  0.66638  0.75352  0.39011  1.0000
  Sb  Sb4       1.0  0.66638  0.25352  0.51511  1.0000
  Sb  Sb5       1.0  0.16638  0.64790  0.61370  1.0000
  Sb  Sb6       1.0  0.16638  0.14790  0.48870  1.0000
  Sb  Sb7       1.0  0.33362  0.24648  0.58906  1.0000
  Sb  Sb8       1.0  0.33362  0.74648  0.46406  1.0000
  Sb  Sb9       1.0  0.62981  0.39365  0.42624  1.0000
  Sb  Sb10      1.0  0.62981  0.89365  0.55124  1.0000
  Sb  Sb11      1.0  0.87019  0.49665  0.52550  1.0000
  Sb  Sb12      1.0  0.87019  0.99665  0.40050  1.0000
  Sb  Sb13      1.0  0.37019  0.60635  0.55292  1.0000
  Sb  Sb14      1.0  0.37019  0.10635  0.42792  1.0000
  Sb  Sb15      1.0  0.12981  0.50335  0.45367  1.0000
  Sb  Sb16      1.0  0.12981  0.00335  0.57867  1.0000
