data_image0
_chemical_formula_structural       V8H4V8H4V8H4
_chemical_formula_sum              "V24 H12"
_cell_length_a       4.37803
_cell_length_b       9.22514
_cell_length_c       31.9862
_cell_angle_alpha    71.6267
_cell_angle_beta     90
_cell_angle_gamma    83.0493

_space_group_name_H-M_alt    "P 1"
_space_group_IT_number       1

loop_
  _space_group_symop_operation_xyz
  'x, y, z'

loop_
  _atom_site_type_symbol
  _atom_site_label
  _atom_site_symmetry_multiplicity
  _atom_site_fract_x
  _atom_site_fract_y
  _atom_site_fract_z
  _atom_site_occupancy
  V   V1        1.0  0.73161  0.11520  0.39483  1.0000
  V   V2        1.0  0.73161  0.61520  0.44028  1.0000
  V   V3        1.0  0.26839  0.38480  0.37032  1.0000
  V   V4        1.0  0.26839  0.88480  0.41578  1.0000
  V   V5        1.0  0.73161  0.36520  0.41756  1.0000
  V   V6        1.0  0.73161  0.86520  0.37210  1.0000
  V   V7        1.0  0.26839  0.13480  0.43850  1.0000
  V   V8        1.0  0.26839  0.63480  0.39305  1.0000
  H   H1        1.0  0.00000  0.25000  0.38258  1.0000
  H   H2        1.0  0.00000  0.75000  0.42803  1.0000
  H   H3        1.0  0.00000  0.00000  0.45076  1.0000
  H   H4        1.0  0.00000  0.50000  0.40530  1.0000
  V   V9        1.0  0.73161  0.11520  0.48574  1.0000
  V   V10       1.0  0.73161  0.61520  0.53119  1.0000
  V   V11       1.0  0.26839  0.38480  0.46123  1.0000
  V   V12       1.0  0.26839  0.88480  0.50668  1.0000
  V   V13       1.0  0.73161  0.36520  0.50847  1.0000
  V   V14       1.0  0.73161  0.86520  0.46301  1.0000
  V   V15       1.0  0.26839  0.13480  0.52941  1.0000
  V   V16       1.0  0.26839  0.63480  0.48396  1.0000
  H   H5        1.0  0.00000  0.25000  0.47348  1.0000
  H   H6        1.0  0.00000  0.75000  0.51894  1.0000
  H   H7        1.0  0.00000  0.00000  0.54167  1.0000
  H   H8        1.0  0.00000  0.50000  0.49621  1.0000
  V   V17       1.0  0.73161  0.11520  0.57665  1.0000
  V   V18       1.0  0.73161  0.61520  0.62210  1.0000
  V   V19       1.0  0.26839  0.38480  0.55214  1.0000
  V   V20       1.0  0.26839  0.88480  0.59759  1.0000
  V   V21       1.0  0.73161  0.36520  0.59938  1.0000
  V   V22       1.0  0.73161  0.86520  0.55392  1.0000
  V   V23       1.0  0.26839  0.13480  0.62032  1.0000
  V   V24       1.0  0.26839  0.63480  0.57487  1.0000
  H   H9        1.0  0.00000  0.25000  0.56439  1.0000
  H   H10       1.0  0.00000  0.75000  0.60985  1.0000
  H   H11       1.0  0.00000  0.00000  0.63258  1.0000
  H   H12       1.0  0.00000  0.50000  0.58712  1.0000
