data_image0
_chemical_formula_structural       In10Pt10In10Pt10
_chemical_formula_sum              "In20 Pt20"
_cell_length_a       13.2025
_cell_length_b       7.62991
_cell_length_c       30.9184
_cell_angle_alpha    90
_cell_angle_beta     90
_cell_angle_gamma    123.224

_space_group_name_H-M_alt    "P 1"
_space_group_IT_number       1

loop_
  _space_group_symop_operation_xyz
  'x, y, z'

loop_
  _atom_site_type_symbol
  _atom_site_label
  _atom_site_symmetry_multiplicity
  _atom_site_fract_x
  _atom_site_fract_y
  _atom_site_fract_z
  _atom_site_occupancy
  In  In1       1.0  0.00000  0.50000  0.39286  1.0000
  In  In2       1.0  0.85109  0.15454  0.46429  1.0000
  In  In3       1.0  0.14891  0.84546  0.46429  1.0000
  In  In4       1.0  0.62791  0.24359  0.46429  1.0000
  In  In5       1.0  0.37209  0.75641  0.46429  1.0000
  In  In6       1.0  0.50000  0.50000  0.46429  1.0000
  In  In7       1.0  0.35109  0.15454  0.39286  1.0000
  In  In8       1.0  0.64891  0.84546  0.39286  1.0000
  In  In9       1.0  0.12791  0.24359  0.39286  1.0000
  In  In10      1.0  0.87209  0.75641  0.39286  1.0000
  Pt  Pt1       1.0  0.00000  0.00000  0.46429  1.0000
  Pt  Pt2       1.0  0.24109  0.73658  0.39286  1.0000
  Pt  Pt3       1.0  0.75891  0.26342  0.39286  1.0000
  Pt  Pt4       1.0  0.89113  0.55615  0.46429  1.0000
  Pt  Pt5       1.0  0.10887  0.44385  0.46429  1.0000
  Pt  Pt6       1.0  0.50000  0.00000  0.39286  1.0000
  Pt  Pt7       1.0  0.74109  0.73658  0.46429  1.0000
  Pt  Pt8       1.0  0.25891  0.26342  0.46429  1.0000
  Pt  Pt9       1.0  0.39113  0.55615  0.39286  1.0000
  Pt  Pt10      1.0  0.60887  0.44385  0.39286  1.0000
  In  In11      1.0  0.00000  0.50000  0.53571  1.0000
  In  In12      1.0  0.85109  0.15454  0.60714  1.0000
  In  In13      1.0  0.14891  0.84546  0.60714  1.0000
  In  In14      1.0  0.62791  0.24359  0.60714  1.0000
  In  In15      1.0  0.37209  0.75641  0.60714  1.0000
  In  In16      1.0  0.50000  0.50000  0.60714  1.0000
  In  In17      1.0  0.35109  0.15454  0.53571  1.0000
  In  In18      1.0  0.64891  0.84546  0.53571  1.0000
  In  In19      1.0  0.12791  0.24359  0.53571  1.0000
  In  In20      1.0  0.87209  0.75641  0.53571  1.0000
  Pt  Pt11      1.0  0.00000  0.00000  0.60714  1.0000
  Pt  Pt12      1.0  0.24109  0.73658  0.53571  1.0000
  Pt  Pt13      1.0  0.75891  0.26342  0.53571  1.0000
  Pt  Pt14      1.0  0.89113  0.55615  0.60714  1.0000
  Pt  Pt15      1.0  0.10887  0.44385  0.60714  1.0000
  Pt  Pt16      1.0  0.50000  0.00000  0.53571  1.0000
  Pt  Pt17      1.0  0.74109  0.73658  0.60714  1.0000
  Pt  Pt18      1.0  0.25891  0.26342  0.60714  1.0000
  Pt  Pt19      1.0  0.39113  0.55615  0.53571  1.0000
  Pt  Pt20      1.0  0.60887  0.44385  0.53571  1.0000
