data_image0
_chemical_formula_structural       Ca4Cu8Ge8
_chemical_formula_sum              "Ca4 Cu8 Ge8"
_cell_length_a       5.78982
_cell_length_b       5.84163
_cell_length_c       34.7389
_cell_angle_alpha    90
_cell_angle_beta     90
_cell_angle_gamma    119.707

_space_group_name_H-M_alt    "P 1"
_space_group_IT_number       1

loop_
  _space_group_symop_operation_xyz
  'x, y, z'

loop_
  _atom_site_type_symbol
  _atom_site_label
  _atom_site_symmetry_multiplicity
  _atom_site_fract_x
  _atom_site_fract_y
  _atom_site_fract_z
  _atom_site_occupancy
  Ca  Ca1       1.0  0.50000  0.00000  0.60833  1.0000
  Ca  Ca2       1.0  0.00000  0.00000  0.52500  1.0000
  Ca  Ca3       1.0  0.50000  0.00000  0.44167  1.0000
  Ca  Ca4       1.0  0.00000  0.00000  0.35833  1.0000
  Cu  Cu1       1.0  0.50000  0.50000  0.65000  1.0000
  Cu  Cu2       1.0  0.00000  0.50000  0.56667  1.0000
  Cu  Cu3       1.0  0.00000  0.50000  0.65000  1.0000
  Cu  Cu4       1.0  0.50000  0.50000  0.56667  1.0000
  Cu  Cu5       1.0  0.50000  0.50000  0.48333  1.0000
  Cu  Cu6       1.0  0.00000  0.50000  0.40000  1.0000
  Cu  Cu7       1.0  0.00000  0.50000  0.48333  1.0000
  Cu  Cu8       1.0  0.50000  0.50000  0.40000  1.0000
  Ge  Ge1       1.0  0.87835  0.75671  0.60833  1.0000
  Ge  Ge2       1.0  0.37835  0.75671  0.52500  1.0000
  Ge  Ge3       1.0  0.62165  0.24329  0.52500  1.0000
  Ge  Ge4       1.0  0.12165  0.24329  0.60833  1.0000
  Ge  Ge5       1.0  0.87835  0.75671  0.44167  1.0000
  Ge  Ge6       1.0  0.37835  0.75671  0.35833  1.0000
  Ge  Ge7       1.0  0.62165  0.24329  0.35833  1.0000
  Ge  Ge8       1.0  0.12165  0.24329  0.44167  1.0000
