data_image0
_chemical_formula_structural       Co6Sb6Co6Sb6Co6Sb6
_chemical_formula_sum              "Co18 Sb18"
_cell_length_a       10.1037
_cell_length_b       6.39657
_cell_length_c       34.3697
_cell_angle_alpha    107.368
_cell_angle_beta     79.1066
_cell_angle_gamma    63.1728

_space_group_name_H-M_alt    "P 1"
_space_group_IT_number       1

loop_
  _space_group_symop_operation_xyz
  'x, y, z'

loop_
  _atom_site_type_symbol
  _atom_site_label
  _atom_site_symmetry_multiplicity
  _atom_site_fract_x
  _atom_site_fract_y
  _atom_site_fract_z
  _atom_site_occupancy
  Co  Co1       1.0  0.00000  0.00000  0.42593  1.0000
  Co  Co2       1.0  0.33333  0.00000  0.35185  1.0000
  Co  Co3       1.0  0.66667  0.00000  0.38889  1.0000
  Co  Co4       1.0  0.83333  0.50000  0.35185  1.0000
  Co  Co5       1.0  0.16667  0.50000  0.38889  1.0000
  Co  Co6       1.0  0.50000  0.50000  0.42593  1.0000
  Sb  Sb1       1.0  0.02778  0.25000  0.38272  1.0000
  Sb  Sb2       1.0  0.36111  0.25000  0.41975  1.0000
  Sb  Sb3       1.0  0.69444  0.25000  0.34568  1.0000
  Sb  Sb4       1.0  0.63889  0.75000  0.43210  1.0000
  Sb  Sb5       1.0  0.97222  0.75000  0.35802  1.0000
  Sb  Sb6       1.0  0.30556  0.75000  0.39506  1.0000
  Co  Co7       1.0  0.00000  0.00000  0.53704  1.0000
  Co  Co8       1.0  0.33333  0.00000  0.46296  1.0000
  Co  Co9       1.0  0.66667  0.00000  0.50000  1.0000
  Co  Co10      1.0  0.83333  0.50000  0.46296  1.0000
  Co  Co11      1.0  0.16667  0.50000  0.50000  1.0000
  Co  Co12      1.0  0.50000  0.50000  0.53704  1.0000
  Sb  Sb7       1.0  0.02778  0.25000  0.49383  1.0000
  Sb  Sb8       1.0  0.36111  0.25000  0.53086  1.0000
  Sb  Sb9       1.0  0.69444  0.25000  0.45679  1.0000
  Sb  Sb10      1.0  0.63889  0.75000  0.54321  1.0000
  Sb  Sb11      1.0  0.97222  0.75000  0.46914  1.0000
  Sb  Sb12      1.0  0.30556  0.75000  0.50617  1.0000
  Co  Co13      1.0  0.00000  0.00000  0.64815  1.0000
  Co  Co14      1.0  0.33333  0.00000  0.57407  1.0000
  Co  Co15      1.0  0.66667  0.00000  0.61111  1.0000
  Co  Co16      1.0  0.83333  0.50000  0.57407  1.0000
  Co  Co17      1.0  0.16667  0.50000  0.61111  1.0000
  Co  Co18      1.0  0.50000  0.50000  0.64815  1.0000
  Sb  Sb13      1.0  0.02778  0.25000  0.60494  1.0000
  Sb  Sb14      1.0  0.36111  0.25000  0.64198  1.0000
  Sb  Sb15      1.0  0.69444  0.25000  0.56790  1.0000
  Sb  Sb16      1.0  0.63889  0.75000  0.65432  1.0000
  Sb  Sb17      1.0  0.97222  0.75000  0.58025  1.0000
  Sb  Sb18      1.0  0.30556  0.75000  0.61728  1.0000
