data_image0
_chemical_formula_structural       Fe8Cu4Ge8Fe8Cu4Ge8
_chemical_formula_sum              "Fe16 Cu8 Ge16"
_cell_length_a       3.89465
_cell_length_b       14.1583
_cell_length_c       34.018
_cell_angle_alpha    110.075
_cell_angle_beta     90
_cell_angle_gamma    90

_space_group_name_H-M_alt    "P 1"
_space_group_IT_number       1

loop_
  _space_group_symop_operation_xyz
  'x, y, z'

loop_
  _atom_site_type_symbol
  _atom_site_label
  _atom_site_symmetry_multiplicity
  _atom_site_fract_x
  _atom_site_fract_y
  _atom_site_fract_z
  _atom_site_occupancy
  Fe  Fe1       1.0  0.50000  0.07963  0.41138  1.0000
  Fe  Fe2       1.0  0.50000  0.57963  0.48280  1.0000
  Fe  Fe3       1.0  0.50000  0.42037  0.38862  1.0000
  Fe  Fe4       1.0  0.50000  0.92037  0.46005  1.0000
  Fe  Fe5       1.0  0.50000  0.25000  0.40000  1.0000
  Fe  Fe6       1.0  0.50000  0.75000  0.47143  1.0000
  Fe  Fe7       1.0  0.50000  0.25000  0.47143  1.0000
  Fe  Fe8       1.0  0.50000  0.75000  0.40000  1.0000
  Cu  Cu1       1.0  0.00000  0.50000  0.36429  1.0000
  Cu  Cu2       1.0  0.00000  0.00000  0.43571  1.0000
  Cu  Cu3       1.0  0.00000  0.50000  0.43571  1.0000
  Cu  Cu4       1.0  0.00000  0.00000  0.36429  1.0000
  Ge  Ge1       1.0  0.00000  0.18778  0.42683  1.0000
  Ge  Ge2       1.0  0.00000  0.68778  0.49825  1.0000
  Ge  Ge3       1.0  0.00000  0.31222  0.37317  1.0000
  Ge  Ge4       1.0  0.00000  0.81222  0.44460  1.0000
  Ge  Ge5       1.0  0.50000  0.09656  0.48522  1.0000
  Ge  Ge6       1.0  0.50000  0.59656  0.41379  1.0000
  Ge  Ge7       1.0  0.50000  0.40344  0.45763  1.0000
  Ge  Ge8       1.0  0.50000  0.90344  0.38621  1.0000
  Fe  Fe9       1.0  0.50000  0.07963  0.55423  1.0000
  Fe  Fe10      1.0  0.50000  0.57963  0.62566  1.0000
  Fe  Fe11      1.0  0.50000  0.42037  0.53148  1.0000
  Fe  Fe12      1.0  0.50000  0.92037  0.60291  1.0000
  Fe  Fe13      1.0  0.50000  0.25000  0.54286  1.0000
  Fe  Fe14      1.0  0.50000  0.75000  0.61429  1.0000
  Fe  Fe15      1.0  0.50000  0.25000  0.61429  1.0000
  Fe  Fe16      1.0  0.50000  0.75000  0.54286  1.0000
  Cu  Cu5       1.0  0.00000  0.50000  0.50714  1.0000
  Cu  Cu6       1.0  0.00000  0.00000  0.57857  1.0000
  Cu  Cu7       1.0  0.00000  0.50000  0.57857  1.0000
  Cu  Cu8       1.0  0.00000  0.00000  0.50714  1.0000
  Ge  Ge9       1.0  0.00000  0.18778  0.56968  1.0000
  Ge  Ge10      1.0  0.00000  0.68778  0.64111  1.0000
  Ge  Ge11      1.0  0.00000  0.31222  0.51603  1.0000
  Ge  Ge12      1.0  0.00000  0.81222  0.58746  1.0000
  Ge  Ge13      1.0  0.50000  0.09656  0.62808  1.0000
  Ge  Ge14      1.0  0.50000  0.59656  0.55665  1.0000
  Ge  Ge15      1.0  0.50000  0.40344  0.60049  1.0000
  Ge  Ge16      1.0  0.50000  0.90344  0.52906  1.0000
