data_image0
_chemical_formula_structural       Si4Pd12Si4Pd12
_chemical_formula_sum              "Si8 Pd24"
_cell_length_a       5.7696
_cell_length_b       7.51351
_cell_length_c       31.5582
_cell_angle_alpha    90
_cell_angle_beta     90
_cell_angle_gamma    90

_space_group_name_H-M_alt    "P 1"
_space_group_IT_number       1

loop_
  _space_group_symop_operation_xyz
  'x, y, z'

loop_
  _atom_site_type_symbol
  _atom_site_label
  _atom_site_symmetry_multiplicity
  _atom_site_fract_x
  _atom_site_fract_y
  _atom_site_fract_z
  _atom_site_occupancy
  Si  Si1       1.0  0.10405  0.75000  0.40088  1.0000
  Si  Si2       1.0  0.39595  0.25000  0.48421  1.0000
  Si  Si3       1.0  0.60405  0.75000  0.47412  1.0000
  Si  Si4       1.0  0.89595  0.25000  0.39079  1.0000
  Pd  Pd1       1.0  0.82035  0.94824  0.42552  1.0000
  Pd  Pd2       1.0  0.67965  0.05176  0.34218  1.0000
  Pd  Pd3       1.0  0.32035  0.55176  0.44948  1.0000
  Pd  Pd4       1.0  0.17965  0.44824  0.36615  1.0000
  Pd  Pd5       1.0  0.00673  0.25000  0.46293  1.0000
  Pd  Pd6       1.0  0.49327  0.75000  0.37960  1.0000
  Pd  Pd7       1.0  0.50673  0.25000  0.41207  1.0000
  Pd  Pd8       1.0  0.99327  0.75000  0.49540  1.0000
  Pd  Pd9       1.0  0.82035  0.55176  0.42552  1.0000
  Pd  Pd10      1.0  0.67965  0.44824  0.34218  1.0000
  Pd  Pd11      1.0  0.32035  0.94824  0.44948  1.0000
  Pd  Pd12      1.0  0.17965  0.05176  0.36615  1.0000
  Si  Si5       1.0  0.10405  0.75000  0.56755  1.0000
  Si  Si6       1.0  0.39595  0.25000  0.65088  1.0000
  Si  Si7       1.0  0.60405  0.75000  0.64079  1.0000
  Si  Si8       1.0  0.89595  0.25000  0.55745  1.0000
  Pd  Pd13      1.0  0.82035  0.94824  0.59218  1.0000
  Pd  Pd14      1.0  0.67965  0.05176  0.50885  1.0000
  Pd  Pd15      1.0  0.32035  0.55176  0.61615  1.0000
  Pd  Pd16      1.0  0.17965  0.44824  0.53282  1.0000
  Pd  Pd17      1.0  0.00673  0.25000  0.62960  1.0000
  Pd  Pd18      1.0  0.49327  0.75000  0.54626  1.0000
  Pd  Pd19      1.0  0.50673  0.25000  0.57874  1.0000
  Pd  Pd20      1.0  0.99327  0.75000  0.66207  1.0000
  Pd  Pd21      1.0  0.82035  0.55176  0.59218  1.0000
  Pd  Pd22      1.0  0.67965  0.44824  0.50885  1.0000
  Pd  Pd23      1.0  0.32035  0.94824  0.61615  1.0000
  Pd  Pd24      1.0  0.17965  0.05176  0.53282  1.0000
