data_image0
_chemical_formula_structural       Ni9Pt9
_chemical_formula_sum              "Ni9 Pt9"
_cell_length_a       4.45674
_cell_length_b       5.19675
_cell_length_c       30.7105
_cell_angle_alpha    91.6895
_cell_angle_beta     94.0145
_cell_angle_gamma    103.929

_space_group_name_H-M_alt    "P 1"
_space_group_IT_number       1

loop_
  _space_group_symop_operation_xyz
  'x, y, z'

loop_
  _atom_site_type_symbol
  _atom_site_label
  _atom_site_symmetry_multiplicity
  _atom_site_fract_x
  _atom_site_fract_y
  _atom_site_fract_z
  _atom_site_occupancy
  Ni  Ni1       1.0  0.22222  0.55556  0.38889  1.0000
  Ni  Ni2       1.0  0.70370  0.92593  0.42593  1.0000
  Ni  Ni3       1.0  0.74074  0.18519  0.35185  1.0000
  Ni  Ni4       1.0  0.66667  0.66667  0.50000  1.0000
  Ni  Ni5       1.0  0.14815  0.03704  0.53704  1.0000
  Ni  Ni6       1.0  0.18519  0.29630  0.46296  1.0000
  Ni  Ni7       1.0  0.11111  0.77778  0.61111  1.0000
  Ni  Ni8       1.0  0.59259  0.14815  0.64815  1.0000
  Ni  Ni9       1.0  0.62963  0.40741  0.57407  1.0000
  Pt  Pt1       1.0  0.70370  0.42593  0.42593  1.0000
  Pt  Pt2       1.0  0.74074  0.68519  0.35185  1.0000
  Pt  Pt3       1.0  0.22222  0.05556  0.38889  1.0000
  Pt  Pt4       1.0  0.14815  0.53704  0.53704  1.0000
  Pt  Pt5       1.0  0.18519  0.79630  0.46296  1.0000
  Pt  Pt6       1.0  0.66667  0.16667  0.50000  1.0000
  Pt  Pt7       1.0  0.59259  0.64815  0.64815  1.0000
  Pt  Pt8       1.0  0.62963  0.90741  0.57407  1.0000
  Pt  Pt9       1.0  0.11111  0.27778  0.61111  1.0000
