data_image0
_chemical_formula_structural       Ca4Cu8Ge8Ca4Cu8Ge8
_chemical_formula_sum              "Ca8 Cu16 Ge16"
_cell_length_a       4.09402
_cell_length_b       20.7043
_cell_length_c       28.6581
_cell_angle_alpha    101.405
_cell_angle_beta     90
_cell_angle_gamma    90

_space_group_name_H-M_alt    "P 1"
_space_group_IT_number       1

loop_
  _space_group_symop_operation_xyz
  'x, y, z'

loop_
  _atom_site_type_symbol
  _atom_site_label
  _atom_site_symmetry_multiplicity
  _atom_site_fract_x
  _atom_site_fract_y
  _atom_site_fract_z
  _atom_site_occupancy
  Ca  Ca1       1.0  0.00000  0.00000  0.45357  1.0000
  Ca  Ca2       1.0  0.00000  0.50000  0.38214  1.0000
  Ca  Ca3       1.0  0.50000  0.25000  0.41786  1.0000
  Ca  Ca4       1.0  0.50000  0.75000  0.48929  1.0000
  Cu  Cu1       1.0  0.00000  0.12500  0.40000  1.0000
  Cu  Cu2       1.0  0.00000  0.62500  0.47143  1.0000
  Cu  Cu3       1.0  0.50000  0.12500  0.47143  1.0000
  Cu  Cu4       1.0  0.50000  0.62500  0.40000  1.0000
  Cu  Cu5       1.0  0.50000  0.37500  0.36429  1.0000
  Cu  Cu6       1.0  0.50000  0.87500  0.43571  1.0000
  Cu  Cu7       1.0  0.00000  0.37500  0.43571  1.0000
  Cu  Cu8       1.0  0.00000  0.87500  0.36429  1.0000
  Ge  Ge1       1.0  0.00000  0.18918  0.48060  1.0000
  Ge  Ge2       1.0  0.00000  0.68918  0.40917  1.0000
  Ge  Ge3       1.0  0.50000  0.06082  0.39083  1.0000
  Ge  Ge4       1.0  0.50000  0.56082  0.46226  1.0000
  Ge  Ge5       1.0  0.50000  0.43918  0.44488  1.0000
  Ge  Ge6       1.0  0.50000  0.93918  0.37345  1.0000
  Ge  Ge7       1.0  0.00000  0.31082  0.49797  1.0000
  Ge  Ge8       1.0  0.00000  0.81082  0.42655  1.0000
  Ca  Ca5       1.0  0.00000  0.00000  0.59643  1.0000
  Ca  Ca6       1.0  0.00000  0.50000  0.52500  1.0000
  Ca  Ca7       1.0  0.50000  0.25000  0.56071  1.0000
  Ca  Ca8       1.0  0.50000  0.75000  0.63214  1.0000
  Cu  Cu9       1.0  0.00000  0.12500  0.54286  1.0000
  Cu  Cu10      1.0  0.00000  0.62500  0.61429  1.0000
  Cu  Cu11      1.0  0.50000  0.12500  0.61429  1.0000
  Cu  Cu12      1.0  0.50000  0.62500  0.54286  1.0000
  Cu  Cu13      1.0  0.50000  0.37500  0.50714  1.0000
  Cu  Cu14      1.0  0.50000  0.87500  0.57857  1.0000
  Cu  Cu15      1.0  0.00000  0.37500  0.57857  1.0000
  Cu  Cu16      1.0  0.00000  0.87500  0.50714  1.0000
  Ge  Ge9       1.0  0.00000  0.18918  0.62345  1.0000
  Ge  Ge10      1.0  0.00000  0.68918  0.55203  1.0000
  Ge  Ge11      1.0  0.50000  0.06082  0.53369  1.0000
  Ge  Ge12      1.0  0.50000  0.56082  0.60512  1.0000
  Ge  Ge13      1.0  0.50000  0.43918  0.58774  1.0000
  Ge  Ge14      1.0  0.50000  0.93918  0.51631  1.0000
  Ge  Ge15      1.0  0.00000  0.31082  0.64083  1.0000
  Ge  Ge16      1.0  0.00000  0.81082  0.56940  1.0000
