data_image0
_chemical_formula_structural       H8V16
_chemical_formula_sum              "H8 V16"
_cell_length_a       4.37743
_cell_length_b       4.86083
_cell_length_c       33.163
_cell_angle_alpha    86.2244
_cell_angle_beta     88.0706
_cell_angle_gamma    70.4015

_space_group_name_H-M_alt    "P 1"
_space_group_IT_number       1

loop_
  _space_group_symop_operation_xyz
  'x, y, z'

loop_
  _atom_site_type_symbol
  _atom_site_label
  _atom_site_symmetry_multiplicity
  _atom_site_fract_x
  _atom_site_fract_y
  _atom_site_fract_z
  _atom_site_occupancy
  H   H1        1.0  0.59028  0.81944  0.40972  1.0000
  H   H2        1.0  0.13194  0.73611  0.36806  1.0000
  H   H3        1.0  0.50694  0.98611  0.49306  1.0000
  H   H4        1.0  0.04861  0.90278  0.45139  1.0000
  H   H5        1.0  0.42361  0.15278  0.57639  1.0000
  H   H6        1.0  0.96528  0.06944  0.53472  1.0000
  H   H7        1.0  0.34028  0.31944  0.65972  1.0000
  H   H8        1.0  0.88194  0.23611  0.61806  1.0000
  V   V1        1.0  0.19767  0.06546  0.39854  1.0000
  V   V2        1.0  0.73933  0.98213  0.35687  1.0000
  V   V3        1.0  0.52456  0.49009  0.37924  1.0000
  V   V4        1.0  0.06622  0.40676  0.33757  1.0000
  V   V5        1.0  0.11433  0.23213  0.48187  1.0000
  V   V6        1.0  0.65600  0.14880  0.44021  1.0000
  V   V7        1.0  0.44122  0.65676  0.46257  1.0000
  V   V8        1.0  0.98289  0.57342  0.42090  1.0000
  V   V9        1.0  0.03100  0.39880  0.56521  1.0000
  V   V10       1.0  0.57267  0.31546  0.52354  1.0000
  V   V11       1.0  0.35789  0.82342  0.54590  1.0000
  V   V12       1.0  0.89956  0.74009  0.50424  1.0000
  V   V13       1.0  0.94767  0.56546  0.64854  1.0000
  V   V14       1.0  0.48933  0.48213  0.60687  1.0000
  V   V15       1.0  0.27456  0.99009  0.62924  1.0000
  V   V16       1.0  0.81622  0.90676  0.58757  1.0000
