data_image0
_chemical_formula_structural       Ti4Cr8Ti4Cr8
_chemical_formula_sum              "Ti8 Cr16"
_cell_length_a       4.79609
_cell_length_b       7.73825
_cell_length_c       33.5727
_cell_angle_alpha    90
_cell_angle_beta     120
_cell_angle_gamma    90

_space_group_name_H-M_alt    "P 1"
_space_group_IT_number       1

loop_
  _space_group_symop_operation_xyz
  'x, y, z'

loop_
  _atom_site_type_symbol
  _atom_site_label
  _atom_site_symmetry_multiplicity
  _atom_site_fract_x
  _atom_site_fract_y
  _atom_site_fract_z
  _atom_site_occupancy
  Ti  Ti1       1.0  0.33333  0.56053  0.41667  1.0000
  Ti  Ti2       1.0  0.66667  0.43947  0.36905  1.0000
  Ti  Ti3       1.0  0.66667  0.06053  0.36905  1.0000
  Ti  Ti4       1.0  0.33333  0.93947  0.41667  1.0000
  Cr  Cr1       1.0  0.00000  0.50000  0.46429  1.0000
  Cr  Cr2       1.0  0.00000  0.00000  0.46429  1.0000
  Cr  Cr3       1.0  0.34038  0.75000  0.48860  1.0000
  Cr  Cr4       1.0  0.82981  0.75000  0.48860  1.0000
  Cr  Cr5       1.0  0.82981  0.75000  0.41566  1.0000
  Cr  Cr6       1.0  0.65962  0.25000  0.43997  1.0000
  Cr  Cr7       1.0  0.17019  0.25000  0.43997  1.0000
  Cr  Cr8       1.0  0.17019  0.25000  0.37005  1.0000
  Ti  Ti5       1.0  0.33333  0.56053  0.55952  1.0000
  Ti  Ti6       1.0  0.66667  0.43947  0.51190  1.0000
  Ti  Ti7       1.0  0.66667  0.06053  0.51190  1.0000
  Ti  Ti8       1.0  0.33333  0.93947  0.55952  1.0000
  Cr  Cr9       1.0  0.00000  0.50000  0.60714  1.0000
  Cr  Cr10      1.0  0.00000  0.00000  0.60714  1.0000
  Cr  Cr11      1.0  0.34038  0.75000  0.63146  1.0000
  Cr  Cr12      1.0  0.82981  0.75000  0.63146  1.0000
  Cr  Cr13      1.0  0.82981  0.75000  0.55852  1.0000
  Cr  Cr14      1.0  0.65962  0.25000  0.58283  1.0000
  Cr  Cr15      1.0  0.17019  0.25000  0.58283  1.0000
  Cr  Cr16      1.0  0.17019  0.25000  0.51291  1.0000
