data_image0
_chemical_formula_structural       Ca4Ge4Pt4
_chemical_formula_sum              "Ca4 Ge4 Pt4"
_cell_length_a       4.38215
_cell_length_b       7.40158
_cell_length_c       28.5226
_cell_angle_alpha    90
_cell_angle_beta     90
_cell_angle_gamma    90

_space_group_name_H-M_alt    "P 1"
_space_group_IT_number       1

loop_
  _space_group_symop_operation_xyz
  'x, y, z'

loop_
  _atom_site_type_symbol
  _atom_site_label
  _atom_site_symmetry_multiplicity
  _atom_site_fract_x
  _atom_site_fract_y
  _atom_site_fract_z
  _atom_site_occupancy
  Ca  Ca1       1.0  0.25000  0.30381  0.47744  1.0000
  Ca  Ca2       1.0  0.75000  0.69619  0.48089  1.0000
  Ca  Ca3       1.0  0.25000  0.19619  0.60244  1.0000
  Ca  Ca4       1.0  0.75000  0.80381  0.60589  1.0000
  Ge  Ge1       1.0  0.25000  0.58326  0.55912  1.0000
  Ge  Ge2       1.0  0.75000  0.41674  0.39921  1.0000
  Ge  Ge3       1.0  0.25000  0.91674  0.43412  1.0000
  Ge  Ge4       1.0  0.75000  0.08326  0.52421  1.0000
  Pt  Pt1       1.0  0.25000  0.90759  0.52866  1.0000
  Pt  Pt2       1.0  0.75000  0.09241  0.42968  1.0000
  Pt  Pt3       1.0  0.25000  0.59241  0.40366  1.0000
  Pt  Pt4       1.0  0.75000  0.40759  0.55468  1.0000
