data_image0
_chemical_formula_structural       Al8Pt16
_chemical_formula_sum              "Al8 Pt16"
_cell_length_a       3.91145
_cell_length_b       5.44341
_cell_length_c       48.8924
_cell_angle_alpha    90
_cell_angle_beta     90
_cell_angle_gamma    90

_space_group_name_H-M_alt    "P 1"
_space_group_IT_number       1

loop_
  _space_group_symop_operation_xyz
  'x, y, z'

loop_
  _atom_site_type_symbol
  _atom_site_label
  _atom_site_symmetry_multiplicity
  _atom_site_fract_x
  _atom_site_fract_y
  _atom_site_fract_z
  _atom_site_occupancy
  Al  Al1       1.0  0.00000  0.20369  0.51389  1.0000
  Al  Al2       1.0  0.00000  0.79631  0.34722  1.0000
  Al  Al3       1.0  0.00000  0.68732  0.46108  1.0000
  Al  Al4       1.0  0.00000  0.31268  0.40003  1.0000
  Al  Al5       1.0  0.00000  0.68732  0.56670  1.0000
  Al  Al6       1.0  0.00000  0.31268  0.62775  1.0000
  Al  Al7       1.0  0.50000  0.00000  0.43056  1.0000
  Al  Al8       1.0  0.50000  0.00000  0.59722  1.0000
  Pt  Pt1       1.0  0.50000  0.05421  0.37842  1.0000
  Pt  Pt2       1.0  0.50000  0.94579  0.48269  1.0000
  Pt  Pt3       1.0  0.50000  0.55851  0.65308  1.0000
  Pt  Pt4       1.0  0.50000  0.44149  0.54136  1.0000
  Pt  Pt5       1.0  0.50000  0.55851  0.37470  1.0000
  Pt  Pt6       1.0  0.50000  0.44149  0.48641  1.0000
  Pt  Pt7       1.0  0.00000  0.27536  0.34722  1.0000
  Pt  Pt8       1.0  0.00000  0.72464  0.51389  1.0000
  Pt  Pt9       1.0  0.50000  0.94579  0.54509  1.0000
  Pt  Pt10      1.0  0.50000  0.05421  0.64936  1.0000
  Pt  Pt11      1.0  0.50000  0.50000  0.43056  1.0000
  Pt  Pt12      1.0  0.50000  0.50000  0.59722  1.0000
  Pt  Pt13      1.0  0.00000  0.20061  0.45356  1.0000
  Pt  Pt14      1.0  0.00000  0.79939  0.40755  1.0000
  Pt  Pt15      1.0  0.00000  0.20061  0.57422  1.0000
  Pt  Pt16      1.0  0.00000  0.79939  0.62023  1.0000
