data_image0
_chemical_formula_structural       Fe2As4Fe2As4Fe2As4
_chemical_formula_sum              "Fe6 As12"
_cell_length_a       5.24104
_cell_length_b       6.56273
_cell_length_c       31.3436
_cell_angle_alpha    115.733
_cell_angle_beta     90
_cell_angle_gamma    90

_space_group_name_H-M_alt    "P 1"
_space_group_IT_number       1

loop_
  _space_group_symop_operation_xyz
  'x, y, z'

loop_
  _atom_site_type_symbol
  _atom_site_label
  _atom_site_symmetry_multiplicity
  _atom_site_fract_x
  _atom_site_fract_y
  _atom_site_fract_z
  _atom_site_occupancy
  Fe  Fe1       1.0  0.00000  0.00000  0.43939  1.0000
  Fe  Fe2       1.0  0.50000  0.50000  0.43939  1.0000
  As  As1       1.0  0.17916  0.36074  0.38128  1.0000
  As  As2       1.0  0.82084  0.63926  0.40660  1.0000
  As  As3       1.0  0.67916  0.13926  0.40660  1.0000
  As  As4       1.0  0.32084  0.86074  0.38128  1.0000
  Fe  Fe3       1.0  0.00000  0.00000  0.53030  1.0000
  Fe  Fe4       1.0  0.50000  0.50000  0.53030  1.0000
  As  As5       1.0  0.17916  0.36074  0.47219  1.0000
  As  As6       1.0  0.82084  0.63926  0.49751  1.0000
  As  As7       1.0  0.67916  0.13926  0.49751  1.0000
  As  As8       1.0  0.32084  0.86074  0.47219  1.0000
  Fe  Fe5       1.0  0.00000  0.00000  0.62121  1.0000
  Fe  Fe6       1.0  0.50000  0.50000  0.62121  1.0000
  As  As9       1.0  0.17916  0.36074  0.56310  1.0000
  As  As10      1.0  0.82084  0.63926  0.58842  1.0000
  As  As11      1.0  0.67916  0.13926  0.58842  1.0000
  As  As12      1.0  0.32084  0.86074  0.56310  1.0000
