data_image0
_chemical_formula_structural       Nb3Au6Nb3Au6
_chemical_formula_sum              "Nb6 Au12"
_cell_length_a       8.02088
_cell_length_b       5.37412
_cell_length_c       32.2447
_cell_angle_alpha    96.5332
_cell_angle_beta     90
_cell_angle_gamma    41.7334

_space_group_name_H-M_alt    "P 1"
_space_group_IT_number       1

loop_
  _space_group_symop_operation_xyz
  'x, y, z'

loop_
  _atom_site_type_symbol
  _atom_site_label
  _atom_site_symmetry_multiplicity
  _atom_site_fract_x
  _atom_site_fract_y
  _atom_site_fract_z
  _atom_site_occupancy
  Nb  Nb1       1.0  0.66667  0.66667  0.37963  1.0000
  Nb  Nb2       1.0  0.00000  0.00000  0.49074  1.0000
  Nb  Nb3       1.0  0.33333  0.33333  0.43519  1.0000
  Au  Au1       1.0  0.50000  0.66667  0.46296  1.0000
  Au  Au2       1.0  0.83333  0.00000  0.40741  1.0000
  Au  Au3       1.0  0.16667  0.33333  0.35185  1.0000
  Au  Au4       1.0  0.83333  0.66667  0.46296  1.0000
  Au  Au5       1.0  0.16667  0.00000  0.40741  1.0000
  Au  Au6       1.0  0.50000  0.33333  0.35185  1.0000
  Nb  Nb4       1.0  0.66667  0.66667  0.54630  1.0000
  Nb  Nb5       1.0  0.00000  0.00000  0.65741  1.0000
  Nb  Nb6       1.0  0.33333  0.33333  0.60185  1.0000
  Au  Au7       1.0  0.50000  0.66667  0.62963  1.0000
  Au  Au8       1.0  0.83333  0.00000  0.57407  1.0000
  Au  Au9       1.0  0.16667  0.33333  0.51852  1.0000
  Au  Au10      1.0  0.83333  0.66667  0.62963  1.0000
  Au  Au11      1.0  0.16667  0.00000  0.57407  1.0000
  Au  Au12      1.0  0.50000  0.33333  0.51852  1.0000
