data_image0
_chemical_formula_structural       Re18
_chemical_formula_sum              "Re18"
_cell_length_a       4.44636
_cell_length_b       7.27489
_cell_length_c       30.2461
_cell_angle_alpha    79.1066
_cell_angle_beta     90
_cell_angle_gamma    90

_space_group_name_H-M_alt    "P 1"
_space_group_IT_number       1

loop_
  _space_group_symop_operation_xyz
  'x, y, z'

loop_
  _atom_site_type_symbol
  _atom_site_label
  _atom_site_symmetry_multiplicity
  _atom_site_fract_x
  _atom_site_fract_y
  _atom_site_fract_z
  _atom_site_occupancy
  Re  Re1       1.0  0.75000  0.55556  0.36869  1.0000
  Re  Re2       1.0  0.75000  0.22222  0.42929  1.0000
  Re  Re3       1.0  0.75000  0.88889  0.39899  1.0000
  Re  Re4       1.0  0.25000  0.77778  0.44949  1.0000
  Re  Re5       1.0  0.25000  0.44444  0.41919  1.0000
  Re  Re6       1.0  0.25000  0.11111  0.38889  1.0000
  Re  Re7       1.0  0.75000  0.55556  0.45960  1.0000
  Re  Re8       1.0  0.75000  0.22222  0.52020  1.0000
  Re  Re9       1.0  0.75000  0.88889  0.48990  1.0000
  Re  Re10      1.0  0.25000  0.77778  0.54040  1.0000
  Re  Re11      1.0  0.25000  0.44444  0.51010  1.0000
  Re  Re12      1.0  0.25000  0.11111  0.47980  1.0000
  Re  Re13      1.0  0.75000  0.55556  0.55051  1.0000
  Re  Re14      1.0  0.75000  0.22222  0.61111  1.0000
  Re  Re15      1.0  0.75000  0.88889  0.58081  1.0000
  Re  Re16      1.0  0.25000  0.77778  0.63131  1.0000
  Re  Re17      1.0  0.25000  0.44444  0.60101  1.0000
  Re  Re18      1.0  0.25000  0.11111  0.57071  1.0000
