data_image0
_chemical_formula_structural       As12W8
_chemical_formula_sum              "As12 W8"
_cell_length_a       3.26489
_cell_length_b       9.57396
_cell_length_c       33.3531
_cell_angle_alpha    79.7702
_cell_angle_beta     90
_cell_angle_gamma    90

_space_group_name_H-M_alt    "P 1"
_space_group_IT_number       1

loop_
  _space_group_symop_operation_xyz
  'x, y, z'

loop_
  _atom_site_type_symbol
  _atom_site_label
  _atom_site_symmetry_multiplicity
  _atom_site_fract_x
  _atom_site_fract_y
  _atom_site_fract_z
  _atom_site_occupancy
  As  As1       1.0  0.50000  0.02462  0.41869  1.0000
  As  As2       1.0  0.50000  0.97538  0.34797  1.0000
  As  As3       1.0  0.00000  0.27072  0.35534  1.0000
  As  As4       1.0  0.00000  0.72928  0.41132  1.0000
  As  As5       1.0  0.00000  0.07813  0.50836  1.0000
  As  As6       1.0  0.00000  0.92187  0.59164  1.0000
  As  As7       1.0  0.00000  0.52462  0.58536  1.0000
  As  As8       1.0  0.00000  0.47538  0.51464  1.0000
  As  As9       1.0  0.50000  0.77072  0.52201  1.0000
  As  As10      1.0  0.50000  0.22928  0.57799  1.0000
  As  As11      1.0  0.50000  0.57813  0.34169  1.0000
  As  As12      1.0  0.50000  0.42187  0.42498  1.0000
  W   W1        1.0  0.00000  0.78159  0.66576  1.0000
  W   W2        1.0  0.00000  0.21841  0.43424  1.0000
  W   W3        1.0  0.00000  0.12514  0.63241  1.0000
  W   W4        1.0  0.00000  0.87486  0.46759  1.0000
  W   W5        1.0  0.50000  0.28159  0.49909  1.0000
  W   W6        1.0  0.50000  0.71841  0.60091  1.0000
  W   W7        1.0  0.50000  0.62514  0.46575  1.0000
  W   W8        1.0  0.50000  0.37486  0.63425  1.0000
