data_image0
_chemical_formula_structural       In9Pd6In9Pd6
_chemical_formula_sum              "In18 Pd12"
_cell_length_a       5.48581
_cell_length_b       12.0225
_cell_length_c       31.8085
_cell_angle_alpha    79.1066
_cell_angle_beta     90
_cell_angle_gamma    90

_space_group_name_H-M_alt    "P 1"
_space_group_IT_number       1

loop_
  _space_group_symop_operation_xyz
  'x, y, z'

loop_
  _atom_site_type_symbol
  _atom_site_label
  _atom_site_symmetry_multiplicity
  _atom_site_fract_x
  _atom_site_fract_y
  _atom_site_fract_z
  _atom_site_occupancy
  In  In1       1.0  0.00000  0.66667  0.44762  1.0000
  In  In2       1.0  0.00000  0.33333  0.40000  1.0000
  In  In3       1.0  0.00000  0.00000  0.49524  1.0000
  In  In4       1.0  0.35726  0.55556  0.38413  1.0000
  In  In5       1.0  0.35726  0.22222  0.47937  1.0000
  In  In6       1.0  0.35726  0.88889  0.43175  1.0000
  In  In7       1.0  0.64274  0.77778  0.36825  1.0000
  In  In8       1.0  0.64274  0.44444  0.46349  1.0000
  In  In9       1.0  0.64274  0.11111  0.41587  1.0000
  Pd  Pd1       1.0  0.85436  0.55556  0.38413  1.0000
  Pd  Pd2       1.0  0.85436  0.22222  0.47937  1.0000
  Pd  Pd3       1.0  0.85436  0.88889  0.43175  1.0000
  Pd  Pd4       1.0  0.14564  0.77778  0.36825  1.0000
  Pd  Pd5       1.0  0.14564  0.44444  0.46349  1.0000
  Pd  Pd6       1.0  0.14564  0.11111  0.41587  1.0000
  In  In10      1.0  0.00000  0.66667  0.59048  1.0000
  In  In11      1.0  0.00000  0.33333  0.54286  1.0000
  In  In12      1.0  0.00000  0.00000  0.63810  1.0000
  In  In13      1.0  0.35726  0.55556  0.52698  1.0000
  In  In14      1.0  0.35726  0.22222  0.62222  1.0000
  In  In15      1.0  0.35726  0.88889  0.57460  1.0000
  In  In16      1.0  0.64274  0.77778  0.51111  1.0000
  In  In17      1.0  0.64274  0.44444  0.60635  1.0000
  In  In18      1.0  0.64274  0.11111  0.55873  1.0000
  Pd  Pd7       1.0  0.85436  0.55556  0.52698  1.0000
  Pd  Pd8       1.0  0.85436  0.22222  0.62222  1.0000
  Pd  Pd9       1.0  0.85436  0.88889  0.57460  1.0000
  Pd  Pd10      1.0  0.14564  0.77778  0.51111  1.0000
  Pd  Pd11      1.0  0.14564  0.44444  0.60635  1.0000
  Pd  Pd12      1.0  0.14564  0.11111  0.55873  1.0000
