data_image0
_chemical_formula_structural       Ti4Pd2Ti4Pd2Ti4Pd2
_chemical_formula_sum              "Ti12 Pd6"
_cell_length_a       3.07122
_cell_length_b       11.5742
_cell_length_c       33.7834
_cell_angle_alpha    122.053
_cell_angle_beta     90
_cell_angle_gamma    90

_space_group_name_H-M_alt    "P 1"
_space_group_IT_number       1

loop_
  _space_group_symop_operation_xyz
  'x, y, z'

loop_
  _atom_site_type_symbol
  _atom_site_label
  _atom_site_symmetry_multiplicity
  _atom_site_fract_x
  _atom_site_fract_y
  _atom_site_fract_z
  _atom_site_occupancy
  Ti  Ti1       1.0  0.50000  0.16460  0.41629  1.0000
  Ti  Ti2       1.0  0.00000  0.33540  0.40189  1.0000
  Ti  Ti3       1.0  0.00000  0.66460  0.37084  1.0000
  Ti  Ti4       1.0  0.50000  0.83540  0.44735  1.0000
  Pd  Pd1       1.0  0.00000  0.00000  0.43182  1.0000
  Pd  Pd2       1.0  0.50000  0.50000  0.38636  1.0000
  Ti  Ti5       1.0  0.50000  0.16460  0.50720  1.0000
  Ti  Ti6       1.0  0.00000  0.33540  0.49280  1.0000
  Ti  Ti7       1.0  0.00000  0.66460  0.46175  1.0000
  Ti  Ti8       1.0  0.50000  0.83540  0.53825  1.0000
  Pd  Pd3       1.0  0.00000  0.00000  0.52273  1.0000
  Pd  Pd4       1.0  0.50000  0.50000  0.47727  1.0000
  Ti  Ti9       1.0  0.50000  0.16460  0.59811  1.0000
  Ti  Ti10      1.0  0.00000  0.33540  0.58371  1.0000
  Ti  Ti11      1.0  0.00000  0.66460  0.55265  1.0000
  Ti  Ti12      1.0  0.50000  0.83540  0.62916  1.0000
  Pd  Pd5       1.0  0.00000  0.00000  0.61364  1.0000
  Pd  Pd6       1.0  0.50000  0.50000  0.56818  1.0000
