data_image0
_chemical_formula_structural       Mo4Si8
_chemical_formula_sum              "Mo4 Si8"
_cell_length_a       4.50865
_cell_length_b       4.51691
_cell_length_c       31.275
_cell_angle_alpha    90
_cell_angle_beta     89.8789
_cell_angle_gamma    90

_space_group_name_H-M_alt    "P 1"
_space_group_IT_number       1

loop_
  _space_group_symop_operation_xyz
  'x, y, z'

loop_
  _atom_site_type_symbol
  _atom_site_label
  _atom_site_symmetry_multiplicity
  _atom_site_fract_x
  _atom_site_fract_y
  _atom_site_fract_z
  _atom_site_occupancy
  Mo  Mo1       1.0  0.79167  0.50000  0.42708  1.0000
  Mo  Mo2       1.0  0.04167  0.00000  0.48958  1.0000
  Mo  Mo3       1.0  0.54167  0.00000  0.61458  1.0000
  Mo  Mo4       1.0  0.29167  0.50000  0.55208  1.0000
  Si  Si1       1.0  0.79441  0.50000  0.51019  1.0000
  Si  Si2       1.0  0.04441  0.00000  0.57269  1.0000
  Si  Si3       1.0  0.54441  0.00000  0.44769  1.0000
  Si  Si4       1.0  0.29441  0.50000  0.38519  1.0000
  Si  Si5       1.0  0.28893  0.50000  0.46898  1.0000
  Si  Si6       1.0  0.53893  0.00000  0.53148  1.0000
  Si  Si7       1.0  0.03893  0.00000  0.40648  1.0000
  Si  Si8       1.0  0.78893  0.50000  0.59398  1.0000
