data_image0
_chemical_formula_structural       Mn4Sb4Rh8Mn4Sb4Rh8
_chemical_formula_sum              "Mn8 Sb8 Rh16"
_cell_length_a       9.00715
_cell_length_b       5.36525
_cell_length_c       32.1915
_cell_angle_alpha    97.3161
_cell_angle_beta     109.619
_cell_angle_gamma    70.3813

_space_group_name_H-M_alt    "P 1"
_space_group_IT_number       1

loop_
  _space_group_symop_operation_xyz
  'x, y, z'

loop_
  _atom_site_type_symbol
  _atom_site_label
  _atom_site_symmetry_multiplicity
  _atom_site_fract_x
  _atom_site_fract_y
  _atom_site_fract_z
  _atom_site_occupancy
  Mn  Mn1       1.0  0.50000  0.75000  0.36458  1.0000
  Mn  Mn2       1.0  0.00000  0.00000  0.48958  1.0000
  Mn  Mn3       1.0  0.00000  0.50000  0.40625  1.0000
  Mn  Mn4       1.0  0.50000  0.25000  0.44792  1.0000
  Sb  Sb1       1.0  0.75000  0.37500  0.42708  1.0000
  Sb  Sb2       1.0  0.25000  0.62500  0.38542  1.0000
  Sb  Sb3       1.0  0.25000  0.12500  0.46875  1.0000
  Sb  Sb4       1.0  0.75000  0.87500  0.34375  1.0000
  Rh  Rh1       1.0  0.75000  0.87500  0.42708  1.0000
  Rh  Rh2       1.0  0.25000  0.12500  0.38542  1.0000
  Rh  Rh3       1.0  0.25000  0.62500  0.46875  1.0000
  Rh  Rh4       1.0  0.75000  0.37500  0.34375  1.0000
  Rh  Rh5       1.0  0.50000  0.75000  0.44792  1.0000
  Rh  Rh6       1.0  0.00000  0.00000  0.40625  1.0000
  Rh  Rh7       1.0  0.00000  0.50000  0.48958  1.0000
  Rh  Rh8       1.0  0.50000  0.25000  0.36458  1.0000
  Mn  Mn5       1.0  0.50000  0.75000  0.53125  1.0000
  Mn  Mn6       1.0  0.00000  0.00000  0.65625  1.0000
  Mn  Mn7       1.0  0.00000  0.50000  0.57292  1.0000
  Mn  Mn8       1.0  0.50000  0.25000  0.61458  1.0000
  Sb  Sb5       1.0  0.75000  0.37500  0.59375  1.0000
  Sb  Sb6       1.0  0.25000  0.62500  0.55208  1.0000
  Sb  Sb7       1.0  0.25000  0.12500  0.63542  1.0000
  Sb  Sb8       1.0  0.75000  0.87500  0.51042  1.0000
  Rh  Rh9       1.0  0.75000  0.87500  0.59375  1.0000
  Rh  Rh10      1.0  0.25000  0.12500  0.55208  1.0000
  Rh  Rh11      1.0  0.25000  0.62500  0.63542  1.0000
  Rh  Rh12      1.0  0.75000  0.37500  0.51042  1.0000
  Rh  Rh13      1.0  0.50000  0.75000  0.61458  1.0000
  Rh  Rh14      1.0  0.00000  0.00000  0.57292  1.0000
  Rh  Rh15      1.0  0.00000  0.50000  0.65625  1.0000
  Rh  Rh16      1.0  0.50000  0.25000  0.53125  1.0000
