data_image0
_chemical_formula_structural       AlCo2Si2AlCo2Si2
_chemical_formula_sum              "Al2 Co4 Si4"
_cell_length_a       3.89336
_cell_length_b       3.89336
_cell_length_c       32.1137
_cell_angle_alpha    90
_cell_angle_beta     90
_cell_angle_gamma    120

_space_group_name_H-M_alt    "P 1"
_space_group_IT_number       1

loop_
  _space_group_symop_operation_xyz
  'x, y, z'

loop_
  _atom_site_type_symbol
  _atom_site_label
  _atom_site_symmetry_multiplicity
  _atom_site_fract_x
  _atom_site_fract_y
  _atom_site_fract_z
  _atom_site_occupancy
  Al  Al1       1.0  0.00000  0.00000  0.45714  1.0000
  Co  Co1       1.0  0.66667  0.33333  0.48039  1.0000
  Co  Co2       1.0  0.33333  0.66667  0.43390  1.0000
  Si  Si1       1.0  0.33333  0.66667  0.36398  1.0000
  Si  Si2       1.0  0.66667  0.33333  0.40745  1.0000
  Al  Al2       1.0  0.00000  0.00000  0.60000  1.0000
  Co  Co3       1.0  0.66667  0.33333  0.62324  1.0000
  Co  Co4       1.0  0.33333  0.66667  0.57676  1.0000
  Si  Si3       1.0  0.33333  0.66667  0.50684  1.0000
  Si  Si4       1.0  0.66667  0.33333  0.55031  1.0000
