data_image0
_chemical_formula_structural       Ca2Cu2Sb2
_chemical_formula_sum              "Ca2 Cu2 Sb2"
_cell_length_a       4.40545
_cell_length_b       4.40545
_cell_length_c       32.3146
_cell_angle_alpha    90
_cell_angle_beta     90
_cell_angle_gamma    120

_space_group_name_H-M_alt    "P 1"
_space_group_IT_number       1

loop_
  _space_group_symop_operation_xyz
  'x, y, z'

loop_
  _atom_site_type_symbol
  _atom_site_label
  _atom_site_symmetry_multiplicity
  _atom_site_fract_x
  _atom_site_fract_y
  _atom_site_fract_z
  _atom_site_occupancy
  Ca  Ca1       1.0  0.00000  0.00000  0.60417  1.0000
  Ca  Ca2       1.0  0.00000  0.00000  0.47917  1.0000
  Cu  Cu1       1.0  0.33333  0.66667  0.41667  1.0000
  Cu  Cu2       1.0  0.66667  0.33333  0.54167  1.0000
  Sb  Sb1       1.0  0.33333  0.66667  0.54167  1.0000
  Sb  Sb2       1.0  0.66667  0.33333  0.41667  1.0000
