data_image0
_chemical_formula_structural       Zn3Pd3Zn3Pd3
_chemical_formula_sum              "Zn6 Pd6"
_cell_length_a       3.35589
_cell_length_b       6.39912
_cell_length_c       32.3773
_cell_angle_alpha    71.5651
_cell_angle_beta     90
_cell_angle_gamma    90

_space_group_name_H-M_alt    "P 1"
_space_group_IT_number       1

loop_
  _space_group_symop_operation_xyz
  'x, y, z'

loop_
  _atom_site_type_symbol
  _atom_site_label
  _atom_site_symmetry_multiplicity
  _atom_site_fract_x
  _atom_site_fract_y
  _atom_site_fract_z
  _atom_site_occupancy
  Zn  Zn1       1.0  0.50000  0.66667  0.38542  1.0000
  Zn  Zn2       1.0  0.50000  0.33333  0.46875  1.0000
  Zn  Zn3       1.0  0.50000  0.00000  0.42708  1.0000
  Pd  Pd1       1.0  0.00000  0.66667  0.44792  1.0000
  Pd  Pd2       1.0  0.00000  0.33333  0.40625  1.0000
  Pd  Pd3       1.0  0.00000  0.00000  0.48958  1.0000
  Zn  Zn4       1.0  0.50000  0.66667  0.51042  1.0000
  Zn  Zn5       1.0  0.50000  0.33333  0.59375  1.0000
  Zn  Zn6       1.0  0.50000  0.00000  0.55208  1.0000
  Pd  Pd4       1.0  0.00000  0.66667  0.57292  1.0000
  Pd  Pd5       1.0  0.00000  0.33333  0.53125  1.0000
  Pd  Pd6       1.0  0.00000  0.00000  0.61458  1.0000
