data_image0
_chemical_formula_structural       Fe2Sb4Fe2Sb4Fe2Sb4
_chemical_formula_sum              "Fe6 Sb12"
_cell_length_a       6.4005
_cell_length_b       6.52185
_cell_length_c       35.3787
_cell_angle_alpha    119.548
_cell_angle_beta     90
_cell_angle_gamma    90

_space_group_name_H-M_alt    "P 1"
_space_group_IT_number       1

loop_
  _space_group_symop_operation_xyz
  'x, y, z'

loop_
  _atom_site_type_symbol
  _atom_site_label
  _atom_site_symmetry_multiplicity
  _atom_site_fract_x
  _atom_site_fract_y
  _atom_site_fract_z
  _atom_site_occupancy
  Fe  Fe1       1.0  0.00000  0.00000  0.40909  1.0000
  Fe  Fe2       1.0  0.50000  0.50000  0.40909  1.0000
  Sb  Sb1       1.0  0.64482  0.80352  0.39123  1.0000
  Sb  Sb2       1.0  0.35518  0.19648  0.42695  1.0000
  Sb  Sb3       1.0  0.14482  0.69648  0.42695  1.0000
  Sb  Sb4       1.0  0.85518  0.30352  0.39123  1.0000
  Fe  Fe3       1.0  0.00000  0.00000  0.50000  1.0000
  Fe  Fe4       1.0  0.50000  0.50000  0.50000  1.0000
  Sb  Sb5       1.0  0.64482  0.80352  0.48214  1.0000
  Sb  Sb6       1.0  0.35518  0.19648  0.51786  1.0000
  Sb  Sb7       1.0  0.14482  0.69648  0.51786  1.0000
  Sb  Sb8       1.0  0.85518  0.30352  0.48214  1.0000
  Fe  Fe5       1.0  0.00000  0.00000  0.59091  1.0000
  Fe  Fe6       1.0  0.50000  0.50000  0.59091  1.0000
  Sb  Sb9       1.0  0.64482  0.80352  0.57305  1.0000
  Sb  Sb10      1.0  0.35518  0.19648  0.60877  1.0000
  Sb  Sb11      1.0  0.14482  0.69648  0.60877  1.0000
  Sb  Sb12      1.0  0.85518  0.30352  0.57305  1.0000
