data_image0
_chemical_formula_structural       Al12Ru6Al12Ru6
_chemical_formula_sum              "Al24 Ru12"
_cell_length_a       8.38786
_cell_length_b       6.99433
_cell_length_c       30.9652
_cell_angle_alpha    71.5651
_cell_angle_beta     90
_cell_angle_gamma    90

_space_group_name_H-M_alt    "P 1"
_space_group_IT_number       1

loop_
  _space_group_symop_operation_xyz
  'x, y, z'

loop_
  _atom_site_type_symbol
  _atom_site_label
  _atom_site_symmetry_multiplicity
  _atom_site_fract_x
  _atom_site_fract_y
  _atom_site_fract_z
  _atom_site_occupancy
  Al  Al1       1.0  0.84018  0.66667  0.36905  1.0000
  Al  Al2       1.0  0.84018  0.33333  0.46429  1.0000
  Al  Al3       1.0  0.84018  0.00000  0.41667  1.0000
  Al  Al4       1.0  0.65982  0.66667  0.44048  1.0000
  Al  Al5       1.0  0.65982  0.33333  0.39286  1.0000
  Al  Al6       1.0  0.65982  0.00000  0.48810  1.0000
  Al  Al7       1.0  0.34018  0.66667  0.44048  1.0000
  Al  Al8       1.0  0.34018  0.33333  0.39286  1.0000
  Al  Al9       1.0  0.34018  0.00000  0.48810  1.0000
  Al  Al10      1.0  0.15982  0.66667  0.36905  1.0000
  Al  Al11      1.0  0.15982  0.33333  0.46429  1.0000
  Al  Al12      1.0  0.15982  0.00000  0.41667  1.0000
  Ru  Ru1       1.0  0.00000  0.66667  0.44048  1.0000
  Ru  Ru2       1.0  0.00000  0.33333  0.39286  1.0000
  Ru  Ru3       1.0  0.00000  0.00000  0.48810  1.0000
  Ru  Ru4       1.0  0.50000  0.66667  0.36905  1.0000
  Ru  Ru5       1.0  0.50000  0.33333  0.46429  1.0000
  Ru  Ru6       1.0  0.50000  0.00000  0.41667  1.0000
  Al  Al13      1.0  0.84018  0.66667  0.51190  1.0000
  Al  Al14      1.0  0.84018  0.33333  0.60714  1.0000
  Al  Al15      1.0  0.84018  0.00000  0.55952  1.0000
  Al  Al16      1.0  0.65982  0.66667  0.58333  1.0000
  Al  Al17      1.0  0.65982  0.33333  0.53571  1.0000
  Al  Al18      1.0  0.65982  0.00000  0.63095  1.0000
  Al  Al19      1.0  0.34018  0.66667  0.58333  1.0000
  Al  Al20      1.0  0.34018  0.33333  0.53571  1.0000
  Al  Al21      1.0  0.34018  0.00000  0.63095  1.0000
  Al  Al22      1.0  0.15982  0.66667  0.51190  1.0000
  Al  Al23      1.0  0.15982  0.33333  0.60714  1.0000
  Al  Al24      1.0  0.15982  0.00000  0.55952  1.0000
  Ru  Ru7       1.0  0.00000  0.66667  0.58333  1.0000
  Ru  Ru8       1.0  0.00000  0.33333  0.53571  1.0000
  Ru  Ru9       1.0  0.00000  0.00000  0.63095  1.0000
  Ru  Ru10      1.0  0.50000  0.66667  0.51190  1.0000
  Ru  Ru11      1.0  0.50000  0.33333  0.60714  1.0000
  Ru  Ru12      1.0  0.50000  0.00000  0.55952  1.0000
