data_image0
_chemical_formula_structural       Co4Sb8Co4Sb8
_chemical_formula_sum              "Co8 Sb16"
_cell_length_a       6.32868
_cell_length_b       6.47715
_cell_length_c       38.8629
_cell_angle_alpha    62.2722
_cell_angle_beta     90
_cell_angle_gamma    90

_space_group_name_H-M_alt    "P 1"
_space_group_IT_number       1

loop_
  _space_group_symop_operation_xyz
  'x, y, z'

loop_
  _atom_site_type_symbol
  _atom_site_label
  _atom_site_symmetry_multiplicity
  _atom_site_fract_x
  _atom_site_fract_y
  _atom_site_fract_z
  _atom_site_occupancy
  Co  Co1       1.0  0.00000  0.50000  0.40278  1.0000
  Co  Co2       1.0  0.00000  0.00000  0.48611  1.0000
  Co  Co3       1.0  0.50000  0.50000  0.48611  1.0000
  Co  Co4       1.0  0.50000  0.00000  0.40278  1.0000
  Sb  Sb1       1.0  0.64316  0.39947  0.38602  1.0000
  Sb  Sb2       1.0  0.64316  0.89947  0.46936  1.0000
  Sb  Sb3       1.0  0.35684  0.10053  0.33620  1.0000
  Sb  Sb4       1.0  0.35684  0.60053  0.41953  1.0000
  Sb  Sb5       1.0  0.85684  0.39947  0.46936  1.0000
  Sb  Sb6       1.0  0.85684  0.89947  0.38602  1.0000
  Sb  Sb7       1.0  0.14316  0.60053  0.33620  1.0000
  Sb  Sb8       1.0  0.14316  0.10053  0.41953  1.0000
  Co  Co5       1.0  0.00000  0.50000  0.56944  1.0000
  Co  Co6       1.0  0.00000  0.00000  0.65278  1.0000
  Co  Co7       1.0  0.50000  0.50000  0.65278  1.0000
  Co  Co8       1.0  0.50000  0.00000  0.56944  1.0000
  Sb  Sb9       1.0  0.64316  0.39947  0.55269  1.0000
  Sb  Sb10      1.0  0.64316  0.89947  0.63602  1.0000
  Sb  Sb11      1.0  0.35684  0.10053  0.50287  1.0000
  Sb  Sb12      1.0  0.35684  0.60053  0.58620  1.0000
  Sb  Sb13      1.0  0.85684  0.39947  0.63602  1.0000
  Sb  Sb14      1.0  0.85684  0.89947  0.55269  1.0000
  Sb  Sb15      1.0  0.14316  0.60053  0.50287  1.0000
  Sb  Sb16      1.0  0.14316  0.10053  0.58620  1.0000
