data_image0
_chemical_formula_structural       Al4Au4Al4Au4Al4Au4
_chemical_formula_sum              "Al12 Au12"
_cell_length_a       6.36637
_cell_length_b       7.16182
_cell_length_c       33.6384
_cell_angle_alpha    61.9858
_cell_angle_beta     90
_cell_angle_gamma    87.7999

_space_group_name_H-M_alt    "P 1"
_space_group_IT_number       1

loop_
  _space_group_symop_operation_xyz
  'x, y, z'

loop_
  _atom_site_type_symbol
  _atom_site_label
  _atom_site_symmetry_multiplicity
  _atom_site_fract_x
  _atom_site_fract_y
  _atom_site_fract_z
  _atom_site_occupancy
  Al  Al1       1.0  0.82029  0.95044  0.42996  1.0000
  Al  Al2       1.0  0.17971  0.04956  0.37004  1.0000
  Al  Al3       1.0  0.31934  0.57839  0.36716  1.0000
  Al  Al4       1.0  0.68066  0.42161  0.43284  1.0000
  Au  Au1       1.0  0.47784  0.19235  0.40576  1.0000
  Au  Au2       1.0  0.52216  0.80765  0.39424  1.0000
  Au  Au3       1.0  0.00318  0.31142  0.39386  1.0000
  Au  Au4       1.0  0.99682  0.68858  0.40614  1.0000
  Al  Al5       1.0  0.82029  0.95044  0.52996  1.0000
  Al  Al6       1.0  0.17971  0.04956  0.47004  1.0000
  Al  Al7       1.0  0.31934  0.57839  0.46716  1.0000
  Al  Al8       1.0  0.68066  0.42161  0.53284  1.0000
  Au  Au5       1.0  0.47784  0.19235  0.50576  1.0000
  Au  Au6       1.0  0.52216  0.80765  0.49424  1.0000
  Au  Au7       1.0  0.00318  0.31142  0.49386  1.0000
  Au  Au8       1.0  0.99682  0.68858  0.50614  1.0000
  Al  Al9       1.0  0.82029  0.95044  0.62996  1.0000
  Al  Al10      1.0  0.17971  0.04956  0.57004  1.0000
  Al  Al11      1.0  0.31934  0.57839  0.56716  1.0000
  Al  Al12      1.0  0.68066  0.42161  0.63284  1.0000
  Au  Au9       1.0  0.47784  0.19235  0.60576  1.0000
  Au  Au10      1.0  0.52216  0.80765  0.59424  1.0000
  Au  Au11      1.0  0.00318  0.31142  0.59386  1.0000
  Au  Au12      1.0  0.99682  0.68858  0.60614  1.0000
