data_image0
_chemical_formula_structural       As12Fe12Sb12
_chemical_formula_sum              "As12 Fe12 Sb12"
_cell_length_a       8.26356
_cell_length_b       8.79415
_cell_length_c       31.1988
_cell_angle_alpha    94.6456
_cell_angle_beta     91.7999
_cell_angle_gamma    96.3979

_space_group_name_H-M_alt    "P 1"
_space_group_IT_number       1

loop_
  _space_group_symop_operation_xyz
  'x, y, z'

loop_
  _atom_site_type_symbol
  _atom_site_label
  _atom_site_symmetry_multiplicity
  _atom_site_fract_x
  _atom_site_fract_y
  _atom_site_fract_z
  _atom_site_occupancy
  As  As1       1.0  0.04944  0.02099  0.37139  1.0000
  As  As2       1.0  0.54944  0.47554  0.41685  1.0000
  As  As3       1.0  0.85761  0.25569  0.44486  1.0000
  As  As4       1.0  0.35761  0.80115  0.39941  1.0000
  As  As5       1.0  0.04944  0.93008  0.46230  1.0000
  As  As6       1.0  0.54944  0.38463  0.50776  1.0000
  As  As7       1.0  0.85761  0.16478  0.53577  1.0000
  As  As8       1.0  0.35761  0.71024  0.49032  1.0000
  As  As9       1.0  0.04944  0.83918  0.55321  1.0000
  As  As10      1.0  0.54944  0.29372  0.59867  1.0000
  As  As11      1.0  0.85761  0.07387  0.62668  1.0000
  As  As12      1.0  0.35761  0.61933  0.58123  1.0000
  Fe  Fe1       1.0  0.79066  0.10311  0.37960  1.0000
  Fe  Fe2       1.0  0.29066  0.55766  0.42506  1.0000
  Fe  Fe3       1.0  0.26729  0.03640  0.42293  1.0000
  Fe  Fe4       1.0  0.76729  0.58186  0.37748  1.0000
  Fe  Fe5       1.0  0.79066  0.01220  0.47051  1.0000
  Fe  Fe6       1.0  0.29066  0.46675  0.51597  1.0000
  Fe  Fe7       1.0  0.26729  0.94549  0.51384  1.0000
  Fe  Fe8       1.0  0.76729  0.49095  0.46839  1.0000
  Fe  Fe9       1.0  0.79066  0.92129  0.56142  1.0000
  Fe  Fe10      1.0  0.29066  0.37584  0.60688  1.0000
  Fe  Fe11      1.0  0.26729  0.85458  0.60475  1.0000
  Fe  Fe12      1.0  0.76729  0.40004  0.55930  1.0000
  Sb  Sb1       1.0  0.00663  0.63158  0.43245  1.0000
  Sb  Sb2       1.0  0.50663  0.17704  0.38700  1.0000
  Sb  Sb3       1.0  0.18597  0.29462  0.44876  1.0000
  Sb  Sb4       1.0  0.68597  0.84007  0.40330  1.0000
  Sb  Sb5       1.0  0.00663  0.54067  0.52336  1.0000
  Sb  Sb6       1.0  0.50663  0.08613  0.47791  1.0000
  Sb  Sb7       1.0  0.18597  0.20371  0.53966  1.0000
  Sb  Sb8       1.0  0.68597  0.74916  0.49421  1.0000
  Sb  Sb9       1.0  0.00663  0.44976  0.61427  1.0000
  Sb  Sb10      1.0  0.50663  0.99522  0.56882  1.0000
  Sb  Sb11      1.0  0.18597  0.11280  0.63057  1.0000
  Sb  Sb12      1.0  0.68597  0.65825  0.58512  1.0000
