data_image0
_chemical_formula_structural       Sb8Ru4Sb8Ru4Sb8Ru4
_chemical_formula_sum              "Sb24 Ru12"
_cell_length_a       6.7473
_cell_length_b       13.6892
_cell_length_c       34.999
_cell_angle_alpha    103.44
_cell_angle_beta     118.135
_cell_angle_gamma    83.7076

_space_group_name_H-M_alt    "P 1"
_space_group_IT_number       1

loop_
  _space_group_symop_operation_xyz
  'x, y, z'

loop_
  _atom_site_type_symbol
  _atom_site_label
  _atom_site_symmetry_multiplicity
  _atom_site_fract_x
  _atom_site_fract_y
  _atom_site_fract_z
  _atom_site_occupancy
  Sb  Sb1       1.0  0.68265  0.07116  0.38292  1.0000
  Sb  Sb2       1.0  0.68265  0.57116  0.42838  1.0000
  Sb  Sb3       1.0  0.31735  0.42884  0.38223  1.0000
  Sb  Sb4       1.0  0.31735  0.92884  0.42768  1.0000
  Sb  Sb5       1.0  0.18265  0.17884  0.39271  1.0000
  Sb  Sb6       1.0  0.18265  0.67884  0.43817  1.0000
  Sb  Sb7       1.0  0.81735  0.32116  0.37244  1.0000
  Sb  Sb8       1.0  0.81735  0.82116  0.41789  1.0000
  Ru  Ru1       1.0  0.50000  0.25000  0.38258  1.0000
  Ru  Ru2       1.0  0.50000  0.75000  0.42803  1.0000
  Ru  Ru3       1.0  0.00000  0.00000  0.45076  1.0000
  Ru  Ru4       1.0  0.00000  0.50000  0.40530  1.0000
  Sb  Sb9       1.0  0.68265  0.07116  0.47383  1.0000
  Sb  Sb10      1.0  0.68265  0.57116  0.51929  1.0000
  Sb  Sb11      1.0  0.31735  0.42884  0.47314  1.0000
  Sb  Sb12      1.0  0.31735  0.92884  0.51859  1.0000
  Sb  Sb13      1.0  0.18265  0.17884  0.48362  1.0000
  Sb  Sb14      1.0  0.18265  0.67884  0.52907  1.0000
  Sb  Sb15      1.0  0.81735  0.32116  0.46335  1.0000
  Sb  Sb16      1.0  0.81735  0.82116  0.50880  1.0000
  Ru  Ru5       1.0  0.50000  0.25000  0.47348  1.0000
  Ru  Ru6       1.0  0.50000  0.75000  0.51894  1.0000
  Ru  Ru7       1.0  0.00000  0.00000  0.54167  1.0000
  Ru  Ru8       1.0  0.00000  0.50000  0.49621  1.0000
  Sb  Sb17      1.0  0.68265  0.07116  0.56474  1.0000
  Sb  Sb18      1.0  0.68265  0.57116  0.61019  1.0000
  Sb  Sb19      1.0  0.31735  0.42884  0.56405  1.0000
  Sb  Sb20      1.0  0.31735  0.92884  0.60950  1.0000
  Sb  Sb21      1.0  0.18265  0.17884  0.57453  1.0000
  Sb  Sb22      1.0  0.18265  0.67884  0.61998  1.0000
  Sb  Sb23      1.0  0.81735  0.32116  0.55426  1.0000
  Sb  Sb24      1.0  0.81735  0.82116  0.59971  1.0000
  Ru  Ru9       1.0  0.50000  0.25000  0.56439  1.0000
  Ru  Ru10      1.0  0.50000  0.75000  0.60985  1.0000
  Ru  Ru11      1.0  0.00000  0.00000  0.63258  1.0000
  Ru  Ru12      1.0  0.00000  0.50000  0.58712  1.0000
