data_image0
_chemical_formula_structural       Ag4Al14Ca6
_chemical_formula_sum              "Ag4 Al14 Ca6"
_cell_length_a       5.57167
_cell_length_b       9.42378
_cell_length_c       33.3653
_cell_angle_alpha    94.875
_cell_angle_beta     90
_cell_angle_gamma    107.195

_space_group_name_H-M_alt    "P 1"
_space_group_IT_number       1

loop_
  _space_group_symop_operation_xyz
  'x, y, z'

loop_
  _atom_site_type_symbol
  _atom_site_label
  _atom_site_symmetry_multiplicity
  _atom_site_fract_x
  _atom_site_fract_y
  _atom_site_fract_z
  _atom_site_occupancy
  Ag  Ag1       1.0  0.53310  0.60787  0.60086  1.0000
  Ag  Ag2       1.0  0.00261  0.54689  0.55391  1.0000
  Ag  Ag3       1.0  0.96167  0.46501  0.45800  1.0000
  Ag  Ag4       1.0  0.43118  0.40403  0.41105  1.0000
  Al  Al1       1.0  0.67188  0.88543  0.63791  1.0000
  Al  Al2       1.0  0.89015  0.81267  0.56515  1.0000
  Al  Al3       1.0  0.76786  0.07738  0.57738  1.0000
  Al  Al4       1.0  0.86383  0.26933  0.51685  1.0000
  Al  Al5       1.0  0.38085  0.81267  0.56515  1.0000
  Al  Al6       1.0  0.64556  0.34209  0.58961  1.0000
  Al  Al7       1.0  0.15486  0.34209  0.58961  1.0000
  Al  Al8       1.0  0.10045  0.74257  0.49505  1.0000
  Al  Al9       1.0  0.31872  0.66981  0.42229  1.0000
  Al  Al10      1.0  0.19643  0.93452  0.43452  1.0000
  Al  Al11      1.0  0.29241  0.12648  0.37400  1.0000
  Al  Al12      1.0  0.80942  0.66981  0.42229  1.0000
  Al  Al13      1.0  0.07413  0.19923  0.44675  1.0000
  Al  Al14      1.0  0.58343  0.19923  0.44675  1.0000
  Ca  Ca1       1.0  0.48214  0.50595  0.50595  1.0000
  Ca  Ca2       1.0  0.27744  0.09655  0.52642  1.0000
  Ca  Ca3       1.0  0.25827  0.05821  0.62834  1.0000
  Ca  Ca4       1.0  0.91071  0.36310  0.36310  1.0000
  Ca  Ca5       1.0  0.70601  0.95369  0.38357  1.0000
  Ca  Ca6       1.0  0.68684  0.91535  0.48548  1.0000
