data_image0
_chemical_formula_structural       Nb3Rh3Nb3Rh3Nb3Rh3
_chemical_formula_sum              "Nb9 Rh9"
_cell_length_a       4.84864
_cell_length_b       6.99233
_cell_length_c       31.0872
_cell_angle_alpha    90
_cell_angle_beta     90
_cell_angle_gamma    104.224

_space_group_name_H-M_alt    "P 1"
_space_group_IT_number       1

loop_
  _space_group_symop_operation_xyz
  'x, y, z'

loop_
  _atom_site_type_symbol
  _atom_site_label
  _atom_site_symmetry_multiplicity
  _atom_site_fract_x
  _atom_site_fract_y
  _atom_site_fract_z
  _atom_site_occupancy
  Nb  Nb1       1.0  0.74801  0.83573  0.43182  1.0000
  Nb  Nb2       1.0  0.00000  0.50000  0.43182  1.0000
  Nb  Nb3       1.0  0.25199  0.16427  0.43182  1.0000
  Rh  Rh1       1.0  0.50000  0.50000  0.38636  1.0000
  Rh  Rh2       1.0  0.25669  0.83223  0.38636  1.0000
  Rh  Rh3       1.0  0.74331  0.16777  0.38636  1.0000
  Nb  Nb4       1.0  0.74801  0.83573  0.52273  1.0000
  Nb  Nb5       1.0  0.00000  0.50000  0.52273  1.0000
  Nb  Nb6       1.0  0.25199  0.16427  0.52273  1.0000
  Rh  Rh4       1.0  0.50000  0.50000  0.47727  1.0000
  Rh  Rh5       1.0  0.25669  0.83223  0.47727  1.0000
  Rh  Rh6       1.0  0.74331  0.16777  0.47727  1.0000
  Nb  Nb7       1.0  0.74801  0.83573  0.61364  1.0000
  Nb  Nb8       1.0  0.00000  0.50000  0.61364  1.0000
  Nb  Nb9       1.0  0.25199  0.16427  0.61364  1.0000
  Rh  Rh7       1.0  0.50000  0.50000  0.56818  1.0000
  Rh  Rh8       1.0  0.25669  0.83223  0.56818  1.0000
  Rh  Rh9       1.0  0.74331  0.16777  0.56818  1.0000
