data_image0
_chemical_formula_structural       Fe4Sb4As4Fe4Sb4As4
_chemical_formula_sum              "Fe8 Sb8 As8"
_cell_length_a       3.00845
_cell_length_b       13.5227
_cell_length_c       32.9149
_cell_angle_alpha    113.933
_cell_angle_beta     90
_cell_angle_gamma    90

_space_group_name_H-M_alt    "P 1"
_space_group_IT_number       1

loop_
  _space_group_symop_operation_xyz
  'x, y, z'

loop_
  _atom_site_type_symbol
  _atom_site_label
  _atom_site_symmetry_multiplicity
  _atom_site_fract_x
  _atom_site_fract_y
  _atom_site_fract_z
  _atom_site_occupancy
  Fe  Fe1       1.0  0.00000  0.15397  0.39239  1.0000
  Fe  Fe2       1.0  0.00000  0.65397  0.47572  1.0000
  Fe  Fe3       1.0  0.50000  0.40397  0.35851  1.0000
  Fe  Fe4       1.0  0.50000  0.90397  0.44185  1.0000
  Sb  Sb1       1.0  0.00000  0.47130  0.47906  1.0000
  Sb  Sb2       1.0  0.00000  0.97130  0.39573  1.0000
  Sb  Sb3       1.0  0.50000  0.22130  0.46095  1.0000
  Sb  Sb4       1.0  0.50000  0.72130  0.37762  1.0000
  As  As1       1.0  0.00000  0.32853  0.39341  1.0000
  As  As2       1.0  0.00000  0.82853  0.47674  1.0000
  As  As3       1.0  0.50000  0.07853  0.33235  1.0000
  As  As4       1.0  0.50000  0.57853  0.41568  1.0000
  Fe  Fe5       1.0  0.00000  0.15397  0.55905  1.0000
  Fe  Fe6       1.0  0.00000  0.65397  0.64239  1.0000
  Fe  Fe7       1.0  0.50000  0.40397  0.52518  1.0000
  Fe  Fe8       1.0  0.50000  0.90397  0.60851  1.0000
  Sb  Sb5       1.0  0.00000  0.47130  0.64573  1.0000
  Sb  Sb6       1.0  0.00000  0.97130  0.56239  1.0000
  Sb  Sb7       1.0  0.50000  0.22130  0.62762  1.0000
  Sb  Sb8       1.0  0.50000  0.72130  0.54428  1.0000
  As  As5       1.0  0.00000  0.32853  0.56007  1.0000
  As  As6       1.0  0.00000  0.82853  0.64341  1.0000
  As  As7       1.0  0.50000  0.07853  0.49902  1.0000
  As  As8       1.0  0.50000  0.57853  0.58235  1.0000
