data_image0
_chemical_formula_structural       Ca2Cu10Ca2Cu10
_chemical_formula_sum              "Ca4 Cu20"
_cell_length_a       5.03871
_cell_length_b       10.8325
_cell_length_c       31.7869
_cell_angle_alpha    68.4815
_cell_angle_beta     90
_cell_angle_gamma    62.2801

_space_group_name_H-M_alt    "P 1"
_space_group_IT_number       1

loop_
  _space_group_symop_operation_xyz
  'x, y, z'

loop_
  _atom_site_type_symbol
  _atom_site_label
  _atom_site_symmetry_multiplicity
  _atom_site_fract_x
  _atom_site_fract_y
  _atom_site_fract_z
  _atom_site_occupancy
  Ca  Ca1       1.0  0.00000  0.50000  0.42708  1.0000
  Ca  Ca2       1.0  0.00000  0.00000  0.48958  1.0000
  Cu  Cu1       1.0  0.66667  0.33333  0.44792  1.0000
  Cu  Cu2       1.0  0.66667  0.83333  0.38542  1.0000
  Cu  Cu3       1.0  0.33333  0.16667  0.46875  1.0000
  Cu  Cu4       1.0  0.33333  0.66667  0.40625  1.0000
  Cu  Cu5       1.0  0.00000  0.25000  0.39583  1.0000
  Cu  Cu6       1.0  0.00000  0.75000  0.45833  1.0000
  Cu  Cu7       1.0  0.50000  0.25000  0.39583  1.0000
  Cu  Cu8       1.0  0.50000  0.75000  0.45833  1.0000
  Cu  Cu9       1.0  0.50000  0.50000  0.48958  1.0000
  Cu  Cu10      1.0  0.50000  0.00000  0.42708  1.0000
  Ca  Ca3       1.0  0.00000  0.50000  0.55208  1.0000
  Ca  Ca4       1.0  0.00000  0.00000  0.61458  1.0000
  Cu  Cu11      1.0  0.66667  0.33333  0.57292  1.0000
  Cu  Cu12      1.0  0.66667  0.83333  0.51042  1.0000
  Cu  Cu13      1.0  0.33333  0.16667  0.59375  1.0000
  Cu  Cu14      1.0  0.33333  0.66667  0.53125  1.0000
  Cu  Cu15      1.0  0.00000  0.25000  0.52083  1.0000
  Cu  Cu16      1.0  0.00000  0.75000  0.58333  1.0000
  Cu  Cu17      1.0  0.50000  0.25000  0.52083  1.0000
  Cu  Cu18      1.0  0.50000  0.75000  0.58333  1.0000
  Cu  Cu19      1.0  0.50000  0.50000  0.61458  1.0000
  Cu  Cu20      1.0  0.50000  0.00000  0.55208  1.0000
