data_image0
_chemical_formula_structural       Ga9Ni15
_chemical_formula_sum              "Ga9 Ni15"
_cell_length_a       5.00568
_cell_length_b       6.20896
_cell_length_c       35.5605
_cell_angle_alpha    92.0059
_cell_angle_beta     93.1528
_cell_angle_gamma    94.5166

_space_group_name_H-M_alt    "P 1"
_space_group_IT_number       1

loop_
  _space_group_symop_operation_xyz
  'x, y, z'

loop_
  _atom_site_type_symbol
  _atom_site_label
  _atom_site_symmetry_multiplicity
  _atom_site_fract_x
  _atom_site_fract_y
  _atom_site_fract_z
  _atom_site_occupancy
  Ga  Ga1       1.0  0.00000  0.04167  0.42708  1.0000
  Ga  Ga2       1.0  0.00000  0.37500  0.59375  1.0000
  Ga  Ga3       1.0  0.00000  0.70833  0.51042  1.0000
  Ga  Ga4       1.0  0.71982  0.72845  0.57543  1.0000
  Ga  Ga5       1.0  0.71982  0.06179  0.49210  1.0000
  Ga  Ga6       1.0  0.71982  0.39512  0.40876  1.0000
  Ga  Ga7       1.0  0.28018  0.35488  0.52874  1.0000
  Ga  Ga8       1.0  0.28018  0.68821  0.44540  1.0000
  Ga  Ga9       1.0  0.28018  0.02155  0.61207  1.0000
  Ni  Ni1       1.0  0.50000  0.37500  0.46875  1.0000
  Ni  Ni2       1.0  0.50000  0.70833  0.38542  1.0000
  Ni  Ni3       1.0  0.50000  0.04167  0.55208  1.0000
  Ni  Ni4       1.0  0.50000  0.70833  0.51042  1.0000
  Ni  Ni5       1.0  0.50000  0.04167  0.42708  1.0000
  Ni  Ni6       1.0  0.50000  0.37500  0.59375  1.0000
  Ni  Ni7       1.0  0.00000  0.37500  0.46875  1.0000
  Ni  Ni8       1.0  0.00000  0.70833  0.38542  1.0000
  Ni  Ni9       1.0  0.00000  0.04167  0.55208  1.0000
  Ni  Ni10      1.0  0.77236  0.38990  0.53311  1.0000
  Ni  Ni11      1.0  0.77236  0.72324  0.44978  1.0000
  Ni  Ni12      1.0  0.77236  0.05657  0.61645  1.0000
  Ni  Ni13      1.0  0.22764  0.02676  0.48772  1.0000
  Ni  Ni14      1.0  0.22764  0.36010  0.40439  1.0000
  Ni  Ni15      1.0  0.22764  0.69343  0.57105  1.0000
