data_image0
_chemical_formula_structural       Si3Sn3Pt15
_chemical_formula_sum              "Si3 Sn3 Pt15"
_cell_length_a       3.96075
_cell_length_b       10.5796
_cell_length_c       32.2153
_cell_angle_alpha    77.9407
_cell_angle_beta     90
_cell_angle_gamma    90

_space_group_name_H-M_alt    "P 1"
_space_group_IT_number       1

loop_
  _space_group_symop_operation_xyz
  'x, y, z'

loop_
  _atom_site_type_symbol
  _atom_site_label
  _atom_site_symmetry_multiplicity
  _atom_site_fract_x
  _atom_site_fract_y
  _atom_site_fract_z
  _atom_site_occupancy
  Si  Si1       1.0  0.00000  0.83333  0.51786  1.0000
  Si  Si2       1.0  0.00000  0.16667  0.43452  1.0000
  Si  Si3       1.0  0.00000  0.50000  0.60119  1.0000
  Sn  Sn1       1.0  0.50000  0.50000  0.47619  1.0000
  Sn  Sn2       1.0  0.50000  0.83333  0.39286  1.0000
  Sn  Sn3       1.0  0.50000  0.16667  0.55952  1.0000
  Pt  Pt1       1.0  0.50000  0.76534  0.48386  1.0000
  Pt  Pt2       1.0  0.50000  0.09867  0.40053  1.0000
  Pt  Pt3       1.0  0.50000  0.43200  0.56719  1.0000
  Pt  Pt4       1.0  0.50000  0.90133  0.55186  1.0000
  Pt  Pt5       1.0  0.50000  0.23466  0.46852  1.0000
  Pt  Pt6       1.0  0.50000  0.56800  0.38519  1.0000
  Pt  Pt7       1.0  0.00000  0.59867  0.52553  1.0000
  Pt  Pt8       1.0  0.00000  0.93200  0.44219  1.0000
  Pt  Pt9       1.0  0.00000  0.26534  0.60886  1.0000
  Pt  Pt10      1.0  0.00000  0.73466  0.59352  1.0000
  Pt  Pt11      1.0  0.00000  0.06800  0.51019  1.0000
  Pt  Pt12      1.0  0.00000  0.40133  0.42686  1.0000
  Pt  Pt13      1.0  0.00000  0.66667  0.43452  1.0000
  Pt  Pt14      1.0  0.00000  0.00000  0.60119  1.0000
  Pt  Pt15      1.0  0.00000  0.33333  0.51786  1.0000
