data_image0
_chemical_formula_structural       In3Cu3Pt6In3Cu3Pt6
_chemical_formula_sum              "In6 Cu6 Pt12"
_cell_length_a       5.68151
_cell_length_b       5.51252
_cell_length_c       34.1056
_cell_angle_alpha    92.8836
_cell_angle_beta     90
_cell_angle_gamma    58.9807

_space_group_name_H-M_alt    "P 1"
_space_group_IT_number       1

loop_
  _space_group_symop_operation_xyz
  'x, y, z'

loop_
  _atom_site_type_symbol
  _atom_site_label
  _atom_site_symmetry_multiplicity
  _atom_site_fract_x
  _atom_site_fract_y
  _atom_site_fract_z
  _atom_site_occupancy
  In  In1       1.0  0.83333  0.33333  0.40000  1.0000
  In  In2       1.0  0.16667  0.66667  0.33333  1.0000
  In  In3       1.0  0.50000  0.00000  0.46667  1.0000
  Cu  Cu1       1.0  0.66667  0.66667  0.33333  1.0000
  Cu  Cu2       1.0  0.00000  0.00000  0.46667  1.0000
  Cu  Cu3       1.0  0.33333  0.33333  0.40000  1.0000
  Pt  Pt1       1.0  0.33333  0.83333  0.40000  1.0000
  Pt  Pt2       1.0  0.66667  0.16667  0.33333  1.0000
  Pt  Pt3       1.0  0.00000  0.50000  0.46667  1.0000
  Pt  Pt4       1.0  0.83333  0.83333  0.40000  1.0000
  Pt  Pt5       1.0  0.16667  0.16667  0.33333  1.0000
  Pt  Pt6       1.0  0.50000  0.50000  0.46667  1.0000
  In  In4       1.0  0.83333  0.33333  0.60000  1.0000
  In  In5       1.0  0.16667  0.66667  0.53333  1.0000
  In  In6       1.0  0.50000  0.00000  0.66667  1.0000
  Cu  Cu4       1.0  0.66667  0.66667  0.53333  1.0000
  Cu  Cu5       1.0  0.00000  0.00000  0.66667  1.0000
  Cu  Cu6       1.0  0.33333  0.33333  0.60000  1.0000
  Pt  Pt7       1.0  0.33333  0.83333  0.60000  1.0000
  Pt  Pt8       1.0  0.66667  0.16667  0.53333  1.0000
  Pt  Pt9       1.0  0.00000  0.50000  0.66667  1.0000
  Pt  Pt10      1.0  0.83333  0.83333  0.60000  1.0000
  Pt  Pt11      1.0  0.16667  0.16667  0.53333  1.0000
  Pt  Pt12      1.0  0.50000  0.50000  0.66667  1.0000
