data_image0
_chemical_formula_structural       Al6Ni10
_chemical_formula_sum              "Al6 Ni10"
_cell_length_a       3.71272
_cell_length_b       4.95846
_cell_length_c       39.3323
_cell_angle_alpha    90.2808
_cell_angle_beta     90
_cell_angle_gamma    90

_space_group_name_H-M_alt    "P 1"
_space_group_IT_number       1

loop_
  _space_group_symop_operation_xyz
  'x, y, z'

loop_
  _atom_site_type_symbol
  _atom_site_label
  _atom_site_symmetry_multiplicity
  _atom_site_fract_x
  _atom_site_fract_y
  _atom_site_fract_z
  _atom_site_occupancy
  Al  Al1       1.0  0.00000  0.70060  0.57493  1.0000
  Al  Al2       1.0  0.00000  0.82560  0.44993  1.0000
  Al  Al3       1.0  0.00000  0.33065  0.39382  1.0000
  Al  Al4       1.0  0.00000  0.20565  0.51882  1.0000
  Al  Al5       1.0  0.50000  0.51562  0.48438  1.0000
  Al  Al6       1.0  0.50000  0.39062  0.60938  1.0000
  Ni  Ni1       1.0  0.00000  0.83829  0.38761  1.0000
  Ni  Ni2       1.0  0.00000  0.71329  0.51261  1.0000
  Ni  Ni3       1.0  0.00000  0.31796  0.45614  1.0000
  Ni  Ni4       1.0  0.00000  0.19296  0.58114  1.0000
  Ni  Ni5       1.0  0.50000  0.89062  0.60938  1.0000
  Ni  Ni6       1.0  0.50000  0.01562  0.48438  1.0000
  Ni  Ni7       1.0  0.50000  0.45313  0.54688  1.0000
  Ni  Ni8       1.0  0.50000  0.57812  0.42188  1.0000
  Ni  Ni9       1.0  0.50000  0.07812  0.42188  1.0000
  Ni  Ni10      1.0  0.50000  0.95312  0.54688  1.0000
