data_image0
_chemical_formula_structural       Co6Sb6Co6Sb6
_chemical_formula_sum              "Co12 Sb12"
_cell_length_a       5.13152
_cell_length_b       10.1037
_cell_length_c       30.5508
_cell_angle_alpha    79.1066
_cell_angle_beta     90
_cell_angle_gamma    90

_space_group_name_H-M_alt    "P 1"
_space_group_IT_number       1

loop_
  _space_group_symop_operation_xyz
  'x, y, z'

loop_
  _atom_site_type_symbol
  _atom_site_label
  _atom_site_symmetry_multiplicity
  _atom_site_fract_x
  _atom_site_fract_y
  _atom_site_fract_z
  _atom_site_occupancy
  Co  Co1       1.0  0.00000  0.66667  0.44792  1.0000
  Co  Co2       1.0  0.00000  0.33333  0.40625  1.0000
  Co  Co3       1.0  0.00000  0.00000  0.48958  1.0000
  Co  Co4       1.0  0.50000  0.66667  0.44792  1.0000
  Co  Co5       1.0  0.50000  0.33333  0.40625  1.0000
  Co  Co6       1.0  0.50000  0.00000  0.48958  1.0000
  Sb  Sb1       1.0  0.75000  0.55556  0.39236  1.0000
  Sb  Sb2       1.0  0.75000  0.22222  0.47569  1.0000
  Sb  Sb3       1.0  0.75000  0.88889  0.43403  1.0000
  Sb  Sb4       1.0  0.25000  0.77778  0.37847  1.0000
  Sb  Sb5       1.0  0.25000  0.44444  0.46181  1.0000
  Sb  Sb6       1.0  0.25000  0.11111  0.42014  1.0000
  Co  Co7       1.0  0.00000  0.66667  0.57292  1.0000
  Co  Co8       1.0  0.00000  0.33333  0.53125  1.0000
  Co  Co9       1.0  0.00000  0.00000  0.61458  1.0000
  Co  Co10      1.0  0.50000  0.66667  0.57292  1.0000
  Co  Co11      1.0  0.50000  0.33333  0.53125  1.0000
  Co  Co12      1.0  0.50000  0.00000  0.61458  1.0000
  Sb  Sb7       1.0  0.75000  0.55556  0.51736  1.0000
  Sb  Sb8       1.0  0.75000  0.22222  0.60069  1.0000
  Sb  Sb9       1.0  0.75000  0.88889  0.55903  1.0000
  Sb  Sb10      1.0  0.25000  0.77778  0.50347  1.0000
  Sb  Sb11      1.0  0.25000  0.44444  0.58681  1.0000
  Sb  Sb12      1.0  0.25000  0.11111  0.54514  1.0000
