data_image0
_chemical_formula_structural       Au12Pd4
_chemical_formula_sum              "Au12 Pd4"
_cell_length_a       4.90495
_cell_length_b       5.72042
_cell_length_c       37.24
_cell_angle_alpha    90
_cell_angle_beta     93.3267
_cell_angle_gamma    90

_space_group_name_H-M_alt    "P 1"
_space_group_IT_number       1

loop_
  _space_group_symop_operation_xyz
  'x, y, z'

loop_
  _atom_site_type_symbol
  _atom_site_label
  _atom_site_symmetry_multiplicity
  _atom_site_fract_x
  _atom_site_fract_y
  _atom_site_fract_z
  _atom_site_occupancy
  Au  Au1       1.0  0.90625  0.75000  0.46875  1.0000
  Au  Au2       1.0  0.59375  0.25000  0.53125  1.0000
  Au  Au3       1.0  0.21875  0.25000  0.40625  1.0000
  Au  Au4       1.0  0.28125  0.75000  0.59375  1.0000
  Au  Au5       1.0  0.90625  0.25000  0.46875  1.0000
  Au  Au6       1.0  0.59375  0.75000  0.53125  1.0000
  Au  Au7       1.0  0.21875  0.75000  0.40625  1.0000
  Au  Au8       1.0  0.28125  0.25000  0.59375  1.0000
  Au  Au9       1.0  0.40625  0.50000  0.46875  1.0000
  Au  Au10      1.0  0.09375  0.00000  0.53125  1.0000
  Au  Au11      1.0  0.71875  0.00000  0.40625  1.0000
  Au  Au12      1.0  0.78125  0.50000  0.59375  1.0000
  Pd  Pd1       1.0  0.71875  0.50000  0.40625  1.0000
  Pd  Pd2       1.0  0.40625  0.00000  0.46875  1.0000
  Pd  Pd3       1.0  0.78125  0.00000  0.59375  1.0000
  Pd  Pd4       1.0  0.09375  0.50000  0.53125  1.0000
