data_image0
_chemical_formula_structural       H8V16
_chemical_formula_sum              "H8 V16"
_cell_length_a       4.37743
_cell_length_b       4.86083
_cell_length_c       33.163
_cell_angle_alpha    86.2244
_cell_angle_beta     88.0706
_cell_angle_gamma    70.4015

_space_group_name_H-M_alt    "P 1"
_space_group_IT_number       1

loop_
  _space_group_symop_operation_xyz
  'x, y, z'

loop_
  _atom_site_type_symbol
  _atom_site_label
  _atom_site_symmetry_multiplicity
  _atom_site_fract_x
  _atom_site_fract_y
  _atom_site_fract_z
  _atom_site_occupancy
  H   H1        1.0  0.60417  0.79167  0.39583  1.0000
  H   H2        1.0  0.14583  0.70833  0.35417  1.0000
  H   H3        1.0  0.52083  0.95833  0.47917  1.0000
  H   H4        1.0  0.06250  0.87500  0.43750  1.0000
  H   H5        1.0  0.43750  0.12500  0.56250  1.0000
  H   H6        1.0  0.97917  0.04167  0.52083  1.0000
  H   H7        1.0  0.35417  0.29167  0.64583  1.0000
  H   H8        1.0  0.89583  0.20833  0.60417  1.0000
  V   V1        1.0  0.21155  0.03769  0.38465  1.0000
  V   V2        1.0  0.75322  0.95435  0.34298  1.0000
  V   V3        1.0  0.53845  0.46231  0.36535  1.0000
  V   V4        1.0  0.99678  0.54565  0.40702  1.0000
  V   V5        1.0  0.12822  0.20435  0.46798  1.0000
  V   V6        1.0  0.66989  0.12102  0.42632  1.0000
  V   V7        1.0  0.45511  0.62898  0.44868  1.0000
  V   V8        1.0  0.91345  0.71231  0.49035  1.0000
  V   V9        1.0  0.04489  0.37102  0.55132  1.0000
  V   V10       1.0  0.58655  0.28769  0.50965  1.0000
  V   V11       1.0  0.37178  0.79565  0.53202  1.0000
  V   V12       1.0  0.83011  0.87898  0.57368  1.0000
  V   V13       1.0  0.96155  0.53769  0.63465  1.0000
  V   V14       1.0  0.50322  0.45435  0.59298  1.0000
  V   V15       1.0  0.28845  0.96231  0.61535  1.0000
  V   V16       1.0  0.74678  0.04565  0.65702  1.0000
