data_image0
_chemical_formula_structural       Sb16Rh8
_chemical_formula_sum              "Sb16 Rh8"
_cell_length_a       6.68958
_cell_length_b       9.31163
_cell_length_c       37.2465
_cell_angle_alpha    90.4779
_cell_angle_beta     108.382
_cell_angle_gamma    71.6179

_space_group_name_H-M_alt    "P 1"
_space_group_IT_number       1

loop_
  _space_group_symop_operation_xyz
  'x, y, z'

loop_
  _atom_site_type_symbol
  _atom_site_label
  _atom_site_symmetry_multiplicity
  _atom_site_fract_x
  _atom_site_fract_y
  _atom_site_fract_z
  _atom_site_occupancy
  Sb  Sb1       1.0  0.82465  0.60308  0.55418  1.0000
  Sb  Sb2       1.0  0.82465  0.10308  0.42918  1.0000
  Sb  Sb3       1.0  0.67535  0.50838  0.45285  1.0000
  Sb  Sb4       1.0  0.67535  0.00838  0.57785  1.0000
  Sb  Sb5       1.0  0.17535  0.39692  0.42499  1.0000
  Sb  Sb6       1.0  0.17535  0.89692  0.54999  1.0000
  Sb  Sb7       1.0  0.32465  0.49162  0.52631  1.0000
  Sb  Sb8       1.0  0.32465  0.99162  0.40131  1.0000
  Sb  Sb9       1.0  0.62688  0.64374  0.61284  1.0000
  Sb  Sb10      1.0  0.62688  0.14374  0.48784  1.0000
  Sb  Sb11      1.0  0.87312  0.24303  0.58802  1.0000
  Sb  Sb12      1.0  0.87312  0.74303  0.46302  1.0000
  Sb  Sb13      1.0  0.37312  0.35626  0.61633  1.0000
  Sb  Sb14      1.0  0.37312  0.85626  0.49133  1.0000
  Sb  Sb15      1.0  0.12688  0.75697  0.39115  1.0000
  Sb  Sb16      1.0  0.12688  0.25697  0.51615  1.0000
  Rh  Rh1       1.0  0.71270  0.88549  0.39308  1.0000
  Rh  Rh2       1.0  0.71270  0.38549  0.51808  1.0000
  Rh  Rh3       1.0  0.78730  0.36399  0.39846  1.0000
  Rh  Rh4       1.0  0.78730  0.86399  0.52346  1.0000
  Rh  Rh5       1.0  0.28730  0.11451  0.58609  1.0000
  Rh  Rh6       1.0  0.28730  0.61451  0.46109  1.0000
  Rh  Rh7       1.0  0.21270  0.63601  0.58071  1.0000
  Rh  Rh8       1.0  0.21270  0.13601  0.45571  1.0000
