data_image0
_chemical_formula_structural       Al6Pt10Al6Pt10
_chemical_formula_sum              "Al12 Pt20"
_cell_length_a       3.95854
_cell_length_b       10.7659
_cell_length_c       32.4245
_cell_angle_alpha    90
_cell_angle_beta     90
_cell_angle_gamma    90

_space_group_name_H-M_alt    "P 1"
_space_group_IT_number       1

loop_
  _space_group_symop_operation_xyz
  'x, y, z'

loop_
  _atom_site_type_symbol
  _atom_site_label
  _atom_site_symmetry_multiplicity
  _atom_site_fract_x
  _atom_site_fract_y
  _atom_site_fract_z
  _atom_site_occupancy
  Al  Al1       1.0  0.50000  0.86008  0.42810  1.0000
  Al  Al2       1.0  0.50000  0.13992  0.48857  1.0000
  Al  Al3       1.0  0.50000  0.63992  0.34476  1.0000
  Al  Al4       1.0  0.50000  0.36008  0.40524  1.0000
  Al  Al5       1.0  0.00000  0.00000  0.37500  1.0000
  Al  Al6       1.0  0.00000  0.50000  0.45833  1.0000
  Pt  Pt1       1.0  0.50000  0.10725  0.40951  1.0000
  Pt  Pt2       1.0  0.50000  0.89275  0.34049  1.0000
  Pt  Pt3       1.0  0.50000  0.39275  0.49285  1.0000
  Pt  Pt4       1.0  0.50000  0.60725  0.42382  1.0000
  Pt  Pt5       1.0  0.00000  0.76908  0.38690  1.0000
  Pt  Pt6       1.0  0.00000  0.23092  0.36310  1.0000
  Pt  Pt7       1.0  0.00000  0.73092  0.47023  1.0000
  Pt  Pt8       1.0  0.00000  0.26908  0.44643  1.0000
  Pt  Pt9       1.0  0.00000  0.50000  0.37500  1.0000
  Pt  Pt10      1.0  0.00000  0.00000  0.45833  1.0000
  Al  Al7       1.0  0.50000  0.86008  0.59476  1.0000
  Al  Al8       1.0  0.50000  0.13992  0.65524  1.0000
  Al  Al9       1.0  0.50000  0.63992  0.51143  1.0000
  Al  Al10      1.0  0.50000  0.36008  0.57190  1.0000
  Al  Al11      1.0  0.00000  0.00000  0.54167  1.0000
  Al  Al12      1.0  0.00000  0.50000  0.62500  1.0000
  Pt  Pt11      1.0  0.50000  0.10725  0.57618  1.0000
  Pt  Pt12      1.0  0.50000  0.89275  0.50715  1.0000
  Pt  Pt13      1.0  0.50000  0.39275  0.65951  1.0000
  Pt  Pt14      1.0  0.50000  0.60725  0.59049  1.0000
  Pt  Pt15      1.0  0.00000  0.76908  0.55357  1.0000
  Pt  Pt16      1.0  0.00000  0.23092  0.52977  1.0000
  Pt  Pt17      1.0  0.00000  0.73092  0.63690  1.0000
  Pt  Pt18      1.0  0.00000  0.26908  0.61310  1.0000
  Pt  Pt19      1.0  0.00000  0.50000  0.54167  1.0000
  Pt  Pt20      1.0  0.00000  0.00000  0.62500  1.0000
