data_image0
_chemical_formula_structural       Cu9Pt9
_chemical_formula_sum              "Cu9 Pt9"
_cell_length_a       4.50568
_cell_length_b       7.04373
_cell_length_c       29.2527
_cell_angle_alpha    87.4106
_cell_angle_beta     85.95
_cell_angle_gamma    72.9437

_space_group_name_H-M_alt    "P 1"
_space_group_IT_number       1

loop_
  _space_group_symop_operation_xyz
  'x, y, z'

loop_
  _atom_site_type_symbol
  _atom_site_label
  _atom_site_symmetry_multiplicity
  _atom_site_fract_x
  _atom_site_fract_y
  _atom_site_fract_z
  _atom_site_occupancy
  Cu  Cu1       1.0  0.00000  0.55303  0.44697  1.0000
  Cu  Cu2       1.0  0.33333  0.28030  0.38636  1.0000
  Cu  Cu3       1.0  0.66667  0.91667  0.41667  1.0000
  Cu  Cu4       1.0  0.00000  0.46212  0.53788  1.0000
  Cu  Cu5       1.0  0.33333  0.18939  0.47727  1.0000
  Cu  Cu6       1.0  0.66667  0.82576  0.50758  1.0000
  Cu  Cu7       1.0  0.00000  0.37121  0.62879  1.0000
  Cu  Cu8       1.0  0.33333  0.09848  0.56818  1.0000
  Cu  Cu9       1.0  0.66667  0.73485  0.59848  1.0000
  Pt  Pt1       1.0  0.50000  0.59848  0.40152  1.0000
  Pt  Pt2       1.0  0.83333  0.23485  0.43182  1.0000
  Pt  Pt3       1.0  0.16667  0.96212  0.37121  1.0000
  Pt  Pt4       1.0  0.50000  0.50758  0.49242  1.0000
  Pt  Pt5       1.0  0.83333  0.14394  0.52273  1.0000
  Pt  Pt6       1.0  0.16667  0.87121  0.46212  1.0000
  Pt  Pt7       1.0  0.50000  0.41667  0.58333  1.0000
  Pt  Pt8       1.0  0.83333  0.05303  0.61364  1.0000
  Pt  Pt9       1.0  0.16667  0.78030  0.55303  1.0000
