data_image0
_chemical_formula_structural       Co2As4Co2As4Co2As4
_chemical_formula_sum              "Co6 As12"
_cell_length_a       5.04995
_cell_length_b       6.58257
_cell_length_c       33.805
_cell_angle_alpha    117.831
_cell_angle_beta     90
_cell_angle_gamma    90

_space_group_name_H-M_alt    "P 1"
_space_group_IT_number       1

loop_
  _space_group_symop_operation_xyz
  'x, y, z'

loop_
  _atom_site_type_symbol
  _atom_site_label
  _atom_site_symmetry_multiplicity
  _atom_site_fract_x
  _atom_site_fract_y
  _atom_site_fract_z
  _atom_site_occupancy
  Co  Co1       1.0  0.50000  0.50000  0.43939  1.0000
  Co  Co2       1.0  0.00000  0.00000  0.43939  1.0000
  As  As1       1.0  0.68865  0.13621  0.40632  1.0000
  As  As2       1.0  0.31135  0.86379  0.38156  1.0000
  As  As3       1.0  0.18865  0.36379  0.38156  1.0000
  As  As4       1.0  0.81135  0.63621  0.40632  1.0000
  Co  Co3       1.0  0.50000  0.50000  0.53030  1.0000
  Co  Co4       1.0  0.00000  0.00000  0.53030  1.0000
  As  As5       1.0  0.68865  0.13621  0.49723  1.0000
  As  As6       1.0  0.31135  0.86379  0.47247  1.0000
  As  As7       1.0  0.18865  0.36379  0.47247  1.0000
  As  As8       1.0  0.81135  0.63621  0.49723  1.0000
  Co  Co5       1.0  0.50000  0.50000  0.62121  1.0000
  Co  Co6       1.0  0.00000  0.00000  0.62121  1.0000
  As  As9       1.0  0.68865  0.13621  0.58814  1.0000
  As  As10      1.0  0.31135  0.86379  0.56338  1.0000
  As  As11      1.0  0.18865  0.36379  0.56338  1.0000
  As  As12      1.0  0.81135  0.63621  0.58814  1.0000
