data_image0
_chemical_formula_structural       Ga16Os8
_chemical_formula_sum              "Ga16 Os8"
_cell_length_a       5.98837
_cell_length_b       5.98837
_cell_length_c       33.0897
_cell_angle_alpha    90
_cell_angle_beta     90
_cell_angle_gamma    92.989

_space_group_name_H-M_alt    "P 1"
_space_group_IT_number       1

loop_
  _space_group_symop_operation_xyz
  'x, y, z'

loop_
  _atom_site_type_symbol
  _atom_site_label
  _atom_site_symmetry_multiplicity
  _atom_site_fract_x
  _atom_site_fract_y
  _atom_site_fract_z
  _atom_site_occupancy
  Ga  Ga1       1.0  0.66824  0.16824  0.62500  1.0000
  Ga  Ga2       1.0  0.83176  0.33176  0.55357  1.0000
  Ga  Ga3       1.0  0.83176  0.83176  0.51786  1.0000
  Ga  Ga4       1.0  0.66824  0.66824  0.58929  1.0000
  Ga  Ga5       1.0  0.16824  0.66824  0.55357  1.0000
  Ga  Ga6       1.0  0.33176  0.83176  0.62500  1.0000
  Ga  Ga7       1.0  0.33176  0.33176  0.58929  1.0000
  Ga  Ga8       1.0  0.16824  0.16824  0.51786  1.0000
  Ga  Ga9       1.0  0.66824  0.16824  0.48214  1.0000
  Ga  Ga10      1.0  0.83176  0.33176  0.41071  1.0000
  Ga  Ga11      1.0  0.83176  0.83176  0.37500  1.0000
  Ga  Ga12      1.0  0.66824  0.66824  0.44643  1.0000
  Ga  Ga13      1.0  0.16824  0.66824  0.41071  1.0000
  Ga  Ga14      1.0  0.33176  0.83176  0.48214  1.0000
  Ga  Ga15      1.0  0.33176  0.33176  0.44643  1.0000
  Ga  Ga16      1.0  0.16824  0.16824  0.37500  1.0000
  Os  Os1       1.0  0.50000  0.00000  0.55357  1.0000
  Os  Os2       1.0  0.00000  0.00000  0.58929  1.0000
  Os  Os3       1.0  0.00000  0.50000  0.62500  1.0000
  Os  Os4       1.0  0.50000  0.50000  0.51786  1.0000
  Os  Os5       1.0  0.50000  0.00000  0.41071  1.0000
  Os  Os6       1.0  0.00000  0.00000  0.44643  1.0000
  Os  Os7       1.0  0.00000  0.50000  0.48214  1.0000
  Os  Os8       1.0  0.50000  0.50000  0.37500  1.0000
