data_image0
_chemical_formula_structural       Si8Pt8Si8Pt8
_chemical_formula_sum              "Si16 Pt16"
_cell_length_a       5.57094
_cell_length_b       6.93741
_cell_length_c       41.6244
_cell_angle_alpha    62.8161
_cell_angle_beta     90
_cell_angle_gamma    90

_space_group_name_H-M_alt    "P 1"
_space_group_IT_number       1

loop_
  _space_group_symop_operation_xyz
  'x, y, z'

loop_
  _atom_site_type_symbol
  _atom_site_label
  _atom_site_symmetry_multiplicity
  _atom_site_fract_x
  _atom_site_fract_y
  _atom_site_fract_z
  _atom_site_occupancy
  Si  Si1       1.0  0.32214  0.08314  0.47219  1.0000
  Si  Si2       1.0  0.32214  0.58314  0.38886  1.0000
  Si  Si3       1.0  0.82214  0.91686  0.44448  1.0000
  Si  Si4       1.0  0.82214  0.41686  0.36114  1.0000
  Si  Si5       1.0  0.67786  0.91686  0.36114  1.0000
  Si  Si6       1.0  0.67786  0.41686  0.44448  1.0000
  Si  Si7       1.0  0.17786  0.08314  0.38886  1.0000
  Si  Si8       1.0  0.17786  0.58314  0.47219  1.0000
  Pt  Pt1       1.0  0.50313  0.77834  0.42139  1.0000
  Pt  Pt2       1.0  0.50313  0.27834  0.33806  1.0000
  Pt  Pt3       1.0  0.00313  0.72166  0.41194  1.0000
  Pt  Pt4       1.0  0.00313  0.22166  0.49528  1.0000
  Pt  Pt5       1.0  0.49687  0.22166  0.41194  1.0000
  Pt  Pt6       1.0  0.49687  0.72166  0.49528  1.0000
  Pt  Pt7       1.0  0.99687  0.27834  0.42139  1.0000
  Pt  Pt8       1.0  0.99687  0.77834  0.33806  1.0000
  Si  Si9       1.0  0.32214  0.08314  0.63886  1.0000
  Si  Si10      1.0  0.32214  0.58314  0.55552  1.0000
  Si  Si11      1.0  0.82214  0.91686  0.61114  1.0000
  Si  Si12      1.0  0.82214  0.41686  0.52781  1.0000
  Si  Si13      1.0  0.67786  0.91686  0.52781  1.0000
  Si  Si14      1.0  0.67786  0.41686  0.61114  1.0000
  Si  Si15      1.0  0.17786  0.08314  0.55552  1.0000
  Si  Si16      1.0  0.17786  0.58314  0.63886  1.0000
  Pt  Pt9       1.0  0.50313  0.77834  0.58806  1.0000
  Pt  Pt10      1.0  0.50313  0.27834  0.50472  1.0000
  Pt  Pt11      1.0  0.00313  0.72166  0.57861  1.0000
  Pt  Pt12      1.0  0.00313  0.22166  0.66194  1.0000
  Pt  Pt13      1.0  0.49687  0.22166  0.57861  1.0000
  Pt  Pt14      1.0  0.49687  0.72166  0.66194  1.0000
  Pt  Pt15      1.0  0.99687  0.27834  0.58806  1.0000
  Pt  Pt16      1.0  0.99687  0.77834  0.50472  1.0000
