data_image0
_chemical_formula_structural       In3Ni3In3Ni3
_chemical_formula_sum              "In6 Ni6"
_cell_length_a       5.19975
_cell_length_b       4.31298
_cell_length_c       36.3983
_cell_angle_alpha    90
_cell_angle_beta     120
_cell_angle_gamma    90

_space_group_name_H-M_alt    "P 1"
_space_group_IT_number       1

loop_
  _space_group_symop_operation_xyz
  'x, y, z'

loop_
  _atom_site_type_symbol
  _atom_site_label
  _atom_site_symmetry_multiplicity
  _atom_site_fract_x
  _atom_site_fract_y
  _atom_site_fract_z
  _atom_site_occupancy
  In  In1       1.0  0.00000  0.00000  0.47619  1.0000
  In  In2       1.0  0.66667  0.50000  0.38095  1.0000
  In  In3       1.0  0.33333  0.50000  0.42857  1.0000
  Ni  Ni1       1.0  0.00000  0.00000  0.40476  1.0000
  Ni  Ni2       1.0  0.50000  0.00000  0.40476  1.0000
  Ni  Ni3       1.0  0.50000  0.00000  0.47619  1.0000
  In  In4       1.0  0.00000  0.00000  0.61905  1.0000
  In  In5       1.0  0.66667  0.50000  0.52381  1.0000
  In  In6       1.0  0.33333  0.50000  0.57143  1.0000
  Ni  Ni4       1.0  0.00000  0.00000  0.54762  1.0000
  Ni  Ni5       1.0  0.50000  0.00000  0.54762  1.0000
  Ni  Ni6       1.0  0.50000  0.00000  0.61905  1.0000
