data_image0
_chemical_formula_structural       Ir3Re9
_chemical_formula_sum              "Ir3 Re9"
_cell_length_a       3.85578
_cell_length_b       4.73534
_cell_length_c       31.1179
_cell_angle_alpha    93.083
_cell_angle_beta     90
_cell_angle_gamma    114.025

_space_group_name_H-M_alt    "P 1"
_space_group_IT_number       1

loop_
  _space_group_symop_operation_xyz
  'x, y, z'

loop_
  _atom_site_type_symbol
  _atom_site_label
  _atom_site_symmetry_multiplicity
  _atom_site_fract_x
  _atom_site_fract_y
  _atom_site_fract_z
  _atom_site_occupancy
  Ir  Ir1       1.0  0.80556  0.61111  0.40278  1.0000
  Ir  Ir2       1.0  0.02778  0.05556  0.51389  1.0000
  Ir  Ir3       1.0  0.25000  0.50000  0.62500  1.0000
  Re  Re1       1.0  0.50000  0.00000  0.37500  1.0000
  Re  Re2       1.0  0.11111  0.22222  0.43056  1.0000
  Re  Re3       1.0  0.19444  0.38889  0.34722  1.0000
  Re  Re4       1.0  0.72222  0.44444  0.48611  1.0000
  Re  Re5       1.0  0.33333  0.66667  0.54167  1.0000
  Re  Re6       1.0  0.41667  0.83333  0.45833  1.0000
  Re  Re7       1.0  0.94444  0.88889  0.59722  1.0000
  Re  Re8       1.0  0.55556  0.11111  0.65278  1.0000
  Re  Re9       1.0  0.63889  0.27778  0.56944  1.0000
