data_image0
_chemical_formula_structural       Au12Ca6Si12
_chemical_formula_sum              "Au12 Ca6 Si12"
_cell_length_a       5.83354
_cell_length_b       8.4388
_cell_length_c       34.311
_cell_angle_alpha    83.8783
_cell_angle_beta     86.4809
_cell_angle_gamma    82.8317

_space_group_name_H-M_alt    "P 1"
_space_group_IT_number       1

loop_
  _space_group_symop_operation_xyz
  'x, y, z'

loop_
  _atom_site_type_symbol
  _atom_site_label
  _atom_site_symmetry_multiplicity
  _atom_site_fract_x
  _atom_site_fract_y
  _atom_site_fract_z
  _atom_site_occupancy
  Au  Au1       1.0  0.50000  0.30556  0.34722  1.0000
  Au  Au2       1.0  0.83333  0.86111  0.40278  1.0000
  Au  Au3       1.0  0.16667  0.41667  0.45833  1.0000
  Au  Au4       1.0  0.16667  0.58333  0.37500  1.0000
  Au  Au5       1.0  0.50000  0.13889  0.43056  1.0000
  Au  Au6       1.0  0.83333  0.69444  0.48611  1.0000
  Au  Au7       1.0  0.50000  0.97222  0.51389  1.0000
  Au  Au8       1.0  0.83333  0.52778  0.56944  1.0000
  Au  Au9       1.0  0.16667  0.08333  0.62500  1.0000
  Au  Au10      1.0  0.16667  0.25000  0.54167  1.0000
  Au  Au11      1.0  0.50000  0.80556  0.59722  1.0000
  Au  Au12      1.0  0.83333  0.36111  0.65278  1.0000
  Ca  Ca1       1.0  0.00000  0.05556  0.47222  1.0000
  Ca  Ca2       1.0  0.33333  0.94444  0.36111  1.0000
  Ca  Ca3       1.0  0.66667  0.50000  0.41667  1.0000
  Ca  Ca4       1.0  0.00000  0.72222  0.63889  1.0000
  Ca  Ca5       1.0  0.33333  0.61111  0.52778  1.0000
  Ca  Ca6       1.0  0.66667  0.16667  0.58333  1.0000
  Si  Si1       1.0  0.15330  0.28610  0.39528  1.0000
  Si  Si2       1.0  0.48663  0.84165  0.45083  1.0000
  Si  Si3       1.0  0.81997  0.73054  0.33972  1.0000
  Si  Si4       1.0  0.51337  0.26946  0.49361  1.0000
  Si  Si5       1.0  0.84670  0.15835  0.38250  1.0000
  Si  Si6       1.0  0.18003  0.71390  0.43806  1.0000
  Si  Si7       1.0  0.15330  0.95276  0.56194  1.0000
  Si  Si8       1.0  0.48663  0.50832  0.61750  1.0000
  Si  Si9       1.0  0.81997  0.39721  0.50639  1.0000
  Si  Si10      1.0  0.51337  0.93612  0.66028  1.0000
  Si  Si11      1.0  0.84670  0.82501  0.54917  1.0000
  Si  Si12      1.0  0.18003  0.38057  0.60472  1.0000
