data_image0
_chemical_formula_structural       Ga6Cu3Ga6Cu3
_chemical_formula_sum              "Ga12 Cu6"
_cell_length_a       2.7941
_cell_length_b       8.05595
_cell_length_c       38.6418
_cell_angle_alpha    69.6334
_cell_angle_beta     90
_cell_angle_gamma    90

_space_group_name_H-M_alt    "P 1"
_space_group_IT_number       1

loop_
  _space_group_symop_operation_xyz
  'x, y, z'

loop_
  _atom_site_type_symbol
  _atom_site_label
  _atom_site_symmetry_multiplicity
  _atom_site_fract_x
  _atom_site_fract_y
  _atom_site_fract_z
  _atom_site_occupancy
  Ga  Ga1       1.0  0.50000  0.59481  0.42049  1.0000
  Ga  Ga2       1.0  0.50000  0.92814  0.36494  1.0000
  Ga  Ga3       1.0  0.50000  0.26147  0.47605  1.0000
  Ga  Ga4       1.0  0.50000  0.73853  0.46840  1.0000
  Ga  Ga5       1.0  0.50000  0.07186  0.41284  1.0000
  Ga  Ga6       1.0  0.50000  0.40519  0.35729  1.0000
  Cu  Cu1       1.0  0.00000  0.66667  0.36111  1.0000
  Cu  Cu2       1.0  0.00000  0.00000  0.47222  1.0000
  Cu  Cu3       1.0  0.00000  0.33333  0.41667  1.0000
  Ga  Ga7       1.0  0.50000  0.59481  0.58716  1.0000
  Ga  Ga8       1.0  0.50000  0.92814  0.53160  1.0000
  Ga  Ga9       1.0  0.50000  0.26147  0.64271  1.0000
  Ga  Ga10      1.0  0.50000  0.73853  0.63506  1.0000
  Ga  Ga11      1.0  0.50000  0.07186  0.57951  1.0000
  Ga  Ga12      1.0  0.50000  0.40519  0.52395  1.0000
  Cu  Cu4       1.0  0.00000  0.66667  0.52778  1.0000
  Cu  Cu5       1.0  0.00000  0.00000  0.63889  1.0000
  Cu  Cu6       1.0  0.00000  0.33333  0.58333  1.0000
