data_image0
_chemical_formula_structural       Cr4Rh8Sn4
_chemical_formula_sum              "Cr4 Rh8 Sn4"
_cell_length_a       4.56183
_cell_length_b       5.67822
_cell_length_c       35.5675
_cell_angle_alpha    90
_cell_angle_beta     91.4504
_cell_angle_gamma    90

_space_group_name_H-M_alt    "P 1"
_space_group_IT_number       1

loop_
  _space_group_symop_operation_xyz
  'x, y, z'

loop_
  _atom_site_type_symbol
  _atom_site_label
  _atom_site_symmetry_multiplicity
  _atom_site_fract_x
  _atom_site_fract_y
  _atom_site_fract_z
  _atom_site_occupancy
  Cr  Cr1       1.0  0.31250  0.50000  0.40625  1.0000
  Cr  Cr2       1.0  0.93750  0.00000  0.46875  1.0000
  Cr  Cr3       1.0  0.18750  0.00000  0.59375  1.0000
  Cr  Cr4       1.0  0.56250  0.50000  0.53125  1.0000
  Rh  Rh1       1.0  0.43750  0.25000  0.46875  1.0000
  Rh  Rh2       1.0  0.06250  0.75000  0.53125  1.0000
  Rh  Rh3       1.0  0.81250  0.75000  0.40625  1.0000
  Rh  Rh4       1.0  0.68750  0.25000  0.59375  1.0000
  Rh  Rh5       1.0  0.43750  0.75000  0.46875  1.0000
  Rh  Rh6       1.0  0.06250  0.25000  0.53125  1.0000
  Rh  Rh7       1.0  0.81250  0.25000  0.40625  1.0000
  Rh  Rh8       1.0  0.68750  0.75000  0.59375  1.0000
  Sn  Sn1       1.0  0.93750  0.50000  0.46875  1.0000
  Sn  Sn2       1.0  0.56250  0.00000  0.53125  1.0000
  Sn  Sn3       1.0  0.31250  0.00000  0.40625  1.0000
  Sn  Sn4       1.0  0.18750  0.50000  0.59375  1.0000
