data_image0
_chemical_formula_structural       Ca2As2Au2
_chemical_formula_sum              "Ca2 As2 Au2"
_cell_length_a       4.37932
_cell_length_b       4.37932
_cell_length_c       31.5576
_cell_angle_alpha    90
_cell_angle_beta     90
_cell_angle_gamma    120

_space_group_name_H-M_alt    "P 1"
_space_group_IT_number       1

loop_
  _space_group_symop_operation_xyz
  'x, y, z'

loop_
  _atom_site_type_symbol
  _atom_site_label
  _atom_site_symmetry_multiplicity
  _atom_site_fract_x
  _atom_site_fract_y
  _atom_site_fract_z
  _atom_site_occupancy
  Ca  Ca1       1.0  0.00000  0.00000  0.47917  1.0000
  Ca  Ca2       1.0  0.00000  0.00000  0.60417  1.0000
  As  As1       1.0  0.33333  0.66667  0.41667  1.0000
  As  As2       1.0  0.66667  0.33333  0.54167  1.0000
  Au  Au1       1.0  0.66667  0.33333  0.41667  1.0000
  Au  Au2       1.0  0.33333  0.66667  0.54167  1.0000
