data_image0
_chemical_formula_structural       FeSi2FeSi2FeSi2
_chemical_formula_sum              "Fe3 Si6"
_cell_length_a       2.68207
_cell_length_b       5.75766
_cell_length_c       32.1848
_cell_angle_alpha    117.764
_cell_angle_beta     90
_cell_angle_gamma    90

_space_group_name_H-M_alt    "P 1"
_space_group_IT_number       1

loop_
  _space_group_symop_operation_xyz
  'x, y, z'

loop_
  _atom_site_type_symbol
  _atom_site_label
  _atom_site_symmetry_multiplicity
  _atom_site_fract_x
  _atom_site_fract_y
  _atom_site_fract_z
  _atom_site_occupancy
  Fe  Fe1       1.0  0.00000  0.00000  0.44444  1.0000
  Si  Si1       1.0  0.50000  0.72728  0.38005  1.0000
  Si  Si2       1.0  0.50000  0.27272  0.42550  1.0000
  Fe  Fe2       1.0  0.00000  0.00000  0.52778  1.0000
  Si  Si3       1.0  0.50000  0.72728  0.46338  1.0000
  Si  Si4       1.0  0.50000  0.27272  0.50884  1.0000
  Fe  Fe3       1.0  0.00000  0.00000  0.61111  1.0000
  Si  Si5       1.0  0.50000  0.72728  0.54672  1.0000
  Si  Si6       1.0  0.50000  0.27272  0.59217  1.0000
