data_image0
_chemical_formula_structural       Ir12Rh4
_chemical_formula_sum              "Ir12 Rh4"
_cell_length_a       4.67456
_cell_length_b       5.39918
_cell_length_c       35.2975
_cell_angle_alpha    90
_cell_angle_beta     92.5521
_cell_angle_gamma    90

_space_group_name_H-M_alt    "P 1"
_space_group_IT_number       1

loop_
  _space_group_symop_operation_xyz
  'x, y, z'

loop_
  _atom_site_type_symbol
  _atom_site_label
  _atom_site_symmetry_multiplicity
  _atom_site_fract_x
  _atom_site_fract_y
  _atom_site_fract_z
  _atom_site_occupancy
  Ir  Ir1       1.0  0.90625  0.75000  0.46875  1.0000
  Ir  Ir2       1.0  0.59375  0.25000  0.53125  1.0000
  Ir  Ir3       1.0  0.21875  0.25000  0.40625  1.0000
  Ir  Ir4       1.0  0.28125  0.75000  0.59375  1.0000
  Ir  Ir5       1.0  0.90625  0.25000  0.46875  1.0000
  Ir  Ir6       1.0  0.59375  0.75000  0.53125  1.0000
  Ir  Ir7       1.0  0.21875  0.75000  0.40625  1.0000
  Ir  Ir8       1.0  0.28125  0.25000  0.59375  1.0000
  Ir  Ir9       1.0  0.40625  0.50000  0.46875  1.0000
  Ir  Ir10      1.0  0.09375  0.00000  0.53125  1.0000
  Ir  Ir11      1.0  0.71875  0.00000  0.40625  1.0000
  Ir  Ir12      1.0  0.78125  0.50000  0.59375  1.0000
  Rh  Rh1       1.0  0.71875  0.50000  0.40625  1.0000
  Rh  Rh2       1.0  0.40625  0.00000  0.46875  1.0000
  Rh  Rh3       1.0  0.78125  0.00000  0.59375  1.0000
  Rh  Rh4       1.0  0.09375  0.50000  0.53125  1.0000
