data_image0
_chemical_formula_structural       Cu3Pt3Cu3Pt3Cu3Pt3Cu3Pt3
_chemical_formula_sum              "Cu12 Pt12"
_cell_length_a       2.70707
_cell_length_b       13.7854
_cell_length_c       37.899
_cell_angle_alpha    113.125
_cell_angle_beta     120
_cell_angle_gamma    78.6751

_space_group_name_H-M_alt    "P 1"
_space_group_IT_number       1

loop_
  _space_group_symop_operation_xyz
  'x, y, z'

loop_
  _atom_site_type_symbol
  _atom_site_label
  _atom_site_symmetry_multiplicity
  _atom_site_fract_x
  _atom_site_fract_y
  _atom_site_fract_z
  _atom_site_occupancy
  Cu  Cu1       1.0  0.00000  0.00000  0.41667  1.0000
  Cu  Cu2       1.0  0.33333  0.33333  0.36905  1.0000
  Cu  Cu3       1.0  0.66667  0.66667  0.39286  1.0000
  Pt  Pt1       1.0  0.66667  0.16667  0.39286  1.0000
  Pt  Pt2       1.0  0.00000  0.50000  0.41667  1.0000
  Pt  Pt3       1.0  0.33333  0.83333  0.36905  1.0000
  Cu  Cu4       1.0  0.00000  0.00000  0.48810  1.0000
  Cu  Cu5       1.0  0.33333  0.33333  0.44048  1.0000
  Cu  Cu6       1.0  0.66667  0.66667  0.46429  1.0000
  Pt  Pt4       1.0  0.66667  0.16667  0.46429  1.0000
  Pt  Pt5       1.0  0.00000  0.50000  0.48810  1.0000
  Pt  Pt6       1.0  0.33333  0.83333  0.44048  1.0000
  Cu  Cu7       1.0  0.00000  0.00000  0.55952  1.0000
  Cu  Cu8       1.0  0.33333  0.33333  0.51190  1.0000
  Cu  Cu9       1.0  0.66667  0.66667  0.53571  1.0000
  Pt  Pt7       1.0  0.66667  0.16667  0.53571  1.0000
  Pt  Pt8       1.0  0.00000  0.50000  0.55952  1.0000
  Pt  Pt9       1.0  0.33333  0.83333  0.51190  1.0000
  Cu  Cu10      1.0  0.00000  0.00000  0.63095  1.0000
  Cu  Cu11      1.0  0.33333  0.33333  0.58333  1.0000
  Cu  Cu12      1.0  0.66667  0.66667  0.60714  1.0000
  Pt  Pt10      1.0  0.66667  0.16667  0.60714  1.0000
  Pt  Pt11      1.0  0.00000  0.50000  0.63095  1.0000
  Pt  Pt12      1.0  0.33333  0.83333  0.58333  1.0000
