data_image0
_chemical_formula_structural       Si12Pd12
_chemical_formula_sum              "Si12 Pd12"
_cell_length_a       6.53285
_cell_length_b       7.00104
_cell_length_c       35.7563
_cell_angle_alpha    66.011
_cell_angle_beta     70.9015
_cell_angle_gamma    75.0676

_space_group_name_H-M_alt    "P 1"
_space_group_IT_number       1

loop_
  _space_group_symop_operation_xyz
  'x, y, z'

loop_
  _atom_site_type_symbol
  _atom_site_label
  _atom_site_symmetry_multiplicity
  _atom_site_fract_x
  _atom_site_fract_y
  _atom_site_fract_z
  _atom_site_occupancy
  Si  Si1       1.0  0.01050  0.40632  0.51045  1.0000
  Si  Si2       1.0  0.34383  0.73965  0.42712  1.0000
  Si  Si3       1.0  0.67716  0.07299  0.59379  1.0000
  Si  Si4       1.0  0.32284  0.92701  0.59371  1.0000
  Si  Si5       1.0  0.65617  0.26035  0.51038  1.0000
  Si  Si6       1.0  0.98950  0.59368  0.42705  1.0000
  Si  Si7       1.0  0.55925  0.80881  0.49826  1.0000
  Si  Si8       1.0  0.89259  0.14214  0.41493  1.0000
  Si  Si9       1.0  0.22592  0.47547  0.58160  1.0000
  Si  Si10      1.0  0.77408  0.52453  0.60590  1.0000
  Si  Si11      1.0  0.10741  0.85786  0.52257  1.0000
  Si  Si12      1.0  0.44075  0.19119  0.43924  1.0000
  Pd  Pd1       1.0  0.68913  0.87597  0.54753  1.0000
  Pd  Pd2       1.0  0.02246  0.20931  0.46419  1.0000
  Pd  Pd3       1.0  0.35580  0.54264  0.38086  1.0000
  Pd  Pd4       1.0  0.64420  0.45736  0.55664  1.0000
  Pd  Pd5       1.0  0.97754  0.79069  0.47331  1.0000
  Pd  Pd6       1.0  0.31087  0.12403  0.38997  1.0000
  Pd  Pd7       1.0  0.31651  0.12121  0.51568  1.0000
  Pd  Pd8       1.0  0.64985  0.45454  0.43235  1.0000
  Pd  Pd9       1.0  0.98318  0.78787  0.59901  1.0000
  Pd  Pd10      1.0  0.01682  0.21213  0.58849  1.0000
  Pd  Pd11      1.0  0.35015  0.54546  0.50515  1.0000
  Pd  Pd12      1.0  0.68349  0.87879  0.42182  1.0000
