data_image0
_chemical_formula_structural       Al4Fe6Si6Al4Fe6Si6
_chemical_formula_sum              "Al8 Fe12 Si12"
_cell_length_a       4.56319
_cell_length_b       7.39461
_cell_length_c       37.6275
_cell_angle_alpha    101.9
_cell_angle_beta     100.608
_cell_angle_gamma    106.778

_space_group_name_H-M_alt    "P 1"
_space_group_IT_number       1

loop_
  _space_group_symop_operation_xyz
  'x, y, z'

loop_
  _atom_site_type_symbol
  _atom_site_label
  _atom_site_symmetry_multiplicity
  _atom_site_fract_x
  _atom_site_fract_y
  _atom_site_fract_z
  _atom_site_occupancy
  Al  Al1       1.0  0.58633  0.94906  0.47082  1.0000
  Al  Al2       1.0  0.05289  0.27261  0.35755  1.0000
  Al  Al3       1.0  0.94711  0.72739  0.47579  1.0000
  Al  Al4       1.0  0.41367  0.05094  0.36252  1.0000
  Fe  Fe1       1.0  0.36489  0.23267  0.42136  1.0000
  Fe  Fe2       1.0  0.63511  0.76733  0.41197  1.0000
  Fe  Fe3       1.0  0.13512  0.05672  0.46965  1.0000
  Fe  Fe4       1.0  0.86488  0.94328  0.36368  1.0000
  Fe  Fe5       1.0  0.03978  0.41556  0.46540  1.0000
  Fe  Fe6       1.0  0.96022  0.58444  0.36793  1.0000
  Si  Si1       1.0  0.45694  0.65218  0.34783  1.0000
  Si  Si2       1.0  0.72421  0.46711  0.40958  1.0000
  Si  Si3       1.0  0.54306  0.34782  0.48551  1.0000
  Si  Si4       1.0  0.17918  0.88623  0.41272  1.0000
  Si  Si5       1.0  0.82082  0.11377  0.42061  1.0000
  Si  Si6       1.0  0.27579  0.53289  0.42375  1.0000
  Al  Al5       1.0  0.58633  0.94906  0.63748  1.0000
  Al  Al6       1.0  0.05289  0.27261  0.52421  1.0000
  Al  Al7       1.0  0.94711  0.72739  0.64245  1.0000
  Al  Al8       1.0  0.41367  0.05094  0.52918  1.0000
  Fe  Fe7       1.0  0.36489  0.23267  0.58803  1.0000
  Fe  Fe8       1.0  0.63511  0.76733  0.57864  1.0000
  Fe  Fe9       1.0  0.13512  0.05672  0.63632  1.0000
  Fe  Fe10      1.0  0.86488  0.94328  0.53035  1.0000
  Fe  Fe11      1.0  0.03978  0.41556  0.63207  1.0000
  Fe  Fe12      1.0  0.96022  0.58444  0.53460  1.0000
  Si  Si7       1.0  0.45694  0.65218  0.51449  1.0000
  Si  Si8       1.0  0.72421  0.46711  0.57625  1.0000
  Si  Si9       1.0  0.54306  0.34782  0.65217  1.0000
  Si  Si10      1.0  0.17918  0.88623  0.57939  1.0000
  Si  Si11      1.0  0.82082  0.11377  0.58728  1.0000
  Si  Si12      1.0  0.27579  0.53289  0.59042  1.0000
