data_image0
_chemical_formula_structural       Zn8
_chemical_formula_sum              "Zn8"
_cell_length_a       2.56429
_cell_length_b       5.08345
_cell_length_c       35.9001
_cell_angle_alpha    90
_cell_angle_beta     120
_cell_angle_gamma    90

_space_group_name_H-M_alt    "P 1"
_space_group_IT_number       1

loop_
  _space_group_symop_operation_xyz
  'x, y, z'

loop_
  _atom_site_type_symbol
  _atom_site_label
  _atom_site_symmetry_multiplicity
  _atom_site_fract_x
  _atom_site_fract_y
  _atom_site_fract_z
  _atom_site_occupancy
  Zn  Zn1       1.0  0.66667  0.25000  0.38095  1.0000
  Zn  Zn2       1.0  0.33333  0.75000  0.40476  1.0000
  Zn  Zn3       1.0  0.66667  0.25000  0.45238  1.0000
  Zn  Zn4       1.0  0.33333  0.75000  0.47619  1.0000
  Zn  Zn5       1.0  0.66667  0.25000  0.52381  1.0000
  Zn  Zn6       1.0  0.33333  0.75000  0.54762  1.0000
  Zn  Zn7       1.0  0.66667  0.25000  0.59524  1.0000
  Zn  Zn8       1.0  0.33333  0.75000  0.61905  1.0000
