data_image0
_chemical_formula_structural       Al12Pt12
_chemical_formula_sum              "Al12 Pt12"
_cell_length_a       6.88421
_cell_length_b       6.88421
_cell_length_c       33.7256
_cell_angle_alpha    90
_cell_angle_beta     90
_cell_angle_gamma    60

_space_group_name_H-M_alt    "P 1"
_space_group_IT_number       1

loop_
  _space_group_symop_operation_xyz
  'x, y, z'

loop_
  _atom_site_type_symbol
  _atom_site_label
  _atom_site_symmetry_multiplicity
  _atom_site_fract_x
  _atom_site_fract_y
  _atom_site_fract_z
  _atom_site_occupancy
  Al  Al1       1.0  0.66667  0.66667  0.61725  1.0000
  Al  Al2       1.0  0.00000  0.00000  0.53392  1.0000
  Al  Al3       1.0  0.33333  0.33333  0.45059  1.0000
  Al  Al4       1.0  0.43732  0.62536  0.50258  1.0000
  Al  Al5       1.0  0.77066  0.95869  0.41925  1.0000
  Al  Al6       1.0  0.10399  0.29202  0.58592  1.0000
  Al  Al7       1.0  0.93732  0.43732  0.50258  1.0000
  Al  Al8       1.0  0.27066  0.77066  0.41925  1.0000
  Al  Al9       1.0  0.60399  0.10399  0.58592  1.0000
  Al  Al10      1.0  0.62536  0.93732  0.50258  1.0000
  Al  Al11      1.0  0.95869  0.27066  0.41925  1.0000
  Al  Al12      1.0  0.29202  0.60399  0.58592  1.0000
  Pt  Pt1       1.0  0.66667  0.66667  0.44497  1.0000
  Pt  Pt2       1.0  0.00000  0.00000  0.61163  1.0000
  Pt  Pt3       1.0  0.33333  0.33333  0.52830  1.0000
  Pt  Pt4       1.0  0.89676  0.70649  0.56001  1.0000
  Pt  Pt5       1.0  0.23009  0.03982  0.47668  1.0000
  Pt  Pt6       1.0  0.56342  0.37316  0.39334  1.0000
  Pt  Pt7       1.0  0.39676  0.89676  0.56001  1.0000
  Pt  Pt8       1.0  0.73009  0.23009  0.47668  1.0000
  Pt  Pt9       1.0  0.06342  0.56342  0.39334  1.0000
  Pt  Pt10      1.0  0.70649  0.39676  0.56001  1.0000
  Pt  Pt11      1.0  0.03982  0.73009  0.47668  1.0000
  Pt  Pt12      1.0  0.37316  0.06342  0.39334  1.0000
