data_image0
_chemical_formula_structural       Si2Ni2Si2Ni2Si2Ni2
_chemical_formula_sum              "Si6 Ni6"
_cell_length_a       3.21523
_cell_length_b       4.65627
_cell_length_c       30.3369
_cell_angle_alpha    90
_cell_angle_beta     90
_cell_angle_gamma    90

_space_group_name_H-M_alt    "P 1"
_space_group_IT_number       1

loop_
  _space_group_symop_operation_xyz
  'x, y, z'

loop_
  _atom_site_type_symbol
  _atom_site_label
  _atom_site_symmetry_multiplicity
  _atom_site_fract_x
  _atom_site_fract_y
  _atom_site_fract_z
  _atom_site_occupancy
  Si  Si1       1.0  0.00000  0.84343  0.42500  1.0000
  Si  Si2       1.0  0.50000  0.15657  0.37500  1.0000
  Ni  Ni1       1.0  0.00000  0.34244  0.42500  1.0000
  Ni  Ni2       1.0  0.50000  0.65756  0.37500  1.0000
  Si  Si3       1.0  0.00000  0.84343  0.52500  1.0000
  Si  Si4       1.0  0.50000  0.15657  0.47500  1.0000
  Ni  Ni3       1.0  0.00000  0.34244  0.52500  1.0000
  Ni  Ni4       1.0  0.50000  0.65756  0.47500  1.0000
  Si  Si5       1.0  0.00000  0.84343  0.62500  1.0000
  Si  Si6       1.0  0.50000  0.15657  0.57500  1.0000
  Ni  Ni5       1.0  0.00000  0.34244  0.62500  1.0000
  Ni  Ni6       1.0  0.50000  0.65756  0.57500  1.0000
