data_image0
_chemical_formula_structural       Cu4Ni4Sb8Cu4Ni4Sb8
_chemical_formula_sum              "Cu8 Ni8 Sb16"
_cell_length_a       7.0006
_cell_length_b       10.9117
_cell_length_c       32.3344
_cell_angle_alpha    100.673
_cell_angle_beta     90
_cell_angle_gamma    71.2896

_space_group_name_H-M_alt    "P 1"
_space_group_IT_number       1

loop_
  _space_group_symop_operation_xyz
  'x, y, z'

loop_
  _atom_site_type_symbol
  _atom_site_label
  _atom_site_symmetry_multiplicity
  _atom_site_fract_x
  _atom_site_fract_y
  _atom_site_fract_z
  _atom_site_occupancy
  Cu  Cu1       1.0  0.75000  0.50000  0.41797  1.0000
  Cu  Cu2       1.0  0.00000  0.00000  0.38672  1.0000
  Cu  Cu3       1.0  0.50000  0.00000  0.44922  1.0000
  Cu  Cu4       1.0  0.25000  0.50000  0.48047  1.0000
  Ni  Ni1       1.0  0.62500  0.75000  0.43359  1.0000
  Ni  Ni2       1.0  0.87500  0.25000  0.40234  1.0000
  Ni  Ni3       1.0  0.37500  0.25000  0.46484  1.0000
  Ni  Ni4       1.0  0.12500  0.75000  0.49609  1.0000
  Sb  Sb1       1.0  0.84812  0.63710  0.48904  1.0000
  Sb  Sb2       1.0  0.09812  0.13710  0.45779  1.0000
  Sb  Sb3       1.0  0.59812  0.13710  0.39529  1.0000
  Sb  Sb4       1.0  0.34812  0.63710  0.42654  1.0000
  Sb  Sb5       1.0  0.40188  0.86290  0.37815  1.0000
  Sb  Sb6       1.0  0.65188  0.36290  0.47190  1.0000
  Sb  Sb7       1.0  0.15188  0.36290  0.40940  1.0000
  Sb  Sb8       1.0  0.90188  0.86290  0.44065  1.0000
  Cu  Cu5       1.0  0.75000  0.50000  0.54297  1.0000
  Cu  Cu6       1.0  0.00000  0.00000  0.51172  1.0000
  Cu  Cu7       1.0  0.50000  0.00000  0.57422  1.0000
  Cu  Cu8       1.0  0.25000  0.50000  0.60547  1.0000
  Ni  Ni5       1.0  0.62500  0.75000  0.55859  1.0000
  Ni  Ni6       1.0  0.87500  0.25000  0.52734  1.0000
  Ni  Ni7       1.0  0.37500  0.25000  0.58984  1.0000
  Ni  Ni8       1.0  0.12500  0.75000  0.62109  1.0000
  Sb  Sb9       1.0  0.84812  0.63710  0.61404  1.0000
  Sb  Sb10      1.0  0.09812  0.13710  0.58279  1.0000
  Sb  Sb11      1.0  0.59812  0.13710  0.52029  1.0000
  Sb  Sb12      1.0  0.34812  0.63710  0.55154  1.0000
  Sb  Sb13      1.0  0.40188  0.86290  0.50315  1.0000
  Sb  Sb14      1.0  0.65188  0.36290  0.59690  1.0000
  Sb  Sb15      1.0  0.15188  0.36290  0.53440  1.0000
  Sb  Sb16      1.0  0.90188  0.86290  0.56565  1.0000
