data_image0
_chemical_formula_structural       Si12W6Si12W6
_chemical_formula_sum              "Si24 W12"
_cell_length_a       4.57673
_cell_length_b       13.9622
_cell_length_c       36.6138
_cell_angle_alpha    109.135
_cell_angle_beta     120
_cell_angle_gamma    80.5668

_space_group_name_H-M_alt    "P 1"
_space_group_IT_number       1

loop_
  _space_group_symop_operation_xyz
  'x, y, z'

loop_
  _atom_site_type_symbol
  _atom_site_label
  _atom_site_symmetry_multiplicity
  _atom_site_fract_x
  _atom_site_fract_y
  _atom_site_fract_z
  _atom_site_occupancy
  Si  Si1       1.0  0.83637  0.41667  0.44754  1.0000
  Si  Si2       1.0  0.83637  0.91667  0.38504  1.0000
  Si  Si3       1.0  0.16363  0.08333  0.42632  1.0000
  Si  Si4       1.0  0.16363  0.58333  0.48882  1.0000
  Si  Si5       1.0  0.67275  0.25000  0.38580  1.0000
  Si  Si6       1.0  0.67275  0.75000  0.44830  1.0000
  Si  Si7       1.0  0.16363  0.41667  0.40663  1.0000
  Si  Si8       1.0  0.16363  0.91667  0.46913  1.0000
  Si  Si9       1.0  0.83637  0.08333  0.46951  1.0000
  Si  Si10      1.0  0.83637  0.58333  0.40701  1.0000
  Si  Si11      1.0  0.32725  0.25000  0.42670  1.0000
  Si  Si12      1.0  0.32725  0.75000  0.48920  1.0000
  W   W1        1.0  0.00000  0.25000  0.46875  1.0000
  W   W2        1.0  0.00000  0.75000  0.40625  1.0000
  W   W3        1.0  0.50000  0.08333  0.38542  1.0000
  W   W4        1.0  0.50000  0.58333  0.44792  1.0000
  W   W5        1.0  0.50000  0.41667  0.48958  1.0000
  W   W6        1.0  0.50000  0.91667  0.42708  1.0000
  Si  Si13      1.0  0.83637  0.41667  0.57254  1.0000
  Si  Si14      1.0  0.83637  0.91667  0.51004  1.0000
  Si  Si15      1.0  0.16363  0.08333  0.55132  1.0000
  Si  Si16      1.0  0.16363  0.58333  0.61382  1.0000
  Si  Si17      1.0  0.67275  0.25000  0.51080  1.0000
  Si  Si18      1.0  0.67275  0.75000  0.57330  1.0000
  Si  Si19      1.0  0.16363  0.41667  0.53163  1.0000
  Si  Si20      1.0  0.16363  0.91667  0.59413  1.0000
  Si  Si21      1.0  0.83637  0.08333  0.59451  1.0000
  Si  Si22      1.0  0.83637  0.58333  0.53201  1.0000
  Si  Si23      1.0  0.32725  0.25000  0.55170  1.0000
  Si  Si24      1.0  0.32725  0.75000  0.61420  1.0000
  W   W7        1.0  0.00000  0.25000  0.59375  1.0000
  W   W8        1.0  0.00000  0.75000  0.53125  1.0000
  W   W9        1.0  0.50000  0.08333  0.51042  1.0000
  W   W10       1.0  0.50000  0.58333  0.57292  1.0000
  W   W11       1.0  0.50000  0.41667  0.61458  1.0000
  W   W12       1.0  0.50000  0.91667  0.55208  1.0000
