data_image0
_chemical_formula_structural       Ca4Zn4
_chemical_formula_sum              "Ca4 Zn4"
_cell_length_a       4.26007
_cell_length_b       5.99994
_cell_length_c       31.726
_cell_angle_alpha    89.9639
_cell_angle_beta     90
_cell_angle_gamma    90

_space_group_name_H-M_alt    "P 1"
_space_group_IT_number       1

loop_
  _space_group_symop_operation_xyz
  'x, y, z'

loop_
  _atom_site_type_symbol
  _atom_site_label
  _atom_site_symmetry_multiplicity
  _atom_site_fract_x
  _atom_site_fract_y
  _atom_site_fract_z
  _atom_site_occupancy
  Ca  Ca1       1.0  0.25000  0.31766  0.48698  1.0000
  Ca  Ca2       1.0  0.75000  0.80734  0.45052  1.0000
  Ca  Ca3       1.0  0.25000  0.06766  0.61198  1.0000
  Ca  Ca4       1.0  0.75000  0.55734  0.57552  1.0000
  Zn  Zn1       1.0  0.25000  0.07361  0.39811  1.0000
  Zn  Zn2       1.0  0.75000  0.30139  0.41439  1.0000
  Zn  Zn3       1.0  0.25000  0.82361  0.52311  1.0000
  Zn  Zn4       1.0  0.75000  0.05139  0.53939  1.0000
