data_image0
_chemical_formula_structural       Ga6Pt18
_chemical_formula_sum              "Ga6 Pt18"
_cell_length_a       5.52425
_cell_length_b       9.5032
_cell_length_c       28.4224
_cell_angle_alpha    96.2224
_cell_angle_beta     95.2356
_cell_angle_gamma    105.838

_space_group_name_H-M_alt    "P 1"
_space_group_IT_number       1

loop_
  _space_group_symop_operation_xyz
  'x, y, z'

loop_
  _atom_site_type_symbol
  _atom_site_label
  _atom_site_symmetry_multiplicity
  _atom_site_fract_x
  _atom_site_fract_y
  _atom_site_fract_z
  _atom_site_occupancy
  Ga  Ga1       1.0  0.50000  0.56250  0.43750  1.0000
  Ga  Ga2       1.0  0.83333  0.14583  0.52083  1.0000
  Ga  Ga3       1.0  0.16667  0.72917  0.60417  1.0000
  Ga  Ga4       1.0  0.16667  0.85417  0.47917  1.0000
  Ga  Ga5       1.0  0.50000  0.43750  0.56250  1.0000
  Ga  Ga6       1.0  0.83333  0.27083  0.39583  1.0000
  Pt  Pt1       1.0  0.33333  0.64583  0.52083  1.0000
  Pt  Pt2       1.0  0.66667  0.22917  0.60417  1.0000
  Pt  Pt3       1.0  0.00000  0.06250  0.43750  1.0000
  Pt  Pt4       1.0  0.33333  0.77083  0.39583  1.0000
  Pt  Pt5       1.0  0.66667  0.35417  0.47917  1.0000
  Pt  Pt6       1.0  0.00000  0.93750  0.56250  1.0000
  Pt  Pt7       1.0  0.63773  0.87949  0.48278  1.0000
  Pt  Pt8       1.0  0.97106  0.46282  0.56612  1.0000
  Pt  Pt9       1.0  0.30440  0.29615  0.39945  1.0000
  Pt  Pt10      1.0  0.69560  0.70385  0.60055  1.0000
  Pt  Pt11      1.0  0.02894  0.53718  0.43388  1.0000
  Pt  Pt12      1.0  0.36227  0.12051  0.51722  1.0000
  Pt  Pt13      1.0  0.83333  0.65669  0.50998  1.0000
  Pt  Pt14      1.0  0.16667  0.24002  0.59331  1.0000
  Pt  Pt15      1.0  0.50000  0.07335  0.42665  1.0000
  Pt  Pt16      1.0  0.50000  0.92665  0.57335  1.0000
  Pt  Pt17      1.0  0.83333  0.75998  0.40669  1.0000
  Pt  Pt18      1.0  0.16667  0.34331  0.49002  1.0000
