data_image0
_chemical_formula_structural       Co4As4Co4As4
_chemical_formula_sum              "Co8 As8"
_cell_length_a       3.42232
_cell_length_b       5.24425
_cell_length_c       34.48
_cell_angle_alpha    90
_cell_angle_beta     90
_cell_angle_gamma    90

_space_group_name_H-M_alt    "P 1"
_space_group_IT_number       1

loop_
  _space_group_symop_operation_xyz
  'x, y, z'

loop_
  _atom_site_type_symbol
  _atom_site_label
  _atom_site_symmetry_multiplicity
  _atom_site_fract_x
  _atom_site_fract_y
  _atom_site_fract_z
  _atom_site_occupancy
  Co  Co1       1.0  0.75000  0.49906  0.38373  1.0000
  Co  Co2       1.0  0.75000  0.99906  0.36627  1.0000
  Co  Co3       1.0  0.25000  0.50094  0.44960  1.0000
  Co  Co4       1.0  0.25000  0.00094  0.46706  1.0000
  As  As1       1.0  0.75000  0.79982  0.43141  1.0000
  As  As2       1.0  0.25000  0.70018  0.34808  1.0000
  As  As3       1.0  0.25000  0.20018  0.40192  1.0000
  As  As4       1.0  0.75000  0.29982  0.48525  1.0000
  Co  Co5       1.0  0.75000  0.49906  0.55040  1.0000
  Co  Co6       1.0  0.75000  0.99906  0.53294  1.0000
  Co  Co7       1.0  0.25000  0.50094  0.61627  1.0000
  Co  Co8       1.0  0.25000  0.00094  0.63373  1.0000
  As  As5       1.0  0.75000  0.79982  0.59808  1.0000
  As  As6       1.0  0.25000  0.70018  0.51475  1.0000
  As  As7       1.0  0.25000  0.20018  0.56859  1.0000
  As  As8       1.0  0.75000  0.29982  0.65192  1.0000
