data_image0
_chemical_formula_structural       Pb8Pd4
_chemical_formula_sum              "Pb8 Pd4"
_cell_length_a       5.66077
_cell_length_b       5.66077
_cell_length_c       35.5386
_cell_angle_alpha    86.3936
_cell_angle_beta     86.3936
_cell_angle_gamma    74.8619

_space_group_name_H-M_alt    "P 1"
_space_group_IT_number       1

loop_
  _space_group_symop_operation_xyz
  'x, y, z'

loop_
  _atom_site_type_symbol
  _atom_site_label
  _atom_site_symmetry_multiplicity
  _atom_site_fract_x
  _atom_site_fract_y
  _atom_site_fract_z
  _atom_site_occupancy
  Pb  Pb1       1.0  0.78616  0.45960  0.45876  1.0000
  Pb  Pb2       1.0  0.16116  0.83460  0.58376  1.0000
  Pb  Pb3       1.0  0.27210  0.59866  0.39626  1.0000
  Pb  Pb4       1.0  0.64710  0.97366  0.52126  1.0000
  Pb  Pb5       1.0  0.25551  0.58206  0.49958  1.0000
  Pb  Pb6       1.0  0.63051  0.95706  0.62458  1.0000
  Pb  Pb7       1.0  0.39456  0.06801  0.43708  1.0000
  Pb  Pb8       1.0  0.76956  0.44301  0.56208  1.0000
  Pd  Pd1       1.0  0.92708  0.92708  0.44792  1.0000
  Pd  Pd2       1.0  0.30208  0.30208  0.57292  1.0000
  Pd  Pd3       1.0  0.73958  0.73958  0.38542  1.0000
  Pd  Pd4       1.0  0.11458  0.11458  0.51042  1.0000
