data_image0
_chemical_formula_structural       Ga6Ni10
_chemical_formula_sum              "Ga6 Ni10"
_cell_length_a       3.67348
_cell_length_b       5.00568
_cell_length_c       39.8689
_cell_angle_alpha    91.5726
_cell_angle_beta     90
_cell_angle_gamma    90

_space_group_name_H-M_alt    "P 1"
_space_group_IT_number       1

loop_
  _space_group_symop_operation_xyz
  'x, y, z'

loop_
  _atom_site_type_symbol
  _atom_site_label
  _atom_site_symmetry_multiplicity
  _atom_site_fract_x
  _atom_site_fract_y
  _atom_site_fract_z
  _atom_site_occupancy
  Ga  Ga1       1.0  0.00000  0.45312  0.45312  1.0000
  Ga  Ga2       1.0  0.00000  0.57812  0.57812  1.0000
  Ga  Ga3       1.0  0.50000  0.26292  0.54310  1.0000
  Ga  Ga4       1.0  0.50000  0.13792  0.41810  1.0000
  Ga  Ga5       1.0  0.50000  0.89333  0.61315  1.0000
  Ga  Ga6       1.0  0.50000  0.76833  0.48815  1.0000
  Ni  Ni1       1.0  0.00000  0.89062  0.39062  1.0000
  Ni  Ni2       1.0  0.00000  0.01562  0.51562  1.0000
  Ni  Ni3       1.0  0.00000  0.07812  0.57812  1.0000
  Ni  Ni4       1.0  0.00000  0.95312  0.45312  1.0000
  Ni  Ni5       1.0  0.00000  0.39062  0.39062  1.0000
  Ni  Ni6       1.0  0.00000  0.51562  0.51562  1.0000
  Ni  Ni7       1.0  0.50000  0.37894  0.60658  1.0000
  Ni  Ni8       1.0  0.50000  0.25394  0.48158  1.0000
  Ni  Ni9       1.0  0.50000  0.65231  0.42467  1.0000
  Ni  Ni10      1.0  0.50000  0.77731  0.54967  1.0000
