data_image0
_chemical_formula_structural       Pd4Ti8
_chemical_formula_sum              "Pd4 Ti8"
_cell_length_a       4.34336
_cell_length_b       5.36419
_cell_length_c       31.8365
_cell_angle_alpha    93.6475
_cell_angle_beta     90
_cell_angle_gamma    90

_space_group_name_H-M_alt    "P 1"
_space_group_IT_number       1

loop_
  _space_group_symop_operation_xyz
  'x, y, z'

loop_
  _atom_site_type_symbol
  _atom_site_label
  _atom_site_symmetry_multiplicity
  _atom_site_fract_x
  _atom_site_fract_y
  _atom_site_fract_z
  _atom_site_occupancy
  Pd  Pd1       1.0  0.00000  0.53125  0.51042  1.0000
  Pd  Pd2       1.0  0.50000  0.71875  0.57292  1.0000
  Pd  Pd3       1.0  0.00000  0.15625  0.38542  1.0000
  Pd  Pd4       1.0  0.50000  0.34375  0.44792  1.0000
  Ti  Ti1       1.0  0.00000  0.98622  0.55234  1.0000
  Ti  Ti2       1.0  0.50000  0.17372  0.61484  1.0000
  Ti  Ti3       1.0  0.00000  0.45128  0.59349  1.0000
  Ti  Ti4       1.0  0.50000  0.26378  0.53099  1.0000
  Ti  Ti5       1.0  0.00000  0.61122  0.42734  1.0000
  Ti  Ti6       1.0  0.50000  0.79872  0.48984  1.0000
  Ti  Ti7       1.0  0.00000  0.07628  0.46849  1.0000
  Ti  Ti8       1.0  0.50000  0.88878  0.40599  1.0000
