data_image0
_chemical_formula_structural       V18Ga6
_chemical_formula_sum              "V18 Ga6"
_cell_length_a       6.66099
_cell_length_b       6.66099
_cell_length_c       32.6321
_cell_angle_alpha    90
_cell_angle_beta     90
_cell_angle_gamma    60

_space_group_name_H-M_alt    "P 1"
_space_group_IT_number       1

loop_
  _space_group_symop_operation_xyz
  'x, y, z'

loop_
  _atom_site_type_symbol
  _atom_site_label
  _atom_site_symmetry_multiplicity
  _atom_site_fract_x
  _atom_site_fract_y
  _atom_site_fract_z
  _atom_site_occupancy
  V   V1        1.0  0.66667  0.41667  0.51562  1.0000
  V   V2        1.0  0.00000  0.75000  0.43229  1.0000
  V   V3        1.0  0.33333  0.08333  0.59896  1.0000
  V   V4        1.0  0.00000  0.25000  0.55729  1.0000
  V   V5        1.0  0.33333  0.58333  0.47396  1.0000
  V   V6        1.0  0.66667  0.91667  0.39062  1.0000
  V   V7        1.0  0.41667  0.91667  0.51562  1.0000
  V   V8        1.0  0.75000  0.25000  0.43229  1.0000
  V   V9        1.0  0.08333  0.58333  0.59896  1.0000
  V   V10       1.0  0.25000  0.75000  0.55729  1.0000
  V   V11       1.0  0.58333  0.08333  0.47396  1.0000
  V   V12       1.0  0.91667  0.41667  0.39062  1.0000
  V   V13       1.0  0.91667  0.66667  0.51562  1.0000
  V   V14       1.0  0.25000  0.00000  0.43229  1.0000
  V   V15       1.0  0.58333  0.33333  0.59896  1.0000
  V   V16       1.0  0.75000  0.00000  0.55729  1.0000
  V   V17       1.0  0.08333  0.33333  0.47396  1.0000
  V   V18       1.0  0.41667  0.66667  0.39062  1.0000
  Ga  Ga1       1.0  0.66667  0.66667  0.57812  1.0000
  Ga  Ga2       1.0  0.00000  0.00000  0.49479  1.0000
  Ga  Ga3       1.0  0.33333  0.33333  0.41146  1.0000
  Ga  Ga4       1.0  0.66667  0.66667  0.45312  1.0000
  Ga  Ga5       1.0  0.00000  0.00000  0.61979  1.0000
  Ga  Ga6       1.0  0.33333  0.33333  0.53646  1.0000
