data_image0
_chemical_formula_structural       H8V16
_chemical_formula_sum              "H8 V16"
_cell_length_a       5.25644
_cell_length_b       5.25644
_cell_length_c       32.8426
_cell_angle_alpha    90
_cell_angle_beta     90
_cell_angle_gamma    102.706

_space_group_name_H-M_alt    "P 1"
_space_group_IT_number       1

loop_
  _space_group_symop_operation_xyz
  'x, y, z'

loop_
  _atom_site_type_symbol
  _atom_site_label
  _atom_site_symmetry_multiplicity
  _atom_site_fract_x
  _atom_site_fract_y
  _atom_site_fract_z
  _atom_site_occupancy
  H   H1        1.0  0.00000  0.75000  0.59375  1.0000
  H   H2        1.0  0.50000  0.25000  0.46875  1.0000
  H   H3        1.0  0.75000  0.50000  0.53125  1.0000
  H   H4        1.0  0.25000  0.00000  0.40625  1.0000
  H   H5        1.0  0.00000  0.25000  0.59375  1.0000
  H   H6        1.0  0.50000  0.75000  0.46875  1.0000
  H   H7        1.0  0.25000  0.50000  0.53125  1.0000
  H   H8        1.0  0.75000  0.00000  0.40625  1.0000
  V   V1        1.0  0.98010  0.23164  0.53144  1.0000
  V   V2        1.0  0.48010  0.73164  0.40644  1.0000
  V   V3        1.0  0.73164  0.98010  0.59394  1.0000
  V   V4        1.0  0.23164  0.48010  0.46894  1.0000
  V   V5        1.0  0.98010  0.73164  0.40606  1.0000
  V   V6        1.0  0.48010  0.23164  0.53106  1.0000
  V   V7        1.0  0.73164  0.48010  0.59356  1.0000
  V   V8        1.0  0.23164  0.98010  0.46856  1.0000
  V   V9        1.0  0.51990  0.76836  0.53106  1.0000
  V   V10       1.0  0.01990  0.26836  0.40606  1.0000
  V   V11       1.0  0.26836  0.51990  0.59356  1.0000
  V   V12       1.0  0.76836  0.01990  0.46856  1.0000
  V   V13       1.0  0.01990  0.76836  0.53144  1.0000
  V   V14       1.0  0.51990  0.26836  0.40644  1.0000
  V   V15       1.0  0.26836  0.01990  0.59394  1.0000
  V   V16       1.0  0.76836  0.51990  0.46894  1.0000
