data_image0
_chemical_formula_structural       Sn16Au4Sn16Au4
_chemical_formula_sum              "Sn32 Au8"
_cell_length_a       6.55099
_cell_length_b       13.3436
_cell_length_c       39.1638
_cell_angle_alpha    60.7139
_cell_angle_beta     90
_cell_angle_gamma    90

_space_group_name_H-M_alt    "P 1"
_space_group_IT_number       1

loop_
  _space_group_symop_operation_xyz
  'x, y, z'

loop_
  _atom_site_type_symbol
  _atom_site_label
  _atom_site_symmetry_multiplicity
  _atom_site_fract_x
  _atom_site_fract_y
  _atom_site_fract_z
  _atom_site_occupancy
  Sn  Sn1       1.0  0.33993  0.62650  0.42614  1.0000
  Sn  Sn2       1.0  0.66007  0.62650  0.48170  1.0000
  Sn  Sn3       1.0  0.83993  0.62650  0.39836  1.0000
  Sn  Sn4       1.0  0.16007  0.62650  0.34280  1.0000
  Sn  Sn5       1.0  0.66007  0.87350  0.35720  1.0000
  Sn  Sn6       1.0  0.33993  0.87350  0.46830  1.0000
  Sn  Sn7       1.0  0.16007  0.87350  0.38497  1.0000
  Sn  Sn8       1.0  0.83993  0.87350  0.44053  1.0000
  Sn  Sn9       1.0  0.83993  0.12650  0.34280  1.0000
  Sn  Sn10      1.0  0.16007  0.12650  0.39836  1.0000
  Sn  Sn11      1.0  0.33993  0.12650  0.48170  1.0000
  Sn  Sn12      1.0  0.66007  0.12650  0.42614  1.0000
  Sn  Sn13      1.0  0.16007  0.37350  0.44053  1.0000
  Sn  Sn14      1.0  0.83993  0.37350  0.38497  1.0000
  Sn  Sn15      1.0  0.66007  0.37350  0.46830  1.0000
  Sn  Sn16      1.0  0.33993  0.37350  0.35720  1.0000
  Au  Au1       1.0  0.50000  0.00000  0.39167  1.0000
  Au  Au2       1.0  0.00000  0.00000  0.47500  1.0000
  Au  Au3       1.0  0.00000  0.50000  0.47500  1.0000
  Au  Au4       1.0  0.50000  0.50000  0.39167  1.0000
  Sn  Sn17      1.0  0.33993  0.62650  0.59280  1.0000
  Sn  Sn18      1.0  0.66007  0.62650  0.64836  1.0000
  Sn  Sn19      1.0  0.83993  0.62650  0.56503  1.0000
  Sn  Sn20      1.0  0.16007  0.62650  0.50947  1.0000
  Sn  Sn21      1.0  0.66007  0.87350  0.52386  1.0000
  Sn  Sn22      1.0  0.33993  0.87350  0.63497  1.0000
  Sn  Sn23      1.0  0.16007  0.87350  0.55164  1.0000
  Sn  Sn24      1.0  0.83993  0.87350  0.60720  1.0000
  Sn  Sn25      1.0  0.83993  0.12650  0.50947  1.0000
  Sn  Sn26      1.0  0.16007  0.12650  0.56503  1.0000
  Sn  Sn27      1.0  0.33993  0.12650  0.64836  1.0000
  Sn  Sn28      1.0  0.66007  0.12650  0.59280  1.0000
  Sn  Sn29      1.0  0.16007  0.37350  0.60720  1.0000
  Sn  Sn30      1.0  0.83993  0.37350  0.55164  1.0000
  Sn  Sn31      1.0  0.66007  0.37350  0.63497  1.0000
  Sn  Sn32      1.0  0.33993  0.37350  0.52386  1.0000
  Au  Au5       1.0  0.50000  0.00000  0.55833  1.0000
  Au  Au6       1.0  0.00000  0.00000  0.64167  1.0000
  Au  Au7       1.0  0.00000  0.50000  0.64167  1.0000
  Au  Au8       1.0  0.50000  0.50000  0.55833  1.0000
