data_image0
_chemical_formula_structural       Al8Cu8
_chemical_formula_sum              "Al8 Cu8"
_cell_length_a       4.18416
_cell_length_b       5.12452
_cell_length_c       33.8632
_cell_angle_alpha    92.8914
_cell_angle_beta     90
_cell_angle_gamma    90

_space_group_name_H-M_alt    "P 1"
_space_group_IT_number       1

loop_
  _space_group_symop_operation_xyz
  'x, y, z'

loop_
  _atom_site_type_symbol
  _atom_site_label
  _atom_site_symmetry_multiplicity
  _atom_site_fract_x
  _atom_site_fract_y
  _atom_site_fract_z
  _atom_site_occupancy
  Al  Al1       1.0  0.00000  0.03571  0.48214  1.0000
  Al  Al2       1.0  0.50000  0.00000  0.37500  1.0000
  Al  Al3       1.0  0.00000  0.67857  0.41071  1.0000
  Al  Al4       1.0  0.50000  0.35714  0.44643  1.0000
  Al  Al5       1.0  0.00000  0.75000  0.62500  1.0000
  Al  Al6       1.0  0.50000  0.71429  0.51786  1.0000
  Al  Al7       1.0  0.00000  0.39286  0.55357  1.0000
  Al  Al8       1.0  0.50000  0.07143  0.58929  1.0000
  Cu  Cu1       1.0  0.00000  0.17857  0.41071  1.0000
  Cu  Cu2       1.0  0.50000  0.85714  0.44643  1.0000
  Cu  Cu3       1.0  0.00000  0.53571  0.48214  1.0000
  Cu  Cu4       1.0  0.50000  0.50000  0.37500  1.0000
  Cu  Cu5       1.0  0.00000  0.89286  0.55357  1.0000
  Cu  Cu6       1.0  0.50000  0.57143  0.58929  1.0000
  Cu  Cu7       1.0  0.00000  0.25000  0.62500  1.0000
  Cu  Cu8       1.0  0.50000  0.21429  0.51786  1.0000
