data_image0
_chemical_formula_structural       Al8Cu24
_chemical_formula_sum              "Al8 Cu24"
_cell_length_a       6.12433
_cell_length_b       9.82703
_cell_length_c       31.9403
_cell_angle_alpha    96.5155
_cell_angle_beta     87.2466
_cell_angle_gamma    54.255

_space_group_name_H-M_alt    "P 1"
_space_group_IT_number       1

loop_
  _space_group_symop_operation_xyz
  'x, y, z'

loop_
  _atom_site_type_symbol
  _atom_site_label
  _atom_site_symmetry_multiplicity
  _atom_site_fract_x
  _atom_site_fract_y
  _atom_site_fract_z
  _atom_site_occupancy
  Al  Al1       1.0  0.24992  0.58336  0.46354  1.0000
  Al  Al2       1.0  0.99992  0.33336  0.52604  1.0000
  Al  Al3       1.0  0.49992  0.83336  0.40104  1.0000
  Al  Al4       1.0  0.74992  0.08336  0.58854  1.0000
  Al  Al5       1.0  0.62508  0.79164  0.53646  1.0000
  Al  Al6       1.0  0.37508  0.54164  0.59896  1.0000
  Al  Al7       1.0  0.87508  0.04164  0.47396  1.0000
  Al  Al8       1.0  0.12508  0.29164  0.41146  1.0000
  Cu  Cu1       1.0  0.00067  0.83311  0.52610  1.0000
  Cu  Cu2       1.0  0.75067  0.58311  0.58860  1.0000
  Cu  Cu3       1.0  0.25067  0.08311  0.46360  1.0000
  Cu  Cu4       1.0  0.50067  0.33311  0.40110  1.0000
  Cu  Cu5       1.0  0.87433  0.54189  0.47390  1.0000
  Cu  Cu6       1.0  0.62433  0.29189  0.53640  1.0000
  Cu  Cu7       1.0  0.12433  0.79189  0.41140  1.0000
  Cu  Cu8       1.0  0.37433  0.04189  0.59890  1.0000
  Cu  Cu9       1.0  0.74879  0.83407  0.46361  1.0000
  Cu  Cu10      1.0  0.49879  0.58407  0.52611  1.0000
  Cu  Cu11      1.0  0.99879  0.08407  0.40111  1.0000
  Cu  Cu12      1.0  0.24879  0.33407  0.58861  1.0000
  Cu  Cu13      1.0  0.49978  0.08308  0.52586  1.0000
  Cu  Cu14      1.0  0.24978  0.83308  0.58836  1.0000
  Cu  Cu15      1.0  0.74978  0.33308  0.46336  1.0000
  Cu  Cu16      1.0  0.99978  0.58308  0.40086  1.0000
  Cu  Cu17      1.0  0.12621  0.54093  0.53639  1.0000
  Cu  Cu18      1.0  0.87621  0.29093  0.59889  1.0000
  Cu  Cu19      1.0  0.37621  0.79093  0.47389  1.0000
  Cu  Cu20      1.0  0.62621  0.04093  0.41139  1.0000
  Cu  Cu21      1.0  0.87522  0.79192  0.59914  1.0000
  Cu  Cu22      1.0  0.62522  0.54192  0.41164  1.0000
  Cu  Cu23      1.0  0.12522  0.04192  0.53664  1.0000
  Cu  Cu24      1.0  0.37522  0.29192  0.47414  1.0000
