data_image0
_chemical_formula_structural       Al15Cu10Al15Cu10
_chemical_formula_sum              "Al30 Cu20"
_cell_length_a       10.8517
_cell_length_b       6.45663
_cell_length_c       38.7398
_cell_angle_alpha    66.753
_cell_angle_beta     83.105
_cell_angle_gamma    61.3015

_space_group_name_H-M_alt    "P 1"
_space_group_IT_number       1

loop_
  _space_group_symop_operation_xyz
  'x, y, z'

loop_
  _atom_site_type_symbol
  _atom_site_label
  _atom_site_symmetry_multiplicity
  _atom_site_fract_x
  _atom_site_fract_y
  _atom_site_fract_z
  _atom_site_occupancy
  Al  Al1       1.0  0.40000  0.80000  0.35000  1.0000
  Al  Al2       1.0  0.80000  0.60000  0.38333  1.0000
  Al  Al3       1.0  0.00000  0.00000  0.48333  1.0000
  Al  Al4       1.0  0.20000  0.40000  0.41667  1.0000
  Al  Al5       1.0  0.60000  0.20000  0.45000  1.0000
  Al  Al6       1.0  0.52959  0.74455  0.41791  1.0000
  Al  Al7       1.0  0.92959  0.54455  0.45125  1.0000
  Al  Al8       1.0  0.12959  0.94455  0.38458  1.0000
  Al  Al9       1.0  0.32959  0.34455  0.48458  1.0000
  Al  Al10      1.0  0.72959  0.14455  0.35125  1.0000
  Al  Al11      1.0  0.27041  0.85545  0.44875  1.0000
  Al  Al12      1.0  0.67041  0.65545  0.48209  1.0000
  Al  Al13      1.0  0.87041  0.05545  0.41542  1.0000
  Al  Al14      1.0  0.07041  0.45545  0.34875  1.0000
  Al  Al15      1.0  0.47041  0.25545  0.38209  1.0000
  Cu  Cu1       1.0  0.43183  0.03785  0.45050  1.0000
  Cu  Cu2       1.0  0.83183  0.83785  0.48384  1.0000
  Cu  Cu3       1.0  0.03183  0.23785  0.41717  1.0000
  Cu  Cu4       1.0  0.23183  0.63785  0.35050  1.0000
  Cu  Cu5       1.0  0.63183  0.43785  0.38384  1.0000
  Cu  Cu6       1.0  0.36817  0.56215  0.41616  1.0000
  Cu  Cu7       1.0  0.76817  0.36215  0.44950  1.0000
  Cu  Cu8       1.0  0.96817  0.76215  0.38283  1.0000
  Cu  Cu9       1.0  0.16817  0.16215  0.48283  1.0000
  Cu  Cu10      1.0  0.56817  0.96215  0.34950  1.0000
  Al  Al16      1.0  0.40000  0.80000  0.51667  1.0000
  Al  Al17      1.0  0.80000  0.60000  0.55000  1.0000
  Al  Al18      1.0  0.00000  0.00000  0.65000  1.0000
  Al  Al19      1.0  0.20000  0.40000  0.58333  1.0000
  Al  Al20      1.0  0.60000  0.20000  0.61667  1.0000
  Al  Al21      1.0  0.52959  0.74455  0.58458  1.0000
  Al  Al22      1.0  0.92959  0.54455  0.61791  1.0000
  Al  Al23      1.0  0.12959  0.94455  0.55125  1.0000
  Al  Al24      1.0  0.32959  0.34455  0.65125  1.0000
  Al  Al25      1.0  0.72959  0.14455  0.51791  1.0000
  Al  Al26      1.0  0.27041  0.85545  0.61542  1.0000
  Al  Al27      1.0  0.67041  0.65545  0.64875  1.0000
  Al  Al28      1.0  0.87041  0.05545  0.58209  1.0000
  Al  Al29      1.0  0.07041  0.45545  0.51542  1.0000
  Al  Al30      1.0  0.47041  0.25545  0.54875  1.0000
  Cu  Cu11      1.0  0.43183  0.03785  0.61717  1.0000
  Cu  Cu12      1.0  0.83183  0.83785  0.65050  1.0000
  Cu  Cu13      1.0  0.03183  0.23785  0.58384  1.0000
  Cu  Cu14      1.0  0.23183  0.63785  0.51717  1.0000
  Cu  Cu15      1.0  0.63183  0.43785  0.55050  1.0000
  Cu  Cu16      1.0  0.36817  0.56215  0.58283  1.0000
  Cu  Cu17      1.0  0.76817  0.36215  0.61616  1.0000
  Cu  Cu18      1.0  0.96817  0.76215  0.54950  1.0000
  Cu  Cu19      1.0  0.16817  0.16215  0.64950  1.0000
  Cu  Cu20      1.0  0.56817  0.96215  0.51616  1.0000
