data_image0
_chemical_formula_structural       Al15Cu15
_chemical_formula_sum              "Al15 Cu15"
_cell_length_a       4.05813
_cell_length_b       6.31856
_cell_length_c       50.5847
_cell_angle_alpha    90.5929
_cell_angle_beta     90
_cell_angle_gamma    108.731

_space_group_name_H-M_alt    "P 1"
_space_group_IT_number       1

loop_
  _space_group_symop_operation_xyz
  'x, y, z'

loop_
  _atom_site_type_symbol
  _atom_site_label
  _atom_site_symmetry_multiplicity
  _atom_site_fract_x
  _atom_site_fract_y
  _atom_site_fract_z
  _atom_site_occupancy
  Al  Al1       1.0  0.33333  0.66667  0.59444  1.0000
  Al  Al2       1.0  0.00000  0.00000  0.48333  1.0000
  Al  Al3       1.0  0.66667  0.33333  0.37222  1.0000
  Al  Al4       1.0  0.66426  0.32851  0.59016  1.0000
  Al  Al5       1.0  0.33092  0.66185  0.47905  1.0000
  Al  Al6       1.0  0.99759  0.99518  0.36794  1.0000
  Al  Al7       1.0  0.66908  0.33815  0.48762  1.0000
  Al  Al8       1.0  0.33574  0.67149  0.37651  1.0000
  Al  Al9       1.0  0.00241  0.00482  0.59873  1.0000
  Al  Al10      1.0  0.62034  0.24069  0.64952  1.0000
  Al  Al11      1.0  0.28701  0.57402  0.53841  1.0000
  Al  Al12      1.0  0.95368  0.90735  0.42730  1.0000
  Al  Al13      1.0  0.71299  0.42598  0.42825  1.0000
  Al  Al14      1.0  0.37966  0.75931  0.65048  1.0000
  Al  Al15      1.0  0.04632  0.09265  0.53936  1.0000
  Cu  Cu1       1.0  0.00000  0.00000  0.65000  1.0000
  Cu  Cu2       1.0  0.66667  0.33333  0.53889  1.0000
  Cu  Cu3       1.0  0.33333  0.66667  0.42778  1.0000
  Cu  Cu4       1.0  0.15558  0.31116  0.45451  1.0000
  Cu  Cu5       1.0  0.82225  0.64450  0.34340  1.0000
  Cu  Cu6       1.0  0.48891  0.97783  0.56562  1.0000
  Cu  Cu7       1.0  0.17775  0.35550  0.62327  1.0000
  Cu  Cu8       1.0  0.84442  0.68884  0.51216  1.0000
  Cu  Cu9       1.0  0.51109  0.02217  0.40105  1.0000
  Cu  Cu10      1.0  0.81500  0.63000  0.62465  1.0000
  Cu  Cu11      1.0  0.48167  0.96334  0.51354  1.0000
  Cu  Cu12      1.0  0.14834  0.29667  0.40243  1.0000
  Cu  Cu13      1.0  0.51833  0.03666  0.45313  1.0000
  Cu  Cu14      1.0  0.18500  0.37000  0.34202  1.0000
  Cu  Cu15      1.0  0.85166  0.70333  0.56424  1.0000
