data_image0
_chemical_formula_structural       Al15Cu15
_chemical_formula_sum              "Al15 Cu15"
_cell_length_a       6.3191
_cell_length_b       7.96763
_cell_length_c       34.1435
_cell_angle_alpha    91.0099
_cell_angle_beta     90.0511
_cell_angle_gamma    107.663

_space_group_name_H-M_alt    "P 1"
_space_group_IT_number       1

loop_
  _space_group_symop_operation_xyz
  'x, y, z'

loop_
  _atom_site_type_symbol
  _atom_site_label
  _atom_site_symmetry_multiplicity
  _atom_site_fract_x
  _atom_site_fract_y
  _atom_site_fract_z
  _atom_site_occupancy
  Al  Al1       1.0  0.26667  0.16667  0.48333  1.0000
  Al  Al2       1.0  0.93333  0.83333  0.56667  1.0000
  Al  Al3       1.0  0.60000  0.50000  0.40000  1.0000
  Al  Al4       1.0  0.95664  0.81807  0.48273  1.0000
  Al  Al5       1.0  0.62330  0.48473  0.56606  1.0000
  Al  Al6       1.0  0.28997  0.15140  0.39940  1.0000
  Al  Al7       1.0  0.57670  0.51527  0.48394  1.0000
  Al  Al8       1.0  0.24336  0.18193  0.56727  1.0000
  Al  Al9       1.0  0.91003  0.84860  0.40060  1.0000
  Al  Al10      1.0  0.55653  0.95225  0.47175  1.0000
  Al  Al11      1.0  0.22319  0.61892  0.55509  1.0000
  Al  Al12      1.0  0.88986  0.28559  0.38842  1.0000
  Al  Al13      1.0  0.97681  0.38108  0.49491  1.0000
  Al  Al14      1.0  0.64347  0.04775  0.57825  1.0000
  Al  Al15      1.0  0.31014  0.71441  0.41158  1.0000
  Cu  Cu1       1.0  0.93333  0.33333  0.56667  1.0000
  Cu  Cu2       1.0  0.60000  0.00000  0.40000  1.0000
  Cu  Cu3       1.0  0.26667  0.66667  0.48333  1.0000
  Cu  Cu4       1.0  0.92853  0.56911  0.43890  1.0000
  Cu  Cu5       1.0  0.59519  0.23578  0.52223  1.0000
  Cu  Cu6       1.0  0.26186  0.90244  0.60556  1.0000
  Cu  Cu7       1.0  0.93814  0.09756  0.44444  1.0000
  Cu  Cu8       1.0  0.60481  0.76422  0.52777  1.0000
  Cu  Cu9       1.0  0.27147  0.43089  0.61110  1.0000
  Cu  Cu10      1.0  0.90043  0.07229  0.52042  1.0000
  Cu  Cu11      1.0  0.56709  0.73896  0.60375  1.0000
  Cu  Cu12      1.0  0.23376  0.40562  0.43708  1.0000
  Cu  Cu13      1.0  0.63291  0.26104  0.44625  1.0000
  Cu  Cu14      1.0  0.29957  0.92771  0.52958  1.0000
  Cu  Cu15      1.0  0.96624  0.59438  0.61292  1.0000
