data_image0
_chemical_formula_structural       Al10Cu10Al10Cu10
_chemical_formula_sum              "Al20 Cu20"
_cell_length_a       4.05813
_cell_length_b       9.80955
_cell_length_c       34.2836
_cell_angle_alpha    90.0058
_cell_angle_beta     90
_cell_angle_gamma    90

_space_group_name_H-M_alt    "P 1"
_space_group_IT_number       1

loop_
  _space_group_symop_operation_xyz
  'x, y, z'

loop_
  _atom_site_type_symbol
  _atom_site_label
  _atom_site_symmetry_multiplicity
  _atom_site_fract_x
  _atom_site_fract_y
  _atom_site_fract_z
  _atom_site_occupancy
  Al  Al1       1.0  0.50000  0.00000  0.38000  1.0000
  Al  Al2       1.0  0.00000  0.84378  0.34104  1.0000
  Al  Al3       1.0  0.00000  0.15622  0.41896  1.0000
  Al  Al4       1.0  0.00000  0.62177  0.40350  1.0000
  Al  Al5       1.0  0.00000  0.37823  0.35650  1.0000
  Al  Al6       1.0  0.00000  0.50000  0.48000  1.0000
  Al  Al7       1.0  0.50000  0.34378  0.44104  1.0000
  Al  Al8       1.0  0.50000  0.65622  0.31896  1.0000
  Al  Al9       1.0  0.50000  0.12177  0.30350  1.0000
  Al  Al10      1.0  0.50000  0.87823  0.45650  1.0000
  Cu  Cu1       1.0  0.00000  0.00000  0.48000  1.0000
  Cu  Cu2       1.0  0.50000  0.24205  0.37653  1.0000
  Cu  Cu3       1.0  0.50000  0.75795  0.38347  1.0000
  Cu  Cu4       1.0  0.00000  0.89105  0.41258  1.0000
  Cu  Cu5       1.0  0.00000  0.10895  0.34742  1.0000
  Cu  Cu6       1.0  0.50000  0.50000  0.38000  1.0000
  Cu  Cu7       1.0  0.00000  0.74205  0.47653  1.0000
  Cu  Cu8       1.0  0.00000  0.25795  0.48347  1.0000
  Cu  Cu9       1.0  0.50000  0.39105  0.31258  1.0000
  Cu  Cu10      1.0  0.50000  0.60895  0.44742  1.0000
  Al  Al11      1.0  0.50000  0.00000  0.58000  1.0000
  Al  Al12      1.0  0.00000  0.84378  0.54104  1.0000
  Al  Al13      1.0  0.00000  0.15622  0.61896  1.0000
  Al  Al14      1.0  0.00000  0.62177  0.60350  1.0000
  Al  Al15      1.0  0.00000  0.37823  0.55650  1.0000
  Al  Al16      1.0  0.00000  0.50000  0.68000  1.0000
  Al  Al17      1.0  0.50000  0.34378  0.64104  1.0000
  Al  Al18      1.0  0.50000  0.65622  0.51896  1.0000
  Al  Al19      1.0  0.50000  0.12177  0.50350  1.0000
  Al  Al20      1.0  0.50000  0.87823  0.65650  1.0000
  Cu  Cu11      1.0  0.00000  0.00000  0.68000  1.0000
  Cu  Cu12      1.0  0.50000  0.24205  0.57653  1.0000
  Cu  Cu13      1.0  0.50000  0.75795  0.58347  1.0000
  Cu  Cu14      1.0  0.00000  0.89105  0.61258  1.0000
  Cu  Cu15      1.0  0.00000  0.10895  0.54742  1.0000
  Cu  Cu16      1.0  0.50000  0.50000  0.58000  1.0000
  Cu  Cu17      1.0  0.00000  0.74205  0.67653  1.0000
  Cu  Cu18      1.0  0.00000  0.25795  0.68347  1.0000
  Cu  Cu19      1.0  0.50000  0.39105  0.51258  1.0000
  Cu  Cu20      1.0  0.50000  0.60895  0.64742  1.0000
