data_image0
_chemical_formula_structural       Al20Cu20
_chemical_formula_sum              "Al20 Cu20"
_cell_length_a       6.3191
_cell_length_b       10.6249
_cell_length_c       32.7331
_cell_angle_alpha    88.4705
_cell_angle_beta     87.9955
_cell_angle_gamma    83.9792

_space_group_name_H-M_alt    "P 1"
_space_group_IT_number       1

loop_
  _space_group_symop_operation_xyz
  'x, y, z'

loop_
  _atom_site_type_symbol
  _atom_site_label
  _atom_site_symmetry_multiplicity
  _atom_site_fract_x
  _atom_site_fract_y
  _atom_site_fract_z
  _atom_site_occupancy
  Al  Al1       1.0  0.23750  0.37188  0.50312  1.0000
  Al  Al2       1.0  0.48750  0.05937  0.56563  1.0000
  Al  Al3       1.0  0.98750  0.68437  0.44062  1.0000
  Al  Al4       1.0  0.73750  0.99688  0.37812  1.0000
  Al  Al5       1.0  0.01462  0.61093  0.52551  1.0000
  Al  Al6       1.0  0.26462  0.29843  0.58801  1.0000
  Al  Al7       1.0  0.76462  0.92343  0.46301  1.0000
  Al  Al8       1.0  0.51462  0.23593  0.40051  1.0000
  Al  Al9       1.0  0.46038  0.13282  0.48074  1.0000
  Al  Al10      1.0  0.71038  0.82032  0.54324  1.0000
  Al  Al11      1.0  0.21038  0.44532  0.41824  1.0000
  Al  Al12      1.0  0.96038  0.50782  0.60574  1.0000
  Al  Al13      1.0  0.58096  0.50770  0.52811  1.0000
  Al  Al14      1.0  0.83096  0.19520  0.59061  1.0000
  Al  Al15      1.0  0.33096  0.82020  0.46561  1.0000
  Al  Al16      1.0  0.08096  0.13270  0.40311  1.0000
  Al  Al17      1.0  0.89404  0.23605  0.47814  1.0000
  Al  Al18      1.0  0.14404  0.92355  0.54064  1.0000
  Al  Al19      1.0  0.64404  0.54855  0.41564  1.0000
  Al  Al20      1.0  0.39404  0.61105  0.60314  1.0000
  Cu  Cu1       1.0  0.86250  0.34063  0.40938  1.0000
  Cu  Cu2       1.0  0.11250  0.02812  0.47187  1.0000
  Cu  Cu3       1.0  0.61250  0.40313  0.59688  1.0000
  Cu  Cu4       1.0  0.36250  0.71562  0.53438  1.0000
  Cu  Cu5       1.0  0.79875  0.05076  0.52241  1.0000
  Cu  Cu6       1.0  0.04875  0.73826  0.58491  1.0000
  Cu  Cu7       1.0  0.54875  0.36326  0.45991  1.0000
  Cu  Cu8       1.0  0.29875  0.67576  0.39741  1.0000
  Cu  Cu9       1.0  0.92625  0.38049  0.54634  1.0000
  Cu  Cu10      1.0  0.17625  0.06799  0.60884  1.0000
  Cu  Cu11      1.0  0.67625  0.69299  0.48384  1.0000
  Cu  Cu12      1.0  0.42625  0.00549  0.42134  1.0000
  Cu  Cu13      1.0  0.89486  0.47384  0.47194  1.0000
  Cu  Cu14      1.0  0.14486  0.16134  0.53444  1.0000
  Cu  Cu15      1.0  0.64486  0.78634  0.40944  1.0000
  Cu  Cu16      1.0  0.39486  0.84884  0.59694  1.0000
  Cu  Cu17      1.0  0.58014  0.26991  0.53431  1.0000
  Cu  Cu18      1.0  0.83014  0.95741  0.59681  1.0000
  Cu  Cu19      1.0  0.33014  0.58241  0.47181  1.0000
  Cu  Cu20      1.0  0.08014  0.89491  0.40931  1.0000
