data_image0
_chemical_formula_structural       Al24Cu12
_chemical_formula_sum              "Al24 Cu12"
_cell_length_a       6.02933
_cell_length_b       11.3002
_cell_length_c       30.7735
_cell_angle_alpha    83.8471
_cell_angle_beta     90
_cell_angle_gamma    90

_space_group_name_H-M_alt    "P 1"
_space_group_IT_number       1

loop_
  _space_group_symop_operation_xyz
  'x, y, z'

loop_
  _atom_site_type_symbol
  _atom_site_label
  _atom_site_symmetry_multiplicity
  _atom_site_fract_x
  _atom_site_fract_y
  _atom_site_fract_z
  _atom_site_occupancy
  Al  Al1       1.0  0.15761  0.05254  0.47373  1.0000
  Al  Al2       1.0  0.15761  0.38587  0.55706  1.0000
  Al  Al3       1.0  0.15761  0.71920  0.39040  1.0000
  Al  Al4       1.0  0.15761  0.78080  0.48460  1.0000
  Al  Al5       1.0  0.15761  0.11413  0.56794  1.0000
  Al  Al6       1.0  0.15761  0.44746  0.40127  1.0000
  Al  Al7       1.0  0.84239  0.88587  0.43206  1.0000
  Al  Al8       1.0  0.84239  0.21920  0.51540  1.0000
  Al  Al9       1.0  0.84239  0.55254  0.59873  1.0000
  Al  Al10      1.0  0.84239  0.94746  0.52627  1.0000
  Al  Al11      1.0  0.84239  0.28080  0.60960  1.0000
  Al  Al12      1.0  0.84239  0.61413  0.44294  1.0000
  Al  Al13      1.0  0.65761  0.71920  0.51540  1.0000
  Al  Al14      1.0  0.65761  0.05254  0.59873  1.0000
  Al  Al15      1.0  0.65761  0.38587  0.43206  1.0000
  Al  Al16      1.0  0.65761  0.11413  0.44294  1.0000
  Al  Al17      1.0  0.65761  0.44746  0.52627  1.0000
  Al  Al18      1.0  0.65761  0.78080  0.60960  1.0000
  Al  Al19      1.0  0.34239  0.88587  0.55706  1.0000
  Al  Al20      1.0  0.34239  0.21920  0.39040  1.0000
  Al  Al21      1.0  0.34239  0.55254  0.47373  1.0000
  Al  Al22      1.0  0.34239  0.94746  0.40127  1.0000
  Al  Al23      1.0  0.34239  0.28080  0.48460  1.0000
  Al  Al24      1.0  0.34239  0.61413  0.56794  1.0000
  Cu  Cu1       1.0  0.00000  0.08333  0.39583  1.0000
  Cu  Cu2       1.0  0.00000  0.41667  0.47917  1.0000
  Cu  Cu3       1.0  0.00000  0.75000  0.56250  1.0000
  Cu  Cu4       1.0  0.00000  0.25000  0.43750  1.0000
  Cu  Cu5       1.0  0.00000  0.58333  0.52083  1.0000
  Cu  Cu6       1.0  0.00000  0.91667  0.60417  1.0000
  Cu  Cu7       1.0  0.50000  0.08333  0.52083  1.0000
  Cu  Cu8       1.0  0.50000  0.41667  0.60417  1.0000
  Cu  Cu9       1.0  0.50000  0.75000  0.43750  1.0000
  Cu  Cu10      1.0  0.50000  0.91667  0.47917  1.0000
  Cu  Cu11      1.0  0.50000  0.25000  0.56250  1.0000
  Cu  Cu12      1.0  0.50000  0.58333  0.39583  1.0000
