data_image0
_chemical_formula_structural       Al32Cu16
_chemical_formula_sum              "Al32 Cu16"
_cell_length_a       13.482
_cell_length_b       7.69338
_cell_length_c       30.7735
_cell_angle_alpha    103.202
_cell_angle_beta     110.517
_cell_angle_gamma    69.4832

_space_group_name_H-M_alt    "P 1"
_space_group_IT_number       1

loop_
  _space_group_symop_operation_xyz
  'x, y, z'

loop_
  _atom_site_type_symbol
  _atom_site_label
  _atom_site_symmetry_multiplicity
  _atom_site_fract_x
  _atom_site_fract_y
  _atom_site_fract_z
  _atom_site_occupancy
  Al  Al1       1.0  0.57881  0.78940  0.53702  1.0000
  Al  Al2       1.0  0.07881  0.03940  0.47452  1.0000
  Al  Al3       1.0  0.07881  0.53940  0.59952  1.0000
  Al  Al4       1.0  0.57881  0.28940  0.41202  1.0000
  Al  Al5       1.0  0.57881  0.38179  0.51393  1.0000
  Al  Al6       1.0  0.07881  0.63179  0.45143  1.0000
  Al  Al7       1.0  0.07881  0.13179  0.57643  1.0000
  Al  Al8       1.0  0.57881  0.88179  0.38893  1.0000
  Al  Al9       1.0  0.92119  0.36821  0.51732  1.0000
  Al  Al10      1.0  0.42119  0.61821  0.45482  1.0000
  Al  Al11      1.0  0.42119  0.11821  0.57982  1.0000
  Al  Al12      1.0  0.92119  0.86821  0.39232  1.0000
  Al  Al13      1.0  0.92119  0.46060  0.61923  1.0000
  Al  Al14      1.0  0.42119  0.71060  0.55673  1.0000
  Al  Al15      1.0  0.42119  0.21060  0.43173  1.0000
  Al  Al16      1.0  0.92119  0.96060  0.49423  1.0000
  Al  Al17      1.0  0.82881  0.16440  0.56827  1.0000
  Al  Al18      1.0  0.32881  0.41440  0.50577  1.0000
  Al  Al19      1.0  0.32881  0.91440  0.38077  1.0000
  Al  Al20      1.0  0.82881  0.66440  0.44327  1.0000
  Al  Al21      1.0  0.82881  0.75679  0.54518  1.0000
  Al  Al22      1.0  0.32881  0.00679  0.48268  1.0000
  Al  Al23      1.0  0.32881  0.50679  0.60768  1.0000
  Al  Al24      1.0  0.82881  0.25679  0.42018  1.0000
  Al  Al25      1.0  0.67119  0.49321  0.61107  1.0000
  Al  Al26      1.0  0.17119  0.74321  0.54857  1.0000
  Al  Al27      1.0  0.17119  0.24321  0.42357  1.0000
  Al  Al28      1.0  0.67119  0.99321  0.48607  1.0000
  Al  Al29      1.0  0.67119  0.58560  0.46298  1.0000
  Al  Al30      1.0  0.17119  0.83560  0.40048  1.0000
  Al  Al31      1.0  0.17119  0.33560  0.52548  1.0000
  Al  Al32      1.0  0.67119  0.08560  0.58798  1.0000
  Cu  Cu1       1.0  0.50000  0.87500  0.45313  1.0000
  Cu  Cu2       1.0  0.00000  0.12500  0.39063  1.0000
  Cu  Cu3       1.0  0.00000  0.62500  0.51562  1.0000
  Cu  Cu4       1.0  0.50000  0.37500  0.57812  1.0000
  Cu  Cu5       1.0  0.50000  0.12500  0.51562  1.0000
  Cu  Cu6       1.0  0.00000  0.37500  0.45312  1.0000
  Cu  Cu7       1.0  0.00000  0.87500  0.57812  1.0000
  Cu  Cu8       1.0  0.50000  0.62500  0.39063  1.0000
  Cu  Cu9       1.0  0.75000  0.75000  0.60937  1.0000
  Cu  Cu10      1.0  0.25000  0.00000  0.54688  1.0000
  Cu  Cu11      1.0  0.25000  0.50000  0.42187  1.0000
  Cu  Cu12      1.0  0.75000  0.25000  0.48438  1.0000
  Cu  Cu13      1.0  0.75000  0.50000  0.54688  1.0000
  Cu  Cu14      1.0  0.25000  0.75000  0.48437  1.0000
  Cu  Cu15      1.0  0.25000  0.25000  0.60938  1.0000
  Cu  Cu16      1.0  0.75000  0.00000  0.42188  1.0000
