data_image0
_chemical_formula_structural       Al30Cu30
_chemical_formula_sum              "Al30 Cu30"
_cell_length_a       14.4613
_cell_length_b       9.80955
_cell_length_c       31.8705
_cell_angle_alpha    89.9951
_cell_angle_beta     82.9787
_cell_angle_gamma    47.2829

_space_group_name_H-M_alt    "P 1"
_space_group_IT_number       1

loop_
  _space_group_symop_operation_xyz
  'x, y, z'

loop_
  _atom_site_type_symbol
  _atom_site_label
  _atom_site_symmetry_multiplicity
  _atom_site_fract_x
  _atom_site_fract_y
  _atom_site_fract_z
  _atom_site_occupancy
  Al  Al1       1.0  0.66667  0.33333  0.55833  1.0000
  Al  Al2       1.0  0.00000  0.00000  0.47500  1.0000
  Al  Al3       1.0  0.33333  0.66667  0.39167  1.0000
  Al  Al4       1.0  0.56493  0.27885  0.38246  1.0000
  Al  Al5       1.0  0.89826  0.94552  0.54913  1.0000
  Al  Al6       1.0  0.23160  0.61218  0.46580  1.0000
  Al  Al7       1.0  0.10174  0.05448  0.40087  1.0000
  Al  Al8       1.0  0.43507  0.72115  0.56754  1.0000
  Al  Al9       1.0  0.76840  0.38782  0.48420  1.0000
  Al  Al10      1.0  0.46084  0.16093  0.58042  1.0000
  Al  Al11      1.0  0.79417  0.82760  0.49708  1.0000
  Al  Al12      1.0  0.12750  0.49427  0.41375  1.0000
  Al  Al13      1.0  0.20583  0.17240  0.45292  1.0000
  Al  Al14      1.0  0.53916  0.83907  0.61958  1.0000
  Al  Al15      1.0  0.87250  0.50573  0.53625  1.0000
  Al  Al16      1.0  0.33333  0.16667  0.51667  1.0000
  Al  Al17      1.0  0.66667  0.83333  0.43333  1.0000
  Al  Al18      1.0  0.00000  0.50000  0.60000  1.0000
  Al  Al19      1.0  0.56493  0.77885  0.50746  1.0000
  Al  Al20      1.0  0.89826  0.44552  0.42413  1.0000
  Al  Al21      1.0  0.23160  0.11218  0.59080  1.0000
  Al  Al22      1.0  0.43507  0.22115  0.44254  1.0000
  Al  Al23      1.0  0.76840  0.88782  0.60920  1.0000
  Al  Al24      1.0  0.10174  0.55448  0.52587  1.0000
  Al  Al25      1.0  0.46084  0.66093  0.45542  1.0000
  Al  Al26      1.0  0.79417  0.32760  0.62208  1.0000
  Al  Al27      1.0  0.12750  0.99427  0.53875  1.0000
  Al  Al28      1.0  0.53916  0.33907  0.49458  1.0000
  Al  Al29      1.0  0.87250  0.00573  0.41125  1.0000
  Al  Al30      1.0  0.20583  0.67240  0.57792  1.0000
  Cu  Cu1       1.0  0.33333  0.66667  0.51667  1.0000
  Cu  Cu2       1.0  0.66667  0.33333  0.43333  1.0000
  Cu  Cu3       1.0  0.00000  0.00000  0.60000  1.0000
  Cu  Cu4       1.0  0.33912  0.90293  0.39456  1.0000
  Cu  Cu5       1.0  0.67245  0.56960  0.56123  1.0000
  Cu  Cu6       1.0  0.00579  0.23627  0.47789  1.0000
  Cu  Cu7       1.0  0.66088  0.09707  0.55544  1.0000
  Cu  Cu8       1.0  0.99421  0.76373  0.47211  1.0000
  Cu  Cu9       1.0  0.32755  0.43040  0.38877  1.0000
  Cu  Cu10      1.0  0.44570  0.44535  0.57285  1.0000
  Cu  Cu11      1.0  0.77903  0.11202  0.48951  1.0000
  Cu  Cu12      1.0  0.11236  0.77868  0.40618  1.0000
  Cu  Cu13      1.0  0.22097  0.88798  0.46049  1.0000
  Cu  Cu14      1.0  0.55430  0.55465  0.37715  1.0000
  Cu  Cu15      1.0  0.88764  0.22131  0.54382  1.0000
  Cu  Cu16      1.0  0.33333  0.16667  0.39167  1.0000
  Cu  Cu17      1.0  0.66667  0.83333  0.55833  1.0000
  Cu  Cu18      1.0  0.00000  0.50000  0.47500  1.0000
  Cu  Cu19      1.0  0.33912  0.40293  0.51956  1.0000
  Cu  Cu20      1.0  0.67245  0.06960  0.43623  1.0000
  Cu  Cu21      1.0  0.00579  0.73627  0.60289  1.0000
  Cu  Cu22      1.0  0.32755  0.93040  0.51377  1.0000
  Cu  Cu23      1.0  0.66088  0.59707  0.43044  1.0000
  Cu  Cu24      1.0  0.99421  0.26373  0.59711  1.0000
  Cu  Cu25      1.0  0.44570  0.94535  0.44785  1.0000
  Cu  Cu26      1.0  0.77903  0.61202  0.61451  1.0000
  Cu  Cu27      1.0  0.11236  0.27869  0.53118  1.0000
  Cu  Cu28      1.0  0.55430  0.05465  0.50215  1.0000
  Cu  Cu29      1.0  0.88764  0.72132  0.41882  1.0000
  Cu  Cu30      1.0  0.22097  0.38798  0.58549  1.0000
