data_image0
_chemical_formula_structural       Pd24Sb8
_chemical_formula_sum              "Pd24 Sb8"
_cell_length_a       4.47857
_cell_length_b       10.9702
_cell_length_c       31.0285
_cell_angle_alpha    90
_cell_angle_beta     90
_cell_angle_gamma    90

_space_group_name_H-M_alt    "P 1"
_space_group_IT_number       1

loop_
  _space_group_symop_operation_xyz
  'x, y, z'

loop_
  _atom_site_type_symbol
  _atom_site_label
  _atom_site_symmetry_multiplicity
  _atom_site_fract_x
  _atom_site_fract_y
  _atom_site_fract_z
  _atom_site_occupancy
  Pd  Pd1       1.0  0.00000  0.60417  0.39583  1.0000
  Pd  Pd2       1.0  0.00000  0.27083  0.47917  1.0000
  Pd  Pd3       1.0  0.00000  0.93750  0.56250  1.0000
  Pd  Pd4       1.0  0.00000  0.60417  0.64583  1.0000
  Pd  Pd5       1.0  0.00000  0.77083  0.47917  1.0000
  Pd  Pd6       1.0  0.00000  0.43750  0.56250  1.0000
  Pd  Pd7       1.0  0.00000  0.10417  0.64583  1.0000
  Pd  Pd8       1.0  0.00000  0.10417  0.39583  1.0000
  Pd  Pd9       1.0  0.00000  0.85417  0.39583  1.0000
  Pd  Pd10      1.0  0.00000  0.52083  0.47917  1.0000
  Pd  Pd11      1.0  0.00000  0.18750  0.56250  1.0000
  Pd  Pd12      1.0  0.00000  0.85417  0.64583  1.0000
  Pd  Pd13      1.0  0.50000  0.60417  0.52083  1.0000
  Pd  Pd14      1.0  0.50000  0.27083  0.60417  1.0000
  Pd  Pd15      1.0  0.50000  0.27083  0.35417  1.0000
  Pd  Pd16      1.0  0.50000  0.93750  0.43750  1.0000
  Pd  Pd17      1.0  0.50000  0.43750  0.43750  1.0000
  Pd  Pd18      1.0  0.50000  0.10417  0.52083  1.0000
  Pd  Pd19      1.0  0.50000  0.77083  0.60417  1.0000
  Pd  Pd20      1.0  0.50000  0.77083  0.35417  1.0000
  Pd  Pd21      1.0  0.50000  0.52083  0.35417  1.0000
  Pd  Pd22      1.0  0.50000  0.18750  0.43750  1.0000
  Pd  Pd23      1.0  0.50000  0.85417  0.52083  1.0000
  Pd  Pd24      1.0  0.50000  0.52083  0.60417  1.0000
  Sb  Sb1       1.0  0.50000  0.68750  0.43750  1.0000
  Sb  Sb2       1.0  0.50000  0.35417  0.52083  1.0000
  Sb  Sb3       1.0  0.50000  0.02083  0.60417  1.0000
  Sb  Sb4       1.0  0.50000  0.02083  0.35417  1.0000
  Sb  Sb5       1.0  0.00000  0.35417  0.39583  1.0000
  Sb  Sb6       1.0  0.00000  0.02083  0.47917  1.0000
  Sb  Sb7       1.0  0.00000  0.68750  0.56250  1.0000
  Sb  Sb8       1.0  0.00000  0.35417  0.64583  1.0000
