data_image0
_chemical_formula_structural       Ga6Cu3Ga6Cu3Ga6Cu3
_chemical_formula_sum              "Ga18 Cu9"
_cell_length_a       6.24779
_cell_length_b       6.4403
_cell_length_c       35.5631
_cell_angle_alpha    107.865
_cell_angle_beta     71.5651
_cell_angle_gamma    78.8124

_space_group_name_H-M_alt    "P 1"
_space_group_IT_number       1

loop_
  _space_group_symop_operation_xyz
  'x, y, z'

loop_
  _atom_site_type_symbol
  _atom_site_label
  _atom_site_symmetry_multiplicity
  _atom_site_fract_x
  _atom_site_fract_y
  _atom_site_fract_z
  _atom_site_occupancy
  Ga  Ga1       1.0  0.90519  0.28442  0.39144  1.0000
  Ga  Ga2       1.0  0.23853  0.28442  0.42848  1.0000
  Ga  Ga3       1.0  0.57186  0.28442  0.35440  1.0000
  Ga  Ga4       1.0  0.76147  0.71558  0.42338  1.0000
  Ga  Ga5       1.0  0.09481  0.71558  0.34930  1.0000
  Ga  Ga6       1.0  0.42814  0.71558  0.38634  1.0000
  Cu  Cu1       1.0  0.00000  0.00000  0.42593  1.0000
  Cu  Cu2       1.0  0.33333  0.00000  0.35185  1.0000
  Cu  Cu3       1.0  0.66667  0.00000  0.38889  1.0000
  Ga  Ga7       1.0  0.90519  0.28442  0.50255  1.0000
  Ga  Ga8       1.0  0.23853  0.28442  0.53959  1.0000
  Ga  Ga9       1.0  0.57186  0.28442  0.46551  1.0000
  Ga  Ga10      1.0  0.76147  0.71558  0.53449  1.0000
  Ga  Ga11      1.0  0.09481  0.71558  0.46041  1.0000
  Ga  Ga12      1.0  0.42814  0.71558  0.49745  1.0000
  Cu  Cu4       1.0  0.00000  0.00000  0.53704  1.0000
  Cu  Cu5       1.0  0.33333  0.00000  0.46296  1.0000
  Cu  Cu6       1.0  0.66667  0.00000  0.50000  1.0000
  Ga  Ga13      1.0  0.90519  0.28442  0.61366  1.0000
  Ga  Ga14      1.0  0.23853  0.28442  0.65070  1.0000
  Ga  Ga15      1.0  0.57186  0.28442  0.57662  1.0000
  Ga  Ga16      1.0  0.76147  0.71558  0.64560  1.0000
  Ga  Ga17      1.0  0.09481  0.71558  0.57152  1.0000
  Ga  Ga18      1.0  0.42814  0.71558  0.60856  1.0000
  Cu  Cu7       1.0  0.00000  0.00000  0.64815  1.0000
  Cu  Cu8       1.0  0.33333  0.00000  0.57407  1.0000
  Cu  Cu9       1.0  0.66667  0.00000  0.61111  1.0000
