data_image0
_chemical_formula_structural       Al20Cu20Al20Cu20
_chemical_formula_sum              "Al40 Cu40"
_cell_length_a       24.2794
_cell_length_b       16.8616
_cell_length_c       32.4651
_cell_angle_alpha    90
_cell_angle_beta     80.3783
_cell_angle_gamma    21.633

_space_group_name_H-M_alt    "P 1"
_space_group_IT_number       1

loop_
  _space_group_symop_operation_xyz
  'x, y, z'

loop_
  _atom_site_type_symbol
  _atom_site_label
  _atom_site_symmetry_multiplicity
  _atom_site_fract_x
  _atom_site_fract_y
  _atom_site_fract_z
  _atom_site_occupancy
  Al  Al1       1.0  0.25000  0.50000  0.39062  1.0000
  Al  Al2       1.0  0.75000  0.50000  0.45312  1.0000
  Al  Al3       1.0  0.99639  0.85101  0.48483  1.0000
  Al  Al4       1.0  0.49639  0.85101  0.42233  1.0000
  Al  Al5       1.0  0.00361  0.14899  0.48392  1.0000
  Al  Al6       1.0  0.50361  0.14899  0.42142  1.0000
  Al  Al7       1.0  0.93052  0.76074  0.49306  1.0000
  Al  Al8       1.0  0.43052  0.76074  0.43056  1.0000
  Al  Al9       1.0  0.06948  0.23926  0.47569  1.0000
  Al  Al10      1.0  0.56948  0.23926  0.41319  1.0000
  Al  Al11      1.0  0.00000  0.50000  0.48438  1.0000
  Al  Al12      1.0  0.50000  0.50000  0.42188  1.0000
  Al  Al13      1.0  0.74639  0.85101  0.45358  1.0000
  Al  Al14      1.0  0.24639  0.85101  0.39108  1.0000
  Al  Al15      1.0  0.25361  0.14899  0.39017  1.0000
  Al  Al16      1.0  0.75361  0.14899  0.45267  1.0000
  Al  Al17      1.0  0.68052  0.76074  0.46181  1.0000
  Al  Al18      1.0  0.18052  0.76074  0.39931  1.0000
  Al  Al19      1.0  0.31948  0.23926  0.38194  1.0000
  Al  Al20      1.0  0.81948  0.23926  0.44444  1.0000
  Cu  Cu1       1.0  0.50000  0.00000  0.42188  1.0000
  Cu  Cu2       1.0  0.00000  0.00000  0.48438  1.0000
  Cu  Cu3       1.0  0.98337  0.27531  0.42395  1.0000
  Cu  Cu4       1.0  0.48337  0.27531  0.48645  1.0000
  Cu  Cu5       1.0  0.01663  0.72469  0.41980  1.0000
  Cu  Cu6       1.0  0.51663  0.72469  0.48230  1.0000
  Cu  Cu7       1.0  0.22250  0.44604  0.45656  1.0000
  Cu  Cu8       1.0  0.72250  0.44604  0.39406  1.0000
  Cu  Cu9       1.0  0.77750  0.55396  0.38719  1.0000
  Cu  Cu10      1.0  0.27750  0.55396  0.44969  1.0000
  Cu  Cu11      1.0  0.25000  0.00000  0.39062  1.0000
  Cu  Cu12      1.0  0.75000  0.00000  0.45312  1.0000
  Cu  Cu13      1.0  0.23337  0.27531  0.45520  1.0000
  Cu  Cu14      1.0  0.73337  0.27531  0.39270  1.0000
  Cu  Cu15      1.0  0.76663  0.72469  0.38855  1.0000
  Cu  Cu16      1.0  0.26663  0.72469  0.45105  1.0000
  Cu  Cu17      1.0  0.97250  0.44604  0.42531  1.0000
  Cu  Cu18      1.0  0.47250  0.44604  0.48781  1.0000
  Cu  Cu19      1.0  0.02750  0.55396  0.41844  1.0000
  Cu  Cu20      1.0  0.52750  0.55396  0.48094  1.0000
  Al  Al21      1.0  0.25000  0.50000  0.51562  1.0000
  Al  Al22      1.0  0.75000  0.50000  0.57813  1.0000
  Al  Al23      1.0  0.99639  0.85101  0.60983  1.0000
  Al  Al24      1.0  0.49639  0.85101  0.54733  1.0000
  Al  Al25      1.0  0.00361  0.14899  0.60892  1.0000
  Al  Al26      1.0  0.50361  0.14899  0.54642  1.0000
  Al  Al27      1.0  0.93052  0.76074  0.61806  1.0000
  Al  Al28      1.0  0.43052  0.76074  0.55556  1.0000
  Al  Al29      1.0  0.06948  0.23926  0.60069  1.0000
  Al  Al30      1.0  0.56948  0.23926  0.53819  1.0000
  Al  Al31      1.0  0.00000  0.50000  0.60938  1.0000
  Al  Al32      1.0  0.50000  0.50000  0.54688  1.0000
  Al  Al33      1.0  0.74639  0.85101  0.57858  1.0000
  Al  Al34      1.0  0.24639  0.85101  0.51608  1.0000
  Al  Al35      1.0  0.25361  0.14899  0.51517  1.0000
  Al  Al36      1.0  0.75361  0.14899  0.57767  1.0000
  Al  Al37      1.0  0.68052  0.76074  0.58681  1.0000
  Al  Al38      1.0  0.18052  0.76074  0.52431  1.0000
  Al  Al39      1.0  0.31948  0.23926  0.50694  1.0000
  Al  Al40      1.0  0.81948  0.23926  0.56944  1.0000
  Cu  Cu21      1.0  0.50000  0.00000  0.54688  1.0000
  Cu  Cu22      1.0  0.00000  0.00000  0.60938  1.0000
  Cu  Cu23      1.0  0.98337  0.27531  0.54895  1.0000
  Cu  Cu24      1.0  0.48337  0.27531  0.61145  1.0000
  Cu  Cu25      1.0  0.01663  0.72469  0.54480  1.0000
  Cu  Cu26      1.0  0.51663  0.72469  0.60730  1.0000
  Cu  Cu27      1.0  0.22250  0.44604  0.58156  1.0000
  Cu  Cu28      1.0  0.72250  0.44604  0.51906  1.0000
  Cu  Cu29      1.0  0.77750  0.55396  0.51219  1.0000
  Cu  Cu30      1.0  0.27750  0.55396  0.57469  1.0000
  Cu  Cu31      1.0  0.25000  0.00000  0.51562  1.0000
  Cu  Cu32      1.0  0.75000  0.00000  0.57812  1.0000
  Cu  Cu33      1.0  0.23337  0.27531  0.58020  1.0000
  Cu  Cu34      1.0  0.73337  0.27531  0.51770  1.0000
  Cu  Cu35      1.0  0.76663  0.72469  0.51355  1.0000
  Cu  Cu36      1.0  0.26663  0.72469  0.57605  1.0000
  Cu  Cu37      1.0  0.97250  0.44604  0.55031  1.0000
  Cu  Cu38      1.0  0.47250  0.44604  0.61281  1.0000
  Cu  Cu39      1.0  0.02750  0.55396  0.54344  1.0000
  Cu  Cu40      1.0  0.52750  0.55396  0.60594  1.0000
