data_image0
_chemical_formula_structural       Al30Cu30Al30Cu30
_chemical_formula_sum              "Al60 Cu60"
_cell_length_a       11.9689
_cell_length_b       10.6249
_cell_length_c       39.8381
_cell_angle_alpha    80.4275
_cell_angle_beta     119.543
_cell_angle_gamma    111.701

_space_group_name_H-M_alt    "P 1"
_space_group_IT_number       1

loop_
  _space_group_symop_operation_xyz
  'x, y, z'

loop_
  _atom_site_type_symbol
  _atom_site_label
  _atom_site_symmetry_multiplicity
  _atom_site_fract_x
  _atom_site_fract_y
  _atom_site_fract_z
  _atom_site_occupancy
  Al  Al1       1.0  0.00000  0.33333  0.41333  1.0000
  Al  Al2       1.0  0.00000  0.00000  0.48000  1.0000
  Al  Al3       1.0  0.00000  0.66667  0.34667  1.0000
  Al  Al4       1.0  0.84378  0.04966  0.39987  1.0000
  Al  Al5       1.0  0.84378  0.71633  0.46653  1.0000
  Al  Al6       1.0  0.84378  0.38300  0.33320  1.0000
  Al  Al7       1.0  0.15622  0.28367  0.49347  1.0000
  Al  Al8       1.0  0.15622  0.95034  0.36013  1.0000
  Al  Al9       1.0  0.15622  0.61700  0.42680  1.0000
  Al  Al10      1.0  0.62177  0.07975  0.41190  1.0000
  Al  Al11      1.0  0.62177  0.74642  0.47857  1.0000
  Al  Al12      1.0  0.62177  0.41309  0.34524  1.0000
  Al  Al13      1.0  0.37823  0.25358  0.48143  1.0000
  Al  Al14      1.0  0.37823  0.92025  0.34810  1.0000
  Al  Al15      1.0  0.37823  0.58691  0.41476  1.0000
  Al  Al16      1.0  0.50000  0.16667  0.44667  1.0000
  Al  Al17      1.0  0.50000  0.83333  0.31333  1.0000
  Al  Al18      1.0  0.50000  0.50000  0.38000  1.0000
  Al  Al19      1.0  0.34378  0.21633  0.36653  1.0000
  Al  Al20      1.0  0.34378  0.88300  0.43320  1.0000
  Al  Al21      1.0  0.34378  0.54966  0.49987  1.0000
  Al  Al22      1.0  0.65622  0.45034  0.46013  1.0000
  Al  Al23      1.0  0.65622  0.11700  0.32680  1.0000
  Al  Al24      1.0  0.65622  0.78367  0.39347  1.0000
  Al  Al25      1.0  0.12177  0.24642  0.37857  1.0000
  Al  Al26      1.0  0.12177  0.91309  0.44524  1.0000
  Al  Al27      1.0  0.12177  0.57975  0.31190  1.0000
  Al  Al28      1.0  0.87823  0.42025  0.44810  1.0000
  Al  Al29      1.0  0.87823  0.08691  0.31476  1.0000
  Al  Al30      1.0  0.87823  0.75358  0.38143  1.0000
  Cu  Cu1       1.0  0.00000  0.33333  0.31333  1.0000
  Cu  Cu2       1.0  0.00000  0.00000  0.38000  1.0000
  Cu  Cu3       1.0  0.00000  0.66667  0.44667  1.0000
  Cu  Cu4       1.0  0.24205  0.40823  0.44329  1.0000
  Cu  Cu5       1.0  0.24205  0.07490  0.30996  1.0000
  Cu  Cu6       1.0  0.24205  0.74156  0.37663  1.0000
  Cu  Cu7       1.0  0.75795  0.25844  0.38337  1.0000
  Cu  Cu8       1.0  0.75795  0.92510  0.45004  1.0000
  Cu  Cu9       1.0  0.75795  0.59177  0.31671  1.0000
  Cu  Cu10      1.0  0.89105  0.18465  0.45386  1.0000
  Cu  Cu11      1.0  0.89105  0.85132  0.32053  1.0000
  Cu  Cu12      1.0  0.89105  0.51799  0.38719  1.0000
  Cu  Cu13      1.0  0.10895  0.14868  0.43947  1.0000
  Cu  Cu14      1.0  0.10895  0.81535  0.30614  1.0000
  Cu  Cu15      1.0  0.10895  0.48201  0.37281  1.0000
  Cu  Cu16      1.0  0.50000  0.50000  0.48000  1.0000
  Cu  Cu17      1.0  0.50000  0.16667  0.34667  1.0000
  Cu  Cu18      1.0  0.50000  0.83333  0.41333  1.0000
  Cu  Cu19      1.0  0.74205  0.24156  0.47663  1.0000
  Cu  Cu20      1.0  0.74205  0.90823  0.34329  1.0000
  Cu  Cu21      1.0  0.74205  0.57490  0.40996  1.0000
  Cu  Cu22      1.0  0.25795  0.09177  0.41671  1.0000
  Cu  Cu23      1.0  0.25795  0.75844  0.48337  1.0000
  Cu  Cu24      1.0  0.25795  0.42510  0.35004  1.0000
  Cu  Cu25      1.0  0.39105  0.35132  0.42053  1.0000
  Cu  Cu26      1.0  0.39105  0.01799  0.48719  1.0000
  Cu  Cu27      1.0  0.39105  0.68465  0.35386  1.0000
  Cu  Cu28      1.0  0.60895  0.31535  0.40614  1.0000
  Cu  Cu29      1.0  0.60895  0.98201  0.47281  1.0000
  Cu  Cu30      1.0  0.60895  0.64868  0.33947  1.0000
  Al  Al31      1.0  0.00000  0.33333  0.61333  1.0000
  Al  Al32      1.0  0.00000  0.00000  0.68000  1.0000
  Al  Al33      1.0  0.00000  0.66667  0.54667  1.0000
  Al  Al34      1.0  0.84378  0.04966  0.59987  1.0000
  Al  Al35      1.0  0.84378  0.71633  0.66653  1.0000
  Al  Al36      1.0  0.84378  0.38300  0.53320  1.0000
  Al  Al37      1.0  0.15622  0.28367  0.69347  1.0000
  Al  Al38      1.0  0.15622  0.95034  0.56013  1.0000
  Al  Al39      1.0  0.15622  0.61700  0.62680  1.0000
  Al  Al40      1.0  0.62177  0.07975  0.61190  1.0000
  Al  Al41      1.0  0.62177  0.74642  0.67857  1.0000
  Al  Al42      1.0  0.62177  0.41309  0.54524  1.0000
  Al  Al43      1.0  0.37823  0.25358  0.68143  1.0000
  Al  Al44      1.0  0.37823  0.92025  0.54810  1.0000
  Al  Al45      1.0  0.37823  0.58691  0.61476  1.0000
  Al  Al46      1.0  0.50000  0.16667  0.64667  1.0000
  Al  Al47      1.0  0.50000  0.83333  0.51333  1.0000
  Al  Al48      1.0  0.50000  0.50000  0.58000  1.0000
  Al  Al49      1.0  0.34378  0.21633  0.56653  1.0000
  Al  Al50      1.0  0.34378  0.88300  0.63320  1.0000
  Al  Al51      1.0  0.34378  0.54966  0.69987  1.0000
  Al  Al52      1.0  0.65622  0.45034  0.66013  1.0000
  Al  Al53      1.0  0.65622  0.11700  0.52680  1.0000
  Al  Al54      1.0  0.65622  0.78367  0.59347  1.0000
  Al  Al55      1.0  0.12177  0.24642  0.57857  1.0000
  Al  Al56      1.0  0.12177  0.91309  0.64524  1.0000
  Al  Al57      1.0  0.12177  0.57975  0.51190  1.0000
  Al  Al58      1.0  0.87823  0.42025  0.64810  1.0000
  Al  Al59      1.0  0.87823  0.08691  0.51476  1.0000
  Al  Al60      1.0  0.87823  0.75358  0.58143  1.0000
  Cu  Cu31      1.0  0.00000  0.33333  0.51333  1.0000
  Cu  Cu32      1.0  0.00000  0.00000  0.58000  1.0000
  Cu  Cu33      1.0  0.00000  0.66667  0.64667  1.0000
  Cu  Cu34      1.0  0.24205  0.40823  0.64329  1.0000
  Cu  Cu35      1.0  0.24205  0.07490  0.50996  1.0000
  Cu  Cu36      1.0  0.24205  0.74156  0.57663  1.0000
  Cu  Cu37      1.0  0.75795  0.25844  0.58337  1.0000
  Cu  Cu38      1.0  0.75795  0.92510  0.65004  1.0000
  Cu  Cu39      1.0  0.75795  0.59177  0.51671  1.0000
  Cu  Cu40      1.0  0.89105  0.18465  0.65386  1.0000
  Cu  Cu41      1.0  0.89105  0.85132  0.52053  1.0000
  Cu  Cu42      1.0  0.89105  0.51799  0.58719  1.0000
  Cu  Cu43      1.0  0.10895  0.14868  0.63947  1.0000
  Cu  Cu44      1.0  0.10895  0.81535  0.50614  1.0000
  Cu  Cu45      1.0  0.10895  0.48201  0.57281  1.0000
  Cu  Cu46      1.0  0.50000  0.50000  0.68000  1.0000
  Cu  Cu47      1.0  0.50000  0.16667  0.54667  1.0000
  Cu  Cu48      1.0  0.50000  0.83333  0.61333  1.0000
  Cu  Cu49      1.0  0.74205  0.24156  0.67663  1.0000
  Cu  Cu50      1.0  0.74205  0.90823  0.54329  1.0000
  Cu  Cu51      1.0  0.74205  0.57490  0.60996  1.0000
  Cu  Cu52      1.0  0.25795  0.09177  0.61671  1.0000
  Cu  Cu53      1.0  0.25795  0.75844  0.68337  1.0000
  Cu  Cu54      1.0  0.25795  0.42510  0.55004  1.0000
  Cu  Cu55      1.0  0.39105  0.35132  0.62053  1.0000
  Cu  Cu56      1.0  0.39105  0.01799  0.68719  1.0000
  Cu  Cu57      1.0  0.39105  0.68465  0.55386  1.0000
  Cu  Cu58      1.0  0.60895  0.31535  0.60614  1.0000
  Cu  Cu59      1.0  0.60895  0.98201  0.67281  1.0000
  Cu  Cu60      1.0  0.60895  0.64868  0.53947  1.0000
