data_image0
_chemical_formula_structural       Al12Pt12Al12Pt12
_chemical_formula_sum              "Al24 Pt24"
_cell_length_a       4.86787
_cell_length_b       10.8849
_cell_length_c       41.3053
_cell_angle_alpha    71.5651
_cell_angle_beta     90
_cell_angle_gamma    90

_space_group_name_H-M_alt    "P 1"
_space_group_IT_number       1

loop_
  _space_group_symop_operation_xyz
  'x, y, z'

loop_
  _atom_site_type_symbol
  _atom_site_label
  _atom_site_symmetry_multiplicity
  _atom_site_fract_x
  _atom_site_fract_y
  _atom_site_fract_z
  _atom_site_occupancy
  Al  Al1       1.0  0.15598  0.66667  0.47044  1.0000
  Al  Al2       1.0  0.15598  0.33333  0.41489  1.0000
  Al  Al3       1.0  0.15598  0.00000  0.35933  1.0000
  Al  Al4       1.0  0.65598  0.83333  0.36289  1.0000
  Al  Al5       1.0  0.65598  0.50000  0.47400  1.0000
  Al  Al6       1.0  0.65598  0.16667  0.41845  1.0000
  Al  Al7       1.0  0.84402  0.56268  0.36978  1.0000
  Al  Al8       1.0  0.84402  0.22934  0.48089  1.0000
  Al  Al9       1.0  0.84402  0.89601  0.42533  1.0000
  Al  Al10      1.0  0.34402  0.60399  0.40800  1.0000
  Al  Al11      1.0  0.34402  0.27066  0.35245  1.0000
  Al  Al12      1.0  0.34402  0.93732  0.46356  1.0000
  Pt  Pt1       1.0  0.84513  0.66667  0.41863  1.0000
  Pt  Pt2       1.0  0.84513  0.33333  0.36308  1.0000
  Pt  Pt3       1.0  0.84513  0.00000  0.47419  1.0000
  Pt  Pt4       1.0  0.34513  0.50000  0.35914  1.0000
  Pt  Pt5       1.0  0.34513  0.16667  0.47026  1.0000
  Pt  Pt6       1.0  0.34513  0.83333  0.41470  1.0000
  Pt  Pt7       1.0  0.15487  0.76991  0.35251  1.0000
  Pt  Pt8       1.0  0.15487  0.43658  0.46362  1.0000
  Pt  Pt9       1.0  0.15487  0.10324  0.40806  1.0000
  Pt  Pt10      1.0  0.65487  0.73009  0.48083  1.0000
  Pt  Pt11      1.0  0.65487  0.39676  0.42527  1.0000
  Pt  Pt12      1.0  0.65487  0.06342  0.36971  1.0000
  Al  Al13      1.0  0.15598  0.66667  0.63711  1.0000
  Al  Al14      1.0  0.15598  0.33333  0.58155  1.0000
  Al  Al15      1.0  0.15598  0.00000  0.52600  1.0000
  Al  Al16      1.0  0.65598  0.83333  0.52956  1.0000
  Al  Al17      1.0  0.65598  0.50000  0.64067  1.0000
  Al  Al18      1.0  0.65598  0.16667  0.58511  1.0000
  Al  Al19      1.0  0.84402  0.56268  0.53644  1.0000
  Al  Al20      1.0  0.84402  0.22934  0.64755  1.0000
  Al  Al21      1.0  0.84402  0.89601  0.59200  1.0000
  Al  Al22      1.0  0.34402  0.60399  0.57467  1.0000
  Al  Al23      1.0  0.34402  0.27066  0.51911  1.0000
  Al  Al24      1.0  0.34402  0.93732  0.63022  1.0000
  Pt  Pt13      1.0  0.84513  0.66667  0.58530  1.0000
  Pt  Pt14      1.0  0.84513  0.33333  0.52974  1.0000
  Pt  Pt15      1.0  0.84513  0.00000  0.64086  1.0000
  Pt  Pt16      1.0  0.34513  0.50000  0.52581  1.0000
  Pt  Pt17      1.0  0.34513  0.16667  0.63692  1.0000
  Pt  Pt18      1.0  0.34513  0.83333  0.58137  1.0000
  Pt  Pt19      1.0  0.15487  0.76991  0.51917  1.0000
  Pt  Pt20      1.0  0.15487  0.43658  0.63029  1.0000
  Pt  Pt21      1.0  0.15487  0.10324  0.57473  1.0000
  Pt  Pt22      1.0  0.65487  0.73009  0.64749  1.0000
  Pt  Pt23      1.0  0.65487  0.39676  0.59194  1.0000
  Pt  Pt24      1.0  0.65487  0.06342  0.53638  1.0000
