data_image0
_chemical_formula_structural       Ca6As6Au6Ca6As6Au6
_chemical_formula_sum              "Ca12 As12 Au12"
_cell_length_a       7.88941
_cell_length_b       11.5866
_cell_length_c       30.6553
_cell_angle_alpha    79.1066
_cell_angle_beta     90
_cell_angle_gamma    90

_space_group_name_H-M_alt    "P 1"
_space_group_IT_number       1

loop_
  _space_group_symop_operation_xyz
  'x, y, z'

loop_
  _atom_site_type_symbol
  _atom_site_label
  _atom_site_symmetry_multiplicity
  _atom_site_fract_x
  _atom_site_fract_y
  _atom_site_fract_z
  _atom_site_occupancy
  Ca  Ca1       1.0  0.50000  0.66667  0.44444  1.0000
  Ca  Ca2       1.0  0.50000  0.33333  0.39683  1.0000
  Ca  Ca3       1.0  0.50000  0.00000  0.49206  1.0000
  Ca  Ca4       1.0  0.00000  0.66667  0.44444  1.0000
  Ca  Ca5       1.0  0.00000  0.33333  0.39683  1.0000
  Ca  Ca6       1.0  0.00000  0.00000  0.49206  1.0000
  As  As1       1.0  0.75000  0.55556  0.38095  1.0000
  As  As2       1.0  0.75000  0.22222  0.47619  1.0000
  As  As3       1.0  0.75000  0.88889  0.42857  1.0000
  As  As4       1.0  0.25000  0.77778  0.36508  1.0000
  As  As5       1.0  0.25000  0.44444  0.46032  1.0000
  As  As6       1.0  0.25000  0.11111  0.41270  1.0000
  Au  Au1       1.0  0.75000  0.77778  0.36508  1.0000
  Au  Au2       1.0  0.75000  0.44444  0.46032  1.0000
  Au  Au3       1.0  0.75000  0.11111  0.41270  1.0000
  Au  Au4       1.0  0.25000  0.55556  0.38095  1.0000
  Au  Au5       1.0  0.25000  0.22222  0.47619  1.0000
  Au  Au6       1.0  0.25000  0.88889  0.42857  1.0000
  Ca  Ca7       1.0  0.50000  0.66667  0.58730  1.0000
  Ca  Ca8       1.0  0.50000  0.33333  0.53968  1.0000
  Ca  Ca9       1.0  0.50000  0.00000  0.63492  1.0000
  Ca  Ca10      1.0  0.00000  0.66667  0.58730  1.0000
  Ca  Ca11      1.0  0.00000  0.33333  0.53968  1.0000
  Ca  Ca12      1.0  0.00000  0.00000  0.63492  1.0000
  As  As7       1.0  0.75000  0.55556  0.52381  1.0000
  As  As8       1.0  0.75000  0.22222  0.61905  1.0000
  As  As9       1.0  0.75000  0.88889  0.57143  1.0000
  As  As10      1.0  0.25000  0.77778  0.50794  1.0000
  As  As11      1.0  0.25000  0.44444  0.60317  1.0000
  As  As12      1.0  0.25000  0.11111  0.55556  1.0000
  Au  Au7       1.0  0.75000  0.77778  0.50794  1.0000
  Au  Au8       1.0  0.75000  0.44444  0.60317  1.0000
  Au  Au9       1.0  0.75000  0.11111  0.55556  1.0000
  Au  Au10      1.0  0.25000  0.55556  0.52381  1.0000
  Au  Au11      1.0  0.25000  0.22222  0.61905  1.0000
  Au  Au12      1.0  0.25000  0.88889  0.57143  1.0000
