data_image0
_chemical_formula_structural       Al9Ni6Al9Ni6
_chemical_formula_sum              "Al18 Ni12"
_cell_length_a       4.87464
_cell_length_b       10.5762
_cell_length_c       31.9795
_cell_angle_alpha    79.1066
_cell_angle_beta     90
_cell_angle_gamma    90

_space_group_name_H-M_alt    "P 1"
_space_group_IT_number       1

loop_
  _space_group_symop_operation_xyz
  'x, y, z'

loop_
  _atom_site_type_symbol
  _atom_site_label
  _atom_site_symmetry_multiplicity
  _atom_site_fract_x
  _atom_site_fract_y
  _atom_site_fract_z
  _atom_site_occupancy
  Al  Al1       1.0  0.00000  0.66667  0.45417  1.0000
  Al  Al2       1.0  0.00000  0.33333  0.41250  1.0000
  Al  Al3       1.0  0.00000  0.00000  0.49583  1.0000
  Al  Al4       1.0  0.35268  0.55556  0.39861  1.0000
  Al  Al5       1.0  0.35268  0.22222  0.48194  1.0000
  Al  Al6       1.0  0.35268  0.88889  0.44028  1.0000
  Al  Al7       1.0  0.64732  0.77778  0.38472  1.0000
  Al  Al8       1.0  0.64732  0.44444  0.46806  1.0000
  Al  Al9       1.0  0.64732  0.11111  0.42639  1.0000
  Ni  Ni1       1.0  0.85318  0.55556  0.39861  1.0000
  Ni  Ni2       1.0  0.85318  0.22222  0.48194  1.0000
  Ni  Ni3       1.0  0.85318  0.88889  0.44028  1.0000
  Ni  Ni4       1.0  0.14682  0.77778  0.38472  1.0000
  Ni  Ni5       1.0  0.14682  0.44444  0.46806  1.0000
  Ni  Ni6       1.0  0.14682  0.11111  0.42639  1.0000
  Al  Al10      1.0  0.00000  0.66667  0.57917  1.0000
  Al  Al11      1.0  0.00000  0.33333  0.53750  1.0000
  Al  Al12      1.0  0.00000  0.00000  0.62083  1.0000
  Al  Al13      1.0  0.35268  0.55556  0.52361  1.0000
  Al  Al14      1.0  0.35268  0.22222  0.60694  1.0000
  Al  Al15      1.0  0.35268  0.88889  0.56528  1.0000
  Al  Al16      1.0  0.64732  0.77778  0.50972  1.0000
  Al  Al17      1.0  0.64732  0.44444  0.59306  1.0000
  Al  Al18      1.0  0.64732  0.11111  0.55139  1.0000
  Ni  Ni7       1.0  0.85318  0.55556  0.52361  1.0000
  Ni  Ni8       1.0  0.85318  0.22222  0.60694  1.0000
  Ni  Ni9       1.0  0.85318  0.88889  0.56528  1.0000
  Ni  Ni10      1.0  0.14682  0.77778  0.50972  1.0000
  Ni  Ni11      1.0  0.14682  0.44444  0.59306  1.0000
  Ni  Ni12      1.0  0.14682  0.11111  0.55139  1.0000
