data_image0
_chemical_formula_structural       Al8Ca4
_chemical_formula_sum              "Al8 Ca4"
_cell_length_a       5.61731
_cell_length_b       5.61731
_cell_length_c       31.7763
_cell_angle_alpha    90
_cell_angle_beta     90
_cell_angle_gamma    90

_space_group_name_H-M_alt    "P 1"
_space_group_IT_number       1

loop_
  _space_group_symop_operation_xyz
  'x, y, z'

loop_
  _atom_site_type_symbol
  _atom_site_label
  _atom_site_symmetry_multiplicity
  _atom_site_fract_x
  _atom_site_fract_y
  _atom_site_fract_z
  _atom_site_occupancy
  Al  Al1       1.0  0.00000  0.75000  0.54167  1.0000
  Al  Al2       1.0  0.75000  0.00000  0.47917  1.0000
  Al  Al3       1.0  0.00000  0.25000  0.54167  1.0000
  Al  Al4       1.0  0.25000  0.00000  0.47917  1.0000
  Al  Al5       1.0  0.50000  0.25000  0.41667  1.0000
  Al  Al6       1.0  0.25000  0.50000  0.60417  1.0000
  Al  Al7       1.0  0.50000  0.75000  0.41667  1.0000
  Al  Al8       1.0  0.75000  0.50000  0.60417  1.0000
  Ca  Ca1       1.0  0.00000  0.50000  0.44792  1.0000
  Ca  Ca2       1.0  0.50000  0.50000  0.51042  1.0000
  Ca  Ca3       1.0  0.50000  0.00000  0.57292  1.0000
  Ca  Ca4       1.0  0.00000  0.00000  0.38542  1.0000
