data_image0
_chemical_formula_structural       Ir2Ru2Ir2Ru2Ir2Ru2Ir2Ru2
_chemical_formula_sum              "Ir8 Ru8"
_cell_length_a       2.70764
_cell_length_b       9.02443
_cell_length_c       35.1993
_cell_angle_alpha    98.6279
_cell_angle_beta     60
_cell_angle_gamma    81.3721

_space_group_name_H-M_alt    "P 1"
_space_group_IT_number       1

loop_
  _space_group_symop_operation_xyz
  'x, y, z'

loop_
  _atom_site_type_symbol
  _atom_site_label
  _atom_site_symmetry_multiplicity
  _atom_site_fract_x
  _atom_site_fract_y
  _atom_site_fract_z
  _atom_site_occupancy
  Ir  Ir1       1.0  0.75000  0.25000  0.40705  1.0000
  Ir  Ir2       1.0  0.25000  0.75000  0.36859  1.0000
  Ru  Ru1       1.0  0.66667  0.00000  0.36218  1.0000
  Ru  Ru2       1.0  0.16667  0.50000  0.40064  1.0000
  Ir  Ir3       1.0  0.75000  0.25000  0.48397  1.0000
  Ir  Ir4       1.0  0.25000  0.75000  0.44551  1.0000
  Ru  Ru3       1.0  0.66667  0.00000  0.43910  1.0000
  Ru  Ru4       1.0  0.16667  0.50000  0.47756  1.0000
  Ir  Ir5       1.0  0.75000  0.25000  0.56090  1.0000
  Ir  Ir6       1.0  0.25000  0.75000  0.52244  1.0000
  Ru  Ru5       1.0  0.66667  0.00000  0.51603  1.0000
  Ru  Ru6       1.0  0.16667  0.50000  0.55449  1.0000
  Ir  Ir7       1.0  0.75000  0.25000  0.63782  1.0000
  Ir  Ir8       1.0  0.25000  0.75000  0.59936  1.0000
  Ru  Ru7       1.0  0.66667  0.00000  0.59295  1.0000
  Ru  Ru8       1.0  0.16667  0.50000  0.63141  1.0000
