data_image0
_chemical_formula_structural       Co4As8Co4As8
_chemical_formula_sum              "Co8 As16"
_cell_length_a       3.07318
_cell_length_b       12.6904
_cell_length_c       35.3497
_cell_angle_alpha    113.449
_cell_angle_beta     90
_cell_angle_gamma    90

_space_group_name_H-M_alt    "P 1"
_space_group_IT_number       1

loop_
  _space_group_symop_operation_xyz
  'x, y, z'

loop_
  _atom_site_type_symbol
  _atom_site_label
  _atom_site_symmetry_multiplicity
  _atom_site_fract_x
  _atom_site_fract_y
  _atom_site_fract_z
  _atom_site_occupancy
  Co  Co1       1.0  0.50000  0.25000  0.44643  1.0000
  Co  Co2       1.0  0.50000  0.75000  0.37500  1.0000
  Co  Co3       1.0  0.00000  0.50000  0.41071  1.0000
  Co  Co4       1.0  0.00000  0.00000  0.48214  1.0000
  As  As1       1.0  0.50000  0.43190  0.44546  1.0000
  As  As2       1.0  0.50000  0.93190  0.37403  1.0000
  As  As3       1.0  0.50000  0.06810  0.44739  1.0000
  As  As4       1.0  0.50000  0.56810  0.37597  1.0000
  As  As5       1.0  0.00000  0.31810  0.50064  1.0000
  As  As6       1.0  0.00000  0.81810  0.42921  1.0000
  As  As7       1.0  0.00000  0.18190  0.39222  1.0000
  As  As8       1.0  0.00000  0.68190  0.46365  1.0000
  Co  Co5       1.0  0.50000  0.25000  0.58929  1.0000
  Co  Co6       1.0  0.50000  0.75000  0.51786  1.0000
  Co  Co7       1.0  0.00000  0.50000  0.55357  1.0000
  Co  Co8       1.0  0.00000  0.00000  0.62500  1.0000
  As  As9       1.0  0.50000  0.43190  0.58832  1.0000
  As  As10      1.0  0.50000  0.93190  0.51689  1.0000
  As  As11      1.0  0.50000  0.06810  0.59025  1.0000
  As  As12      1.0  0.50000  0.56810  0.51882  1.0000
  As  As13      1.0  0.00000  0.31810  0.64349  1.0000
  As  As14      1.0  0.00000  0.81810  0.57206  1.0000
  As  As15      1.0  0.00000  0.18190  0.53508  1.0000
  As  As16      1.0  0.00000  0.68190  0.60651  1.0000
