data_image0
_chemical_formula_structural       Zn12Co4Zn12Co4
_chemical_formula_sum              "Zn24 Co8"
_cell_length_a       5.04773
_cell_length_b       8.54188
_cell_length_c       35.3341
_cell_angle_alpha    107.186
_cell_angle_beta     90
_cell_angle_gamma    72.8143

_space_group_name_H-M_alt    "P 1"
_space_group_IT_number       1

loop_
  _space_group_symop_operation_xyz
  'x, y, z'

loop_
  _atom_site_type_symbol
  _atom_site_label
  _atom_site_symmetry_multiplicity
  _atom_site_fract_x
  _atom_site_fract_y
  _atom_site_fract_z
  _atom_site_occupancy
  Zn  Zn1       1.0  0.62500  0.25000  0.40179  1.0000
  Zn  Zn2       1.0  0.12500  0.25000  0.47321  1.0000
  Zn  Zn3       1.0  0.12500  0.25000  0.40179  1.0000
  Zn  Zn4       1.0  0.62500  0.25000  0.47321  1.0000
  Zn  Zn5       1.0  0.75000  0.50000  0.38393  1.0000
  Zn  Zn6       1.0  0.25000  0.50000  0.45536  1.0000
  Zn  Zn7       1.0  0.87500  0.75000  0.43750  1.0000
  Zn  Zn8       1.0  0.37500  0.75000  0.36607  1.0000
  Zn  Zn9       1.0  0.37500  0.75000  0.43750  1.0000
  Zn  Zn10      1.0  0.87500  0.75000  0.36607  1.0000
  Zn  Zn11      1.0  0.00000  0.00000  0.41964  1.0000
  Zn  Zn12      1.0  0.50000  0.00000  0.49107  1.0000
  Co  Co1       1.0  0.00000  0.00000  0.49107  1.0000
  Co  Co2       1.0  0.50000  0.00000  0.41964  1.0000
  Co  Co3       1.0  0.75000  0.50000  0.45536  1.0000
  Co  Co4       1.0  0.25000  0.50000  0.38393  1.0000
  Zn  Zn13      1.0  0.62500  0.25000  0.54464  1.0000
  Zn  Zn14      1.0  0.12500  0.25000  0.61607  1.0000
  Zn  Zn15      1.0  0.12500  0.25000  0.54464  1.0000
  Zn  Zn16      1.0  0.62500  0.25000  0.61607  1.0000
  Zn  Zn17      1.0  0.75000  0.50000  0.52679  1.0000
  Zn  Zn18      1.0  0.25000  0.50000  0.59821  1.0000
  Zn  Zn19      1.0  0.87500  0.75000  0.58036  1.0000
  Zn  Zn20      1.0  0.37500  0.75000  0.50893  1.0000
  Zn  Zn21      1.0  0.37500  0.75000  0.58036  1.0000
  Zn  Zn22      1.0  0.87500  0.75000  0.50893  1.0000
  Zn  Zn23      1.0  0.00000  0.00000  0.56250  1.0000
  Zn  Zn24      1.0  0.50000  0.00000  0.63393  1.0000
  Co  Co5       1.0  0.00000  0.00000  0.63393  1.0000
  Co  Co6       1.0  0.50000  0.00000  0.56250  1.0000
  Co  Co7       1.0  0.75000  0.50000  0.59821  1.0000
  Co  Co8       1.0  0.25000  0.50000  0.52679  1.0000
