data_image0
_chemical_formula_structural       In6Pd18
_chemical_formula_sum              "In6 Pd18"
_cell_length_a       4.72341
_cell_length_b       7.47393
_cell_length_c       32.0721
_cell_angle_alpha    87.3526
_cell_angle_beta     87.8427
_cell_angle_gamma    85.3673

_space_group_name_H-M_alt    "P 1"
_space_group_IT_number       1

loop_
  _space_group_symop_operation_xyz
  'x, y, z'

loop_
  _atom_site_type_symbol
  _atom_site_label
  _atom_site_symmetry_multiplicity
  _atom_site_fract_x
  _atom_site_fract_y
  _atom_site_fract_z
  _atom_site_occupancy
  In  In1       1.0  0.00000  0.95833  0.52083  1.0000
  In  In2       1.0  0.33333  0.06944  0.63194  1.0000
  In  In3       1.0  0.66667  0.51389  0.57639  1.0000
  In  In4       1.0  0.00000  0.29167  0.35417  1.0000
  In  In5       1.0  0.33333  0.40278  0.46528  1.0000
  In  In6       1.0  0.66667  0.84722  0.40972  1.0000
  Pd  Pd1       1.0  0.66667  0.34722  0.65972  1.0000
  Pd  Pd2       1.0  0.00000  0.79167  0.60417  1.0000
  Pd  Pd3       1.0  0.33333  0.23611  0.54861  1.0000
  Pd  Pd4       1.0  0.16667  0.43056  0.61806  1.0000
  Pd  Pd5       1.0  0.50000  0.87500  0.56250  1.0000
  Pd  Pd6       1.0  0.83333  0.31944  0.50694  1.0000
  Pd  Pd7       1.0  0.50000  0.70833  0.64583  1.0000
  Pd  Pd8       1.0  0.83333  0.15278  0.59028  1.0000
  Pd  Pd9       1.0  0.16667  0.59722  0.53472  1.0000
  Pd  Pd10      1.0  0.66667  0.68056  0.49306  1.0000
  Pd  Pd11      1.0  0.00000  0.12500  0.43750  1.0000
  Pd  Pd12      1.0  0.33333  0.56944  0.38194  1.0000
  Pd  Pd13      1.0  0.16667  0.76389  0.45139  1.0000
  Pd  Pd14      1.0  0.50000  0.20833  0.39583  1.0000
  Pd  Pd15      1.0  0.83333  0.65278  0.34028  1.0000
  Pd  Pd16      1.0  0.50000  0.04167  0.47917  1.0000
  Pd  Pd17      1.0  0.83333  0.48611  0.42361  1.0000
  Pd  Pd18      1.0  0.16667  0.93056  0.36806  1.0000
