data_image0
_chemical_formula_structural       Ca6Al4Si4Ca6Al4Si4
_chemical_formula_sum              "Ca12 Al8 Si8"
_cell_length_a       4.49008
_cell_length_b       20.0829
_cell_length_c       32.3926
_cell_angle_alpha    113.781
_cell_angle_beta     90
_cell_angle_gamma    90

_space_group_name_H-M_alt    "P 1"
_space_group_IT_number       1

loop_
  _space_group_symop_operation_xyz
  'x, y, z'

loop_
  _atom_site_type_symbol
  _atom_site_label
  _atom_site_symmetry_multiplicity
  _atom_site_fract_x
  _atom_site_fract_y
  _atom_site_fract_z
  _atom_site_occupancy
  Ca  Ca1       1.0  0.50000  0.50000  0.45982  1.0000
  Ca  Ca2       1.0  0.50000  0.31345  0.47568  1.0000
  Ca  Ca3       1.0  0.00000  0.18655  0.38146  1.0000
  Ca  Ca4       1.0  0.00000  0.00000  0.39732  1.0000
  Ca  Ca5       1.0  0.00000  0.81345  0.41318  1.0000
  Ca  Ca6       1.0  0.50000  0.68655  0.44396  1.0000
  Al  Al1       1.0  0.50000  0.06862  0.47698  1.0000
  Al  Al2       1.0  0.00000  0.43138  0.38017  1.0000
  Al  Al3       1.0  0.00000  0.56862  0.41448  1.0000
  Al  Al4       1.0  0.50000  0.93138  0.44267  1.0000
  Si  Si1       1.0  0.50000  0.14429  0.43339  1.0000
  Si  Si2       1.0  0.00000  0.35571  0.42375  1.0000
  Si  Si3       1.0  0.00000  0.64429  0.49589  1.0000
  Si  Si4       1.0  0.50000  0.85571  0.48625  1.0000
  Ca  Ca7       1.0  0.50000  0.50000  0.58482  1.0000
  Ca  Ca8       1.0  0.50000  0.31345  0.60068  1.0000
  Ca  Ca9       1.0  0.00000  0.18655  0.50646  1.0000
  Ca  Ca10      1.0  0.00000  0.00000  0.52232  1.0000
  Ca  Ca11      1.0  0.00000  0.81345  0.53818  1.0000
  Ca  Ca12      1.0  0.50000  0.68655  0.56896  1.0000
  Al  Al5       1.0  0.50000  0.06862  0.60198  1.0000
  Al  Al6       1.0  0.00000  0.43138  0.50517  1.0000
  Al  Al7       1.0  0.00000  0.56862  0.53948  1.0000
  Al  Al8       1.0  0.50000  0.93138  0.56767  1.0000
  Si  Si5       1.0  0.50000  0.14429  0.55839  1.0000
  Si  Si6       1.0  0.00000  0.35571  0.54875  1.0000
  Si  Si7       1.0  0.00000  0.64429  0.62089  1.0000
  Si  Si8       1.0  0.50000  0.85571  0.61125  1.0000
