data_image0
_chemical_formula_structural       Ca4Zn4Ca4Zn4
_chemical_formula_sum              "Ca8 Zn8"
_cell_length_a       4.23906
_cell_length_b       12.0073
_cell_length_c       34.0806
_cell_angle_alpha    69.2194
_cell_angle_beta     90
_cell_angle_gamma    90

_space_group_name_H-M_alt    "P 1"
_space_group_IT_number       1

loop_
  _space_group_symop_operation_xyz
  'x, y, z'

loop_
  _atom_site_type_symbol
  _atom_site_label
  _atom_site_symmetry_multiplicity
  _atom_site_fract_x
  _atom_site_fract_y
  _atom_site_fract_z
  _atom_site_occupancy
  Ca  Ca1       1.0  0.00000  0.85419  0.40885  1.0000
  Ca  Ca2       1.0  0.50000  0.64581  0.49740  1.0000
  Ca  Ca3       1.0  0.50000  0.35419  0.47135  1.0000
  Ca  Ca4       1.0  0.00000  0.14581  0.43490  1.0000
  Zn  Zn1       1.0  0.00000  0.56508  0.44499  1.0000
  Zn  Zn2       1.0  0.50000  0.93492  0.46126  1.0000
  Zn  Zn3       1.0  0.50000  0.06508  0.38249  1.0000
  Zn  Zn4       1.0  0.00000  0.43492  0.39876  1.0000
  Ca  Ca5       1.0  0.00000  0.85419  0.53385  1.0000
  Ca  Ca6       1.0  0.50000  0.64581  0.62240  1.0000
  Ca  Ca7       1.0  0.50000  0.35419  0.59635  1.0000
  Ca  Ca8       1.0  0.00000  0.14581  0.55990  1.0000
  Zn  Zn5       1.0  0.00000  0.56508  0.56999  1.0000
  Zn  Zn6       1.0  0.50000  0.93492  0.58626  1.0000
  Zn  Zn7       1.0  0.50000  0.06508  0.50749  1.0000
  Zn  Zn8       1.0  0.00000  0.43492  0.52376  1.0000
