data_image0
_chemical_formula_structural       Ca6Ge12
_chemical_formula_sum              "Ca6 Ge12"
_cell_length_a       6.33051
_cell_length_b       8.4976
_cell_length_c       30.5207
_cell_angle_alpha    89.9593
_cell_angle_beta     85.2847
_cell_angle_gamma    89.902

_space_group_name_H-M_alt    "P 1"
_space_group_IT_number       1

loop_
  _space_group_symop_operation_xyz
  'x, y, z'

loop_
  _atom_site_type_symbol
  _atom_site_label
  _atom_site_symmetry_multiplicity
  _atom_site_fract_x
  _atom_site_fract_y
  _atom_site_fract_z
  _atom_site_occupancy
  Ca  Ca1       1.0  0.04167  0.00000  0.47917  1.0000
  Ca  Ca2       1.0  0.87500  0.66667  0.39583  1.0000
  Ca  Ca3       1.0  0.45833  0.33333  0.43750  1.0000
  Ca  Ca4       1.0  0.79167  0.00000  0.60417  1.0000
  Ca  Ca5       1.0  0.62500  0.66667  0.52083  1.0000
  Ca  Ca6       1.0  0.20833  0.33333  0.56250  1.0000
  Ge  Ge1       1.0  0.61761  0.90898  0.44888  1.0000
  Ge  Ge2       1.0  0.20095  0.57565  0.49054  1.0000
  Ge  Ge3       1.0  0.03428  0.24232  0.40721  1.0000
  Ge  Ge4       1.0  0.29905  0.75768  0.42612  1.0000
  Ge  Ge5       1.0  0.88239  0.42435  0.46779  1.0000
  Ge  Ge6       1.0  0.71572  0.09102  0.38446  1.0000
  Ge  Ge7       1.0  0.36761  0.90898  0.57388  1.0000
  Ge  Ge8       1.0  0.95095  0.57565  0.61554  1.0000
  Ge  Ge9       1.0  0.78428  0.24232  0.53221  1.0000
  Ge  Ge10      1.0  0.04905  0.75768  0.55112  1.0000
  Ge  Ge11      1.0  0.63239  0.42435  0.59279  1.0000
  Ge  Ge12      1.0  0.46572  0.09102  0.50946  1.0000
