data_image0
_chemical_formula_structural       Si8Mo4Si8Mo4Si8Mo4Si8Mo4
_chemical_formula_sum              "Si32 Mo16"
_cell_length_a       3.19394
_cell_length_b       15.9323
_cell_length_c       35.1333
_cell_angle_alpha    101.564
_cell_angle_beta     90
_cell_angle_gamma    90

_space_group_name_H-M_alt    "P 1"
_space_group_IT_number       1

loop_
  _space_group_symop_operation_xyz
  'x, y, z'

loop_
  _atom_site_type_symbol
  _atom_site_label
  _atom_site_symmetry_multiplicity
  _atom_site_fract_x
  _atom_site_fract_y
  _atom_site_fract_z
  _atom_site_occupancy
  Si  Si1       1.0  0.50000  0.08242  0.39764  1.0000
  Si  Si2       1.0  0.50000  0.58242  0.35219  1.0000
  Si  Si3       1.0  0.00000  0.16758  0.35993  1.0000
  Si  Si4       1.0  0.00000  0.66758  0.40539  1.0000
  Si  Si5       1.0  0.00000  0.33242  0.37492  1.0000
  Si  Si6       1.0  0.00000  0.83242  0.32946  1.0000
  Si  Si7       1.0  0.50000  0.41758  0.33720  1.0000
  Si  Si8       1.0  0.50000  0.91758  0.38266  1.0000
  Mo  Mo1       1.0  0.00000  0.00000  0.34470  1.0000
  Mo  Mo2       1.0  0.00000  0.50000  0.39015  1.0000
  Mo  Mo3       1.0  0.50000  0.25000  0.32197  1.0000
  Mo  Mo4       1.0  0.50000  0.75000  0.36742  1.0000
  Si  Si9       1.0  0.50000  0.08242  0.48855  1.0000
  Si  Si10      1.0  0.50000  0.58242  0.44310  1.0000
  Si  Si11      1.0  0.00000  0.16758  0.45084  1.0000
  Si  Si12      1.0  0.00000  0.66758  0.49630  1.0000
  Si  Si13      1.0  0.00000  0.33242  0.46583  1.0000
  Si  Si14      1.0  0.00000  0.83242  0.42037  1.0000
  Si  Si15      1.0  0.50000  0.41758  0.42811  1.0000
  Si  Si16      1.0  0.50000  0.91758  0.47357  1.0000
  Mo  Mo5       1.0  0.00000  0.00000  0.43561  1.0000
  Mo  Mo6       1.0  0.00000  0.50000  0.48106  1.0000
  Mo  Mo7       1.0  0.50000  0.25000  0.41288  1.0000
  Mo  Mo8       1.0  0.50000  0.75000  0.45833  1.0000
  Si  Si17      1.0  0.50000  0.08242  0.57946  1.0000
  Si  Si18      1.0  0.50000  0.58242  0.53401  1.0000
  Si  Si19      1.0  0.00000  0.16758  0.54175  1.0000
  Si  Si20      1.0  0.00000  0.66758  0.58720  1.0000
  Si  Si21      1.0  0.00000  0.33242  0.55674  1.0000
  Si  Si22      1.0  0.00000  0.83242  0.51128  1.0000
  Si  Si23      1.0  0.50000  0.41758  0.51902  1.0000
  Si  Si24      1.0  0.50000  0.91758  0.56448  1.0000
  Mo  Mo9       1.0  0.00000  0.00000  0.52652  1.0000
  Mo  Mo10      1.0  0.00000  0.50000  0.57197  1.0000
  Mo  Mo11      1.0  0.50000  0.25000  0.50379  1.0000
  Mo  Mo12      1.0  0.50000  0.75000  0.54924  1.0000
  Si  Si25      1.0  0.50000  0.08242  0.67037  1.0000
  Si  Si26      1.0  0.50000  0.58242  0.62492  1.0000
  Si  Si27      1.0  0.00000  0.16758  0.63266  1.0000
  Si  Si28      1.0  0.00000  0.66758  0.67811  1.0000
  Si  Si29      1.0  0.00000  0.33242  0.64764  1.0000
  Si  Si30      1.0  0.00000  0.83242  0.60219  1.0000
  Si  Si31      1.0  0.50000  0.41758  0.60993  1.0000
  Si  Si32      1.0  0.50000  0.91758  0.65539  1.0000
  Mo  Mo13      1.0  0.00000  0.00000  0.61742  1.0000
  Mo  Mo14      1.0  0.00000  0.50000  0.66288  1.0000
  Mo  Mo15      1.0  0.50000  0.25000  0.59470  1.0000
  Mo  Mo16      1.0  0.50000  0.75000  0.64015  1.0000
