data_image0
_chemical_formula_structural       Ti12
_chemical_formula_sum              "Ti12"
_cell_length_a       4.50008
_cell_length_b       4.50008
_cell_length_c       33.3748
_cell_angle_alpha    90
_cell_angle_beta     90
_cell_angle_gamma    120

_space_group_name_H-M_alt    "P 1"
_space_group_IT_number       1

loop_
  _space_group_symop_operation_xyz
  'x, y, z'

loop_
  _atom_site_type_symbol
  _atom_site_label
  _atom_site_symmetry_multiplicity
  _atom_site_fract_x
  _atom_site_fract_y
  _atom_site_fract_z
  _atom_site_occupancy
  Ti  Ti1       1.0  0.00000  0.00000  0.40278  1.0000
  Ti  Ti2       1.0  0.33333  0.66667  0.36111  1.0000
  Ti  Ti3       1.0  0.66667  0.33333  0.36111  1.0000
  Ti  Ti4       1.0  0.00000  0.00000  0.48611  1.0000
  Ti  Ti5       1.0  0.33333  0.66667  0.44444  1.0000
  Ti  Ti6       1.0  0.66667  0.33333  0.44444  1.0000
  Ti  Ti7       1.0  0.00000  0.00000  0.56944  1.0000
  Ti  Ti8       1.0  0.33333  0.66667  0.52778  1.0000
  Ti  Ti9       1.0  0.66667  0.33333  0.52778  1.0000
  Ti  Ti10      1.0  0.00000  0.00000  0.65278  1.0000
  Ti  Ti11      1.0  0.33333  0.66667  0.61111  1.0000
  Ti  Ti12      1.0  0.66667  0.33333  0.61111  1.0000
