data_image0
_chemical_formula_structural       Fe8As8Fe8As8
_chemical_formula_sum              "Fe16 As16"
_cell_length_a       5.90769
_cell_length_b       6.23881
_cell_length_c       37.4329
_cell_angle_alpha    63.1166
_cell_angle_beta     90
_cell_angle_gamma    90

_space_group_name_H-M_alt    "P 1"
_space_group_IT_number       1

loop_
  _space_group_symop_operation_xyz
  'x, y, z'

loop_
  _atom_site_type_symbol
  _atom_site_label
  _atom_site_symmetry_multiplicity
  _atom_site_fract_x
  _atom_site_fract_y
  _atom_site_fract_z
  _atom_site_occupancy
  Fe  Fe1       1.0  0.79987  0.37520  0.42712  1.0000
  Fe  Fe2       1.0  0.79987  0.87520  0.34378  1.0000
  Fe  Fe3       1.0  0.20013  0.62480  0.38538  1.0000
  Fe  Fe4       1.0  0.20013  0.12480  0.46872  1.0000
  Fe  Fe5       1.0  0.70013  0.62520  0.46878  1.0000
  Fe  Fe6       1.0  0.70013  0.12520  0.38545  1.0000
  Fe  Fe7       1.0  0.29987  0.37480  0.34372  1.0000
  Fe  Fe8       1.0  0.29987  0.87480  0.42705  1.0000
  As  As1       1.0  0.42397  0.47459  0.44368  1.0000
  As  As2       1.0  0.42397  0.97459  0.36035  1.0000
  As  As3       1.0  0.57603  0.52541  0.36882  1.0000
  As  As4       1.0  0.57603  0.02541  0.45215  1.0000
  As  As5       1.0  0.07603  0.72459  0.48535  1.0000
  As  As6       1.0  0.07603  0.22459  0.40202  1.0000
  As  As7       1.0  0.92397  0.27541  0.49382  1.0000
  As  As8       1.0  0.92397  0.77541  0.41048  1.0000
  Fe  Fe9       1.0  0.79987  0.37520  0.59378  1.0000
  Fe  Fe10      1.0  0.79987  0.87520  0.51045  1.0000
  Fe  Fe11      1.0  0.20013  0.62480  0.55205  1.0000
  Fe  Fe12      1.0  0.20013  0.12480  0.63538  1.0000
  Fe  Fe13      1.0  0.70013  0.62520  0.63545  1.0000
  Fe  Fe14      1.0  0.70013  0.12520  0.55212  1.0000
  Fe  Fe15      1.0  0.29987  0.37480  0.51038  1.0000
  Fe  Fe16      1.0  0.29987  0.87480  0.59372  1.0000
  As  As9       1.0  0.42397  0.47459  0.61035  1.0000
  As  As10      1.0  0.42397  0.97459  0.52702  1.0000
  As  As11      1.0  0.57603  0.52541  0.53548  1.0000
  As  As12      1.0  0.57603  0.02541  0.61882  1.0000
  As  As13      1.0  0.07603  0.72459  0.65202  1.0000
  As  As14      1.0  0.07603  0.22459  0.56868  1.0000
  As  As15      1.0  0.92397  0.27541  0.66048  1.0000
  As  As16      1.0  0.92397  0.77541  0.57715  1.0000
