data_image0
_chemical_formula_structural       V4Co4Si4V4Co4Si4
_chemical_formula_sum              "V8 Co8 Si8"
_cell_length_a       3.51089
_cell_length_b       5.89386
_cell_length_c       33.7705
_cell_angle_alpha    90
_cell_angle_beta     90
_cell_angle_gamma    90

_space_group_name_H-M_alt    "P 1"
_space_group_IT_number       1

loop_
  _space_group_symop_operation_xyz
  'x, y, z'

loop_
  _atom_site_type_symbol
  _atom_site_label
  _atom_site_symmetry_multiplicity
  _atom_site_fract_x
  _atom_site_fract_y
  _atom_site_fract_z
  _atom_site_occupancy
  V   V1        1.0  0.25000  0.47499  0.41894  1.0000
  V   V2        1.0  0.75000  0.02501  0.31894  1.0000
  V   V3        1.0  0.25000  0.97499  0.44773  1.0000
  V   V4        1.0  0.75000  0.52501  0.34773  1.0000
  Co  Co1       1.0  0.75000  0.64282  0.47115  1.0000
  Co  Co2       1.0  0.75000  0.14282  0.39552  1.0000
  Co  Co3       1.0  0.25000  0.85718  0.37115  1.0000
  Co  Co4       1.0  0.25000  0.35718  0.49552  1.0000
  Si  Si1       1.0  0.75000  0.76696  0.40809  1.0000
  Si  Si2       1.0  0.75000  0.26696  0.45858  1.0000
  Si  Si3       1.0  0.25000  0.23304  0.35858  1.0000
  Si  Si4       1.0  0.25000  0.73304  0.30809  1.0000
  V   V5        1.0  0.25000  0.47499  0.61894  1.0000
  V   V6        1.0  0.75000  0.02501  0.51894  1.0000
  V   V7        1.0  0.25000  0.97499  0.64773  1.0000
  V   V8        1.0  0.75000  0.52501  0.54773  1.0000
  Co  Co5       1.0  0.75000  0.64282  0.67115  1.0000
  Co  Co6       1.0  0.75000  0.14282  0.59552  1.0000
  Co  Co7       1.0  0.25000  0.85718  0.57115  1.0000
  Co  Co8       1.0  0.25000  0.35718  0.69552  1.0000
  Si  Si5       1.0  0.75000  0.76696  0.60809  1.0000
  Si  Si6       1.0  0.75000  0.26696  0.65858  1.0000
  Si  Si7       1.0  0.25000  0.23304  0.55858  1.0000
  Si  Si8       1.0  0.25000  0.73304  0.50809  1.0000
