data_image0
_chemical_formula_structural       Al24Mo9
_chemical_formula_sum              "Al24 Mo9"
_cell_length_a       4.92357
_cell_length_b       10.3543
_cell_length_c       32.5354
_cell_angle_alpha    87.5962
_cell_angle_beta     89.256
_cell_angle_gamma    79.6738

_space_group_name_H-M_alt    "P 1"
_space_group_IT_number       1

loop_
  _space_group_symop_operation_xyz
  'x, y, z'

loop_
  _atom_site_type_symbol
  _atom_site_label
  _atom_site_symmetry_multiplicity
  _atom_site_fract_x
  _atom_site_fract_y
  _atom_site_fract_z
  _atom_site_occupancy
  Al  Al1       1.0  0.45575  0.72666  0.36352  1.0000
  Al  Al2       1.0  0.80788  0.51880  0.39102  1.0000
  Al  Al3       1.0  0.32494  0.46548  0.35537  1.0000
  Al  Al4       1.0  0.93869  0.77998  0.39917  1.0000
  Al  Al5       1.0  0.15922  0.30398  0.41814  1.0000
  Al  Al6       1.0  0.40442  0.84147  0.43641  1.0000
  Al  Al7       1.0  0.03508  0.04838  0.40992  1.0000
  Al  Al8       1.0  0.52856  0.09708  0.44462  1.0000
  Al  Al9       1.0  0.75575  0.62666  0.46352  1.0000
  Al  Al10      1.0  0.10788  0.41880  0.49102  1.0000
  Al  Al11      1.0  0.62494  0.36548  0.45537  1.0000
  Al  Al12      1.0  0.23869  0.67998  0.49917  1.0000
  Al  Al13      1.0  0.45922  0.20398  0.51814  1.0000
  Al  Al14      1.0  0.70442  0.74147  0.53641  1.0000
  Al  Al15      1.0  0.33508  0.94838  0.50992  1.0000
  Al  Al16      1.0  0.82856  0.99708  0.54462  1.0000
  Al  Al17      1.0  0.05575  0.52666  0.56352  1.0000
  Al  Al18      1.0  0.40788  0.31880  0.59102  1.0000
  Al  Al19      1.0  0.92494  0.26548  0.55537  1.0000
  Al  Al20      1.0  0.53869  0.57998  0.59917  1.0000
  Al  Al21      1.0  0.75922  0.10398  0.61814  1.0000
  Al  Al22      1.0  0.00442  0.64147  0.63641  1.0000
  Al  Al23      1.0  0.63508  0.84838  0.60992  1.0000
  Al  Al24      1.0  0.12856  0.89708  0.64462  1.0000
  Mo  Mo1       1.0  0.28182  0.57273  0.42727  1.0000
  Mo  Mo2       1.0  0.58264  0.96975  0.37079  1.0000
  Mo  Mo3       1.0  0.68100  0.27570  0.38376  1.0000
  Mo  Mo4       1.0  0.58182  0.47273  0.52727  1.0000
  Mo  Mo5       1.0  0.88264  0.86975  0.47079  1.0000
  Mo  Mo6       1.0  0.98100  0.17570  0.48376  1.0000
  Mo  Mo7       1.0  0.88182  0.37273  0.62727  1.0000
  Mo  Mo8       1.0  0.18264  0.76975  0.57079  1.0000
  Mo  Mo9       1.0  0.28100  0.07570  0.58376  1.0000
