data_image0
_chemical_formula_structural       Zn12Ru4Zn12Ru4Zn12Ru4
_chemical_formula_sum              "Zn36 Ru12"
_cell_length_a       3.72927
_cell_length_b       17.0457
_cell_length_c       33.5634
_cell_angle_alpha    115.948
_cell_angle_beta     90
_cell_angle_gamma    90

_space_group_name_H-M_alt    "P 1"
_space_group_IT_number       1

loop_
  _space_group_symop_operation_xyz
  'x, y, z'

loop_
  _atom_site_type_symbol
  _atom_site_label
  _atom_site_symmetry_multiplicity
  _atom_site_fract_x
  _atom_site_fract_y
  _atom_site_fract_z
  _atom_site_occupancy
  Zn  Zn1       1.0  0.50000  0.12897  0.40366  1.0000
  Zn  Zn2       1.0  0.00000  0.37103  0.40189  1.0000
  Zn  Zn3       1.0  0.00000  0.00000  0.37500  1.0000
  Zn  Zn4       1.0  0.50000  0.00000  0.43056  1.0000
  Zn  Zn5       1.0  0.00000  0.25000  0.43056  1.0000
  Zn  Zn6       1.0  0.50000  0.25000  0.37500  1.0000
  Zn  Zn7       1.0  0.00000  0.62897  0.34811  1.0000
  Zn  Zn8       1.0  0.50000  0.87103  0.34634  1.0000
  Zn  Zn9       1.0  0.50000  0.50000  0.43056  1.0000
  Zn  Zn10      1.0  0.00000  0.50000  0.37500  1.0000
  Zn  Zn11      1.0  0.50000  0.75000  0.37500  1.0000
  Zn  Zn12      1.0  0.00000  0.75000  0.43056  1.0000
  Ru  Ru1       1.0  0.50000  0.38294  0.34899  1.0000
  Ru  Ru2       1.0  0.00000  0.11706  0.34546  1.0000
  Ru  Ru3       1.0  0.00000  0.88294  0.40454  1.0000
  Ru  Ru4       1.0  0.50000  0.61706  0.40101  1.0000
  Zn  Zn13      1.0  0.50000  0.12897  0.51477  1.0000
  Zn  Zn14      1.0  0.00000  0.37103  0.51301  1.0000
  Zn  Zn15      1.0  0.00000  0.00000  0.48611  1.0000
  Zn  Zn16      1.0  0.50000  0.00000  0.54167  1.0000
  Zn  Zn17      1.0  0.00000  0.25000  0.54167  1.0000
  Zn  Zn18      1.0  0.50000  0.25000  0.48611  1.0000
  Zn  Zn19      1.0  0.00000  0.62897  0.45922  1.0000
  Zn  Zn20      1.0  0.50000  0.87103  0.45745  1.0000
  Zn  Zn21      1.0  0.50000  0.50000  0.54167  1.0000
  Zn  Zn22      1.0  0.00000  0.50000  0.48611  1.0000
  Zn  Zn23      1.0  0.50000  0.75000  0.48611  1.0000
  Zn  Zn24      1.0  0.00000  0.75000  0.54167  1.0000
  Ru  Ru5       1.0  0.50000  0.38294  0.46010  1.0000
  Ru  Ru6       1.0  0.00000  0.11706  0.45657  1.0000
  Ru  Ru7       1.0  0.00000  0.88294  0.51565  1.0000
  Ru  Ru8       1.0  0.50000  0.61706  0.51212  1.0000
  Zn  Zn25      1.0  0.50000  0.12897  0.62588  1.0000
  Zn  Zn26      1.0  0.00000  0.37103  0.62412  1.0000
  Zn  Zn27      1.0  0.00000  0.00000  0.59722  1.0000
  Zn  Zn28      1.0  0.50000  0.00000  0.65278  1.0000
  Zn  Zn29      1.0  0.00000  0.25000  0.65278  1.0000
  Zn  Zn30      1.0  0.50000  0.25000  0.59722  1.0000
  Zn  Zn31      1.0  0.00000  0.62897  0.57033  1.0000
  Zn  Zn32      1.0  0.50000  0.87103  0.56856  1.0000
  Zn  Zn33      1.0  0.50000  0.50000  0.65278  1.0000
  Zn  Zn34      1.0  0.00000  0.50000  0.59722  1.0000
  Zn  Zn35      1.0  0.50000  0.75000  0.59722  1.0000
  Zn  Zn36      1.0  0.00000  0.75000  0.65278  1.0000
  Ru  Ru9       1.0  0.50000  0.38294  0.57121  1.0000
  Ru  Ru10      1.0  0.00000  0.11706  0.56768  1.0000
  Ru  Ru11      1.0  0.00000  0.88294  0.62676  1.0000
  Ru  Ru12      1.0  0.50000  0.61706  0.62324  1.0000
