data_image0
_chemical_formula_structural       Fe2Sb2As2Fe2Sb2As2
_chemical_formula_sum              "Fe4 Sb4 As4"
_cell_length_a       3.00845
_cell_length_b       6.17998
_cell_length_c       32.9149
_cell_angle_alpha    90
_cell_angle_beta     90
_cell_angle_gamma    90

_space_group_name_H-M_alt    "P 1"
_space_group_IT_number       1

loop_
  _space_group_symop_operation_xyz
  'x, y, z'

loop_
  _atom_site_type_symbol
  _atom_site_label
  _atom_site_symmetry_multiplicity
  _atom_site_fract_x
  _atom_site_fract_y
  _atom_site_fract_z
  _atom_site_occupancy
  Fe  Fe1       1.0  0.00000  0.30795  0.39888  1.0000
  Fe  Fe2       1.0  0.50000  0.80795  0.49001  1.0000
  Sb  Sb1       1.0  0.00000  0.94259  0.43267  1.0000
  Sb  Sb2       1.0  0.50000  0.44259  0.45622  1.0000
  As  As1       1.0  0.00000  0.65706  0.37081  1.0000
  As  As2       1.0  0.50000  0.15706  0.35142  1.0000
  Fe  Fe3       1.0  0.00000  0.30795  0.56555  1.0000
  Fe  Fe4       1.0  0.50000  0.80795  0.65667  1.0000
  Sb  Sb3       1.0  0.00000  0.94259  0.59933  1.0000
  Sb  Sb4       1.0  0.50000  0.44259  0.62289  1.0000
  As  As3       1.0  0.00000  0.65706  0.53747  1.0000
  As  As4       1.0  0.50000  0.15706  0.51808  1.0000
