data_image0
_chemical_formula_structural       Co6As12Co6As12
_chemical_formula_sum              "Co12 As24"
_cell_length_a       5.82115
_cell_length_b       7.95485
_cell_length_c       35.4693
_cell_angle_alpha    81.9157
_cell_angle_beta     90
_cell_angle_gamma    90

_space_group_name_H-M_alt    "P 1"
_space_group_IT_number       1

loop_
  _space_group_symop_operation_xyz
  'x, y, z'

loop_
  _atom_site_type_symbol
  _atom_site_label
  _atom_site_symmetry_multiplicity
  _atom_site_fract_x
  _atom_site_fract_y
  _atom_site_fract_z
  _atom_site_occupancy
  Co  Co1       1.0  0.50000  0.33333  0.34722  1.0000
  Co  Co2       1.0  0.50000  0.00000  0.40278  1.0000
  Co  Co3       1.0  0.50000  0.66667  0.45833  1.0000
  Co  Co4       1.0  0.00000  0.33333  0.43056  1.0000
  Co  Co5       1.0  0.00000  0.00000  0.48611  1.0000
  Co  Co6       1.0  0.00000  0.66667  0.37500  1.0000
  As  As1       1.0  0.86379  0.27045  0.49293  1.0000
  As  As2       1.0  0.86379  0.93712  0.38182  1.0000
  As  As3       1.0  0.86379  0.60378  0.43737  1.0000
  As  As4       1.0  0.13621  0.39622  0.36818  1.0000
  As  As5       1.0  0.13621  0.06288  0.42374  1.0000
  As  As6       1.0  0.13621  0.72955  0.47929  1.0000
  As  As7       1.0  0.63621  0.27045  0.40959  1.0000
  As  As8       1.0  0.63621  0.93712  0.46515  1.0000
  As  As9       1.0  0.63621  0.60378  0.35404  1.0000
  As  As10      1.0  0.36379  0.06288  0.34041  1.0000
  As  As11      1.0  0.36379  0.72955  0.39596  1.0000
  As  As12      1.0  0.36379  0.39622  0.45152  1.0000
  Co  Co7       1.0  0.50000  0.33333  0.51389  1.0000
  Co  Co8       1.0  0.50000  0.00000  0.56944  1.0000
  Co  Co9       1.0  0.50000  0.66667  0.62500  1.0000
  Co  Co10      1.0  0.00000  0.33333  0.59722  1.0000
  Co  Co11      1.0  0.00000  0.00000  0.65278  1.0000
  Co  Co12      1.0  0.00000  0.66667  0.54167  1.0000
  As  As13      1.0  0.86379  0.27045  0.65959  1.0000
  As  As14      1.0  0.86379  0.93712  0.54848  1.0000
  As  As15      1.0  0.86379  0.60378  0.60404  1.0000
  As  As16      1.0  0.13621  0.39622  0.53485  1.0000
  As  As17      1.0  0.13621  0.06288  0.59041  1.0000
  As  As18      1.0  0.13621  0.72955  0.64596  1.0000
  As  As19      1.0  0.63621  0.27045  0.57626  1.0000
  As  As20      1.0  0.63621  0.93712  0.63182  1.0000
  As  As21      1.0  0.63621  0.60378  0.52071  1.0000
  As  As22      1.0  0.36379  0.06288  0.50707  1.0000
  As  As23      1.0  0.36379  0.72955  0.56263  1.0000
  As  As24      1.0  0.36379  0.39622  0.61818  1.0000
