data_image0
_chemical_formula_structural       Al24Re2
_chemical_formula_sum              "Al24 Re2"
_cell_length_a       6.48605
_cell_length_b       6.48605
_cell_length_c       31.775
_cell_angle_alpha    90
_cell_angle_beta     90
_cell_angle_gamma    109.471

_space_group_name_H-M_alt    "P 1"
_space_group_IT_number       1

loop_
  _space_group_symop_operation_xyz
  'x, y, z'

loop_
  _atom_site_type_symbol
  _atom_site_label
  _atom_site_symmetry_multiplicity
  _atom_site_fract_x
  _atom_site_fract_y
  _atom_site_fract_z
  _atom_site_occupancy
  Al  Al1       1.0  0.90224  0.71427  0.57620  1.0000
  Al  Al2       1.0  0.40224  0.21427  0.40953  1.0000
  Al  Al3       1.0  0.24811  0.75189  0.39825  1.0000
  Al  Al4       1.0  0.74811  0.25189  0.56492  1.0000
  Al  Al5       1.0  0.34210  0.03385  0.66016  1.0000
  Al  Al6       1.0  0.84210  0.53385  0.49350  1.0000
  Al  Al7       1.0  0.93986  0.06014  0.62883  1.0000
  Al  Al8       1.0  0.43986  0.56014  0.46217  1.0000
  Al  Al9       1.0  0.65790  0.96615  0.42958  1.0000
  Al  Al10      1.0  0.15790  0.46615  0.59625  1.0000
  Al  Al11      1.0  0.75189  0.24811  0.35816  1.0000
  Al  Al12      1.0  0.25189  0.74811  0.52482  1.0000
  Al  Al13      1.0  0.96615  0.65790  0.66016  1.0000
  Al  Al14      1.0  0.46615  0.15790  0.49350  1.0000
  Al  Al15      1.0  0.53385  0.84210  0.59625  1.0000
  Al  Al16      1.0  0.03385  0.34210  0.42958  1.0000
  Al  Al17      1.0  0.56014  0.43986  0.62758  1.0000
  Al  Al18      1.0  0.06014  0.93986  0.46091  1.0000
  Al  Al19      1.0  0.21427  0.40224  0.34688  1.0000
  Al  Al20      1.0  0.71427  0.90224  0.51354  1.0000
  Al  Al21      1.0  0.28573  0.09776  0.57620  1.0000
  Al  Al22      1.0  0.78573  0.59776  0.40953  1.0000
  Al  Al23      1.0  0.59776  0.78573  0.34688  1.0000
  Al  Al24      1.0  0.09776  0.28573  0.51354  1.0000
  Re  Re1       1.0  0.50000  0.50000  0.54487  1.0000
  Re  Re2       1.0  0.00000  0.00000  0.37821  1.0000
