data_image0
_chemical_formula_structural       Al18Ni12
_chemical_formula_sum              "Al18 Ni12"
_cell_length_a       6.3041
_cell_length_b       8.46763
_cell_length_c       30.43
_cell_angle_alpha    89.9079
_cell_angle_beta     85.3459
_cell_angle_gamma    89.7777

_space_group_name_H-M_alt    "P 1"
_space_group_IT_number       1

loop_
  _space_group_symop_operation_xyz
  'x, y, z'

loop_
  _atom_site_type_symbol
  _atom_site_label
  _atom_site_symmetry_multiplicity
  _atom_site_fract_x
  _atom_site_fract_y
  _atom_site_fract_z
  _atom_site_occupancy
  Al  Al1       1.0  0.02500  0.00000  0.48750  1.0000
  Al  Al2       1.0  0.85833  0.66667  0.40417  1.0000
  Al  Al3       1.0  0.44167  0.33333  0.44583  1.0000
  Al  Al4       1.0  0.43038  0.67312  0.44503  1.0000
  Al  Al5       1.0  0.01371  0.33978  0.48669  1.0000
  Al  Al6       1.0  0.84705  0.00645  0.40336  1.0000
  Al  Al7       1.0  0.45295  0.99355  0.44664  1.0000
  Al  Al8       1.0  0.03629  0.66022  0.48831  1.0000
  Al  Al9       1.0  0.86962  0.32688  0.40497  1.0000
  Al  Al10      1.0  0.77500  0.00000  0.61250  1.0000
  Al  Al11      1.0  0.60833  0.66667  0.52917  1.0000
  Al  Al12      1.0  0.19167  0.33333  0.57083  1.0000
  Al  Al13      1.0  0.18038  0.67312  0.57003  1.0000
  Al  Al14      1.0  0.76371  0.33978  0.61169  1.0000
  Al  Al15      1.0  0.59705  0.00645  0.52836  1.0000
  Al  Al16      1.0  0.20295  0.99355  0.57164  1.0000
  Al  Al17      1.0  0.78629  0.66022  0.61331  1.0000
  Al  Al18      1.0  0.61962  0.32688  0.52997  1.0000
  Ni  Ni1       1.0  0.13842  0.83995  0.42417  1.0000
  Ni  Ni2       1.0  0.72175  0.50662  0.46584  1.0000
  Ni  Ni3       1.0  0.55509  0.17328  0.38251  1.0000
  Ni  Ni4       1.0  0.74491  0.82672  0.46749  1.0000
  Ni  Ni5       1.0  0.57825  0.49338  0.38416  1.0000
  Ni  Ni6       1.0  0.16158  0.16005  0.42583  1.0000
  Ni  Ni7       1.0  0.88842  0.83995  0.54917  1.0000
  Ni  Ni8       1.0  0.47175  0.50662  0.59084  1.0000
  Ni  Ni9       1.0  0.30509  0.17328  0.50751  1.0000
  Ni  Ni10      1.0  0.49491  0.82672  0.59249  1.0000
  Ni  Ni11      1.0  0.32825  0.49338  0.50916  1.0000
  Ni  Ni12      1.0  0.91158  0.16005  0.55083  1.0000
