data_image0
_chemical_formula_structural       Au8Ti2
_chemical_formula_sum              "Au8 Ti2"
_cell_length_a       3.93428
_cell_length_b       4.97964
_cell_length_c       36.597
_cell_angle_alpha    90
_cell_angle_beta     90
_cell_angle_gamma    113.268

_space_group_name_H-M_alt    "P 1"
_space_group_IT_number       1

loop_
  _space_group_symop_operation_xyz
  'x, y, z'

loop_
  _atom_site_type_symbol
  _atom_site_label
  _atom_site_symmetry_multiplicity
  _atom_site_fract_x
  _atom_site_fract_y
  _atom_site_fract_z
  _atom_site_occupancy
  Au  Au1       1.0  0.40593  0.81187  0.56275  1.0000
  Au  Au2       1.0  0.90593  0.81187  0.43775  1.0000
  Au  Au3       1.0  0.59407  0.18813  0.41225  1.0000
  Au  Au4       1.0  0.09407  0.18813  0.53725  1.0000
  Au  Au5       1.0  0.69901  0.39802  0.58898  1.0000
  Au  Au6       1.0  0.19901  0.39802  0.46398  1.0000
  Au  Au7       1.0  0.30099  0.60198  0.38602  1.0000
  Au  Au8       1.0  0.80099  0.60198  0.51102  1.0000
  Ti  Ti1       1.0  0.50000  0.00000  0.48750  1.0000
  Ti  Ti2       1.0  0.00000  0.00000  0.61250  1.0000
