data_image0
_chemical_formula_structural       Ag4Ti8
_chemical_formula_sum              "Ag4 Ti8"
_cell_length_a       4.06766
_cell_length_b       6.30592
_cell_length_c       30.8749
_cell_angle_alpha    93.9306
_cell_angle_beta     90
_cell_angle_gamma    90

_space_group_name_H-M_alt    "P 1"
_space_group_IT_number       1

loop_
  _space_group_symop_operation_xyz
  'x, y, z'

loop_
  _atom_site_type_symbol
  _atom_site_label
  _atom_site_symmetry_multiplicity
  _atom_site_fract_x
  _atom_site_fract_y
  _atom_site_fract_z
  _atom_site_occupancy
  Ag  Ag1       1.0  0.00000  0.06250  0.53125  1.0000
  Ag  Ag2       1.0  0.50000  0.18750  0.59375  1.0000
  Ag  Ag3       1.0  0.00000  0.81250  0.40625  1.0000
  Ag  Ag4       1.0  0.50000  0.93750  0.46875  1.0000
  Ti  Ti1       1.0  0.00000  0.88548  0.61532  1.0000
  Ti  Ti2       1.0  0.50000  0.76048  0.55282  1.0000
  Ti  Ti3       1.0  0.00000  0.48952  0.57218  1.0000
  Ti  Ti4       1.0  0.50000  0.36452  0.50968  1.0000
  Ti  Ti5       1.0  0.00000  0.63548  0.49032  1.0000
  Ti  Ti6       1.0  0.50000  0.51048  0.42782  1.0000
  Ti  Ti7       1.0  0.00000  0.23952  0.44718  1.0000
  Ti  Ti8       1.0  0.50000  0.11452  0.38468  1.0000
