data_image0
_chemical_formula_structural       Fe4Sb4As4Fe4Sb4As4Fe4Sb4As4Fe4Sb4As4
_chemical_formula_sum              "Fe16 Sb16 As16"
_cell_length_a       11.3766
_cell_length_b       6.87335
_cell_length_c       36.1014
_cell_angle_alpha    115.957
_cell_angle_beta     105.334
_cell_angle_gamma    83.3534

_space_group_name_H-M_alt    "P 1"
_space_group_IT_number       1

loop_
  _space_group_symop_operation_xyz
  'x, y, z'

loop_
  _atom_site_type_symbol
  _atom_site_label
  _atom_site_symmetry_multiplicity
  _atom_site_fract_x
  _atom_site_fract_y
  _atom_site_fract_z
  _atom_site_occupancy
  Fe  Fe1       1.0  0.13669  0.69205  0.37205  1.0000
  Fe  Fe2       1.0  0.63669  0.69205  0.41372  1.0000
  Fe  Fe3       1.0  0.36331  0.19205  0.39094  1.0000
  Fe  Fe4       1.0  0.86331  0.19205  0.34927  1.0000
  Sb  Sb1       1.0  0.03533  0.05741  0.39405  1.0000
  Sb  Sb2       1.0  0.53533  0.05741  0.35238  1.0000
  Sb  Sb3       1.0  0.46467  0.55741  0.34650  1.0000
  Sb  Sb4       1.0  0.96467  0.55741  0.38816  1.0000
  As  As1       1.0  0.22092  0.34294  0.34998  1.0000
  As  As2       1.0  0.72092  0.34294  0.39164  1.0000
  As  As3       1.0  0.27908  0.84294  0.35482  1.0000
  As  As4       1.0  0.77908  0.84294  0.39649  1.0000
  Fe  Fe5       1.0  0.13669  0.69205  0.45538  1.0000
  Fe  Fe6       1.0  0.63669  0.69205  0.49705  1.0000
  Fe  Fe7       1.0  0.36331  0.19205  0.47427  1.0000
  Fe  Fe8       1.0  0.86331  0.19205  0.43260  1.0000
  Sb  Sb5       1.0  0.03533  0.05741  0.47738  1.0000
  Sb  Sb6       1.0  0.53533  0.05741  0.43572  1.0000
  Sb  Sb7       1.0  0.46467  0.55741  0.42983  1.0000
  Sb  Sb8       1.0  0.96467  0.55741  0.47150  1.0000
  As  As5       1.0  0.22092  0.34294  0.43331  1.0000
  As  As6       1.0  0.72092  0.34294  0.47498  1.0000
  As  As7       1.0  0.27908  0.84294  0.43816  1.0000
  As  As8       1.0  0.77908  0.84294  0.47982  1.0000
  Fe  Fe9       1.0  0.13669  0.69205  0.53872  1.0000
  Fe  Fe10      1.0  0.63669  0.69205  0.58038  1.0000
  Fe  Fe11      1.0  0.36331  0.19205  0.55760  1.0000
  Fe  Fe12      1.0  0.86331  0.19205  0.51594  1.0000
  Sb  Sb9       1.0  0.03533  0.05741  0.56072  1.0000
  Sb  Sb10      1.0  0.53533  0.05741  0.51905  1.0000
  Sb  Sb11      1.0  0.46467  0.55741  0.51316  1.0000
  Sb  Sb12      1.0  0.96467  0.55741  0.55483  1.0000
  As  As9       1.0  0.22092  0.34294  0.51664  1.0000
  As  As10      1.0  0.72092  0.34294  0.55831  1.0000
  As  As11      1.0  0.27908  0.84294  0.52149  1.0000
  As  As12      1.0  0.77908  0.84294  0.56316  1.0000
  Fe  Fe13      1.0  0.13669  0.69205  0.62205  1.0000
  Fe  Fe14      1.0  0.63669  0.69205  0.66372  1.0000
  Fe  Fe15      1.0  0.36331  0.19205  0.64094  1.0000
  Fe  Fe16      1.0  0.86331  0.19205  0.59927  1.0000
  Sb  Sb13      1.0  0.03533  0.05741  0.64405  1.0000
  Sb  Sb14      1.0  0.53533  0.05741  0.60238  1.0000
  Sb  Sb15      1.0  0.46467  0.55741  0.59650  1.0000
  Sb  Sb16      1.0  0.96467  0.55741  0.63816  1.0000
  As  As13      1.0  0.22092  0.34294  0.59998  1.0000
  As  As14      1.0  0.72092  0.34294  0.64164  1.0000
  As  As15      1.0  0.27908  0.84294  0.60482  1.0000
  As  As16      1.0  0.77908  0.84294  0.64649  1.0000
