data_image0
_chemical_formula_structural       Si8Rh8Si8Rh8
_chemical_formula_sum              "Si16 Rh16"
_cell_length_a       4.54972
_cell_length_b       8.44125
_cell_length_c       33.3765
_cell_angle_alpha    78.5096
_cell_angle_beta     90
_cell_angle_gamma    90

_space_group_name_H-M_alt    "P 1"
_space_group_IT_number       1

loop_
  _space_group_symop_operation_xyz
  'x, y, z'

loop_
  _atom_site_type_symbol
  _atom_site_label
  _atom_site_symmetry_multiplicity
  _atom_site_fract_x
  _atom_site_fract_y
  _atom_site_fract_z
  _atom_site_occupancy
  Si  Si1       1.0  0.64708  0.10630  0.36845  1.0000
  Si  Si2       1.0  0.64708  0.60630  0.45178  1.0000
  Si  Si3       1.0  0.14708  0.39370  0.42322  1.0000
  Si  Si4       1.0  0.14708  0.89370  0.33988  1.0000
  Si  Si5       1.0  0.35292  0.39370  0.33988  1.0000
  Si  Si6       1.0  0.35292  0.89370  0.42322  1.0000
  Si  Si7       1.0  0.85292  0.10630  0.45178  1.0000
  Si  Si8       1.0  0.85292  0.60630  0.36845  1.0000
  Rh  Rh1       1.0  0.64366  0.35012  0.40102  1.0000
  Rh  Rh2       1.0  0.64366  0.85012  0.48435  1.0000
  Rh  Rh3       1.0  0.14366  0.14988  0.39065  1.0000
  Rh  Rh4       1.0  0.14366  0.64988  0.47398  1.0000
  Rh  Rh5       1.0  0.35634  0.14988  0.47398  1.0000
  Rh  Rh6       1.0  0.35634  0.64988  0.39065  1.0000
  Rh  Rh7       1.0  0.85634  0.35012  0.48435  1.0000
  Rh  Rh8       1.0  0.85634  0.85012  0.40102  1.0000
  Si  Si9       1.0  0.64708  0.10630  0.53512  1.0000
  Si  Si10      1.0  0.64708  0.60630  0.61845  1.0000
  Si  Si11      1.0  0.14708  0.39370  0.58988  1.0000
  Si  Si12      1.0  0.14708  0.89370  0.50655  1.0000
  Si  Si13      1.0  0.35292  0.39370  0.50655  1.0000
  Si  Si14      1.0  0.35292  0.89370  0.58988  1.0000
  Si  Si15      1.0  0.85292  0.10630  0.61845  1.0000
  Si  Si16      1.0  0.85292  0.60630  0.53512  1.0000
  Rh  Rh9       1.0  0.64366  0.35012  0.56769  1.0000
  Rh  Rh10      1.0  0.64366  0.85012  0.65102  1.0000
  Rh  Rh11      1.0  0.14366  0.14988  0.55731  1.0000
  Rh  Rh12      1.0  0.14366  0.64988  0.64065  1.0000
  Rh  Rh13      1.0  0.35634  0.14988  0.64065  1.0000
  Rh  Rh14      1.0  0.35634  0.64988  0.55731  1.0000
  Rh  Rh15      1.0  0.85634  0.35012  0.65102  1.0000
  Rh  Rh16      1.0  0.85634  0.85012  0.56769  1.0000
