data_image0
_chemical_formula_structural       Fe4As8Fe4As8Fe4As8
_chemical_formula_sum              "Fe12 As24"
_cell_length_a       5.96555
_cell_length_b       12.1622
_cell_length_c       34.1931
_cell_angle_alpha    103.549
_cell_angle_beta     118.532
_cell_angle_gamma    83.5749

_space_group_name_H-M_alt    "P 1"
_space_group_IT_number       1

loop_
  _space_group_symop_operation_xyz
  'x, y, z'

loop_
  _atom_site_type_symbol
  _atom_site_label
  _atom_site_symmetry_multiplicity
  _atom_site_fract_x
  _atom_site_fract_y
  _atom_site_fract_z
  _atom_site_occupancy
  Fe  Fe1       1.0  0.00000  0.00000  0.45486  1.0000
  Fe  Fe2       1.0  0.00000  0.50000  0.41319  1.0000
  Fe  Fe3       1.0  0.50000  0.25000  0.39236  1.0000
  Fe  Fe4       1.0  0.50000  0.75000  0.43403  1.0000
  As  As1       1.0  0.17916  0.18037  0.40149  1.0000
  As  As2       1.0  0.17916  0.68037  0.44316  1.0000
  As  As3       1.0  0.82084  0.31963  0.38323  1.0000
  As  As4       1.0  0.82084  0.81963  0.42490  1.0000
  As  As5       1.0  0.67916  0.06963  0.39226  1.0000
  As  As6       1.0  0.67916  0.56963  0.43393  1.0000
  As  As7       1.0  0.32084  0.43037  0.39246  1.0000
  As  As8       1.0  0.32084  0.93037  0.43413  1.0000
  Fe  Fe5       1.0  0.00000  0.00000  0.53819  1.0000
  Fe  Fe6       1.0  0.00000  0.50000  0.49653  1.0000
  Fe  Fe7       1.0  0.50000  0.25000  0.47569  1.0000
  Fe  Fe8       1.0  0.50000  0.75000  0.51736  1.0000
  As  As9       1.0  0.17916  0.18037  0.48482  1.0000
  As  As10      1.0  0.17916  0.68037  0.52649  1.0000
  As  As11      1.0  0.82084  0.31963  0.46657  1.0000
  As  As12      1.0  0.82084  0.81963  0.50823  1.0000
  As  As13      1.0  0.67916  0.06963  0.47559  1.0000
  As  As14      1.0  0.67916  0.56963  0.51726  1.0000
  As  As15      1.0  0.32084  0.43037  0.47580  1.0000
  As  As16      1.0  0.32084  0.93037  0.51746  1.0000
  Fe  Fe9       1.0  0.00000  0.00000  0.62153  1.0000
  Fe  Fe10      1.0  0.00000  0.50000  0.57986  1.0000
  Fe  Fe11      1.0  0.50000  0.25000  0.55903  1.0000
  Fe  Fe12      1.0  0.50000  0.75000  0.60069  1.0000
  As  As17      1.0  0.17916  0.18037  0.56816  1.0000
  As  As18      1.0  0.17916  0.68037  0.60982  1.0000
  As  As19      1.0  0.82084  0.31963  0.54990  1.0000
  As  As20      1.0  0.82084  0.81963  0.59157  1.0000
  As  As21      1.0  0.67916  0.06963  0.55893  1.0000
  As  As22      1.0  0.67916  0.56963  0.60059  1.0000
  As  As23      1.0  0.32084  0.43037  0.55913  1.0000
  As  As24      1.0  0.32084  0.93037  0.60080  1.0000
