data_image0
_chemical_formula_structural       Ir3Ru3Ir3Ru3Ir3Ru3
_chemical_formula_sum              "Ir9 Ru9"
_cell_length_a       7.16374
_cell_length_b       5.08513
_cell_length_c       32.4917
_cell_angle_alpha    105.44
_cell_angle_beta     79.1066
_cell_angle_gamma    66.2652

_space_group_name_H-M_alt    "P 1"
_space_group_IT_number       1

loop_
  _space_group_symop_operation_xyz
  'x, y, z'

loop_
  _atom_site_type_symbol
  _atom_site_label
  _atom_site_symmetry_multiplicity
  _atom_site_fract_x
  _atom_site_fract_y
  _atom_site_fract_z
  _atom_site_occupancy
  Ir  Ir1       1.0  0.83333  0.50000  0.39352  1.0000
  Ir  Ir2       1.0  0.16667  0.50000  0.42130  1.0000
  Ir  Ir3       1.0  0.50000  0.50000  0.44907  1.0000
  Ru  Ru1       1.0  0.88889  0.00000  0.41204  1.0000
  Ru  Ru2       1.0  0.22222  0.00000  0.43981  1.0000
  Ru  Ru3       1.0  0.55556  0.00000  0.38426  1.0000
  Ir  Ir4       1.0  0.83333  0.50000  0.47685  1.0000
  Ir  Ir5       1.0  0.16667  0.50000  0.50463  1.0000
  Ir  Ir6       1.0  0.50000  0.50000  0.53241  1.0000
  Ru  Ru4       1.0  0.88889  0.00000  0.49537  1.0000
  Ru  Ru5       1.0  0.22222  0.00000  0.52315  1.0000
  Ru  Ru6       1.0  0.55556  0.00000  0.46759  1.0000
  Ir  Ir7       1.0  0.83333  0.50000  0.56019  1.0000
  Ir  Ir8       1.0  0.16667  0.50000  0.58796  1.0000
  Ir  Ir9       1.0  0.50000  0.50000  0.61574  1.0000
  Ru  Ru7       1.0  0.88889  0.00000  0.57870  1.0000
  Ru  Ru8       1.0  0.22222  0.00000  0.60648  1.0000
  Ru  Ru9       1.0  0.55556  0.00000  0.55093  1.0000
