data_image0
_chemical_formula_structural       Sn4Ir4Sn4Ir4Sn4Ir4
_chemical_formula_sum              "Sn12 Ir12"
_cell_length_a       3.97719
_cell_length_b       11.8789
_cell_length_c       39.7719
_cell_angle_alpha    109.561
_cell_angle_beta     120
_cell_angle_gamma    80.363

_space_group_name_H-M_alt    "P 1"
_space_group_IT_number       1

loop_
  _space_group_symop_operation_xyz
  'x, y, z'

loop_
  _atom_site_type_symbol
  _atom_site_label
  _atom_site_symmetry_multiplicity
  _atom_site_fract_x
  _atom_site_fract_y
  _atom_site_fract_z
  _atom_site_occupancy
  Sn  Sn1       1.0  0.33333  0.37500  0.43542  1.0000
  Sn  Sn2       1.0  0.33333  0.87500  0.38542  1.0000
  Sn  Sn3       1.0  0.66667  0.12500  0.37708  1.0000
  Sn  Sn4       1.0  0.66667  0.62500  0.42708  1.0000
  Ir  Ir1       1.0  0.00000  0.25000  0.35625  1.0000
  Ir  Ir2       1.0  0.00000  0.75000  0.40625  1.0000
  Ir  Ir3       1.0  0.00000  0.00000  0.43125  1.0000
  Ir  Ir4       1.0  0.00000  0.50000  0.38125  1.0000
  Sn  Sn5       1.0  0.33333  0.37500  0.53542  1.0000
  Sn  Sn6       1.0  0.33333  0.87500  0.48542  1.0000
  Sn  Sn7       1.0  0.66667  0.12500  0.47708  1.0000
  Sn  Sn8       1.0  0.66667  0.62500  0.52708  1.0000
  Ir  Ir5       1.0  0.00000  0.25000  0.45625  1.0000
  Ir  Ir6       1.0  0.00000  0.75000  0.50625  1.0000
  Ir  Ir7       1.0  0.00000  0.00000  0.53125  1.0000
  Ir  Ir8       1.0  0.00000  0.50000  0.48125  1.0000
  Sn  Sn9       1.0  0.33333  0.37500  0.63542  1.0000
  Sn  Sn10      1.0  0.33333  0.87500  0.58542  1.0000
  Sn  Sn11      1.0  0.66667  0.12500  0.57708  1.0000
  Sn  Sn12      1.0  0.66667  0.62500  0.62708  1.0000
  Ir  Ir9       1.0  0.00000  0.25000  0.55625  1.0000
  Ir  Ir10      1.0  0.00000  0.75000  0.60625  1.0000
  Ir  Ir11      1.0  0.00000  0.00000  0.63125  1.0000
  Ir  Ir12      1.0  0.00000  0.50000  0.58125  1.0000
