data_image0
_chemical_formula_structural       As18W12
_chemical_formula_sum              "As18 W12"
_cell_length_a       6.85778
_cell_length_b       8.11989
_cell_length_c       31.4169
_cell_angle_alpha    84.7628
_cell_angle_beta     88.8345
_cell_angle_gamma    78.9733

_space_group_name_H-M_alt    "P 1"
_space_group_IT_number       1

loop_
  _space_group_symop_operation_xyz
  'x, y, z'

loop_
  _atom_site_type_symbol
  _atom_site_label
  _atom_site_symmetry_multiplicity
  _atom_site_fract_x
  _atom_site_fract_y
  _atom_site_fract_z
  _atom_site_occupancy
  As  As1       1.0  0.00915  0.95991  0.40939  1.0000
  As  As2       1.0  0.15085  0.20009  0.43061  1.0000
  As  As3       1.0  0.47629  0.93486  0.37840  1.0000
  As  As4       1.0  0.78371  0.32514  0.36160  1.0000
  As  As5       1.0  0.77056  0.61431  0.43249  1.0000
  As  As6       1.0  0.38944  0.54569  0.40751  1.0000
  As  As7       1.0  0.90915  0.85991  0.50939  1.0000
  As  As8       1.0  0.05085  0.10009  0.53061  1.0000
  As  As9       1.0  0.37629  0.83486  0.47840  1.0000
  As  As10      1.0  0.68371  0.22514  0.46160  1.0000
  As  As11      1.0  0.67056  0.51431  0.53249  1.0000
  As  As12      1.0  0.28944  0.44569  0.50751  1.0000
  As  As13      1.0  0.80915  0.75991  0.60939  1.0000
  As  As14      1.0  0.95085  0.00009  0.63061  1.0000
  As  As15      1.0  0.27629  0.73486  0.57840  1.0000
  As  As16      1.0  0.58371  0.12514  0.56160  1.0000
  As  As17      1.0  0.57056  0.41431  0.63249  1.0000
  As  As18      1.0  0.18944  0.34569  0.60751  1.0000
  W   W1        1.0  0.04905  0.48587  0.38527  1.0000
  W   W2        1.0  0.21095  0.77413  0.35473  1.0000
  W   W3        1.0  0.48262  0.23235  0.39528  1.0000
  W   W4        1.0  0.67738  0.92765  0.44472  1.0000
  W   W5        1.0  0.94905  0.38587  0.48527  1.0000
  W   W6        1.0  0.11095  0.67413  0.45473  1.0000
  W   W7        1.0  0.38262  0.13235  0.49528  1.0000
  W   W8        1.0  0.57738  0.82765  0.54472  1.0000
  W   W9        1.0  0.84905  0.28587  0.58527  1.0000
  W   W10       1.0  0.01095  0.57413  0.55473  1.0000
  W   W11       1.0  0.28262  0.03235  0.59528  1.0000
  W   W12       1.0  0.47738  0.72765  0.64472  1.0000
