data_image0
_chemical_formula_structural       Zn2Pt2Zn2Pt2Zn2Pt2
_chemical_formula_sum              "Zn6 Pt6"
_cell_length_a       2.83094
_cell_length_b       7.53418
_cell_length_c       31.1403
_cell_angle_alpha    112.07
_cell_angle_beta     90
_cell_angle_gamma    90

_space_group_name_H-M_alt    "P 1"
_space_group_IT_number       1

loop_
  _space_group_symop_operation_xyz
  'x, y, z'

loop_
  _atom_site_type_symbol
  _atom_site_label
  _atom_site_symmetry_multiplicity
  _atom_site_fract_x
  _atom_site_fract_y
  _atom_site_fract_z
  _atom_site_occupancy
  Zn  Zn1       1.0  0.50000  0.25000  0.42045  1.0000
  Zn  Zn2       1.0  0.50000  0.75000  0.37500  1.0000
  Pt  Pt1       1.0  0.00000  0.00000  0.44318  1.0000
  Pt  Pt2       1.0  0.00000  0.50000  0.39773  1.0000
  Zn  Zn3       1.0  0.50000  0.25000  0.51136  1.0000
  Zn  Zn4       1.0  0.50000  0.75000  0.46591  1.0000
  Pt  Pt3       1.0  0.00000  0.00000  0.53409  1.0000
  Pt  Pt4       1.0  0.00000  0.50000  0.48864  1.0000
  Zn  Zn5       1.0  0.50000  0.25000  0.60227  1.0000
  Zn  Zn6       1.0  0.50000  0.75000  0.55682  1.0000
  Pt  Pt5       1.0  0.00000  0.00000  0.62500  1.0000
  Pt  Pt6       1.0  0.00000  0.50000  0.57955  1.0000
