data_image0
_chemical_formula_structural       Co12W4Co12W4
_chemical_formula_sum              "Co24 W8"
_cell_length_a       5.03521
_cell_length_b       10.8478
_cell_length_c       32.2609
_cell_angle_alpha    68.1768
_cell_angle_beta     90
_cell_angle_gamma    62.3436

_space_group_name_H-M_alt    "P 1"
_space_group_IT_number       1

loop_
  _space_group_symop_operation_xyz
  'x, y, z'

loop_
  _atom_site_type_symbol
  _atom_site_label
  _atom_site_symmetry_multiplicity
  _atom_site_fract_x
  _atom_site_fract_y
  _atom_site_fract_z
  _atom_site_occupancy
  Co  Co1       1.0  0.67619  0.08095  0.48988  1.0000
  Co  Co2       1.0  0.67619  0.58095  0.42738  1.0000
  Co  Co3       1.0  0.83809  0.41905  0.38512  1.0000
  Co  Co4       1.0  0.83809  0.91905  0.44762  1.0000
  Co  Co5       1.0  0.83809  0.16191  0.41726  1.0000
  Co  Co6       1.0  0.83809  0.66191  0.47976  1.0000
  Co  Co7       1.0  0.16191  0.33809  0.45774  1.0000
  Co  Co8       1.0  0.16191  0.83809  0.39524  1.0000
  Co  Co9       1.0  0.16191  0.08095  0.48988  1.0000
  Co  Co10      1.0  0.16191  0.58095  0.42738  1.0000
  Co  Co11      1.0  0.32381  0.41905  0.38512  1.0000
  Co  Co12      1.0  0.32381  0.91905  0.44762  1.0000
  W   W1        1.0  0.66667  0.33333  0.45833  1.0000
  W   W2        1.0  0.66667  0.83333  0.39583  1.0000
  W   W3        1.0  0.33333  0.16667  0.41667  1.0000
  W   W4        1.0  0.33333  0.66667  0.47917  1.0000
  Co  Co13      1.0  0.67619  0.08095  0.61488  1.0000
  Co  Co14      1.0  0.67619  0.58095  0.55238  1.0000
  Co  Co15      1.0  0.83809  0.41905  0.51012  1.0000
  Co  Co16      1.0  0.83809  0.91905  0.57262  1.0000
  Co  Co17      1.0  0.83809  0.16191  0.54226  1.0000
  Co  Co18      1.0  0.83809  0.66191  0.60476  1.0000
  Co  Co19      1.0  0.16191  0.33809  0.58274  1.0000
  Co  Co20      1.0  0.16191  0.83809  0.52024  1.0000
  Co  Co21      1.0  0.16191  0.08095  0.61488  1.0000
  Co  Co22      1.0  0.16191  0.58095  0.55238  1.0000
  Co  Co23      1.0  0.32381  0.41905  0.51012  1.0000
  Co  Co24      1.0  0.32381  0.91905  0.57262  1.0000
  W   W5        1.0  0.66667  0.33333  0.58333  1.0000
  W   W6        1.0  0.66667  0.83333  0.52083  1.0000
  W   W7        1.0  0.33333  0.16667  0.54167  1.0000
  W   W8        1.0  0.33333  0.66667  0.60417  1.0000
