data_image0
_chemical_formula_structural       As3Cu3Zn3
_chemical_formula_sum              "As3 Cu3 Zn3"
_cell_length_a       4.06926
_cell_length_b       4.10994
_cell_length_c       30.3836
_cell_angle_alpha    89.6155
_cell_angle_beta     90
_cell_angle_gamma    119.673

_space_group_name_H-M_alt    "P 1"
_space_group_IT_number       1

loop_
  _space_group_symop_operation_xyz
  'x, y, z'

loop_
  _atom_site_type_symbol
  _atom_site_label
  _atom_site_symmetry_multiplicity
  _atom_site_fract_x
  _atom_site_fract_y
  _atom_site_fract_z
  _atom_site_occupancy
  As  As1       1.0  0.35103  0.20205  0.53698  1.0000
  As  As2       1.0  0.68436  0.86872  0.64809  1.0000
  As  As3       1.0  0.01769  0.53539  0.42587  1.0000
  Cu  Cu1       1.0  0.01319  0.52638  0.34329  1.0000
  Cu  Cu2       1.0  0.34652  0.19305  0.45440  1.0000
  Cu  Cu3       1.0  0.67986  0.85972  0.56551  1.0000
  Zn  Zn1       1.0  0.35449  0.20898  0.61974  1.0000
  Zn  Zn2       1.0  0.68782  0.87564  0.39751  1.0000
  Zn  Zn3       1.0  0.02115  0.54231  0.50862  1.0000
