data_image0
_chemical_formula_structural       Ag4Au12Ag4Au12
_chemical_formula_sum              "Ag8 Au24"
_cell_length_a       5.73162
_cell_length_b       12.4074
_cell_length_c       33.2316
_cell_angle_alpha    67.5037
_cell_angle_beta     90
_cell_angle_gamma    62.4869

_space_group_name_H-M_alt    "P 1"
_space_group_IT_number       1

loop_
  _space_group_symop_operation_xyz
  'x, y, z'

loop_
  _atom_site_type_symbol
  _atom_site_label
  _atom_site_symmetry_multiplicity
  _atom_site_fract_x
  _atom_site_fract_y
  _atom_site_fract_z
  _atom_site_occupancy
  Ag  Ag1       1.0  0.66667  0.33333  0.41667  1.0000
  Ag  Ag2       1.0  0.66667  0.83333  0.48810  1.0000
  Ag  Ag3       1.0  0.33333  0.16667  0.36905  1.0000
  Ag  Ag4       1.0  0.33333  0.66667  0.44048  1.0000
  Au  Au1       1.0  0.33440  0.41640  0.47623  1.0000
  Au  Au2       1.0  0.33440  0.91640  0.40480  1.0000
  Au  Au3       1.0  0.83280  0.16720  0.36897  1.0000
  Au  Au4       1.0  0.83280  0.66720  0.44040  1.0000
  Au  Au5       1.0  0.83280  0.41640  0.47623  1.0000
  Au  Au6       1.0  0.83280  0.91640  0.40480  1.0000
  Au  Au7       1.0  0.66560  0.08360  0.45234  1.0000
  Au  Au8       1.0  0.66560  0.58360  0.38091  1.0000
  Au  Au9       1.0  0.16720  0.33280  0.41674  1.0000
  Au  Au10      1.0  0.16720  0.83280  0.48817  1.0000
  Au  Au11      1.0  0.16720  0.08360  0.45234  1.0000
  Au  Au12      1.0  0.16720  0.58360  0.38091  1.0000
  Ag  Ag5       1.0  0.66667  0.33333  0.55952  1.0000
  Ag  Ag6       1.0  0.66667  0.83333  0.63095  1.0000
  Ag  Ag7       1.0  0.33333  0.16667  0.51190  1.0000
  Ag  Ag8       1.0  0.33333  0.66667  0.58333  1.0000
  Au  Au13      1.0  0.33440  0.41640  0.61909  1.0000
  Au  Au14      1.0  0.33440  0.91640  0.54766  1.0000
  Au  Au15      1.0  0.83280  0.16720  0.51183  1.0000
  Au  Au16      1.0  0.83280  0.66720  0.58326  1.0000
  Au  Au17      1.0  0.83280  0.41640  0.61909  1.0000
  Au  Au18      1.0  0.83280  0.91640  0.54766  1.0000
  Au  Au19      1.0  0.66560  0.08360  0.59520  1.0000
  Au  Au20      1.0  0.66560  0.58360  0.52377  1.0000
  Au  Au21      1.0  0.16720  0.33280  0.55960  1.0000
  Au  Au22      1.0  0.16720  0.83280  0.63103  1.0000
  Au  Au23      1.0  0.16720  0.08360  0.59520  1.0000
  Au  Au24      1.0  0.16720  0.58360  0.52377  1.0000
