data_image0
_chemical_formula_structural       Al10Mo2Al10Mo2
_chemical_formula_sum              "Al20 Mo4"
_cell_length_a       4.87988
_cell_length_b       8.80594
_cell_length_c       34.1591
_cell_angle_alpha    90
_cell_angle_beta     120
_cell_angle_gamma    90

_space_group_name_H-M_alt    "P 1"
_space_group_IT_number       1

loop_
  _space_group_symop_operation_xyz
  'x, y, z'

loop_
  _atom_site_type_symbol
  _atom_site_label
  _atom_site_symmetry_multiplicity
  _atom_site_fract_x
  _atom_site_fract_y
  _atom_site_fract_z
  _atom_site_occupancy
  Al  Al1       1.0  0.00000  0.00000  0.42784  1.0000
  Al  Al2       1.0  0.66156  0.00000  0.47619  1.0000
  Al  Al3       1.0  0.66156  0.50000  0.42784  1.0000
  Al  Al4       1.0  0.00000  0.75000  0.47619  1.0000
  Al  Al5       1.0  0.00000  0.50000  0.38168  1.0000
  Al  Al6       1.0  0.33333  0.25000  0.42857  1.0000
  Al  Al7       1.0  0.33844  0.00000  0.38168  1.0000
  Al  Al8       1.0  0.00000  0.25000  0.47619  1.0000
  Al  Al9       1.0  0.66667  0.75000  0.38095  1.0000
  Al  Al10      1.0  0.33844  0.50000  0.47619  1.0000
  Mo  Mo1       1.0  0.66667  0.25000  0.38095  1.0000
  Mo  Mo2       1.0  0.33333  0.75000  0.42857  1.0000
  Al  Al11      1.0  0.00000  0.00000  0.57070  1.0000
  Al  Al12      1.0  0.66156  0.00000  0.61905  1.0000
  Al  Al13      1.0  0.66156  0.50000  0.57070  1.0000
  Al  Al14      1.0  0.00000  0.75000  0.61905  1.0000
  Al  Al15      1.0  0.00000  0.50000  0.52454  1.0000
  Al  Al16      1.0  0.33333  0.25000  0.57143  1.0000
  Al  Al17      1.0  0.33844  0.00000  0.52454  1.0000
  Al  Al18      1.0  0.00000  0.25000  0.61905  1.0000
  Al  Al19      1.0  0.66667  0.75000  0.52381  1.0000
  Al  Al20      1.0  0.33844  0.50000  0.61905  1.0000
  Mo  Mo3       1.0  0.66667  0.25000  0.52381  1.0000
  Mo  Mo4       1.0  0.33333  0.75000  0.57143  1.0000
