data_image0
_chemical_formula_structural       Co3Ga6Ru3
_chemical_formula_sum              "Co3 Ga6 Ru3"
_cell_length_a       4.13346
_cell_length_b       4.13346
_cell_length_c       30.3746
_cell_angle_alpha    90
_cell_angle_beta     90
_cell_angle_gamma    120

_space_group_name_H-M_alt    "P 1"
_space_group_IT_number       1

loop_
  _space_group_symop_operation_xyz
  'x, y, z'

loop_
  _atom_site_type_symbol
  _atom_site_label
  _atom_site_symmetry_multiplicity
  _atom_site_fract_x
  _atom_site_fract_y
  _atom_site_fract_z
  _atom_site_occupancy
  Co  Co1       1.0  0.66667  0.33333  0.54167  1.0000
  Co  Co2       1.0  0.33333  0.66667  0.43056  1.0000
  Co  Co3       1.0  0.00000  0.00000  0.65278  1.0000
  Ga  Ga1       1.0  0.66667  0.33333  0.62500  1.0000
  Ga  Ga2       1.0  0.33333  0.66667  0.51389  1.0000
  Ga  Ga3       1.0  0.00000  0.00000  0.40278  1.0000
  Ga  Ga4       1.0  0.00000  0.00000  0.56944  1.0000
  Ga  Ga5       1.0  0.66667  0.33333  0.45833  1.0000
  Ga  Ga6       1.0  0.33333  0.66667  0.34722  1.0000
  Ru  Ru1       1.0  0.33333  0.66667  0.59722  1.0000
  Ru  Ru2       1.0  0.00000  0.00000  0.48611  1.0000
  Ru  Ru3       1.0  0.66667  0.33333  0.37500  1.0000
