data_image0
_chemical_formula_structural       Ge8Mo4Ge8Mo4Ge8Mo4
_chemical_formula_sum              "Ge24 Mo12"
_cell_length_a       8.544
_cell_length_b       7.20504
_cell_length_c       34.4439
_cell_angle_alpha    118.558
_cell_angle_beta     90
_cell_angle_gamma    90

_space_group_name_H-M_alt    "P 1"
_space_group_IT_number       1

loop_
  _space_group_symop_operation_xyz
  'x, y, z'

loop_
  _atom_site_type_symbol
  _atom_site_label
  _atom_site_symmetry_multiplicity
  _atom_site_fract_x
  _atom_site_fract_y
  _atom_site_fract_z
  _atom_site_occupancy
  Ge  Ge1       1.0  0.36719  0.56092  0.35609  1.0000
  Ge  Ge2       1.0  0.63281  0.43908  0.39391  1.0000
  Ge  Ge3       1.0  0.13281  0.06092  0.40609  1.0000
  Ge  Ge4       1.0  0.86719  0.93908  0.44391  1.0000
  Ge  Ge5       1.0  0.45915  0.86400  0.43640  1.0000
  Ge  Ge6       1.0  0.54085  0.13600  0.41360  1.0000
  Ge  Ge7       1.0  0.04085  0.36400  0.38640  1.0000
  Ge  Ge8       1.0  0.95915  0.63600  0.36360  1.0000
  Mo  Mo1       1.0  0.82883  0.25052  0.42505  1.0000
  Mo  Mo2       1.0  0.17117  0.74948  0.42495  1.0000
  Mo  Mo3       1.0  0.67117  0.75052  0.37505  1.0000
  Mo  Mo4       1.0  0.32883  0.24948  0.37495  1.0000
  Ge  Ge9       1.0  0.36719  0.56092  0.45609  1.0000
  Ge  Ge10      1.0  0.63281  0.43908  0.49391  1.0000
  Ge  Ge11      1.0  0.13281  0.06092  0.50609  1.0000
  Ge  Ge12      1.0  0.86719  0.93908  0.54391  1.0000
  Ge  Ge13      1.0  0.45915  0.86400  0.53640  1.0000
  Ge  Ge14      1.0  0.54085  0.13600  0.51360  1.0000
  Ge  Ge15      1.0  0.04085  0.36400  0.48640  1.0000
  Ge  Ge16      1.0  0.95915  0.63600  0.46360  1.0000
  Mo  Mo5       1.0  0.82883  0.25052  0.52505  1.0000
  Mo  Mo6       1.0  0.17117  0.74948  0.52495  1.0000
  Mo  Mo7       1.0  0.67117  0.75052  0.47505  1.0000
  Mo  Mo8       1.0  0.32883  0.24948  0.47495  1.0000
  Ge  Ge17      1.0  0.36719  0.56092  0.55609  1.0000
  Ge  Ge18      1.0  0.63281  0.43908  0.59391  1.0000
  Ge  Ge19      1.0  0.13281  0.06092  0.60609  1.0000
  Ge  Ge20      1.0  0.86719  0.93908  0.64391  1.0000
  Ge  Ge21      1.0  0.45915  0.86400  0.63640  1.0000
  Ge  Ge22      1.0  0.54085  0.13600  0.61360  1.0000
  Ge  Ge23      1.0  0.04085  0.36400  0.58640  1.0000
  Ge  Ge24      1.0  0.95915  0.63600  0.56360  1.0000
  Mo  Mo9       1.0  0.82883  0.25052  0.62505  1.0000
  Mo  Mo10      1.0  0.17117  0.74948  0.62495  1.0000
  Mo  Mo11      1.0  0.67117  0.75052  0.57505  1.0000
  Mo  Mo12      1.0  0.32883  0.24948  0.57495  1.0000
