data_image0
_chemical_formula_structural       Sb4Pd4Sb4Pd4
_chemical_formula_sum              "Sb8 Pd8"
_cell_length_a       4.07888
_cell_length_b       6.9221
_cell_length_c       41.5326
_cell_angle_alpha    72.2084
_cell_angle_beta     107.135
_cell_angle_gamma    72.8648

_space_group_name_H-M_alt    "P 1"
_space_group_IT_number       1

loop_
  _space_group_symop_operation_xyz
  'x, y, z'

loop_
  _atom_site_type_symbol
  _atom_site_label
  _atom_site_symmetry_multiplicity
  _atom_site_fract_x
  _atom_site_fract_y
  _atom_site_fract_z
  _atom_site_occupancy
  Sb  Sb1       1.0  0.66667  0.95833  0.37153  1.0000
  Sb  Sb2       1.0  0.66667  0.45833  0.45486  1.0000
  Sb  Sb3       1.0  0.33333  0.04167  0.44097  1.0000
  Sb  Sb4       1.0  0.33333  0.54167  0.35764  1.0000
  Pd  Pd1       1.0  0.00000  0.00000  0.48958  1.0000
  Pd  Pd2       1.0  0.00000  0.50000  0.40625  1.0000
  Pd  Pd3       1.0  0.00000  0.25000  0.36458  1.0000
  Pd  Pd4       1.0  0.00000  0.75000  0.44792  1.0000
  Sb  Sb5       1.0  0.66667  0.95833  0.53819  1.0000
  Sb  Sb6       1.0  0.66667  0.45833  0.62153  1.0000
  Sb  Sb7       1.0  0.33333  0.04167  0.60764  1.0000
  Sb  Sb8       1.0  0.33333  0.54167  0.52431  1.0000
  Pd  Pd5       1.0  0.00000  0.00000  0.65625  1.0000
  Pd  Pd6       1.0  0.00000  0.50000  0.57292  1.0000
  Pd  Pd7       1.0  0.00000  0.25000  0.53125  1.0000
  Pd  Pd8       1.0  0.00000  0.75000  0.61458  1.0000
