data_image0
_chemical_formula_structural       Ca24Zn8
_chemical_formula_sum              "Ca24 Zn8"
_cell_length_a       6.81313
_cell_length_b       20.3687
_cell_length_c       30.8638
_cell_angle_alpha    78.8693
_cell_angle_beta     85.0055
_cell_angle_gamma    86.6577

_space_group_name_H-M_alt    "P 1"
_space_group_IT_number       1

loop_
  _space_group_symop_operation_xyz
  'x, y, z'

loop_
  _atom_site_type_symbol
  _atom_site_label
  _atom_site_symmetry_multiplicity
  _atom_site_fract_x
  _atom_site_fract_y
  _atom_site_fract_z
  _atom_site_occupancy
  Ca  Ca1       1.0  0.61272  0.62500  0.47582  1.0000
  Ca  Ca2       1.0  0.55022  0.12500  0.41332  1.0000
  Ca  Ca3       1.0  0.32478  0.87500  0.46168  1.0000
  Ca  Ca4       1.0  0.26228  0.37500  0.39918  1.0000
  Ca  Ca5       1.0  0.16718  0.53028  0.45148  1.0000
  Ca  Ca6       1.0  0.10468  0.03028  0.38898  1.0000
  Ca  Ca7       1.0  0.77032  0.96972  0.48602  1.0000
  Ca  Ca8       1.0  0.70782  0.46972  0.42352  1.0000
  Ca  Ca9       1.0  0.66900  0.78028  0.38470  1.0000
  Ca  Ca10      1.0  0.73150  0.28028  0.44720  1.0000
  Ca  Ca11      1.0  0.14350  0.71972  0.42780  1.0000
  Ca  Ca12      1.0  0.20600  0.21972  0.49030  1.0000
  Ca  Ca13      1.0  0.73772  0.62500  0.60082  1.0000
  Ca  Ca14      1.0  0.67522  0.12500  0.53832  1.0000
  Ca  Ca15      1.0  0.44978  0.87500  0.58668  1.0000
  Ca  Ca16      1.0  0.38728  0.37500  0.52418  1.0000
  Ca  Ca17      1.0  0.29218  0.53028  0.57648  1.0000
  Ca  Ca18      1.0  0.22968  0.03028  0.51398  1.0000
  Ca  Ca19      1.0  0.89532  0.96972  0.61102  1.0000
  Ca  Ca20      1.0  0.83282  0.46972  0.54852  1.0000
  Ca  Ca21      1.0  0.79400  0.78028  0.50970  1.0000
  Ca  Ca22      1.0  0.85650  0.28028  0.57220  1.0000
  Ca  Ca23      1.0  0.26850  0.71972  0.55280  1.0000
  Ca  Ca24      1.0  0.33100  0.21972  0.61530  1.0000
  Zn  Zn1       1.0  0.88528  0.62500  0.39098  1.0000
  Zn  Zn2       1.0  0.94778  0.12500  0.45348  1.0000
  Zn  Zn3       1.0  0.92722  0.87500  0.42152  1.0000
  Zn  Zn4       1.0  0.98972  0.37500  0.48402  1.0000
  Zn  Zn5       1.0  0.01028  0.62500  0.51598  1.0000
  Zn  Zn6       1.0  0.07278  0.12500  0.57848  1.0000
  Zn  Zn7       1.0  0.05222  0.87500  0.54652  1.0000
  Zn  Zn8       1.0  0.11472  0.37500  0.60902  1.0000
