data_image0
_chemical_formula_structural       Pt24Si8
_chemical_formula_sum              "Pt24 Si8"
_cell_length_a       5.47111
_cell_length_b       9.57422
_cell_length_c       32.9306
_cell_angle_alpha    82.405
_cell_angle_beta     88.1897
_cell_angle_gamma    73.6828

_space_group_name_H-M_alt    "P 1"
_space_group_IT_number       1

loop_
  _space_group_symop_operation_xyz
  'x, y, z'

loop_
  _atom_site_type_symbol
  _atom_site_label
  _atom_site_symmetry_multiplicity
  _atom_site_fract_x
  _atom_site_fract_y
  _atom_site_fract_z
  _atom_site_occupancy
  Pt  Pt1       1.0  0.80779  0.99515  0.36779  1.0000
  Pt  Pt2       1.0  0.09351  0.42372  0.43922  1.0000
  Pt  Pt3       1.0  0.67435  0.16557  0.47149  1.0000
  Pt  Pt4       1.0  0.38864  0.73700  0.40006  1.0000
  Pt  Pt5       1.0  0.47825  0.97495  0.43282  1.0000
  Pt  Pt6       1.0  0.19253  0.54637  0.36139  1.0000
  Pt  Pt7       1.0  0.00390  0.18577  0.40647  1.0000
  Pt  Pt8       1.0  0.28961  0.61434  0.47789  1.0000
  Pt  Pt9       1.0  0.88475  0.72271  0.41898  1.0000
  Pt  Pt10      1.0  0.17047  0.15128  0.49041  1.0000
  Pt  Pt11      1.0  0.88310  0.86658  0.49174  1.0000
  Pt  Pt12      1.0  0.59739  0.43801  0.42031  1.0000
  Pt  Pt13      1.0  0.37922  0.85229  0.51065  1.0000
  Pt  Pt14      1.0  0.66494  0.28086  0.58208  1.0000
  Pt  Pt15      1.0  0.24578  0.02271  0.61435  1.0000
  Pt  Pt16      1.0  0.96006  0.59414  0.54292  1.0000
  Pt  Pt17      1.0  0.04968  0.83209  0.57568  1.0000
  Pt  Pt18      1.0  0.76396  0.40352  0.50425  1.0000
  Pt  Pt19      1.0  0.57532  0.04291  0.54932  1.0000
  Pt  Pt20      1.0  0.86104  0.47148  0.62075  1.0000
  Pt  Pt21      1.0  0.45618  0.57985  0.56183  1.0000
  Pt  Pt22      1.0  0.74190  0.00842  0.63326  1.0000
  Pt  Pt23      1.0  0.45453  0.72372  0.63459  1.0000
  Pt  Pt24      1.0  0.16882  0.29515  0.56317  1.0000
  Si  Si1       1.0  0.69909  0.66149  0.48120  1.0000
  Si  Si2       1.0  0.41338  0.23292  0.40977  1.0000
  Si  Si3       1.0  0.06876  0.92779  0.42951  1.0000
  Si  Si4       1.0  0.78305  0.49922  0.35809  1.0000
  Si  Si5       1.0  0.27052  0.51864  0.62406  1.0000
  Si  Si6       1.0  0.98481  0.09006  0.55263  1.0000
  Si  Si7       1.0  0.64019  0.78494  0.57237  1.0000
  Si  Si8       1.0  0.35448  0.35636  0.50094  1.0000
