data_image0
_chemical_formula_structural       Ti4H8Ti4H8Ti4H8
_chemical_formula_sum              "Ti12 H24"
_cell_length_a       3.16055
_cell_length_b       8.98147
_cell_length_c       31.6055
_cell_angle_alpha    110.603
_cell_angle_beta     90
_cell_angle_gamma    90

_space_group_name_H-M_alt    "P 1"
_space_group_IT_number       1

loop_
  _space_group_symop_operation_xyz
  'x, y, z'

loop_
  _atom_site_type_symbol
  _atom_site_label
  _atom_site_symmetry_multiplicity
  _atom_site_fract_x
  _atom_site_fract_y
  _atom_site_fract_z
  _atom_site_occupancy
  Ti  Ti1       1.0  0.00000  0.00000  0.44583  1.0000
  Ti  Ti2       1.0  0.00000  0.50000  0.39583  1.0000
  Ti  Ti3       1.0  0.50000  0.25000  0.42083  1.0000
  Ti  Ti4       1.0  0.50000  0.75000  0.37083  1.0000
  H   H1        1.0  0.50000  0.12500  0.35833  1.0000
  H   H2        1.0  0.50000  0.62500  0.40833  1.0000
  H   H3        1.0  0.00000  0.12500  0.40833  1.0000
  H   H4        1.0  0.00000  0.62500  0.35833  1.0000
  H   H5        1.0  0.00000  0.37500  0.43333  1.0000
  H   H6        1.0  0.00000  0.87500  0.38333  1.0000
  H   H7        1.0  0.50000  0.37500  0.38333  1.0000
  H   H8        1.0  0.50000  0.87500  0.43333  1.0000
  Ti  Ti5       1.0  0.00000  0.00000  0.54583  1.0000
  Ti  Ti6       1.0  0.00000  0.50000  0.49583  1.0000
  Ti  Ti7       1.0  0.50000  0.25000  0.52083  1.0000
  Ti  Ti8       1.0  0.50000  0.75000  0.47083  1.0000
  H   H9        1.0  0.50000  0.12500  0.45833  1.0000
  H   H10       1.0  0.50000  0.62500  0.50833  1.0000
  H   H11       1.0  0.00000  0.12500  0.50833  1.0000
  H   H12       1.0  0.00000  0.62500  0.45833  1.0000
  H   H13       1.0  0.00000  0.37500  0.53333  1.0000
  H   H14       1.0  0.00000  0.87500  0.48333  1.0000
  H   H15       1.0  0.50000  0.37500  0.48333  1.0000
  H   H16       1.0  0.50000  0.87500  0.53333  1.0000
  Ti  Ti9       1.0  0.00000  0.00000  0.64583  1.0000
  Ti  Ti10      1.0  0.00000  0.50000  0.59583  1.0000
  Ti  Ti11      1.0  0.50000  0.25000  0.62083  1.0000
  Ti  Ti12      1.0  0.50000  0.75000  0.57083  1.0000
  H   H17       1.0  0.50000  0.12500  0.55833  1.0000
  H   H18       1.0  0.50000  0.62500  0.60833  1.0000
  H   H19       1.0  0.00000  0.12500  0.60833  1.0000
  H   H20       1.0  0.00000  0.62500  0.55833  1.0000
  H   H21       1.0  0.00000  0.37500  0.63333  1.0000
  H   H22       1.0  0.00000  0.87500  0.58333  1.0000
  H   H23       1.0  0.50000  0.37500  0.58333  1.0000
  H   H24       1.0  0.50000  0.87500  0.63333  1.0000
