data_image0
_chemical_formula_structural       Cu8Ga8Pt16
_chemical_formula_sum              "Cu8 Ga8 Pt16"
_cell_length_a       5.29577
_cell_length_b       6.61149
_cell_length_c       38.097
_cell_angle_alpha    92.993
_cell_angle_beta     93.7376
_cell_angle_gamma    95.3884

_space_group_name_H-M_alt    "P 1"
_space_group_IT_number       1

loop_
  _space_group_symop_operation_xyz
  'x, y, z'

loop_
  _atom_site_type_symbol
  _atom_site_label
  _atom_site_symmetry_multiplicity
  _atom_site_fract_x
  _atom_site_fract_y
  _atom_site_fract_z
  _atom_site_occupancy
  Cu  Cu1       1.0  0.00000  0.02083  0.51042  1.0000
  Cu  Cu2       1.0  0.50000  0.02083  0.63542  1.0000
  Cu  Cu3       1.0  0.00000  0.68750  0.59375  1.0000
  Cu  Cu4       1.0  0.50000  0.35417  0.55208  1.0000
  Cu  Cu5       1.0  0.00000  0.68750  0.34375  1.0000
  Cu  Cu6       1.0  0.50000  0.68750  0.46875  1.0000
  Cu  Cu7       1.0  0.00000  0.35417  0.42708  1.0000
  Cu  Cu8       1.0  0.50000  0.02083  0.38542  1.0000
  Ga  Ga1       1.0  0.25000  0.35417  0.61458  1.0000
  Ga  Ga2       1.0  0.75000  0.02083  0.57292  1.0000
  Ga  Ga3       1.0  0.25000  0.68750  0.53125  1.0000
  Ga  Ga4       1.0  0.75000  0.68750  0.65625  1.0000
  Ga  Ga5       1.0  0.25000  0.02083  0.44792  1.0000
  Ga  Ga6       1.0  0.75000  0.68750  0.40625  1.0000
  Ga  Ga7       1.0  0.25000  0.35417  0.36458  1.0000
  Ga  Ga8       1.0  0.75000  0.35417  0.48958  1.0000
  Pt  Pt1       1.0  0.00000  0.02083  0.63542  1.0000
  Pt  Pt2       1.0  0.50000  0.68750  0.59375  1.0000
  Pt  Pt3       1.0  0.00000  0.35417  0.55208  1.0000
  Pt  Pt4       1.0  0.50000  0.02083  0.51042  1.0000
  Pt  Pt5       1.0  0.75000  0.35417  0.61458  1.0000
  Pt  Pt6       1.0  0.25000  0.02083  0.57292  1.0000
  Pt  Pt7       1.0  0.75000  0.68750  0.53125  1.0000
  Pt  Pt8       1.0  0.25000  0.68750  0.65625  1.0000
  Pt  Pt9       1.0  0.00000  0.68750  0.46875  1.0000
  Pt  Pt10      1.0  0.50000  0.35417  0.42708  1.0000
  Pt  Pt11      1.0  0.00000  0.02083  0.38542  1.0000
  Pt  Pt12      1.0  0.50000  0.68750  0.34375  1.0000
  Pt  Pt13      1.0  0.75000  0.02083  0.44792  1.0000
  Pt  Pt14      1.0  0.25000  0.68750  0.40625  1.0000
  Pt  Pt15      1.0  0.75000  0.35417  0.36458  1.0000
  Pt  Pt16      1.0  0.25000  0.35417  0.48958  1.0000
