data_image0
_chemical_formula_structural       Al3Ni2Al3Ni2
_chemical_formula_sum              "Al6 Ni4"
_cell_length_a       3.99744
_cell_length_b       3.99744
_cell_length_c       34.1225
_cell_angle_alpha    90
_cell_angle_beta     90
_cell_angle_gamma    120

_space_group_name_H-M_alt    "P 1"
_space_group_IT_number       1

loop_
  _space_group_symop_operation_xyz
  'x, y, z'

loop_
  _atom_site_type_symbol
  _atom_site_label
  _atom_site_symmetry_multiplicity
  _atom_site_fract_x
  _atom_site_fract_y
  _atom_site_fract_z
  _atom_site_occupancy
  Al  Al1       1.0  0.00000  0.00000  0.48571  1.0000
  Al  Al2       1.0  0.33333  0.66667  0.43533  1.0000
  Al  Al3       1.0  0.66667  0.33333  0.39324  1.0000
  Ni  Ni1       1.0  0.33333  0.66667  0.36383  1.0000
  Ni  Ni2       1.0  0.66667  0.33333  0.46474  1.0000
  Al  Al4       1.0  0.00000  0.00000  0.62857  1.0000
  Al  Al5       1.0  0.33333  0.66667  0.57819  1.0000
  Al  Al6       1.0  0.66667  0.33333  0.53610  1.0000
  Ni  Ni3       1.0  0.33333  0.66667  0.50669  1.0000
  Ni  Ni4       1.0  0.66667  0.33333  0.60760  1.0000
