data_image0
_chemical_formula_structural       Ag8Au24
_chemical_formula_sum              "Ag8 Au24"
_cell_length_a       5.75513
_cell_length_b       7.04856
_cell_length_c       39.8727
_cell_angle_alpha    90
_cell_angle_beta     90
_cell_angle_gamma    90

_space_group_name_H-M_alt    "P 1"
_space_group_IT_number       1

loop_
  _space_group_symop_operation_xyz
  'x, y, z'

loop_
  _atom_site_type_symbol
  _atom_site_label
  _atom_site_symmetry_multiplicity
  _atom_site_fract_x
  _atom_site_fract_y
  _atom_site_fract_z
  _atom_site_occupancy
  Ag  Ag1       1.0  0.00000  0.18750  0.40625  1.0000
  Ag  Ag2       1.0  0.50000  0.85417  0.44792  1.0000
  Ag  Ag3       1.0  0.00000  0.52083  0.48958  1.0000
  Ag  Ag4       1.0  0.50000  0.52083  0.36458  1.0000
  Ag  Ag5       1.0  0.00000  0.85417  0.57292  1.0000
  Ag  Ag6       1.0  0.50000  0.52083  0.61458  1.0000
  Ag  Ag7       1.0  0.00000  0.18750  0.65625  1.0000
  Ag  Ag8       1.0  0.50000  0.18750  0.53125  1.0000
  Au  Au1       1.0  0.00000  0.52083  0.36458  1.0000
  Au  Au2       1.0  0.50000  0.18750  0.40625  1.0000
  Au  Au3       1.0  0.00000  0.85417  0.44792  1.0000
  Au  Au4       1.0  0.50000  0.52083  0.48958  1.0000
  Au  Au5       1.0  0.75000  0.18750  0.34375  1.0000
  Au  Au6       1.0  0.25000  0.85417  0.38542  1.0000
  Au  Au7       1.0  0.75000  0.52083  0.42708  1.0000
  Au  Au8       1.0  0.25000  0.18750  0.46875  1.0000
  Au  Au9       1.0  0.25000  0.18750  0.34375  1.0000
  Au  Au10      1.0  0.75000  0.85417  0.38542  1.0000
  Au  Au11      1.0  0.25000  0.52083  0.42708  1.0000
  Au  Au12      1.0  0.75000  0.18750  0.46875  1.0000
  Au  Au13      1.0  0.00000  0.18750  0.53125  1.0000
  Au  Au14      1.0  0.50000  0.85417  0.57292  1.0000
  Au  Au15      1.0  0.00000  0.52083  0.61458  1.0000
  Au  Au16      1.0  0.50000  0.18750  0.65625  1.0000
  Au  Au17      1.0  0.75000  0.85417  0.51042  1.0000
  Au  Au18      1.0  0.25000  0.52083  0.55208  1.0000
  Au  Au19      1.0  0.75000  0.18750  0.59375  1.0000
  Au  Au20      1.0  0.25000  0.85417  0.63542  1.0000
  Au  Au21      1.0  0.25000  0.85417  0.51042  1.0000
  Au  Au22      1.0  0.75000  0.52083  0.55208  1.0000
  Au  Au23      1.0  0.25000  0.18750  0.59375  1.0000
  Au  Au24      1.0  0.75000  0.85417  0.63542  1.0000
