data_image0
_chemical_formula_structural       Au30Sn6
_chemical_formula_sum              "Au30 Sn6"
_cell_length_a       5.60594
_cell_length_b       11.6181
_cell_length_c       34.9611
_cell_angle_alpha    83.7286
_cell_angle_beta     87.8345
_cell_angle_gamma    83.471

_space_group_name_H-M_alt    "P 1"
_space_group_IT_number       1

loop_
  _space_group_symop_operation_xyz
  'x, y, z'

loop_
  _atom_site_type_symbol
  _atom_site_label
  _atom_site_symmetry_multiplicity
  _atom_site_fract_x
  _atom_site_fract_y
  _atom_site_fract_z
  _atom_site_occupancy
  Au  Au1       1.0  0.76990  0.14892  0.63111  1.0000
  Au  Au2       1.0  0.10323  0.52987  0.58349  1.0000
  Au  Au3       1.0  0.43656  0.91082  0.53588  1.0000
  Au  Au4       1.0  0.60918  0.50259  0.60659  1.0000
  Au  Au5       1.0  0.94251  0.88354  0.55897  1.0000
  Au  Au6       1.0  0.27584  0.26449  0.51135  1.0000
  Au  Au7       1.0  0.50000  0.47139  0.52861  1.0000
  Au  Au8       1.0  0.83333  0.70949  0.62384  1.0000
  Au  Au9       1.0  0.16667  0.09044  0.57623  1.0000
  Au  Au10      1.0  0.39082  0.29983  0.59099  1.0000
  Au  Au11      1.0  0.72416  0.68078  0.54337  1.0000
  Au  Au12      1.0  0.05749  0.91888  0.63861  1.0000
  Au  Au13      1.0  0.89677  0.31934  0.56730  1.0000
  Au  Au14      1.0  0.23010  0.70029  0.51968  1.0000
  Au  Au15      1.0  0.56344  0.93839  0.61492  1.0000
  Au  Au16      1.0  0.76990  0.29177  0.48826  1.0000
  Au  Au17      1.0  0.10323  0.67273  0.44064  1.0000
  Au  Au18      1.0  0.43656  0.05368  0.39302  1.0000
  Au  Au19      1.0  0.60918  0.64544  0.46373  1.0000
  Au  Au20      1.0  0.94251  0.02640  0.41611  1.0000
  Au  Au21      1.0  0.27584  0.40735  0.36850  1.0000
  Au  Au22      1.0  0.50000  0.61425  0.38575  1.0000
  Au  Au23      1.0  0.83333  0.85235  0.48099  1.0000
  Au  Au24      1.0  0.16667  0.23330  0.43337  1.0000
  Au  Au25      1.0  0.39082  0.44269  0.44814  1.0000
  Au  Au26      1.0  0.72416  0.82364  0.40052  1.0000
  Au  Au27      1.0  0.05749  0.06173  0.49576  1.0000
  Au  Au28      1.0  0.89677  0.46219  0.42444  1.0000
  Au  Au29      1.0  0.23010  0.84315  0.37682  1.0000
  Au  Au30      1.0  0.56344  0.08124  0.47206  1.0000
  Sn  Sn1       1.0  0.66667  0.11508  0.55159  1.0000
  Sn  Sn2       1.0  0.00000  0.49603  0.50397  1.0000
  Sn  Sn3       1.0  0.33333  0.73413  0.59921  1.0000
  Sn  Sn4       1.0  0.66667  0.25794  0.40873  1.0000
  Sn  Sn5       1.0  0.00000  0.63889  0.36111  1.0000
  Sn  Sn6       1.0  0.33333  0.87698  0.45635  1.0000
