data_image0
_chemical_formula_structural       Ti8Au8Ti8Au8
_chemical_formula_sum              "Ti16 Au16"
_cell_length_a       9.52965
_cell_length_b       5.66658
_cell_length_c       39.666
_cell_angle_alpha    62.8275
_cell_angle_beta     99.2962
_cell_angle_gamma    80.7038

_space_group_name_H-M_alt    "P 1"
_space_group_IT_number       1

loop_
  _space_group_symop_operation_xyz
  'x, y, z'

loop_
  _atom_site_type_symbol
  _atom_site_label
  _atom_site_symmetry_multiplicity
  _atom_site_fract_x
  _atom_site_fract_y
  _atom_site_fract_z
  _atom_site_occupancy
  Ti  Ti1       1.0  0.87500  0.71832  0.44190  1.0000
  Ti  Ti2       1.0  0.37500  0.96832  0.40619  1.0000
  Ti  Ti3       1.0  0.37500  0.46832  0.47762  1.0000
  Ti  Ti4       1.0  0.87500  0.21832  0.37047  1.0000
  Ti  Ti5       1.0  0.62500  0.03168  0.45095  1.0000
  Ti  Ti6       1.0  0.12500  0.28168  0.41524  1.0000
  Ti  Ti7       1.0  0.12500  0.78168  0.48667  1.0000
  Ti  Ti8       1.0  0.62500  0.53168  0.37953  1.0000
  Au  Au1       1.0  0.87500  0.72132  0.37090  1.0000
  Au  Au2       1.0  0.37500  0.97132  0.47805  1.0000
  Au  Au3       1.0  0.37500  0.47132  0.40662  1.0000
  Au  Au4       1.0  0.87500  0.22132  0.44233  1.0000
  Au  Au5       1.0  0.62500  0.52868  0.45053  1.0000
  Au  Au6       1.0  0.12500  0.77868  0.41481  1.0000
  Au  Au7       1.0  0.12500  0.27868  0.48624  1.0000
  Au  Au8       1.0  0.62500  0.02868  0.37910  1.0000
  Ti  Ti9       1.0  0.87500  0.71832  0.58476  1.0000
  Ti  Ti10      1.0  0.37500  0.96832  0.54905  1.0000
  Ti  Ti11      1.0  0.37500  0.46832  0.62047  1.0000
  Ti  Ti12      1.0  0.87500  0.21832  0.51333  1.0000
  Ti  Ti13      1.0  0.62500  0.03168  0.59381  1.0000
  Ti  Ti14      1.0  0.12500  0.28168  0.55810  1.0000
  Ti  Ti15      1.0  0.12500  0.78168  0.62953  1.0000
  Ti  Ti16      1.0  0.62500  0.53168  0.52238  1.0000
  Au  Au9       1.0  0.87500  0.72132  0.51376  1.0000
  Au  Au10      1.0  0.37500  0.97132  0.62090  1.0000
  Au  Au11      1.0  0.37500  0.47132  0.54947  1.0000
  Au  Au12      1.0  0.87500  0.22132  0.58519  1.0000
  Au  Au13      1.0  0.62500  0.52868  0.59338  1.0000
  Au  Au14      1.0  0.12500  0.77868  0.55767  1.0000
  Au  Au15      1.0  0.12500  0.27868  0.62910  1.0000
  Au  Au16      1.0  0.62500  0.02868  0.52195  1.0000
