data_image0
_chemical_formula_structural       V4H2V4H2
_chemical_formula_sum              "V8 H4"
_cell_length_a       2.90783
_cell_length_b       4.37803
_cell_length_c       30.642
_cell_angle_alpha    97.326
_cell_angle_beta     90
_cell_angle_gamma    90

_space_group_name_H-M_alt    "P 1"
_space_group_IT_number       1

loop_
  _space_group_symop_operation_xyz
  'x, y, z'

loop_
  _atom_site_type_symbol
  _atom_site_label
  _atom_site_symmetry_multiplicity
  _atom_site_fract_x
  _atom_site_fract_y
  _atom_site_fract_z
  _atom_site_occupancy
  V   V1        1.0  0.50000  0.26839  0.37815  1.0000
  V   V2        1.0  0.50000  0.73161  0.45518  1.0000
  V   V3        1.0  0.00000  0.26839  0.44958  1.0000
  V   V4        1.0  0.00000  0.73161  0.38375  1.0000
  H   H1        1.0  0.50000  0.00000  0.41667  1.0000
  H   H2        1.0  0.00000  0.00000  0.48810  1.0000
  V   V5        1.0  0.50000  0.26839  0.52101  1.0000
  V   V6        1.0  0.50000  0.73161  0.59804  1.0000
  V   V7        1.0  0.00000  0.26839  0.59244  1.0000
  V   V8        1.0  0.00000  0.73161  0.52661  1.0000
  H   H3        1.0  0.50000  0.00000  0.55952  1.0000
  H   H4        1.0  0.00000  0.00000  0.63095  1.0000
