data_image0
_chemical_formula_structural       Au24Ga12
_chemical_formula_sum              "Au24 Ga12"
_cell_length_a       7.60208
_cell_length_b       9.00921
_cell_length_c       29.7309
_cell_angle_alpha    82.0175
_cell_angle_beta     87.1706
_cell_angle_gamma    85.3971

_space_group_name_H-M_alt    "P 1"
_space_group_IT_number       1

loop_
  _space_group_symop_operation_xyz
  'x, y, z'

loop_
  _atom_site_type_symbol
  _atom_site_label
  _atom_site_symmetry_multiplicity
  _atom_site_fract_x
  _atom_site_fract_y
  _atom_site_fract_z
  _atom_site_occupancy
  Au  Au1       1.0  0.06638  0.61631  0.55634  1.0000
  Au  Au2       1.0  0.50091  0.23828  0.58907  1.0000
  Au  Au3       1.0  0.34590  0.73747  0.60169  1.0000
  Au  Au4       1.0  0.81373  0.04307  0.61777  1.0000
  Au  Au5       1.0  0.72755  0.76678  0.58786  1.0000
  Au  Au6       1.0  0.19847  0.04297  0.60239  1.0000
  Au  Au7       1.0  0.23451  0.43709  0.63347  1.0000
  Au  Au8       1.0  0.84862  0.35301  0.57642  1.0000
  Au  Au9       1.0  0.26638  0.71631  0.45634  1.0000
  Au  Au10      1.0  0.70091  0.33828  0.48907  1.0000
  Au  Au11      1.0  0.54590  0.83747  0.50169  1.0000
  Au  Au12      1.0  0.01373  0.14307  0.51777  1.0000
  Au  Au13      1.0  0.92755  0.86678  0.48786  1.0000
  Au  Au14      1.0  0.39847  0.14297  0.50239  1.0000
  Au  Au15      1.0  0.43451  0.53709  0.53347  1.0000
  Au  Au16      1.0  0.04862  0.45301  0.47642  1.0000
  Au  Au17      1.0  0.46638  0.81631  0.35634  1.0000
  Au  Au18      1.0  0.90091  0.43828  0.38907  1.0000
  Au  Au19      1.0  0.74590  0.93747  0.40169  1.0000
  Au  Au20      1.0  0.21373  0.24307  0.41777  1.0000
  Au  Au21      1.0  0.12755  0.96678  0.38786  1.0000
  Au  Au22      1.0  0.59847  0.24297  0.40239  1.0000
  Au  Au23      1.0  0.63451  0.63709  0.43347  1.0000
  Au  Au24      1.0  0.24862  0.55301  0.37642  1.0000
  Ga  Ga1       1.0  0.01651  0.79045  0.62797  1.0000
  Ga  Ga2       1.0  0.50020  0.94546  0.63612  1.0000
  Ga  Ga3       1.0  0.19747  0.32679  0.55452  1.0000
  Ga  Ga4       1.0  0.57373  0.50231  0.61639  1.0000
  Ga  Ga5       1.0  0.21651  0.89045  0.52797  1.0000
  Ga  Ga6       1.0  0.70020  0.04546  0.53612  1.0000
  Ga  Ga7       1.0  0.39747  0.42679  0.45452  1.0000
  Ga  Ga8       1.0  0.77373  0.60231  0.51639  1.0000
  Ga  Ga9       1.0  0.41651  0.99045  0.42797  1.0000
  Ga  Ga10      1.0  0.90020  0.14546  0.43612  1.0000
  Ga  Ga11      1.0  0.59747  0.52679  0.35452  1.0000
  Ga  Ga12      1.0  0.97373  0.70231  0.41639  1.0000
