data_image0
_chemical_formula_structural       Ca4Pb4Ca4Pb4
_chemical_formula_sum              "Ca8 Pb8"
_cell_length_a       5.02064
_cell_length_b       9.78467
_cell_length_c       35.1445
_cell_angle_alpha    104.866
_cell_angle_beta     90
_cell_angle_gamma    75.1342

_space_group_name_H-M_alt    "P 1"
_space_group_IT_number       1

loop_
  _space_group_symop_operation_xyz
  'x, y, z'

loop_
  _atom_site_type_symbol
  _atom_site_label
  _atom_site_symmetry_multiplicity
  _atom_site_fract_x
  _atom_site_fract_y
  _atom_site_fract_z
  _atom_site_occupancy
  Ca  Ca1       1.0  0.75000  0.50000  0.38393  1.0000
  Ca  Ca2       1.0  0.00000  0.00000  0.49107  1.0000
  Ca  Ca3       1.0  0.50000  0.00000  0.41964  1.0000
  Ca  Ca4       1.0  0.25000  0.50000  0.45536  1.0000
  Pb  Pb1       1.0  0.62500  0.75000  0.47321  1.0000
  Pb  Pb2       1.0  0.87500  0.25000  0.43750  1.0000
  Pb  Pb3       1.0  0.37500  0.25000  0.36607  1.0000
  Pb  Pb4       1.0  0.12500  0.75000  0.40179  1.0000
  Ca  Ca5       1.0  0.75000  0.50000  0.52679  1.0000
  Ca  Ca6       1.0  0.00000  0.00000  0.63393  1.0000
  Ca  Ca7       1.0  0.50000  0.00000  0.56250  1.0000
  Ca  Ca8       1.0  0.25000  0.50000  0.59821  1.0000
  Pb  Pb5       1.0  0.62500  0.75000  0.61607  1.0000
  Pb  Pb6       1.0  0.87500  0.25000  0.58036  1.0000
  Pb  Pb7       1.0  0.37500  0.25000  0.50893  1.0000
  Pb  Pb8       1.0  0.12500  0.75000  0.54464  1.0000
