data_image0
_chemical_formula_structural       Ga9Ni6Ga9Ni6
_chemical_formula_sum              "Ga18 Ni12"
_cell_length_a       4.80949
_cell_length_b       10.674
_cell_length_c       32.2751
_cell_angle_alpha    79.1066
_cell_angle_beta     90
_cell_angle_gamma    90

_space_group_name_H-M_alt    "P 1"
_space_group_IT_number       1

loop_
  _space_group_symop_operation_xyz
  'x, y, z'

loop_
  _atom_site_type_symbol
  _atom_site_label
  _atom_site_symmetry_multiplicity
  _atom_site_fract_x
  _atom_site_fract_y
  _atom_site_fract_z
  _atom_site_occupancy
  Ga  Ga1       1.0  0.00000  0.66667  0.43750  1.0000
  Ga  Ga2       1.0  0.00000  0.33333  0.39583  1.0000
  Ga  Ga3       1.0  0.00000  0.00000  0.47917  1.0000
  Ga  Ga4       1.0  0.36174  0.55556  0.38194  1.0000
  Ga  Ga5       1.0  0.36174  0.22222  0.46528  1.0000
  Ga  Ga6       1.0  0.36174  0.88889  0.42361  1.0000
  Ga  Ga7       1.0  0.63826  0.77778  0.49306  1.0000
  Ga  Ga8       1.0  0.63826  0.44444  0.45139  1.0000
  Ga  Ga9       1.0  0.63826  0.11111  0.40972  1.0000
  Ni  Ni1       1.0  0.86363  0.55556  0.38194  1.0000
  Ni  Ni2       1.0  0.86363  0.22222  0.46528  1.0000
  Ni  Ni3       1.0  0.86363  0.88889  0.42361  1.0000
  Ni  Ni4       1.0  0.13637  0.77778  0.49306  1.0000
  Ni  Ni5       1.0  0.13637  0.44444  0.45139  1.0000
  Ni  Ni6       1.0  0.13637  0.11111  0.40972  1.0000
  Ga  Ga10      1.0  0.00000  0.66667  0.56250  1.0000
  Ga  Ga11      1.0  0.00000  0.33333  0.52083  1.0000
  Ga  Ga12      1.0  0.00000  0.00000  0.60417  1.0000
  Ga  Ga13      1.0  0.36174  0.55556  0.50694  1.0000
  Ga  Ga14      1.0  0.36174  0.22222  0.59028  1.0000
  Ga  Ga15      1.0  0.36174  0.88889  0.54861  1.0000
  Ga  Ga16      1.0  0.63826  0.77778  0.61806  1.0000
  Ga  Ga17      1.0  0.63826  0.44444  0.57639  1.0000
  Ga  Ga18      1.0  0.63826  0.11111  0.53472  1.0000
  Ni  Ni7       1.0  0.86363  0.55556  0.50694  1.0000
  Ni  Ni8       1.0  0.86363  0.22222  0.59028  1.0000
  Ni  Ni9       1.0  0.86363  0.88889  0.54861  1.0000
  Ni  Ni10      1.0  0.13637  0.77778  0.61806  1.0000
  Ni  Ni11      1.0  0.13637  0.44444  0.57639  1.0000
  Ni  Ni12      1.0  0.13637  0.11111  0.53472  1.0000
