data_image0
_chemical_formula_structural       FePtFePtFePt
_chemical_formula_sum              "Fe3 Pt3"
_cell_length_a       2.62386
_cell_length_b       3.63453
_cell_length_c       28.8625
_cell_angle_alpha    90
_cell_angle_beta     90
_cell_angle_gamma    90

_space_group_name_H-M_alt    "P 1"
_space_group_IT_number       1

loop_
  _space_group_symop_operation_xyz
  'x, y, z'

loop_
  _atom_site_type_symbol
  _atom_site_label
  _atom_site_symmetry_multiplicity
  _atom_site_fract_x
  _atom_site_fract_y
  _atom_site_fract_z
  _atom_site_occupancy
  Fe  Fe1       1.0  0.00000  0.00000  0.43182  1.0000
  Pt  Pt1       1.0  0.50000  0.50000  0.38636  1.0000
  Fe  Fe2       1.0  0.00000  0.00000  0.52273  1.0000
  Pt  Pt2       1.0  0.50000  0.50000  0.47727  1.0000
  Fe  Fe3       1.0  0.00000  0.00000  0.61364  1.0000
  Pt  Pt3       1.0  0.50000  0.50000  0.56818  1.0000
