data_image0
_chemical_formula_structural       Cu8In8Pt16
_chemical_formula_sum              "Cu8 In8 Pt16"
_cell_length_a       5.51252
_cell_length_b       6.82112
_cell_length_c       38.9763
_cell_angle_alpha    91.6309
_cell_angle_beta     92.0182
_cell_angle_gamma    92.8836

_space_group_name_H-M_alt    "P 1"
_space_group_IT_number       1

loop_
  _space_group_symop_operation_xyz
  'x, y, z'

loop_
  _atom_site_type_symbol
  _atom_site_label
  _atom_site_symmetry_multiplicity
  _atom_site_fract_x
  _atom_site_fract_y
  _atom_site_fract_z
  _atom_site_occupancy
  Cu  Cu1       1.0  0.00000  0.02083  0.51042  1.0000
  Cu  Cu2       1.0  0.50000  0.02083  0.63542  1.0000
  Cu  Cu3       1.0  0.00000  0.68750  0.59375  1.0000
  Cu  Cu4       1.0  0.50000  0.35417  0.55208  1.0000
  Cu  Cu5       1.0  0.00000  0.68750  0.34375  1.0000
  Cu  Cu6       1.0  0.50000  0.68750  0.46875  1.0000
  Cu  Cu7       1.0  0.00000  0.35417  0.42708  1.0000
  Cu  Cu8       1.0  0.50000  0.02083  0.38542  1.0000
  In  In1       1.0  0.25000  0.35417  0.61458  1.0000
  In  In2       1.0  0.75000  0.02083  0.57292  1.0000
  In  In3       1.0  0.25000  0.68750  0.53125  1.0000
  In  In4       1.0  0.75000  0.68750  0.65625  1.0000
  In  In5       1.0  0.25000  0.02083  0.44792  1.0000
  In  In6       1.0  0.75000  0.68750  0.40625  1.0000
  In  In7       1.0  0.25000  0.35417  0.36458  1.0000
  In  In8       1.0  0.75000  0.35417  0.48958  1.0000
  Pt  Pt1       1.0  0.75000  0.35417  0.61458  1.0000
  Pt  Pt2       1.0  0.25000  0.02083  0.57292  1.0000
  Pt  Pt3       1.0  0.75000  0.68750  0.53125  1.0000
  Pt  Pt4       1.0  0.25000  0.68750  0.65625  1.0000
  Pt  Pt5       1.0  0.00000  0.02083  0.63542  1.0000
  Pt  Pt6       1.0  0.50000  0.68750  0.59375  1.0000
  Pt  Pt7       1.0  0.00000  0.35417  0.55208  1.0000
  Pt  Pt8       1.0  0.50000  0.02083  0.51042  1.0000
  Pt  Pt9       1.0  0.75000  0.02083  0.44792  1.0000
  Pt  Pt10      1.0  0.25000  0.68750  0.40625  1.0000
  Pt  Pt11      1.0  0.75000  0.35417  0.36458  1.0000
  Pt  Pt12      1.0  0.25000  0.35417  0.48958  1.0000
  Pt  Pt13      1.0  0.00000  0.68750  0.46875  1.0000
  Pt  Pt14      1.0  0.50000  0.35417  0.42708  1.0000
  Pt  Pt15      1.0  0.00000  0.02083  0.38542  1.0000
  Pt  Pt16      1.0  0.50000  0.68750  0.34375  1.0000
