data_image0
_chemical_formula_structural       Al18Pt12
_chemical_formula_sum              "Al18 Pt12"
_cell_length_a       6.67719
_cell_length_b       8.93753
_cell_length_c       32.022
_cell_angle_alpha    90.1868
_cell_angle_beta     85.0148
_cell_angle_gamma    90.448

_space_group_name_H-M_alt    "P 1"
_space_group_IT_number       1

loop_
  _space_group_symop_operation_xyz
  'x, y, z'

loop_
  _atom_site_type_symbol
  _atom_site_label
  _atom_site_symmetry_multiplicity
  _atom_site_fract_x
  _atom_site_fract_y
  _atom_site_fract_z
  _atom_site_occupancy
  Al  Al1       1.0  0.02500  0.00000  0.48750  1.0000
  Al  Al2       1.0  0.85833  0.66667  0.40417  1.0000
  Al  Al3       1.0  0.44167  0.33333  0.44583  1.0000
  Al  Al4       1.0  0.43009  0.67328  0.44501  1.0000
  Al  Al5       1.0  0.01342  0.33995  0.48667  1.0000
  Al  Al6       1.0  0.84676  0.00662  0.40334  1.0000
  Al  Al7       1.0  0.45324  0.99338  0.44666  1.0000
  Al  Al8       1.0  0.03658  0.66005  0.48833  1.0000
  Al  Al9       1.0  0.86991  0.32672  0.40499  1.0000
  Al  Al10      1.0  0.77500  0.00000  0.61250  1.0000
  Al  Al11      1.0  0.60833  0.66667  0.52917  1.0000
  Al  Al12      1.0  0.19167  0.33333  0.57083  1.0000
  Al  Al13      1.0  0.18009  0.67328  0.57001  1.0000
  Al  Al14      1.0  0.76342  0.33995  0.61167  1.0000
  Al  Al15      1.0  0.59676  0.00662  0.52834  1.0000
  Al  Al16      1.0  0.20324  0.99338  0.57166  1.0000
  Al  Al17      1.0  0.78658  0.66005  0.61333  1.0000
  Al  Al18      1.0  0.61991  0.32672  0.52999  1.0000
  Pt  Pt1       1.0  0.15014  0.83325  0.42501  1.0000
  Pt  Pt2       1.0  0.73347  0.49992  0.46668  1.0000
  Pt  Pt3       1.0  0.56680  0.16659  0.38334  1.0000
  Pt  Pt4       1.0  0.73320  0.83341  0.46666  1.0000
  Pt  Pt5       1.0  0.56653  0.50008  0.38332  1.0000
  Pt  Pt6       1.0  0.14986  0.16675  0.42499  1.0000
  Pt  Pt7       1.0  0.90014  0.83325  0.55001  1.0000
  Pt  Pt8       1.0  0.48347  0.49992  0.59168  1.0000
  Pt  Pt9       1.0  0.31680  0.16659  0.50834  1.0000
  Pt  Pt10      1.0  0.48320  0.83341  0.59166  1.0000
  Pt  Pt11      1.0  0.31653  0.50008  0.50832  1.0000
  Pt  Pt12      1.0  0.89986  0.16675  0.54999  1.0000
