data_image0
_chemical_formula_structural       Ca3Cu12In3
_chemical_formula_sum              "Ca3 Cu12 In3"
_cell_length_a       5.05642
_cell_length_b       5.05642
_cell_length_c       37.1569
_cell_angle_alpha    90
_cell_angle_beta     90
_cell_angle_gamma    120

_space_group_name_H-M_alt    "P 1"
_space_group_IT_number       1

loop_
  _space_group_symop_operation_xyz
  'x, y, z'

loop_
  _atom_site_type_symbol
  _atom_site_label
  _atom_site_symmetry_multiplicity
  _atom_site_fract_x
  _atom_site_fract_y
  _atom_site_fract_z
  _atom_site_occupancy
  Ca  Ca1       1.0  0.33333  0.66667  0.42130  1.0000
  Ca  Ca2       1.0  0.00000  0.00000  0.64352  1.0000
  Ca  Ca3       1.0  0.66667  0.33333  0.53241  1.0000
  Cu  Cu1       1.0  0.16581  0.33163  0.49067  1.0000
  Cu  Cu2       1.0  0.83248  0.66496  0.37956  1.0000
  Cu  Cu3       1.0  0.49915  0.99829  0.60178  1.0000
  Cu  Cu4       1.0  0.66667  0.33333  0.65762  1.0000
  Cu  Cu5       1.0  0.33333  0.66667  0.54651  1.0000
  Cu  Cu6       1.0  0.00000  0.00000  0.43540  1.0000
  Cu  Cu7       1.0  0.49915  0.50085  0.60178  1.0000
  Cu  Cu8       1.0  0.16581  0.83419  0.49067  1.0000
  Cu  Cu9       1.0  0.83248  0.16752  0.37956  1.0000
  Cu  Cu10      1.0  0.66837  0.83419  0.49067  1.0000
  Cu  Cu11      1.0  0.33504  0.16752  0.37956  1.0000
  Cu  Cu12      1.0  0.00171  0.50085  0.60178  1.0000
  In  In1       1.0  0.00000  0.00000  0.56019  1.0000
  In  In2       1.0  0.66667  0.33333  0.44907  1.0000
  In  In3       1.0  0.33333  0.66667  0.33796  1.0000
