data_image0
_chemical_formula_structural       H2V4
_chemical_formula_sum              "H2 V4"
_cell_length_a       2.62761
_cell_length_b       2.62761
_cell_length_c       30.3996
_cell_angle_alpha    89.2628
_cell_angle_beta     89.2628
_cell_angle_gamma    67.1904

_space_group_name_H-M_alt    "P 1"
_space_group_IT_number       1

loop_
  _space_group_symop_operation_xyz
  'x, y, z'

loop_
  _atom_site_type_symbol
  _atom_site_label
  _atom_site_symmetry_multiplicity
  _atom_site_fract_x
  _atom_site_fract_y
  _atom_site_fract_z
  _atom_site_occupancy
  H   H1        1.0  0.47619  0.47619  0.52381  1.0000
  H   H2        1.0  0.61905  0.61905  0.38095  1.0000
  V   V1        1.0  0.64128  0.64128  0.62833  1.0000
  V   V2        1.0  0.16825  0.16825  0.56215  1.0000
  V   V3        1.0  0.78413  0.78413  0.48547  1.0000
  V   V4        1.0  0.31110  0.31110  0.41929  1.0000
