data_image0
_chemical_formula_structural       Al12Cu4Al12Cu4
_chemical_formula_sum              "Al24 Cu8"
_cell_length_a       3.91931
_cell_length_b       15.5412
_cell_length_c       31.3545
_cell_angle_alpha    97.2439
_cell_angle_beta     90
_cell_angle_gamma    82.7561

_space_group_name_H-M_alt    "P 1"
_space_group_IT_number       1

loop_
  _space_group_symop_operation_xyz
  'x, y, z'

loop_
  _atom_site_type_symbol
  _atom_site_label
  _atom_site_symmetry_multiplicity
  _atom_site_fract_x
  _atom_site_fract_y
  _atom_site_fract_z
  _atom_site_occupancy
  Al  Al1       1.0  0.62500  0.75000  0.38672  1.0000
  Al  Al2       1.0  0.87500  0.25000  0.48047  1.0000
  Al  Al3       1.0  0.37500  0.25000  0.41797  1.0000
  Al  Al4       1.0  0.12500  0.75000  0.44922  1.0000
  Al  Al5       1.0  0.55606  0.88789  0.45784  1.0000
  Al  Al6       1.0  0.80606  0.38789  0.42659  1.0000
  Al  Al7       1.0  0.30606  0.38789  0.48909  1.0000
  Al  Al8       1.0  0.05606  0.88789  0.39534  1.0000
  Al  Al9       1.0  0.69394  0.61211  0.44060  1.0000
  Al  Al10      1.0  0.94394  0.11211  0.40935  1.0000
  Al  Al11      1.0  0.44394  0.11211  0.47185  1.0000
  Al  Al12      1.0  0.19394  0.61211  0.37810  1.0000
  Cu  Cu1       1.0  0.75000  0.50000  0.49609  1.0000
  Cu  Cu2       1.0  0.00000  0.00000  0.46484  1.0000
  Cu  Cu3       1.0  0.50000  0.00000  0.40234  1.0000
  Cu  Cu4       1.0  0.25000  0.50000  0.43359  1.0000
  Al  Al13      1.0  0.62500  0.75000  0.51172  1.0000
  Al  Al14      1.0  0.87500  0.25000  0.60547  1.0000
  Al  Al15      1.0  0.37500  0.25000  0.54297  1.0000
  Al  Al16      1.0  0.12500  0.75000  0.57422  1.0000
  Al  Al17      1.0  0.55606  0.88789  0.58284  1.0000
  Al  Al18      1.0  0.80606  0.38789  0.55159  1.0000
  Al  Al19      1.0  0.30606  0.38789  0.61409  1.0000
  Al  Al20      1.0  0.05606  0.88789  0.52034  1.0000
  Al  Al21      1.0  0.69394  0.61211  0.56560  1.0000
  Al  Al22      1.0  0.94394  0.11211  0.53435  1.0000
  Al  Al23      1.0  0.44394  0.11211  0.59685  1.0000
  Al  Al24      1.0  0.19394  0.61211  0.50310  1.0000
  Cu  Cu5       1.0  0.75000  0.50000  0.62109  1.0000
  Cu  Cu6       1.0  0.00000  0.00000  0.58984  1.0000
  Cu  Cu7       1.0  0.50000  0.00000  0.52734  1.0000
  Cu  Cu8       1.0  0.25000  0.50000  0.55859  1.0000
