data_image0
_chemical_formula_structural       Ir6Re18
_chemical_formula_sum              "Ir6 Re18"
_cell_length_a       4.73534
_cell_length_b       7.22201
_cell_length_c       30.3685
_cell_angle_alpha    86.0488
_cell_angle_beta     90.0979
_cell_angle_gamma    90.2058

_space_group_name_H-M_alt    "P 1"
_space_group_IT_number       1

loop_
  _space_group_symop_operation_xyz
  'x, y, z'

loop_
  _atom_site_type_symbol
  _atom_site_label
  _atom_site_symmetry_multiplicity
  _atom_site_fract_x
  _atom_site_fract_y
  _atom_site_fract_z
  _atom_site_occupancy
  Ir  Ir1       1.0  0.00000  0.95833  0.52083  1.0000
  Ir  Ir2       1.0  0.33333  0.06944  0.63194  1.0000
  Ir  Ir3       1.0  0.66667  0.51389  0.57639  1.0000
  Ir  Ir4       1.0  0.00000  0.29167  0.35417  1.0000
  Ir  Ir5       1.0  0.33333  0.40278  0.46528  1.0000
  Ir  Ir6       1.0  0.66667  0.84722  0.40972  1.0000
  Re  Re1       1.0  0.16667  0.43056  0.61806  1.0000
  Re  Re2       1.0  0.50000  0.87500  0.56250  1.0000
  Re  Re3       1.0  0.83333  0.31944  0.50694  1.0000
  Re  Re4       1.0  0.50000  0.70833  0.64583  1.0000
  Re  Re5       1.0  0.83333  0.15278  0.59028  1.0000
  Re  Re6       1.0  0.16667  0.59722  0.53472  1.0000
  Re  Re7       1.0  0.00000  0.79167  0.60417  1.0000
  Re  Re8       1.0  0.33333  0.23611  0.54861  1.0000
  Re  Re9       1.0  0.66667  0.34722  0.65972  1.0000
  Re  Re10      1.0  0.16667  0.76389  0.45139  1.0000
  Re  Re11      1.0  0.50000  0.20833  0.39583  1.0000
  Re  Re12      1.0  0.83333  0.65278  0.34028  1.0000
  Re  Re13      1.0  0.50000  0.04167  0.47917  1.0000
  Re  Re14      1.0  0.83333  0.48611  0.42361  1.0000
  Re  Re15      1.0  0.16667  0.93056  0.36806  1.0000
  Re  Re16      1.0  0.00000  0.12500  0.43750  1.0000
  Re  Re17      1.0  0.33333  0.56944  0.38194  1.0000
  Re  Re18      1.0  0.66667  0.68056  0.49306  1.0000
