data_image0
_chemical_formula_structural       Ca3Ge6Ca3Ge6
_chemical_formula_sum              "Ca6 Ge12"
_cell_length_a       4.00836
_cell_length_b       9.39554
_cell_length_c       37.9831
_cell_angle_alpha    82.3271
_cell_angle_beta     71.5431
_cell_angle_gamma    64.7465

_space_group_name_H-M_alt    "P 1"
_space_group_IT_number       1

loop_
  _space_group_symop_operation_xyz
  'x, y, z'

loop_
  _atom_site_type_symbol
  _atom_site_label
  _atom_site_symmetry_multiplicity
  _atom_site_fract_x
  _atom_site_fract_y
  _atom_site_fract_z
  _atom_site_occupancy
  Ca  Ca1       1.0  0.66667  0.66667  0.36111  1.0000
  Ca  Ca2       1.0  0.00000  0.00000  0.47222  1.0000
  Ca  Ca3       1.0  0.33333  0.33333  0.41667  1.0000
  Ge  Ge1       1.0  0.37352  0.64657  0.46552  1.0000
  Ge  Ge2       1.0  0.70685  0.97991  0.40997  1.0000
  Ge  Ge3       1.0  0.04019  0.31324  0.35441  1.0000
  Ge  Ge4       1.0  0.95981  0.68676  0.42336  1.0000
  Ge  Ge5       1.0  0.29315  0.02009  0.36781  1.0000
  Ge  Ge6       1.0  0.62648  0.35343  0.47892  1.0000
  Ca  Ca4       1.0  0.66667  0.66667  0.52778  1.0000
  Ca  Ca5       1.0  0.00000  0.00000  0.63889  1.0000
  Ca  Ca6       1.0  0.33333  0.33333  0.58333  1.0000
  Ge  Ge7       1.0  0.37352  0.64657  0.63219  1.0000
  Ge  Ge8       1.0  0.70685  0.97991  0.57664  1.0000
  Ge  Ge9       1.0  0.04019  0.31324  0.52108  1.0000
  Ge  Ge10      1.0  0.95981  0.68676  0.59003  1.0000
  Ge  Ge11      1.0  0.29315  0.02009  0.53448  1.0000
  Ge  Ge12      1.0  0.62648  0.35343  0.64559  1.0000
