data_image0
_chemical_formula_structural       Ga2CuGa2CuGa2Cu
_chemical_formula_sum              "Ga6 Cu3"
_cell_length_a       2.7941
_cell_length_b       6.4403
_cell_length_c       30.7351
_cell_angle_alpha    115.712
_cell_angle_beta     90
_cell_angle_gamma    90

_space_group_name_H-M_alt    "P 1"
_space_group_IT_number       1

loop_
  _space_group_symop_operation_xyz
  'x, y, z'

loop_
  _atom_site_type_symbol
  _atom_site_label
  _atom_site_symmetry_multiplicity
  _atom_site_fract_x
  _atom_site_fract_y
  _atom_site_fract_z
  _atom_site_occupancy
  Ga  Ga1       1.0  0.50000  0.28442  0.41980  1.0000
  Ga  Ga2       1.0  0.50000  0.71558  0.36808  1.0000
  Cu  Cu1       1.0  0.00000  0.00000  0.43939  1.0000
  Ga  Ga3       1.0  0.50000  0.28442  0.51071  1.0000
  Ga  Ga4       1.0  0.50000  0.71558  0.45899  1.0000
  Cu  Cu2       1.0  0.00000  0.00000  0.53030  1.0000
  Ga  Ga5       1.0  0.50000  0.28442  0.60161  1.0000
  Ga  Ga6       1.0  0.50000  0.71558  0.54990  1.0000
  Cu  Cu3       1.0  0.00000  0.00000  0.62121  1.0000
