data_image0
_chemical_formula_structural       Co12Ti6
_chemical_formula_sum              "Co12 Ti6"
_cell_length_a       4.62525
_cell_length_b       4.62525
_cell_length_c       33.9885
_cell_angle_alpha    90
_cell_angle_beta     90
_cell_angle_gamma    120

_space_group_name_H-M_alt    "P 1"
_space_group_IT_number       1

loop_
  _space_group_symop_operation_xyz
  'x, y, z'

loop_
  _atom_site_type_symbol
  _atom_site_label
  _atom_site_symmetry_multiplicity
  _atom_site_fract_x
  _atom_site_fract_y
  _atom_site_fract_z
  _atom_site_occupancy
  Co  Co1       1.0  0.83333  0.16667  0.62037  1.0000
  Co  Co2       1.0  0.50000  0.50000  0.50926  1.0000
  Co  Co3       1.0  0.16667  0.83333  0.39815  1.0000
  Co  Co4       1.0  0.83333  0.66667  0.62037  1.0000
  Co  Co5       1.0  0.50000  0.00000  0.50926  1.0000
  Co  Co6       1.0  0.16667  0.33333  0.39815  1.0000
  Co  Co7       1.0  0.66667  0.33333  0.56481  1.0000
  Co  Co8       1.0  0.33333  0.66667  0.45370  1.0000
  Co  Co9       1.0  0.00000  0.00000  0.34259  1.0000
  Co  Co10      1.0  0.33333  0.16667  0.62037  1.0000
  Co  Co11      1.0  0.00000  0.50000  0.50926  1.0000
  Co  Co12      1.0  0.66667  0.83333  0.39815  1.0000
  Ti  Ti1       1.0  0.00000  0.00000  0.46759  1.0000
  Ti  Ti2       1.0  0.66667  0.33333  0.35648  1.0000
  Ti  Ti3       1.0  0.33333  0.66667  0.57870  1.0000
  Ti  Ti4       1.0  0.33333  0.66667  0.66204  1.0000
  Ti  Ti5       1.0  0.00000  0.00000  0.55093  1.0000
  Ti  Ti6       1.0  0.66667  0.33333  0.43981  1.0000
