data_image0
_chemical_formula_structural       Ni6Sb12
_chemical_formula_sum              "Ni6 Sb12"
_cell_length_a       6.48597
_cell_length_b       7.2826
_cell_length_c       35.9961
_cell_angle_alpha    67.7711
_cell_angle_beta     76.2992
_cell_angle_gamma    72.6043

_space_group_name_H-M_alt    "P 1"
_space_group_IT_number       1

loop_
  _space_group_symop_operation_xyz
  'x, y, z'

loop_
  _atom_site_type_symbol
  _atom_site_label
  _atom_site_symmetry_multiplicity
  _atom_site_fract_x
  _atom_site_fract_y
  _atom_site_fract_z
  _atom_site_occupancy
  Ni  Ni1       1.0  0.66667  0.66667  0.57639  1.0000
  Ni  Ni2       1.0  0.00000  0.00000  0.49306  1.0000
  Ni  Ni3       1.0  0.33333  0.33333  0.40972  1.0000
  Ni  Ni4       1.0  0.66667  0.66667  0.45139  1.0000
  Ni  Ni5       1.0  0.00000  0.00000  0.61806  1.0000
  Ni  Ni6       1.0  0.33333  0.33333  0.53472  1.0000
  Sb  Sb1       1.0  0.93067  0.35446  0.56434  1.0000
  Sb  Sb2       1.0  0.26401  0.68779  0.48101  1.0000
  Sb  Sb3       1.0  0.59734  0.02112  0.39767  1.0000
  Sb  Sb4       1.0  0.40266  0.97888  0.58844  1.0000
  Sb  Sb5       1.0  0.73599  0.31221  0.50511  1.0000
  Sb  Sb6       1.0  0.06933  0.64554  0.42177  1.0000
  Sb  Sb7       1.0  0.97627  0.83166  0.57004  1.0000
  Sb  Sb8       1.0  0.30960  0.16500  0.48670  1.0000
  Sb  Sb9       1.0  0.64293  0.49833  0.40337  1.0000
  Sb  Sb10      1.0  0.69040  0.83500  0.49941  1.0000
  Sb  Sb11      1.0  0.02373  0.16834  0.41607  1.0000
  Sb  Sb12      1.0  0.35707  0.50167  0.58274  1.0000
