data_image0
_chemical_formula_structural       Pt3Rh9
_chemical_formula_sum              "Pt3 Rh9"
_cell_length_a       3.81265
_cell_length_b       4.6603
_cell_length_c       30.7162
_cell_angle_alpha    92.7725
_cell_angle_beta     90
_cell_angle_gamma    114.146

_space_group_name_H-M_alt    "P 1"
_space_group_IT_number       1

loop_
  _space_group_symop_operation_xyz
  'x, y, z'

loop_
  _atom_site_type_symbol
  _atom_site_label
  _atom_site_symmetry_multiplicity
  _atom_site_fract_x
  _atom_site_fract_y
  _atom_site_fract_z
  _atom_site_occupancy
  Pt  Pt1       1.0  0.86111  0.72222  0.43056  1.0000
  Pt  Pt2       1.0  0.08333  0.16667  0.54167  1.0000
  Pt  Pt3       1.0  0.30556  0.61111  0.65278  1.0000
  Rh  Rh1       1.0  0.55556  0.11111  0.40278  1.0000
  Rh  Rh2       1.0  0.94444  0.88889  0.34722  1.0000
  Rh  Rh3       1.0  0.25000  0.50000  0.37500  1.0000
  Rh  Rh4       1.0  0.77778  0.55556  0.51389  1.0000
  Rh  Rh5       1.0  0.16667  0.33333  0.45833  1.0000
  Rh  Rh6       1.0  0.47222  0.94444  0.48611  1.0000
  Rh  Rh7       1.0  0.00000  0.00000  0.62500  1.0000
  Rh  Rh8       1.0  0.38889  0.77778  0.56944  1.0000
  Rh  Rh9       1.0  0.69444  0.38889  0.59722  1.0000
