data_image0
_chemical_formula_structural       H6V12
_chemical_formula_sum              "H6 V12"
_cell_length_a       2.62761
_cell_length_b       4.86083
_cell_length_c       39.2048
_cell_angle_alpha    90.287
_cell_angle_beta     90.5194
_cell_angle_gamma    96.5399

_space_group_name_H-M_alt    "P 1"
_space_group_IT_number       1

loop_
  _space_group_symop_operation_xyz
  'x, y, z'

loop_
  _atom_site_type_symbol
  _atom_site_label
  _atom_site_symmetry_multiplicity
  _atom_site_fract_x
  _atom_site_fract_y
  _atom_site_fract_z
  _atom_site_occupancy
  H   H1        1.0  0.27778  0.42593  0.62037  1.0000
  H   H2        1.0  0.94444  0.98148  0.50926  1.0000
  H   H3        1.0  0.61111  0.20370  0.56481  1.0000
  H   H4        1.0  0.27778  0.75926  0.45370  1.0000
  H   H5        1.0  0.94444  0.31481  0.34259  1.0000
  H   H6        1.0  0.61111  0.53704  0.39815  1.0000
  V   V1        1.0  0.72671  0.57476  0.59048  1.0000
  V   V2        1.0  0.39338  0.79698  0.64604  1.0000
  V   V3        1.0  0.06004  0.35254  0.53493  1.0000
  V   V4        1.0  0.16218  0.05487  0.59470  1.0000
  V   V5        1.0  0.82885  0.27709  0.65026  1.0000
  V   V6        1.0  0.49551  0.83265  0.53915  1.0000
  V   V7        1.0  0.72671  0.90809  0.42382  1.0000
  V   V8        1.0  0.39338  0.13031  0.47937  1.0000
  V   V9        1.0  0.06004  0.68587  0.36826  1.0000
  V   V10       1.0  0.16218  0.38820  0.42804  1.0000
  V   V11       1.0  0.82885  0.61043  0.48359  1.0000
  V   V12       1.0  0.49551  0.16598  0.37248  1.0000
