data_image0
_chemical_formula_structural       Sb12Os6
_chemical_formula_sum              "Sb12 Os6"
_cell_length_a       6.75895
_cell_length_b       7.41756
_cell_length_c       38.0229
_cell_angle_alpha    60.8629
_cell_angle_beta     67.1062
_cell_angle_gamma    78.0924

_space_group_name_H-M_alt    "P 1"
_space_group_IT_number       1

loop_
  _space_group_symop_operation_xyz
  'x, y, z'

loop_
  _atom_site_type_symbol
  _atom_site_label
  _atom_site_symmetry_multiplicity
  _atom_site_fract_x
  _atom_site_fract_y
  _atom_site_fract_z
  _atom_site_occupancy
  Sb  Sb1       1.0  0.42621  0.96572  0.59104  1.0000
  Sb  Sb2       1.0  0.75954  0.29905  0.50770  1.0000
  Sb  Sb3       1.0  0.09287  0.63238  0.42437  1.0000
  Sb  Sb4       1.0  0.90713  0.36762  0.56174  1.0000
  Sb  Sb5       1.0  0.24046  0.70095  0.47841  1.0000
  Sb  Sb6       1.0  0.57379  0.03428  0.39507  1.0000
  Sb  Sb7       1.0  0.66870  0.84447  0.49635  1.0000
  Sb  Sb8       1.0  0.00203  0.17781  0.41301  1.0000
  Sb  Sb9       1.0  0.33536  0.51114  0.57968  1.0000
  Sb  Sb10      1.0  0.99797  0.82219  0.57310  1.0000
  Sb  Sb11      1.0  0.33130  0.15553  0.48976  1.0000
  Sb  Sb12      1.0  0.66464  0.48886  0.40643  1.0000
  Os  Os1       1.0  0.66667  0.66667  0.57639  1.0000
  Os  Os2       1.0  0.00000  0.00000  0.49306  1.0000
  Os  Os3       1.0  0.33333  0.33333  0.40972  1.0000
  Os  Os4       1.0  0.66667  0.66667  0.45139  1.0000
  Os  Os5       1.0  0.00000  0.00000  0.61806  1.0000
  Os  Os6       1.0  0.33333  0.33333  0.53472  1.0000
