data_image0
_chemical_formula_structural       Ag2Au6Ag2Au6
_chemical_formula_sum              "Ag4 Au12"
_cell_length_a       5.73162
_cell_length_b       4.74737
_cell_length_c       40.1213
_cell_angle_alpha    90
_cell_angle_beta     120
_cell_angle_gamma    90

_space_group_name_H-M_alt    "P 1"
_space_group_IT_number       1

loop_
  _space_group_symop_operation_xyz
  'x, y, z'

loop_
  _atom_site_type_symbol
  _atom_site_label
  _atom_site_symmetry_multiplicity
  _atom_site_fract_x
  _atom_site_fract_y
  _atom_site_fract_z
  _atom_site_occupancy
  Ag  Ag1       1.0  0.66667  0.75000  0.47619  1.0000
  Ag  Ag2       1.0  0.33333  0.25000  0.38095  1.0000
  Au  Au1       1.0  0.33440  0.25000  0.45246  1.0000
  Au  Au2       1.0  0.83280  0.25000  0.38080  1.0000
  Au  Au3       1.0  0.83280  0.25000  0.45246  1.0000
  Au  Au4       1.0  0.66560  0.75000  0.40469  1.0000
  Au  Au5       1.0  0.16720  0.75000  0.47634  1.0000
  Au  Au6       1.0  0.16720  0.75000  0.40469  1.0000
  Ag  Ag3       1.0  0.66667  0.75000  0.61905  1.0000
  Ag  Ag4       1.0  0.33333  0.25000  0.52381  1.0000
  Au  Au7       1.0  0.33440  0.25000  0.59531  1.0000
  Au  Au8       1.0  0.83280  0.25000  0.52366  1.0000
  Au  Au9       1.0  0.83280  0.25000  0.59531  1.0000
  Au  Au10      1.0  0.66560  0.75000  0.54754  1.0000
  Au  Au11      1.0  0.16720  0.75000  0.61920  1.0000
  Au  Au12      1.0  0.16720  0.75000  0.54754  1.0000
