data_image0
_chemical_formula_structural       Mo12
_chemical_formula_sum              "Mo12"
_cell_length_a       3.11923
_cell_length_b       6.97482
_cell_length_c       30.8788
_cell_angle_alpha    71.5651
_cell_angle_beta     90
_cell_angle_gamma    90

_space_group_name_H-M_alt    "P 1"
_space_group_IT_number       1

loop_
  _space_group_symop_operation_xyz
  'x, y, z'

loop_
  _atom_site_type_symbol
  _atom_site_label
  _atom_site_symmetry_multiplicity
  _atom_site_fract_x
  _atom_site_fract_y
  _atom_site_fract_z
  _atom_site_occupancy
  Mo  Mo1       1.0  0.00000  0.66667  0.44048  1.0000
  Mo  Mo2       1.0  0.00000  0.33333  0.39286  1.0000
  Mo  Mo3       1.0  0.00000  0.00000  0.48810  1.0000
  Mo  Mo4       1.0  0.50000  0.66667  0.36905  1.0000
  Mo  Mo5       1.0  0.50000  0.33333  0.46429  1.0000
  Mo  Mo6       1.0  0.50000  0.00000  0.41667  1.0000
  Mo  Mo7       1.0  0.00000  0.66667  0.58333  1.0000
  Mo  Mo8       1.0  0.00000  0.33333  0.53571  1.0000
  Mo  Mo9       1.0  0.00000  0.00000  0.63095  1.0000
  Mo  Mo10      1.0  0.50000  0.66667  0.51190  1.0000
  Mo  Mo11      1.0  0.50000  0.33333  0.60714  1.0000
  Mo  Mo12      1.0  0.50000  0.00000  0.55952  1.0000
