data_image0
_chemical_formula_structural       Ir2Ru2Ir2Ru2
_chemical_formula_sum              "Ir4 Ru4"
_cell_length_a       2.70764
_cell_length_b       5.08513
_cell_length_c       35.5959
_cell_angle_alpha    64.3439
_cell_angle_beta     105.44
_cell_angle_gamma    74.5599

_space_group_name_H-M_alt    "P 1"
_space_group_IT_number       1

loop_
  _space_group_symop_operation_xyz
  'x, y, z'

loop_
  _atom_site_type_symbol
  _atom_site_label
  _atom_site_symmetry_multiplicity
  _atom_site_fract_x
  _atom_site_fract_y
  _atom_site_fract_z
  _atom_site_occupancy
  Ir  Ir1       1.0  0.00000  0.25000  0.38690  1.0000
  Ir  Ir2       1.0  0.00000  0.75000  0.45833  1.0000
  Ru  Ru1       1.0  0.33333  0.66667  0.39881  1.0000
  Ru  Ru2       1.0  0.33333  0.16667  0.47024  1.0000
  Ir  Ir3       1.0  0.00000  0.25000  0.52976  1.0000
  Ir  Ir4       1.0  0.00000  0.75000  0.60119  1.0000
  Ru  Ru3       1.0  0.33333  0.66667  0.54167  1.0000
  Ru  Ru4       1.0  0.33333  0.16667  0.61310  1.0000
