data_image0
_chemical_formula_structural       Ca8Au8Ca8Au8
_chemical_formula_sum              "Ca16 Au16"
_cell_length_a       4.57064
_cell_length_b       22.0603
_cell_length_c       31.5071
_cell_angle_alpha    100.284
_cell_angle_beta     90
_cell_angle_gamma    90

_space_group_name_H-M_alt    "P 1"
_space_group_IT_number       1

loop_
  _space_group_symop_operation_xyz
  'x, y, z'

loop_
  _atom_site_type_symbol
  _atom_site_label
  _atom_site_symmetry_multiplicity
  _atom_site_fract_x
  _atom_site_fract_y
  _atom_site_fract_z
  _atom_site_occupancy
  Ca  Ca1       1.0  0.25000  0.06969  0.49309  1.0000
  Ca  Ca2       1.0  0.25000  0.56969  0.43059  1.0000
  Ca  Ca3       1.0  0.75000  0.18031  0.44441  1.0000
  Ca  Ca4       1.0  0.75000  0.68031  0.38191  1.0000
  Ca  Ca5       1.0  0.25000  0.31969  0.46184  1.0000
  Ca  Ca6       1.0  0.25000  0.81969  0.39934  1.0000
  Ca  Ca7       1.0  0.75000  0.43031  0.41316  1.0000
  Ca  Ca8       1.0  0.75000  0.93031  0.47566  1.0000
  Au  Au1       1.0  0.25000  0.20953  0.38557  1.0000
  Au  Au2       1.0  0.25000  0.70953  0.44807  1.0000
  Au  Au3       1.0  0.75000  0.04047  0.42693  1.0000
  Au  Au4       1.0  0.75000  0.54047  0.48943  1.0000
  Au  Au5       1.0  0.25000  0.45953  0.47932  1.0000
  Au  Au6       1.0  0.25000  0.95953  0.41682  1.0000
  Au  Au7       1.0  0.75000  0.29047  0.39568  1.0000
  Au  Au8       1.0  0.75000  0.79047  0.45818  1.0000
  Ca  Ca9       1.0  0.25000  0.06969  0.61809  1.0000
  Ca  Ca10      1.0  0.25000  0.56969  0.55559  1.0000
  Ca  Ca11      1.0  0.75000  0.18031  0.56941  1.0000
  Ca  Ca12      1.0  0.75000  0.68031  0.50691  1.0000
  Ca  Ca13      1.0  0.25000  0.31969  0.58684  1.0000
  Ca  Ca14      1.0  0.25000  0.81969  0.52434  1.0000
  Ca  Ca15      1.0  0.75000  0.43031  0.53816  1.0000
  Ca  Ca16      1.0  0.75000  0.93031  0.60066  1.0000
  Au  Au9       1.0  0.25000  0.20953  0.51057  1.0000
  Au  Au10      1.0  0.25000  0.70953  0.57307  1.0000
  Au  Au11      1.0  0.75000  0.04047  0.55193  1.0000
  Au  Au12      1.0  0.75000  0.54047  0.61443  1.0000
  Au  Au13      1.0  0.25000  0.45953  0.60432  1.0000
  Au  Au14      1.0  0.25000  0.95953  0.54182  1.0000
  Au  Au15      1.0  0.75000  0.29047  0.52068  1.0000
  Au  Au16      1.0  0.75000  0.79047  0.58318  1.0000
