data_image0
_chemical_formula_structural       Na8Sb4Au4
_chemical_formula_sum              "Na8 Sb4 Au4"
_cell_length_a       7.45441
_cell_length_b       5.81969
_cell_length_c       36.8716
_cell_angle_alpha    90
_cell_angle_beta     90
_cell_angle_gamma    90

_space_group_name_H-M_alt    "P 1"
_space_group_IT_number       1

loop_
  _space_group_symop_operation_xyz
  'x, y, z'

loop_
  _atom_site_type_symbol
  _atom_site_label
  _atom_site_symmetry_multiplicity
  _atom_site_fract_x
  _atom_site_fract_y
  _atom_site_fract_z
  _atom_site_occupancy
  Na  Na1       1.0  0.66404  0.75000  0.48239  1.0000
  Na  Na2       1.0  0.33596  0.25000  0.39261  1.0000
  Na  Na3       1.0  0.66404  0.75000  0.39261  1.0000
  Na  Na4       1.0  0.33596  0.25000  0.48239  1.0000
  Na  Na5       1.0  0.16404  0.75000  0.60739  1.0000
  Na  Na6       1.0  0.83596  0.25000  0.51761  1.0000
  Na  Na7       1.0  0.16404  0.75000  0.51761  1.0000
  Na  Na8       1.0  0.83596  0.25000  0.60739  1.0000
  Sb  Sb1       1.0  0.20187  0.25000  0.56250  1.0000
  Sb  Sb2       1.0  0.79813  0.75000  0.56250  1.0000
  Sb  Sb3       1.0  0.70187  0.25000  0.43750  1.0000
  Sb  Sb4       1.0  0.29813  0.75000  0.43750  1.0000
  Au  Au1       1.0  0.50000  0.50000  0.56250  1.0000
  Au  Au2       1.0  0.50000  0.00000  0.56250  1.0000
  Au  Au3       1.0  0.00000  0.50000  0.43750  1.0000
  Au  Au4       1.0  0.00000  0.00000  0.43750  1.0000
