data_image0
_chemical_formula_structural       Al16Mo6
_chemical_formula_sum              "Al16 Mo6"
_cell_length_a       3.62399
_cell_length_b       10.0021
_cell_length_c       36.6241
_cell_angle_alpha    100.745
_cell_angle_beta     90
_cell_angle_gamma    90

_space_group_name_H-M_alt    "P 1"
_space_group_IT_number       1

loop_
  _space_group_symop_operation_xyz
  'x, y, z'

loop_
  _atom_site_type_symbol
  _atom_site_label
  _atom_site_symmetry_multiplicity
  _atom_site_fract_x
  _atom_site_fract_y
  _atom_site_fract_z
  _atom_site_occupancy
  Al  Al1       1.0  0.00000  0.09018  0.52851  1.0000
  Al  Al2       1.0  0.50000  0.90982  0.53967  1.0000
  Al  Al3       1.0  0.00000  0.82085  0.48155  1.0000
  Al  Al4       1.0  0.50000  0.17915  0.58663  1.0000
  Al  Al5       1.0  0.00000  0.72212  0.54996  1.0000
  Al  Al6       1.0  0.50000  0.27788  0.51823  1.0000
  Al  Al7       1.0  0.00000  0.45830  0.50454  1.0000
  Al  Al8       1.0  0.50000  0.54170  0.56364  1.0000
  Al  Al9       1.0  0.50000  0.09018  0.40351  1.0000
  Al  Al10      1.0  0.00000  0.90982  0.41467  1.0000
  Al  Al11      1.0  0.50000  0.82085  0.60655  1.0000
  Al  Al12      1.0  0.00000  0.17915  0.46163  1.0000
  Al  Al13      1.0  0.50000  0.72212  0.42496  1.0000
  Al  Al14      1.0  0.00000  0.27788  0.39323  1.0000
  Al  Al15      1.0  0.50000  0.45830  0.37954  1.0000
  Al  Al16      1.0  0.00000  0.54170  0.43864  1.0000
  Mo  Mo1       1.0  0.00000  0.00000  0.59659  1.0000
  Mo  Mo2       1.0  0.00000  0.34054  0.57294  1.0000
  Mo  Mo3       1.0  0.50000  0.65946  0.49524  1.0000
  Mo  Mo4       1.0  0.50000  0.00000  0.47159  1.0000
  Mo  Mo5       1.0  0.50000  0.34054  0.44794  1.0000
  Mo  Mo6       1.0  0.00000  0.65946  0.62024  1.0000
