data_image0
_chemical_formula_structural       Co8Ge8
_chemical_formula_sum              "Co8 Ge8"
_cell_length_a       4.86742
_cell_length_b       6.08097
_cell_length_c       28.4328
_cell_angle_alpha    96.0174
_cell_angle_beta     91.9546
_cell_angle_gamma    99.1764

_space_group_name_H-M_alt    "P 1"
_space_group_IT_number       1

loop_
  _space_group_symop_operation_xyz
  'x, y, z'

loop_
  _atom_site_type_symbol
  _atom_site_label
  _atom_site_symmetry_multiplicity
  _atom_site_fract_x
  _atom_site_fract_y
  _atom_site_fract_z
  _atom_site_occupancy
  Co  Co1       1.0  0.00000  0.43750  0.56250  1.0000
  Co  Co2       1.0  0.50000  0.43750  0.56250  1.0000
  Co  Co3       1.0  0.32605  0.80681  0.58712  1.0000
  Co  Co4       1.0  0.67395  0.06819  0.53788  1.0000
  Co  Co5       1.0  0.00000  0.56250  0.43750  1.0000
  Co  Co6       1.0  0.50000  0.56250  0.43750  1.0000
  Co  Co7       1.0  0.32605  0.93181  0.46212  1.0000
  Co  Co8       1.0  0.67395  0.19319  0.41288  1.0000
  Ge  Ge1       1.0  0.81895  0.78093  0.58540  1.0000
  Ge  Ge2       1.0  0.18105  0.09407  0.53960  1.0000
  Ge  Ge3       1.0  0.71774  0.24365  0.61624  1.0000
  Ge  Ge4       1.0  0.28226  0.63135  0.50876  1.0000
  Ge  Ge5       1.0  0.81895  0.90593  0.46040  1.0000
  Ge  Ge6       1.0  0.18105  0.21907  0.41460  1.0000
  Ge  Ge7       1.0  0.71774  0.36865  0.49124  1.0000
  Ge  Ge8       1.0  0.28226  0.75635  0.38376  1.0000
