data_image0
_chemical_formula_structural       Cu4Sn4Cu4Sn4
_chemical_formula_sum              "Cu8 Sn8"
_cell_length_a       5.01432
_cell_length_b       7.11507
_cell_length_c       28.7552
_cell_angle_alpha    90
_cell_angle_beta     90
_cell_angle_gamma    90

_space_group_name_H-M_alt    "P 1"
_space_group_IT_number       1

loop_
  _space_group_symop_operation_xyz
  'x, y, z'

loop_
  _atom_site_type_symbol
  _atom_site_label
  _atom_site_symmetry_multiplicity
  _atom_site_fract_x
  _atom_site_fract_y
  _atom_site_fract_z
  _atom_site_occupancy
  Cu  Cu1       1.0  0.00000  0.50000  0.39286  1.0000
  Cu  Cu2       1.0  0.00000  0.00000  0.46429  1.0000
  Cu  Cu3       1.0  0.50000  0.50000  0.39286  1.0000
  Cu  Cu4       1.0  0.50000  0.00000  0.46429  1.0000
  Sn  Sn1       1.0  0.75000  0.33333  0.46429  1.0000
  Sn  Sn2       1.0  0.75000  0.83333  0.39286  1.0000
  Sn  Sn3       1.0  0.25000  0.66667  0.46429  1.0000
  Sn  Sn4       1.0  0.25000  0.16667  0.39286  1.0000
  Cu  Cu5       1.0  0.00000  0.50000  0.53571  1.0000
  Cu  Cu6       1.0  0.00000  0.00000  0.60714  1.0000
  Cu  Cu7       1.0  0.50000  0.50000  0.53571  1.0000
  Cu  Cu8       1.0  0.50000  0.00000  0.60714  1.0000
  Sn  Sn5       1.0  0.75000  0.33333  0.60714  1.0000
  Sn  Sn6       1.0  0.75000  0.83333  0.53571  1.0000
  Sn  Sn7       1.0  0.25000  0.66667  0.60714  1.0000
  Sn  Sn8       1.0  0.25000  0.16667  0.53571  1.0000
