data_image0
_chemical_formula_structural       Zn8Cu4Au4Zn8Cu4Au4
_chemical_formula_sum              "Zn16 Cu8 Au8"
_cell_length_a       4.61039
_cell_length_b       11.7772
_cell_length_c       30.9367
_cell_angle_alpha    112.041
_cell_angle_beta     90
_cell_angle_gamma    90

_space_group_name_H-M_alt    "P 1"
_space_group_IT_number       1

loop_
  _space_group_symop_operation_xyz
  'x, y, z'

loop_
  _atom_site_type_symbol
  _atom_site_label
  _atom_site_symmetry_multiplicity
  _atom_site_fract_x
  _atom_site_fract_y
  _atom_site_fract_z
  _atom_site_occupancy
  Zn  Zn1       1.0  0.81882  0.37481  0.47319  1.0000
  Zn  Zn2       1.0  0.81882  0.87481  0.40176  1.0000
  Zn  Zn3       1.0  0.81882  0.12519  0.43753  1.0000
  Zn  Zn4       1.0  0.81882  0.62519  0.36610  1.0000
  Zn  Zn5       1.0  0.18118  0.12481  0.36604  1.0000
  Zn  Zn6       1.0  0.18118  0.62481  0.43747  1.0000
  Zn  Zn7       1.0  0.18118  0.37519  0.40181  1.0000
  Zn  Zn8       1.0  0.18118  0.87519  0.47324  1.0000
  Cu  Cu1       1.0  0.68602  0.25000  0.38393  1.0000
  Cu  Cu2       1.0  0.68602  0.75000  0.45536  1.0000
  Cu  Cu3       1.0  0.31398  0.00000  0.41964  1.0000
  Cu  Cu4       1.0  0.31398  0.50000  0.49107  1.0000
  Au  Au1       1.0  0.32207  0.25000  0.45536  1.0000
  Au  Au2       1.0  0.32207  0.75000  0.38393  1.0000
  Au  Au3       1.0  0.67793  0.00000  0.49107  1.0000
  Au  Au4       1.0  0.67793  0.50000  0.41964  1.0000
  Zn  Zn9       1.0  0.81882  0.37481  0.61604  1.0000
  Zn  Zn10      1.0  0.81882  0.87481  0.54462  1.0000
  Zn  Zn11      1.0  0.81882  0.12519  0.58038  1.0000
  Zn  Zn12      1.0  0.81882  0.62519  0.50896  1.0000
  Zn  Zn13      1.0  0.18118  0.12481  0.50890  1.0000
  Zn  Zn14      1.0  0.18118  0.62481  0.58033  1.0000
  Zn  Zn15      1.0  0.18118  0.37519  0.54467  1.0000
  Zn  Zn16      1.0  0.18118  0.87519  0.61610  1.0000
  Cu  Cu5       1.0  0.68602  0.25000  0.52679  1.0000
  Cu  Cu6       1.0  0.68602  0.75000  0.59821  1.0000
  Cu  Cu7       1.0  0.31398  0.00000  0.56250  1.0000
  Cu  Cu8       1.0  0.31398  0.50000  0.63393  1.0000
  Au  Au5       1.0  0.32207  0.25000  0.59821  1.0000
  Au  Au6       1.0  0.32207  0.75000  0.52679  1.0000
  Au  Au7       1.0  0.67793  0.00000  0.63393  1.0000
  Au  Au8       1.0  0.67793  0.50000  0.56250  1.0000
