data_image0
_chemical_formula_structural       Pd4Au12Pd4Au12
_chemical_formula_sum              "Pd8 Au24"
_cell_length_a       5.72042
_cell_length_b       8.93715
_cell_length_c       34.3225
_cell_angle_alpha    108.665
_cell_angle_beta     90
_cell_angle_gamma    71.3349

_space_group_name_H-M_alt    "P 1"
_space_group_IT_number       1

loop_
  _space_group_symop_operation_xyz
  'x, y, z'

loop_
  _atom_site_type_symbol
  _atom_site_label
  _atom_site_symmetry_multiplicity
  _atom_site_fract_x
  _atom_site_fract_y
  _atom_site_fract_z
  _atom_site_occupancy
  Pd  Pd1       1.0  0.00000  0.00000  0.48958  1.0000
  Pd  Pd2       1.0  0.50000  0.00000  0.40625  1.0000
  Pd  Pd3       1.0  0.75000  0.50000  0.44792  1.0000
  Pd  Pd4       1.0  0.25000  0.50000  0.36458  1.0000
  Au  Au1       1.0  0.62500  0.25000  0.38542  1.0000
  Au  Au2       1.0  0.12500  0.25000  0.46875  1.0000
  Au  Au3       1.0  0.12500  0.25000  0.38542  1.0000
  Au  Au4       1.0  0.62500  0.25000  0.46875  1.0000
  Au  Au5       1.0  0.00000  0.00000  0.40625  1.0000
  Au  Au6       1.0  0.50000  0.00000  0.48958  1.0000
  Au  Au7       1.0  0.87500  0.75000  0.42708  1.0000
  Au  Au8       1.0  0.37500  0.75000  0.34375  1.0000
  Au  Au9       1.0  0.37500  0.75000  0.42708  1.0000
  Au  Au10      1.0  0.87500  0.75000  0.34375  1.0000
  Au  Au11      1.0  0.75000  0.50000  0.36458  1.0000
  Au  Au12      1.0  0.25000  0.50000  0.44792  1.0000
  Pd  Pd5       1.0  0.00000  0.00000  0.65625  1.0000
  Pd  Pd6       1.0  0.50000  0.00000  0.57292  1.0000
  Pd  Pd7       1.0  0.75000  0.50000  0.61458  1.0000
  Pd  Pd8       1.0  0.25000  0.50000  0.53125  1.0000
  Au  Au13      1.0  0.62500  0.25000  0.55208  1.0000
  Au  Au14      1.0  0.12500  0.25000  0.63542  1.0000
  Au  Au15      1.0  0.12500  0.25000  0.55208  1.0000
  Au  Au16      1.0  0.62500  0.25000  0.63542  1.0000
  Au  Au17      1.0  0.00000  0.00000  0.57292  1.0000
  Au  Au18      1.0  0.50000  0.00000  0.65625  1.0000
  Au  Au19      1.0  0.87500  0.75000  0.59375  1.0000
  Au  Au20      1.0  0.37500  0.75000  0.51042  1.0000
  Au  Au21      1.0  0.37500  0.75000  0.59375  1.0000
  Au  Au22      1.0  0.87500  0.75000  0.51042  1.0000
  Au  Au23      1.0  0.75000  0.50000  0.53125  1.0000
  Au  Au24      1.0  0.25000  0.50000  0.61458  1.0000
