data_image0
_chemical_formula_structural       Al10Cu10
_chemical_formula_sum              "Al10 Cu10"
_cell_length_a       4.05813
_cell_length_b       6.85672
_cell_length_c       39.2382
_cell_angle_alpha    90.0058
_cell_angle_beta     90
_cell_angle_gamma    90

_space_group_name_H-M_alt    "P 1"
_space_group_IT_number       1

loop_
  _space_group_symop_operation_xyz
  'x, y, z'

loop_
  _atom_site_type_symbol
  _atom_site_label
  _atom_site_symmetry_multiplicity
  _atom_site_fract_x
  _atom_site_fract_y
  _atom_site_fract_z
  _atom_site_occupancy
  Al  Al1       1.0  0.50000  0.50000  0.57500  1.0000
  Al  Al2       1.0  0.00000  0.69479  0.61405  1.0000
  Al  Al3       1.0  0.00000  0.30521  0.53595  1.0000
  Al  Al4       1.0  0.00000  0.38251  0.41956  1.0000
  Al  Al5       1.0  0.00000  0.61749  0.48044  1.0000
  Al  Al6       1.0  0.00000  0.00000  0.45000  1.0000
  Al  Al7       1.0  0.50000  0.19479  0.48905  1.0000
  Al  Al8       1.0  0.50000  0.80521  0.41095  1.0000
  Al  Al9       1.0  0.50000  0.88251  0.54456  1.0000
  Al  Al10      1.0  0.50000  0.11749  0.60544  1.0000
  Cu  Cu1       1.0  0.00000  0.00000  0.57500  1.0000
  Cu  Cu2       1.0  0.50000  0.51736  0.51449  1.0000
  Cu  Cu3       1.0  0.50000  0.48264  0.38551  1.0000
  Cu  Cu4       1.0  0.00000  0.33709  0.60224  1.0000
  Cu  Cu5       1.0  0.00000  0.66291  0.54776  1.0000
  Cu  Cu6       1.0  0.50000  0.50000  0.45000  1.0000
  Cu  Cu7       1.0  0.00000  0.01736  0.38949  1.0000
  Cu  Cu8       1.0  0.00000  0.98264  0.51051  1.0000
  Cu  Cu9       1.0  0.50000  0.83709  0.47724  1.0000
  Cu  Cu10      1.0  0.50000  0.16291  0.42276  1.0000
