data_image0
_chemical_formula_structural       Ir4Ru4Ir4Ru4
_chemical_formula_sum              "Ir8 Ru8"
_cell_length_a       4.68977
_cell_length_b       5.08513
_cell_length_c       35.5959
_cell_angle_alpha    64.3439
_cell_angle_beta     90
_cell_angle_gamma    90

_space_group_name_H-M_alt    "P 1"
_space_group_IT_number       1

loop_
  _space_group_symop_operation_xyz
  'x, y, z'

loop_
  _atom_site_type_symbol
  _atom_site_label
  _atom_site_symmetry_multiplicity
  _atom_site_fract_x
  _atom_site_fract_y
  _atom_site_fract_z
  _atom_site_occupancy
  Ir  Ir1       1.0  0.00000  0.25000  0.37500  1.0000
  Ir  Ir2       1.0  0.00000  0.75000  0.44643  1.0000
  Ir  Ir3       1.0  0.50000  0.00000  0.41071  1.0000
  Ir  Ir4       1.0  0.50000  0.50000  0.48214  1.0000
  Ru  Ru1       1.0  0.16667  0.75000  0.37500  1.0000
  Ru  Ru2       1.0  0.16667  0.25000  0.44643  1.0000
  Ru  Ru3       1.0  0.66667  0.50000  0.41071  1.0000
  Ru  Ru4       1.0  0.66667  0.00000  0.48214  1.0000
  Ir  Ir5       1.0  0.00000  0.25000  0.51786  1.0000
  Ir  Ir6       1.0  0.00000  0.75000  0.58929  1.0000
  Ir  Ir7       1.0  0.50000  0.00000  0.55357  1.0000
  Ir  Ir8       1.0  0.50000  0.50000  0.62500  1.0000
  Ru  Ru5       1.0  0.16667  0.75000  0.51786  1.0000
  Ru  Ru6       1.0  0.16667  0.25000  0.58929  1.0000
  Ru  Ru7       1.0  0.66667  0.50000  0.55357  1.0000
  Ru  Ru8       1.0  0.66667  0.00000  0.62500  1.0000
