data_image0
_chemical_formula_structural       Co8As8Co8As8Co8As8Co8As8
_chemical_formula_sum              "Co32 As32"
_cell_length_a       5.74667
_cell_length_b       11.0327
_cell_length_c       37.6455
_cell_angle_alpha    108.071
_cell_angle_beta     90
_cell_angle_gamma    90

_space_group_name_H-M_alt    "P 1"
_space_group_IT_number       1

loop_
  _space_group_symop_operation_xyz
  'x, y, z'

loop_
  _atom_site_type_symbol
  _atom_site_label
  _atom_site_symmetry_multiplicity
  _atom_site_fract_x
  _atom_site_fract_y
  _atom_site_fract_z
  _atom_site_occupancy
  Co  Co1       1.0  0.69762  0.25047  0.35800  1.0000
  Co  Co2       1.0  0.69762  0.75047  0.40345  1.0000
  Co  Co3       1.0  0.80238  0.00047  0.33527  1.0000
  Co  Co4       1.0  0.80238  0.50047  0.38072  1.0000
  Co  Co5       1.0  0.30238  0.24953  0.40337  1.0000
  Co  Co6       1.0  0.30238  0.74953  0.35791  1.0000
  Co  Co7       1.0  0.19762  0.49953  0.33518  1.0000
  Co  Co8       1.0  0.19762  0.99953  0.38064  1.0000
  As  As1       1.0  0.41153  0.10009  0.34433  1.0000
  As  As2       1.0  0.41153  0.60009  0.38978  1.0000
  As  As3       1.0  0.91153  0.14991  0.39431  1.0000
  As  As4       1.0  0.91153  0.64991  0.34886  1.0000
  As  As5       1.0  0.58847  0.39991  0.32613  1.0000
  As  As6       1.0  0.58847  0.89991  0.37158  1.0000
  As  As7       1.0  0.08847  0.35009  0.36705  1.0000
  As  As8       1.0  0.08847  0.85009  0.32160  1.0000
  Co  Co9       1.0  0.69762  0.25047  0.44891  1.0000
  Co  Co10      1.0  0.69762  0.75047  0.49436  1.0000
  Co  Co11      1.0  0.80238  0.00047  0.42618  1.0000
  Co  Co12      1.0  0.80238  0.50047  0.47163  1.0000
  Co  Co13      1.0  0.30238  0.24953  0.49428  1.0000
  Co  Co14      1.0  0.30238  0.74953  0.44882  1.0000
  Co  Co15      1.0  0.19762  0.49953  0.42609  1.0000
  Co  Co16      1.0  0.19762  0.99953  0.47155  1.0000
  As  As9       1.0  0.41153  0.10009  0.43524  1.0000
  As  As10      1.0  0.41153  0.60009  0.48069  1.0000
  As  As11      1.0  0.91153  0.14991  0.48522  1.0000
  As  As12      1.0  0.91153  0.64991  0.43976  1.0000
  As  As13      1.0  0.58847  0.39991  0.41704  1.0000
  As  As14      1.0  0.58847  0.89991  0.46249  1.0000
  As  As15      1.0  0.08847  0.35009  0.45796  1.0000
  As  As16      1.0  0.08847  0.85009  0.41251  1.0000
  Co  Co17      1.0  0.69762  0.25047  0.53982  1.0000
  Co  Co18      1.0  0.69762  0.75047  0.58527  1.0000
  Co  Co19      1.0  0.80238  0.00047  0.51709  1.0000
  Co  Co20      1.0  0.80238  0.50047  0.56254  1.0000
  Co  Co21      1.0  0.30238  0.24953  0.58518  1.0000
  Co  Co22      1.0  0.30238  0.74953  0.53973  1.0000
  Co  Co23      1.0  0.19762  0.49953  0.51700  1.0000
  Co  Co24      1.0  0.19762  0.99953  0.56246  1.0000
  As  As17      1.0  0.41153  0.10009  0.52614  1.0000
  As  As18      1.0  0.41153  0.60009  0.57160  1.0000
  As  As19      1.0  0.91153  0.14991  0.57613  1.0000
  As  As20      1.0  0.91153  0.64991  0.53067  1.0000
  As  As21      1.0  0.58847  0.39991  0.50795  1.0000
  As  As22      1.0  0.58847  0.89991  0.55340  1.0000
  As  As23      1.0  0.08847  0.35009  0.54887  1.0000
  As  As24      1.0  0.08847  0.85009  0.50342  1.0000
  Co  Co25      1.0  0.69762  0.25047  0.63072  1.0000
  Co  Co26      1.0  0.69762  0.75047  0.67618  1.0000
  Co  Co27      1.0  0.80238  0.00047  0.60800  1.0000
  Co  Co28      1.0  0.80238  0.50047  0.65345  1.0000
  Co  Co29      1.0  0.30238  0.24953  0.67609  1.0000
  Co  Co30      1.0  0.30238  0.74953  0.63064  1.0000
  Co  Co31      1.0  0.19762  0.49953  0.60791  1.0000
  Co  Co32      1.0  0.19762  0.99953  0.65337  1.0000
  As  As25      1.0  0.41153  0.10009  0.61705  1.0000
  As  As26      1.0  0.41153  0.60009  0.66251  1.0000
  As  As27      1.0  0.91153  0.14991  0.66704  1.0000
  As  As28      1.0  0.91153  0.64991  0.62158  1.0000
  As  As29      1.0  0.58847  0.39991  0.59886  1.0000
  As  As30      1.0  0.58847  0.89991  0.64431  1.0000
  As  As31      1.0  0.08847  0.35009  0.63978  1.0000
  As  As32      1.0  0.08847  0.85009  0.59433  1.0000
