data_image0
_chemical_formula_structural       Rh24Si24
_chemical_formula_sum              "Rh24 Si24"
_cell_length_a       8.4318
_cell_length_b       8.97499
_cell_length_c       28.9302
_cell_angle_alpha    93.091
_cell_angle_beta     92.3282
_cell_angle_gamma    97.5243

_space_group_name_H-M_alt    "P 1"
_space_group_IT_number       1

loop_
  _space_group_symop_operation_xyz
  'x, y, z'

loop_
  _atom_site_type_symbol
  _atom_site_label
  _atom_site_symmetry_multiplicity
  _atom_site_fract_x
  _atom_site_fract_y
  _atom_site_fract_z
  _atom_site_occupancy
  Rh  Rh1       1.0  0.90011  0.16749  0.43528  1.0000
  Rh  Rh2       1.0  0.40011  0.71749  0.38528  1.0000
  Rh  Rh3       1.0  0.09989  0.03251  0.36472  1.0000
  Rh  Rh4       1.0  0.59989  0.48251  0.41472  1.0000
  Rh  Rh5       1.0  0.60277  0.98510  0.41501  1.0000
  Rh  Rh6       1.0  0.10277  0.53510  0.36501  1.0000
  Rh  Rh7       1.0  0.39723  0.21490  0.38499  1.0000
  Rh  Rh8       1.0  0.89723  0.66490  0.43499  1.0000
  Rh  Rh9       1.0  0.90011  0.06749  0.53528  1.0000
  Rh  Rh10      1.0  0.40011  0.61749  0.48528  1.0000
  Rh  Rh11      1.0  0.09989  0.93251  0.46472  1.0000
  Rh  Rh12      1.0  0.59989  0.38251  0.51472  1.0000
  Rh  Rh13      1.0  0.60277  0.88510  0.51501  1.0000
  Rh  Rh14      1.0  0.10277  0.43510  0.46501  1.0000
  Rh  Rh15      1.0  0.39723  0.11490  0.48499  1.0000
  Rh  Rh16      1.0  0.89723  0.56490  0.53499  1.0000
  Rh  Rh17      1.0  0.90011  0.96749  0.63528  1.0000
  Rh  Rh18      1.0  0.40011  0.51749  0.58528  1.0000
  Rh  Rh19      1.0  0.09989  0.83251  0.56472  1.0000
  Rh  Rh20      1.0  0.59989  0.28251  0.61472  1.0000
  Rh  Rh21      1.0  0.60277  0.78510  0.61501  1.0000
  Rh  Rh22      1.0  0.10277  0.33510  0.56501  1.0000
  Rh  Rh23      1.0  0.39723  0.01490  0.58499  1.0000
  Rh  Rh24      1.0  0.89723  0.46490  0.63499  1.0000
  Si  Si1       1.0  0.31428  0.95845  0.41205  1.0000
  Si  Si2       1.0  0.81428  0.50845  0.36205  1.0000
  Si  Si3       1.0  0.68572  0.24155  0.38795  1.0000
  Si  Si4       1.0  0.18572  0.69155  0.43795  1.0000
  Si  Si5       1.0  0.87050  0.90785  0.40643  1.0000
  Si  Si6       1.0  0.37050  0.45785  0.35643  1.0000
  Si  Si7       1.0  0.12950  0.29215  0.39357  1.0000
  Si  Si8       1.0  0.62950  0.74215  0.44357  1.0000
  Si  Si9       1.0  0.31428  0.85845  0.51205  1.0000
  Si  Si10      1.0  0.81428  0.40845  0.46205  1.0000
  Si  Si11      1.0  0.68572  0.14155  0.48795  1.0000
  Si  Si12      1.0  0.18572  0.59155  0.53795  1.0000
  Si  Si13      1.0  0.87050  0.80785  0.50643  1.0000
  Si  Si14      1.0  0.37050  0.35785  0.45643  1.0000
  Si  Si15      1.0  0.12950  0.19215  0.49357  1.0000
  Si  Si16      1.0  0.62950  0.64215  0.54357  1.0000
  Si  Si17      1.0  0.31428  0.75845  0.61205  1.0000
  Si  Si18      1.0  0.81428  0.30845  0.56205  1.0000
  Si  Si19      1.0  0.68572  0.04155  0.58795  1.0000
  Si  Si20      1.0  0.18572  0.49155  0.63795  1.0000
  Si  Si21      1.0  0.87050  0.70785  0.60643  1.0000
  Si  Si22      1.0  0.37050  0.25785  0.55643  1.0000
  Si  Si23      1.0  0.12950  0.09215  0.59357  1.0000
  Si  Si24      1.0  0.62950  0.54215  0.64357  1.0000
