data_image0
_chemical_formula_structural       Ge8Os4Ge8Os4Ge8Os4
_chemical_formula_sum              "Ge24 Os12"
_cell_length_a       9.01307
_cell_length_b       7.69352
_cell_length_c       31.0164
_cell_angle_alpha    90
_cell_angle_beta     90
_cell_angle_gamma    119.245

_space_group_name_H-M_alt    "P 1"
_space_group_IT_number       1

loop_
  _space_group_symop_operation_xyz
  'x, y, z'

loop_
  _atom_site_type_symbol
  _atom_site_label
  _atom_site_symmetry_multiplicity
  _atom_site_fract_x
  _atom_site_fract_y
  _atom_site_fract_z
  _atom_site_occupancy
  Ge  Ge1       1.0  0.35615  0.46784  0.37500  1.0000
  Ge  Ge2       1.0  0.64385  0.53216  0.37500  1.0000
  Ge  Ge3       1.0  0.60076  0.88853  0.42500  1.0000
  Ge  Ge4       1.0  0.39924  0.11147  0.42500  1.0000
  Ge  Ge5       1.0  0.85615  0.46784  0.42500  1.0000
  Ge  Ge6       1.0  0.14385  0.53216  0.42500  1.0000
  Ge  Ge7       1.0  0.10076  0.88853  0.37500  1.0000
  Ge  Ge8       1.0  0.89924  0.11147  0.37500  1.0000
  Os  Os1       1.0  0.15419  0.20096  0.42500  1.0000
  Os  Os2       1.0  0.84581  0.79904  0.42500  1.0000
  Os  Os3       1.0  0.65419  0.20096  0.37500  1.0000
  Os  Os4       1.0  0.34581  0.79904  0.37500  1.0000
  Ge  Ge9       1.0  0.35615  0.46784  0.47500  1.0000
  Ge  Ge10      1.0  0.64385  0.53216  0.47500  1.0000
  Ge  Ge11      1.0  0.60076  0.88853  0.52500  1.0000
  Ge  Ge12      1.0  0.39924  0.11147  0.52500  1.0000
  Ge  Ge13      1.0  0.85615  0.46784  0.52500  1.0000
  Ge  Ge14      1.0  0.14385  0.53216  0.52500  1.0000
  Ge  Ge15      1.0  0.10076  0.88853  0.47500  1.0000
  Ge  Ge16      1.0  0.89924  0.11147  0.47500  1.0000
  Os  Os5       1.0  0.15419  0.20096  0.52500  1.0000
  Os  Os6       1.0  0.84581  0.79904  0.52500  1.0000
  Os  Os7       1.0  0.65419  0.20096  0.47500  1.0000
  Os  Os8       1.0  0.34581  0.79904  0.47500  1.0000
  Ge  Ge17      1.0  0.35615  0.46784  0.57500  1.0000
  Ge  Ge18      1.0  0.64385  0.53216  0.57500  1.0000
  Ge  Ge19      1.0  0.60076  0.88853  0.62500  1.0000
  Ge  Ge20      1.0  0.39924  0.11147  0.62500  1.0000
  Ge  Ge21      1.0  0.85615  0.46784  0.62500  1.0000
  Ge  Ge22      1.0  0.14385  0.53216  0.62500  1.0000
  Ge  Ge23      1.0  0.10076  0.88853  0.57500  1.0000
  Ge  Ge24      1.0  0.89924  0.11147  0.57500  1.0000
  Os  Os9       1.0  0.15419  0.20096  0.62500  1.0000
  Os  Os10      1.0  0.84581  0.79904  0.62500  1.0000
  Os  Os11      1.0  0.65419  0.20096  0.57500  1.0000
  Os  Os12      1.0  0.34581  0.79904  0.57500  1.0000
