data_image0
_chemical_formula_structural       Ca2Cu4Sn4
_chemical_formula_sum              "Ca2 Cu4 Sn4"
_cell_length_a       4.18468
_cell_length_b       5.80435
_cell_length_c       32.0065
_cell_angle_alpha    90.926
_cell_angle_beta     90
_cell_angle_gamma    111.13

_space_group_name_H-M_alt    "P 1"
_space_group_IT_number       1

loop_
  _space_group_symop_operation_xyz
  'x, y, z'

loop_
  _atom_site_type_symbol
  _atom_site_label
  _atom_site_symmetry_multiplicity
  _atom_site_fract_x
  _atom_site_fract_y
  _atom_site_fract_z
  _atom_site_occupancy
  Ca  Ca1       1.0  0.51429  0.02857  0.51429  1.0000
  Ca  Ca2       1.0  0.37143  0.74286  0.37143  1.0000
  Cu  Cu1       1.0  0.37485  0.74970  0.63810  1.0000
  Cu  Cu2       1.0  0.79658  0.59316  0.53332  1.0000
  Cu  Cu3       1.0  0.23199  0.46398  0.49525  1.0000
  Cu  Cu4       1.0  0.65372  0.30744  0.39047  1.0000
  Sn  Sn1       1.0  0.95244  0.90488  0.59545  1.0000
  Sn  Sn2       1.0  0.21899  0.43798  0.57597  1.0000
  Sn  Sn3       1.0  0.80958  0.61916  0.45260  1.0000
  Sn  Sn4       1.0  0.07613  0.15226  0.43312  1.0000
