data_image0
_chemical_formula_structural       Al8Ru4Al8Ru4
_chemical_formula_sum              "Al16 Ru8"
_cell_length_a       4.4236
_cell_length_b       8.95211
_cell_length_c       30.9652
_cell_angle_alpha    104.304
_cell_angle_beta     90
_cell_angle_gamma    75.6958

_space_group_name_H-M_alt    "P 1"
_space_group_IT_number       1

loop_
  _space_group_symop_operation_xyz
  'x, y, z'

loop_
  _atom_site_type_symbol
  _atom_site_label
  _atom_site_symmetry_multiplicity
  _atom_site_fract_x
  _atom_site_fract_y
  _atom_site_fract_z
  _atom_site_occupancy
  Al  Al1       1.0  0.92009  0.15982  0.42213  1.0000
  Al  Al2       1.0  0.42009  0.15982  0.49356  1.0000
  Al  Al3       1.0  0.82991  0.34018  0.36358  1.0000
  Al  Al4       1.0  0.32991  0.34018  0.43501  1.0000
  Al  Al5       1.0  0.67009  0.65982  0.38642  1.0000
  Al  Al6       1.0  0.17009  0.65982  0.45784  1.0000
  Al  Al7       1.0  0.57991  0.84018  0.47073  1.0000
  Al  Al8       1.0  0.07991  0.84018  0.39930  1.0000
  Ru  Ru1       1.0  0.00000  0.00000  0.48214  1.0000
  Ru  Ru2       1.0  0.50000  0.00000  0.41071  1.0000
  Ru  Ru3       1.0  0.75000  0.50000  0.44643  1.0000
  Ru  Ru4       1.0  0.25000  0.50000  0.37500  1.0000
  Al  Al9       1.0  0.92009  0.15982  0.56499  1.0000
  Al  Al10      1.0  0.42009  0.15982  0.63642  1.0000
  Al  Al11      1.0  0.82991  0.34018  0.50644  1.0000
  Al  Al12      1.0  0.32991  0.34018  0.57787  1.0000
  Al  Al13      1.0  0.67009  0.65982  0.52927  1.0000
  Al  Al14      1.0  0.17009  0.65982  0.60070  1.0000
  Al  Al15      1.0  0.57991  0.84018  0.61358  1.0000
  Al  Al16      1.0  0.07991  0.84018  0.54216  1.0000
  Ru  Ru5       1.0  0.00000  0.00000  0.62500  1.0000
  Ru  Ru6       1.0  0.50000  0.00000  0.55357  1.0000
  Ru  Ru7       1.0  0.75000  0.50000  0.58929  1.0000
  Ru  Ru8       1.0  0.25000  0.50000  0.51786  1.0000
