data_image0
_chemical_formula_structural       Al6Ni4Al6Ni4Al6Ni4
_chemical_formula_sum              "Al18 Ni12"
_cell_length_a       3.99744
_cell_length_b       10.537
_cell_length_c       39.9744
_cell_angle_alpha    112.295
_cell_angle_beta     120
_cell_angle_gamma    79.0655

_space_group_name_H-M_alt    "P 1"
_space_group_IT_number       1

loop_
  _space_group_symop_operation_xyz
  'x, y, z'

loop_
  _atom_site_type_symbol
  _atom_site_label
  _atom_site_symmetry_multiplicity
  _atom_site_fract_x
  _atom_site_fract_y
  _atom_site_fract_z
  _atom_site_occupancy
  Al  Al1       1.0  0.00000  0.00000  0.44500  1.0000
  Al  Al2       1.0  0.00000  0.50000  0.39500  1.0000
  Al  Al3       1.0  0.66667  0.32366  0.41070  1.0000
  Al  Al4       1.0  0.66667  0.82366  0.36070  1.0000
  Al  Al5       1.0  0.33333  0.17634  0.42930  1.0000
  Al  Al6       1.0  0.33333  0.67634  0.37930  1.0000
  Ni  Ni1       1.0  0.66667  0.07341  0.38567  1.0000
  Ni  Ni2       1.0  0.66667  0.57341  0.43567  1.0000
  Ni  Ni3       1.0  0.33333  0.42659  0.35433  1.0000
  Ni  Ni4       1.0  0.33333  0.92659  0.40433  1.0000
  Al  Al7       1.0  0.00000  0.00000  0.54500  1.0000
  Al  Al8       1.0  0.00000  0.50000  0.49500  1.0000
  Al  Al9       1.0  0.66667  0.32366  0.51070  1.0000
  Al  Al10      1.0  0.66667  0.82366  0.46070  1.0000
  Al  Al11      1.0  0.33333  0.17634  0.52930  1.0000
  Al  Al12      1.0  0.33333  0.67634  0.47930  1.0000
  Ni  Ni5       1.0  0.66667  0.07341  0.48567  1.0000
  Ni  Ni6       1.0  0.66667  0.57341  0.53567  1.0000
  Ni  Ni7       1.0  0.33333  0.42659  0.45433  1.0000
  Ni  Ni8       1.0  0.33333  0.92659  0.50433  1.0000
  Al  Al13      1.0  0.00000  0.00000  0.64500  1.0000
  Al  Al14      1.0  0.00000  0.50000  0.59500  1.0000
  Al  Al15      1.0  0.66667  0.32366  0.61070  1.0000
  Al  Al16      1.0  0.66667  0.82366  0.56070  1.0000
  Al  Al17      1.0  0.33333  0.17634  0.62930  1.0000
  Al  Al18      1.0  0.33333  0.67634  0.57930  1.0000
  Ni  Ni9       1.0  0.66667  0.07341  0.58567  1.0000
  Ni  Ni10      1.0  0.66667  0.57341  0.63567  1.0000
  Ni  Ni11      1.0  0.33333  0.42659  0.55433  1.0000
  Ni  Ni12      1.0  0.33333  0.92659  0.60433  1.0000
