data_image0
_chemical_formula_structural       Ga3Ni2Ga3Ni2
_chemical_formula_sum              "Ga6 Ni4"
_cell_length_a       4.03439
_cell_length_b       4.03439
_cell_length_c       33.6664
_cell_angle_alpha    90
_cell_angle_beta     90
_cell_angle_gamma    120

_space_group_name_H-M_alt    "P 1"
_space_group_IT_number       1

loop_
  _space_group_symop_operation_xyz
  'x, y, z'

loop_
  _atom_site_type_symbol
  _atom_site_label
  _atom_site_symmetry_multiplicity
  _atom_site_fract_x
  _atom_site_fract_y
  _atom_site_fract_z
  _atom_site_occupancy
  Ga  Ga1       1.0  0.00000  0.00000  0.45714  1.0000
  Ga  Ga2       1.0  0.33333  0.66667  0.40547  1.0000
  Ga  Ga3       1.0  0.66667  0.33333  0.36596  1.0000
  Ni  Ni1       1.0  0.33333  0.66667  0.47662  1.0000
  Ni  Ni2       1.0  0.66667  0.33333  0.43766  1.0000
  Ga  Ga4       1.0  0.00000  0.00000  0.60000  1.0000
  Ga  Ga5       1.0  0.33333  0.66667  0.54832  1.0000
  Ga  Ga6       1.0  0.66667  0.33333  0.50882  1.0000
  Ni  Ni3       1.0  0.33333  0.66667  0.61948  1.0000
  Ni  Ni4       1.0  0.66667  0.33333  0.58052  1.0000
