data_image0
_chemical_formula_structural       Au6Cu6
_chemical_formula_sum              "Au6 Cu6"
_cell_length_a       4.565
_cell_length_b       5.36181
_cell_length_c       28.6175
_cell_angle_alpha    84.8814
_cell_angle_beta     87.4642
_cell_angle_gamma    78.1657

_space_group_name_H-M_alt    "P 1"
_space_group_IT_number       1

loop_
  _space_group_symop_operation_xyz
  'x, y, z'

loop_
  _atom_site_type_symbol
  _atom_site_label
  _atom_site_symmetry_multiplicity
  _atom_site_fract_x
  _atom_site_fract_y
  _atom_site_fract_z
  _atom_site_occupancy
  Au  Au1       1.0  0.56250  0.47917  0.52083  1.0000
  Au  Au2       1.0  0.47917  0.72917  0.60417  1.0000
  Au  Au3       1.0  0.02083  0.10417  0.56250  1.0000
  Au  Au4       1.0  0.18750  0.60417  0.39583  1.0000
  Au  Au5       1.0  0.10417  0.85417  0.47917  1.0000
  Au  Au6       1.0  0.64583  0.22917  0.43750  1.0000
  Cu  Cu1       1.0  0.02083  0.60417  0.56250  1.0000
  Cu  Cu2       1.0  0.56250  0.97917  0.52083  1.0000
  Cu  Cu3       1.0  0.47917  0.22917  0.60417  1.0000
  Cu  Cu4       1.0  0.64583  0.72917  0.43750  1.0000
  Cu  Cu5       1.0  0.18750  0.10417  0.39583  1.0000
  Cu  Cu6       1.0  0.10417  0.35417  0.47917  1.0000
