data_image0
_chemical_formula_structural       Fe4Sb8Fe4Sb8
_chemical_formula_sum              "Fe8 Sb16"
_cell_length_a       3.21625
_cell_length_b       14.002
_cell_length_c       34.0419
_cell_angle_alpha    113.904
_cell_angle_beta     90
_cell_angle_gamma    90

_space_group_name_H-M_alt    "P 1"
_space_group_IT_number       1

loop_
  _space_group_symop_operation_xyz
  'x, y, z'

loop_
  _atom_site_type_symbol
  _atom_site_label
  _atom_site_symmetry_multiplicity
  _atom_site_fract_x
  _atom_site_fract_y
  _atom_site_fract_z
  _atom_site_occupancy
  Fe  Fe1       1.0  0.00000  0.50000  0.40972  1.0000
  Fe  Fe2       1.0  0.00000  0.00000  0.49306  1.0000
  Fe  Fe3       1.0  0.50000  0.25000  0.45139  1.0000
  Fe  Fe4       1.0  0.50000  0.75000  0.36806  1.0000
  Sb  Sb1       1.0  0.00000  0.32241  0.34738  1.0000
  Sb  Sb2       1.0  0.00000  0.82241  0.43071  1.0000
  Sb  Sb3       1.0  0.00000  0.17759  0.38873  1.0000
  Sb  Sb4       1.0  0.00000  0.67759  0.47207  1.0000
  Sb  Sb5       1.0  0.50000  0.07241  0.45454  1.0000
  Sb  Sb6       1.0  0.50000  0.57241  0.37120  1.0000
  Sb  Sb7       1.0  0.50000  0.42759  0.44824  1.0000
  Sb  Sb8       1.0  0.50000  0.92759  0.36491  1.0000
  Fe  Fe5       1.0  0.00000  0.50000  0.57639  1.0000
  Fe  Fe6       1.0  0.00000  0.00000  0.65972  1.0000
  Fe  Fe7       1.0  0.50000  0.25000  0.61806  1.0000
  Fe  Fe8       1.0  0.50000  0.75000  0.53472  1.0000
  Sb  Sb9       1.0  0.00000  0.32241  0.51404  1.0000
  Sb  Sb10      1.0  0.00000  0.82241  0.59738  1.0000
  Sb  Sb11      1.0  0.00000  0.17759  0.55540  1.0000
  Sb  Sb12      1.0  0.00000  0.67759  0.63873  1.0000
  Sb  Sb13      1.0  0.50000  0.07241  0.62120  1.0000
  Sb  Sb14      1.0  0.50000  0.57241  0.53787  1.0000
  Sb  Sb15      1.0  0.50000  0.42759  0.61491  1.0000
  Sb  Sb16      1.0  0.50000  0.92759  0.53157  1.0000
