data_image0
_chemical_formula_structural       Al6Sb6Al6Sb6
_chemical_formula_sum              "Al12 Sb12"
_cell_length_a       7.14507
_cell_length_b       11.5206
_cell_length_c       30.4806
_cell_angle_alpha    79.1066
_cell_angle_beta     90
_cell_angle_gamma    90

_space_group_name_H-M_alt    "P 1"
_space_group_IT_number       1

loop_
  _space_group_symop_operation_xyz
  'x, y, z'

loop_
  _atom_site_type_symbol
  _atom_site_label
  _atom_site_symmetry_multiplicity
  _atom_site_fract_x
  _atom_site_fract_y
  _atom_site_fract_z
  _atom_site_occupancy
  Al  Al1       1.0  0.50008  0.77778  0.37302  1.0000
  Al  Al2       1.0  0.50008  0.44444  0.46825  1.0000
  Al  Al3       1.0  0.50008  0.11111  0.42063  1.0000
  Al  Al4       1.0  0.00008  0.55556  0.38889  1.0000
  Al  Al5       1.0  0.00008  0.22222  0.48413  1.0000
  Al  Al6       1.0  0.00008  0.88889  0.43651  1.0000
  Sb  Sb1       1.0  0.12482  0.77778  0.37302  1.0000
  Sb  Sb2       1.0  0.12482  0.44444  0.46825  1.0000
  Sb  Sb3       1.0  0.12482  0.11111  0.42063  1.0000
  Sb  Sb4       1.0  0.62482  0.55556  0.38889  1.0000
  Sb  Sb5       1.0  0.62482  0.22222  0.48413  1.0000
  Sb  Sb6       1.0  0.62482  0.88889  0.43651  1.0000
  Al  Al7       1.0  0.50008  0.77778  0.51587  1.0000
  Al  Al8       1.0  0.50008  0.44444  0.61111  1.0000
  Al  Al9       1.0  0.50008  0.11111  0.56349  1.0000
  Al  Al10      1.0  0.00008  0.55556  0.53175  1.0000
  Al  Al11      1.0  0.00008  0.22222  0.62698  1.0000
  Al  Al12      1.0  0.00008  0.88889  0.57937  1.0000
  Sb  Sb7       1.0  0.12482  0.77778  0.51587  1.0000
  Sb  Sb8       1.0  0.12482  0.44444  0.61111  1.0000
  Sb  Sb9       1.0  0.12482  0.11111  0.56349  1.0000
  Sb  Sb10      1.0  0.62482  0.55556  0.53175  1.0000
  Sb  Sb11      1.0  0.62482  0.22222  0.62698  1.0000
  Sb  Sb12      1.0  0.62482  0.88889  0.57937  1.0000
