data_image0
_chemical_formula_structural       Ca8Ge8Pt8
_chemical_formula_sum              "Ca8 Ge8 Pt8"
_cell_length_a       4.38215
_cell_length_b       10.2776
_cell_length_c       30.8328
_cell_angle_alpha    87.8638
_cell_angle_beta     90
_cell_angle_gamma    90

_space_group_name_H-M_alt    "P 1"
_space_group_IT_number       1

loop_
  _space_group_symop_operation_xyz
  'x, y, z'

loop_
  _atom_site_type_symbol
  _atom_site_label
  _atom_site_symmetry_multiplicity
  _atom_site_fract_x
  _atom_site_fract_y
  _atom_site_fract_z
  _atom_site_occupancy
  Ca  Ca1       1.0  0.25000  0.40535  0.57726  1.0000
  Ca  Ca2       1.0  0.25000  0.90535  0.41060  1.0000
  Ca  Ca3       1.0  0.75000  0.59465  0.64496  1.0000
  Ca  Ca4       1.0  0.75000  0.09465  0.47829  1.0000
  Ca  Ca5       1.0  0.25000  0.10154  0.64266  1.0000
  Ca  Ca6       1.0  0.25000  0.60154  0.47599  1.0000
  Ca  Ca7       1.0  0.75000  0.89846  0.57956  1.0000
  Ca  Ca8       1.0  0.75000  0.39846  0.41289  1.0000
  Ge  Ge1       1.0  0.25000  0.38173  0.34496  1.0000
  Ge  Ge2       1.0  0.25000  0.88173  0.51162  1.0000
  Ge  Ge3       1.0  0.75000  0.61827  0.54393  1.0000
  Ge  Ge4       1.0  0.75000  0.11827  0.37727  1.0000
  Ge  Ge5       1.0  0.25000  0.79847  0.65054  1.0000
  Ge  Ge6       1.0  0.25000  0.29847  0.48387  1.0000
  Ge  Ge7       1.0  0.75000  0.20153  0.57169  1.0000
  Ge  Ge8       1.0  0.75000  0.70153  0.40502  1.0000
  Pt  Pt1       1.0  0.25000  0.60481  0.37870  1.0000
  Pt  Pt2       1.0  0.25000  0.10481  0.54537  1.0000
  Pt  Pt3       1.0  0.75000  0.39519  0.51019  1.0000
  Pt  Pt4       1.0  0.75000  0.89519  0.34352  1.0000
  Pt  Pt5       1.0  0.25000  0.69722  0.57617  1.0000
  Pt  Pt6       1.0  0.25000  0.19722  0.40951  1.0000
  Pt  Pt7       1.0  0.75000  0.30278  0.64605  1.0000
  Pt  Pt8       1.0  0.75000  0.80278  0.47938  1.0000
