data_image0
_chemical_formula_structural       Pd12V4
_chemical_formula_sum              "Pd12 V4"
_cell_length_a       4.69599
_cell_length_b       5.38392
_cell_length_c       35.3127
_cell_angle_alpha    90
_cell_angle_beta     91.9647
_cell_angle_gamma    90

_space_group_name_H-M_alt    "P 1"
_space_group_IT_number       1

loop_
  _space_group_symop_operation_xyz
  'x, y, z'

loop_
  _atom_site_type_symbol
  _atom_site_label
  _atom_site_symmetry_multiplicity
  _atom_site_fract_x
  _atom_site_fract_y
  _atom_site_fract_z
  _atom_site_occupancy
  Pd  Pd1       1.0  0.90625  0.25000  0.46875  1.0000
  Pd  Pd2       1.0  0.59375  0.75000  0.53125  1.0000
  Pd  Pd3       1.0  0.21875  0.75000  0.40625  1.0000
  Pd  Pd4       1.0  0.28125  0.25000  0.59375  1.0000
  Pd  Pd5       1.0  0.90625  0.75000  0.46875  1.0000
  Pd  Pd6       1.0  0.59375  0.25000  0.53125  1.0000
  Pd  Pd7       1.0  0.21875  0.25000  0.40625  1.0000
  Pd  Pd8       1.0  0.28125  0.75000  0.59375  1.0000
  Pd  Pd9       1.0  0.40625  0.50000  0.46875  1.0000
  Pd  Pd10      1.0  0.09375  0.00000  0.53125  1.0000
  Pd  Pd11      1.0  0.71875  0.00000  0.40625  1.0000
  Pd  Pd12      1.0  0.78125  0.50000  0.59375  1.0000
  V   V1        1.0  0.71875  0.50000  0.40625  1.0000
  V   V2        1.0  0.40625  0.00000  0.46875  1.0000
  V   V3        1.0  0.78125  0.00000  0.59375  1.0000
  V   V4        1.0  0.09375  0.50000  0.53125  1.0000
