data_image0
_chemical_formula_structural       Ir4Ru4Ir4Ru4Ir4Ru4
_chemical_formula_sum              "Ir12 Ru12"
_cell_length_a       4.68977
_cell_length_b       9.02443
_cell_length_c       29.7841
_cell_angle_alpha    98.6279
_cell_angle_beta     90
_cell_angle_gamma    74.9396

_space_group_name_H-M_alt    "P 1"
_space_group_IT_number       1

loop_
  _space_group_symop_operation_xyz
  'x, y, z'

loop_
  _atom_site_type_symbol
  _atom_site_label
  _atom_site_symmetry_multiplicity
  _atom_site_fract_x
  _atom_site_fract_y
  _atom_site_fract_z
  _atom_site_occupancy
  Ir  Ir1       1.0  0.62500  0.75000  0.39205  1.0000
  Ir  Ir2       1.0  0.87500  0.25000  0.36932  1.0000
  Ir  Ir3       1.0  0.37500  0.25000  0.41477  1.0000
  Ir  Ir4       1.0  0.12500  0.75000  0.43750  1.0000
  Ru  Ru1       1.0  0.58333  0.50000  0.42614  1.0000
  Ru  Ru2       1.0  0.83333  0.00000  0.40341  1.0000
  Ru  Ru3       1.0  0.33333  0.00000  0.44886  1.0000
  Ru  Ru4       1.0  0.08333  0.50000  0.38068  1.0000
  Ir  Ir5       1.0  0.62500  0.75000  0.48295  1.0000
  Ir  Ir6       1.0  0.87500  0.25000  0.46023  1.0000
  Ir  Ir7       1.0  0.37500  0.25000  0.50568  1.0000
  Ir  Ir8       1.0  0.12500  0.75000  0.52841  1.0000
  Ru  Ru5       1.0  0.58333  0.50000  0.51705  1.0000
  Ru  Ru6       1.0  0.83333  0.00000  0.49432  1.0000
  Ru  Ru7       1.0  0.33333  0.00000  0.53977  1.0000
  Ru  Ru8       1.0  0.08333  0.50000  0.47159  1.0000
  Ir  Ir9       1.0  0.62500  0.75000  0.57386  1.0000
  Ir  Ir10      1.0  0.87500  0.25000  0.55114  1.0000
  Ir  Ir11      1.0  0.37500  0.25000  0.59659  1.0000
  Ir  Ir12      1.0  0.12500  0.75000  0.61932  1.0000
  Ru  Ru9       1.0  0.58333  0.50000  0.60795  1.0000
  Ru  Ru10      1.0  0.83333  0.00000  0.58523  1.0000
  Ru  Ru11      1.0  0.33333  0.00000  0.63068  1.0000
  Ru  Ru12      1.0  0.08333  0.50000  0.56250  1.0000
