data_image0
_chemical_formula_structural       Ti8Pd4Ti8Pd4
_chemical_formula_sum              "Ti16 Pd8"
_cell_length_a       4.34336
_cell_length_b       10.2794
_cell_length_c       30.4035
_cell_angle_alpha    102.197
_cell_angle_beta     90
_cell_angle_gamma    77.8035

_space_group_name_H-M_alt    "P 1"
_space_group_IT_number       1

loop_
  _space_group_symop_operation_xyz
  'x, y, z'

loop_
  _atom_site_type_symbol
  _atom_site_label
  _atom_site_symmetry_multiplicity
  _atom_site_fract_x
  _atom_site_fract_y
  _atom_site_fract_z
  _atom_site_occupancy
  Ti  Ti1       1.0  0.91770  0.16460  0.43438  1.0000
  Ti  Ti2       1.0  0.41770  0.16460  0.36295  1.0000
  Ti  Ti3       1.0  0.83230  0.33540  0.37515  1.0000
  Ti  Ti4       1.0  0.33230  0.33540  0.44658  1.0000
  Ti  Ti5       1.0  0.66770  0.66460  0.39866  1.0000
  Ti  Ti6       1.0  0.16770  0.66460  0.47009  1.0000
  Ti  Ti7       1.0  0.58230  0.83540  0.48229  1.0000
  Ti  Ti8       1.0  0.08230  0.83540  0.41086  1.0000
  Pd  Pd1       1.0  0.00000  0.00000  0.49405  1.0000
  Pd  Pd2       1.0  0.50000  0.00000  0.42262  1.0000
  Pd  Pd3       1.0  0.75000  0.50000  0.45833  1.0000
  Pd  Pd4       1.0  0.25000  0.50000  0.38690  1.0000
  Ti  Ti9       1.0  0.91770  0.16460  0.57723  1.0000
  Ti  Ti10      1.0  0.41770  0.16460  0.50580  1.0000
  Ti  Ti11      1.0  0.83230  0.33540  0.51800  1.0000
  Ti  Ti12      1.0  0.33230  0.33540  0.58943  1.0000
  Ti  Ti13      1.0  0.66770  0.66460  0.54152  1.0000
  Ti  Ti14      1.0  0.16770  0.66460  0.61295  1.0000
  Ti  Ti15      1.0  0.58230  0.83540  0.62515  1.0000
  Ti  Ti16      1.0  0.08230  0.83540  0.55372  1.0000
  Pd  Pd5       1.0  0.00000  0.00000  0.63690  1.0000
  Pd  Pd6       1.0  0.50000  0.00000  0.56548  1.0000
  Pd  Pd7       1.0  0.75000  0.50000  0.60119  1.0000
  Pd  Pd8       1.0  0.25000  0.50000  0.52976  1.0000
