data_image0
_chemical_formula_structural       Au8Ga16
_chemical_formula_sum              "Au8 Ga16"
_cell_length_a       4.29662
_cell_length_b       10.5245
_cell_length_c       39.8452
_cell_angle_alpha    95.0512
_cell_angle_beta     90
_cell_angle_gamma    90

_space_group_name_H-M_alt    "P 1"
_space_group_IT_number       1

loop_
  _space_group_symop_operation_xyz
  'x, y, z'

loop_
  _atom_site_type_symbol
  _atom_site_label
  _atom_site_symmetry_multiplicity
  _atom_site_fract_x
  _atom_site_fract_y
  _atom_site_fract_z
  _atom_site_occupancy
  Au  Au1       1.0  0.00000  0.39062  0.60938  1.0000
  Au  Au2       1.0  0.00000  0.32812  0.42187  1.0000
  Au  Au3       1.0  0.00000  0.01562  0.48437  1.0000
  Au  Au4       1.0  0.00000  0.70312  0.54688  1.0000
  Au  Au5       1.0  0.50000  0.67188  0.45313  1.0000
  Au  Au6       1.0  0.50000  0.35938  0.51562  1.0000
  Au  Au7       1.0  0.50000  0.04688  0.57812  1.0000
  Au  Au8       1.0  0.50000  0.98437  0.39062  1.0000
  Ga  Ga1       1.0  0.00000  0.57812  0.42187  1.0000
  Ga  Ga2       1.0  0.00000  0.26562  0.48437  1.0000
  Ga  Ga3       1.0  0.00000  0.95313  0.54688  1.0000
  Ga  Ga4       1.0  0.00000  0.64062  0.60938  1.0000
  Ga  Ga5       1.0  0.50000  0.42188  0.45313  1.0000
  Ga  Ga6       1.0  0.50000  0.10938  0.51562  1.0000
  Ga  Ga7       1.0  0.50000  0.79687  0.57812  1.0000
  Ga  Ga8       1.0  0.50000  0.73438  0.39062  1.0000
  Ga  Ga9       1.0  0.50000  0.60938  0.51562  1.0000
  Ga  Ga10      1.0  0.50000  0.29688  0.57812  1.0000
  Ga  Ga11      1.0  0.50000  0.23438  0.39062  1.0000
  Ga  Ga12      1.0  0.50000  0.92187  0.45313  1.0000
  Ga  Ga13      1.0  0.00000  0.76563  0.48437  1.0000
  Ga  Ga14      1.0  0.00000  0.45312  0.54688  1.0000
  Ga  Ga15      1.0  0.00000  0.14062  0.60938  1.0000
  Ga  Ga16      1.0  0.00000  0.07812  0.42187  1.0000
