data_image0
_chemical_formula_structural       Cr6As6Rh6Cr6As6Rh6
_chemical_formula_sum              "Cr12 As12 Rh12"
_cell_length_a       3.60216
_cell_length_b       10.8581
_cell_length_c       37.6137
_cell_angle_alpha    90
_cell_angle_beta     90
_cell_angle_gamma    90

_space_group_name_H-M_alt    "P 1"
_space_group_IT_number       1

loop_
  _space_group_symop_operation_xyz
  'x, y, z'

loop_
  _atom_site_type_symbol
  _atom_site_label
  _atom_site_symmetry_multiplicity
  _atom_site_fract_x
  _atom_site_fract_y
  _atom_site_fract_z
  _atom_site_occupancy
  Cr  Cr1       1.0  0.50000  0.50000  0.33486  1.0000
  Cr  Cr2       1.0  0.50000  0.00000  0.41819  1.0000
  Cr  Cr3       1.0  0.50000  0.79625  0.35340  1.0000
  Cr  Cr4       1.0  0.50000  0.29625  0.43674  1.0000
  Cr  Cr5       1.0  0.50000  0.20375  0.35340  1.0000
  Cr  Cr6       1.0  0.50000  0.70375  0.43674  1.0000
  As  As1       1.0  0.00000  0.33333  0.48611  1.0000
  As  As2       1.0  0.00000  0.83333  0.40278  1.0000
  As  As3       1.0  0.00000  0.66667  0.48611  1.0000
  As  As4       1.0  0.00000  0.16667  0.40278  1.0000
  As  As5       1.0  0.50000  0.50000  0.40278  1.0000
  As  As6       1.0  0.50000  0.00000  0.48611  1.0000
  Rh  Rh1       1.0  0.00000  0.37259  0.38154  1.0000
  Rh  Rh2       1.0  0.00000  0.87259  0.46488  1.0000
  Rh  Rh3       1.0  0.00000  0.50000  0.44525  1.0000
  Rh  Rh4       1.0  0.00000  0.00000  0.36191  1.0000
  Rh  Rh5       1.0  0.00000  0.62741  0.38154  1.0000
  Rh  Rh6       1.0  0.00000  0.12741  0.46488  1.0000
  Cr  Cr7       1.0  0.50000  0.50000  0.50153  1.0000
  Cr  Cr8       1.0  0.50000  0.00000  0.58486  1.0000
  Cr  Cr9       1.0  0.50000  0.79625  0.52007  1.0000
  Cr  Cr10      1.0  0.50000  0.29625  0.60340  1.0000
  Cr  Cr11      1.0  0.50000  0.20375  0.52007  1.0000
  Cr  Cr12      1.0  0.50000  0.70375  0.60340  1.0000
  As  As7       1.0  0.00000  0.33333  0.65278  1.0000
  As  As8       1.0  0.00000  0.83333  0.56944  1.0000
  As  As9       1.0  0.00000  0.66667  0.65278  1.0000
  As  As10      1.0  0.00000  0.16667  0.56944  1.0000
  As  As11      1.0  0.50000  0.50000  0.56944  1.0000
  As  As12      1.0  0.50000  0.00000  0.65278  1.0000
  Rh  Rh7       1.0  0.00000  0.37259  0.54821  1.0000
  Rh  Rh8       1.0  0.00000  0.87259  0.63154  1.0000
  Rh  Rh9       1.0  0.00000  0.50000  0.61191  1.0000
  Rh  Rh10      1.0  0.00000  0.00000  0.52858  1.0000
  Rh  Rh11      1.0  0.00000  0.62741  0.54821  1.0000
  Rh  Rh12      1.0  0.00000  0.12741  0.63154  1.0000
