data_image0
_chemical_formula_structural       Al8Ru4
_chemical_formula_sum              "Al8 Ru4"
_cell_length_a       4.4236
_cell_length_b       4.74142
_cell_length_c       30.9652
_cell_angle_alpha    90
_cell_angle_beta     90
_cell_angle_gamma    117.806

_space_group_name_H-M_alt    "P 1"
_space_group_IT_number       1

loop_
  _space_group_symop_operation_xyz
  'x, y, z'

loop_
  _atom_site_type_symbol
  _atom_site_label
  _atom_site_symmetry_multiplicity
  _atom_site_fract_x
  _atom_site_fract_y
  _atom_site_fract_z
  _atom_site_occupancy
  Al  Al1       1.0  0.65982  0.31964  0.53571  1.0000
  Al  Al2       1.0  0.15982  0.31964  0.60714  1.0000
  Al  Al3       1.0  0.84018  0.68036  0.60714  1.0000
  Al  Al4       1.0  0.34018  0.68036  0.53571  1.0000
  Al  Al5       1.0  0.65982  0.31964  0.39286  1.0000
  Al  Al6       1.0  0.15982  0.31964  0.46429  1.0000
  Al  Al7       1.0  0.84018  0.68036  0.46429  1.0000
  Al  Al8       1.0  0.34018  0.68036  0.39286  1.0000
  Ru  Ru1       1.0  0.50000  0.00000  0.60714  1.0000
  Ru  Ru2       1.0  0.00000  0.00000  0.53571  1.0000
  Ru  Ru3       1.0  0.50000  0.00000  0.46429  1.0000
  Ru  Ru4       1.0  0.00000  0.00000  0.39286  1.0000
