data_image0
_chemical_formula_structural       As12Nb6
_chemical_formula_sum              "As12 Nb6"
_cell_length_a       3.37862
_cell_length_b       11.0078
_cell_length_c       35.0049
_cell_angle_alpha    90.4537
_cell_angle_beta     90
_cell_angle_gamma    98.8277

_space_group_name_H-M_alt    "P 1"
_space_group_IT_number       1

loop_
  _space_group_symop_operation_xyz
  'x, y, z'

loop_
  _atom_site_type_symbol
  _atom_site_label
  _atom_site_symmetry_multiplicity
  _atom_site_fract_x
  _atom_site_fract_y
  _atom_site_fract_z
  _atom_site_occupancy
  As  As1       1.0  0.46237  0.92475  0.44262  1.0000
  As  As2       1.0  0.79571  0.59141  0.52596  1.0000
  As  As3       1.0  0.12904  0.25808  0.60929  1.0000
  As  As4       1.0  0.53763  0.07525  0.39071  1.0000
  As  As5       1.0  0.87096  0.74192  0.47404  1.0000
  As  As6       1.0  0.20429  0.40859  0.55738  1.0000
  As  As7       1.0  0.90057  0.80114  0.61807  1.0000
  As  As8       1.0  0.23391  0.46781  0.45141  1.0000
  As  As9       1.0  0.56724  0.13448  0.53474  1.0000
  As  As10      1.0  0.09943  0.19886  0.46526  1.0000
  As  As11      1.0  0.43276  0.86552  0.54859  1.0000
  As  As12      1.0  0.76609  0.53219  0.38193  1.0000
  Nb  Nb1       1.0  0.98696  0.97392  0.49917  1.0000
  Nb  Nb2       1.0  0.32029  0.64059  0.58251  1.0000
  Nb  Nb3       1.0  0.65363  0.30725  0.41584  1.0000
  Nb  Nb4       1.0  0.01304  0.02608  0.58416  1.0000
  Nb  Nb5       1.0  0.34637  0.69275  0.41749  1.0000
  Nb  Nb6       1.0  0.67971  0.35941  0.50083  1.0000
