data_image0
_chemical_formula_structural       Ni6Sb12
_chemical_formula_sum              "Ni6 Sb12"
_cell_length_a       3.75788
_cell_length_b       12.2759
_cell_length_c       32.7073
_cell_angle_alpha    99.7376
_cell_angle_beta     90
_cell_angle_gamma    90

_space_group_name_H-M_alt    "P 1"
_space_group_IT_number       1

loop_
  _space_group_symop_operation_xyz
  'x, y, z'

loop_
  _atom_site_type_symbol
  _atom_site_label
  _atom_site_symmetry_multiplicity
  _atom_site_fract_x
  _atom_site_fract_y
  _atom_site_fract_z
  _atom_site_occupancy
  Ni  Ni1       1.0  0.50000  0.33333  0.38194  1.0000
  Ni  Ni2       1.0  0.50000  0.00000  0.46528  1.0000
  Ni  Ni3       1.0  0.50000  0.66667  0.54861  1.0000
  Ni  Ni4       1.0  0.00000  0.33333  0.50694  1.0000
  Ni  Ni5       1.0  0.00000  0.00000  0.59028  1.0000
  Ni  Ni6       1.0  0.00000  0.66667  0.42361  1.0000
  Sb  Sb1       1.0  0.50000  0.52541  0.42403  1.0000
  Sb  Sb2       1.0  0.50000  0.19207  0.50736  1.0000
  Sb  Sb3       1.0  0.50000  0.85874  0.59070  1.0000
  Sb  Sb4       1.0  0.50000  0.14126  0.58986  1.0000
  Sb  Sb5       1.0  0.50000  0.80793  0.42319  1.0000
  Sb  Sb6       1.0  0.50000  0.47459  0.50653  1.0000
  Sb  Sb7       1.0  0.00000  0.38153  0.58500  1.0000
  Sb  Sb8       1.0  0.00000  0.04820  0.41833  1.0000
  Sb  Sb9       1.0  0.00000  0.71487  0.50166  1.0000
  Sb  Sb10      1.0  0.00000  0.28513  0.42889  1.0000
  Sb  Sb11      1.0  0.00000  0.95180  0.51223  1.0000
  Sb  Sb12      1.0  0.00000  0.61847  0.59556  1.0000
