data_image0
_chemical_formula_structural       Sb12Ru6
_chemical_formula_sum              "Sb12 Ru6"
_cell_length_a       6.7473
_cell_length_b       7.37842
_cell_length_c       37.9144
_cell_angle_alpha    60.7297
_cell_angle_beta     66.7174
_cell_angle_gamma    78.2674

_space_group_name_H-M_alt    "P 1"
_space_group_IT_number       1

loop_
  _space_group_symop_operation_xyz
  'x, y, z'

loop_
  _atom_site_type_symbol
  _atom_site_label
  _atom_site_symmetry_multiplicity
  _atom_site_fract_x
  _atom_site_fract_y
  _atom_site_fract_z
  _atom_site_occupancy
  Sb  Sb1       1.0  0.90766  0.36733  0.56180  1.0000
  Sb  Sb2       1.0  0.24099  0.70066  0.47847  1.0000
  Sb  Sb3       1.0  0.57433  0.03399  0.39514  1.0000
  Sb  Sb4       1.0  0.42567  0.96601  0.59098  1.0000
  Sb  Sb5       1.0  0.75901  0.29934  0.50764  1.0000
  Sb  Sb6       1.0  0.09234  0.63267  0.42431  1.0000
  Sb  Sb7       1.0  0.66920  0.84424  0.49642  1.0000
  Sb  Sb8       1.0  0.00254  0.17758  0.41308  1.0000
  Sb  Sb9       1.0  0.33587  0.51091  0.57975  1.0000
  Sb  Sb10      1.0  0.99746  0.82242  0.57303  1.0000
  Sb  Sb11      1.0  0.33080  0.15576  0.48969  1.0000
  Sb  Sb12      1.0  0.66413  0.48909  0.40636  1.0000
  Ru  Ru1       1.0  0.66667  0.66667  0.57639  1.0000
  Ru  Ru2       1.0  0.00000  0.00000  0.49306  1.0000
  Ru  Ru3       1.0  0.33333  0.33333  0.40972  1.0000
  Ru  Ru4       1.0  0.66667  0.66667  0.45139  1.0000
  Ru  Ru5       1.0  0.00000  0.00000  0.61806  1.0000
  Ru  Ru6       1.0  0.33333  0.33333  0.53472  1.0000
