data_image0
_chemical_formula_structural       Ca8As4
_chemical_formula_sum              "Ca8 As4"
_cell_length_a       4.50547
_cell_length_b       4.50547
_cell_length_c       46.9313
_cell_angle_alpha    90
_cell_angle_beta     90
_cell_angle_gamma    90

_space_group_name_H-M_alt    "P 1"
_space_group_IT_number       1

loop_
  _space_group_symop_operation_xyz
  'x, y, z'

loop_
  _atom_site_type_symbol
  _atom_site_label
  _atom_site_symmetry_multiplicity
  _atom_site_fract_x
  _atom_site_fract_y
  _atom_site_fract_z
  _atom_site_occupancy
  Ca  Ca1       1.0  0.50000  0.00000  0.58333  1.0000
  Ca  Ca2       1.0  0.50000  0.00000  0.41667  1.0000
  Ca  Ca3       1.0  0.50000  0.50000  0.52359  1.0000
  Ca  Ca4       1.0  0.00000  0.00000  0.47641  1.0000
  Ca  Ca5       1.0  0.00000  0.50000  0.41667  1.0000
  Ca  Ca6       1.0  0.00000  0.50000  0.58333  1.0000
  Ca  Ca7       1.0  0.00000  0.00000  0.35693  1.0000
  Ca  Ca8       1.0  0.50000  0.50000  0.64307  1.0000
  As  As1       1.0  0.50000  0.50000  0.46146  1.0000
  As  As2       1.0  0.00000  0.00000  0.53854  1.0000
  As  As3       1.0  0.00000  0.00000  0.62813  1.0000
  As  As4       1.0  0.50000  0.50000  0.37187  1.0000
