data_image0
_chemical_formula_structural       Al8Cu4
_chemical_formula_sum              "Al8 Cu4"
_cell_length_a       4.88725
_cell_length_b       4.88725
_cell_length_c       29.9676
_cell_angle_alpha    88.9987
_cell_angle_beta     88.9987
_cell_angle_gamma    76.1718

_space_group_name_H-M_alt    "P 1"
_space_group_IT_number       1

loop_
  _space_group_symop_operation_xyz
  'x, y, z'

loop_
  _atom_site_type_symbol
  _atom_site_label
  _atom_site_symmetry_multiplicity
  _atom_site_fract_x
  _atom_site_fract_y
  _atom_site_fract_z
  _atom_site_occupancy
  Al  Al1       1.0  0.24388  0.55910  0.51970  1.0000
  Al  Al2       1.0  0.86888  0.18410  0.39470  1.0000
  Al  Al3       1.0  0.25340  0.56862  0.41780  1.0000
  Al  Al4       1.0  0.62840  0.94362  0.54280  1.0000
  Al  Al5       1.0  0.37160  0.05638  0.45720  1.0000
  Al  Al6       1.0  0.74660  0.43138  0.58220  1.0000
  Al  Al7       1.0  0.75612  0.44090  0.48030  1.0000
  Al  Al8       1.0  0.13112  0.81590  0.60530  1.0000
  Cu  Cu1       1.0  0.09375  0.09375  0.53125  1.0000
  Cu  Cu2       1.0  0.71875  0.71875  0.40625  1.0000
  Cu  Cu3       1.0  0.90625  0.90625  0.46875  1.0000
  Cu  Cu4       1.0  0.28125  0.28125  0.59375  1.0000
