data_image0
_chemical_formula_structural       Ga2CuGa2Cu
_chemical_formula_sum              "Ga4 Cu2"
_cell_length_a       2.7941
_cell_length_b       2.7941
_cell_length_c       34.8157
_cell_angle_alpha    90
_cell_angle_beta     90
_cell_angle_gamma    90

_space_group_name_H-M_alt    "P 1"
_space_group_IT_number       1

loop_
  _space_group_symop_operation_xyz
  'x, y, z'

loop_
  _atom_site_type_symbol
  _atom_site_label
  _atom_site_symmetry_multiplicity
  _atom_site_fract_x
  _atom_site_fract_y
  _atom_site_fract_z
  _atom_site_occupancy
  Ga  Ga1       1.0  0.50000  0.50000  0.46407  1.0000
  Ga  Ga2       1.0  0.50000  0.50000  0.36926  1.0000
  Cu  Cu1       1.0  0.00000  0.00000  0.41667  1.0000
  Ga  Ga3       1.0  0.50000  0.50000  0.63074  1.0000
  Ga  Ga4       1.0  0.50000  0.50000  0.53593  1.0000
  Cu  Cu2       1.0  0.00000  0.00000  0.58333  1.0000
