data_image0
_chemical_formula_structural       Ni3Si6
_chemical_formula_sum              "Ni3 Si6"
_cell_length_a       3.81296
_cell_length_b       3.81296
_cell_length_c       37.3592
_cell_angle_alpha    90
_cell_angle_beta     90
_cell_angle_gamma    120

_space_group_name_H-M_alt    "P 1"
_space_group_IT_number       1

loop_
  _space_group_symop_operation_xyz
  'x, y, z'

loop_
  _atom_site_type_symbol
  _atom_site_label
  _atom_site_symmetry_multiplicity
  _atom_site_fract_x
  _atom_site_fract_y
  _atom_site_fract_z
  _atom_site_occupancy
  Ni  Ni1       1.0  0.33333  0.66667  0.44444  1.0000
  Ni  Ni2       1.0  0.00000  0.00000  0.61111  1.0000
  Ni  Ni3       1.0  0.66667  0.33333  0.52778  1.0000
  Si  Si1       1.0  0.33333  0.66667  0.50694  1.0000
  Si  Si2       1.0  0.00000  0.00000  0.42361  1.0000
  Si  Si3       1.0  0.66667  0.33333  0.59028  1.0000
  Si  Si4       1.0  0.00000  0.00000  0.54861  1.0000
  Si  Si5       1.0  0.66667  0.33333  0.46528  1.0000
  Si  Si6       1.0  0.33333  0.66667  0.38194  1.0000
