data_image0
_chemical_formula_structural       Si6W3Si6W3
_chemical_formula_sum              "Si12 W6"
_cell_length_a       4.57673
_cell_length_b       4.57673
_cell_length_c       39.5724
_cell_angle_alpha    90
_cell_angle_beta     90
_cell_angle_gamma    120

_space_group_name_H-M_alt    "P 1"
_space_group_IT_number       1

loop_
  _space_group_symop_operation_xyz
  'x, y, z'

loop_
  _atom_site_type_symbol
  _atom_site_label
  _atom_site_symmetry_multiplicity
  _atom_site_fract_x
  _atom_site_fract_y
  _atom_site_fract_z
  _atom_site_occupancy
  Si  Si1       1.0  0.16363  0.83637  0.41667  1.0000
  Si  Si2       1.0  0.32725  0.16363  0.47222  1.0000
  Si  Si3       1.0  0.83637  0.67275  0.36111  1.0000
  Si  Si4       1.0  0.83637  0.16363  0.41667  1.0000
  Si  Si5       1.0  0.67275  0.83637  0.47222  1.0000
  Si  Si6       1.0  0.16363  0.32725  0.36111  1.0000
  W   W1        1.0  0.50000  0.00000  0.36111  1.0000
  W   W2        1.0  0.00000  0.50000  0.47222  1.0000
  W   W3        1.0  0.50000  0.50000  0.41667  1.0000
  Si  Si7       1.0  0.16363  0.83637  0.58333  1.0000
  Si  Si8       1.0  0.32725  0.16363  0.63889  1.0000
  Si  Si9       1.0  0.83637  0.67275  0.52778  1.0000
  Si  Si10      1.0  0.83637  0.16363  0.58333  1.0000
  Si  Si11      1.0  0.67275  0.83637  0.63889  1.0000
  Si  Si12      1.0  0.16363  0.32725  0.52778  1.0000
  W   W4        1.0  0.50000  0.00000  0.52778  1.0000
  W   W5        1.0  0.00000  0.50000  0.63889  1.0000
  W   W6        1.0  0.50000  0.50000  0.58333  1.0000
