data_image0
_chemical_formula_structural       H8Ti4
_chemical_formula_sum              "H8 Ti4"
_cell_length_a       3.09867
_cell_length_b       3.09867
_cell_length_c       30.6752
_cell_angle_alpha    90
_cell_angle_beta     90
_cell_angle_gamma    90

_space_group_name_H-M_alt    "P 1"
_space_group_IT_number       1

loop_
  _space_group_symop_operation_xyz
  'x, y, z'

loop_
  _atom_site_type_symbol
  _atom_site_label
  _atom_site_symmetry_multiplicity
  _atom_site_fract_x
  _atom_site_fract_y
  _atom_site_fract_z
  _atom_site_occupancy
  H   H1        1.0  0.50000  0.00000  0.61905  1.0000
  H   H2        1.0  0.00000  0.50000  0.61905  1.0000
  H   H3        1.0  0.00000  0.50000  0.54762  1.0000
  H   H4        1.0  0.50000  0.00000  0.54762  1.0000
  H   H5        1.0  0.50000  0.00000  0.47619  1.0000
  H   H6        1.0  0.00000  0.50000  0.47619  1.0000
  H   H7        1.0  0.00000  0.50000  0.40476  1.0000
  H   H8        1.0  0.50000  0.00000  0.40476  1.0000
  Ti  Ti1       1.0  0.00000  0.00000  0.51190  1.0000
  Ti  Ti2       1.0  0.50000  0.50000  0.58333  1.0000
  Ti  Ti3       1.0  0.00000  0.00000  0.36905  1.0000
  Ti  Ti4       1.0  0.50000  0.50000  0.44048  1.0000
