data_image0
_chemical_formula_structural       Cu6Ge2Cu6Ge2
_chemical_formula_sum              "Cu12 Ge4"
_cell_length_a       4.49329
_cell_length_b       5.24415
_cell_length_c       29.212
_cell_angle_alpha    90
_cell_angle_beta     90
_cell_angle_gamma    90

_space_group_name_H-M_alt    "P 1"
_space_group_IT_number       1

loop_
  _space_group_symop_operation_xyz
  'x, y, z'

loop_
  _atom_site_type_symbol
  _atom_site_label
  _atom_site_symmetry_multiplicity
  _atom_site_fract_x
  _atom_site_fract_y
  _atom_site_fract_z
  _atom_site_occupancy
  Cu  Cu1       1.0  0.16834  0.50000  0.46429  1.0000
  Cu  Cu2       1.0  0.83166  0.00000  0.39286  1.0000
  Cu  Cu3       1.0  0.33496  0.24900  0.39286  1.0000
  Cu  Cu4       1.0  0.33496  0.75100  0.39286  1.0000
  Cu  Cu5       1.0  0.66504  0.25100  0.46429  1.0000
  Cu  Cu6       1.0  0.66504  0.74900  0.46429  1.0000
  Ge  Ge1       1.0  0.82650  0.50000  0.39286  1.0000
  Ge  Ge2       1.0  0.17350  0.00000  0.46429  1.0000
  Cu  Cu7       1.0  0.16834  0.50000  0.60714  1.0000
  Cu  Cu8       1.0  0.83166  0.00000  0.53571  1.0000
  Cu  Cu9       1.0  0.33496  0.24900  0.53571  1.0000
  Cu  Cu10      1.0  0.33496  0.75100  0.53571  1.0000
  Cu  Cu11      1.0  0.66504  0.25100  0.60714  1.0000
  Cu  Cu12      1.0  0.66504  0.74900  0.60714  1.0000
  Ge  Ge3       1.0  0.82650  0.50000  0.53571  1.0000
  Ge  Ge4       1.0  0.17350  0.00000  0.60714  1.0000
