data_image0
_chemical_formula_structural       Ga10Rh6Ga10Rh6
_chemical_formula_sum              "Ga20 Rh12"
_cell_length_a       6.62345
_cell_length_b       7.86101
_cell_length_c       34.6332
_cell_angle_alpha    104.734
_cell_angle_beta     101.401
_cell_angle_gamma    100.937

_space_group_name_H-M_alt    "P 1"
_space_group_IT_number       1

loop_
  _space_group_symop_operation_xyz
  'x, y, z'

loop_
  _atom_site_type_symbol
  _atom_site_label
  _atom_site_symmetry_multiplicity
  _atom_site_fract_x
  _atom_site_fract_y
  _atom_site_fract_z
  _atom_site_occupancy
  Ga  Ga1       1.0  0.54700  0.53960  0.41457  1.0000
  Ga  Ga2       1.0  0.45300  0.46040  0.47829  1.0000
  Ga  Ga3       1.0  0.17801  0.04557  0.43408  1.0000
  Ga  Ga4       1.0  0.82199  0.95443  0.45878  1.0000
  Ga  Ga5       1.0  0.14286  0.27414  0.38234  1.0000
  Ga  Ga6       1.0  0.85714  0.72586  0.36766  1.0000
  Ga  Ga7       1.0  0.47360  0.87212  0.40080  1.0000
  Ga  Ga8       1.0  0.52640  0.12788  0.49205  1.0000
  Ga  Ga9       1.0  0.90623  0.34645  0.45231  1.0000
  Ga  Ga10      1.0  0.09377  0.65355  0.44055  1.0000
  Rh  Rh1       1.0  0.51378  0.22438  0.42470  1.0000
  Rh  Rh2       1.0  0.48622  0.77562  0.46816  1.0000
  Rh  Rh3       1.0  0.82698  0.04978  0.39431  1.0000
  Rh  Rh4       1.0  0.17302  0.95022  0.49854  1.0000
  Rh  Rh5       1.0  0.80481  0.42179  0.38134  1.0000
  Rh  Rh6       1.0  0.19519  0.57821  0.36866  1.0000
  Ga  Ga11      1.0  0.54700  0.53960  0.55742  1.0000
  Ga  Ga12      1.0  0.45300  0.46040  0.62115  1.0000
  Ga  Ga13      1.0  0.17801  0.04557  0.57694  1.0000
  Ga  Ga14      1.0  0.82199  0.95443  0.60163  1.0000
  Ga  Ga15      1.0  0.14286  0.27414  0.52519  1.0000
  Ga  Ga16      1.0  0.85714  0.72586  0.51052  1.0000
  Ga  Ga17      1.0  0.47360  0.87212  0.54366  1.0000
  Ga  Ga18      1.0  0.52640  0.12788  0.63491  1.0000
  Ga  Ga19      1.0  0.90623  0.34645  0.59516  1.0000
  Ga  Ga20      1.0  0.09377  0.65355  0.58341  1.0000
  Rh  Rh7       1.0  0.51378  0.22438  0.56755  1.0000
  Rh  Rh8       1.0  0.48622  0.77562  0.61102  1.0000
  Rh  Rh9       1.0  0.82698  0.04978  0.53717  1.0000
  Rh  Rh10      1.0  0.17302  0.95022  0.64140  1.0000
  Rh  Rh11      1.0  0.80481  0.42179  0.52419  1.0000
  Rh  Rh12      1.0  0.19519  0.57821  0.51152  1.0000
