data_image0
_chemical_formula_structural       Ni4Sb8
_chemical_formula_sum              "Ni4 Sb8"
_cell_length_a       3.75788
_cell_length_b       8.17684
_cell_length_c       32.7073
_cell_angle_alpha    80.558
_cell_angle_beta     90
_cell_angle_gamma    90

_space_group_name_H-M_alt    "P 1"
_space_group_IT_number       1

loop_
  _space_group_symop_operation_xyz
  'x, y, z'

loop_
  _atom_site_type_symbol
  _atom_site_label
  _atom_site_symmetry_multiplicity
  _atom_site_fract_x
  _atom_site_fract_y
  _atom_site_fract_z
  _atom_site_occupancy
  Ni  Ni1       1.0  0.50000  0.50000  0.58333  1.0000
  Ni  Ni2       1.0  0.50000  0.00000  0.45833  1.0000
  Ni  Ni3       1.0  0.00000  0.50000  0.45833  1.0000
  Ni  Ni4       1.0  0.00000  0.00000  0.58333  1.0000
  Sb  Sb1       1.0  0.50000  0.78811  0.60141  1.0000
  Sb  Sb2       1.0  0.50000  0.28811  0.47641  1.0000
  Sb  Sb3       1.0  0.50000  0.21189  0.56526  1.0000
  Sb  Sb4       1.0  0.50000  0.71189  0.44026  1.0000
  Sb  Sb5       1.0  0.00000  0.57230  0.53036  1.0000
  Sb  Sb6       1.0  0.00000  0.07230  0.40536  1.0000
  Sb  Sb7       1.0  0.00000  0.42770  0.38631  1.0000
  Sb  Sb8       1.0  0.00000  0.92770  0.51131  1.0000
