data_image0
_chemical_formula_structural       Ni8Sb8Ni8Sb8
_chemical_formula_sum              "Ni16 Sb16"
_cell_length_a       6.77783
_cell_length_b       10.885
_cell_length_c       31.3055
_cell_angle_alpha    100.355
_cell_angle_beta     90
_cell_angle_gamma    71.8601

_space_group_name_H-M_alt    "P 1"
_space_group_IT_number       1

loop_
  _space_group_symop_operation_xyz
  'x, y, z'

loop_
  _atom_site_type_symbol
  _atom_site_label
  _atom_site_symmetry_multiplicity
  _atom_site_fract_x
  _atom_site_fract_y
  _atom_site_fract_z
  _atom_site_occupancy
  Ni  Ni1       1.0  0.75000  0.50000  0.41797  1.0000
  Ni  Ni2       1.0  0.00000  0.00000  0.38672  1.0000
  Ni  Ni3       1.0  0.50000  0.00000  0.44922  1.0000
  Ni  Ni4       1.0  0.25000  0.50000  0.48047  1.0000
  Ni  Ni5       1.0  0.62500  0.75000  0.43359  1.0000
  Ni  Ni6       1.0  0.87500  0.25000  0.40234  1.0000
  Ni  Ni7       1.0  0.37500  0.25000  0.46484  1.0000
  Ni  Ni8       1.0  0.12500  0.75000  0.49609  1.0000
  Sb  Sb1       1.0  0.85417  0.62500  0.48828  1.0000
  Sb  Sb2       1.0  0.10417  0.12500  0.45703  1.0000
  Sb  Sb3       1.0  0.60417  0.12500  0.39453  1.0000
  Sb  Sb4       1.0  0.35417  0.62500  0.42578  1.0000
  Sb  Sb5       1.0  0.39583  0.87500  0.37891  1.0000
  Sb  Sb6       1.0  0.64583  0.37500  0.47266  1.0000
  Sb  Sb7       1.0  0.14583  0.37500  0.41016  1.0000
  Sb  Sb8       1.0  0.89583  0.87500  0.44141  1.0000
  Ni  Ni9       1.0  0.75000  0.50000  0.54297  1.0000
  Ni  Ni10      1.0  0.00000  0.00000  0.51172  1.0000
  Ni  Ni11      1.0  0.50000  0.00000  0.57422  1.0000
  Ni  Ni12      1.0  0.25000  0.50000  0.60547  1.0000
  Ni  Ni13      1.0  0.62500  0.75000  0.55859  1.0000
  Ni  Ni14      1.0  0.87500  0.25000  0.52734  1.0000
  Ni  Ni15      1.0  0.37500  0.25000  0.58984  1.0000
  Ni  Ni16      1.0  0.12500  0.75000  0.62109  1.0000
  Sb  Sb9       1.0  0.85417  0.62500  0.61328  1.0000
  Sb  Sb10      1.0  0.10417  0.12500  0.58203  1.0000
  Sb  Sb11      1.0  0.60417  0.12500  0.51953  1.0000
  Sb  Sb12      1.0  0.35417  0.62500  0.55078  1.0000
  Sb  Sb13      1.0  0.39583  0.87500  0.50391  1.0000
  Sb  Sb14      1.0  0.64583  0.37500  0.59766  1.0000
  Sb  Sb15      1.0  0.14583  0.37500  0.53516  1.0000
  Sb  Sb16      1.0  0.89583  0.87500  0.56641  1.0000
