data_image0
_chemical_formula_structural       Ca2Al4Ge4Ca2Al4Ge4
_chemical_formula_sum              "Ca4 Al8 Ge8"
_cell_length_a       7.21676
_cell_length_b       8.24188
_cell_length_c       33.3328
_cell_angle_alpha    104.641
_cell_angle_beta     90
_cell_angle_gamma    64.0357

_space_group_name_H-M_alt    "P 1"
_space_group_IT_number       1

loop_
  _space_group_symop_operation_xyz
  'x, y, z'

loop_
  _atom_site_type_symbol
  _atom_site_label
  _atom_site_symmetry_multiplicity
  _atom_site_fract_x
  _atom_site_fract_y
  _atom_site_fract_z
  _atom_site_occupancy
  Ca  Ca1       1.0  0.00000  0.00000  0.49375  1.0000
  Ca  Ca2       1.0  0.50000  0.00000  0.43125  1.0000
  Al  Al1       1.0  0.64758  0.37151  0.45447  1.0000
  Al  Al2       1.0  0.14758  0.37151  0.39197  1.0000
  Al  Al3       1.0  0.85242  0.62849  0.47053  1.0000
  Al  Al4       1.0  0.35242  0.62849  0.40803  1.0000
  Ge  Ge1       1.0  0.03698  0.25937  0.44746  1.0000
  Ge  Ge2       1.0  0.53698  0.25937  0.38496  1.0000
  Ge  Ge3       1.0  0.46302  0.74063  0.47754  1.0000
  Ge  Ge4       1.0  0.96302  0.74063  0.41504  1.0000
  Ca  Ca3       1.0  0.00000  0.00000  0.61875  1.0000
  Ca  Ca4       1.0  0.50000  0.00000  0.55625  1.0000
  Al  Al5       1.0  0.64758  0.37151  0.57947  1.0000
  Al  Al6       1.0  0.14758  0.37151  0.51697  1.0000
  Al  Al7       1.0  0.85242  0.62849  0.59553  1.0000
  Al  Al8       1.0  0.35242  0.62849  0.53303  1.0000
  Ge  Ge5       1.0  0.03698  0.25937  0.57246  1.0000
  Ge  Ge6       1.0  0.53698  0.25937  0.50996  1.0000
  Ge  Ge7       1.0  0.46302  0.74063  0.60254  1.0000
  Ge  Ge8       1.0  0.96302  0.74063  0.54004  1.0000
