data_image0
_chemical_formula_structural       Pt12W6
_chemical_formula_sum              "Pt12 W6"
_cell_length_a       4.77243
_cell_length_b       7.308
_cell_length_c       28.3571
_cell_angle_alpha    88.8905
_cell_angle_beta     89.9104
_cell_angle_gamma    84.0252

_space_group_name_H-M_alt    "P 1"
_space_group_IT_number       1

loop_
  _space_group_symop_operation_xyz
  'x, y, z'

loop_
  _atom_site_type_symbol
  _atom_site_label
  _atom_site_symmetry_multiplicity
  _atom_site_fract_x
  _atom_site_fract_y
  _atom_site_fract_z
  _atom_site_occupancy
  Pt  Pt1       1.0  0.36882  0.73685  0.43165  1.0000
  Pt  Pt2       1.0  0.77791  0.28231  0.38620  1.0000
  Pt  Pt3       1.0  0.23724  0.46012  0.37138  1.0000
  Pt  Pt4       1.0  0.82815  0.91466  0.41683  1.0000
  Pt  Pt5       1.0  0.55063  0.64594  0.52256  1.0000
  Pt  Pt6       1.0  0.95973  0.19140  0.47711  1.0000
  Pt  Pt7       1.0  0.41906  0.36921  0.46229  1.0000
  Pt  Pt8       1.0  0.00997  0.82375  0.50774  1.0000
  Pt  Pt9       1.0  0.73245  0.55504  0.61347  1.0000
  Pt  Pt10      1.0  0.14154  0.10049  0.56801  1.0000
  Pt  Pt11      1.0  0.60088  0.27830  0.55320  1.0000
  Pt  Pt12      1.0  0.19179  0.73284  0.59865  1.0000
  W   W1        1.0  0.89394  0.55303  0.44697  1.0000
  W   W2        1.0  0.30303  0.09848  0.40152  1.0000
  W   W3        1.0  0.07576  0.46212  0.53788  1.0000
  W   W4        1.0  0.48485  0.00758  0.49242  1.0000
  W   W5        1.0  0.25758  0.37121  0.62879  1.0000
  W   W6        1.0  0.66667  0.91667  0.58333  1.0000
