data_image0
_chemical_formula_structural       Mn6Ti3W3
_chemical_formula_sum              "Mn6 Ti3 W3"
_cell_length_a       4.15617
_cell_length_b       4.15617
_cell_length_c       30.5415
_cell_angle_alpha    90
_cell_angle_beta     90
_cell_angle_gamma    120

_space_group_name_H-M_alt    "P 1"
_space_group_IT_number       1

loop_
  _space_group_symop_operation_xyz
  'x, y, z'

loop_
  _atom_site_type_symbol
  _atom_site_label
  _atom_site_symmetry_multiplicity
  _atom_site_fract_x
  _atom_site_fract_y
  _atom_site_fract_z
  _atom_site_occupancy
  Mn  Mn1       1.0  0.33333  0.66667  0.65278  1.0000
  Mn  Mn2       1.0  0.00000  0.00000  0.54167  1.0000
  Mn  Mn3       1.0  0.66667  0.33333  0.43056  1.0000
  Mn  Mn4       1.0  0.66667  0.33333  0.59722  1.0000
  Mn  Mn5       1.0  0.33333  0.66667  0.48611  1.0000
  Mn  Mn6       1.0  0.00000  0.00000  0.37500  1.0000
  Ti  Ti1       1.0  0.00000  0.00000  0.45833  1.0000
  Ti  Ti2       1.0  0.66667  0.33333  0.34722  1.0000
  Ti  Ti3       1.0  0.33333  0.66667  0.56944  1.0000
  W   W1        1.0  0.33333  0.66667  0.40278  1.0000
  W   W2        1.0  0.00000  0.00000  0.62500  1.0000
  W   W3        1.0  0.66667  0.33333  0.51389  1.0000
