data_image0
_chemical_formula_structural       Pt20
_chemical_formula_sum              "Pt20"
_cell_length_a       2.7691
_cell_length_b       8.30731
_cell_length_c       39.2588
_cell_angle_alpha    94.0447
_cell_angle_beta     90
_cell_angle_gamma    90

_space_group_name_H-M_alt    "P 1"
_space_group_IT_number       1

loop_
  _space_group_symop_operation_xyz
  'x, y, z'

loop_
  _atom_site_type_symbol
  _atom_site_label
  _atom_site_symmetry_multiplicity
  _atom_site_fract_x
  _atom_site_fract_y
  _atom_site_fract_z
  _atom_site_occupancy
  Pt  Pt1       1.0  0.00000  0.75833  0.64167  1.0000
  Pt  Pt2       1.0  0.00000  0.19167  0.60833  1.0000
  Pt  Pt3       1.0  0.00000  0.49167  0.50833  1.0000
  Pt  Pt4       1.0  0.00000  0.62500  0.57500  1.0000
  Pt  Pt5       1.0  0.00000  0.05833  0.54167  1.0000
  Pt  Pt6       1.0  0.50000  0.90833  0.59167  1.0000
  Pt  Pt7       1.0  0.50000  0.34167  0.55833  1.0000
  Pt  Pt8       1.0  0.50000  0.47500  0.62500  1.0000
  Pt  Pt9       1.0  0.50000  0.77500  0.52500  1.0000
  Pt  Pt10      1.0  0.50000  0.04167  0.65833  1.0000
  Pt  Pt11      1.0  0.00000  0.92500  0.47500  1.0000
  Pt  Pt12      1.0  0.00000  0.35833  0.44167  1.0000
  Pt  Pt13      1.0  0.00000  0.65833  0.34167  1.0000
  Pt  Pt14      1.0  0.00000  0.79167  0.40833  1.0000
  Pt  Pt15      1.0  0.00000  0.22500  0.37500  1.0000
  Pt  Pt16      1.0  0.50000  0.07500  0.42500  1.0000
  Pt  Pt17      1.0  0.50000  0.50833  0.39167  1.0000
  Pt  Pt18      1.0  0.50000  0.64167  0.45833  1.0000
  Pt  Pt19      1.0  0.50000  0.94167  0.35833  1.0000
  Pt  Pt20      1.0  0.50000  0.20833  0.49167  1.0000
