data_image0
_chemical_formula_structural       Ge8Pt8Ge8Pt8
_chemical_formula_sum              "Ge16 Pt16"
_cell_length_a       5.79229
_cell_length_b       12.7456
_cell_length_c       29.4377
_cell_angle_alpha    106.78
_cell_angle_beta     90
_cell_angle_gamma    90

_space_group_name_H-M_alt    "P 1"
_space_group_IT_number       1

loop_
  _space_group_symop_operation_xyz
  'x, y, z'

loop_
  _atom_site_type_symbol
  _atom_site_label
  _atom_site_symmetry_multiplicity
  _atom_site_fract_x
  _atom_site_fract_y
  _atom_site_fract_z
  _atom_site_occupancy
  Ge  Ge1       1.0  0.81234  0.29345  0.38043  1.0000
  Ge  Ge2       1.0  0.81234  0.79345  0.44293  1.0000
  Ge  Ge3       1.0  0.18766  0.20655  0.43207  1.0000
  Ge  Ge4       1.0  0.18766  0.70655  0.49457  1.0000
  Ge  Ge5       1.0  0.31234  0.45655  0.40082  1.0000
  Ge  Ge6       1.0  0.31234  0.95655  0.46332  1.0000
  Ge  Ge7       1.0  0.68766  0.04345  0.41168  1.0000
  Ge  Ge8       1.0  0.68766  0.54345  0.47418  1.0000
  Pt  Pt1       1.0  0.00014  0.09672  0.48084  1.0000
  Pt  Pt2       1.0  0.00014  0.59672  0.41834  1.0000
  Pt  Pt3       1.0  0.99986  0.40328  0.45666  1.0000
  Pt  Pt4       1.0  0.99986  0.90328  0.39416  1.0000
  Pt  Pt5       1.0  0.50014  0.15328  0.48791  1.0000
  Pt  Pt6       1.0  0.50014  0.65328  0.42541  1.0000
  Pt  Pt7       1.0  0.49986  0.34672  0.44959  1.0000
  Pt  Pt8       1.0  0.49986  0.84672  0.38709  1.0000
  Ge  Ge9       1.0  0.81234  0.29345  0.50543  1.0000
  Ge  Ge10      1.0  0.81234  0.79345  0.56793  1.0000
  Ge  Ge11      1.0  0.18766  0.20655  0.55707  1.0000
  Ge  Ge12      1.0  0.18766  0.70655  0.61957  1.0000
  Ge  Ge13      1.0  0.31234  0.45655  0.52582  1.0000
  Ge  Ge14      1.0  0.31234  0.95655  0.58832  1.0000
  Ge  Ge15      1.0  0.68766  0.04345  0.53668  1.0000
  Ge  Ge16      1.0  0.68766  0.54345  0.59918  1.0000
  Pt  Pt9       1.0  0.00014  0.09672  0.60584  1.0000
  Pt  Pt10      1.0  0.00014  0.59672  0.54334  1.0000
  Pt  Pt11      1.0  0.99986  0.40328  0.58166  1.0000
  Pt  Pt12      1.0  0.99986  0.90328  0.51916  1.0000
  Pt  Pt13      1.0  0.50014  0.15328  0.61291  1.0000
  Pt  Pt14      1.0  0.50014  0.65328  0.55041  1.0000
  Pt  Pt15      1.0  0.49986  0.34672  0.57459  1.0000
  Pt  Pt16      1.0  0.49986  0.84672  0.51209  1.0000
