data_image0
_chemical_formula_structural       Al18Cu12
_chemical_formula_sum              "Al18 Cu12"
_cell_length_a       6.45663
_cell_length_b       8.67948
_cell_length_c       31.2128
_cell_angle_alpha    89.8441
_cell_angle_beta     85.4219
_cell_angle_gamma    89.6232

_space_group_name_H-M_alt    "P 1"
_space_group_IT_number       1

loop_
  _space_group_symop_operation_xyz
  'x, y, z'

loop_
  _atom_site_type_symbol
  _atom_site_label
  _atom_site_symmetry_multiplicity
  _atom_site_fract_x
  _atom_site_fract_y
  _atom_site_fract_z
  _atom_site_occupancy
  Al  Al1       1.0  0.04167  0.00000  0.47917  1.0000
  Al  Al2       1.0  0.87500  0.66667  0.39583  1.0000
  Al  Al3       1.0  0.45833  0.33333  0.43750  1.0000
  Al  Al4       1.0  0.27480  0.77154  0.42439  1.0000
  Al  Al5       1.0  0.85813  0.43821  0.46606  1.0000
  Al  Al6       1.0  0.69146  0.10488  0.38272  1.0000
  Al  Al7       1.0  0.64187  0.89512  0.45061  1.0000
  Al  Al8       1.0  0.22520  0.56179  0.49228  1.0000
  Al  Al9       1.0  0.05854  0.22846  0.40894  1.0000
  Al  Al10      1.0  0.79167  0.00000  0.60417  1.0000
  Al  Al11      1.0  0.62500  0.66667  0.52083  1.0000
  Al  Al12      1.0  0.20833  0.33333  0.56250  1.0000
  Al  Al13      1.0  0.02480  0.77154  0.54939  1.0000
  Al  Al14      1.0  0.60813  0.43821  0.59106  1.0000
  Al  Al15      1.0  0.44146  0.10488  0.50772  1.0000
  Al  Al16      1.0  0.39187  0.89512  0.57561  1.0000
  Al  Al17      1.0  0.97520  0.56179  0.61728  1.0000
  Al  Al18      1.0  0.80854  0.22846  0.53394  1.0000
  Cu  Cu1       1.0  0.55995  0.60860  0.44476  1.0000
  Cu  Cu2       1.0  0.14328  0.27527  0.48643  1.0000
  Cu  Cu3       1.0  0.97662  0.94193  0.40309  1.0000
  Cu  Cu4       1.0  0.35672  0.05807  0.43024  1.0000
  Cu  Cu5       1.0  0.94005  0.72473  0.47191  1.0000
  Cu  Cu6       1.0  0.77338  0.39140  0.38857  1.0000
  Cu  Cu7       1.0  0.30995  0.60860  0.56976  1.0000
  Cu  Cu8       1.0  0.89328  0.27527  0.61143  1.0000
  Cu  Cu9       1.0  0.72662  0.94193  0.52809  1.0000
  Cu  Cu10      1.0  0.10672  0.05807  0.55524  1.0000
  Cu  Cu11      1.0  0.69005  0.72473  0.59691  1.0000
  Cu  Cu12      1.0  0.52338  0.39140  0.51357  1.0000
