data_image0
_chemical_formula_structural       Si9As12
_chemical_formula_sum              "Si9 As12"
_cell_length_a       7.50453
_cell_length_b       7.50453
_cell_length_c       36.7645
_cell_angle_alpha    90
_cell_angle_beta     90
_cell_angle_gamma    60

_space_group_name_H-M_alt    "P 1"
_space_group_IT_number       1

loop_
  _space_group_symop_operation_xyz
  'x, y, z'

loop_
  _atom_site_type_symbol
  _atom_site_label
  _atom_site_symmetry_multiplicity
  _atom_site_fract_x
  _atom_site_fract_y
  _atom_site_fract_z
  _atom_site_occupancy
  Si  Si1       1.0  0.50000  0.00000  0.46429  1.0000
  Si  Si2       1.0  0.83333  0.33333  0.38095  1.0000
  Si  Si3       1.0  0.16667  0.66667  0.54762  1.0000
  Si  Si4       1.0  0.50000  0.50000  0.46429  1.0000
  Si  Si5       1.0  0.83333  0.83333  0.38095  1.0000
  Si  Si6       1.0  0.16667  0.16667  0.54762  1.0000
  Si  Si7       1.0  0.00000  0.50000  0.46429  1.0000
  Si  Si8       1.0  0.33333  0.83333  0.38095  1.0000
  Si  Si9       1.0  0.66667  0.16667  0.54762  1.0000
  As  As1       1.0  0.51913  0.51913  0.52918  1.0000
  As  As2       1.0  0.85247  0.85247  0.44584  1.0000
  As  As3       1.0  0.18580  0.18580  0.61251  1.0000
  As  As4       1.0  0.96173  0.51913  0.52918  1.0000
  As  As5       1.0  0.29507  0.85247  0.44584  1.0000
  As  As6       1.0  0.62840  0.18580  0.61251  1.0000
  As  As7       1.0  0.51913  0.96173  0.52918  1.0000
  As  As8       1.0  0.85247  0.29507  0.44584  1.0000
  As  As9       1.0  0.18580  0.62840  0.61251  1.0000
  As  As10      1.0  0.66667  0.66667  0.60294  1.0000
  As  As11      1.0  0.00000  0.00000  0.51961  1.0000
  As  As12      1.0  0.33333  0.33333  0.43628  1.0000
