data_image0
_chemical_formula_structural       Ir18Rh6
_chemical_formula_sum              "Ir18 Rh6"
_cell_length_a       4.67456
_cell_length_b       7.14161
_cell_length_c       34.99
_cell_angle_alpha    90.0055
_cell_angle_beta     89.9917
_cell_angle_gamma    89.9796

_space_group_name_H-M_alt    "P 1"
_space_group_IT_number       1

loop_
  _space_group_symop_operation_xyz
  'x, y, z'

loop_
  _atom_site_type_symbol
  _atom_site_label
  _atom_site_symmetry_multiplicity
  _atom_site_fract_x
  _atom_site_fract_y
  _atom_site_fract_z
  _atom_site_occupancy
  Ir  Ir1       1.0  0.16667  0.46429  0.60119  1.0000
  Ir  Ir2       1.0  0.50000  0.89286  0.55357  1.0000
  Ir  Ir3       1.0  0.83333  0.32143  0.50595  1.0000
  Ir  Ir4       1.0  0.50000  0.75000  0.62500  1.0000
  Ir  Ir5       1.0  0.83333  0.17857  0.57738  1.0000
  Ir  Ir6       1.0  0.16667  0.60714  0.52976  1.0000
  Ir  Ir7       1.0  0.66667  0.39286  0.63690  1.0000
  Ir  Ir8       1.0  0.00000  0.82143  0.58929  1.0000
  Ir  Ir9       1.0  0.33333  0.25000  0.54167  1.0000
  Ir  Ir10      1.0  0.16667  0.75000  0.45833  1.0000
  Ir  Ir11      1.0  0.50000  0.17857  0.41071  1.0000
  Ir  Ir12      1.0  0.83333  0.60714  0.36310  1.0000
  Ir  Ir13      1.0  0.50000  0.03571  0.48214  1.0000
  Ir  Ir14      1.0  0.83333  0.46429  0.43452  1.0000
  Ir  Ir15      1.0  0.16667  0.89286  0.38690  1.0000
  Ir  Ir16      1.0  0.66667  0.67857  0.49405  1.0000
  Ir  Ir17      1.0  0.00000  0.10714  0.44643  1.0000
  Ir  Ir18      1.0  0.33333  0.53571  0.39881  1.0000
  Rh  Rh1       1.0  0.00000  0.96429  0.51786  1.0000
  Rh  Rh2       1.0  0.33333  0.10714  0.61310  1.0000
  Rh  Rh3       1.0  0.66667  0.53571  0.56548  1.0000
  Rh  Rh4       1.0  0.00000  0.25000  0.37500  1.0000
  Rh  Rh5       1.0  0.33333  0.39286  0.47024  1.0000
  Rh  Rh6       1.0  0.66667  0.82143  0.42262  1.0000
