data_image0
_chemical_formula_structural       Ca6Zn2
_chemical_formula_sum              "Ca6 Zn2"
_cell_length_a       4.02261
_cell_length_b       6.81313
_cell_length_c       39.9351
_cell_angle_alpha    90
_cell_angle_beta     90
_cell_angle_gamma    107.17

_space_group_name_H-M_alt    "P 1"
_space_group_IT_number       1

loop_
  _space_group_symop_operation_xyz
  'x, y, z'

loop_
  _atom_site_type_symbol
  _atom_site_label
  _atom_site_symmetry_multiplicity
  _atom_site_fract_x
  _atom_site_fract_y
  _atom_site_fract_z
  _atom_site_occupancy
  Ca  Ca1       1.0  0.43155  0.86310  0.56250  1.0000
  Ca  Ca2       1.0  0.56845  0.13690  0.43750  1.0000
  Ca  Ca3       1.0  0.14215  0.28430  0.60986  1.0000
  Ca  Ca4       1.0  0.85785  0.71570  0.39014  1.0000
  Ca  Ca5       1.0  0.85785  0.71570  0.48486  1.0000
  Ca  Ca6       1.0  0.14215  0.28430  0.51514  1.0000
  Zn  Zn1       1.0  0.75285  0.50570  0.56250  1.0000
  Zn  Zn2       1.0  0.24715  0.49430  0.43750  1.0000
