data_image0
_chemical_formula_structural       Co8As8Co8As8Co8As8
_chemical_formula_sum              "Co24 As24"
_cell_length_a       5.24425
_cell_length_b       11.992
_cell_length_c       34.2232
_cell_angle_alpha    106.582
_cell_angle_beta     90
_cell_angle_gamma    90

_space_group_name_H-M_alt    "P 1"
_space_group_IT_number       1

loop_
  _space_group_symop_operation_xyz
  'x, y, z'

loop_
  _atom_site_type_symbol
  _atom_site_label
  _atom_site_symmetry_multiplicity
  _atom_site_fract_x
  _atom_site_fract_y
  _atom_site_fract_z
  _atom_site_occupancy
  Co  Co1       1.0  0.49906  0.15119  0.42137  1.0000
  Co  Co2       1.0  0.49906  0.65119  0.37137  1.0000
  Co  Co3       1.0  0.99906  0.09881  0.41613  1.0000
  Co  Co4       1.0  0.99906  0.59881  0.36613  1.0000
  Co  Co5       1.0  0.50094  0.34881  0.39113  1.0000
  Co  Co6       1.0  0.50094  0.84881  0.44113  1.0000
  Co  Co7       1.0  0.00094  0.40119  0.39637  1.0000
  Co  Co8       1.0  0.00094  0.90119  0.44637  1.0000
  As  As1       1.0  0.79982  0.29424  0.43567  1.0000
  As  As2       1.0  0.79982  0.79424  0.38567  1.0000
  As  As3       1.0  0.70018  0.04424  0.36067  1.0000
  As  As4       1.0  0.70018  0.54424  0.41067  1.0000
  As  As5       1.0  0.20018  0.20576  0.37683  1.0000
  As  As6       1.0  0.20018  0.70576  0.42683  1.0000
  As  As7       1.0  0.29982  0.45576  0.35183  1.0000
  As  As8       1.0  0.29982  0.95576  0.40183  1.0000
  Co  Co9       1.0  0.49906  0.15119  0.52137  1.0000
  Co  Co10      1.0  0.49906  0.65119  0.47137  1.0000
  Co  Co11      1.0  0.99906  0.09881  0.51613  1.0000
  Co  Co12      1.0  0.99906  0.59881  0.46613  1.0000
  Co  Co13      1.0  0.50094  0.34881  0.49113  1.0000
  Co  Co14      1.0  0.50094  0.84881  0.54113  1.0000
  Co  Co15      1.0  0.00094  0.40119  0.49637  1.0000
  Co  Co16      1.0  0.00094  0.90119  0.54637  1.0000
  As  As9       1.0  0.79982  0.29424  0.53567  1.0000
  As  As10      1.0  0.79982  0.79424  0.48567  1.0000
  As  As11      1.0  0.70018  0.04424  0.46067  1.0000
  As  As12      1.0  0.70018  0.54424  0.51067  1.0000
  As  As13      1.0  0.20018  0.20576  0.47683  1.0000
  As  As14      1.0  0.20018  0.70576  0.52683  1.0000
  As  As15      1.0  0.29982  0.45576  0.45183  1.0000
  As  As16      1.0  0.29982  0.95576  0.50183  1.0000
  Co  Co17      1.0  0.49906  0.15119  0.62137  1.0000
  Co  Co18      1.0  0.49906  0.65119  0.57137  1.0000
  Co  Co19      1.0  0.99906  0.09881  0.61613  1.0000
  Co  Co20      1.0  0.99906  0.59881  0.56613  1.0000
  Co  Co21      1.0  0.50094  0.34881  0.59113  1.0000
  Co  Co22      1.0  0.50094  0.84881  0.64113  1.0000
  Co  Co23      1.0  0.00094  0.40119  0.59637  1.0000
  Co  Co24      1.0  0.00094  0.90119  0.64637  1.0000
  As  As17      1.0  0.79982  0.29424  0.63567  1.0000
  As  As18      1.0  0.79982  0.79424  0.58567  1.0000
  As  As19      1.0  0.70018  0.04424  0.56067  1.0000
  As  As20      1.0  0.70018  0.54424  0.61067  1.0000
  As  As21      1.0  0.20018  0.20576  0.57683  1.0000
  As  As22      1.0  0.20018  0.70576  0.62683  1.0000
  As  As23      1.0  0.29982  0.45576  0.55183  1.0000
  As  As24      1.0  0.29982  0.95576  0.60183  1.0000
