data_image0
_chemical_formula_structural       Al6Cu3
_chemical_formula_sum              "Al6 Cu3"
_cell_length_a       4.05198
_cell_length_b       4.05198
_cell_length_c       39.7011
_cell_angle_alpha    90
_cell_angle_beta     90
_cell_angle_gamma    120

_space_group_name_H-M_alt    "P 1"
_space_group_IT_number       1

loop_
  _space_group_symop_operation_xyz
  'x, y, z'

loop_
  _atom_site_type_symbol
  _atom_site_label
  _atom_site_symmetry_multiplicity
  _atom_site_fract_x
  _atom_site_fract_y
  _atom_site_fract_z
  _atom_site_occupancy
  Al  Al1       1.0  0.33333  0.66667  0.60417  1.0000
  Al  Al2       1.0  0.00000  0.00000  0.52083  1.0000
  Al  Al3       1.0  0.66667  0.33333  0.43750  1.0000
  Al  Al4       1.0  0.66667  0.33333  0.56250  1.0000
  Al  Al5       1.0  0.33333  0.66667  0.47917  1.0000
  Al  Al6       1.0  0.00000  0.00000  0.39583  1.0000
  Cu  Cu1       1.0  0.33333  0.66667  0.41667  1.0000
  Cu  Cu2       1.0  0.00000  0.00000  0.58333  1.0000
  Cu  Cu3       1.0  0.66667  0.33333  0.50000  1.0000
