data_image0
_chemical_formula_structural       Si2Sn2Pt10Si2Sn2Pt10
_chemical_formula_sum              "Si4 Sn4 Pt20"
_cell_length_a       5.60135
_cell_length_b       8.05384
_cell_length_c       33.6081
_cell_angle_alpha    110.349
_cell_angle_beta     90
_cell_angle_gamma    69.6506

_space_group_name_H-M_alt    "P 1"
_space_group_IT_number       1

loop_
  _space_group_symop_operation_xyz
  'x, y, z'

loop_
  _atom_site_type_symbol
  _atom_site_label
  _atom_site_symmetry_multiplicity
  _atom_site_fract_x
  _atom_site_fract_y
  _atom_site_fract_z
  _atom_site_occupancy
  Si  Si1       1.0  0.75000  0.50000  0.36310  1.0000
  Si  Si2       1.0  0.25000  0.50000  0.44643  1.0000
  Sn  Sn1       1.0  0.00000  0.00000  0.40476  1.0000
  Sn  Sn2       1.0  0.50000  0.00000  0.48810  1.0000
  Pt  Pt1       1.0  0.10200  0.29601  0.38776  1.0000
  Pt  Pt2       1.0  0.60200  0.29601  0.47110  1.0000
  Pt  Pt3       1.0  0.89800  0.70399  0.42176  1.0000
  Pt  Pt4       1.0  0.39800  0.70399  0.33843  1.0000
  Pt  Pt5       1.0  0.60200  0.29601  0.38776  1.0000
  Pt  Pt6       1.0  0.10200  0.29601  0.47110  1.0000
  Pt  Pt7       1.0  0.39800  0.70399  0.42176  1.0000
  Pt  Pt8       1.0  0.89800  0.70399  0.33843  1.0000
  Pt  Pt9       1.0  0.00000  0.00000  0.48810  1.0000
  Pt  Pt10      1.0  0.50000  0.00000  0.40476  1.0000
  Si  Si3       1.0  0.75000  0.50000  0.52976  1.0000
  Si  Si4       1.0  0.25000  0.50000  0.61310  1.0000
  Sn  Sn3       1.0  0.00000  0.00000  0.57143  1.0000
  Sn  Sn4       1.0  0.50000  0.00000  0.65476  1.0000
  Pt  Pt11      1.0  0.10200  0.29601  0.55443  1.0000
  Pt  Pt12      1.0  0.60200  0.29601  0.63776  1.0000
  Pt  Pt13      1.0  0.89800  0.70399  0.58843  1.0000
  Pt  Pt14      1.0  0.39800  0.70399  0.50509  1.0000
  Pt  Pt15      1.0  0.60200  0.29601  0.55443  1.0000
  Pt  Pt16      1.0  0.10200  0.29601  0.63776  1.0000
  Pt  Pt17      1.0  0.39800  0.70399  0.58843  1.0000
  Pt  Pt18      1.0  0.89800  0.70399  0.50509  1.0000
  Pt  Pt19      1.0  0.00000  0.00000  0.65476  1.0000
  Pt  Pt20      1.0  0.50000  0.00000  0.57143  1.0000
