data_image0
_chemical_formula_structural       Ca3Al6Ge6Ca3Al6Ge6
_chemical_formula_sum              "Ca6 Al12 Ge12"
_cell_length_a       7.11112
_cell_length_b       11.0238
_cell_length_c       29.1662
_cell_angle_alpha    79.1066
_cell_angle_beta     90
_cell_angle_gamma    90

_space_group_name_H-M_alt    "P 1"
_space_group_IT_number       1

loop_
  _space_group_symop_operation_xyz
  'x, y, z'

loop_
  _atom_site_type_symbol
  _atom_site_label
  _atom_site_symmetry_multiplicity
  _atom_site_fract_x
  _atom_site_fract_y
  _atom_site_fract_z
  _atom_site_occupancy
  Ca  Ca1       1.0  0.00000  0.66667  0.44762  1.0000
  Ca  Ca2       1.0  0.00000  0.33333  0.40000  1.0000
  Ca  Ca3       1.0  0.00000  0.00000  0.49524  1.0000
  Al  Al1       1.0  0.62849  0.77778  0.36825  1.0000
  Al  Al2       1.0  0.62849  0.44444  0.46349  1.0000
  Al  Al3       1.0  0.62849  0.11111  0.41587  1.0000
  Al  Al4       1.0  0.37151  0.55556  0.38413  1.0000
  Al  Al5       1.0  0.37151  0.22222  0.47937  1.0000
  Al  Al6       1.0  0.37151  0.88889  0.43175  1.0000
  Ge  Ge1       1.0  0.74063  0.55556  0.38413  1.0000
  Ge  Ge2       1.0  0.74063  0.22222  0.47937  1.0000
  Ge  Ge3       1.0  0.74063  0.88889  0.43175  1.0000
  Ge  Ge4       1.0  0.25937  0.77778  0.36825  1.0000
  Ge  Ge5       1.0  0.25937  0.44444  0.46349  1.0000
  Ge  Ge6       1.0  0.25937  0.11111  0.41587  1.0000
  Ca  Ca4       1.0  0.00000  0.66667  0.59048  1.0000
  Ca  Ca5       1.0  0.00000  0.33333  0.54286  1.0000
  Ca  Ca6       1.0  0.00000  0.00000  0.63810  1.0000
  Al  Al7       1.0  0.62849  0.77778  0.51111  1.0000
  Al  Al8       1.0  0.62849  0.44444  0.60635  1.0000
  Al  Al9       1.0  0.62849  0.11111  0.55873  1.0000
  Al  Al10      1.0  0.37151  0.55556  0.52698  1.0000
  Al  Al11      1.0  0.37151  0.22222  0.62222  1.0000
  Al  Al12      1.0  0.37151  0.88889  0.57460  1.0000
  Ge  Ge7       1.0  0.74063  0.55556  0.52698  1.0000
  Ge  Ge8       1.0  0.74063  0.22222  0.62222  1.0000
  Ge  Ge9       1.0  0.74063  0.88889  0.57460  1.0000
  Ge  Ge10      1.0  0.25937  0.77778  0.51111  1.0000
  Ge  Ge11      1.0  0.25937  0.44444  0.60635  1.0000
  Ge  Ge12      1.0  0.25937  0.11111  0.55873  1.0000
