data_image0
_chemical_formula_structural       Ag4In8
_chemical_formula_sum              "Ag4 In8"
_cell_length_a       5.57023
_cell_length_b       5.57023
_cell_length_c       35.0291
_cell_angle_alpha    86.2073
_cell_angle_beta     86.2073
_cell_angle_gamma    74.7657

_space_group_name_H-M_alt    "P 1"
_space_group_IT_number       1

loop_
  _space_group_symop_operation_xyz
  'x, y, z'

loop_
  _atom_site_type_symbol
  _atom_site_label
  _atom_site_symmetry_multiplicity
  _atom_site_fract_x
  _atom_site_fract_y
  _atom_site_fract_z
  _atom_site_occupancy
  Ag  Ag1       1.0  0.90625  0.90625  0.46875  1.0000
  Ag  Ag2       1.0  0.28125  0.28125  0.59375  1.0000
  Ag  Ag3       1.0  0.71875  0.71875  0.40625  1.0000
  Ag  Ag4       1.0  0.09375  0.09375  0.53125  1.0000
  In  In1       1.0  0.44169  0.75268  0.48056  1.0000
  In  In2       1.0  0.81669  0.12768  0.60556  1.0000
  In  In3       1.0  0.05982  0.37081  0.45694  1.0000
  In  In4       1.0  0.43482  0.74581  0.58194  1.0000
  In  In5       1.0  0.56518  0.25419  0.41806  1.0000
  In  In6       1.0  0.94018  0.62919  0.54306  1.0000
  In  In7       1.0  0.18331  0.87232  0.39444  1.0000
  In  In8       1.0  0.55831  0.24732  0.51944  1.0000
