data_image0
_chemical_formula_structural       Ga8Os4
_chemical_formula_sum              "Ga8 Os4"
_cell_length_a       4.72709
_cell_length_b       4.75202
_cell_length_c       34.7473
_cell_angle_alpha    90
_cell_angle_beta     90
_cell_angle_gamma    119.827

_space_group_name_H-M_alt    "P 1"
_space_group_IT_number       1

loop_
  _space_group_symop_operation_xyz
  'x, y, z'

loop_
  _atom_site_type_symbol
  _atom_site_label
  _atom_site_symmetry_multiplicity
  _atom_site_fract_x
  _atom_site_fract_y
  _atom_site_fract_z
  _atom_site_occupancy
  Ga  Ga1       1.0  0.83176  0.16352  0.53125  1.0000
  Ga  Ga2       1.0  0.16824  0.83648  0.53125  1.0000
  Ga  Ga3       1.0  0.66824  0.33648  0.46875  1.0000
  Ga  Ga4       1.0  0.33176  0.66352  0.46875  1.0000
  Ga  Ga5       1.0  0.33176  0.16352  0.40625  1.0000
  Ga  Ga6       1.0  0.66824  0.83648  0.40625  1.0000
  Ga  Ga7       1.0  0.16824  0.33648  0.59375  1.0000
  Ga  Ga8       1.0  0.83176  0.66352  0.59375  1.0000
  Os  Os1       1.0  0.50000  0.50000  0.53125  1.0000
  Os  Os2       1.0  0.00000  0.00000  0.46875  1.0000
  Os  Os3       1.0  0.00000  0.50000  0.40625  1.0000
  Os  Os4       1.0  0.50000  0.00000  0.59375  1.0000
