data_image0
_chemical_formula_structural       Si8Ni8Si8Ni8
_chemical_formula_sum              "Si16 Ni16"
_cell_length_a       5.52328
_cell_length_b       6.10249
_cell_length_c       36.6149
_cell_angle_alpha    66.8391
_cell_angle_beta     90
_cell_angle_gamma    90

_space_group_name_H-M_alt    "P 1"
_space_group_IT_number       1

loop_
  _space_group_symop_operation_xyz
  'x, y, z'

loop_
  _atom_site_type_symbol
  _atom_site_label
  _atom_site_symmetry_multiplicity
  _atom_site_fract_x
  _atom_site_fract_y
  _atom_site_fract_z
  _atom_site_occupancy
  Si  Si1       1.0  0.91391  0.46418  0.45236  1.0000
  Si  Si2       1.0  0.91391  0.96418  0.36903  1.0000
  Si  Si3       1.0  0.08609  0.53582  0.38097  1.0000
  Si  Si4       1.0  0.08609  0.03582  0.46430  1.0000
  Si  Si5       1.0  0.58609  0.71418  0.49403  1.0000
  Si  Si6       1.0  0.58609  0.21418  0.41070  1.0000
  Si  Si7       1.0  0.41391  0.28582  0.33930  1.0000
  Si  Si8       1.0  0.41391  0.78582  0.42264  1.0000
  Ni  Ni1       1.0  0.81228  0.37042  0.35340  1.0000
  Ni  Ni2       1.0  0.81228  0.87042  0.43674  1.0000
  Ni  Ni3       1.0  0.18772  0.62958  0.47993  1.0000
  Ni  Ni4       1.0  0.18772  0.12958  0.39660  1.0000
  Ni  Ni5       1.0  0.68772  0.62042  0.39507  1.0000
  Ni  Ni6       1.0  0.68772  0.12042  0.47840  1.0000
  Ni  Ni7       1.0  0.31228  0.37958  0.43826  1.0000
  Ni  Ni8       1.0  0.31228  0.87958  0.35493  1.0000
  Si  Si9       1.0  0.91391  0.46418  0.61903  1.0000
  Si  Si10      1.0  0.91391  0.96418  0.53570  1.0000
  Si  Si11      1.0  0.08609  0.53582  0.54764  1.0000
  Si  Si12      1.0  0.08609  0.03582  0.63097  1.0000
  Si  Si13      1.0  0.58609  0.71418  0.66070  1.0000
  Si  Si14      1.0  0.58609  0.21418  0.57736  1.0000
  Si  Si15      1.0  0.41391  0.28582  0.50597  1.0000
  Si  Si16      1.0  0.41391  0.78582  0.58930  1.0000
  Ni  Ni9       1.0  0.81228  0.37042  0.52007  1.0000
  Ni  Ni10      1.0  0.81228  0.87042  0.60340  1.0000
  Ni  Ni11      1.0  0.18772  0.62958  0.64660  1.0000
  Ni  Ni12      1.0  0.18772  0.12958  0.56326  1.0000
  Ni  Ni13      1.0  0.68772  0.62042  0.56174  1.0000
  Ni  Ni14      1.0  0.68772  0.12042  0.64507  1.0000
  Ni  Ni15      1.0  0.31228  0.37958  0.60493  1.0000
  Ni  Ni16      1.0  0.31228  0.87958  0.52160  1.0000
