data_image0
_chemical_formula_structural       Al9Pd6Al9Pd6
_chemical_formula_sum              "Al18 Pd12"
_cell_length_a       5.16742
_cell_length_b       11.1064
_cell_length_c       29.3847
_cell_angle_alpha    79.1066
_cell_angle_beta     90
_cell_angle_gamma    90

_space_group_name_H-M_alt    "P 1"
_space_group_IT_number       1

loop_
  _space_group_symop_operation_xyz
  'x, y, z'

loop_
  _atom_site_type_symbol
  _atom_site_label
  _atom_site_symmetry_multiplicity
  _atom_site_fract_x
  _atom_site_fract_y
  _atom_site_fract_z
  _atom_site_occupancy
  Al  Al1       1.0  0.00000  0.66667  0.44762  1.0000
  Al  Al2       1.0  0.00000  0.33333  0.40000  1.0000
  Al  Al3       1.0  0.00000  0.00000  0.49524  1.0000
  Al  Al4       1.0  0.35497  0.55556  0.38413  1.0000
  Al  Al5       1.0  0.35497  0.22222  0.47937  1.0000
  Al  Al6       1.0  0.35497  0.88889  0.43175  1.0000
  Al  Al7       1.0  0.64503  0.77778  0.36825  1.0000
  Al  Al8       1.0  0.64503  0.44444  0.46349  1.0000
  Al  Al9       1.0  0.64503  0.11111  0.41587  1.0000
  Pd  Pd1       1.0  0.84199  0.55556  0.38413  1.0000
  Pd  Pd2       1.0  0.84199  0.22222  0.47937  1.0000
  Pd  Pd3       1.0  0.84199  0.88889  0.43175  1.0000
  Pd  Pd4       1.0  0.15801  0.77778  0.36825  1.0000
  Pd  Pd5       1.0  0.15801  0.44444  0.46349  1.0000
  Pd  Pd6       1.0  0.15801  0.11111  0.41587  1.0000
  Al  Al10      1.0  0.00000  0.66667  0.59048  1.0000
  Al  Al11      1.0  0.00000  0.33333  0.54286  1.0000
  Al  Al12      1.0  0.00000  0.00000  0.63810  1.0000
  Al  Al13      1.0  0.35497  0.55556  0.52698  1.0000
  Al  Al14      1.0  0.35497  0.22222  0.62222  1.0000
  Al  Al15      1.0  0.35497  0.88889  0.57460  1.0000
  Al  Al16      1.0  0.64503  0.77778  0.51111  1.0000
  Al  Al17      1.0  0.64503  0.44444  0.60635  1.0000
  Al  Al18      1.0  0.64503  0.11111  0.55873  1.0000
  Pd  Pd7       1.0  0.84199  0.55556  0.52698  1.0000
  Pd  Pd8       1.0  0.84199  0.22222  0.62222  1.0000
  Pd  Pd9       1.0  0.84199  0.88889  0.57460  1.0000
  Pd  Pd10      1.0  0.15801  0.77778  0.51111  1.0000
  Pd  Pd11      1.0  0.15801  0.44444  0.60635  1.0000
  Pd  Pd12      1.0  0.15801  0.11111  0.55873  1.0000
