data_image0
_chemical_formula_structural       Al2As2Pt10Al2As2Pt10
_chemical_formula_sum              "Al4 As4 Pt20"
_cell_length_a       6.95312
_cell_length_b       5.57265
_cell_length_c       33.4359
_cell_angle_alpha    90
_cell_angle_beta     90
_cell_angle_gamma    90

_space_group_name_H-M_alt    "P 1"
_space_group_IT_number       1

loop_
  _space_group_symop_operation_xyz
  'x, y, z'

loop_
  _atom_site_type_symbol
  _atom_site_label
  _atom_site_symmetry_multiplicity
  _atom_site_fract_x
  _atom_site_fract_y
  _atom_site_fract_z
  _atom_site_occupancy
  Al  Al1       1.0  0.00000  0.50000  0.48214  1.0000
  Al  Al2       1.0  0.00000  0.00000  0.39881  1.0000
  As  As1       1.0  0.50000  0.50000  0.39881  1.0000
  As  As2       1.0  0.50000  0.00000  0.48214  1.0000
  Pt  Pt1       1.0  0.72677  0.25000  0.35714  1.0000
  Pt  Pt2       1.0  0.72677  0.75000  0.44048  1.0000
  Pt  Pt3       1.0  0.27323  0.25000  0.35714  1.0000
  Pt  Pt4       1.0  0.27323  0.75000  0.44048  1.0000
  Pt  Pt5       1.0  0.72677  0.75000  0.35714  1.0000
  Pt  Pt6       1.0  0.72677  0.25000  0.44048  1.0000
  Pt  Pt7       1.0  0.27323  0.75000  0.35714  1.0000
  Pt  Pt8       1.0  0.27323  0.25000  0.44048  1.0000
  Pt  Pt9       1.0  0.00000  0.50000  0.39881  1.0000
  Pt  Pt10      1.0  0.00000  0.00000  0.48214  1.0000
  Al  Al3       1.0  0.00000  0.50000  0.64881  1.0000
  Al  Al4       1.0  0.00000  0.00000  0.56548  1.0000
  As  As3       1.0  0.50000  0.50000  0.56548  1.0000
  As  As4       1.0  0.50000  0.00000  0.64881  1.0000
  Pt  Pt11      1.0  0.72677  0.25000  0.52381  1.0000
  Pt  Pt12      1.0  0.72677  0.75000  0.60714  1.0000
  Pt  Pt13      1.0  0.27323  0.25000  0.52381  1.0000
  Pt  Pt14      1.0  0.27323  0.75000  0.60714  1.0000
  Pt  Pt15      1.0  0.72677  0.75000  0.52381  1.0000
  Pt  Pt16      1.0  0.72677  0.25000  0.60714  1.0000
  Pt  Pt17      1.0  0.27323  0.75000  0.52381  1.0000
  Pt  Pt18      1.0  0.27323  0.25000  0.60714  1.0000
  Pt  Pt19      1.0  0.00000  0.50000  0.56548  1.0000
  Pt  Pt20      1.0  0.00000  0.00000  0.64881  1.0000
