data_image0
_chemical_formula_structural       Ni12Sn16
_chemical_formula_sum              "Ni12 Sn16"
_cell_length_a       6.37717
_cell_length_b       6.57538
_cell_length_c       38.0671
_cell_angle_alpha    91.3578
_cell_angle_beta     92.0109
_cell_angle_gamma    112.975

_space_group_name_H-M_alt    "P 1"
_space_group_IT_number       1

loop_
  _space_group_symop_operation_xyz
  'x, y, z'

loop_
  _atom_site_type_symbol
  _atom_site_label
  _atom_site_symmetry_multiplicity
  _atom_site_fract_x
  _atom_site_fract_y
  _atom_site_fract_z
  _atom_site_occupancy
  Ni  Ni1       1.0  0.38690  0.27381  0.38690  1.0000
  Ni  Ni2       1.0  0.47024  0.94048  0.47024  1.0000
  Ni  Ni3       1.0  0.94512  0.97752  0.37685  1.0000
  Ni  Ni4       1.0  0.02846  0.64419  0.46019  1.0000
  Ni  Ni5       1.0  0.82869  0.57010  0.39696  1.0000
  Ni  Ni6       1.0  0.91202  0.23676  0.48029  1.0000
  Ni  Ni7       1.0  0.55357  0.60714  0.55357  1.0000
  Ni  Ni8       1.0  0.63690  0.27381  0.63690  1.0000
  Ni  Ni9       1.0  0.11179  0.31085  0.54352  1.0000
  Ni  Ni10      1.0  0.19512  0.97752  0.62685  1.0000
  Ni  Ni11      1.0  0.99535  0.90343  0.56362  1.0000
  Ni  Ni12      1.0  0.07869  0.57010  0.64696  1.0000
  Sn  Sn1       1.0  0.50876  0.67276  0.36531  1.0000
  Sn  Sn2       1.0  0.59210  0.33942  0.44864  1.0000
  Sn  Sn3       1.0  0.26504  0.87486  0.40850  1.0000
  Sn  Sn4       1.0  0.34838  0.54153  0.49184  1.0000
  Sn  Sn5       1.0  0.98988  0.67506  0.33354  1.0000
  Sn  Sn6       1.0  0.07322  0.34172  0.41687  1.0000
  Sn  Sn7       1.0  0.78393  0.87256  0.44027  1.0000
  Sn  Sn8       1.0  0.70059  0.20590  0.35694  1.0000
  Sn  Sn9       1.0  0.67543  0.00609  0.53197  1.0000
  Sn  Sn10      1.0  0.75876  0.67276  0.61531  1.0000
  Sn  Sn11      1.0  0.43171  0.20820  0.57517  1.0000
  Sn  Sn12      1.0  0.51504  0.87486  0.65850  1.0000
  Sn  Sn13      1.0  0.15655  0.00839  0.50021  1.0000
  Sn  Sn14      1.0  0.23988  0.67506  0.58354  1.0000
  Sn  Sn15      1.0  0.95059  0.20590  0.60694  1.0000
  Sn  Sn16      1.0  0.86726  0.53923  0.52360  1.0000
