data_image0
_chemical_formula_structural       Ti6Au6Ti6Au6
_chemical_formula_sum              "Ti12 Au12"
_cell_length_a       2.9535
_cell_length_b       10.6804
_cell_length_c       39.7586
_cell_angle_alpha    68.2276
_cell_angle_beta     90
_cell_angle_gamma    90

_space_group_name_H-M_alt    "P 1"
_space_group_IT_number       1

loop_
  _space_group_symop_operation_xyz
  'x, y, z'

loop_
  _atom_site_type_symbol
  _atom_site_label
  _atom_site_symmetry_multiplicity
  _atom_site_fract_x
  _atom_site_fract_y
  _atom_site_fract_z
  _atom_site_occupancy
  Ti  Ti1       1.0  0.00000  0.81278  0.48269  1.0000
  Ti  Ti2       1.0  0.00000  0.47945  0.42713  1.0000
  Ti  Ti3       1.0  0.00000  0.14612  0.37158  1.0000
  Ti  Ti4       1.0  0.00000  0.52055  0.35065  1.0000
  Ti  Ti5       1.0  0.00000  0.18722  0.46176  1.0000
  Ti  Ti6       1.0  0.00000  0.85388  0.40620  1.0000
  Au  Au1       1.0  0.50000  0.64412  0.45458  1.0000
  Au  Au2       1.0  0.50000  0.31079  0.39902  1.0000
  Au  Au3       1.0  0.50000  0.97745  0.34346  1.0000
  Au  Au4       1.0  0.50000  0.68921  0.37876  1.0000
  Au  Au5       1.0  0.50000  0.35588  0.48987  1.0000
  Au  Au6       1.0  0.50000  0.02255  0.43431  1.0000
  Ti  Ti7       1.0  0.00000  0.81278  0.64935  1.0000
  Ti  Ti8       1.0  0.00000  0.47945  0.59380  1.0000
  Ti  Ti9       1.0  0.00000  0.14612  0.53824  1.0000
  Ti  Ti10      1.0  0.00000  0.52055  0.51731  1.0000
  Ti  Ti11      1.0  0.00000  0.18722  0.62842  1.0000
  Ti  Ti12      1.0  0.00000  0.85388  0.57287  1.0000
  Au  Au7       1.0  0.50000  0.64412  0.62124  1.0000
  Au  Au8       1.0  0.50000  0.31079  0.56569  1.0000
  Au  Au9       1.0  0.50000  0.97745  0.51013  1.0000
  Au  Au10      1.0  0.50000  0.68921  0.54542  1.0000
  Au  Au11      1.0  0.50000  0.35588  0.65654  1.0000
  Au  Au12      1.0  0.50000  0.02255  0.60098  1.0000
