data_image0
_chemical_formula_structural       H8Ti4
_chemical_formula_sum              "H8 Ti4"
_cell_length_a       3.06788
_cell_length_b       3.06788
_cell_length_c       30.3647
_cell_angle_alpha    87.1588
_cell_angle_beta     87.1588
_cell_angle_gamma    62.0087

_space_group_name_H-M_alt    "P 1"
_space_group_IT_number       1

loop_
  _space_group_symop_operation_xyz
  'x, y, z'

loop_
  _atom_site_type_symbol
  _atom_site_label
  _atom_site_symmetry_multiplicity
  _atom_site_fract_x
  _atom_site_fract_y
  _atom_site_fract_z
  _atom_site_occupancy
  H   H1        1.0  0.41667  0.41667  0.47917  1.0000
  H   H2        1.0  0.08333  0.08333  0.39583  1.0000
  H   H3        1.0  0.41667  0.41667  0.35417  1.0000
  H   H4        1.0  0.75000  0.75000  0.43750  1.0000
  H   H5        1.0  0.08333  0.08333  0.64583  1.0000
  H   H6        1.0  0.75000  0.75000  0.56250  1.0000
  H   H7        1.0  0.08333  0.08333  0.52083  1.0000
  H   H8        1.0  0.41667  0.41667  0.60417  1.0000
  Ti  Ti1       1.0  0.08333  0.08333  0.45833  1.0000
  Ti  Ti2       1.0  0.75000  0.75000  0.37500  1.0000
  Ti  Ti3       1.0  0.75000  0.75000  0.62500  1.0000
  Ti  Ti4       1.0  0.41667  0.41667  0.54167  1.0000
