data_image0
_chemical_formula_structural       Al6Pd10
_chemical_formula_sum              "Al6 Pd10"
_cell_length_a       4.02492
_cell_length_b       5.3614
_cell_length_c       31.4043
_cell_angle_alpha    90
_cell_angle_beta     90
_cell_angle_gamma    90

_space_group_name_H-M_alt    "P 1"
_space_group_IT_number       1

loop_
  _space_group_symop_operation_xyz
  'x, y, z'

loop_
  _atom_site_type_symbol
  _atom_site_label
  _atom_site_symmetry_multiplicity
  _atom_site_fract_x
  _atom_site_fract_y
  _atom_site_fract_z
  _atom_site_occupancy
  Al  Al1       1.0  0.00000  0.00000  0.60417  1.0000
  Al  Al2       1.0  0.00000  0.50000  0.43750  1.0000
  Al  Al3       1.0  0.50000  0.16096  0.38986  1.0000
  Al  Al4       1.0  0.50000  0.83904  0.48514  1.0000
  Al  Al5       1.0  0.50000  0.66096  0.65181  1.0000
  Al  Al6       1.0  0.50000  0.33904  0.55652  1.0000
  Pd  Pd1       1.0  0.50000  0.18643  0.63934  1.0000
  Pd  Pd2       1.0  0.50000  0.81357  0.56900  1.0000
  Pd  Pd3       1.0  0.50000  0.68643  0.40233  1.0000
  Pd  Pd4       1.0  0.50000  0.31357  0.47267  1.0000
  Pd  Pd5       1.0  0.00000  0.00000  0.43750  1.0000
  Pd  Pd6       1.0  0.00000  0.50000  0.60417  1.0000
  Pd  Pd7       1.0  0.00000  0.90358  0.34837  1.0000
  Pd  Pd8       1.0  0.00000  0.09642  0.52663  1.0000
  Pd  Pd9       1.0  0.00000  0.40358  0.35997  1.0000
  Pd  Pd10      1.0  0.00000  0.59642  0.51503  1.0000
