data_image0
_chemical_formula_structural       Sn8Pt8Sn8Pt8
_chemical_formula_sum              "Sn16 Pt16"
_cell_length_a       7.13704
_cell_length_b       6.81895
_cell_length_c       40.9137
_cell_angle_alpha    74.3544
_cell_angle_beta     90
_cell_angle_gamma    90

_space_group_name_H-M_alt    "P 1"
_space_group_IT_number       1

loop_
  _space_group_symop_operation_xyz
  'x, y, z'

loop_
  _atom_site_type_symbol
  _atom_site_label
  _atom_site_symmetry_multiplicity
  _atom_site_fract_x
  _atom_site_fract_y
  _atom_site_fract_z
  _atom_site_occupancy
  Sn  Sn1       1.0  0.16667  0.37500  0.46875  1.0000
  Sn  Sn2       1.0  0.16667  0.87500  0.38542  1.0000
  Sn  Sn3       1.0  0.66667  0.12500  0.34375  1.0000
  Sn  Sn4       1.0  0.66667  0.62500  0.42708  1.0000
  Sn  Sn5       1.0  0.33333  0.37500  0.38542  1.0000
  Sn  Sn6       1.0  0.33333  0.87500  0.46875  1.0000
  Sn  Sn7       1.0  0.83333  0.12500  0.42708  1.0000
  Sn  Sn8       1.0  0.83333  0.62500  0.34375  1.0000
  Pt  Pt1       1.0  0.00000  0.25000  0.36458  1.0000
  Pt  Pt2       1.0  0.00000  0.75000  0.44792  1.0000
  Pt  Pt3       1.0  0.50000  0.00000  0.40625  1.0000
  Pt  Pt4       1.0  0.50000  0.50000  0.48958  1.0000
  Pt  Pt5       1.0  0.00000  0.50000  0.40625  1.0000
  Pt  Pt6       1.0  0.00000  0.00000  0.48958  1.0000
  Pt  Pt7       1.0  0.50000  0.25000  0.44792  1.0000
  Pt  Pt8       1.0  0.50000  0.75000  0.36458  1.0000
  Sn  Sn9       1.0  0.16667  0.37500  0.63542  1.0000
  Sn  Sn10      1.0  0.16667  0.87500  0.55208  1.0000
  Sn  Sn11      1.0  0.66667  0.12500  0.51042  1.0000
  Sn  Sn12      1.0  0.66667  0.62500  0.59375  1.0000
  Sn  Sn13      1.0  0.33333  0.37500  0.55208  1.0000
  Sn  Sn14      1.0  0.33333  0.87500  0.63542  1.0000
  Sn  Sn15      1.0  0.83333  0.12500  0.59375  1.0000
  Sn  Sn16      1.0  0.83333  0.62500  0.51042  1.0000
  Pt  Pt9       1.0  0.00000  0.25000  0.53125  1.0000
  Pt  Pt10      1.0  0.00000  0.75000  0.61458  1.0000
  Pt  Pt11      1.0  0.50000  0.00000  0.57292  1.0000
  Pt  Pt12      1.0  0.50000  0.50000  0.65625  1.0000
  Pt  Pt13      1.0  0.00000  0.50000  0.57292  1.0000
  Pt  Pt14      1.0  0.00000  0.00000  0.65625  1.0000
  Pt  Pt15      1.0  0.50000  0.25000  0.61458  1.0000
  Pt  Pt16      1.0  0.50000  0.75000  0.53125  1.0000
