data_image0
_chemical_formula_structural       Fe2Si4Fe2Si4Fe2Si4
_chemical_formula_sum              "Fe6 Si12"
_cell_length_a       2.68207
_cell_length_b       10.5367
_cell_length_c       29.5027
_cell_angle_alpha    104.747
_cell_angle_beta     90
_cell_angle_gamma    90

_space_group_name_H-M_alt    "P 1"
_space_group_IT_number       1

loop_
  _space_group_symop_operation_xyz
  'x, y, z'

loop_
  _atom_site_type_symbol
  _atom_site_label
  _atom_site_symmetry_multiplicity
  _atom_site_fract_x
  _atom_site_fract_y
  _atom_site_fract_z
  _atom_site_occupancy
  Fe  Fe1       1.0  0.00000  0.00000  0.44697  1.0000
  Fe  Fe2       1.0  0.00000  0.50000  0.40152  1.0000
  Si  Si1       1.0  0.50000  0.36364  0.43457  1.0000
  Si  Si2       1.0  0.50000  0.86364  0.38912  1.0000
  Si  Si3       1.0  0.50000  0.13636  0.41391  1.0000
  Si  Si4       1.0  0.50000  0.63636  0.36846  1.0000
  Fe  Fe3       1.0  0.00000  0.00000  0.53788  1.0000
  Fe  Fe4       1.0  0.00000  0.50000  0.49242  1.0000
  Si  Si5       1.0  0.50000  0.36364  0.52548  1.0000
  Si  Si6       1.0  0.50000  0.86364  0.48003  1.0000
  Si  Si7       1.0  0.50000  0.13636  0.50482  1.0000
  Si  Si8       1.0  0.50000  0.63636  0.45937  1.0000
  Fe  Fe5       1.0  0.00000  0.00000  0.62879  1.0000
  Fe  Fe6       1.0  0.00000  0.50000  0.58333  1.0000
  Si  Si9       1.0  0.50000  0.36364  0.61639  1.0000
  Si  Si10      1.0  0.50000  0.86364  0.57094  1.0000
  Si  Si11      1.0  0.50000  0.13636  0.59573  1.0000
  Si  Si12      1.0  0.50000  0.63636  0.55028  1.0000
