data_image0
_chemical_formula_structural       Na8
_chemical_formula_sum              "Na8"
_cell_length_a       3.60931
_cell_length_b       5.89398
_cell_length_c       34.0502
_cell_angle_alpha    90
_cell_angle_beta     92.0249
_cell_angle_gamma    90

_space_group_name_H-M_alt    "P 1"
_space_group_IT_number       1

loop_
  _space_group_symop_operation_xyz
  'x, y, z'

loop_
  _atom_site_type_symbol
  _atom_site_label
  _atom_site_symmetry_multiplicity
  _atom_site_fract_x
  _atom_site_fract_y
  _atom_site_fract_z
  _atom_site_occupancy
  Na  Na1       1.0  0.42500  0.00000  0.52500  1.0000
  Na  Na2       1.0  0.47500  0.50000  0.67500  1.0000
  Na  Na3       1.0  0.12500  0.00000  0.62500  1.0000
  Na  Na4       1.0  0.77500  0.50000  0.57500  1.0000
  Na  Na5       1.0  0.02500  0.00000  0.32500  1.0000
  Na  Na6       1.0  0.07500  0.50000  0.47500  1.0000
  Na  Na7       1.0  0.72500  0.00000  0.42500  1.0000
  Na  Na8       1.0  0.37500  0.50000  0.37500  1.0000
