data_image0
_chemical_formula_structural       Na6Al6Si6Na6Al6Si6
_chemical_formula_sum              "Na12 Al12 Si12"
_cell_length_a       7.26909
_cell_length_b       9.20396
_cell_length_c       34.9266
_cell_angle_alpha    71.5651
_cell_angle_beta     90
_cell_angle_gamma    90

_space_group_name_H-M_alt    "P 1"
_space_group_IT_number       1

loop_
  _space_group_symop_operation_xyz
  'x, y, z'

loop_
  _atom_site_type_symbol
  _atom_site_label
  _atom_site_symmetry_multiplicity
  _atom_site_fract_x
  _atom_site_fract_y
  _atom_site_fract_z
  _atom_site_occupancy
  Na  Na1       1.0  0.63569  0.50000  0.40278  1.0000
  Na  Na2       1.0  0.63569  0.16667  0.34722  1.0000
  Na  Na3       1.0  0.63569  0.83333  0.45833  1.0000
  Na  Na4       1.0  0.36431  0.83333  0.37500  1.0000
  Na  Na5       1.0  0.36431  0.50000  0.48611  1.0000
  Na  Na6       1.0  0.36431  0.16667  0.43056  1.0000
  Al  Al1       1.0  0.00000  0.66667  0.43056  1.0000
  Al  Al2       1.0  0.00000  0.33333  0.37500  1.0000
  Al  Al3       1.0  0.00000  0.00000  0.48611  1.0000
  Al  Al4       1.0  0.00000  0.66667  0.34722  1.0000
  Al  Al5       1.0  0.00000  0.33333  0.45833  1.0000
  Al  Al6       1.0  0.00000  0.00000  0.40278  1.0000
  Si  Si1       1.0  0.20814  0.50000  0.40278  1.0000
  Si  Si2       1.0  0.20814  0.16667  0.34722  1.0000
  Si  Si3       1.0  0.20814  0.83333  0.45833  1.0000
  Si  Si4       1.0  0.79186  0.83333  0.37500  1.0000
  Si  Si5       1.0  0.79186  0.50000  0.48611  1.0000
  Si  Si6       1.0  0.79186  0.16667  0.43056  1.0000
  Na  Na7       1.0  0.63569  0.50000  0.56944  1.0000
  Na  Na8       1.0  0.63569  0.16667  0.51389  1.0000
  Na  Na9       1.0  0.63569  0.83333  0.62500  1.0000
  Na  Na10      1.0  0.36431  0.83333  0.54167  1.0000
  Na  Na11      1.0  0.36431  0.50000  0.65278  1.0000
  Na  Na12      1.0  0.36431  0.16667  0.59722  1.0000
  Al  Al7       1.0  0.00000  0.66667  0.59722  1.0000
  Al  Al8       1.0  0.00000  0.33333  0.54167  1.0000
  Al  Al9       1.0  0.00000  0.00000  0.65278  1.0000
  Al  Al10      1.0  0.00000  0.66667  0.51389  1.0000
  Al  Al11      1.0  0.00000  0.33333  0.62500  1.0000
  Al  Al12      1.0  0.00000  0.00000  0.56944  1.0000
  Si  Si7       1.0  0.20814  0.50000  0.56944  1.0000
  Si  Si8       1.0  0.20814  0.16667  0.51389  1.0000
  Si  Si9       1.0  0.20814  0.83333  0.62500  1.0000
  Si  Si10      1.0  0.79186  0.83333  0.54167  1.0000
  Si  Si11      1.0  0.79186  0.50000  0.65278  1.0000
  Si  Si12      1.0  0.79186  0.16667  0.59722  1.0000
