data_image0
_chemical_formula_structural       Al24Ti12
_chemical_formula_sum              "Al24 Ti12"
_cell_length_a       6.33587
_cell_length_b       8.75122
_cell_length_c       31.5471
_cell_angle_alpha    89.1806
_cell_angle_beta     87.2082
_cell_angle_gamma    74.0851

_space_group_name_H-M_alt    "P 1"
_space_group_IT_number       1

loop_
  _space_group_symop_operation_xyz
  'x, y, z'

loop_
  _atom_site_type_symbol
  _atom_site_label
  _atom_site_symmetry_multiplicity
  _atom_site_fract_x
  _atom_site_fract_y
  _atom_site_fract_z
  _atom_site_occupancy
  Al  Al1       1.0  0.64352  0.31019  0.35648  1.0000
  Al  Al2       1.0  0.53241  0.53241  0.46759  1.0000
  Al  Al3       1.0  0.58796  0.92130  0.41204  1.0000
  Al  Al4       1.0  0.56019  0.22685  0.43981  1.0000
  Al  Al5       1.0  0.61574  0.61574  0.38426  1.0000
  Al  Al6       1.0  0.50463  0.83796  0.49537  1.0000
  Al  Al7       1.0  0.19617  0.09965  0.45799  1.0000
  Al  Al8       1.0  0.25173  0.48854  0.40243  1.0000
  Al  Al9       1.0  0.30728  0.87743  0.34687  1.0000
  Al  Al10      1.0  0.92420  0.35405  0.42164  1.0000
  Al  Al11      1.0  0.97975  0.74294  0.36609  1.0000
  Al  Al12      1.0  0.86864  0.96516  0.47720  1.0000
  Al  Al13      1.0  0.47685  0.14352  0.52315  1.0000
  Al  Al14      1.0  0.36574  0.36574  0.63426  1.0000
  Al  Al15      1.0  0.42130  0.75463  0.57870  1.0000
  Al  Al16      1.0  0.39352  0.06019  0.60648  1.0000
  Al  Al17      1.0  0.44907  0.44907  0.55093  1.0000
  Al  Al18      1.0  0.33796  0.67130  0.66204  1.0000
  Al  Al19      1.0  0.02951  0.93299  0.62465  1.0000
  Al  Al20      1.0  0.08506  0.32188  0.56910  1.0000
  Al  Al21      1.0  0.14062  0.71077  0.51354  1.0000
  Al  Al22      1.0  0.75753  0.18738  0.58831  1.0000
  Al  Al23      1.0  0.81309  0.57627  0.53275  1.0000
  Al  Al24      1.0  0.70197  0.79849  0.64387  1.0000
  Ti  Ti1       1.0  0.91909  0.05507  0.39293  1.0000
  Ti  Ti2       1.0  0.97465  0.44396  0.33737  1.0000
  Ti  Ti3       1.0  0.86354  0.66618  0.44848  1.0000
  Ti  Ti4       1.0  0.31239  0.17641  0.37559  1.0000
  Ti  Ti5       1.0  0.20128  0.39863  0.48670  1.0000
  Ti  Ti6       1.0  0.25683  0.78752  0.43115  1.0000
  Ti  Ti7       1.0  0.75242  0.88840  0.55959  1.0000
  Ti  Ti8       1.0  0.80798  0.27729  0.50404  1.0000
  Ti  Ti9       1.0  0.69687  0.49952  0.61515  1.0000
  Ti  Ti10      1.0  0.14572  0.00974  0.54226  1.0000
  Ti  Ti11      1.0  0.03461  0.23197  0.65337  1.0000
  Ti  Ti12      1.0  0.09017  0.62086  0.59781  1.0000
