data_image0
_chemical_formula_structural       Al6Ti6
_chemical_formula_sum              "Al6 Ti6"
_cell_length_a       4.90732
_cell_length_b       5.64586
_cell_length_c       28.656
_cell_angle_alpha    92.265
_cell_angle_beta     90.5704
_cell_angle_gamma    107.853

_space_group_name_H-M_alt    "P 1"
_space_group_IT_number       1

loop_
  _space_group_symop_operation_xyz
  'x, y, z'

loop_
  _atom_site_type_symbol
  _atom_site_label
  _atom_site_symmetry_multiplicity
  _atom_site_fract_x
  _atom_site_fract_y
  _atom_site_fract_z
  _atom_site_occupancy
  Al  Al1       1.0  0.43750  0.47917  0.47917  1.0000
  Al  Al2       1.0  0.52083  0.72917  0.39583  1.0000
  Al  Al3       1.0  0.97917  0.10417  0.43750  1.0000
  Al  Al4       1.0  0.81250  0.60417  0.60417  1.0000
  Al  Al5       1.0  0.89583  0.85417  0.52083  1.0000
  Al  Al6       1.0  0.35417  0.22917  0.56250  1.0000
  Ti  Ti1       1.0  0.97917  0.60417  0.43750  1.0000
  Ti  Ti2       1.0  0.43750  0.97917  0.47917  1.0000
  Ti  Ti3       1.0  0.52083  0.22917  0.39583  1.0000
  Ti  Ti4       1.0  0.35417  0.72917  0.56250  1.0000
  Ti  Ti5       1.0  0.81250  0.10417  0.60417  1.0000
  Ti  Ti6       1.0  0.89583  0.35417  0.52083  1.0000
