data_image0
_chemical_formula_structural       Co6Zn18
_chemical_formula_sum              "Co6 Zn18"
_cell_length_a       4.62881
_cell_length_b       6.84875
_cell_length_c       32.8543
_cell_angle_alpha    88.8203
_cell_angle_beta     88.2544
_cell_angle_gamma    85.8101

_space_group_name_H-M_alt    "P 1"
_space_group_IT_number       1

loop_
  _space_group_symop_operation_xyz
  'x, y, z'

loop_
  _atom_site_type_symbol
  _atom_site_label
  _atom_site_symmetry_multiplicity
  _atom_site_fract_x
  _atom_site_fract_y
  _atom_site_fract_z
  _atom_site_occupancy
  Co  Co1       1.0  0.00000  0.01190  0.49405  1.0000
  Co  Co2       1.0  0.33333  0.86905  0.39881  1.0000
  Co  Co3       1.0  0.66667  0.44048  0.44643  1.0000
  Co  Co4       1.0  0.00000  0.72619  0.63690  1.0000
  Co  Co5       1.0  0.33333  0.58333  0.54167  1.0000
  Co  Co6       1.0  0.66667  0.15476  0.58929  1.0000
  Zn  Zn1       1.0  0.16667  0.51190  0.41071  1.0000
  Zn  Zn2       1.0  0.50000  0.08333  0.45833  1.0000
  Zn  Zn3       1.0  0.83333  0.94048  0.36310  1.0000
  Zn  Zn4       1.0  0.50000  0.22619  0.38690  1.0000
  Zn  Zn5       1.0  0.83333  0.79762  0.43452  1.0000
  Zn  Zn6       1.0  0.16667  0.36905  0.48214  1.0000
  Zn  Zn7       1.0  0.66667  0.58333  0.37500  1.0000
  Zn  Zn8       1.0  0.00000  0.15476  0.42262  1.0000
  Zn  Zn9       1.0  0.33333  0.72619  0.47024  1.0000
  Zn  Zn10      1.0  0.16667  0.22619  0.55357  1.0000
  Zn  Zn11      1.0  0.50000  0.79762  0.60119  1.0000
  Zn  Zn12      1.0  0.83333  0.65476  0.50595  1.0000
  Zn  Zn13      1.0  0.50000  0.94048  0.52976  1.0000
  Zn  Zn14      1.0  0.83333  0.51190  0.57738  1.0000
  Zn  Zn15      1.0  0.16667  0.08333  0.62500  1.0000
  Zn  Zn16      1.0  0.66667  0.29762  0.51786  1.0000
  Zn  Zn17      1.0  0.00000  0.86905  0.56548  1.0000
  Zn  Zn18      1.0  0.33333  0.44048  0.61310  1.0000
