data_image0
_chemical_formula_structural       Si2Pt10Pb2Si2Pt10Pb2
_chemical_formula_sum              "Si4 Pt20 Pb4"
_cell_length_a       5.6152
_cell_length_b       8.21418
_cell_length_c       33.6912
_cell_angle_alpha    109.987
_cell_angle_beta     90
_cell_angle_gamma    70.0135

_space_group_name_H-M_alt    "P 1"
_space_group_IT_number       1

loop_
  _space_group_symop_operation_xyz
  'x, y, z'

loop_
  _atom_site_type_symbol
  _atom_site_label
  _atom_site_symmetry_multiplicity
  _atom_site_fract_x
  _atom_site_fract_y
  _atom_site_fract_z
  _atom_site_occupancy
  Si  Si1       1.0  0.75000  0.50000  0.36310  1.0000
  Si  Si2       1.0  0.25000  0.50000  0.44643  1.0000
  Pt  Pt1       1.0  0.00000  0.00000  0.48810  1.0000
  Pt  Pt2       1.0  0.50000  0.00000  0.40476  1.0000
  Pt  Pt3       1.0  0.40154  0.69693  0.42117  1.0000
  Pt  Pt4       1.0  0.90154  0.69693  0.33784  1.0000
  Pt  Pt5       1.0  0.90154  0.69693  0.42117  1.0000
  Pt  Pt6       1.0  0.40154  0.69693  0.33784  1.0000
  Pt  Pt7       1.0  0.59846  0.30307  0.38835  1.0000
  Pt  Pt8       1.0  0.09846  0.30307  0.47168  1.0000
  Pt  Pt9       1.0  0.09846  0.30307  0.38835  1.0000
  Pt  Pt10      1.0  0.59846  0.30307  0.47168  1.0000
  Pb  Pb1       1.0  0.00000  0.00000  0.40476  1.0000
  Pb  Pb2       1.0  0.50000  0.00000  0.48810  1.0000
  Si  Si3       1.0  0.75000  0.50000  0.52976  1.0000
  Si  Si4       1.0  0.25000  0.50000  0.61310  1.0000
  Pt  Pt11      1.0  0.00000  0.00000  0.65476  1.0000
  Pt  Pt12      1.0  0.50000  0.00000  0.57143  1.0000
  Pt  Pt13      1.0  0.40154  0.69693  0.58784  1.0000
  Pt  Pt14      1.0  0.90154  0.69693  0.50451  1.0000
  Pt  Pt15      1.0  0.90154  0.69693  0.58784  1.0000
  Pt  Pt16      1.0  0.40154  0.69693  0.50451  1.0000
  Pt  Pt17      1.0  0.59846  0.30307  0.55502  1.0000
  Pt  Pt18      1.0  0.09846  0.30307  0.63835  1.0000
  Pt  Pt19      1.0  0.09846  0.30307  0.55502  1.0000
  Pt  Pt20      1.0  0.59846  0.30307  0.63835  1.0000
  Pb  Pb3       1.0  0.00000  0.00000  0.57143  1.0000
  Pb  Pb4       1.0  0.50000  0.00000  0.65476  1.0000
