data_image0
_chemical_formula_structural       Sb8Os4Sb8Os4Sb8Os4
_chemical_formula_sum              "Sb24 Os12"
_cell_length_a       12.3167
_cell_length_b       7.41756
_cell_length_c       35.3793
_cell_angle_alpha    115.697
_cell_angle_beta     105.137
_cell_angle_gamma    83.4985

_space_group_name_H-M_alt    "P 1"
_space_group_IT_number       1

loop_
  _space_group_symop_operation_xyz
  'x, y, z'

loop_
  _atom_site_type_symbol
  _atom_site_label
  _atom_site_symmetry_multiplicity
  _atom_site_fract_x
  _atom_site_fract_y
  _atom_site_fract_z
  _atom_site_occupancy
  Sb  Sb1       1.0  0.15907  0.85764  0.39167  1.0000
  Sb  Sb2       1.0  0.65907  0.85764  0.43713  1.0000
  Sb  Sb3       1.0  0.34093  0.14236  0.43409  1.0000
  Sb  Sb4       1.0  0.84093  0.14236  0.38863  1.0000
  Sb  Sb5       1.0  0.09093  0.35764  0.38548  1.0000
  Sb  Sb6       1.0  0.59093  0.35764  0.43093  1.0000
  Sb  Sb7       1.0  0.40907  0.64236  0.44028  1.0000
  Sb  Sb8       1.0  0.90907  0.64236  0.39483  1.0000
  Os  Os1       1.0  0.25000  0.50000  0.36742  1.0000
  Os  Os2       1.0  0.75000  0.50000  0.41288  1.0000
  Os  Os3       1.0  0.00000  0.00000  0.43561  1.0000
  Os  Os4       1.0  0.50000  0.00000  0.39015  1.0000
  Sb  Sb9       1.0  0.15907  0.85764  0.48258  1.0000
  Sb  Sb10      1.0  0.65907  0.85764  0.52803  1.0000
  Sb  Sb11      1.0  0.34093  0.14236  0.52500  1.0000
  Sb  Sb12      1.0  0.84093  0.14236  0.47954  1.0000
  Sb  Sb13      1.0  0.09093  0.35764  0.47639  1.0000
  Sb  Sb14      1.0  0.59093  0.35764  0.52184  1.0000
  Sb  Sb15      1.0  0.40907  0.64236  0.53119  1.0000
  Sb  Sb16      1.0  0.90907  0.64236  0.48574  1.0000
  Os  Os5       1.0  0.25000  0.50000  0.45833  1.0000
  Os  Os6       1.0  0.75000  0.50000  0.50379  1.0000
  Os  Os7       1.0  0.00000  0.00000  0.52652  1.0000
  Os  Os8       1.0  0.50000  0.00000  0.48106  1.0000
  Sb  Sb17      1.0  0.15907  0.85764  0.57349  1.0000
  Sb  Sb18      1.0  0.65907  0.85764  0.61894  1.0000
  Sb  Sb19      1.0  0.34093  0.14236  0.61591  1.0000
  Sb  Sb20      1.0  0.84093  0.14236  0.57045  1.0000
  Sb  Sb21      1.0  0.09093  0.35764  0.56729  1.0000
  Sb  Sb22      1.0  0.59093  0.35764  0.61275  1.0000
  Sb  Sb23      1.0  0.40907  0.64236  0.62210  1.0000
  Sb  Sb24      1.0  0.90907  0.64236  0.57664  1.0000
  Os  Os9       1.0  0.25000  0.50000  0.54924  1.0000
  Os  Os10      1.0  0.75000  0.50000  0.59470  1.0000
  Os  Os11      1.0  0.00000  0.00000  0.61742  1.0000
  Os  Os12      1.0  0.50000  0.00000  0.57197  1.0000
