data_image0
_chemical_formula_structural       Al3Os6V3
_chemical_formula_sum              "Al3 Os6 V3"
_cell_length_a       4.22157
_cell_length_b       4.22157
_cell_length_c       31.0221
_cell_angle_alpha    90
_cell_angle_beta     90
_cell_angle_gamma    120

_space_group_name_H-M_alt    "P 1"
_space_group_IT_number       1

loop_
  _space_group_symop_operation_xyz
  'x, y, z'

loop_
  _atom_site_type_symbol
  _atom_site_label
  _atom_site_symmetry_multiplicity
  _atom_site_fract_x
  _atom_site_fract_y
  _atom_site_fract_z
  _atom_site_occupancy
  Al  Al1       1.0  0.00000  0.00000  0.48611  1.0000
  Al  Al2       1.0  0.66667  0.33333  0.37500  1.0000
  Al  Al3       1.0  0.33333  0.66667  0.59722  1.0000
  Os  Os1       1.0  0.66667  0.33333  0.62500  1.0000
  Os  Os2       1.0  0.33333  0.66667  0.51389  1.0000
  Os  Os3       1.0  0.00000  0.00000  0.40278  1.0000
  Os  Os4       1.0  0.00000  0.00000  0.56944  1.0000
  Os  Os5       1.0  0.66667  0.33333  0.45833  1.0000
  Os  Os6       1.0  0.33333  0.66667  0.34722  1.0000
  V   V1        1.0  0.33333  0.66667  0.43056  1.0000
  V   V2        1.0  0.00000  0.00000  0.65278  1.0000
  V   V3        1.0  0.66667  0.33333  0.54167  1.0000
