data_image0
_chemical_formula_structural       In6Pd18
_chemical_formula_sum              "In6 Pd18"
_cell_length_a       4.09568
_cell_length_b       11.0811
_cell_length_c       34.0512
_cell_angle_alpha    76.4233
_cell_angle_beta     90
_cell_angle_gamma    90

_space_group_name_H-M_alt    "P 1"
_space_group_IT_number       1

loop_
  _space_group_symop_operation_xyz
  'x, y, z'

loop_
  _atom_site_type_symbol
  _atom_site_label
  _atom_site_symmetry_multiplicity
  _atom_site_fract_x
  _atom_site_fract_y
  _atom_site_fract_z
  _atom_site_occupancy
  In  In1       1.0  0.00000  0.66667  0.43750  1.0000
  In  In2       1.0  0.00000  0.00000  0.60417  1.0000
  In  In3       1.0  0.00000  0.33333  0.52083  1.0000
  In  In4       1.0  0.50000  0.66667  0.56250  1.0000
  In  In5       1.0  0.50000  0.00000  0.47917  1.0000
  In  In6       1.0  0.50000  0.33333  0.39583  1.0000
  Pd  Pd1       1.0  0.00000  0.83333  0.52083  1.0000
  Pd  Pd2       1.0  0.00000  0.16667  0.43750  1.0000
  Pd  Pd3       1.0  0.00000  0.50000  0.60417  1.0000
  Pd  Pd4       1.0  0.00000  0.58333  0.52083  1.0000
  Pd  Pd5       1.0  0.00000  0.91667  0.43750  1.0000
  Pd  Pd6       1.0  0.00000  0.25000  0.60417  1.0000
  Pd  Pd7       1.0  0.50000  0.75000  0.47917  1.0000
  Pd  Pd8       1.0  0.50000  0.08333  0.39583  1.0000
  Pd  Pd9       1.0  0.50000  0.41667  0.56250  1.0000
  Pd  Pd10      1.0  0.50000  0.50000  0.47917  1.0000
  Pd  Pd11      1.0  0.50000  0.83333  0.39583  1.0000
  Pd  Pd12      1.0  0.50000  0.16667  0.56250  1.0000
  Pd  Pd13      1.0  0.50000  0.91667  0.56250  1.0000
  Pd  Pd14      1.0  0.50000  0.25000  0.47917  1.0000
  Pd  Pd15      1.0  0.50000  0.58333  0.39583  1.0000
  Pd  Pd16      1.0  0.00000  0.75000  0.60417  1.0000
  Pd  Pd17      1.0  0.00000  0.08333  0.52083  1.0000
  Pd  Pd18      1.0  0.00000  0.41667  0.43750  1.0000
