data_image0
_chemical_formula_structural       Fe4Rh8Sn4
_chemical_formula_sum              "Fe4 Rh8 Sn4"
_cell_length_a       4.47615
_cell_length_b       5.72542
_cell_length_c       35.2705
_cell_angle_alpha    90
_cell_angle_beta     93.3152
_cell_angle_gamma    90

_space_group_name_H-M_alt    "P 1"
_space_group_IT_number       1

loop_
  _space_group_symop_operation_xyz
  'x, y, z'

loop_
  _atom_site_type_symbol
  _atom_site_label
  _atom_site_symmetry_multiplicity
  _atom_site_fract_x
  _atom_site_fract_y
  _atom_site_fract_z
  _atom_site_occupancy
  Fe  Fe1       1.0  0.09375  0.50000  0.40625  1.0000
  Fe  Fe2       1.0  0.53125  0.00000  0.46875  1.0000
  Fe  Fe3       1.0  0.40625  0.00000  0.59375  1.0000
  Fe  Fe4       1.0  0.96875  0.50000  0.53125  1.0000
  Rh  Rh1       1.0  0.03125  0.75000  0.46875  1.0000
  Rh  Rh2       1.0  0.46875  0.25000  0.53125  1.0000
  Rh  Rh3       1.0  0.59375  0.25000  0.40625  1.0000
  Rh  Rh4       1.0  0.90625  0.75000  0.59375  1.0000
  Rh  Rh5       1.0  0.03125  0.25000  0.46875  1.0000
  Rh  Rh6       1.0  0.46875  0.75000  0.53125  1.0000
  Rh  Rh7       1.0  0.59375  0.75000  0.40625  1.0000
  Rh  Rh8       1.0  0.90625  0.25000  0.59375  1.0000
  Sn  Sn1       1.0  0.53125  0.50000  0.46875  1.0000
  Sn  Sn2       1.0  0.96875  0.00000  0.53125  1.0000
  Sn  Sn3       1.0  0.09375  0.00000  0.40625  1.0000
  Sn  Sn4       1.0  0.40625  0.50000  0.59375  1.0000
