data_image0
_chemical_formula_structural       V4Pt12V4Pt12
_chemical_formula_sum              "V8 Pt24"
_cell_length_a       5.41787
_cell_length_b       8.70173
_cell_length_c       32.5072
_cell_angle_alpha    108.138
_cell_angle_beta     90
_cell_angle_gamma    71.8618

_space_group_name_H-M_alt    "P 1"
_space_group_IT_number       1

loop_
  _space_group_symop_operation_xyz
  'x, y, z'

loop_
  _atom_site_type_symbol
  _atom_site_label
  _atom_site_symmetry_multiplicity
  _atom_site_fract_x
  _atom_site_fract_y
  _atom_site_fract_z
  _atom_site_occupancy
  V   V1        1.0  0.00000  0.00000  0.48958  1.0000
  V   V2        1.0  0.50000  0.00000  0.40625  1.0000
  V   V3        1.0  0.75000  0.50000  0.44792  1.0000
  V   V4        1.0  0.25000  0.50000  0.36458  1.0000
  Pt  Pt1       1.0  0.12500  0.25000  0.38542  1.0000
  Pt  Pt2       1.0  0.62500  0.25000  0.46875  1.0000
  Pt  Pt3       1.0  0.62500  0.25000  0.38542  1.0000
  Pt  Pt4       1.0  0.12500  0.25000  0.46875  1.0000
  Pt  Pt5       1.0  0.75000  0.50000  0.36458  1.0000
  Pt  Pt6       1.0  0.25000  0.50000  0.44792  1.0000
  Pt  Pt7       1.0  0.37500  0.75000  0.42708  1.0000
  Pt  Pt8       1.0  0.87500  0.75000  0.34375  1.0000
  Pt  Pt9       1.0  0.87500  0.75000  0.42708  1.0000
  Pt  Pt10      1.0  0.37500  0.75000  0.34375  1.0000
  Pt  Pt11      1.0  0.00000  0.00000  0.40625  1.0000
  Pt  Pt12      1.0  0.50000  0.00000  0.48958  1.0000
  V   V5        1.0  0.00000  0.00000  0.65625  1.0000
  V   V6        1.0  0.50000  0.00000  0.57292  1.0000
  V   V7        1.0  0.75000  0.50000  0.61458  1.0000
  V   V8        1.0  0.25000  0.50000  0.53125  1.0000
  Pt  Pt13      1.0  0.12500  0.25000  0.55208  1.0000
  Pt  Pt14      1.0  0.62500  0.25000  0.63542  1.0000
  Pt  Pt15      1.0  0.62500  0.25000  0.55208  1.0000
  Pt  Pt16      1.0  0.12500  0.25000  0.63542  1.0000
  Pt  Pt17      1.0  0.75000  0.50000  0.53125  1.0000
  Pt  Pt18      1.0  0.25000  0.50000  0.61458  1.0000
  Pt  Pt19      1.0  0.37500  0.75000  0.59375  1.0000
  Pt  Pt20      1.0  0.87500  0.75000  0.51042  1.0000
  Pt  Pt21      1.0  0.87500  0.75000  0.59375  1.0000
  Pt  Pt22      1.0  0.37500  0.75000  0.51042  1.0000
  Pt  Pt23      1.0  0.00000  0.00000  0.57292  1.0000
  Pt  Pt24      1.0  0.50000  0.00000  0.65625  1.0000
