data_image0
_chemical_formula_structural       Ag12Sn4Ag12Sn4
_chemical_formula_sum              "Ag24 Sn8"
_cell_length_a       4.80924
_cell_length_b       12.761
_cell_length_c       36.196
_cell_angle_alpha    113.904
_cell_angle_beta     90
_cell_angle_gamma    90

_space_group_name_H-M_alt    "P 1"
_space_group_IT_number       1

loop_
  _space_group_symop_operation_xyz
  'x, y, z'

loop_
  _atom_site_type_symbol
  _atom_site_label
  _atom_site_symmetry_multiplicity
  _atom_site_fract_x
  _atom_site_fract_y
  _atom_site_fract_z
  _atom_site_occupancy
  Ag  Ag1       1.0  0.00000  0.12516  0.46980  1.0000
  Ag  Ag2       1.0  0.00000  0.62516  0.39837  1.0000
  Ag  Ag3       1.0  0.00000  0.37484  0.36261  1.0000
  Ag  Ag4       1.0  0.00000  0.87484  0.43404  1.0000
  Ag  Ag5       1.0  0.50000  0.12484  0.42306  1.0000
  Ag  Ag6       1.0  0.50000  0.62484  0.49449  1.0000
  Ag  Ag7       1.0  0.50000  0.37516  0.45882  1.0000
  Ag  Ag8       1.0  0.50000  0.87516  0.38739  1.0000
  Ag  Ag9       1.0  0.00000  0.25000  0.41768  1.0000
  Ag  Ag10      1.0  0.00000  0.75000  0.48911  1.0000
  Ag  Ag11      1.0  0.50000  0.50000  0.40374  1.0000
  Ag  Ag12      1.0  0.50000  0.00000  0.47517  1.0000
  Sn  Sn1       1.0  0.00000  0.50000  0.45260  1.0000
  Sn  Sn2       1.0  0.00000  0.00000  0.38117  1.0000
  Sn  Sn3       1.0  0.50000  0.25000  0.36883  1.0000
  Sn  Sn4       1.0  0.50000  0.75000  0.44026  1.0000
  Ag  Ag13      1.0  0.00000  0.12516  0.61265  1.0000
  Ag  Ag14      1.0  0.00000  0.62516  0.54122  1.0000
  Ag  Ag15      1.0  0.00000  0.37484  0.50547  1.0000
  Ag  Ag16      1.0  0.00000  0.87484  0.57689  1.0000
  Ag  Ag17      1.0  0.50000  0.12484  0.56592  1.0000
  Ag  Ag18      1.0  0.50000  0.62484  0.63735  1.0000
  Ag  Ag19      1.0  0.50000  0.37516  0.60168  1.0000
  Ag  Ag20      1.0  0.50000  0.87516  0.53025  1.0000
  Ag  Ag21      1.0  0.00000  0.25000  0.56054  1.0000
  Ag  Ag22      1.0  0.00000  0.75000  0.63197  1.0000
  Ag  Ag23      1.0  0.50000  0.50000  0.54660  1.0000
  Ag  Ag24      1.0  0.50000  0.00000  0.61803  1.0000
  Sn  Sn5       1.0  0.00000  0.50000  0.59546  1.0000
  Sn  Sn6       1.0  0.00000  0.00000  0.52403  1.0000
  Sn  Sn7       1.0  0.50000  0.25000  0.51169  1.0000
  Sn  Sn8       1.0  0.50000  0.75000  0.58311  1.0000
