data_image0
_chemical_formula_structural       Ga6Pt10
_chemical_formula_sum              "Ga6 Pt10"
_cell_length_a       5.46831
_cell_length_b       5.46831
_cell_length_c       31.4851
_cell_angle_alpha    90
_cell_angle_beta     90
_cell_angle_gamma    94.3912

_space_group_name_H-M_alt    "P 1"
_space_group_IT_number       1

loop_
  _space_group_symop_operation_xyz
  'x, y, z'

loop_
  _atom_site_type_symbol
  _atom_site_label
  _atom_site_symmetry_multiplicity
  _atom_site_fract_x
  _atom_site_fract_y
  _atom_site_fract_z
  _atom_site_occupancy
  Ga  Ga1       1.0  0.00000  0.00000  0.53125  1.0000
  Ga  Ga2       1.0  0.71455  0.28545  0.59375  1.0000
  Ga  Ga3       1.0  0.28545  0.71455  0.59375  1.0000
  Ga  Ga4       1.0  0.00000  0.00000  0.40625  1.0000
  Ga  Ga5       1.0  0.71455  0.28545  0.46875  1.0000
  Ga  Ga6       1.0  0.28545  0.71455  0.46875  1.0000
  Pt  Pt1       1.0  0.50000  0.50000  0.53125  1.0000
  Pt  Pt2       1.0  0.50000  0.00000  0.53125  1.0000
  Pt  Pt3       1.0  0.00000  0.50000  0.53125  1.0000
  Pt  Pt4       1.0  0.79130  0.79130  0.59375  1.0000
  Pt  Pt5       1.0  0.20870  0.20870  0.59375  1.0000
  Pt  Pt6       1.0  0.50000  0.50000  0.40625  1.0000
  Pt  Pt7       1.0  0.50000  0.00000  0.40625  1.0000
  Pt  Pt8       1.0  0.00000  0.50000  0.40625  1.0000
  Pt  Pt9       1.0  0.79130  0.79130  0.46875  1.0000
  Pt  Pt10      1.0  0.20870  0.20870  0.46875  1.0000
