data_image0
_chemical_formula_structural       Ca4Au8Ca4Au8
_chemical_formula_sum              "Ca8 Au16"
_cell_length_a       6.98525
_cell_length_b       8.12792
_cell_length_c       32.1156
_cell_angle_alpha    90
_cell_angle_beta     90
_cell_angle_gamma    90

_space_group_name_H-M_alt    "P 1"
_space_group_IT_number       1

loop_
  _space_group_symop_operation_xyz
  'x, y, z'

loop_
  _atom_site_type_symbol
  _atom_site_label
  _atom_site_symmetry_multiplicity
  _atom_site_fract_x
  _atom_site_fract_y
  _atom_site_fract_z
  _atom_site_occupancy
  Ca  Ca1       1.0  0.50000  0.78936  0.39286  1.0000
  Ca  Ca2       1.0  0.00000  0.71064  0.39286  1.0000
  Ca  Ca3       1.0  0.00000  0.28936  0.46429  1.0000
  Ca  Ca4       1.0  0.50000  0.21064  0.46429  1.0000
  Au  Au1       1.0  0.21151  0.91189  0.46429  1.0000
  Au  Au2       1.0  0.28849  0.58811  0.46429  1.0000
  Au  Au3       1.0  0.28849  0.41189  0.39286  1.0000
  Au  Au4       1.0  0.21151  0.08811  0.39286  1.0000
  Au  Au5       1.0  0.71151  0.41189  0.39286  1.0000
  Au  Au6       1.0  0.78849  0.08811  0.39286  1.0000
  Au  Au7       1.0  0.78849  0.91189  0.46429  1.0000
  Au  Au8       1.0  0.71151  0.58811  0.46429  1.0000
  Ca  Ca5       1.0  0.50000  0.78936  0.53571  1.0000
  Ca  Ca6       1.0  0.00000  0.71064  0.53571  1.0000
  Ca  Ca7       1.0  0.00000  0.28936  0.60714  1.0000
  Ca  Ca8       1.0  0.50000  0.21064  0.60714  1.0000
  Au  Au9       1.0  0.21151  0.91189  0.60714  1.0000
  Au  Au10      1.0  0.28849  0.58811  0.60714  1.0000
  Au  Au11      1.0  0.28849  0.41189  0.53571  1.0000
  Au  Au12      1.0  0.21151  0.08811  0.53571  1.0000
  Au  Au13      1.0  0.71151  0.41189  0.53571  1.0000
  Au  Au14      1.0  0.78849  0.08811  0.53571  1.0000
  Au  Au15      1.0  0.78849  0.91189  0.60714  1.0000
  Au  Au16      1.0  0.71151  0.58811  0.60714  1.0000
