data_image0
_chemical_formula_structural       Ga9Pt15
_chemical_formula_sum              "Ga9 Pt15"
_cell_length_a       5.46831
_cell_length_b       6.73733
_cell_length_c       38.3373
_cell_angle_alpha    90.9549
_cell_angle_beta     92.5037
_cell_angle_gamma    93.5629

_space_group_name_H-M_alt    "P 1"
_space_group_IT_number       1

loop_
  _space_group_symop_operation_xyz
  'x, y, z'

loop_
  _atom_site_type_symbol
  _atom_site_label
  _atom_site_symmetry_multiplicity
  _atom_site_fract_x
  _atom_site_fract_y
  _atom_site_fract_z
  _atom_site_occupancy
  Ga  Ga1       1.0  0.00000  0.12500  0.44792  1.0000
  Ga  Ga2       1.0  0.00000  0.45833  0.61458  1.0000
  Ga  Ga3       1.0  0.00000  0.79167  0.53125  1.0000
  Ga  Ga4       1.0  0.71455  0.81530  0.59670  1.0000
  Ga  Ga5       1.0  0.71455  0.14863  0.51337  1.0000
  Ga  Ga6       1.0  0.71455  0.48197  0.43004  1.0000
  Ga  Ga7       1.0  0.28545  0.43470  0.54913  1.0000
  Ga  Ga8       1.0  0.28545  0.76803  0.46580  1.0000
  Ga  Ga9       1.0  0.28545  0.10137  0.38246  1.0000
  Pt  Pt1       1.0  0.50000  0.45833  0.48958  1.0000
  Pt  Pt2       1.0  0.50000  0.79167  0.40625  1.0000
  Pt  Pt3       1.0  0.50000  0.12500  0.57292  1.0000
  Pt  Pt4       1.0  0.00000  0.45833  0.48958  1.0000
  Pt  Pt5       1.0  0.00000  0.79167  0.40625  1.0000
  Pt  Pt6       1.0  0.00000  0.12500  0.57292  1.0000
  Pt  Pt7       1.0  0.50000  0.79167  0.53125  1.0000
  Pt  Pt8       1.0  0.50000  0.12500  0.44792  1.0000
  Pt  Pt9       1.0  0.50000  0.45833  0.61458  1.0000
  Pt  Pt10      1.0  0.20870  0.09747  0.50698  1.0000
  Pt  Pt11      1.0  0.20870  0.43080  0.42364  1.0000
  Pt  Pt12      1.0  0.20870  0.76413  0.59031  1.0000
  Pt  Pt13      1.0  0.79130  0.48587  0.55552  1.0000
  Pt  Pt14      1.0  0.79130  0.81920  0.47219  1.0000
  Pt  Pt15      1.0  0.79130  0.15253  0.38886  1.0000
