data_image0
_chemical_formula_structural       Si12Ir12
_chemical_formula_sum              "Si12 Ir12"
_cell_length_a       3.20128
_cell_length_b       12.7635
_cell_length_c       33.6206
_cell_angle_alpha    101.623
_cell_angle_beta     90
_cell_angle_gamma    90

_space_group_name_H-M_alt    "P 1"
_space_group_IT_number       1

loop_
  _space_group_symop_operation_xyz
  'x, y, z'

loop_
  _atom_site_type_symbol
  _atom_site_label
  _atom_site_symmetry_multiplicity
  _atom_site_fract_x
  _atom_site_fract_y
  _atom_site_fract_z
  _atom_site_occupancy
  Si  Si1       1.0  0.75000  0.54080  0.44343  1.0000
  Si  Si2       1.0  0.75000  0.20747  0.52676  1.0000
  Si  Si3       1.0  0.75000  0.87414  0.61009  1.0000
  Si  Si4       1.0  0.25000  0.12586  0.57741  1.0000
  Si  Si5       1.0  0.25000  0.79253  0.41074  1.0000
  Si  Si6       1.0  0.25000  0.45920  0.49407  1.0000
  Si  Si7       1.0  0.75000  0.24780  0.42192  1.0000
  Si  Si8       1.0  0.75000  0.91446  0.50526  1.0000
  Si  Si9       1.0  0.75000  0.58113  0.58859  1.0000
  Si  Si10      1.0  0.25000  0.41887  0.59891  1.0000
  Si  Si11      1.0  0.25000  0.08554  0.43224  1.0000
  Si  Si12      1.0  0.25000  0.75220  0.51558  1.0000
  Ir  Ir1       1.0  0.75000  0.26539  0.60103  1.0000
  Ir  Ir2       1.0  0.75000  0.93206  0.43437  1.0000
  Ir  Ir3       1.0  0.75000  0.59873  0.51770  1.0000
  Ir  Ir4       1.0  0.25000  0.40127  0.41980  1.0000
  Ir  Ir5       1.0  0.25000  0.06794  0.50313  1.0000
  Ir  Ir6       1.0  0.25000  0.73461  0.58647  1.0000
  Ir  Ir7       1.0  0.75000  0.06904  0.37786  1.0000
  Ir  Ir8       1.0  0.75000  0.73571  0.46119  1.0000
  Ir  Ir9       1.0  0.75000  0.40238  0.54453  1.0000
  Ir  Ir10      1.0  0.25000  0.59762  0.39297  1.0000
  Ir  Ir11      1.0  0.25000  0.26429  0.47631  1.0000
  Ir  Ir12      1.0  0.25000  0.93096  0.55964  1.0000
