data_image0
_chemical_formula_structural       Nb5Au10Nb5Au10
_chemical_formula_sum              "Nb10 Au20"
_cell_length_a       12.2521
_cell_length_b       5.37412
_cell_length_c       32.2447
_cell_angle_alpha    96.5332
_cell_angle_beta     80.6279
_cell_angle_gamma    49.3542

_space_group_name_H-M_alt    "P 1"
_space_group_IT_number       1

loop_
  _space_group_symop_operation_xyz
  'x, y, z'

loop_
  _atom_site_type_symbol
  _atom_site_label
  _atom_site_symmetry_multiplicity
  _atom_site_fract_x
  _atom_site_fract_y
  _atom_site_fract_z
  _atom_site_occupancy
  Nb  Nb1       1.0  0.40000  0.80000  0.36111  1.0000
  Nb  Nb2       1.0  0.80000  0.60000  0.39444  1.0000
  Nb  Nb3       1.0  0.00000  0.00000  0.49444  1.0000
  Nb  Nb4       1.0  0.20000  0.40000  0.42778  1.0000
  Nb  Nb5       1.0  0.60000  0.20000  0.46111  1.0000
  Au  Au1       1.0  0.30000  0.76667  0.45000  1.0000
  Au  Au2       1.0  0.70000  0.56667  0.48333  1.0000
  Au  Au3       1.0  0.90000  0.96667  0.41667  1.0000
  Au  Au4       1.0  0.10000  0.36667  0.35000  1.0000
  Au  Au5       1.0  0.50000  0.16667  0.38333  1.0000
  Au  Au6       1.0  0.50000  0.83333  0.43889  1.0000
  Au  Au7       1.0  0.90000  0.63333  0.47222  1.0000
  Au  Au8       1.0  0.10000  0.03333  0.40556  1.0000
  Au  Au9       1.0  0.30000  0.43333  0.33889  1.0000
  Au  Au10      1.0  0.70000  0.23333  0.37222  1.0000
  Nb  Nb6       1.0  0.40000  0.80000  0.52778  1.0000
  Nb  Nb7       1.0  0.80000  0.60000  0.56111  1.0000
  Nb  Nb8       1.0  0.00000  0.00000  0.66111  1.0000
  Nb  Nb9       1.0  0.20000  0.40000  0.59444  1.0000
  Nb  Nb10      1.0  0.60000  0.20000  0.62778  1.0000
  Au  Au11      1.0  0.30000  0.76667  0.61667  1.0000
  Au  Au12      1.0  0.70000  0.56667  0.65000  1.0000
  Au  Au13      1.0  0.90000  0.96667  0.58333  1.0000
  Au  Au14      1.0  0.10000  0.36667  0.51667  1.0000
  Au  Au15      1.0  0.50000  0.16667  0.55000  1.0000
  Au  Au16      1.0  0.50000  0.83333  0.60556  1.0000
  Au  Au17      1.0  0.90000  0.63333  0.63889  1.0000
  Au  Au18      1.0  0.10000  0.03333  0.57222  1.0000
  Au  Au19      1.0  0.30000  0.43333  0.50556  1.0000
  Au  Au20      1.0  0.70000  0.23333  0.53889  1.0000
