data_image0
_chemical_formula_structural       Ga8Au8
_chemical_formula_sum              "Ga8 Au8"
_cell_length_a       3.58379
_cell_length_b       8.80747
_cell_length_c       35.2299
_cell_angle_alpha    89.9732
_cell_angle_beta     90
_cell_angle_gamma    90

_space_group_name_H-M_alt    "P 1"
_space_group_IT_number       1

loop_
  _space_group_symop_operation_xyz
  'x, y, z'

loop_
  _atom_site_type_symbol
  _atom_site_label
  _atom_site_symmetry_multiplicity
  _atom_site_fract_x
  _atom_site_fract_y
  _atom_site_fract_z
  _atom_site_occupancy
  Ga  Ga1       1.0  0.75000  0.19747  0.40536  1.0000
  Ga  Ga2       1.0  0.75000  0.69747  0.53036  1.0000
  Ga  Ga3       1.0  0.25000  0.80253  0.59464  1.0000
  Ga  Ga4       1.0  0.25000  0.30253  0.46964  1.0000
  Ga  Ga5       1.0  0.75000  0.62143  0.42437  1.0000
  Ga  Ga6       1.0  0.75000  0.12143  0.54937  1.0000
  Ga  Ga7       1.0  0.25000  0.37857  0.57563  1.0000
  Ga  Ga8       1.0  0.25000  0.87857  0.45063  1.0000
  Au  Au1       1.0  0.75000  0.59013  0.60055  1.0000
  Au  Au2       1.0  0.75000  0.09013  0.47555  1.0000
  Au  Au3       1.0  0.25000  0.40987  0.39945  1.0000
  Au  Au4       1.0  0.25000  0.90987  0.52445  1.0000
  Au  Au5       1.0  0.75000  0.90221  0.39753  1.0000
  Au  Au6       1.0  0.75000  0.40221  0.52253  1.0000
  Au  Au7       1.0  0.25000  0.09779  0.60247  1.0000
  Au  Au8       1.0  0.25000  0.59779  0.47747  1.0000
