data_image0
_chemical_formula_structural       Ca10
_chemical_formula_sum              "Ca10"
_cell_length_a       6.66002
_cell_length_b       7.43728
_cell_length_c       36.8529
_cell_angle_alpha    74.4667
_cell_angle_beta     68.8115
_cell_angle_gamma    90

_space_group_name_H-M_alt    "P 1"
_space_group_IT_number       1

loop_
  _space_group_symop_operation_xyz
  'x, y, z'

loop_
  _atom_site_type_symbol
  _atom_site_label
  _atom_site_symmetry_multiplicity
  _atom_site_fract_x
  _atom_site_fract_y
  _atom_site_fract_z
  _atom_site_occupancy
  Ca  Ca1       1.0  0.38333  0.85000  0.60000  1.0000
  Ca  Ca2       1.0  0.58333  0.25000  0.50000  1.0000
  Ca  Ca3       1.0  0.98333  0.05000  0.55000  1.0000
  Ca  Ca4       1.0  0.78333  0.65000  0.40000  1.0000
  Ca  Ca5       1.0  0.18333  0.45000  0.45000  1.0000
  Ca  Ca6       1.0  0.41667  0.75000  0.50000  1.0000
  Ca  Ca7       1.0  0.61667  0.15000  0.40000  1.0000
  Ca  Ca8       1.0  0.01667  0.95000  0.45000  1.0000
  Ca  Ca9       1.0  0.81667  0.55000  0.55000  1.0000
  Ca  Ca10      1.0  0.21667  0.35000  0.60000  1.0000
