data_image0
_chemical_formula_structural       Al6Au12
_chemical_formula_sum              "Al6 Au12"
_cell_length_a       3.29676
_cell_length_b       11.0647
_cell_length_c       37.9098
_cell_angle_alpha    56.9333
_cell_angle_beta     90
_cell_angle_gamma    90

_space_group_name_H-M_alt    "P 1"
_space_group_IT_number       1

loop_
  _space_group_symop_operation_xyz
  'x, y, z'

loop_
  _atom_site_type_symbol
  _atom_site_label
  _atom_site_symmetry_multiplicity
  _atom_site_fract_x
  _atom_site_fract_y
  _atom_site_fract_z
  _atom_site_occupancy
  Al  Al1       1.0  0.00000  0.66667  0.43750  1.0000
  Al  Al2       1.0  0.00000  0.00000  0.60417  1.0000
  Al  Al3       1.0  0.00000  0.33333  0.52083  1.0000
  Al  Al4       1.0  0.50000  0.66667  0.56250  1.0000
  Al  Al5       1.0  0.50000  0.00000  0.47917  1.0000
  Al  Al6       1.0  0.50000  0.33333  0.39583  1.0000
  Au  Au1       1.0  0.50000  0.55151  0.50492  1.0000
  Au  Au2       1.0  0.50000  0.88484  0.42159  1.0000
  Au  Au3       1.0  0.50000  0.21817  0.58825  1.0000
  Au  Au4       1.0  0.00000  0.78183  0.49508  1.0000
  Au  Au5       1.0  0.00000  0.11516  0.41175  1.0000
  Au  Au6       1.0  0.00000  0.44849  0.57841  1.0000
  Au  Au7       1.0  0.00000  0.88484  0.54659  1.0000
  Au  Au8       1.0  0.00000  0.21817  0.46325  1.0000
  Au  Au9       1.0  0.00000  0.55151  0.37992  1.0000
  Au  Au10      1.0  0.50000  0.78183  0.62008  1.0000
  Au  Au11      1.0  0.50000  0.11516  0.53675  1.0000
  Au  Au12      1.0  0.50000  0.44849  0.45341  1.0000
