data_image0
_chemical_formula_structural       Ca8Cu16Sn16
_chemical_formula_sum              "Ca8 Cu16 Sn16"
_cell_length_a       6.36912
_cell_length_b       11.2264
_cell_length_c       35.2657
_cell_angle_alpha    94.6882
_cell_angle_beta     90.7755
_cell_angle_gamma    98.3225

_space_group_name_H-M_alt    "P 1"
_space_group_IT_number       1

loop_
  _space_group_symop_operation_xyz
  'x, y, z'

loop_
  _atom_site_type_symbol
  _atom_site_label
  _atom_site_symmetry_multiplicity
  _atom_site_fract_x
  _atom_site_fract_y
  _atom_site_fract_z
  _atom_site_occupancy
  Ca  Ca1       1.0  0.91250  0.41250  0.58750  1.0000
  Ca  Ca2       1.0  0.49583  0.49583  0.50417  1.0000
  Ca  Ca3       1.0  0.20417  0.95417  0.54583  1.0000
  Ca  Ca4       1.0  0.62083  0.87083  0.62917  1.0000
  Ca  Ca5       1.0  0.07917  0.57917  0.42083  1.0000
  Ca  Ca6       1.0  0.66250  0.66250  0.33750  1.0000
  Ca  Ca7       1.0  0.37083  0.12083  0.37917  1.0000
  Ca  Ca8       1.0  0.78750  0.03750  0.46250  1.0000
  Cu  Cu1       1.0  0.15912  0.57923  0.65752  1.0000
  Cu  Cu2       1.0  0.74245  0.66256  0.57418  1.0000
  Cu  Cu3       1.0  0.37421  0.70411  0.55915  1.0000
  Cu  Cu4       1.0  0.79088  0.62077  0.64248  1.0000
  Cu  Cu5       1.0  0.03412  0.20423  0.53252  1.0000
  Cu  Cu6       1.0  0.45079  0.12089  0.61585  1.0000
  Cu  Cu7       1.0  0.66588  0.24577  0.51748  1.0000
  Cu  Cu8       1.0  0.08255  0.16244  0.60082  1.0000
  Cu  Cu9       1.0  0.32579  0.74589  0.49085  1.0000
  Cu  Cu10      1.0  0.90912  0.82923  0.40752  1.0000
  Cu  Cu11      1.0  0.54088  0.87077  0.39248  1.0000
  Cu  Cu12      1.0  0.95755  0.78744  0.47582  1.0000
  Cu  Cu13      1.0  0.20079  0.37089  0.36585  1.0000
  Cu  Cu14      1.0  0.61745  0.28756  0.44918  1.0000
  Cu  Cu15      1.0  0.83255  0.41244  0.35082  1.0000
  Cu  Cu16      1.0  0.24921  0.32911  0.43415  1.0000
  Sn  Sn1       1.0  0.10490  0.74597  0.61101  1.0000
  Sn  Sn2       1.0  0.68823  0.82931  0.52768  1.0000
  Sn  Sn3       1.0  0.42843  0.53736  0.60565  1.0000
  Sn  Sn4       1.0  0.01177  0.62069  0.52232  1.0000
  Sn  Sn5       1.0  0.39657  0.28764  0.56935  1.0000
  Sn  Sn6       1.0  0.81323  0.20431  0.65268  1.0000
  Sn  Sn7       1.0  0.13677  0.99569  0.64732  1.0000
  Sn  Sn8       1.0  0.72010  0.07903  0.56399  1.0000
  Sn  Sn9       1.0  0.27157  0.91264  0.44435  1.0000
  Sn  Sn10      1.0  0.85490  0.99597  0.36101  1.0000
  Sn  Sn11      1.0  0.59510  0.70403  0.43899  1.0000
  Sn  Sn12      1.0  0.17843  0.78736  0.35565  1.0000
  Sn  Sn13      1.0  0.56323  0.45431  0.40268  1.0000
  Sn  Sn14      1.0  0.97990  0.37097  0.48601  1.0000
  Sn  Sn15      1.0  0.30343  0.16236  0.48065  1.0000
  Sn  Sn16      1.0  0.88677  0.24569  0.39732  1.0000
