data_image0
_chemical_formula_structural       Ca8Zn8Ca8Zn8
_chemical_formula_sum              "Ca16 Zn16"
_cell_length_a       14.0679
_cell_length_b       6.00981
_cell_length_c       36.0589
_cell_angle_alpha    89.7168
_cell_angle_beta     115.156
_cell_angle_gamma    64.8437

_space_group_name_H-M_alt    "P 1"
_space_group_IT_number       1

loop_
  _space_group_symop_operation_xyz
  'x, y, z'

loop_
  _atom_site_type_symbol
  _atom_site_label
  _atom_site_symmetry_multiplicity
  _atom_site_fract_x
  _atom_site_fract_y
  _atom_site_fract_z
  _atom_site_occupancy
  Ca  Ca1       1.0  0.85419  0.52081  0.35070  1.0000
  Ca  Ca2       1.0  0.85419  0.02081  0.43403  1.0000
  Ca  Ca3       1.0  0.64581  0.22919  0.48263  1.0000
  Ca  Ca4       1.0  0.64581  0.72919  0.39930  1.0000
  Ca  Ca5       1.0  0.35419  0.77081  0.47570  1.0000
  Ca  Ca6       1.0  0.35419  0.27081  0.39237  1.0000
  Ca  Ca7       1.0  0.14581  0.97919  0.35763  1.0000
  Ca  Ca8       1.0  0.14581  0.47919  0.44097  1.0000
  Zn  Zn1       1.0  0.56508  0.80992  0.46918  1.0000
  Zn  Zn2       1.0  0.56508  0.30992  0.38585  1.0000
  Zn  Zn3       1.0  0.93492  0.94008  0.36415  1.0000
  Zn  Zn4       1.0  0.93492  0.44008  0.44749  1.0000
  Zn  Zn5       1.0  0.06508  0.05992  0.42751  1.0000
  Zn  Zn6       1.0  0.06508  0.55992  0.34418  1.0000
  Zn  Zn7       1.0  0.43492  0.69008  0.40582  1.0000
  Zn  Zn8       1.0  0.43492  0.19008  0.48915  1.0000
  Ca  Ca9       1.0  0.85419  0.52081  0.51737  1.0000
  Ca  Ca10      1.0  0.85419  0.02081  0.60070  1.0000
  Ca  Ca11      1.0  0.64581  0.22919  0.64930  1.0000
  Ca  Ca12      1.0  0.64581  0.72919  0.56597  1.0000
  Ca  Ca13      1.0  0.35419  0.77081  0.64237  1.0000
  Ca  Ca14      1.0  0.35419  0.27081  0.55903  1.0000
  Ca  Ca15      1.0  0.14581  0.97919  0.52430  1.0000
  Ca  Ca16      1.0  0.14581  0.47919  0.60763  1.0000
  Zn  Zn9       1.0  0.56508  0.80992  0.63585  1.0000
  Zn  Zn10      1.0  0.56508  0.30992  0.55251  1.0000
  Zn  Zn11      1.0  0.93492  0.94008  0.53082  1.0000
  Zn  Zn12      1.0  0.93492  0.44008  0.61415  1.0000
  Zn  Zn13      1.0  0.06508  0.05992  0.59418  1.0000
  Zn  Zn14      1.0  0.06508  0.55992  0.51085  1.0000
  Zn  Zn15      1.0  0.43492  0.69008  0.57249  1.0000
  Zn  Zn16      1.0  0.43492  0.19008  0.65582  1.0000
