data_image0
_chemical_formula_structural       Ru8
_chemical_formula_sum              "Ru8"
_cell_length_a       2.68456
_cell_length_b       5.01636
_cell_length_c       35.1145
_cell_angle_alpha    64.7097
_cell_angle_beta     105.52
_cell_angle_gamma    74.4797

_space_group_name_H-M_alt    "P 1"
_space_group_IT_number       1

loop_
  _space_group_symop_operation_xyz
  'x, y, z'

loop_
  _atom_site_type_symbol
  _atom_site_label
  _atom_site_symmetry_multiplicity
  _atom_site_fract_x
  _atom_site_fract_y
  _atom_site_fract_z
  _atom_site_occupancy
  Ru  Ru1       1.0  0.33333  0.79167  0.42262  1.0000
  Ru  Ru2       1.0  0.33333  0.29167  0.49405  1.0000
  Ru  Ru3       1.0  0.66667  0.20833  0.43452  1.0000
  Ru  Ru4       1.0  0.66667  0.70833  0.36310  1.0000
  Ru  Ru5       1.0  0.33333  0.79167  0.56548  1.0000
  Ru  Ru6       1.0  0.33333  0.29167  0.63690  1.0000
  Ru  Ru7       1.0  0.66667  0.20833  0.57738  1.0000
  Ru  Ru8       1.0  0.66667  0.70833  0.50595  1.0000
