data_image0
_chemical_formula_structural       Ca2Cu4Sn4Ca2Cu4Sn4
_chemical_formula_sum              "Ca4 Cu8 Sn8"
_cell_length_a       10.8282
_cell_length_b       4.80148
_cell_length_c       29.2927
_cell_angle_alpha    90
_cell_angle_beta     90
_cell_angle_gamma    107.799

_space_group_name_H-M_alt    "P 1"
_space_group_IT_number       1

loop_
  _space_group_symop_operation_xyz
  'x, y, z'

loop_
  _atom_site_type_symbol
  _atom_site_label
  _atom_site_symmetry_multiplicity
  _atom_site_fract_x
  _atom_site_fract_y
  _atom_site_fract_z
  _atom_site_occupancy
  Ca  Ca1       1.0  0.00000  0.00000  0.46429  1.0000
  Ca  Ca2       1.0  0.50000  0.00000  0.39286  1.0000
  Cu  Cu1       1.0  0.76325  0.86673  0.39286  1.0000
  Cu  Cu2       1.0  0.73675  0.13327  0.46429  1.0000
  Cu  Cu3       1.0  0.26325  0.86673  0.46429  1.0000
  Cu  Cu4       1.0  0.23675  0.13327  0.39286  1.0000
  Sn  Sn1       1.0  0.64301  0.56818  0.46429  1.0000
  Sn  Sn2       1.0  0.85699  0.43182  0.39286  1.0000
  Sn  Sn3       1.0  0.14301  0.56818  0.39286  1.0000
  Sn  Sn4       1.0  0.35699  0.43182  0.46429  1.0000
  Ca  Ca3       1.0  0.00000  0.00000  0.60714  1.0000
  Ca  Ca4       1.0  0.50000  0.00000  0.53571  1.0000
  Cu  Cu5       1.0  0.76325  0.86673  0.53571  1.0000
  Cu  Cu6       1.0  0.73675  0.13327  0.60714  1.0000
  Cu  Cu7       1.0  0.26325  0.86673  0.60714  1.0000
  Cu  Cu8       1.0  0.23675  0.13327  0.53571  1.0000
  Sn  Sn5       1.0  0.64301  0.56818  0.60714  1.0000
  Sn  Sn6       1.0  0.85699  0.43182  0.53571  1.0000
  Sn  Sn7       1.0  0.14301  0.56818  0.53571  1.0000
  Sn  Sn8       1.0  0.35699  0.43182  0.60714  1.0000
