data_image0
_chemical_formula_structural       Ga6Ni4Ga6Ni4Ga6Ni4Ga6Ni4
_chemical_formula_sum              "Ga24 Ni16"
_cell_length_a       4.03249
_cell_length_b       10.4258
_cell_length_c       44.3573
_cell_angle_alpha    112.754
_cell_angle_beta     120
_cell_angle_gamma    78.8494

_space_group_name_H-M_alt    "P 1"
_space_group_IT_number       1

loop_
  _space_group_symop_operation_xyz
  'x, y, z'

loop_
  _atom_site_type_symbol
  _atom_site_label
  _atom_site_symmetry_multiplicity
  _atom_site_fract_x
  _atom_site_fract_y
  _atom_site_fract_z
  _atom_site_occupancy
  Ga  Ga1       1.0  0.00000  0.00000  0.38636  1.0000
  Ga  Ga2       1.0  0.00000  0.50000  0.34091  1.0000
  Ga  Ga3       1.0  0.66667  0.31913  0.35477  1.0000
  Ga  Ga4       1.0  0.66667  0.81913  0.40022  1.0000
  Ga  Ga5       1.0  0.33333  0.18087  0.37250  1.0000
  Ga  Ga6       1.0  0.33333  0.68087  0.32705  1.0000
  Ni  Ni1       1.0  0.66667  0.06818  0.33196  1.0000
  Ni  Ni2       1.0  0.66667  0.56818  0.37741  1.0000
  Ni  Ni3       1.0  0.33333  0.43182  0.39532  1.0000
  Ni  Ni4       1.0  0.33333  0.93182  0.34986  1.0000
  Ga  Ga7       1.0  0.00000  0.00000  0.47727  1.0000
  Ga  Ga8       1.0  0.00000  0.50000  0.43182  1.0000
  Ga  Ga9       1.0  0.66667  0.31913  0.44568  1.0000
  Ga  Ga10      1.0  0.66667  0.81913  0.49113  1.0000
  Ga  Ga11      1.0  0.33333  0.18087  0.46341  1.0000
  Ga  Ga12      1.0  0.33333  0.68087  0.41796  1.0000
  Ni  Ni5       1.0  0.66667  0.06818  0.42287  1.0000
  Ni  Ni6       1.0  0.66667  0.56818  0.46832  1.0000
  Ni  Ni7       1.0  0.33333  0.43182  0.48623  1.0000
  Ni  Ni8       1.0  0.33333  0.93182  0.44077  1.0000
  Ga  Ga13      1.0  0.00000  0.00000  0.56818  1.0000
  Ga  Ga14      1.0  0.00000  0.50000  0.52273  1.0000
  Ga  Ga15      1.0  0.66667  0.31913  0.53659  1.0000
  Ga  Ga16      1.0  0.66667  0.81913  0.58204  1.0000
  Ga  Ga17      1.0  0.33333  0.18087  0.55432  1.0000
  Ga  Ga18      1.0  0.33333  0.68087  0.50887  1.0000
  Ni  Ni9       1.0  0.66667  0.06818  0.51377  1.0000
  Ni  Ni10      1.0  0.66667  0.56818  0.55923  1.0000
  Ni  Ni11      1.0  0.33333  0.43182  0.57713  1.0000
  Ni  Ni12      1.0  0.33333  0.93182  0.53168  1.0000
  Ga  Ga19      1.0  0.00000  0.00000  0.65909  1.0000
  Ga  Ga20      1.0  0.00000  0.50000  0.61364  1.0000
  Ga  Ga21      1.0  0.66667  0.31913  0.62750  1.0000
  Ga  Ga22      1.0  0.66667  0.81913  0.67295  1.0000
  Ga  Ga23      1.0  0.33333  0.18087  0.64523  1.0000
  Ga  Ga24      1.0  0.33333  0.68087  0.59978  1.0000
  Ni  Ni13      1.0  0.66667  0.06818  0.60468  1.0000
  Ni  Ni14      1.0  0.66667  0.56818  0.65014  1.0000
  Ni  Ni15      1.0  0.33333  0.43182  0.66804  1.0000
  Ni  Ni16      1.0  0.33333  0.93182  0.62259  1.0000
