data_image0
_chemical_formula_structural       Ni8Si16
_chemical_formula_sum              "Ni8 Si16"
_cell_length_a       3.81296
_cell_length_b       9.33981
_cell_length_c       35.36
_cell_angle_alpha    95.0512
_cell_angle_beta     90
_cell_angle_gamma    90

_space_group_name_H-M_alt    "P 1"
_space_group_IT_number       1

loop_
  _space_group_symop_operation_xyz
  'x, y, z'

loop_
  _atom_site_type_symbol
  _atom_site_label
  _atom_site_symmetry_multiplicity
  _atom_site_fract_x
  _atom_site_fract_y
  _atom_site_fract_z
  _atom_site_occupancy
  Ni  Ni1       1.0  0.00000  0.39062  0.60938  1.0000
  Ni  Ni2       1.0  0.00000  0.32812  0.42188  1.0000
  Ni  Ni3       1.0  0.00000  0.01562  0.48438  1.0000
  Ni  Ni4       1.0  0.00000  0.70312  0.54688  1.0000
  Ni  Ni5       1.0  0.50000  0.67188  0.45312  1.0000
  Ni  Ni6       1.0  0.50000  0.35938  0.51562  1.0000
  Ni  Ni7       1.0  0.50000  0.04688  0.57813  1.0000
  Ni  Ni8       1.0  0.50000  0.98437  0.39062  1.0000
  Si  Si1       1.0  0.00000  0.57812  0.42188  1.0000
  Si  Si2       1.0  0.00000  0.26562  0.48438  1.0000
  Si  Si3       1.0  0.00000  0.95312  0.54688  1.0000
  Si  Si4       1.0  0.00000  0.64062  0.60938  1.0000
  Si  Si5       1.0  0.50000  0.42188  0.45312  1.0000
  Si  Si6       1.0  0.50000  0.10937  0.51562  1.0000
  Si  Si7       1.0  0.50000  0.79688  0.57812  1.0000
  Si  Si8       1.0  0.50000  0.73438  0.39062  1.0000
  Si  Si9       1.0  0.50000  0.60938  0.51562  1.0000
  Si  Si10      1.0  0.50000  0.29688  0.57813  1.0000
  Si  Si11      1.0  0.50000  0.23438  0.39062  1.0000
  Si  Si12      1.0  0.50000  0.92188  0.45312  1.0000
  Si  Si13      1.0  0.00000  0.76562  0.48438  1.0000
  Si  Si14      1.0  0.00000  0.45312  0.54688  1.0000
  Si  Si15      1.0  0.00000  0.14062  0.60938  1.0000
  Si  Si16      1.0  0.00000  0.07812  0.42188  1.0000
