data_image0
_chemical_formula_structural       Ca2Cu4Sn4
_chemical_formula_sum              "Ca2 Cu4 Sn4"
_cell_length_a       4.18468
_cell_length_b       4.80148
_cell_length_c       31.2519
_cell_angle_alpha    81.7678
_cell_angle_beta     90
_cell_angle_gamma    90

_space_group_name_H-M_alt    "P 1"
_space_group_IT_number       1

loop_
  _space_group_symop_operation_xyz
  'x, y, z'

loop_
  _atom_site_type_symbol
  _atom_site_label
  _atom_site_symmetry_multiplicity
  _atom_site_fract_x
  _atom_site_fract_y
  _atom_site_fract_z
  _atom_site_occupancy
  Ca  Ca1       1.0  0.00000  0.00000  0.65000  1.0000
  Ca  Ca2       1.0  0.50000  0.50000  0.48333  1.0000
  Cu  Cu1       1.0  0.50000  0.89653  0.39558  1.0000
  Cu  Cu2       1.0  0.00000  0.60347  0.40442  1.0000
  Cu  Cu3       1.0  0.00000  0.39653  0.56225  1.0000
  Cu  Cu4       1.0  0.50000  0.10347  0.57108  1.0000
  Sn  Sn1       1.0  0.00000  0.07484  0.43566  1.0000
  Sn  Sn2       1.0  0.50000  0.42516  0.36434  1.0000
  Sn  Sn3       1.0  0.50000  0.57484  0.60233  1.0000
  Sn  Sn4       1.0  0.00000  0.92516  0.53100  1.0000
