data_image0
_chemical_formula_structural       Ni4Sb4Ni4Sb4Ni4Sb4Ni4Sb4
_chemical_formula_sum              "Ni16 Sb16"
_cell_length_a       3.91318
_cell_length_b       10.885
_cell_length_c       43.045
_cell_angle_alpha    111.07
_cell_angle_beta     120
_cell_angle_gamma    79.6447

_space_group_name_H-M_alt    "P 1"
_space_group_IT_number       1

loop_
  _space_group_symop_operation_xyz
  'x, y, z'

loop_
  _atom_site_type_symbol
  _atom_site_label
  _atom_site_symmetry_multiplicity
  _atom_site_fract_x
  _atom_site_fract_y
  _atom_site_fract_z
  _atom_site_occupancy
  Ni  Ni1       1.0  0.00000  0.00000  0.39205  1.0000
  Ni  Ni2       1.0  0.00000  0.50000  0.34659  1.0000
  Ni  Ni3       1.0  0.00000  0.25000  0.32386  1.0000
  Ni  Ni4       1.0  0.00000  0.75000  0.36932  1.0000
  Sb  Sb1       1.0  0.66667  0.12500  0.34280  1.0000
  Sb  Sb2       1.0  0.66667  0.62500  0.38826  1.0000
  Sb  Sb3       1.0  0.33333  0.37500  0.39583  1.0000
  Sb  Sb4       1.0  0.33333  0.87500  0.35038  1.0000
  Ni  Ni5       1.0  0.00000  0.00000  0.48295  1.0000
  Ni  Ni6       1.0  0.00000  0.50000  0.43750  1.0000
  Ni  Ni7       1.0  0.00000  0.25000  0.41477  1.0000
  Ni  Ni8       1.0  0.00000  0.75000  0.46023  1.0000
  Sb  Sb5       1.0  0.66667  0.12500  0.43371  1.0000
  Sb  Sb6       1.0  0.66667  0.62500  0.47917  1.0000
  Sb  Sb7       1.0  0.33333  0.37500  0.48674  1.0000
  Sb  Sb8       1.0  0.33333  0.87500  0.44129  1.0000
  Ni  Ni9       1.0  0.00000  0.00000  0.57386  1.0000
  Ni  Ni10      1.0  0.00000  0.50000  0.52841  1.0000
  Ni  Ni11      1.0  0.00000  0.25000  0.50568  1.0000
  Ni  Ni12      1.0  0.00000  0.75000  0.55114  1.0000
  Sb  Sb9       1.0  0.66667  0.12500  0.52462  1.0000
  Sb  Sb10      1.0  0.66667  0.62500  0.57008  1.0000
  Sb  Sb11      1.0  0.33333  0.37500  0.57765  1.0000
  Sb  Sb12      1.0  0.33333  0.87500  0.53220  1.0000
  Ni  Ni13      1.0  0.00000  0.00000  0.66477  1.0000
  Ni  Ni14      1.0  0.00000  0.50000  0.61932  1.0000
  Ni  Ni15      1.0  0.00000  0.25000  0.59659  1.0000
  Ni  Ni16      1.0  0.00000  0.75000  0.64205  1.0000
  Sb  Sb13      1.0  0.66667  0.12500  0.61553  1.0000
  Sb  Sb14      1.0  0.66667  0.62500  0.66098  1.0000
  Sb  Sb15      1.0  0.33333  0.37500  0.66856  1.0000
  Sb  Sb16      1.0  0.33333  0.87500  0.62311  1.0000
