data_image0
_chemical_formula_structural       Ge8Na16Zn8
_chemical_formula_sum              "Ge8 Na16 Zn8"
_cell_length_a       5.83978
_cell_length_b       12.8851
_cell_length_c       34.6766
_cell_angle_alpha    95.2989
_cell_angle_beta     94.1522
_cell_angle_gamma    101.237

_space_group_name_H-M_alt    "P 1"
_space_group_IT_number       1

loop_
  _space_group_symop_operation_xyz
  'x, y, z'

loop_
  _atom_site_type_symbol
  _atom_site_label
  _atom_site_symmetry_multiplicity
  _atom_site_fract_x
  _atom_site_fract_y
  _atom_site_fract_z
  _atom_site_occupancy
  Ge  Ge1       1.0  0.22807  0.63346  0.48058  1.0000
  Ge  Ge2       1.0  0.22807  0.20489  0.40915  1.0000
  Ge  Ge3       1.0  0.77193  0.50940  0.37657  1.0000
  Ge  Ge4       1.0  0.77193  0.93797  0.44799  1.0000
  Ge  Ge5       1.0  0.22807  0.49060  0.62343  1.0000
  Ge  Ge6       1.0  0.22807  0.06203  0.55201  1.0000
  Ge  Ge7       1.0  0.77193  0.36654  0.51942  1.0000
  Ge  Ge8       1.0  0.77193  0.79511  0.59085  1.0000
  Na  Na1       1.0  0.68159  0.55031  0.46672  1.0000
  Na  Na2       1.0  0.68159  0.12174  0.39529  1.0000
  Na  Na3       1.0  0.31841  0.59255  0.39042  1.0000
  Na  Na4       1.0  0.31841  0.02112  0.46185  1.0000
  Na  Na5       1.0  0.96595  0.17218  0.48703  1.0000
  Na  Na6       1.0  0.96595  0.74361  0.41560  1.0000
  Na  Na7       1.0  0.03405  0.97068  0.37011  1.0000
  Na  Na8       1.0  0.03405  0.39925  0.44154  1.0000
  Na  Na9       1.0  0.68159  0.40745  0.60958  1.0000
  Na  Na10      1.0  0.68159  0.97888  0.53815  1.0000
  Na  Na11      1.0  0.31841  0.44969  0.53328  1.0000
  Na  Na12      1.0  0.31841  0.87826  0.60471  1.0000
  Na  Na13      1.0  0.96595  0.02932  0.62989  1.0000
  Na  Na14      1.0  0.96595  0.60075  0.55846  1.0000
  Na  Na15      1.0  0.03405  0.82782  0.51297  1.0000
  Na  Na16      1.0  0.03405  0.25639  0.58440  1.0000
  Zn  Zn1       1.0  0.50000  0.28571  0.46429  1.0000
  Zn  Zn2       1.0  0.50000  0.85714  0.39286  1.0000
  Zn  Zn3       1.0  0.50000  0.35714  0.39286  1.0000
  Zn  Zn4       1.0  0.50000  0.78571  0.46429  1.0000
  Zn  Zn5       1.0  0.50000  0.14286  0.60714  1.0000
  Zn  Zn6       1.0  0.50000  0.71429  0.53571  1.0000
  Zn  Zn7       1.0  0.50000  0.21429  0.53571  1.0000
  Zn  Zn8       1.0  0.50000  0.64286  0.60714  1.0000
