data_image0
_chemical_formula_structural       Ti4Al8
_chemical_formula_sum              "Ti4 Al8"
_cell_length_a       3.89922
_cell_length_b       3.97089
_cell_length_c       36.1707
_cell_angle_alpha    90
_cell_angle_beta     90
_cell_angle_gamma    90

_space_group_name_H-M_alt    "P 1"
_space_group_IT_number       1

loop_
  _space_group_symop_operation_xyz
  'x, y, z'

loop_
  _atom_site_type_symbol
  _atom_site_label
  _atom_site_symmetry_multiplicity
  _atom_site_fract_x
  _atom_site_fract_y
  _atom_site_fract_z
  _atom_site_occupancy
  Ti  Ti1       1.0  0.50000  0.00000  0.53133  1.0000
  Ti  Ti2       1.0  0.00000  0.00000  0.46867  1.0000
  Ti  Ti3       1.0  0.00000  0.00000  0.36466  1.0000
  Ti  Ti4       1.0  0.50000  0.00000  0.63534  1.0000
  Al  Al1       1.0  0.00000  0.00000  0.58333  1.0000
  Al  Al2       1.0  0.50000  0.50000  0.58333  1.0000
  Al  Al3       1.0  0.50000  0.50000  0.47431  1.0000
  Al  Al4       1.0  0.00000  0.50000  0.52569  1.0000
  Al  Al5       1.0  0.50000  0.00000  0.41667  1.0000
  Al  Al6       1.0  0.00000  0.50000  0.41667  1.0000
  Al  Al7       1.0  0.00000  0.50000  0.64097  1.0000
  Al  Al8       1.0  0.50000  0.50000  0.35903  1.0000
