data_image0
_chemical_formula_structural       Mn8Rh16Sb8
_chemical_formula_sum              "Mn8 Rh16 Sb8"
_cell_length_a       5.36525
_cell_length_b       6.70907
_cell_length_c       38.7102
_cell_angle_alpha    85.9531
_cell_angle_beta     86.1008
_cell_angle_gamma    84.1551

_space_group_name_H-M_alt    "P 1"
_space_group_IT_number       1

loop_
  _space_group_symop_operation_xyz
  'x, y, z'

loop_
  _atom_site_type_symbol
  _atom_site_label
  _atom_site_symmetry_multiplicity
  _atom_site_fract_x
  _atom_site_fract_y
  _atom_site_fract_z
  _atom_site_occupancy
  Mn  Mn1       1.0  0.51042  0.02083  0.48958  1.0000
  Mn  Mn2       1.0  0.13542  0.02083  0.36458  1.0000
  Mn  Mn3       1.0  0.59375  0.68750  0.40625  1.0000
  Mn  Mn4       1.0  0.05208  0.35417  0.44792  1.0000
  Mn  Mn5       1.0  0.34375  0.68750  0.65625  1.0000
  Mn  Mn6       1.0  0.96875  0.68750  0.53125  1.0000
  Mn  Mn7       1.0  0.42708  0.35417  0.57292  1.0000
  Mn  Mn8       1.0  0.88542  0.02083  0.61458  1.0000
  Rh  Rh1       1.0  0.63542  0.02083  0.36458  1.0000
  Rh  Rh2       1.0  0.09375  0.68750  0.40625  1.0000
  Rh  Rh3       1.0  0.55208  0.35417  0.44792  1.0000
  Rh  Rh4       1.0  0.01042  0.02083  0.48958  1.0000
  Rh  Rh5       1.0  0.86458  0.35417  0.38542  1.0000
  Rh  Rh6       1.0  0.32292  0.02083  0.42708  1.0000
  Rh  Rh7       1.0  0.78125  0.68750  0.46875  1.0000
  Rh  Rh8       1.0  0.40625  0.68750  0.34375  1.0000
  Rh  Rh9       1.0  0.46875  0.68750  0.53125  1.0000
  Rh  Rh10      1.0  0.92708  0.35417  0.57292  1.0000
  Rh  Rh11      1.0  0.38542  0.02083  0.61458  1.0000
  Rh  Rh12      1.0  0.84375  0.68750  0.65625  1.0000
  Rh  Rh13      1.0  0.69792  0.02083  0.55208  1.0000
  Rh  Rh14      1.0  0.15625  0.68750  0.59375  1.0000
  Rh  Rh15      1.0  0.61458  0.35417  0.63542  1.0000
  Rh  Rh16      1.0  0.23958  0.35417  0.51042  1.0000
  Sb  Sb1       1.0  0.36458  0.35417  0.38542  1.0000
  Sb  Sb2       1.0  0.82292  0.02083  0.42708  1.0000
  Sb  Sb3       1.0  0.28125  0.68750  0.46875  1.0000
  Sb  Sb4       1.0  0.90625  0.68750  0.34375  1.0000
  Sb  Sb5       1.0  0.19792  0.02083  0.55208  1.0000
  Sb  Sb6       1.0  0.65625  0.68750  0.59375  1.0000
  Sb  Sb7       1.0  0.11458  0.35417  0.63542  1.0000
  Sb  Sb8       1.0  0.73958  0.35417  0.51042  1.0000
