data_image0
_chemical_formula_structural       Nb4As8Nb4As8Nb4As8
_chemical_formula_sum              "Nb12 As24"
_cell_length_a       9.34353
_cell_length_b       8.49538
_cell_length_c       33.7862
_cell_angle_alpha    113.435
_cell_angle_beta     90
_cell_angle_gamma    116.758

_space_group_name_H-M_alt    "P 1"
_space_group_IT_number       1

loop_
  _space_group_symop_operation_xyz
  'x, y, z'

loop_
  _atom_site_type_symbol
  _atom_site_label
  _atom_site_symmetry_multiplicity
  _atom_site_fract_x
  _atom_site_fract_y
  _atom_site_fract_z
  _atom_site_occupancy
  Nb  Nb1       1.0  0.15694  0.19606  0.43627  1.0000
  Nb  Nb2       1.0  0.84306  0.80394  0.39706  1.0000
  Nb  Nb3       1.0  0.65694  0.19606  0.38627  1.0000
  Nb  Nb4       1.0  0.34306  0.80394  0.44706  1.0000
  As  As1       1.0  0.35855  0.47143  0.41381  1.0000
  As  As2       1.0  0.64145  0.52857  0.41952  1.0000
  As  As3       1.0  0.59494  0.89322  0.40599  1.0000
  As  As4       1.0  0.40506  0.10678  0.42734  1.0000
  As  As5       1.0  0.85855  0.47143  0.36381  1.0000
  As  As6       1.0  0.14145  0.52857  0.36952  1.0000
  As  As7       1.0  0.09494  0.89322  0.35599  1.0000
  As  As8       1.0  0.90506  0.10678  0.37734  1.0000
  Nb  Nb5       1.0  0.15694  0.19606  0.53627  1.0000
  Nb  Nb6       1.0  0.84306  0.80394  0.49706  1.0000
  Nb  Nb7       1.0  0.65694  0.19606  0.48627  1.0000
  Nb  Nb8       1.0  0.34306  0.80394  0.54706  1.0000
  As  As9       1.0  0.35855  0.47143  0.51381  1.0000
  As  As10      1.0  0.64145  0.52857  0.51952  1.0000
  As  As11      1.0  0.59494  0.89322  0.50599  1.0000
  As  As12      1.0  0.40506  0.10678  0.52734  1.0000
  As  As13      1.0  0.85855  0.47143  0.46381  1.0000
  As  As14      1.0  0.14145  0.52857  0.46952  1.0000
  As  As15      1.0  0.09494  0.89322  0.45599  1.0000
  As  As16      1.0  0.90506  0.10678  0.47734  1.0000
  Nb  Nb9       1.0  0.15694  0.19606  0.63627  1.0000
  Nb  Nb10      1.0  0.84306  0.80394  0.59706  1.0000
  Nb  Nb11      1.0  0.65694  0.19606  0.58627  1.0000
  Nb  Nb12      1.0  0.34306  0.80394  0.64706  1.0000
  As  As17      1.0  0.35855  0.47143  0.61381  1.0000
  As  As18      1.0  0.64145  0.52857  0.61952  1.0000
  As  As19      1.0  0.59494  0.89322  0.60599  1.0000
  As  As20      1.0  0.40506  0.10678  0.62734  1.0000
  As  As21      1.0  0.85855  0.47143  0.56381  1.0000
  As  As22      1.0  0.14145  0.52857  0.56952  1.0000
  As  As23      1.0  0.09494  0.89322  0.55599  1.0000
  As  As24      1.0  0.90506  0.10678  0.57734  1.0000
