data_image0
_chemical_formula_structural       Co8Ga4Ni4
_chemical_formula_sum              "Co8 Ga4 Ni4"
_cell_length_a       4.29033
_cell_length_b       4.29033
_cell_length_c       34.8507
_cell_angle_alpha    90
_cell_angle_beta     90
_cell_angle_gamma    109.068

_space_group_name_H-M_alt    "P 1"
_space_group_IT_number       1

loop_
  _space_group_symop_operation_xyz
  'x, y, z'

loop_
  _atom_site_type_symbol
  _atom_site_label
  _atom_site_symmetry_multiplicity
  _atom_site_fract_x
  _atom_site_fract_y
  _atom_site_fract_z
  _atom_site_occupancy
  Co  Co1       1.0  0.00000  0.50000  0.37500  1.0000
  Co  Co2       1.0  0.50000  0.00000  0.44643  1.0000
  Co  Co3       1.0  0.50000  0.00000  0.37500  1.0000
  Co  Co4       1.0  0.00000  0.50000  0.44643  1.0000
  Co  Co5       1.0  0.00000  0.50000  0.51786  1.0000
  Co  Co6       1.0  0.50000  0.00000  0.58929  1.0000
  Co  Co7       1.0  0.50000  0.00000  0.51786  1.0000
  Co  Co8       1.0  0.00000  0.50000  0.58929  1.0000
  Ga  Ga1       1.0  0.50000  0.50000  0.41071  1.0000
  Ga  Ga2       1.0  0.00000  0.00000  0.48214  1.0000
  Ga  Ga3       1.0  0.50000  0.50000  0.55357  1.0000
  Ga  Ga4       1.0  0.00000  0.00000  0.62500  1.0000
  Ni  Ni1       1.0  0.50000  0.50000  0.48214  1.0000
  Ni  Ni2       1.0  0.00000  0.00000  0.41071  1.0000
  Ni  Ni3       1.0  0.50000  0.50000  0.62500  1.0000
  Ni  Ni4       1.0  0.00000  0.00000  0.55357  1.0000
