data_image0
_chemical_formula_structural       H16Ti8
_chemical_formula_sum              "H16 Ti8"
_cell_length_a       3.06788
_cell_length_b       4.4697
_cell_length_c       36.7542
_cell_angle_alpha    90
_cell_angle_beta     91.2631
_cell_angle_gamma    90

_space_group_name_H-M_alt    "P 1"
_space_group_IT_number       1

loop_
  _space_group_symop_operation_xyz
  'x, y, z'

loop_
  _atom_site_type_symbol
  _atom_site_label
  _atom_site_symmetry_multiplicity
  _atom_site_fract_x
  _atom_site_fract_y
  _atom_site_fract_z
  _atom_site_occupancy
  H   H1        1.0  0.89583  0.75000  0.39583  1.0000
  H   H2        1.0  0.43750  0.25000  0.43750  1.0000
  H   H3        1.0  0.35417  0.25000  0.35417  1.0000
  H   H4        1.0  0.97917  0.75000  0.47917  1.0000
  H   H5        1.0  0.89583  0.25000  0.39583  1.0000
  H   H6        1.0  0.43750  0.75000  0.43750  1.0000
  H   H7        1.0  0.35417  0.75000  0.35417  1.0000
  H   H8        1.0  0.97917  0.25000  0.47917  1.0000
  H   H9        1.0  0.06250  0.75000  0.56250  1.0000
  H   H10       1.0  0.60417  0.25000  0.60417  1.0000
  H   H11       1.0  0.52083  0.25000  0.52083  1.0000
  H   H12       1.0  0.14583  0.75000  0.64583  1.0000
  H   H13       1.0  0.06250  0.25000  0.56250  1.0000
  H   H14       1.0  0.60417  0.75000  0.60417  1.0000
  H   H15       1.0  0.52083  0.75000  0.52083  1.0000
  H   H16       1.0  0.14583  0.25000  0.64583  1.0000
  Ti  Ti1       1.0  0.85417  0.50000  0.35417  1.0000
  Ti  Ti2       1.0  0.39583  0.00000  0.39583  1.0000
  Ti  Ti3       1.0  0.47917  0.00000  0.47917  1.0000
  Ti  Ti4       1.0  0.93750  0.50000  0.43750  1.0000
  Ti  Ti5       1.0  0.02083  0.50000  0.52083  1.0000
  Ti  Ti6       1.0  0.56250  0.00000  0.56250  1.0000
  Ti  Ti7       1.0  0.64583  0.00000  0.64583  1.0000
  Ti  Ti8       1.0  0.10417  0.50000  0.60417  1.0000
