data_image0
_chemical_formula_structural       Ca3Zn15Ca3Zn15
_chemical_formula_sum              "Ca6 Zn30"
_cell_length_a       4.16542
_cell_length_b       13.9857
_cell_length_c       31.7167
_cell_angle_alpha    79.1066
_cell_angle_beta     90
_cell_angle_gamma    90

_space_group_name_H-M_alt    "P 1"
_space_group_IT_number       1

loop_
  _space_group_symop_operation_xyz
  'x, y, z'

loop_
  _atom_site_type_symbol
  _atom_site_label
  _atom_site_symmetry_multiplicity
  _atom_site_fract_x
  _atom_site_fract_y
  _atom_site_fract_z
  _atom_site_occupancy
  Ca  Ca1       1.0  0.00000  0.66667  0.40741  1.0000
  Ca  Ca2       1.0  0.00000  0.33333  0.35185  1.0000
  Ca  Ca3       1.0  0.00000  0.00000  0.46296  1.0000
  Zn  Zn1       1.0  0.50000  0.83333  0.35185  1.0000
  Zn  Zn2       1.0  0.50000  0.50000  0.46296  1.0000
  Zn  Zn3       1.0  0.50000  0.16667  0.40741  1.0000
  Zn  Zn4       1.0  0.50000  0.66667  0.49074  1.0000
  Zn  Zn5       1.0  0.50000  0.33333  0.43519  1.0000
  Zn  Zn6       1.0  0.50000  0.00000  0.37963  1.0000
  Zn  Zn7       1.0  0.50000  0.50000  0.37963  1.0000
  Zn  Zn8       1.0  0.50000  0.16667  0.49074  1.0000
  Zn  Zn9       1.0  0.50000  0.83333  0.43519  1.0000
  Zn  Zn10      1.0  0.00000  0.55556  0.33333  1.0000
  Zn  Zn11      1.0  0.00000  0.22222  0.44444  1.0000
  Zn  Zn12      1.0  0.00000  0.88889  0.38889  1.0000
  Zn  Zn13      1.0  0.00000  0.77778  0.48148  1.0000
  Zn  Zn14      1.0  0.00000  0.44444  0.42593  1.0000
  Zn  Zn15      1.0  0.00000  0.11111  0.37037  1.0000
  Ca  Ca4       1.0  0.00000  0.66667  0.57407  1.0000
  Ca  Ca5       1.0  0.00000  0.33333  0.51852  1.0000
  Ca  Ca6       1.0  0.00000  0.00000  0.62963  1.0000
  Zn  Zn16      1.0  0.50000  0.83333  0.51852  1.0000
  Zn  Zn17      1.0  0.50000  0.50000  0.62963  1.0000
  Zn  Zn18      1.0  0.50000  0.16667  0.57407  1.0000
  Zn  Zn19      1.0  0.50000  0.66667  0.65741  1.0000
  Zn  Zn20      1.0  0.50000  0.33333  0.60185  1.0000
  Zn  Zn21      1.0  0.50000  0.00000  0.54630  1.0000
  Zn  Zn22      1.0  0.50000  0.50000  0.54630  1.0000
  Zn  Zn23      1.0  0.50000  0.16667  0.65741  1.0000
  Zn  Zn24      1.0  0.50000  0.83333  0.60185  1.0000
  Zn  Zn25      1.0  0.00000  0.55556  0.50000  1.0000
  Zn  Zn26      1.0  0.00000  0.22222  0.61111  1.0000
  Zn  Zn27      1.0  0.00000  0.88889  0.55556  1.0000
  Zn  Zn28      1.0  0.00000  0.77778  0.64815  1.0000
  Zn  Zn29      1.0  0.00000  0.44444  0.59259  1.0000
  Zn  Zn30      1.0  0.00000  0.11111  0.53704  1.0000
