data_image0
_chemical_formula_structural       Nb2Au4Nb2Au4Nb2Au4
_chemical_formula_sum              "Nb6 Au12"
_cell_length_a       4.63086
_cell_length_b       9.65483
_cell_length_c       29.9967
_cell_angle_alpha    73.5937
_cell_angle_beta     90
_cell_angle_gamma    61.338

_space_group_name_H-M_alt    "P 1"
_space_group_IT_number       1

loop_
  _space_group_symop_operation_xyz
  'x, y, z'

loop_
  _atom_site_type_symbol
  _atom_site_label
  _atom_site_symmetry_multiplicity
  _atom_site_fract_x
  _atom_site_fract_y
  _atom_site_fract_z
  _atom_site_occupancy
  Nb  Nb1       1.0  0.00000  0.50000  0.40152  1.0000
  Nb  Nb2       1.0  0.00000  0.00000  0.44697  1.0000
  Au  Au1       1.0  0.33333  0.16667  0.38636  1.0000
  Au  Au2       1.0  0.33333  0.66667  0.43182  1.0000
  Au  Au3       1.0  0.66667  0.33333  0.37121  1.0000
  Au  Au4       1.0  0.66667  0.83333  0.41667  1.0000
  Nb  Nb3       1.0  0.00000  0.50000  0.49242  1.0000
  Nb  Nb4       1.0  0.00000  0.00000  0.53788  1.0000
  Au  Au5       1.0  0.33333  0.16667  0.47727  1.0000
  Au  Au6       1.0  0.33333  0.66667  0.52273  1.0000
  Au  Au7       1.0  0.66667  0.33333  0.46212  1.0000
  Au  Au8       1.0  0.66667  0.83333  0.50758  1.0000
  Nb  Nb5       1.0  0.00000  0.50000  0.58333  1.0000
  Nb  Nb6       1.0  0.00000  0.00000  0.62879  1.0000
  Au  Au9       1.0  0.33333  0.16667  0.56818  1.0000
  Au  Au10      1.0  0.33333  0.66667  0.61364  1.0000
  Au  Au11      1.0  0.66667  0.33333  0.55303  1.0000
  Au  Au12      1.0  0.66667  0.83333  0.59848  1.0000
