data_image0
_chemical_formula_structural       Ni2Sb2Ni2Sb2Ni2Sb2
_chemical_formula_sum              "Ni6 Sb6"
_cell_length_a       3.91318
_cell_length_b       5.07865
_cell_length_c       35.2187
_cell_angle_alpha    90
_cell_angle_beta     60
_cell_angle_gamma    90

_space_group_name_H-M_alt    "P 1"
_space_group_IT_number       1

loop_
  _space_group_symop_operation_xyz
  'x, y, z'

loop_
  _atom_site_type_symbol
  _atom_site_label
  _atom_site_symmetry_multiplicity
  _atom_site_fract_x
  _atom_site_fract_y
  _atom_site_fract_z
  _atom_site_occupancy
  Ni  Ni1       1.0  0.00000  0.00000  0.41667  1.0000
  Ni  Ni2       1.0  0.00000  0.50000  0.41667  1.0000
  Sb  Sb1       1.0  0.33333  0.25000  0.34259  1.0000
  Sb  Sb2       1.0  0.66667  0.75000  0.37963  1.0000
  Ni  Ni3       1.0  0.00000  0.00000  0.52778  1.0000
  Ni  Ni4       1.0  0.00000  0.50000  0.52778  1.0000
  Sb  Sb3       1.0  0.33333  0.25000  0.45370  1.0000
  Sb  Sb4       1.0  0.66667  0.75000  0.49074  1.0000
  Ni  Ni5       1.0  0.00000  0.00000  0.63889  1.0000
  Ni  Ni6       1.0  0.00000  0.50000  0.63889  1.0000
  Sb  Sb5       1.0  0.33333  0.25000  0.56481  1.0000
  Sb  Sb6       1.0  0.66667  0.75000  0.60185  1.0000
