data_image0
_chemical_formula_structural       Ti2H4Ti2H4
_chemical_formula_sum              "Ti4 H8"
_cell_length_a       3.16055
_cell_length_b       3.16055
_cell_length_c       29.4245
_cell_angle_alpha    90
_cell_angle_beta     90
_cell_angle_gamma    90

_space_group_name_H-M_alt    "P 1"
_space_group_IT_number       1

loop_
  _space_group_symop_operation_xyz
  'x, y, z'

loop_
  _atom_site_type_symbol
  _atom_site_label
  _atom_site_symmetry_multiplicity
  _atom_site_fract_x
  _atom_site_fract_y
  _atom_site_fract_z
  _atom_site_occupancy
  Ti  Ti1       1.0  0.00000  0.00000  0.48810  1.0000
  Ti  Ti2       1.0  0.50000  0.50000  0.41667  1.0000
  H   H1        1.0  0.00000  0.50000  0.38095  1.0000
  H   H2        1.0  0.50000  0.00000  0.38095  1.0000
  H   H3        1.0  0.50000  0.00000  0.45238  1.0000
  H   H4        1.0  0.00000  0.50000  0.45238  1.0000
  Ti  Ti3       1.0  0.00000  0.00000  0.63095  1.0000
  Ti  Ti4       1.0  0.50000  0.50000  0.55952  1.0000
  H   H5        1.0  0.00000  0.50000  0.52381  1.0000
  H   H6        1.0  0.50000  0.00000  0.52381  1.0000
  H   H7        1.0  0.50000  0.00000  0.59524  1.0000
  H   H8        1.0  0.00000  0.50000  0.59524  1.0000
