data_image0
_chemical_formula_structural       Pt4W2Pt4W2Pt4W2
_chemical_formula_sum              "Pt12 W6"
_cell_length_a       3.91349
_cell_length_b       8.25399
_cell_length_c       30.4456
_cell_angle_alpha    90
_cell_angle_beta     90
_cell_angle_gamma    90

_space_group_name_H-M_alt    "P 1"
_space_group_IT_number       1

loop_
  _space_group_symop_operation_xyz
  'x, y, z'

loop_
  _atom_site_type_symbol
  _atom_site_label
  _atom_site_symmetry_multiplicity
  _atom_site_fract_x
  _atom_site_fract_y
  _atom_site_fract_z
  _atom_site_occupancy
  Pt  Pt1       1.0  0.50000  0.16299  0.38636  1.0000
  Pt  Pt2       1.0  0.00000  0.33701  0.43182  1.0000
  Pt  Pt3       1.0  0.00000  0.66299  0.43182  1.0000
  Pt  Pt4       1.0  0.50000  0.83701  0.38636  1.0000
  W   W1        1.0  0.00000  0.00000  0.43182  1.0000
  W   W2        1.0  0.50000  0.50000  0.38636  1.0000
  Pt  Pt5       1.0  0.50000  0.16299  0.47727  1.0000
  Pt  Pt6       1.0  0.00000  0.33701  0.52273  1.0000
  Pt  Pt7       1.0  0.00000  0.66299  0.52273  1.0000
  Pt  Pt8       1.0  0.50000  0.83701  0.47727  1.0000
  W   W3        1.0  0.00000  0.00000  0.52273  1.0000
  W   W4        1.0  0.50000  0.50000  0.47727  1.0000
  Pt  Pt9       1.0  0.50000  0.16299  0.56818  1.0000
  Pt  Pt10      1.0  0.00000  0.33701  0.61364  1.0000
  Pt  Pt11      1.0  0.00000  0.66299  0.61364  1.0000
  Pt  Pt12      1.0  0.50000  0.83701  0.56818  1.0000
  W   W5        1.0  0.00000  0.00000  0.61364  1.0000
  W   W6        1.0  0.50000  0.50000  0.56818  1.0000
