data_image0
_chemical_formula_structural       Na2Al2Si2
_chemical_formula_sum              "Na2 Al2 Si2"
_cell_length_a       4.11613
_cell_length_b       4.11613
_cell_length_c       29.0763
_cell_angle_alpha    90
_cell_angle_beta     90
_cell_angle_gamma    90

_space_group_name_H-M_alt    "P 1"
_space_group_IT_number       1

loop_
  _space_group_symop_operation_xyz
  'x, y, z'

loop_
  _atom_site_type_symbol
  _atom_site_label
  _atom_site_symmetry_multiplicity
  _atom_site_fract_x
  _atom_site_fract_y
  _atom_site_fract_z
  _atom_site_occupancy
  Na  Na1       1.0  0.00000  0.50000  0.42441  1.0000
  Na  Na2       1.0  0.50000  0.00000  0.49226  1.0000
  Al  Al1       1.0  0.00000  0.00000  0.58333  1.0000
  Al  Al2       1.0  0.50000  0.50000  0.58333  1.0000
  Si  Si1       1.0  0.00000  0.50000  0.53130  1.0000
  Si  Si2       1.0  0.50000  0.00000  0.38537  1.0000
