data_image0
_chemical_formula_structural       Al12W6Al12W6
_chemical_formula_sum              "Al24 W12"
_cell_length_a       4.82839
_cell_length_b       14.2901
_cell_length_c       38.6271
_cell_angle_alpha    109.748
_cell_angle_beta     120
_cell_angle_gamma    80.2737

_space_group_name_H-M_alt    "P 1"
_space_group_IT_number       1

loop_
  _space_group_symop_operation_xyz
  'x, y, z'

loop_
  _atom_site_type_symbol
  _atom_site_label
  _atom_site_symmetry_multiplicity
  _atom_site_fract_x
  _atom_site_fract_y
  _atom_site_fract_z
  _atom_site_occupancy
  Al  Al1       1.0  0.83146  0.08333  0.40648  1.0000
  Al  Al2       1.0  0.83146  0.58333  0.46898  1.0000
  Al  Al3       1.0  0.16854  0.41667  0.46922  1.0000
  Al  Al4       1.0  0.16854  0.91667  0.40672  1.0000
  Al  Al5       1.0  0.66291  0.25000  0.38518  1.0000
  Al  Al6       1.0  0.66291  0.75000  0.44768  1.0000
  Al  Al7       1.0  0.16854  0.08333  0.48935  1.0000
  Al  Al8       1.0  0.16854  0.58333  0.42685  1.0000
  Al  Al9       1.0  0.83146  0.41667  0.38495  1.0000
  Al  Al10      1.0  0.83146  0.91667  0.44745  1.0000
  Al  Al11      1.0  0.33709  0.25000  0.42732  1.0000
  Al  Al12      1.0  0.33709  0.75000  0.48982  1.0000
  W   W1        1.0  0.00000  0.25000  0.46875  1.0000
  W   W2        1.0  0.00000  0.75000  0.40625  1.0000
  W   W3        1.0  0.50000  0.41667  0.42708  1.0000
  W   W4        1.0  0.50000  0.91667  0.48958  1.0000
  W   W5        1.0  0.50000  0.08333  0.44792  1.0000
  W   W6        1.0  0.50000  0.58333  0.38542  1.0000
  Al  Al13      1.0  0.83146  0.08333  0.53148  1.0000
  Al  Al14      1.0  0.83146  0.58333  0.59398  1.0000
  Al  Al15      1.0  0.16854  0.41667  0.59422  1.0000
  Al  Al16      1.0  0.16854  0.91667  0.53172  1.0000
  Al  Al17      1.0  0.66291  0.25000  0.51018  1.0000
  Al  Al18      1.0  0.66291  0.75000  0.57268  1.0000
  Al  Al19      1.0  0.16854  0.08333  0.61435  1.0000
  Al  Al20      1.0  0.16854  0.58333  0.55185  1.0000
  Al  Al21      1.0  0.83146  0.41667  0.50995  1.0000
  Al  Al22      1.0  0.83146  0.91667  0.57245  1.0000
  Al  Al23      1.0  0.33709  0.25000  0.55232  1.0000
  Al  Al24      1.0  0.33709  0.75000  0.61482  1.0000
  W   W7        1.0  0.00000  0.25000  0.59375  1.0000
  W   W8        1.0  0.00000  0.75000  0.53125  1.0000
  W   W9        1.0  0.50000  0.41667  0.55208  1.0000
  W   W10       1.0  0.50000  0.91667  0.61458  1.0000
  W   W11       1.0  0.50000  0.08333  0.57292  1.0000
  W   W12       1.0  0.50000  0.58333  0.51042  1.0000
