data_image0
_chemical_formula_structural       Au3Ga6
_chemical_formula_sum              "Au3 Ga6"
_cell_length_a       4.29662
_cell_length_b       4.29662
_cell_length_c       31.5736
_cell_angle_alpha    90
_cell_angle_beta     90
_cell_angle_gamma    120

_space_group_name_H-M_alt    "P 1"
_space_group_IT_number       1

loop_
  _space_group_symop_operation_xyz
  'x, y, z'

loop_
  _atom_site_type_symbol
  _atom_site_label
  _atom_site_symmetry_multiplicity
  _atom_site_fract_x
  _atom_site_fract_y
  _atom_site_fract_z
  _atom_site_occupancy
  Au  Au1       1.0  0.33333  0.66667  0.38889  1.0000
  Au  Au2       1.0  0.00000  0.00000  0.61111  1.0000
  Au  Au3       1.0  0.66667  0.33333  0.50000  1.0000
  Ga  Ga1       1.0  0.33333  0.66667  0.47222  1.0000
  Ga  Ga2       1.0  0.00000  0.00000  0.36111  1.0000
  Ga  Ga3       1.0  0.66667  0.33333  0.58333  1.0000
  Ga  Ga4       1.0  0.00000  0.00000  0.52778  1.0000
  Ga  Ga5       1.0  0.66667  0.33333  0.41667  1.0000
  Ga  Ga6       1.0  0.33333  0.66667  0.63889  1.0000
