data_image0
_chemical_formula_structural       Fe2As4Fe2As4
_chemical_formula_sum              "Fe4 As8"
_cell_length_a       2.84942
_cell_length_b       5.91187
_cell_length_c       31.4463
_cell_angle_alpha    90
_cell_angle_beta     90
_cell_angle_gamma    90

_space_group_name_H-M_alt    "P 1"
_space_group_IT_number       1

loop_
  _space_group_symop_operation_xyz
  'x, y, z'

loop_
  _atom_site_type_symbol
  _atom_site_label
  _atom_site_symmetry_multiplicity
  _atom_site_fract_x
  _atom_site_fract_y
  _atom_site_fract_z
  _atom_site_occupancy
  Fe  Fe1       1.0  0.00000  0.00000  0.45833  1.0000
  Fe  Fe2       1.0  0.50000  0.50000  0.37500  1.0000
  As  As1       1.0  0.00000  0.63926  0.42847  1.0000
  As  As2       1.0  0.00000  0.36074  0.48819  1.0000
  As  As3       1.0  0.50000  0.86074  0.34514  1.0000
  As  As4       1.0  0.50000  0.13926  0.40486  1.0000
  Fe  Fe3       1.0  0.00000  0.00000  0.62500  1.0000
  Fe  Fe4       1.0  0.50000  0.50000  0.54167  1.0000
  As  As5       1.0  0.00000  0.63926  0.59514  1.0000
  As  As6       1.0  0.00000  0.36074  0.65486  1.0000
  As  As7       1.0  0.50000  0.86074  0.51181  1.0000
  As  As8       1.0  0.50000  0.13926  0.57153  1.0000
