data_image0
_chemical_formula_structural       Au20Sn4
_chemical_formula_sum              "Au20 Sn4"
_cell_length_a       5.60594
_cell_length_b       7.57064
_cell_length_c       30.5282
_cell_angle_alpha    90
_cell_angle_beta     90
_cell_angle_gamma    97.4983

_space_group_name_H-M_alt    "P 1"
_space_group_IT_number       1

loop_
  _space_group_symop_operation_xyz
  'x, y, z'

loop_
  _atom_site_type_symbol
  _atom_site_label
  _atom_site_symmetry_multiplicity
  _atom_site_fract_x
  _atom_site_fract_y
  _atom_site_fract_z
  _atom_site_occupancy
  Au  Au1       1.0  0.84009  0.82996  0.40278  1.0000
  Au  Au2       1.0  0.34009  0.32996  0.48611  1.0000
  Au  Au3       1.0  0.83623  0.33623  0.34674  1.0000
  Au  Au4       1.0  0.33623  0.83623  0.43007  1.0000
  Au  Au5       1.0  0.00000  0.50000  0.43152  1.0000
  Au  Au6       1.0  0.50000  0.00000  0.34819  1.0000
  Au  Au7       1.0  0.16377  0.66377  0.34674  1.0000
  Au  Au8       1.0  0.66377  0.16377  0.43007  1.0000
  Au  Au9       1.0  0.65991  0.67004  0.48611  1.0000
  Au  Au10      1.0  0.15991  0.17004  0.40278  1.0000
  Au  Au11      1.0  0.84009  0.82996  0.56944  1.0000
  Au  Au12      1.0  0.34009  0.32996  0.65278  1.0000
  Au  Au13      1.0  0.83623  0.33623  0.51341  1.0000
  Au  Au14      1.0  0.33623  0.83623  0.59674  1.0000
  Au  Au15      1.0  0.00000  0.50000  0.59819  1.0000
  Au  Au16      1.0  0.50000  0.00000  0.51486  1.0000
  Au  Au17      1.0  0.16377  0.66377  0.51341  1.0000
  Au  Au18      1.0  0.66377  0.16377  0.59674  1.0000
  Au  Au19      1.0  0.65991  0.67004  0.65278  1.0000
  Au  Au20      1.0  0.15991  0.17004  0.56944  1.0000
  Sn  Sn1       1.0  0.00000  0.00000  0.48611  1.0000
  Sn  Sn2       1.0  0.50000  0.50000  0.40278  1.0000
  Sn  Sn3       1.0  0.00000  0.00000  0.65278  1.0000
  Sn  Sn4       1.0  0.50000  0.50000  0.56944  1.0000
