data_image0
_chemical_formula_structural       Ru8Zn24
_chemical_formula_sum              "Ru8 Zn24"
_cell_length_a       5.27398
_cell_length_b       8.10463
_cell_length_c       35.127
_cell_angle_alpha    96.3863
_cell_angle_beta     90
_cell_angle_gamma    90

_space_group_name_H-M_alt    "P 1"
_space_group_IT_number       1

loop_
  _space_group_symop_operation_xyz
  'x, y, z'

loop_
  _atom_site_type_symbol
  _atom_site_label
  _atom_site_symmetry_multiplicity
  _atom_site_fract_x
  _atom_site_fract_y
  _atom_site_fract_z
  _atom_site_occupancy
  Ru  Ru1       1.0  0.00000  0.70847  0.52565  1.0000
  Ru  Ru2       1.0  0.50000  0.63704  0.59708  1.0000
  Ru  Ru3       1.0  0.00000  0.13082  0.63506  1.0000
  Ru  Ru4       1.0  0.50000  0.20225  0.56363  1.0000
  Ru  Ru5       1.0  0.00000  0.85132  0.38279  1.0000
  Ru  Ru6       1.0  0.50000  0.77990  0.45422  1.0000
  Ru  Ru7       1.0  0.00000  0.27368  0.49221  1.0000
  Ru  Ru8       1.0  0.50000  0.34510  0.42078  1.0000
  Zn  Zn1       1.0  0.00000  0.18012  0.56193  1.0000
  Zn  Zn2       1.0  0.50000  0.10869  0.63336  1.0000
  Zn  Zn3       1.0  0.00000  0.65917  0.59878  1.0000
  Zn  Zn4       1.0  0.50000  0.73059  0.52735  1.0000
  Zn  Zn5       1.0  0.75000  0.38393  0.61607  1.0000
  Zn  Zn6       1.0  0.25000  0.45536  0.54464  1.0000
  Zn  Zn7       1.0  0.25000  0.38393  0.61607  1.0000
  Zn  Zn8       1.0  0.75000  0.45536  0.54464  1.0000
  Zn  Zn9       1.0  0.75000  0.91964  0.58036  1.0000
  Zn  Zn10      1.0  0.25000  0.99107  0.50893  1.0000
  Zn  Zn11      1.0  0.25000  0.91964  0.58036  1.0000
  Zn  Zn12      1.0  0.75000  0.99107  0.50893  1.0000
  Zn  Zn13      1.0  0.00000  0.32298  0.41908  1.0000
  Zn  Zn14      1.0  0.50000  0.25155  0.49050  1.0000
  Zn  Zn15      1.0  0.00000  0.80202  0.45592  1.0000
  Zn  Zn16      1.0  0.50000  0.87345  0.38450  1.0000
  Zn  Zn17      1.0  0.75000  0.52679  0.47321  1.0000
  Zn  Zn18      1.0  0.25000  0.59821  0.40179  1.0000
  Zn  Zn19      1.0  0.25000  0.52679  0.47321  1.0000
  Zn  Zn20      1.0  0.75000  0.59821  0.40179  1.0000
  Zn  Zn21      1.0  0.75000  0.06250  0.43750  1.0000
  Zn  Zn22      1.0  0.25000  0.13393  0.36607  1.0000
  Zn  Zn23      1.0  0.25000  0.06250  0.43750  1.0000
  Zn  Zn24      1.0  0.75000  0.13393  0.36607  1.0000
