data_image0
_chemical_formula_structural       Ca8Si8Pd8
_chemical_formula_sum              "Ca8 Si8 Pd8"
_cell_length_a       8.14672
_cell_length_b       7.32291
_cell_length_c       32.5869
_cell_angle_alpha    76.2315
_cell_angle_beta     88.5856
_cell_angle_gamma    76.2315

_space_group_name_H-M_alt    "P 1"
_space_group_IT_number       1

loop_
  _space_group_symop_operation_xyz
  'x, y, z'

loop_
  _atom_site_type_symbol
  _atom_site_label
  _atom_site_symmetry_multiplicity
  _atom_site_fract_x
  _atom_site_fract_y
  _atom_site_fract_z
  _atom_site_occupancy
  Ca  Ca1       1.0  0.59598  0.88402  0.49317  1.0000
  Ca  Ca2       1.0  0.09598  0.88402  0.61817  1.0000
  Ca  Ca3       1.0  0.72270  0.38402  0.58649  1.0000
  Ca  Ca4       1.0  0.22270  0.38402  0.46149  1.0000
  Ca  Ca5       1.0  0.90402  0.11598  0.50683  1.0000
  Ca  Ca6       1.0  0.40402  0.11598  0.38183  1.0000
  Ca  Ca7       1.0  0.77730  0.61598  0.41351  1.0000
  Ca  Ca8       1.0  0.27730  0.61598  0.53851  1.0000
  Si  Si1       1.0  0.77689  0.04459  0.41100  1.0000
  Si  Si2       1.0  0.27689  0.04459  0.53600  1.0000
  Si  Si3       1.0  0.72311  0.95541  0.58900  1.0000
  Si  Si4       1.0  0.22311  0.95541  0.46400  1.0000
  Si  Si5       1.0  0.10598  0.45541  0.61828  1.0000
  Si  Si6       1.0  0.60598  0.45541  0.49328  1.0000
  Si  Si7       1.0  0.39402  0.54459  0.38172  1.0000
  Si  Si8       1.0  0.89402  0.54459  0.50672  1.0000
  Pd  Pd1       1.0  0.48240  0.81021  0.58606  1.0000
  Pd  Pd2       1.0  0.98240  0.81021  0.46106  1.0000
  Pd  Pd3       1.0  0.01760  0.18979  0.41394  1.0000
  Pd  Pd4       1.0  0.51760  0.18979  0.53894  1.0000
  Pd  Pd5       1.0  0.59422  0.31021  0.43310  1.0000
  Pd  Pd6       1.0  0.09422  0.31021  0.55810  1.0000
  Pd  Pd7       1.0  0.90578  0.68979  0.56690  1.0000
  Pd  Pd8       1.0  0.40578  0.68979  0.44190  1.0000
