# generated using pymatgen
data_Tm15Mg8
_symmetry_space_group_name_H-M   'P 1'
_cell_length_a   5.42194500
_cell_length_b   8.80029156
_cell_length_c   45.31837800
_cell_angle_alpha   90.70413999
_cell_angle_beta   90.00000000
_cell_angle_gamma   90.00000000
_symmetry_Int_Tables_number   1
_chemical_formula_structural   Tm15Mg8
_chemical_formula_sum   'Tm30 Mg16'
_cell_volume   2162.18937522
_cell_formula_units_Z   2
loop_
 _symmetry_equiv_pos_site_id
 _symmetry_equiv_pos_as_xyz
  1  'x, y, z'
loop_
 _atom_site_type_symbol
 _atom_site_label
 _atom_site_symmetry_multiplicity
 _atom_site_fract_x
 _atom_site_fract_y
 _atom_site_fract_z
 _atom_site_occupancy
  Tm  Tm0  1  0.75000000  0.68194900  0.73596700  1
  Tm  Tm1  1  0.75000000  0.30506200  0.76089200  1
  Tm  Tm2  1  0.25000000  0.06307400  0.75121200  1
  Tm  Tm3  1  0.25000000  0.36303700  0.80321100  1
  Tm  Tm4  1  0.75000000  0.75887200  0.65904400  1
  Tm  Tm5  1  0.75000000  0.38198500  0.68396900  1
  Tm  Tm6  1  0.25000000  0.13999700  0.67428900  1
  Tm  Tm7  1  0.25000000  0.43996000  0.72628800  1
  Tm  Tm8  1  0.75000000  0.83579500  0.58212100  1
  Tm  Tm9  1  0.75000000  0.45890900  0.60704600  1
  Tm  Tm10  1  0.25000000  0.21692000  0.59736600  1
  Tm  Tm11  1  0.25000000  0.51688300  0.64936500  1
  Tm  Tm12  1  0.75000000  0.91271800  0.50519800  1
  Tm  Tm13  1  0.75000000  0.53583200  0.53012300  1
  Tm  Tm14  1  0.25000000  0.29384300  0.52044300  1
  Tm  Tm15  1  0.25000000  0.59380600  0.57244200  1
  Tm  Tm16  1  0.75000000  0.98964100  0.42827500  1
  Tm  Tm17  1  0.75000000  0.61275500  0.45319900  1
  Tm  Tm18  1  0.25000000  0.37076600  0.44352000  1
  Tm  Tm19  1  0.25000000  0.67073000  0.49551800  1
  Tm  Tm20  1  0.75000000  0.06656400  0.35135200  1
  Tm  Tm21  1  0.75000000  0.68967800  0.37627600  1
  Tm  Tm22  1  0.25000000  0.44768900  0.36659700  1
  Tm  Tm23  1  0.25000000  0.74765300  0.41859500  1
  Tm  Tm24  1  0.75000000  0.14348700  0.27442900  1
  Tm  Tm25  1  0.75000000  0.76660100  0.29935300  1
  Tm  Tm26  1  0.25000000  0.52461200  0.28967400  1
  Tm  Tm27  1  0.25000000  0.82457600  0.34167200  1
  Tm  Tm28  1  0.75000000  0.84352400  0.22243000  1
  Tm  Tm29  1  0.25000000  0.90149900  0.26474900  1
  Mg  Mg30  1  0.75000000  0.95385900  0.78684400  1
  Mg  Mg31  1  0.25000000  0.71424100  0.77725900  1
  Mg  Mg32  1  0.75000000  0.03078200  0.70992100  1
  Mg  Mg33  1  0.25000000  0.79116400  0.70033600  1
  Mg  Mg34  1  0.75000000  0.10770500  0.63299700  1
  Mg  Mg35  1  0.25000000  0.86808700  0.62341300  1
  Mg  Mg36  1  0.75000000  0.18462800  0.55607400  1
  Mg  Mg37  1  0.25000000  0.94501000  0.54649000  1
  Mg  Mg38  1  0.75000000  0.26155100  0.47915100  1
  Mg  Mg39  1  0.25000000  0.02193300  0.46956700  1
  Mg  Mg40  1  0.75000000  0.33847400  0.40222800  1
  Mg  Mg41  1  0.25000000  0.09885600  0.39264400  1
  Mg  Mg42  1  0.75000000  0.41539700  0.32530500  1
  Mg  Mg43  1  0.25000000  0.17577900  0.31572000  1
  Mg  Mg44  1  0.75000000  0.49232000  0.24838200  1
  Mg  Mg45  1  0.25000000  0.25270200  0.23879700  1
