# generated using pymatgen
data_Mg80Ir117
_symmetry_space_group_name_H-M   'P 1'
_cell_length_a   5.24707500
_cell_length_b   21.51305055
_cell_length_c   52.37228200
_cell_angle_alpha   80.49835411
_cell_angle_beta   90.00000000
_cell_angle_gamma   90.00000000
_symmetry_Int_Tables_number   1
_chemical_formula_structural   Mg80Ir117
_chemical_formula_sum   'Mg80 Ir117'
_cell_volume   5830.70907253
_cell_formula_units_Z   1
loop_
 _symmetry_equiv_pos_site_id
 _symmetry_equiv_pos_as_xyz
  1  'x, y, z'
loop_
 _atom_site_type_symbol
 _atom_site_label
 _atom_site_symmetry_multiplicity
 _atom_site_fract_x
 _atom_site_fract_y
 _atom_site_fract_z
 _atom_site_occupancy
  Mg  Mg0  1  0.50000000  0.79112200  0.22931500  1
  Mg  Mg1  1  0.00000000  0.76365000  0.26211400  1
  Mg  Mg2  1  0.00000000  0.55511400  0.21887600  1
  Mg  Mg3  1  0.50000000  0.99965700  0.27255300  1
  Mg  Mg4  1  0.50000000  0.89167900  0.31924700  1
  Mg  Mg5  1  1.00000000  0.80595000  0.31503800  1
  Mg  Mg6  1  0.50000000  0.92476900  0.22079800  1
  Mg  Mg7  1  0.00000000  0.63000200  0.27063000  1
  Mg  Mg8  1  0.50000000  0.55520700  0.25250400  1
  Mg  Mg9  1  0.00000000  0.99956400  0.23892500  1
  Mg  Mg10  1  0.00000000  0.36255000  0.30074300  1
  Mg  Mg11  1  0.50000000  0.33507800  0.33354300  1
  Mg  Mg12  1  0.50000000  0.12654300  0.29030400  1
  Mg  Mg13  1  0.00000000  0.57108600  0.34398200  1
  Mg  Mg14  1  0.00000000  0.32025000  0.24781900  1
  Mg  Mg15  1  0.50000000  0.23452100  0.24361000  1
  Mg  Mg16  1  0.00000000  0.49619800  0.29222700  1
  Mg  Mg17  1  0.50000000  0.20143100  0.34205900  1
  Mg  Mg18  1  0.00000000  0.12663600  0.32393200  1
  Mg  Mg19  1  0.50000000  0.57099300  0.31035300  1
  Mg  Mg20  1  0.50000000  0.93397900  0.37217200  1
  Mg  Mg21  1  0.00000000  0.90650700  0.40497100  1
  Mg  Mg22  1  0.00000000  0.69797100  0.36173300  1
  Mg  Mg23  1  0.50000000  0.14251400  0.41541000  1
  Mg  Mg24  1  0.50000000  0.03453600  0.46210500  1
  Mg  Mg25  1  0.00000000  0.94880700  0.45789500  1
  Mg  Mg26  1  0.50000000  0.06762600  0.36365500  1
  Mg  Mg27  1  0.00000000  0.77285900  0.41348700  1
  Mg  Mg28  1  0.50000000  0.69806400  0.39536100  1
  Mg  Mg29  1  0.00000000  0.14242100  0.38178200  1
  Mg  Mg30  1  1.00000000  0.50540700  0.44360000  1
  Mg  Mg31  1  0.50000000  0.47793500  0.47640000  1
  Mg  Mg32  1  0.50000000  0.26940000  0.43316100  1
  Mg  Mg33  1  0.00000000  0.71394300  0.48683900  1
  Mg  Mg34  1  0.00000000  0.46310700  0.39067600  1
  Mg  Mg35  1  0.50000000  0.37737800  0.38646700  1
  Mg  Mg36  1  0.00000000  0.63905500  0.43508400  1
  Mg  Mg37  1  0.50000000  0.34428800  0.48491600  1
  Mg  Mg38  1  0.00000000  0.26949300  0.46678900  1
  Mg  Mg39  1  0.50000000  0.71385000  0.45321100  1
  Mg  Mg40  1  0.50000000  0.07683600  0.51502900  1
  Mg  Mg41  1  0.00000000  0.04936400  0.54782800  1
  Mg  Mg42  1  0.00000000  0.84082800  0.50459000  1
  Mg  Mg43  1  0.50000000  0.28537200  0.55826700  1
  Mg  Mg44  1  0.50000000  0.17739300  0.60496200  1
  Mg  Mg45  1  0.00000000  0.09166400  0.60075300  1
  Mg  Mg46  1  0.50000000  0.21048300  0.50651300  1
  Mg  Mg47  1  0.00000000  0.91571600  0.55634500  1
  Mg  Mg48  1  0.50000000  0.84092100  0.53821800  1
  Mg  Mg49  1  0.00000000  0.28527900  0.52463900  1
  Mg  Mg50  1  0.00000000  0.64826400  0.58645700  1
  Mg  Mg51  1  0.50000000  0.62079300  0.61925700  1
  Mg  Mg52  1  0.50000000  0.41225700  0.57601800  1
  Mg  Mg53  1  0.00000000  0.85680000  0.62969600  1
  Mg  Mg54  1  0.00000000  0.60596500  0.53353300  1
  Mg  Mg55  1  0.50000000  0.52023500  0.52932400  1
  Mg  Mg56  1  0.00000000  0.78191200  0.57794100  1
  Mg  Mg57  1  0.50000000  0.48714500  0.62777300  1
  Mg  Mg58  1  0.00000000  0.41235000  0.60964700  1
  Mg  Mg59  1  0.50000000  0.85670700  0.59606800  1
  Mg  Mg60  1  0.50000000  0.21969300  0.65788600  1
  Mg  Mg61  1  1.00000000  0.19222100  0.69068500  1
  Mg  Mg62  1  0.00000000  0.98368600  0.64744700  1
  Mg  Mg63  1  0.50000000  0.42822900  0.70112400  1
  Mg  Mg64  1  0.50000000  0.32025000  0.74781900  1
  Mg  Mg65  1  0.00000000  0.23452100  0.74361000  1
  Mg  Mg66  1  0.50000000  0.35334100  0.64937000  1
  Mg  Mg67  1  0.00000000  0.05857400  0.69920200  1
  Mg  Mg68  1  0.50000000  0.98377800  0.68107500  1
  Mg  Mg69  1  0.00000000  0.42813600  0.66749600  1
  Mg  Mg70  1  0.00000000  0.79112200  0.72931500  1
  Mg  Mg71  1  0.50000000  0.76365000  0.76211400  1
  Mg  Mg72  1  0.50000000  0.55511400  0.71887600  1
  Mg  Mg73  1  0.00000000  0.99965700  0.77255300  1
  Mg  Mg74  1  0.00000000  0.74882200  0.67639000  1
  Mg  Mg75  1  0.50000000  0.66309200  0.67218100  1
  Mg  Mg76  1  0.00000000  0.92476900  0.72079800  1
  Mg  Mg77  1  0.50000000  0.63000200  0.77063000  1
  Mg  Mg78  1  0.00000000  0.55520700  0.75250400  1
  Mg  Mg79  1  0.50000000  0.99956400  0.73892500  1
  Ir  Ir80  1  0.00000000  0.87523600  0.22468600  1
  Ir  Ir81  1  0.50000000  0.67953600  0.26674300  1
  Ir  Ir82  1  0.24951300  0.67426200  0.22464700  1
  Ir  Ir83  1  0.25048700  0.88050900  0.26678200  1
  Ir  Ir84  1  0.74951300  0.88050900  0.26678200  1
  Ir  Ir85  1  0.75048700  0.67426200  0.22464700  1
  Ir  Ir86  1  1.00000000  0.06310000  0.28142900  1
  Ir  Ir87  1  0.50000000  0.78492300  0.28728800  1
  Ir  Ir88  1  0.00000000  0.91270600  0.34699800  1
  Ir  Ir89  1  0.50000000  0.75568400  0.33818400  1
  Ir  Ir90  1  1.00000000  0.94194500  0.29610200  1
  Ir  Ir91  1  0.26606200  0.01445500  0.32355200  1
  Ir  Ir92  1  0.23393800  0.68317300  0.31073400  1
  Ir  Ir93  1  0.76606200  0.68317300  0.31073400  1
  Ir  Ir94  1  0.73393800  0.01445500  0.32355200  1
  Ir  Ir95  1  0.50000000  0.44666400  0.29611400  1
  Ir  Ir96  1  0.00000000  0.25096400  0.33817100  1
  Ir  Ir97  1  0.74951300  0.24569100  0.29607500  1
  Ir  Ir98  1  0.75048700  0.45193800  0.33821000  1
  Ir  Ir99  1  0.24951300  0.45193800  0.33821000  1
  Ir  Ir100  1  0.25048700  0.24569100  0.29607500  1
  Ir  Ir101  1  0.50000000  0.63452900  0.35285700  1
  Ir  Ir102  1  0.00000000  0.35635100  0.35871600  1
  Ir  Ir103  1  0.50000000  0.34127700  0.27557000  1
  Ir  Ir104  1  1.00000000  0.18425500  0.26675500  1
  Ir  Ir105  1  0.50000000  0.37051600  0.22467300  1
  Ir  Ir106  1  0.76606200  0.44302700  0.25212300  1
  Ir  Ir107  1  0.73393800  0.11174500  0.23930600  1
  Ir  Ir108  1  0.26606200  0.11174500  0.23930600  1
  Ir  Ir109  1  0.23393800  0.44302700  0.25212300  1
  Ir  Ir110  1  0.00000000  0.01809300  0.36754300  1
  Ir  Ir111  1  0.50000000  0.82239300  0.40960000  1
  Ir  Ir112  1  0.24951300  0.81711900  0.36750400  1
  Ir  Ir113  1  0.25048700  0.02336700  0.40963900  1
  Ir  Ir114  1  0.74951300  0.02336700  0.40963900  1
  Ir  Ir115  1  0.75048700  0.81711900  0.36750400  1
  Ir  Ir116  1  0.00000000  0.20595700  0.42428600  1
  Ir  Ir117  1  0.50000000  0.92778000  0.43014500  1
  Ir  Ir118  1  0.00000000  0.05556300  0.48985500  1
  Ir  Ir119  1  0.50000000  0.89854100  0.48104100  1
  Ir  Ir120  1  0.00000000  0.08480200  0.43895900  1
  Ir  Ir121  1  0.26606200  0.15731200  0.46640900  1
  Ir  Ir122  1  0.23393800  0.82603000  0.45359100  1
  Ir  Ir123  1  0.76606200  0.82603000  0.45359100  1
  Ir  Ir124  1  0.73393800  0.15731200  0.46640900  1
  Ir  Ir125  1  0.50000000  0.58952100  0.43897200  1
  Ir  Ir126  1  0.00000000  0.39382100  0.48102800  1
  Ir  Ir127  1  0.74951300  0.38854800  0.43893300  1
  Ir  Ir128  1  0.75048700  0.59479500  0.48106700  1
  Ir  Ir129  1  0.24951300  0.59479500  0.48106700  1
  Ir  Ir130  1  0.25048700  0.38854800  0.43893300  1
  Ir  Ir131  1  0.50000000  0.77738600  0.49571400  1
  Ir  Ir132  1  0.00000000  0.49920800  0.50157300  1
  Ir  Ir133  1  0.50000000  0.48413400  0.41842700  1
  Ir  Ir134  1  0.00000000  0.32711200  0.40961200  1
  Ir  Ir135  1  0.50000000  0.51337300  0.36753000  1
  Ir  Ir136  1  0.76606200  0.58588400  0.39498000  1
  Ir  Ir137  1  0.73393800  0.25460200  0.38216300  1
  Ir  Ir138  1  0.26606200  0.25460200  0.38216300  1
  Ir  Ir139  1  0.23393800  0.58588400  0.39498000  1
  Ir  Ir140  1  0.00000000  0.16095000  0.51040000  1
  Ir  Ir141  1  0.50000000  0.96525000  0.55245700  1
  Ir  Ir142  1  0.24951300  0.95997600  0.51036100  1
  Ir  Ir143  1  0.25048700  0.16622400  0.55249600  1
  Ir  Ir144  1  0.74951300  0.16622400  0.55249600  1
  Ir  Ir145  1  0.75048700  0.95997600  0.51036100  1
  Ir  Ir146  1  0.00000000  0.34881400  0.56714300  1
  Ir  Ir147  1  0.50000000  0.07063700  0.57300200  1
  Ir  Ir148  1  0.00000000  0.19842000  0.63271200  1
  Ir  Ir149  1  0.50000000  0.04139800  0.62389800  1
  Ir  Ir150  1  0.00000000  0.22765900  0.58181600  1
  Ir  Ir151  1  0.26606200  0.30017000  0.60926600  1
  Ir  Ir152  1  0.23393800  0.96888700  0.59644800  1
  Ir  Ir153  1  0.76606200  0.96888700  0.59644800  1
  Ir  Ir154  1  0.73393800  0.30017000  0.60926600  1
  Ir  Ir155  1  0.50000000  0.73237900  0.58182900  1
  Ir  Ir156  1  0.00000000  0.53667800  0.62388600  1
  Ir  Ir157  1  0.74951300  0.53140500  0.58179000  1
  Ir  Ir158  1  0.75048700  0.73765200  0.62392500  1
  Ir  Ir159  1  0.24951300  0.73765200  0.62392500  1
  Ir  Ir160  1  0.25048700  0.53140500  0.58179000  1
  Ir  Ir161  1  0.50000000  0.92024300  0.63857100  1
  Ir  Ir162  1  0.00000000  0.64206600  0.64443000  1
  Ir  Ir163  1  0.50000000  0.62699100  0.56128400  1
  Ir  Ir164  1  0.00000000  0.46996900  0.55247000  1
  Ir  Ir165  1  0.50000000  0.65623100  0.51038800  1
  Ir  Ir166  1  0.76606200  0.72874100  0.53783700  1
  Ir  Ir167  1  0.73393800  0.39745900  0.52502000  1
  Ir  Ir168  1  0.26606200  0.39745900  0.52502000  1
  Ir  Ir169  1  0.23393800  0.72874100  0.53783700  1
  Ir  Ir170  1  0.00000000  0.30380700  0.65325700  1
  Ir  Ir171  1  0.50000000  0.10810700  0.69531400  1
  Ir  Ir172  1  0.24951300  0.10283300  0.65321800  1
  Ir  Ir173  1  0.25048700  0.30908100  0.69535300  1
  Ir  Ir174  1  0.74951300  0.30908100  0.69535300  1
  Ir  Ir175  1  0.75048700  0.10283300  0.65321800  1
  Ir  Ir176  1  0.00000000  0.49167100  0.71000000  1
  Ir  Ir177  1  0.50000000  0.21349400  0.71585900  1
  Ir  Ir178  1  0.50000000  0.18425500  0.76675500  1
  Ir  Ir179  1  0.00000000  0.37051600  0.72467300  1
  Ir  Ir180  1  0.26606200  0.44302700  0.75212300  1
  Ir  Ir181  1  0.23393800  0.11174500  0.73930600  1
  Ir  Ir182  1  0.76606200  0.11174500  0.73930600  1
  Ir  Ir183  1  0.73393800  0.44302700  0.75212300  1
  Ir  Ir184  1  0.50000000  0.87523600  0.72468600  1
  Ir  Ir185  1  0.00000000  0.67953600  0.76674300  1
  Ir  Ir186  1  0.74951300  0.67426200  0.72464700  1
  Ir  Ir187  1  0.75048700  0.88050900  0.76678200  1
  Ir  Ir188  1  0.24951300  0.88050900  0.76678200  1
  Ir  Ir189  1  0.25048700  0.67426200  0.72464700  1
  Ir  Ir190  1  0.50000000  0.76984900  0.70414100  1
  Ir  Ir191  1  0.00000000  0.61282600  0.69532700  1
  Ir  Ir192  1  0.50000000  0.79908800  0.65324500  1
  Ir  Ir193  1  0.76606200  0.87159800  0.68069400  1
  Ir  Ir194  1  0.73393800  0.54031600  0.66787700  1
  Ir  Ir195  1  0.26606200  0.54031600  0.66787700  1
  Ir  Ir196  1  0.23393800  0.87159800  0.68069400  1
