# generated using pymatgen
data_SrMg10
_symmetry_space_group_name_H-M   'P 1'
_cell_length_a   10.60291304
_cell_length_b   10.12691700
_cell_length_c   46.21702700
_cell_angle_alpha   90.00000000
_cell_angle_beta   96.58677806
_cell_angle_gamma   90.00000000
_symmetry_Int_Tables_number   1
_chemical_formula_structural   SrMg10
_chemical_formula_sum   'Sr10 Mg100'
_cell_volume   4929.78851558
_cell_formula_units_Z   10
loop_
 _symmetry_equiv_pos_site_id
 _symmetry_equiv_pos_as_xyz
  1  'x, y, z'
loop_
 _atom_site_type_symbol
 _atom_site_label
 _atom_site_symmetry_multiplicity
 _atom_site_fract_x
 _atom_site_fract_y
 _atom_site_fract_z
 _atom_site_occupancy
  Sr  Sr0  1  0.54074000  0.75000000  0.25614000  1
  Sr  Sr1  1  0.07407400  0.25000000  0.32280700  1
  Sr  Sr2  1  0.60740700  0.25000000  0.38947400  1
  Sr  Sr3  1  0.60740700  0.75000000  0.38947400  1
  Sr  Sr4  1  0.14074000  0.75000000  0.45614000  1
  Sr  Sr5  1  0.67407400  0.25000000  0.52280700  1
  Sr  Sr6  1  0.20740700  0.25000000  0.58947400  1
  Sr  Sr7  1  0.20740700  0.75000000  0.58947400  1
  Sr  Sr8  1  0.74074000  0.75000000  0.65614000  1
  Sr  Sr9  1  0.27407400  0.25000000  0.72280700  1
  Mg  Mg10  1  0.04033800  0.02155600  0.25533500  1
  Mg  Mg11  1  0.83792200  0.02155600  0.35654300  1
  Mg  Mg12  1  0.34396200  0.02155600  0.35654300  1
  Mg  Mg13  1  0.27085200  0.52155600  0.22240400  1
  Mg  Mg14  1  0.07407400  0.59810200  0.32280700  1
  Mg  Mg15  1  0.54074000  0.09810200  0.25614000  1
  Mg  Mg16  1  0.54074000  0.40189800  0.25614000  1
  Mg  Mg17  1  0.07407400  0.90189800  0.32280700  1
  Mg  Mg18  1  0.10740700  0.50000000  0.38947400  1
  Mg  Mg19  1  0.80740700  0.00000000  0.28947400  1
  Mg  Mg20  1  0.30740700  0.00000000  0.28947400  1
  Mg  Mg21  1  0.30740700  0.50000000  0.28947400  1
  Mg  Mg22  1  0.80740700  0.50000000  0.28947400  1
  Mg  Mg23  1  0.10740700  0.00000000  0.38947400  1
  Mg  Mg24  1  0.25668400  0.75000000  0.38206700  1
  Mg  Mg25  1  0.83897100  0.25000000  0.25517400  1
  Mg  Mg26  1  0.42511900  0.25000000  0.31636600  1
  Mg  Mg27  1  0.18969500  0.75000000  0.26258100  1
  Mg  Mg28  1  0.77584300  0.75000000  0.32377300  1
  Mg  Mg29  1  0.66409100  0.25000000  0.19688100  1
  Mg  Mg30  1  0.71658700  0.25000000  0.31636600  1
  Mg  Mg31  1  0.35813000  0.25000000  0.19688100  1
  Mg  Mg32  1  0.24154300  0.25000000  0.25517400  1
  Mg  Mg33  1  0.37327100  0.75000000  0.32377300  1
  Mg  Mg34  1  0.95072300  0.75000000  0.38206700  1
  Mg  Mg35  1  0.89822700  0.75000000  0.26258100  1
  Mg  Mg36  1  0.34396200  0.47844400  0.35654300  1
  Mg  Mg37  1  0.77689200  0.97844400  0.22240400  1
  Mg  Mg38  1  0.57447600  0.97844400  0.32361200  1
  Mg  Mg39  1  0.04033800  0.47844400  0.25533500  1
  Mg  Mg40  1  0.83792200  0.47844400  0.35654300  1
  Mg  Mg41  1  0.77689200  0.52155600  0.22240400  1
  Mg  Mg42  1  0.57447600  0.52155600  0.32361200  1
  Mg  Mg43  1  0.27085200  0.97844400  0.22240400  1
  Mg  Mg44  1  0.64033800  0.02155600  0.45533500  1
  Mg  Mg45  1  0.43792200  0.02155600  0.55654300  1
  Mg  Mg46  1  0.94396200  0.02155600  0.55654300  1
  Mg  Mg47  1  0.87085200  0.52155600  0.42240400  1
  Mg  Mg48  1  0.67407400  0.59810200  0.52280700  1
  Mg  Mg49  1  0.14074000  0.09810200  0.45614000  1
  Mg  Mg50  1  0.14074000  0.40189800  0.45614000  1
  Mg  Mg51  1  0.67407400  0.90189800  0.52280700  1
  Mg  Mg52  1  0.70740700  0.50000000  0.58947400  1
  Mg  Mg53  1  0.40740700  0.00000000  0.48947400  1
  Mg  Mg54  1  0.90740700  0.00000000  0.48947400  1
  Mg  Mg55  1  0.90740700  0.50000000  0.48947400  1
  Mg  Mg56  1  0.40740700  0.50000000  0.48947400  1
  Mg  Mg57  1  0.70740700  0.00000000  0.58947400  1
  Mg  Mg58  1  0.85668400  0.75000000  0.58206700  1
  Mg  Mg59  1  0.43897100  0.25000000  0.45517400  1
  Mg  Mg60  1  0.02511900  0.25000000  0.51636600  1
  Mg  Mg61  1  0.78969500  0.75000000  0.46258100  1
  Mg  Mg62  1  0.37584300  0.75000000  0.52377300  1
  Mg  Mg63  1  0.26409100  0.25000000  0.39688100  1
  Mg  Mg64  1  0.31658700  0.25000000  0.51636600  1
  Mg  Mg65  1  0.95813000  0.25000000  0.39688100  1
  Mg  Mg66  1  0.84154300  0.25000000  0.45517400  1
  Mg  Mg67  1  0.97327100  0.75000000  0.52377300  1
  Mg  Mg68  1  0.55072300  0.75000000  0.58206700  1
  Mg  Mg69  1  0.49822700  0.75000000  0.46258100  1
  Mg  Mg70  1  0.94396200  0.47844400  0.55654300  1
  Mg  Mg71  1  0.37689200  0.97844400  0.42240400  1
  Mg  Mg72  1  0.17447600  0.97844400  0.52361200  1
  Mg  Mg73  1  0.64033800  0.47844400  0.45533500  1
  Mg  Mg74  1  0.43792200  0.47844400  0.55654300  1
  Mg  Mg75  1  0.37689200  0.52155600  0.42240400  1
  Mg  Mg76  1  0.17447600  0.52155600  0.52361200  1
  Mg  Mg77  1  0.87085200  0.97844400  0.42240400  1
  Mg  Mg78  1  0.24033800  0.02155600  0.65533500  1
  Mg  Mg79  1  0.03792200  0.02155600  0.75654300  1
  Mg  Mg80  1  0.54396200  0.02155600  0.75654300  1
  Mg  Mg81  1  0.47085200  0.52155600  0.62240400  1
  Mg  Mg82  1  0.27407400  0.59810200  0.72280700  1
  Mg  Mg83  1  0.74074000  0.09810200  0.65614000  1
  Mg  Mg84  1  0.74074000  0.40189800  0.65614000  1
  Mg  Mg85  1  0.27407400  0.90189800  0.72280700  1
  Mg  Mg86  1  0.00740700  0.00000000  0.68947400  1
  Mg  Mg87  1  0.50740700  0.00000000  0.68947400  1
  Mg  Mg88  1  0.50740700  0.50000000  0.68947400  1
  Mg  Mg89  1  0.00740700  0.50000000  0.68947400  1
  Mg  Mg90  1  0.45668400  0.75000000  0.78206700  1
  Mg  Mg91  1  0.03897100  0.25000000  0.65517400  1
  Mg  Mg92  1  0.62511900  0.25000000  0.71636600  1
  Mg  Mg93  1  0.38969500  0.75000000  0.66258100  1
  Mg  Mg94  1  0.97584300  0.75000000  0.72377300  1
  Mg  Mg95  1  0.86409100  0.25000000  0.59688100  1
  Mg  Mg96  1  0.91658700  0.25000000  0.71636600  1
  Mg  Mg97  1  0.55813000  0.25000000  0.59688100  1
  Mg  Mg98  1  0.44154300  0.25000000  0.65517400  1
  Mg  Mg99  1  0.57327100  0.75000000  0.72377300  1
  Mg  Mg100  1  0.15072300  0.75000000  0.78206700  1
  Mg  Mg101  1  0.09822700  0.75000000  0.66258100  1
  Mg  Mg102  1  0.54396200  0.47844400  0.75654300  1
  Mg  Mg103  1  0.97689200  0.97844400  0.62240400  1
  Mg  Mg104  1  0.77447600  0.97844400  0.72361200  1
  Mg  Mg105  1  0.24033800  0.47844400  0.65533500  1
  Mg  Mg106  1  0.03792200  0.47844400  0.75654300  1
  Mg  Mg107  1  0.97689200  0.52155600  0.62240400  1
  Mg  Mg108  1  0.77447600  0.52155600  0.72361200  1
  Mg  Mg109  1  0.47085200  0.97844400  0.62240400  1
