# generated using pymatgen
data_Sm2Mg
_symmetry_space_group_name_H-M   'P 1'
_cell_length_a   5.59581600
_cell_length_b   8.88868630
_cell_length_c   44.45033100
_cell_angle_alpha   91.04568330
_cell_angle_beta   90.00000000
_cell_angle_gamma   90.00000000
_symmetry_Int_Tables_number   1
_chemical_formula_structural   Sm2Mg
_chemical_formula_sum   'Sm28 Mg14'
_cell_volume   2210.56694663
_cell_formula_units_Z   14
loop_
 _symmetry_equiv_pos_site_id
 _symmetry_equiv_pos_as_xyz
  1  'x, y, z'
loop_
 _atom_site_type_symbol
 _atom_site_label
 _atom_site_symmetry_multiplicity
 _atom_site_fract_x
 _atom_site_fract_y
 _atom_site_fract_z
 _atom_site_occupancy
  Sm  Sm0  1  0.75000000  0.66236700  0.74256700  1
  Sm  Sm1  1  0.75000000  0.27131400  0.76904300  1
  Sm  Sm2  1  0.25000000  0.00430000  0.75743300  1
  Sm  Sm3  1  0.25000000  0.39535300  0.73095700  1
  Sm  Sm4  1  0.75000000  0.74570000  0.65923300  1
  Sm  Sm5  1  0.75000000  0.35464700  0.68570900  1
  Sm  Sm6  1  0.25000000  0.08763300  0.67410000  1
  Sm  Sm7  1  0.25000000  0.47868600  0.64762400  1
  Sm  Sm8  1  0.75000000  0.82903300  0.57590000  1
  Sm  Sm9  1  0.75000000  0.43798000  0.60237600  1
  Sm  Sm10  1  0.25000000  0.17096700  0.59076700  1
  Sm  Sm11  1  0.25000000  0.56202000  0.56429100  1
  Sm  Sm12  1  0.75000000  0.91236700  0.49256700  1
  Sm  Sm13  1  0.75000000  0.52131400  0.51904300  1
  Sm  Sm14  1  0.25000000  0.25430000  0.50743300  1
  Sm  Sm15  1  0.25000000  0.64535300  0.48095700  1
  Sm  Sm16  1  0.75000000  0.99570000  0.40923300  1
  Sm  Sm17  1  0.75000000  0.60464700  0.43570900  1
  Sm  Sm18  1  0.25000000  0.33763300  0.42410000  1
  Sm  Sm19  1  0.25000000  0.72868600  0.39762400  1
  Sm  Sm20  1  0.75000000  0.07903300  0.32590000  1
  Sm  Sm21  1  0.75000000  0.68798000  0.35237600  1
  Sm  Sm22  1  0.25000000  0.42096700  0.34076700  1
  Sm  Sm23  1  0.25000000  0.81202000  0.31429100  1
  Sm  Sm24  1  0.75000000  0.16236700  0.24256700  1
  Sm  Sm25  1  0.75000000  0.77131400  0.26904300  1
  Sm  Sm26  1  0.25000000  0.50430000  0.25743300  1
  Sm  Sm27  1  0.25000000  0.89535300  0.23095700  1
  Mg  Mg28  1  0.75000000  0.00580500  0.71402000  1
  Mg  Mg29  1  0.25000000  0.66086200  0.78598000  1
  Mg  Mg30  1  0.75000000  0.08913800  0.63068700  1
  Mg  Mg31  1  0.25000000  0.74419500  0.70264600  1
  Mg  Mg32  1  0.75000000  0.17247100  0.54735400  1
  Mg  Mg33  1  0.25000000  0.82752900  0.61931300  1
  Mg  Mg34  1  0.75000000  0.25580500  0.46402000  1
  Mg  Mg35  1  0.25000000  0.91086200  0.53598000  1
  Mg  Mg36  1  0.75000000  0.33913800  0.38068700  1
  Mg  Mg37  1  0.25000000  0.99419500  0.45264600  1
  Mg  Mg38  1  0.75000000  0.42247100  0.29735400  1
  Mg  Mg39  1  0.25000000  0.07752900  0.36931300  1
  Mg  Mg40  1  0.75000000  0.50580500  0.21402000  1
  Mg  Mg41  1  0.25000000  0.16086200  0.28598000  1
