# generated using pymatgen
data_Mg12Zn23
_symmetry_space_group_name_H-M   'P 1'
_cell_length_a   5.22493414
_cell_length_b   5.22493380
_cell_length_c   42.76792700
_cell_angle_alpha   86.49791894
_cell_angle_beta   86.49791917
_cell_angle_gamma   60.00000073
_symmetry_Int_Tables_number   1
_chemical_formula_structural   Mg12Zn23
_chemical_formula_sum   'Mg12 Zn23'
_cell_volume   1008.61962656
_cell_formula_units_Z   1
loop_
 _symmetry_equiv_pos_site_id
 _symmetry_equiv_pos_as_xyz
  1  'x, y, z'
loop_
 _atom_site_type_symbol
 _atom_site_label
 _atom_site_symmetry_multiplicity
 _atom_site_fract_x
 _atom_site_fract_y
 _atom_site_fract_z
 _atom_site_occupancy
  Mg  Mg0  1  0.04583300  0.64166700  0.29583300  1
  Mg  Mg1  1  0.07083300  0.66666700  0.22083300  1
  Mg  Mg2  1  0.34583300  0.94166700  0.39583300  1
  Mg  Mg3  1  0.37083300  0.96666700  0.32083300  1
  Mg  Mg4  1  0.64583300  0.24166700  0.49583300  1
  Mg  Mg5  1  0.67083300  0.26666700  0.42083300  1
  Mg  Mg6  1  0.94583300  0.54166700  0.59583300  1
  Mg  Mg7  1  0.97083300  0.56666700  0.52083300  1
  Mg  Mg8  1  0.24583300  0.84166700  0.69583300  1
  Mg  Mg9  1  0.27083300  0.86666700  0.62083300  1
  Mg  Mg10  1  0.54583300  0.14166700  0.79583300  1
  Mg  Mg11  1  0.57083300  0.16666700  0.72083300  1
  Zn  Zn12  1  0.05833300  0.15416700  0.25833300  1
  Zn  Zn13  1  0.55833300  0.15416700  0.25833300  1
  Zn  Zn14  1  0.55833300  0.65416700  0.25833300  1
  Zn  Zn15  1  0.70833300  0.30416700  0.30833300  1
  Zn  Zn16  1  0.35833300  0.45416700  0.35833300  1
  Zn  Zn17  1  0.85833300  0.45416700  0.35833300  1
  Zn  Zn18  1  0.85833300  0.95416700  0.35833300  1
  Zn  Zn19  1  0.00833300  0.60416700  0.40833300  1
  Zn  Zn20  1  0.65833300  0.75416700  0.45833300  1
  Zn  Zn21  1  0.15833300  0.75416700  0.45833300  1
  Zn  Zn22  1  0.15833300  0.25416700  0.45833300  1
  Zn  Zn23  1  0.30833300  0.90416700  0.50833300  1
  Zn  Zn24  1  0.95833300  0.05416700  0.55833300  1
  Zn  Zn25  1  0.45833300  0.05416700  0.55833300  1
  Zn  Zn26  1  0.45833300  0.55416700  0.55833300  1
  Zn  Zn27  1  0.60833300  0.20416700  0.60833300  1
  Zn  Zn28  1  0.25833300  0.35416700  0.65833300  1
  Zn  Zn29  1  0.75833300  0.35416700  0.65833300  1
  Zn  Zn30  1  0.75833300  0.85416700  0.65833300  1
  Zn  Zn31  1  0.90833300  0.50416700  0.70833300  1
  Zn  Zn32  1  0.55833300  0.65416700  0.75833300  1
  Zn  Zn33  1  0.05833300  0.65416700  0.75833300  1
  Zn  Zn34  1  0.05833300  0.15416700  0.75833300  1
