# generated using pymatgen
data_Mg5Ag3
_symmetry_space_group_name_H-M   'P 1'
_cell_length_a   3.33664900
_cell_length_b   3.33664900
_cell_length_c   53.79061000
_cell_angle_alpha   90.00000000
_cell_angle_beta   90.00000000
_cell_angle_gamma   90.00000000
_symmetry_Int_Tables_number   1
_chemical_formula_structural   Mg5Ag3
_chemical_formula_sum   'Mg10 Ag6'
_cell_volume   598.86304735
_cell_formula_units_Z   2
loop_
 _symmetry_equiv_pos_site_id
 _symmetry_equiv_pos_as_xyz
  1  'x, y, z'
loop_
 _atom_site_type_symbol
 _atom_site_label
 _atom_site_symmetry_multiplicity
 _atom_site_fract_x
 _atom_site_fract_y
 _atom_site_fract_z
 _atom_site_occupancy
  Mg  Mg0  1  0.00000000  0.00000000  0.35292800  1
  Mg  Mg1  1  0.50000000  0.50000000  0.31373800  1
  Mg  Mg2  1  0.50000000  0.50000000  0.45292800  1
  Mg  Mg3  1  0.00000000  0.00000000  0.41373800  1
  Mg  Mg4  1  0.00000000  0.00000000  0.55292800  1
  Mg  Mg5  1  0.50000000  0.50000000  0.51373800  1
  Mg  Mg6  1  0.50000000  0.50000000  0.65292800  1
  Mg  Mg7  1  0.00000000  0.00000000  0.61373800  1
  Mg  Mg8  1  0.00000000  0.00000000  0.75292800  1
  Mg  Mg9  1  0.50000000  0.50000000  0.71373800  1
  Ag  Ag10  1  0.50000000  0.50000000  0.38333300  1
  Ag  Ag11  1  0.00000000  0.00000000  0.28333300  1
  Ag  Ag12  1  0.50000000  0.50000000  0.58333300  1
  Ag  Ag13  1  0.00000000  0.00000000  0.48333300  1
  Ag  Ag14  1  0.50000000  0.50000000  0.78333300  1
  Ag  Ag15  1  0.00000000  0.00000000  0.68333300  1
