# generated using pymatgen
data_LiMg2
_symmetry_space_group_name_H-M   'P 1'
_cell_length_a   3.05132800
_cell_length_b   17.58176747
_cell_length_c   48.62272600
_cell_angle_alpha   93.50325111
_cell_angle_beta   90.00000000
_cell_angle_gamma   90.00000000
_symmetry_Int_Tables_number   1
_chemical_formula_structural   LiMg2
_chemical_formula_sum   'Li24 Mg48'
_cell_volume   2603.62491512
_cell_formula_units_Z   24
loop_
 _symmetry_equiv_pos_site_id
 _symmetry_equiv_pos_as_xyz
  1  'x, y, z'
loop_
 _atom_site_type_symbol
 _atom_site_label
 _atom_site_symmetry_multiplicity
 _atom_site_fract_x
 _atom_site_fract_y
 _atom_site_fract_z
 _atom_site_occupancy
  Li  Li0  1  0.50000000  0.97239900  0.28640000  1
  Li  Li1  1  0.00000000  0.67760100  0.26360000  1
  Li  Li2  1  0.00000000  0.42239900  0.23640000  1
  Li  Li3  1  0.50000000  0.12760100  0.21360000  1
  Li  Li4  1  0.50000000  0.07239900  0.38640000  1
  Li  Li5  1  0.00000000  0.77760100  0.36360000  1
  Li  Li6  1  0.00000000  0.52239900  0.33640000  1
  Li  Li7  1  0.50000000  0.22760100  0.31360000  1
  Li  Li8  1  0.50000000  0.17239900  0.48640000  1
  Li  Li9  1  0.00000000  0.87760100  0.46360000  1
  Li  Li10  1  0.00000000  0.62239900  0.43640000  1
  Li  Li11  1  0.50000000  0.32760100  0.41360000  1
  Li  Li12  1  0.50000000  0.27239900  0.58640000  1
  Li  Li13  1  0.00000000  0.97760100  0.56360000  1
  Li  Li14  1  0.00000000  0.72239900  0.53640000  1
  Li  Li15  1  0.50000000  0.42760100  0.51360000  1
  Li  Li16  1  0.50000000  0.37239900  0.68640000  1
  Li  Li17  1  0.00000000  0.07760100  0.66360000  1
  Li  Li18  1  0.00000000  0.82239900  0.63640000  1
  Li  Li19  1  0.50000000  0.52760100  0.61360000  1
  Li  Li20  1  0.50000000  0.47239900  0.78640000  1
  Li  Li21  1  0.00000000  0.17760100  0.76360000  1
  Li  Li22  1  0.00000000  0.92239900  0.73640000  1
  Li  Li23  1  0.50000000  0.62760100  0.71360000  1
  Mg  Mg24  1  0.00000000  0.72117700  0.20320300  1
  Mg  Mg25  1  0.50000000  0.57101800  0.21988700  1
  Mg  Mg26  1  0.50000000  0.82882300  0.24679700  1
  Mg  Mg27  1  0.00000000  0.97898200  0.23011300  1
  Mg  Mg28  1  0.50000000  0.27117700  0.25320300  1
  Mg  Mg29  1  0.00000000  0.12101800  0.26988700  1
  Mg  Mg30  1  0.00000000  0.37882300  0.29679700  1
  Mg  Mg31  1  0.50000000  0.52898200  0.28011300  1
  Mg  Mg32  1  0.00000000  0.82117700  0.30320300  1
  Mg  Mg33  1  0.50000000  0.67101800  0.31988700  1
  Mg  Mg34  1  0.50000000  0.92882300  0.34679700  1
  Mg  Mg35  1  0.00000000  0.07898200  0.33011300  1
  Mg  Mg36  1  0.50000000  0.37117700  0.35320300  1
  Mg  Mg37  1  0.00000000  0.22101800  0.36988700  1
  Mg  Mg38  1  0.00000000  0.47882300  0.39679700  1
  Mg  Mg39  1  0.50000000  0.62898200  0.38011300  1
  Mg  Mg40  1  0.00000000  0.92117700  0.40320300  1
  Mg  Mg41  1  0.50000000  0.77101800  0.41988700  1
  Mg  Mg42  1  0.50000000  0.02882300  0.44679700  1
  Mg  Mg43  1  0.00000000  0.17898200  0.43011300  1
  Mg  Mg44  1  0.50000000  0.47117700  0.45320300  1
  Mg  Mg45  1  0.00000000  0.32101800  0.46988700  1
  Mg  Mg46  1  0.00000000  0.57882300  0.49679700  1
  Mg  Mg47  1  0.50000000  0.72898200  0.48011300  1
  Mg  Mg48  1  0.00000000  0.02117700  0.50320300  1
  Mg  Mg49  1  0.50000000  0.87101800  0.51988700  1
  Mg  Mg50  1  0.50000000  0.12882300  0.54679700  1
  Mg  Mg51  1  0.00000000  0.27898200  0.53011300  1
  Mg  Mg52  1  0.50000000  0.57117700  0.55320300  1
  Mg  Mg53  1  0.00000000  0.42101800  0.56988700  1
  Mg  Mg54  1  0.00000000  0.67882300  0.59679700  1
  Mg  Mg55  1  0.50000000  0.82898200  0.58011300  1
  Mg  Mg56  1  0.00000000  0.12117700  0.60320300  1
  Mg  Mg57  1  0.50000000  0.97101800  0.61988700  1
  Mg  Mg58  1  0.50000000  0.22882300  0.64679700  1
  Mg  Mg59  1  0.00000000  0.37898200  0.63011300  1
  Mg  Mg60  1  0.50000000  0.67117700  0.65320300  1
  Mg  Mg61  1  0.00000000  0.52101800  0.66988700  1
  Mg  Mg62  1  0.00000000  0.77882300  0.69679700  1
  Mg  Mg63  1  0.50000000  0.92898200  0.68011300  1
  Mg  Mg64  1  0.00000000  0.22117700  0.70320300  1
  Mg  Mg65  1  0.50000000  0.07101800  0.71988700  1
  Mg  Mg66  1  0.50000000  0.32882300  0.74679700  1
  Mg  Mg67  1  0.00000000  0.47898200  0.73011300  1
  Mg  Mg68  1  0.50000000  0.77117700  0.75320300  1
  Mg  Mg69  1  1.00000000  0.62101800  0.76988700  1
  Mg  Mg70  1  0.00000000  0.87882300  0.79679700  1
  Mg  Mg71  1  0.50000000  0.02898200  0.78011300  1
