# generated using pymatgen
data_Mg2Rh
_symmetry_space_group_name_H-M   'P 1'
_cell_length_a   4.58065100
_cell_length_b   5.43415071
_cell_length_c   41.22585700
_cell_angle_alpha   90.00000000
_cell_angle_beta   90.00000000
_cell_angle_gamma   114.92735398
_symmetry_Int_Tables_number   1
_chemical_formula_structural   Mg2Rh
_chemical_formula_sum   'Mg22 Rh11'
_cell_volume   930.59482606
_cell_formula_units_Z   11
loop_
 _symmetry_equiv_pos_site_id
 _symmetry_equiv_pos_as_xyz
  1  'x, y, z'
loop_
 _atom_site_type_symbol
 _atom_site_label
 _atom_site_symmetry_multiplicity
 _atom_site_fract_x
 _atom_site_fract_y
 _atom_site_fract_z
 _atom_site_occupancy
  Mg  Mg0  1  0.89544500  0.29089000  0.22222200  1
  Mg  Mg1  1  0.60455500  0.70911000  0.22222200  1
  Mg  Mg2  1  0.39544500  0.29089000  0.27777800  1
  Mg  Mg3  1  0.10455500  0.70911000  0.27777800  1
  Mg  Mg4  1  0.89544500  0.29089000  0.33333300  1
  Mg  Mg5  1  0.60455500  0.70911000  0.33333300  1
  Mg  Mg6  1  0.39544500  0.29089000  0.38888900  1
  Mg  Mg7  1  0.10455500  0.70911000  0.38888900  1
  Mg  Mg8  1  0.89544500  0.29089000  0.44444400  1
  Mg  Mg9  1  0.60455500  0.70911000  0.44444400  1
  Mg  Mg10  1  0.39544500  0.29089000  0.50000000  1
  Mg  Mg11  1  0.10455500  0.70911000  0.50000000  1
  Mg  Mg12  1  0.89544500  0.29089000  0.55555600  1
  Mg  Mg13  1  0.60455500  0.70911000  0.55555600  1
  Mg  Mg14  1  0.39544500  0.29089000  0.61111100  1
  Mg  Mg15  1  0.10455500  0.70911000  0.61111100  1
  Mg  Mg16  1  0.89544500  0.29089000  0.66666700  1
  Mg  Mg17  1  0.60455500  0.70911000  0.66666700  1
  Mg  Mg18  1  0.39544500  0.29089000  0.72222200  1
  Mg  Mg19  1  0.10455500  0.70911000  0.72222200  1
  Mg  Mg20  1  0.89544500  0.29089000  0.77777800  1
  Mg  Mg21  1  0.60455500  0.70911000  0.77777800  1
  Rh  Rh22  1  0.25000000  0.00000000  0.22222200  1
  Rh  Rh23  1  0.75000000  0.00000000  0.27777800  1
  Rh  Rh24  1  0.25000000  0.00000000  0.33333300  1
  Rh  Rh25  1  0.75000000  0.00000000  0.38888900  1
  Rh  Rh26  1  0.25000000  0.00000000  0.44444400  1
  Rh  Rh27  1  0.75000000  0.00000000  0.50000000  1
  Rh  Rh28  1  0.25000000  0.00000000  0.55555600  1
  Rh  Rh29  1  0.75000000  0.00000000  0.61111100  1
  Rh  Rh30  1  0.25000000  0.00000000  0.66666700  1
  Rh  Rh31  1  0.75000000  0.00000000  0.72222200  1
  Rh  Rh32  1  0.25000000  0.00000000  0.77777800  1
