# generated using pymatgen
data_Ba28Mg241
_symmetry_space_group_name_H-M   'P 1'
_cell_length_a   18.31901762
_cell_length_b   18.93828385
_cell_length_c   41.24323200
_cell_angle_alpha   80.05199511
_cell_angle_beta   77.16846902
_cell_angle_gamma   61.07591055
_symmetry_Int_Tables_number   1
_chemical_formula_structural   Ba28Mg241
_chemical_formula_sum   'Ba28 Mg241'
_cell_volume   12175.11810506
_cell_formula_units_Z   1
loop_
 _symmetry_equiv_pos_site_id
 _symmetry_equiv_pos_as_xyz
  1  'x, y, z'
loop_
 _atom_site_type_symbol
 _atom_site_label
 _atom_site_symmetry_multiplicity
 _atom_site_fract_x
 _atom_site_fract_y
 _atom_site_fract_z
 _atom_site_occupancy
  Ba  Ba0  1  0.22691900  0.89369700  0.29541000  1
  Ba  Ba1  1  0.56388600  0.30400400  0.21116900  1
  Ba  Ba2  1  0.89358500  0.31036400  0.21207700  1
  Ba  Ba3  1  0.73055300  0.59567100  0.25283500  1
  Ba  Ba4  1  0.06025200  0.60203100  0.25374400  1
  Ba  Ba5  1  0.89722000  0.88733700  0.29450200  1
  Ba  Ba6  1  0.72691900  0.76869700  0.42041000  1
  Ba  Ba7  1  0.06388600  0.17900400  0.33616900  1
  Ba  Ba8  1  0.39358500  0.18536400  0.33707700  1
  Ba  Ba9  1  0.23055300  0.47067100  0.37783500  1
  Ba  Ba10  1  0.56025200  0.47703100  0.37874400  1
  Ba  Ba11  1  0.39722000  0.76233700  0.41950200  1
  Ba  Ba12  1  0.22691900  0.64369700  0.54541000  1
  Ba  Ba13  1  0.56388600  0.05400400  0.46116900  1
  Ba  Ba14  1  0.89358500  0.06036400  0.46207700  1
  Ba  Ba15  1  0.73055300  0.34567100  0.50283500  1
  Ba  Ba16  1  0.06025200  0.35203100  0.50374400  1
  Ba  Ba17  1  0.89722000  0.63733700  0.54450200  1
  Ba  Ba18  1  0.72691900  0.51869700  0.67041000  1
  Ba  Ba19  1  0.06388600  0.92900400  0.58616900  1
  Ba  Ba20  1  0.39358500  0.93536400  0.58707700  1
  Ba  Ba21  1  0.23055300  0.22067100  0.62783500  1
  Ba  Ba22  1  0.56025200  0.22703100  0.62874400  1
  Ba  Ba23  1  0.39722000  0.51233700  0.66950200  1
  Ba  Ba24  1  0.56388600  0.80400400  0.71116900  1
  Ba  Ba25  1  0.89358500  0.81036400  0.71207700  1
  Ba  Ba26  1  0.73055300  0.09567100  0.75283500  1
  Ba  Ba27  1  0.06025200  0.10203100  0.75374400  1
  Mg  Mg28  1  0.91580500  0.97895100  0.20652200  1
  Mg  Mg29  1  0.55445700  0.10979400  0.25566800  1
  Mg  Mg30  1  0.48349500  0.14969400  0.18912400  1
  Mg  Mg31  1  0.34700900  0.68353900  0.26538800  1
  Mg  Mg32  1  0.06206900  0.94238500  0.24308800  1
  Mg  Mg33  1  0.70833300  0.92708300  0.25839000  1
  Mg  Mg34  1  0.05445700  0.11122000  0.25424100  1
  Mg  Mg35  1  0.44379600  0.51416300  0.24119100  1
  Mg  Mg36  1  0.58247200  0.21875000  0.30005700  1
  Mg  Mg37  1  0.39540300  0.09885100  0.25328900  1
  Mg  Mg38  1  0.56206900  0.96364900  0.22182400  1
  Mg  Mg39  1  0.80731100  0.17300700  0.19245500  1
  Mg  Mg40  1  0.23634800  0.08790800  0.25091100  1
  Mg  Mg41  1  0.73634800  0.08648100  0.25233800  1
  Mg  Mg42  1  0.72873600  0.80718400  0.21162300  1
  Mg  Mg43  1  0.37500000  0.27061800  0.24818900  1
  Mg  Mg44  1  0.14540300  0.16135100  0.19078900  1
  Mg  Mg45  1  0.08247200  0.27061800  0.24818900  1
  Mg  Mg46  1  0.72112400  0.40146000  0.29733500  1
  Mg  Mg47  1  0.65016100  0.44136100  0.23079100  1
  Mg  Mg48  1  0.51367600  0.97520500  0.30705400  1
  Mg  Mg49  1  0.22873600  0.23405200  0.28475500  1
  Mg  Mg50  1  0.87500000  0.21875000  0.30005700  1
  Mg  Mg51  1  0.22112400  0.40288700  0.29590800  1
  Mg  Mg52  1  0.61046200  0.80582900  0.28285800  1
  Mg  Mg53  1  0.24913900  0.63541700  0.21672300  1
  Mg  Mg54  1  0.56206900  0.39051700  0.29495600  1
  Mg  Mg55  1  0.72873600  0.25531600  0.26349100  1
  Mg  Mg56  1  0.97397700  0.46467400  0.23412100  1
  Mg  Mg57  1  0.40301400  0.37957400  0.29257800  1
  Mg  Mg58  1  0.90301400  0.37814800  0.29400400  1
  Mg  Mg59  1  0.89540300  0.09885100  0.25328900  1
  Mg  Mg60  1  0.54166700  0.56228500  0.28985500  1
  Mg  Mg61  1  0.31206900  0.45301700  0.23245600  1
  Mg  Mg62  1  0.24913900  0.56228500  0.28985500  1
  Mg  Mg63  1  0.38779100  0.81812700  0.21400100  1
  Mg  Mg64  1  0.81682800  0.73302800  0.27245800  1
  Mg  Mg65  1  0.18034300  0.39187200  0.22372100  1
  Mg  Mg66  1  0.89540300  0.65071900  0.20142200  1
  Mg  Mg67  1  0.54166700  0.63541700  0.21672300  1
  Mg  Mg68  1  0.88779100  0.81955400  0.21257500  1
  Mg  Mg69  1  0.27712900  0.22249600  0.19952500  1
  Mg  Mg70  1  0.41580500  0.92708300  0.25839000  1
  Mg  Mg71  1  0.22873600  0.80718400  0.21162300  1
  Mg  Mg72  1  0.89540300  0.54698300  0.30515700  1
  Mg  Mg73  1  0.14064400  0.75634000  0.27578800  1
  Mg  Mg74  1  0.06968100  0.79624100  0.20924400  1
  Mg  Mg75  1  0.56968100  0.79481400  0.21067100  1
  Mg  Mg76  1  0.06206900  0.39051700  0.29495600  1
  Mg  Mg77  1  0.20833300  0.97895100  0.20652200  1
  Mg  Mg78  1  0.47873600  0.74468400  0.27412300  1
  Mg  Mg79  1  0.41580500  0.85395100  0.33152200  1
  Mg  Mg80  1  0.05445700  0.98479400  0.38066800  1
  Mg  Mg81  1  0.98349500  0.02469400  0.31412400  1
  Mg  Mg82  1  0.84700900  0.55853900  0.39038800  1
  Mg  Mg83  1  0.56206900  0.81738500  0.36808800  1
  Mg  Mg84  1  0.20833300  0.80208300  0.38339000  1
  Mg  Mg85  1  0.55445700  0.98622000  0.37924100  1
  Mg  Mg86  1  0.94379600  0.38916300  0.36619100  1
  Mg  Mg87  1  0.08247200  0.09375000  0.42505700  1
  Mg  Mg88  1  0.89540300  0.97385100  0.37828900  1
  Mg  Mg89  1  0.06206900  0.83864900  0.34682400  1
  Mg  Mg90  1  0.30731100  0.04800700  0.31745500  1
  Mg  Mg91  1  0.73634800  0.96290800  0.37591100  1
  Mg  Mg92  1  0.23634800  0.96148100  0.37733800  1
  Mg  Mg93  1  0.22873600  0.68218400  0.33662300  1
  Mg  Mg94  1  0.87500000  0.14561800  0.37318900  1
  Mg  Mg95  1  0.64540300  0.03635100  0.31578900  1
  Mg  Mg96  1  0.58247200  0.14561800  0.37318900  1
  Mg  Mg97  1  0.22112400  0.27646000  0.42233500  1
  Mg  Mg98  1  0.15016100  0.31636100  0.35579100  1
  Mg  Mg99  1  0.01367600  0.85020500  0.43205400  1
  Mg  Mg100  1  0.72873600  0.10905200  0.40975500  1
  Mg  Mg101  1  0.37500000  0.09375000  0.42505700  1
  Mg  Mg102  1  0.72112400  0.27788700  0.42090800  1
  Mg  Mg103  1  0.11046200  0.68082900  0.40785800  1
  Mg  Mg104  1  0.74913900  0.51041700  0.34172300  1
  Mg  Mg105  1  0.06206900  0.26551700  0.41995600  1
  Mg  Mg106  1  0.22873600  0.13031600  0.38849100  1
  Mg  Mg107  1  0.47397700  0.33967400  0.35912100  1
  Mg  Mg108  1  0.90301400  0.25457400  0.41757800  1
  Mg  Mg109  1  0.40301400  0.25314800  0.41900400  1
  Mg  Mg110  1  0.39540300  0.97385100  0.37828900  1
  Mg  Mg111  1  0.04166700  0.43728500  0.41485500  1
  Mg  Mg112  1  0.81206900  0.32801700  0.35745600  1
  Mg  Mg113  1  0.74913900  0.43728500  0.41485500  1
  Mg  Mg114  1  0.88779100  0.69312700  0.33900100  1
  Mg  Mg115  1  0.31682800  0.60802800  0.39745800  1
  Mg  Mg116  1  0.68034300  0.26687200  0.34872100  1
  Mg  Mg117  1  0.39540300  0.52571900  0.32642200  1
  Mg  Mg118  1  0.04166700  0.51041700  0.34172300  1
  Mg  Mg119  1  0.38779100  0.69455400  0.33757500  1
  Mg  Mg120  1  0.77712900  0.09749600  0.32452500  1
  Mg  Mg121  1  0.91580500  0.80208300  0.38339000  1
  Mg  Mg122  1  0.72873600  0.68218400  0.33662300  1
  Mg  Mg123  1  0.39540300  0.42198300  0.43015700  1
  Mg  Mg124  1  0.64064400  0.63134000  0.40078800  1
  Mg  Mg125  1  0.56968100  0.67124100  0.33424400  1
  Mg  Mg126  1  0.06968100  0.66981400  0.33567100  1
  Mg  Mg127  1  0.56206900  0.26551700  0.41995600  1
  Mg  Mg128  1  0.70833300  0.85395100  0.33152200  1
  Mg  Mg129  1  0.97873600  0.61968400  0.39912300  1
  Mg  Mg130  1  0.91580500  0.72895100  0.45652200  1
  Mg  Mg131  1  0.55445700  0.85979400  0.50566800  1
  Mg  Mg132  1  0.48349500  0.89969400  0.43912400  1
  Mg  Mg133  1  0.34700900  0.43353900  0.51538800  1
  Mg  Mg134  1  0.06206900  0.69238500  0.49308800  1
  Mg  Mg135  1  0.70833300  0.67708300  0.50839000  1
  Mg  Mg136  1  0.05445700  0.86122000  0.50424100  1
  Mg  Mg137  1  0.44379600  0.26416300  0.49119100  1
  Mg  Mg138  1  0.58247200  0.96875000  0.55005700  1
  Mg  Mg139  1  0.39540300  0.84885100  0.50328900  1
  Mg  Mg140  1  0.56206900  0.71364900  0.47182400  1
  Mg  Mg141  1  0.80731100  0.92300700  0.44245500  1
  Mg  Mg142  1  0.23634800  0.83790800  0.50091100  1
  Mg  Mg143  1  0.73634800  0.83648100  0.50233800  1
  Mg  Mg144  1  0.72873600  0.55718400  0.46162300  1
  Mg  Mg145  1  0.37500000  0.02061800  0.49818900  1
  Mg  Mg146  1  0.14540300  0.91135100  0.44078900  1
  Mg  Mg147  1  0.08247200  0.02061800  0.49818900  1
  Mg  Mg148  1  0.72112400  0.15146000  0.54733500  1
  Mg  Mg149  1  0.65016100  0.19136100  0.48079100  1
  Mg  Mg150  1  0.51367600  0.72520500  0.55705400  1
  Mg  Mg151  1  0.22873600  0.98405200  0.53475500  1
  Mg  Mg152  1  0.87500000  0.96875000  0.55005700  1
  Mg  Mg153  1  0.22112400  0.15288700  0.54590800  1
  Mg  Mg154  1  0.61046200  0.55582900  0.53285800  1
  Mg  Mg155  1  0.24913900  0.38541700  0.46672300  1
  Mg  Mg156  1  0.56206900  0.14051700  0.54495600  1
  Mg  Mg157  1  0.72873600  0.00531600  0.51349100  1
  Mg  Mg158  1  0.97397700  0.21467400  0.48412100  1
  Mg  Mg159  1  0.40301400  0.12957400  0.54257800  1
  Mg  Mg160  1  0.90301400  0.12814800  0.54400400  1
  Mg  Mg161  1  0.89540300  0.84885100  0.50328900  1
  Mg  Mg162  1  0.54166700  0.31228500  0.53985500  1
  Mg  Mg163  1  0.31206900  0.20301700  0.48245600  1
  Mg  Mg164  1  0.24913900  0.31228500  0.53985500  1
  Mg  Mg165  1  0.38779100  0.56812700  0.46400100  1
  Mg  Mg166  1  0.81682800  0.48302800  0.52245800  1
  Mg  Mg167  1  0.18034300  0.14187200  0.47372100  1
  Mg  Mg168  1  0.89540300  0.40071900  0.45142200  1
  Mg  Mg169  1  0.54166700  0.38541700  0.46672300  1
  Mg  Mg170  1  0.88779100  0.56955400  0.46257500  1
  Mg  Mg171  1  0.27712900  0.97249600  0.44952500  1
  Mg  Mg172  1  0.41580500  0.67708300  0.50839000  1
  Mg  Mg173  1  0.22873600  0.55718400  0.46162300  1
  Mg  Mg174  1  0.89540300  0.29698300  0.55515700  1
  Mg  Mg175  1  0.14064400  0.50634000  0.52578800  1
  Mg  Mg176  1  0.06968100  0.54624100  0.45924400  1
  Mg  Mg177  1  0.56968100  0.54481400  0.46067100  1
  Mg  Mg178  1  0.06206900  0.14051700  0.54495600  1
  Mg  Mg179  1  0.20833300  0.72895100  0.45652200  1
  Mg  Mg180  1  0.47873600  0.49468400  0.52412300  1
  Mg  Mg181  1  0.41580500  0.60395100  0.58152200  1
  Mg  Mg182  1  0.05445700  0.73479400  0.63066800  1
  Mg  Mg183  1  0.98349500  0.77469400  0.56412400  1
  Mg  Mg184  1  0.84700900  0.30853900  0.64038800  1
  Mg  Mg185  1  0.56206900  0.56738500  0.61808800  1
  Mg  Mg186  1  0.20833300  0.55208300  0.63339000  1
  Mg  Mg187  1  0.55445700  0.73622000  0.62924100  1
  Mg  Mg188  1  0.94379600  0.13916300  0.61619100  1
  Mg  Mg189  1  0.08247200  0.84375000  0.67505700  1
  Mg  Mg190  1  0.89540300  0.72385100  0.62828900  1
  Mg  Mg191  1  0.06206900  0.58864900  0.59682400  1
  Mg  Mg192  1  0.30731100  0.79800700  0.56745500  1
  Mg  Mg193  1  0.73634800  0.71290800  0.62591100  1
  Mg  Mg194  1  0.23634800  0.71148100  0.62733800  1
  Mg  Mg195  1  0.22873600  0.43218400  0.58662300  1
  Mg  Mg196  1  0.87500000  0.89561800  0.62318900  1
  Mg  Mg197  1  0.64540300  0.78635100  0.56578900  1
  Mg  Mg198  1  0.58247200  0.89561800  0.62318900  1
  Mg  Mg199  1  0.22112400  0.02646000  0.67233500  1
  Mg  Mg200  1  0.15016100  0.06636100  0.60579100  1
  Mg  Mg201  1  0.01367600  0.60020500  0.68205400  1
  Mg  Mg202  1  0.72873600  0.85905200  0.65975500  1
  Mg  Mg203  1  0.37500000  0.84375000  0.67505700  1
  Mg  Mg204  1  0.72112400  0.02788700  0.67090800  1
  Mg  Mg205  1  0.11046200  0.43082900  0.65785800  1
  Mg  Mg206  1  0.74913900  0.26041700  0.59172300  1
  Mg  Mg207  1  0.06206900  0.01551700  0.66995600  1
  Mg  Mg208  1  0.22873600  0.88031600  0.63849100  1
  Mg  Mg209  1  0.47397700  0.08967400  0.60912100  1
  Mg  Mg210  1  0.90301400  0.00457400  0.66757800  1
  Mg  Mg211  1  0.40301400  0.00314800  0.66900400  1
  Mg  Mg212  1  0.39540300  0.72385100  0.62828900  1
  Mg  Mg213  1  0.04166700  0.18728500  0.66485500  1
  Mg  Mg214  1  0.81206900  0.07801700  0.60745600  1
  Mg  Mg215  1  0.74913900  0.18728500  0.66485500  1
  Mg  Mg216  1  0.88779100  0.44312700  0.58900100  1
  Mg  Mg217  1  0.31682800  0.35802800  0.64745800  1
  Mg  Mg218  1  0.68034300  0.01687200  0.59872100  1
  Mg  Mg219  1  0.39540300  0.27571900  0.57642200  1
  Mg  Mg220  1  0.04166700  0.26041700  0.59172300  1
  Mg  Mg221  1  0.38779100  0.44455400  0.58757500  1
  Mg  Mg222  1  0.77712900  0.84749600  0.57452500  1
  Mg  Mg223  1  0.91580500  0.55208300  0.63339000  1
  Mg  Mg224  1  0.72873600  0.43218400  0.58662300  1
  Mg  Mg225  1  0.39540300  0.17198300  0.68015700  1
  Mg  Mg226  1  0.64064400  0.38134000  0.65078800  1
  Mg  Mg227  1  0.56968100  0.42124100  0.58424400  1
  Mg  Mg228  1  0.06968100  0.41981400  0.58567100  1
  Mg  Mg229  1  0.56206900  0.01551700  0.66995600  1
  Mg  Mg230  1  0.70833300  0.60395100  0.58152200  1
  Mg  Mg231  1  0.97873600  0.36968400  0.64912300  1
  Mg  Mg232  1  0.91580500  0.47895100  0.70652200  1
  Mg  Mg233  1  0.55445700  0.60979400  0.75566800  1
  Mg  Mg234  1  0.48349500  0.64969400  0.68912400  1
  Mg  Mg235  1  0.34700900  0.18353900  0.76538800  1
  Mg  Mg236  1  0.06206900  0.44238500  0.74308800  1
  Mg  Mg237  1  0.70833300  0.42708300  0.75839000  1
  Mg  Mg238  1  0.05445700  0.61122000  0.75424100  1
  Mg  Mg239  1  0.44379600  0.01416300  0.74119100  1
  Mg  Mg240  1  0.39540300  0.59885100  0.75328900  1
  Mg  Mg241  1  0.56206900  0.46364900  0.72182400  1
  Mg  Mg242  1  0.80731100  0.67300700  0.69245500  1
  Mg  Mg243  1  0.23634800  0.58790800  0.75091100  1
  Mg  Mg244  1  0.73634800  0.58648100  0.75233800  1
  Mg  Mg245  1  0.72873600  0.30718400  0.71162300  1
  Mg  Mg246  1  0.37500000  0.77061800  0.74818900  1
  Mg  Mg247  1  0.14540300  0.66135100  0.69078900  1
  Mg  Mg248  1  0.08247200  0.77061800  0.74818900  1
  Mg  Mg249  1  0.65016100  0.94136100  0.73079100  1
  Mg  Mg250  1  0.24913900  0.13541700  0.71672300  1
  Mg  Mg251  1  0.72873600  0.75531600  0.76349100  1
  Mg  Mg252  1  0.97397700  0.96467400  0.73412100  1
  Mg  Mg253  1  0.89540300  0.59885100  0.75328900  1
  Mg  Mg254  1  0.31206900  0.95301700  0.73245600  1
  Mg  Mg255  1  0.38779100  0.31812700  0.71400100  1
  Mg  Mg256  1  0.81682800  0.23302800  0.77245800  1
  Mg  Mg257  1  0.18034300  0.89187200  0.72372100  1
  Mg  Mg258  1  0.89540300  0.15071900  0.70142200  1
  Mg  Mg259  1  0.54166700  0.13541700  0.71672300  1
  Mg  Mg260  1  0.88779100  0.31955400  0.71257500  1
  Mg  Mg261  1  0.27712900  0.72249600  0.69952500  1
  Mg  Mg262  1  0.41580500  0.42708300  0.75839000  1
  Mg  Mg263  1  0.22873600  0.30718400  0.71162300  1
  Mg  Mg264  1  0.14064400  0.25634000  0.77578800  1
  Mg  Mg265  1  0.06968100  0.29624100  0.70924400  1
  Mg  Mg266  1  0.56968100  0.29481400  0.71067100  1
  Mg  Mg267  1  0.20833300  0.47895100  0.70652200  1
  Mg  Mg268  1  0.47873600  0.24468400  0.77412300  1
