# generated using pymatgen
data_Li16Mg9
_symmetry_space_group_name_H-M   'P 1'
_cell_length_a   3.95430333
_cell_length_b   5.51833291
_cell_length_c   44.81184500
_cell_angle_alpha   87.62649705
_cell_angle_beta   87.67139300
_cell_angle_gamma   69.58364159
_symmetry_Int_Tables_number   1
_chemical_formula_structural   Li16Mg9
_chemical_formula_sum   'Li16 Mg9'
_cell_volume   915.27633878
_cell_formula_units_Z   1
loop_
 _symmetry_equiv_pos_site_id
 _symmetry_equiv_pos_as_xyz
  1  'x, y, z'
loop_
 _atom_site_type_symbol
 _atom_site_label
 _atom_site_symmetry_multiplicity
 _atom_site_fract_x
 _atom_site_fract_y
 _atom_site_fract_z
 _atom_site_occupancy
  Li  Li0  1  0.59665200  0.64019800  0.76693300  1
  Li  Li1  1  0.91445900  0.02579000  0.74417800  1
  Li  Li2  1  0.52998500  0.84019800  0.70026700  1
  Li  Li3  1  0.84779300  0.22579000  0.67751100  1
  Li  Li4  1  0.46331800  0.04019800  0.63360000  1
  Li  Li5  1  0.78112600  0.42579000  0.61084400  1
  Li  Li6  1  0.39665200  0.24019800  0.56693300  1
  Li  Li7  1  0.71445900  0.62579000  0.54417800  1
  Li  Li8  1  0.32998500  0.44019800  0.50026700  1
  Li  Li9  1  0.64779300  0.82579000  0.47751100  1
  Li  Li10  1  0.26331800  0.64019800  0.43360000  1
  Li  Li11  1  0.58112600  0.02579000  0.41084400  1
  Li  Li12  1  0.19665200  0.84019800  0.36693300  1
  Li  Li13  1  0.51445900  0.22579000  0.34417800  1
  Li  Li14  1  0.12998500  0.04019800  0.30026700  1
  Li  Li15  1  0.44779300  0.42579000  0.27751100  1
  Mg  Mg16  1  0.28888900  0.23299400  0.78888900  1
  Mg  Mg17  1  0.22222200  0.43299400  0.72222200  1
  Mg  Mg18  1  0.15555600  0.63299400  0.65555600  1
  Mg  Mg19  1  0.08888900  0.83299400  0.58888900  1
  Mg  Mg20  1  0.02222200  0.03299400  0.52222200  1
  Mg  Mg21  1  0.95555600  0.23299400  0.45555600  1
  Mg  Mg22  1  0.88888900  0.43299400  0.38888900  1
  Mg  Mg23  1  0.82222200  0.63299400  0.32222200  1
  Mg  Mg24  1  0.75555600  0.83299400  0.25555600  1
