# generated using pymatgen
data_Mg31Si15
_symmetry_space_group_name_H-M   'P 1'
_cell_length_a   12.34156200
_cell_length_b   12.41651900
_cell_length_c   43.01208400
_cell_angle_alpha   90.00000000
_cell_angle_beta   90.00000000
_cell_angle_gamma   90.00000000
_symmetry_Int_Tables_number   1
_chemical_formula_structural   Mg31Si15
_chemical_formula_sum   'Mg124 Si60'
_cell_volume   6591.13902266
_cell_formula_units_Z   4
loop_
 _symmetry_equiv_pos_site_id
 _symmetry_equiv_pos_as_xyz
  1  'x, y, z'
loop_
 _atom_site_type_symbol
 _atom_site_label
 _atom_site_symmetry_multiplicity
 _atom_site_fract_x
 _atom_site_fract_y
 _atom_site_fract_z
 _atom_site_occupancy
  Mg  Mg0  1  0.91704200  0.90686200  0.21018700  1
  Mg  Mg1  1  0.41704200  0.06732900  0.25099900  1
  Mg  Mg2  1  0.41704200  0.44906200  0.23299800  1
  Mg  Mg3  1  0.91704200  0.26999600  0.23128700  1
  Mg  Mg4  1  0.91704200  0.65172900  0.21328700  1
  Mg  Mg5  1  0.41704200  0.81219600  0.25409800  1
  Mg  Mg6  1  0.08295800  0.81219600  0.25409800  1
  Mg  Mg7  1  0.58295800  0.65172900  0.21328700  1
  Mg  Mg8  1  0.58295800  0.26999600  0.23128700  1
  Mg  Mg9  1  0.08295800  0.44906200  0.23299800  1
  Mg  Mg10  1  0.08295800  0.06732900  0.25099900  1
  Mg  Mg11  1  0.58295800  0.90686200  0.21018700  1
  Mg  Mg12  1  0.25000000  0.43652500  0.29060800  1
  Mg  Mg13  1  0.75000000  0.07342200  0.24212600  1
  Mg  Mg14  1  0.75000000  0.47263100  0.23895800  1
  Mg  Mg15  1  0.25000000  0.24642600  0.22532800  1
  Mg  Mg16  1  0.25000000  0.64563500  0.22215900  1
  Mg  Mg17  1  0.75000000  0.78253300  0.25701100  1
  Mg  Mg18  1  0.91704200  0.40686200  0.29352100  1
  Mg  Mg19  1  0.41704200  0.56732900  0.33433200  1
  Mg  Mg20  1  0.41704200  0.94906200  0.31633200  1
  Mg  Mg21  1  0.91704200  0.76999600  0.31462100  1
  Mg  Mg22  1  0.91704200  0.15172900  0.29662100  1
  Mg  Mg23  1  0.41704200  0.31219600  0.33743200  1
  Mg  Mg24  1  0.08295800  0.31219600  0.33743200  1
  Mg  Mg25  1  0.58295800  0.15172900  0.29662100  1
  Mg  Mg26  1  0.58295800  0.76999600  0.31462100  1
  Mg  Mg27  1  0.08295800  0.94906200  0.31633200  1
  Mg  Mg28  1  0.08295800  0.56732900  0.33433200  1
  Mg  Mg29  1  0.58295800  0.40686200  0.29352100  1
  Mg  Mg30  1  0.25000000  0.93652500  0.37394100  1
  Mg  Mg31  1  0.75000000  0.57342200  0.32546000  1
  Mg  Mg32  1  0.75000000  0.97263100  0.32229100  1
  Mg  Mg33  1  0.25000000  0.74642600  0.30866100  1
  Mg  Mg34  1  0.25000000  0.14563500  0.30549300  1
  Mg  Mg35  1  0.75000000  0.28253300  0.34034400  1
  Mg  Mg36  1  0.91704200  0.90686200  0.37685400  1
  Mg  Mg37  1  0.41704200  0.06732900  0.41766500  1
  Mg  Mg38  1  0.41704200  0.44906200  0.39966500  1
  Mg  Mg39  1  0.91704200  0.26999600  0.39795400  1
  Mg  Mg40  1  0.91704200  0.65172900  0.37995400  1
  Mg  Mg41  1  0.41704200  0.81219600  0.42076500  1
  Mg  Mg42  1  0.08295800  0.81219600  0.42076500  1
  Mg  Mg43  1  0.58295800  0.65172900  0.37995400  1
  Mg  Mg44  1  0.58295800  0.26999600  0.39795400  1
  Mg  Mg45  1  0.08295800  0.44906200  0.39966500  1
  Mg  Mg46  1  0.08295800  0.06732900  0.41766500  1
  Mg  Mg47  1  0.58295800  0.90686200  0.37685400  1
  Mg  Mg48  1  0.25000000  0.43652500  0.45727500  1
  Mg  Mg49  1  0.75000000  0.07342200  0.40879300  1
  Mg  Mg50  1  0.75000000  0.47263100  0.40562400  1
  Mg  Mg51  1  0.25000000  0.24642600  0.39199500  1
  Mg  Mg52  1  0.25000000  0.64563500  0.38882600  1
  Mg  Mg53  1  0.75000000  0.78253300  0.42367800  1
  Mg  Mg54  1  0.91704200  0.40686200  0.46018700  1
  Mg  Mg55  1  0.41704200  0.56732900  0.50099900  1
  Mg  Mg56  1  0.41704200  0.94906200  0.48299800  1
  Mg  Mg57  1  0.91704200  0.76999600  0.48128700  1
  Mg  Mg58  1  0.91704200  0.15172900  0.46328700  1
  Mg  Mg59  1  0.41704200  0.31219600  0.50409800  1
  Mg  Mg60  1  0.08295800  0.31219600  0.50409800  1
  Mg  Mg61  1  0.58295800  0.15172900  0.46328700  1
  Mg  Mg62  1  0.58295800  0.76999600  0.48128700  1
  Mg  Mg63  1  0.08295800  0.94906200  0.48299800  1
  Mg  Mg64  1  0.08295800  0.56732900  0.50099900  1
  Mg  Mg65  1  0.58295800  0.40686200  0.46018700  1
  Mg  Mg66  1  0.25000000  0.93652500  0.54060800  1
  Mg  Mg67  1  0.75000000  0.57342200  0.49212600  1
  Mg  Mg68  1  0.75000000  0.97263100  0.48895800  1
  Mg  Mg69  1  0.25000000  0.74642600  0.47532800  1
  Mg  Mg70  1  0.25000000  0.14563500  0.47215900  1
  Mg  Mg71  1  0.75000000  0.28253300  0.50701100  1
  Mg  Mg72  1  0.91704200  0.90686200  0.54352100  1
  Mg  Mg73  1  0.41704200  0.06732900  0.58433200  1
  Mg  Mg74  1  0.41704200  0.44906200  0.56633200  1
  Mg  Mg75  1  0.91704200  0.26999600  0.56462100  1
  Mg  Mg76  1  0.91704200  0.65172900  0.54662100  1
  Mg  Mg77  1  0.41704200  0.81219600  0.58743200  1
  Mg  Mg78  1  0.08295800  0.81219600  0.58743200  1
  Mg  Mg79  1  0.58295800  0.65172900  0.54662100  1
  Mg  Mg80  1  0.58295800  0.26999600  0.56462100  1
  Mg  Mg81  1  0.08295800  0.44906200  0.56633200  1
  Mg  Mg82  1  0.08295800  0.06732900  0.58433200  1
  Mg  Mg83  1  0.58295800  0.90686200  0.54352100  1
  Mg  Mg84  1  0.25000000  0.43652500  0.62394100  1
  Mg  Mg85  1  0.75000000  0.07342200  0.57546000  1
  Mg  Mg86  1  0.75000000  0.47263100  0.57229100  1
  Mg  Mg87  1  0.25000000  0.24642600  0.55866100  1
  Mg  Mg88  1  0.25000000  0.64563500  0.55549300  1
  Mg  Mg89  1  0.75000000  0.78253300  0.59034400  1
  Mg  Mg90  1  0.91704200  0.40686200  0.62685400  1
  Mg  Mg91  1  0.41704200  0.56732900  0.66766500  1
  Mg  Mg92  1  0.41704200  0.94906200  0.64966500  1
  Mg  Mg93  1  0.91704200  0.76999600  0.64795400  1
  Mg  Mg94  1  0.91704200  0.15172900  0.62995400  1
  Mg  Mg95  1  0.41704200  0.31219600  0.67076500  1
  Mg  Mg96  1  0.08295800  0.31219600  0.67076500  1
  Mg  Mg97  1  0.58295800  0.15172900  0.62995400  1
  Mg  Mg98  1  0.58295800  0.76999600  0.64795400  1
  Mg  Mg99  1  0.08295800  0.94906200  0.64966500  1
  Mg  Mg100  1  0.08295800  0.56732900  0.66766500  1
  Mg  Mg101  1  0.58295800  0.40686200  0.62685400  1
  Mg  Mg102  1  0.25000000  0.93652500  0.70727500  1
  Mg  Mg103  1  0.75000000  0.57342200  0.65879300  1
  Mg  Mg104  1  0.75000000  0.97263100  0.65562400  1
  Mg  Mg105  1  0.25000000  0.74642600  0.64199500  1
  Mg  Mg106  1  0.25000000  0.14563500  0.63882600  1
  Mg  Mg107  1  0.75000000  0.28253300  0.67367800  1
  Mg  Mg108  1  0.91704200  0.90686200  0.71018700  1
  Mg  Mg109  1  0.41704200  0.06732900  0.75099900  1
  Mg  Mg110  1  0.41704200  0.44906200  0.73299800  1
  Mg  Mg111  1  0.91704200  0.26999600  0.73128700  1
  Mg  Mg112  1  0.91704200  0.65172900  0.71328700  1
  Mg  Mg113  1  0.41704200  0.81219600  0.75409800  1
  Mg  Mg114  1  0.08295800  0.81219600  0.75409800  1
  Mg  Mg115  1  0.58295800  0.65172900  0.71328700  1
  Mg  Mg116  1  0.58295800  0.26999600  0.73128700  1
  Mg  Mg117  1  0.08295800  0.44906200  0.73299800  1
  Mg  Mg118  1  0.08295800  0.06732900  0.75099900  1
  Mg  Mg119  1  0.58295800  0.90686200  0.71018700  1
  Mg  Mg120  1  0.75000000  0.07342200  0.74212600  1
  Mg  Mg121  1  0.75000000  0.47263100  0.73895800  1
  Mg  Mg122  1  0.25000000  0.24642600  0.72532800  1
  Mg  Mg123  1  0.25000000  0.64563500  0.72215900  1
  Si  Si124  1  0.10025900  0.60952900  0.27381000  1
  Si  Si125  1  0.60025900  0.60952900  0.27381000  1
  Si  Si126  1  0.89974100  0.60952900  0.27381000  1
  Si  Si127  1  0.39974100  0.60952900  0.27381000  1
  Si  Si128  1  0.25000000  0.94286200  0.27381000  1
  Si  Si129  1  0.75000000  0.27619500  0.27381000  1
  Si  Si130  1  0.41253500  0.27619500  0.27381000  1
  Si  Si131  1  0.91253500  0.94286200  0.27381000  1
  Si  Si132  1  0.58746500  0.94286200  0.27381000  1
  Si  Si133  1  0.08746500  0.27619500  0.27381000  1
  Si  Si134  1  0.10025900  0.10952900  0.35714300  1
  Si  Si135  1  0.60025900  0.10952900  0.35714300  1
  Si  Si136  1  0.89974100  0.10952900  0.35714300  1
  Si  Si137  1  0.39974100  0.10952900  0.35714300  1
  Si  Si138  1  0.25000000  0.44286200  0.35714300  1
  Si  Si139  1  0.75000000  0.77619500  0.35714300  1
  Si  Si140  1  0.41253500  0.77619500  0.35714300  1
  Si  Si141  1  0.91253500  0.44286200  0.35714300  1
  Si  Si142  1  0.58746500  0.44286200  0.35714300  1
  Si  Si143  1  0.08746500  0.77619500  0.35714300  1
  Si  Si144  1  0.10025900  0.60952900  0.44047600  1
  Si  Si145  1  0.60025900  0.60952900  0.44047600  1
  Si  Si146  1  0.89974100  0.60952900  0.44047600  1
  Si  Si147  1  0.39974100  0.60952900  0.44047600  1
  Si  Si148  1  0.25000000  0.94286200  0.44047600  1
  Si  Si149  1  0.75000000  0.27619500  0.44047600  1
  Si  Si150  1  0.41253500  0.27619500  0.44047600  1
  Si  Si151  1  0.91253500  0.94286200  0.44047600  1
  Si  Si152  1  0.58746500  0.94286200  0.44047600  1
  Si  Si153  1  0.08746500  0.27619500  0.44047600  1
  Si  Si154  1  0.10025900  0.10952900  0.52381000  1
  Si  Si155  1  0.60025900  0.10952900  0.52381000  1
  Si  Si156  1  0.89974100  0.10952900  0.52381000  1
  Si  Si157  1  0.39974100  0.10952900  0.52381000  1
  Si  Si158  1  0.25000000  0.44286200  0.52381000  1
  Si  Si159  1  0.75000000  0.77619500  0.52381000  1
  Si  Si160  1  0.41253500  0.77619500  0.52381000  1
  Si  Si161  1  0.91253500  0.44286200  0.52381000  1
  Si  Si162  1  0.58746500  0.44286200  0.52381000  1
  Si  Si163  1  0.08746500  0.77619500  0.52381000  1
  Si  Si164  1  0.10025900  0.60952900  0.60714300  1
  Si  Si165  1  0.60025900  0.60952900  0.60714300  1
  Si  Si166  1  0.89974100  0.60952900  0.60714300  1
  Si  Si167  1  0.39974100  0.60952900  0.60714300  1
  Si  Si168  1  0.25000000  0.94286200  0.60714300  1
  Si  Si169  1  0.75000000  0.27619500  0.60714300  1
  Si  Si170  1  0.41253500  0.27619500  0.60714300  1
  Si  Si171  1  0.91253500  0.94286200  0.60714300  1
  Si  Si172  1  0.58746500  0.94286200  0.60714300  1
  Si  Si173  1  0.08746500  0.27619500  0.60714300  1
  Si  Si174  1  0.10025900  0.10952900  0.69047600  1
  Si  Si175  1  0.60025900  0.10952900  0.69047600  1
  Si  Si176  1  0.89974100  0.10952900  0.69047600  1
  Si  Si177  1  0.39974100  0.10952900  0.69047600  1
  Si  Si178  1  0.25000000  0.44286200  0.69047600  1
  Si  Si179  1  0.75000000  0.77619500  0.69047600  1
  Si  Si180  1  0.41253500  0.77619500  0.69047600  1
  Si  Si181  1  0.91253500  0.44286200  0.69047600  1
  Si  Si182  1  0.58746500  0.44286200  0.69047600  1
  Si  Si183  1  0.08746500  0.77619500  0.69047600  1
