# generated using pymatgen
data_Li8Mg17
_symmetry_space_group_name_H-M   'P 1'
_cell_length_a   5.06834700
_cell_length_b   8.55483815
_cell_length_c   42.04420300
_cell_angle_alpha   91.27622824
_cell_angle_beta   90.00000000
_cell_angle_gamma   90.00000000
_symmetry_Int_Tables_number   1
_chemical_formula_structural   Li8Mg17
_chemical_formula_sum   'Li16 Mg34'
_cell_volume   1822.53768168
_cell_formula_units_Z   2
loop_
 _symmetry_equiv_pos_site_id
 _symmetry_equiv_pos_as_xyz
  1  'x, y, z'
loop_
 _atom_site_type_symbol
 _atom_site_label
 _atom_site_symmetry_multiplicity
 _atom_site_fract_x
 _atom_site_fract_y
 _atom_site_fract_z
 _atom_site_occupancy
  Li  Li0  1  0.25000000  0.94605100  0.71804800  1
  Li  Li1  1  0.75000000  0.50633000  0.73433300  1
  Li  Li2  1  0.25000000  0.87462200  0.64661900  1
  Li  Li3  1  0.75000000  0.43490200  0.66290500  1
  Li  Li4  1  0.25000000  0.80319400  0.57519000  1
  Li  Li5  1  0.75000000  0.36347300  0.59147600  1
  Li  Li6  1  0.25000000  0.73176500  0.50376200  1
  Li  Li7  1  0.75000000  0.29204500  0.52004800  1
  Li  Li8  1  0.25000000  0.66033600  0.43233300  1
  Li  Li9  1  0.75000000  0.22061600  0.44861900  1
  Li  Li10  1  0.25000000  0.58890800  0.36090500  1
  Li  Li11  1  0.75000000  0.14918700  0.37719100  1
  Li  Li12  1  0.25000000  0.51747900  0.28947600  1
  Li  Li13  1  0.75000000  0.07775900  0.30576200  1
  Li  Li14  1  0.25000000  0.44605100  0.21804800  1
  Li  Li15  1  0.75000000  0.00633000  0.23433300  1
  Mg  Mg16  1  0.25000000  0.66329400  0.76555700  1
  Mg  Mg17  1  0.75000000  0.86051600  0.75825300  1
  Mg  Mg18  1  0.25000000  0.30581100  0.74176000  1
  Mg  Mg19  1  0.25000000  0.59186500  0.69412800  1
  Mg  Mg20  1  0.75000000  0.14657000  0.71062100  1
  Mg  Mg21  1  0.75000000  0.78908700  0.68682400  1
  Mg  Mg22  1  0.25000000  0.23438200  0.67033200  1
  Mg  Mg23  1  0.25000000  0.52043700  0.62270000  1
  Mg  Mg24  1  0.75000000  0.07514200  0.63919200  1
  Mg  Mg25  1  0.75000000  0.71765800  0.61539500  1
  Mg  Mg26  1  0.25000000  0.16295300  0.59890300  1
  Mg  Mg27  1  0.25000000  0.44900800  0.55127100  1
  Mg  Mg28  1  0.75000000  0.00371300  0.56776400  1
  Mg  Mg29  1  0.75000000  0.64623000  0.54396700  1
  Mg  Mg30  1  0.25000000  0.09152500  0.52747400  1
  Mg  Mg31  1  0.25000000  0.37758000  0.47984300  1
  Mg  Mg32  1  0.75000000  0.93228500  0.49633500  1
  Mg  Mg33  1  0.75000000  0.57480100  0.47253800  1
  Mg  Mg34  1  0.25000000  0.02009600  0.45604600  1
  Mg  Mg35  1  0.25000000  0.30615100  0.40841400  1
  Mg  Mg36  1  0.75000000  0.86085600  0.42490700  1
  Mg  Mg37  1  0.75000000  0.50337300  0.40111000  1
  Mg  Mg38  1  0.25000000  0.94866800  0.38461700  1
  Mg  Mg39  1  0.25000000  0.23472200  0.33698600  1
  Mg  Mg40  1  0.75000000  0.78942800  0.35347800  1
  Mg  Mg41  1  0.75000000  0.43194400  0.32968100  1
  Mg  Mg42  1  0.25000000  0.87723900  0.31318900  1
  Mg  Mg43  1  0.25000000  0.16329400  0.26555700  1
  Mg  Mg44  1  0.75000000  0.71799900  0.28204900  1
  Mg  Mg45  1  0.75000000  0.36051600  0.25825300  1
  Mg  Mg46  1  0.25000000  0.80581100  0.24176000  1
  Mg  Mg47  1  0.25000000  0.09186500  0.19412800  1
  Mg  Mg48  1  0.75000000  0.64657000  0.21062100  1
  Mg  Mg49  1  0.75000000  0.28908700  0.18682400  1
