# generated using pymatgen
data_Mg24Zn119
_symmetry_space_group_name_H-M   'P 1'
_cell_length_a   9.38239124
_cell_length_b   9.87228504
_cell_length_c   47.88422100
_cell_angle_alpha   93.42143374
_cell_angle_beta   90.35613488
_cell_angle_gamma   117.39448675
_symmetry_Int_Tables_number   1
_chemical_formula_structural   Mg24Zn119
_chemical_formula_sum   'Mg24 Zn119'
_cell_volume   3928.07221196
_cell_formula_units_Z   1
loop_
 _symmetry_equiv_pos_site_id
 _symmetry_equiv_pos_as_xyz
  1  'x, y, z'
loop_
 _atom_site_type_symbol
 _atom_site_label
 _atom_site_symmetry_multiplicity
 _atom_site_fract_x
 _atom_site_fract_y
 _atom_site_fract_z
 _atom_site_occupancy
  Mg  Mg0  1  0.54674200  0.40155900  0.71989300  1
  Mg  Mg1  1  0.35039100  0.39270600  0.77594000  1
  Mg  Mg2  1  0.70562200  0.74552300  0.70078400  1
  Mg  Mg3  1  0.19151100  0.04874200  0.79504900  1
  Mg  Mg4  1  0.44674200  0.20155900  0.61989300  1
  Mg  Mg5  1  0.25039100  0.19270600  0.67594000  1
  Mg  Mg6  1  0.60562200  0.54552300  0.60078400  1
  Mg  Mg7  1  0.09151100  0.84874200  0.69504900  1
  Mg  Mg8  1  0.34674200  0.00155900  0.51989300  1
  Mg  Mg9  1  0.15039100  0.99270600  0.57594000  1
  Mg  Mg10  1  0.50562200  0.34552300  0.50078400  1
  Mg  Mg11  1  0.99151100  0.64874200  0.59504900  1
  Mg  Mg12  1  0.24674200  0.80155900  0.41989300  1
  Mg  Mg13  1  0.05039100  0.79270600  0.47594000  1
  Mg  Mg14  1  0.40562200  0.14552300  0.40078400  1
  Mg  Mg15  1  0.89151100  0.44874200  0.49504900  1
  Mg  Mg16  1  0.14674200  0.60155900  0.31989300  1
  Mg  Mg17  1  0.95039100  0.59270600  0.37594000  1
  Mg  Mg18  1  0.30562200  0.94552300  0.30078400  1
  Mg  Mg19  1  0.79151100  0.24874200  0.39504900  1
  Mg  Mg20  1  0.04674200  0.40155900  0.21989300  1
  Mg  Mg21  1  0.85039100  0.39270600  0.27594000  1
  Mg  Mg22  1  0.20562200  0.74552300  0.20078400  1
  Mg  Mg23  1  0.69151100  0.04874200  0.29504900  1
  Zn  Zn24  1  0.63212900  0.95698900  0.74459100  1
  Zn  Zn25  1  0.79415000  0.27491400  0.72692900  1
  Zn  Zn26  1  0.21992100  0.12613100  0.73519500  1
  Zn  Zn27  1  0.67721100  0.66813500  0.76063900  1
  Zn  Zn28  1  0.96197200  0.71691000  0.78600100  1
  Zn  Zn29  1  0.46297300  0.72364800  0.78501500  1
  Zn  Zn30  1  0.26500400  0.83727600  0.75124200  1
  Zn  Zn31  1  0.73227300  0.44298600  0.77314700  1
  Zn  Zn32  1  0.48358800  0.16947500  0.76024700  1
  Zn  Zn33  1  0.41354400  0.62479000  0.73558600  1
  Zn  Zn34  1  0.43416000  0.07061800  0.71081800  1
  Zn  Zn35  1  0.98569100  0.17841500  0.76036200  1
  Zn  Zn36  1  0.10298300  0.51935200  0.76890400  1
  Zn  Zn37  1  0.91144200  0.61585000  0.73547100  1
  Zn  Zn38  1  0.93516100  0.07735500  0.70983200  1
  Zn  Zn39  1  0.94856600  0.89713300  0.74791700  1
  Zn  Zn40  1  0.13124200  0.58183700  0.70987800  1
  Zn  Zn41  1  0.76589100  0.21242900  0.78595600  1
  Zn  Zn42  1  0.16486000  0.35127900  0.72268600  1
  Zn  Zn43  1  0.39856600  0.79713300  0.69791700  1
  Zn  Zn44  1  0.53212900  0.75698900  0.64459100  1
  Zn  Zn45  1  0.69415000  0.07491400  0.62692900  1
  Zn  Zn46  1  0.11992100  0.92613100  0.63519500  1
  Zn  Zn47  1  0.57721100  0.46813500  0.66063900  1
  Zn  Zn48  1  0.86197200  0.51691000  0.68600100  1
  Zn  Zn49  1  0.36297300  0.52364800  0.68501500  1
  Zn  Zn50  1  0.16500400  0.63727600  0.65124200  1
  Zn  Zn51  1  0.63227300  0.24298600  0.67314700  1
  Zn  Zn52  1  0.38358800  0.96947500  0.66024700  1
  Zn  Zn53  1  0.31354400  0.42479000  0.63558600  1
  Zn  Zn54  1  0.33416000  0.87061800  0.61081800  1
  Zn  Zn55  1  0.88569100  0.97841500  0.66036200  1
  Zn  Zn56  1  0.00298300  0.31935200  0.66890400  1
  Zn  Zn57  1  0.81144200  0.41585000  0.63547100  1
  Zn  Zn58  1  0.83516100  0.87735500  0.60983200  1
  Zn  Zn59  1  0.84856600  0.69713300  0.64791700  1
  Zn  Zn60  1  0.03124200  0.38183700  0.60987800  1
  Zn  Zn61  1  0.66589100  0.01242900  0.68595600  1
  Zn  Zn62  1  0.06486000  0.15127900  0.62268600  1
  Zn  Zn63  1  0.29856600  0.59713300  0.59791700  1
  Zn  Zn64  1  0.43212900  0.55698900  0.54459100  1
  Zn  Zn65  1  0.59415000  0.87491400  0.52692900  1
  Zn  Zn66  1  0.01992100  0.72613100  0.53519500  1
  Zn  Zn67  1  0.47721100  0.26813500  0.56063900  1
  Zn  Zn68  1  0.76197200  0.31691000  0.58600100  1
  Zn  Zn69  1  0.26297300  0.32364800  0.58501500  1
  Zn  Zn70  1  0.06500400  0.43727600  0.55124200  1
  Zn  Zn71  1  0.53227300  0.04298600  0.57314700  1
  Zn  Zn72  1  0.28358800  0.76947500  0.56024700  1
  Zn  Zn73  1  0.21354400  0.22479000  0.53558600  1
  Zn  Zn74  1  0.23416000  0.67061800  0.51081800  1
  Zn  Zn75  1  0.78569100  0.77841500  0.56036200  1
  Zn  Zn76  1  0.90298300  0.11935200  0.56890400  1
  Zn  Zn77  1  0.71144200  0.21585000  0.53547100  1
  Zn  Zn78  1  0.73516100  0.67735500  0.50983200  1
  Zn  Zn79  1  0.74856600  0.49713300  0.54791700  1
  Zn  Zn80  1  0.93124200  0.18183700  0.50987800  1
  Zn  Zn81  1  0.56589100  0.81242900  0.58595600  1
  Zn  Zn82  1  0.96486000  0.95127900  0.52268600  1
  Zn  Zn83  1  0.19856600  0.39713300  0.49791700  1
  Zn  Zn84  1  0.33212900  0.35698900  0.44459100  1
  Zn  Zn85  1  0.49415000  0.67491400  0.42692900  1
  Zn  Zn86  1  0.91992100  0.52613100  0.43519500  1
  Zn  Zn87  1  0.37721100  0.06813500  0.46063900  1
  Zn  Zn88  1  0.66197200  0.11691000  0.48600100  1
  Zn  Zn89  1  0.16297300  0.12364800  0.48501500  1
  Zn  Zn90  1  0.96500400  0.23727600  0.45124200  1
  Zn  Zn91  1  0.43227300  0.84298600  0.47314700  1
  Zn  Zn92  1  0.18358800  0.56947500  0.46024700  1
  Zn  Zn93  1  0.11354400  0.02479000  0.43558600  1
  Zn  Zn94  1  0.13416000  0.47061800  0.41081800  1
  Zn  Zn95  1  0.68569100  0.57841500  0.46036200  1
  Zn  Zn96  1  0.80298300  0.91935200  0.46890400  1
  Zn  Zn97  1  0.61144200  0.01585000  0.43547100  1
  Zn  Zn98  1  0.63516100  0.47735500  0.40983200  1
  Zn  Zn99  1  0.64856600  0.29713300  0.44791700  1
  Zn  Zn100  1  0.83124200  0.98183700  0.40987800  1
  Zn  Zn101  1  0.46589100  0.61242900  0.48595600  1
  Zn  Zn102  1  0.86486000  0.75127900  0.42268600  1
  Zn  Zn103  1  0.09856600  0.19713300  0.39791700  1
  Zn  Zn104  1  0.23212900  0.15698900  0.34459100  1
  Zn  Zn105  1  0.39415000  0.47491400  0.32692900  1
  Zn  Zn106  1  0.81992100  0.32613100  0.33519500  1
  Zn  Zn107  1  0.27721100  0.86813500  0.36063900  1
  Zn  Zn108  1  0.56197200  0.91691000  0.38600100  1
  Zn  Zn109  1  0.06297300  0.92364800  0.38501500  1
  Zn  Zn110  1  0.86500400  0.03727600  0.35124200  1
  Zn  Zn111  1  0.33227300  0.64298600  0.37314700  1
  Zn  Zn112  1  0.08358800  0.36947500  0.36024700  1
  Zn  Zn113  1  0.01354400  0.82479000  0.33558600  1
  Zn  Zn114  1  0.03416000  0.27061800  0.31081800  1
  Zn  Zn115  1  0.58569100  0.37841500  0.36036200  1
  Zn  Zn116  1  0.70298300  0.71935200  0.36890400  1
  Zn  Zn117  1  0.51144200  0.81585000  0.33547100  1
  Zn  Zn118  1  0.53516100  0.27735500  0.30983200  1
  Zn  Zn119  1  0.54856600  0.09713300  0.34791700  1
  Zn  Zn120  1  0.73124200  0.78183700  0.30987800  1
  Zn  Zn121  1  0.36589100  0.41242900  0.38595600  1
  Zn  Zn122  1  0.76486000  0.55127900  0.32268600  1
  Zn  Zn123  1  0.99856600  0.99713300  0.29791700  1
  Zn  Zn124  1  0.13212900  0.95698900  0.24459100  1
  Zn  Zn125  1  0.29415000  0.27491400  0.22692900  1
  Zn  Zn126  1  0.71992100  0.12613100  0.23519500  1
  Zn  Zn127  1  0.17721100  0.66813500  0.26063900  1
  Zn  Zn128  1  0.46197200  0.71691000  0.28600100  1
  Zn  Zn129  1  0.96297300  0.72364800  0.28501500  1
  Zn  Zn130  1  0.76500400  0.83727600  0.25124200  1
  Zn  Zn131  1  0.23227300  0.44298600  0.27314700  1
  Zn  Zn132  1  0.98358800  0.16947500  0.26024700  1
  Zn  Zn133  1  0.91354400  0.62479000  0.23558600  1
  Zn  Zn134  1  0.93416000  0.07061800  0.21081800  1
  Zn  Zn135  1  0.48569100  0.17841500  0.26036200  1
  Zn  Zn136  1  0.60298300  0.51935200  0.26890400  1
  Zn  Zn137  1  0.41144200  0.61585000  0.23547100  1
  Zn  Zn138  1  0.43516100  0.07735500  0.20983200  1
  Zn  Zn139  1  0.44856600  0.89713300  0.24791700  1
  Zn  Zn140  1  0.63124200  0.58183700  0.20987800  1
  Zn  Zn141  1  0.26589100  0.21242900  0.28595600  1
  Zn  Zn142  1  0.66486000  0.35127900  0.22268600  1
