# generated using pymatgen
data_Mg23Zn12
_symmetry_space_group_name_H-M   'P 1'
_cell_length_a   3.10114600
_cell_length_b   16.29714987
_cell_length_c   46.90763000
_cell_angle_alpha   91.78078140
_cell_angle_beta   90.00000000
_cell_angle_gamma   90.00000000
_symmetry_Int_Tables_number   1
_chemical_formula_structural   Mg23Zn12
_chemical_formula_sum   'Mg46 Zn24'
_cell_volume   2369.55921295
_cell_formula_units_Z   2
loop_
 _symmetry_equiv_pos_site_id
 _symmetry_equiv_pos_as_xyz
  1  'x, y, z'
loop_
 _atom_site_type_symbol
 _atom_site_label
 _atom_site_symmetry_multiplicity
 _atom_site_fract_x
 _atom_site_fract_y
 _atom_site_fract_z
 _atom_site_occupancy
  Mg  Mg0  1  0.00000000  0.97845900  0.27636400  1
  Mg  Mg1  1  0.50000000  0.81168100  0.29489500  1
  Mg  Mg2  1  0.00000000  0.81978800  0.23843800  1
  Mg  Mg3  1  0.50000000  0.65301000  0.25696900  1
  Mg  Mg4  1  0.50000000  0.42845900  0.22636400  1
  Mg  Mg5  1  0.00000000  0.26168100  0.24489500  1
  Mg  Mg6  1  0.50000000  0.36978800  0.28843800  1
  Mg  Mg7  1  0.00000000  0.10301000  0.20696900  1
  Mg  Mg8  1  0.00000000  0.07845900  0.37636400  1
  Mg  Mg9  1  0.50000000  0.91168100  0.39489500  1
  Mg  Mg10  1  0.00000000  0.91978800  0.33843800  1
  Mg  Mg11  1  0.50000000  0.75301000  0.35696900  1
  Mg  Mg12  1  0.50000000  0.52845900  0.32636400  1
  Mg  Mg13  1  0.00000000  0.36168100  0.34489500  1
  Mg  Mg14  1  0.50000000  0.46978800  0.38843800  1
  Mg  Mg15  1  0.00000000  0.20301000  0.30696900  1
  Mg  Mg16  1  0.00000000  0.17845900  0.47636400  1
  Mg  Mg17  1  0.50000000  0.01168100  0.49489500  1
  Mg  Mg18  1  0.00000000  0.01978800  0.43843800  1
  Mg  Mg19  1  0.50000000  0.85301000  0.45696900  1
  Mg  Mg20  1  0.50000000  0.62845900  0.42636400  1
  Mg  Mg21  1  0.00000000  0.46168100  0.44489500  1
  Mg  Mg22  1  0.50000000  0.56978800  0.48843800  1
  Mg  Mg23  1  0.00000000  0.30301000  0.40696900  1
  Mg  Mg24  1  1.00000000  0.27845900  0.57636400  1
  Mg  Mg25  1  0.50000000  0.11168100  0.59489500  1
  Mg  Mg26  1  0.00000000  0.11978800  0.53843800  1
  Mg  Mg27  1  0.50000000  0.95301000  0.55696900  1
  Mg  Mg28  1  0.50000000  0.72845900  0.52636400  1
  Mg  Mg29  1  0.00000000  0.56168100  0.54489500  1
  Mg  Mg30  1  0.50000000  0.66978800  0.58843800  1
  Mg  Mg31  1  0.00000000  0.40301000  0.50696900  1
  Mg  Mg32  1  0.00000000  0.37845900  0.67636400  1
  Mg  Mg33  1  0.50000000  0.21168100  0.69489500  1
  Mg  Mg34  1  0.00000000  0.21978800  0.63843800  1
  Mg  Mg35  1  0.50000000  0.05301000  0.65696900  1
  Mg  Mg36  1  0.50000000  0.82845900  0.62636400  1
  Mg  Mg37  1  1.00000000  0.66168100  0.64489500  1
  Mg  Mg38  1  0.50000000  0.76978800  0.68843800  1
  Mg  Mg39  1  0.00000000  0.50301000  0.60696900  1
  Mg  Mg40  1  0.00000000  0.47845900  0.77636400  1
  Mg  Mg41  1  0.00000000  0.31978800  0.73843800  1
  Mg  Mg42  1  0.50000000  0.15301000  0.75696900  1
  Mg  Mg43  1  0.50000000  0.92845900  0.72636400  1
  Mg  Mg44  1  0.00000000  0.76168100  0.74489500  1
  Mg  Mg45  1  0.00000000  0.60301000  0.70696900  1
  Zn  Zn46  1  0.00000000  0.56755400  0.21090900  1
  Zn  Zn47  1  0.50000000  0.96391500  0.22242400  1
  Zn  Zn48  1  0.50000000  0.11755400  0.26090900  1
  Zn  Zn49  1  0.00000000  0.51391500  0.27242400  1
  Zn  Zn50  1  0.00000000  0.66755400  0.31090900  1
  Zn  Zn51  1  0.50000000  0.06391500  0.32242400  1
  Zn  Zn52  1  0.50000000  0.21755400  0.36090900  1
  Zn  Zn53  1  0.00000000  0.61391500  0.37242400  1
  Zn  Zn54  1  0.00000000  0.76755400  0.41090900  1
  Zn  Zn55  1  0.50000000  0.16391500  0.42242400  1
  Zn  Zn56  1  0.50000000  0.31755400  0.46090900  1
  Zn  Zn57  1  0.00000000  0.71391500  0.47242400  1
  Zn  Zn58  1  0.00000000  0.86755400  0.51090900  1
  Zn  Zn59  1  0.50000000  0.26391500  0.52242400  1
  Zn  Zn60  1  0.50000000  0.41755400  0.56090900  1
  Zn  Zn61  1  0.00000000  0.81391500  0.57242400  1
  Zn  Zn62  1  0.00000000  0.96755400  0.61090900  1
  Zn  Zn63  1  0.50000000  0.36391500  0.62242400  1
  Zn  Zn64  1  0.50000000  0.51755400  0.66090900  1
  Zn  Zn65  1  0.00000000  0.91391500  0.67242400  1
  Zn  Zn66  1  0.00000000  0.06755400  0.71090900  1
  Zn  Zn67  1  0.50000000  0.46391500  0.72242400  1
  Zn  Zn68  1  0.50000000  0.61755400  0.76090900  1
  Zn  Zn69  1  0.00000000  0.01391500  0.77242400  1
