# generated using pymatgen
data_MgPd2
_symmetry_space_group_name_H-M   'P 1'
_cell_length_a   6.94548378
_cell_length_b   9.19052455
_cell_length_c   43.38640000
_cell_angle_alpha   90.95958529
_cell_angle_beta   93.38110513
_cell_angle_gamma   74.03149322
_symmetry_Int_Tables_number   1
_chemical_formula_structural   MgPd2
_chemical_formula_sum   'Mg36 Pd72'
_cell_volume   2657.96799762
_cell_formula_units_Z   36
loop_
 _symmetry_equiv_pos_site_id
 _symmetry_equiv_pos_as_xyz
  1  'x, y, z'
loop_
 _atom_site_type_symbol
 _atom_site_label
 _atom_site_symmetry_multiplicity
 _atom_site_fract_x
 _atom_site_fract_y
 _atom_site_fract_z
 _atom_site_occupancy
  Mg  Mg0  1  0.93422800  0.28453600  0.23716700  1
  Mg  Mg1  1  0.78005800  0.57260700  0.19140500  1
  Mg  Mg2  1  0.66378500  0.09586200  0.17977700  1
  Mg  Mg3  1  0.05050000  0.76128100  0.24879400  1
  Mg  Mg4  1  0.64851300  0.14167800  0.30859500  1
  Mg  Mg5  1  0.49434400  0.42975000  0.26283300  1
  Mg  Mg6  1  0.37807100  0.95300500  0.25120600  1
  Mg  Mg7  1  0.76478600  0.61842400  0.32022300  1
  Mg  Mg8  1  0.36279900  0.99882100  0.38002400  1
  Mg  Mg9  1  0.20863000  0.28689300  0.33426200  1
  Mg  Mg10  1  0.09235700  0.81014800  0.32263400  1
  Mg  Mg11  1  0.47907200  0.47556700  0.39165100  1
  Mg  Mg12  1  0.07708500  0.85596400  0.45145300  1
  Mg  Mg13  1  0.92291500  0.14403600  0.40569000  1
  Mg  Mg14  1  0.80664300  0.66729000  0.39406300  1
  Mg  Mg15  1  0.19335700  0.33271000  0.46308000  1
  Mg  Mg16  1  0.79137000  0.71310700  0.52288100  1
  Mg  Mg17  1  0.63720100  0.00117900  0.47711900  1
  Mg  Mg18  1  0.52092800  0.52443300  0.46549200  1
  Mg  Mg19  1  0.90764300  0.18985200  0.53450800  1
  Mg  Mg20  1  0.50565600  0.57025000  0.59431000  1
  Mg  Mg21  1  0.35148700  0.85832200  0.54854700  1
  Mg  Mg22  1  0.23521400  0.38157600  0.53692000  1
  Mg  Mg23  1  0.62192900  0.04699500  0.60593700  1
  Mg  Mg24  1  0.21994200  0.42739300  0.66573800  1
  Mg  Mg25  1  0.06577200  0.71546400  0.61997600  1
  Mg  Mg26  1  0.94950000  0.23871900  0.60834900  1
  Mg  Mg27  1  0.33621500  0.90413800  0.67736600  1
  Mg  Mg28  1  0.93422800  0.28453600  0.73716700  1
  Mg  Mg29  1  0.78005800  0.57260700  0.69140500  1
  Mg  Mg30  1  0.66378500  0.09586200  0.67977700  1
  Mg  Mg31  1  0.05050000  0.76128100  0.74879400  1
  Mg  Mg32  1  0.64851300  0.14167800  0.80859500  1
  Mg  Mg33  1  0.49434400  0.42975000  0.76283300  1
  Mg  Mg34  1  0.37807100  0.95300500  0.75120600  1
  Mg  Mg35  1  0.76478600  0.61842400  0.82022300  1
  Pd  Pd36  1  0.02132200  0.00383200  0.21296600  1
  Pd  Pd37  1  0.69296400  0.85331000  0.21560600  1
  Pd  Pd38  1  0.56282000  0.37933900  0.20259100  1
  Pd  Pd39  1  0.15146600  0.47780400  0.22598000  1
  Pd  Pd40  1  0.05265700  0.72817800  0.18242600  1
  Pd  Pd41  1  0.66162900  0.12896500  0.24614600  1
  Pd  Pd42  1  0.40173500  0.68094300  0.22015600  1
  Pd  Pd43  1  0.31255100  0.17619900  0.20841500  1
  Pd  Pd44  1  0.73560800  0.86097500  0.28439400  1
  Pd  Pd45  1  0.40724900  0.71045300  0.28703400  1
  Pd  Pd46  1  0.27710600  0.23648200  0.27402000  1
  Pd  Pd47  1  0.86575100  0.33494700  0.29740900  1
  Pd  Pd48  1  0.76694300  0.58532100  0.25385400  1
  Pd  Pd49  1  0.37591500  0.98610800  0.31757400  1
  Pd  Pd50  1  0.11602100  0.53808600  0.29158500  1
  Pd  Pd51  1  0.02683600  0.03334200  0.27984400  1
  Pd  Pd52  1  0.44989400  0.71811800  0.35582300  1
  Pd  Pd53  1  0.12153500  0.56759600  0.35846300  1
  Pd  Pd54  1  0.99139100  0.09362500  0.34544800  1
  Pd  Pd55  1  0.58003700  0.19208900  0.36883700  1
  Pd  Pd56  1  0.48122800  0.44246400  0.32528300  1
  Pd  Pd57  1  0.09020000  0.84325000  0.38900300  1
  Pd  Pd58  1  0.83030600  0.39522900  0.36301300  1
  Pd  Pd59  1  0.74112200  0.89048500  0.35127200  1
  Pd  Pd60  1  0.16417900  0.57526100  0.42725100  1
  Pd  Pd61  1  0.83582100  0.42473900  0.42989100  1
  Pd  Pd62  1  0.70567700  0.95076800  0.41687700  1
  Pd  Pd63  1  0.29432300  0.04923200  0.44026600  1
  Pd  Pd64  1  0.19551400  0.29960700  0.39671200  1
  Pd  Pd65  1  0.80448600  0.70039300  0.46043100  1
  Pd  Pd66  1  0.54459200  0.25237200  0.43444200  1
  Pd  Pd67  1  0.45540800  0.74762800  0.42270100  1
  Pd  Pd68  1  0.87846500  0.43240400  0.49868000  1
  Pd  Pd69  1  0.55010600  0.28188200  0.50132000  1
  Pd  Pd70  1  0.41996300  0.80791100  0.48830600  1
  Pd  Pd71  1  0.00860900  0.90637500  0.51169400  1
  Pd  Pd72  1  0.90980000  0.15675000  0.46814000  1
  Pd  Pd73  1  0.51877200  0.55753600  0.53186000  1
  Pd  Pd74  1  0.25887800  0.10951500  0.50587100  1
  Pd  Pd75  1  0.16969400  0.60477100  0.49412900  1
  Pd  Pd76  1  0.59275100  0.28954700  0.57010900  1
  Pd  Pd77  1  0.26439200  0.13902500  0.57274900  1
  Pd  Pd78  1  0.13424900  0.66505300  0.55973400  1
  Pd  Pd79  1  0.72289400  0.76351800  0.58312300  1
  Pd  Pd80  1  0.62408500  0.01389200  0.53956900  1
  Pd  Pd81  1  0.23305700  0.41467900  0.60328800  1
  Pd  Pd82  1  0.97316400  0.96665800  0.57729900  1
  Pd  Pd83  1  0.88397900  0.46191400  0.56555800  1
  Pd  Pd84  1  0.30703600  0.14669000  0.64153700  1
  Pd  Pd85  1  0.97867800  0.99616800  0.64417700  1
  Pd  Pd86  1  0.84853400  0.52219600  0.63116300  1
  Pd  Pd87  1  0.43718000  0.62066100  0.65455200  1
  Pd  Pd88  1  0.33837100  0.87103500  0.61099700  1
  Pd  Pd89  1  0.94734300  0.27182200  0.67471700  1
  Pd  Pd90  1  0.68744900  0.82380100  0.64872800  1
  Pd  Pd91  1  0.59826500  0.31905700  0.63698700  1
  Pd  Pd92  1  0.02132200  0.00383200  0.71296600  1
  Pd  Pd93  1  0.69296400  0.85331000  0.71560600  1
  Pd  Pd94  1  0.56282000  0.37933900  0.70259100  1
  Pd  Pd95  1  0.15146600  0.47780400  0.72598000  1
  Pd  Pd96  1  0.05265700  0.72817800  0.68242600  1
  Pd  Pd97  1  0.66162900  0.12896500  0.74614600  1
  Pd  Pd98  1  0.40173500  0.68094300  0.72015600  1
  Pd  Pd99  1  0.31255100  0.17619900  0.70841500  1
  Pd  Pd100  1  0.73560800  0.86097500  0.78439400  1
  Pd  Pd101  1  0.40724900  0.71045300  0.78703400  1
  Pd  Pd102  1  0.27710600  0.23648200  0.77402000  1
  Pd  Pd103  1  0.86575100  0.33494700  0.79740900  1
  Pd  Pd104  1  0.76694300  0.58532100  0.75385400  1
  Pd  Pd105  1  0.37591500  0.98610800  0.81757400  1
  Pd  Pd106  1  0.11602100  0.53808600  0.79158500  1
  Pd  Pd107  1  0.02683600  0.03334200  0.77984400  1
