# generated using pymatgen
data_Ce4Mg37
_symmetry_space_group_name_H-M   'P 1'
_cell_length_a   14.43775526
_cell_length_b   14.43775501
_cell_length_c   45.98188600
_cell_angle_alpha   89.14134599
_cell_angle_beta   90.85865399
_cell_angle_gamma   103.42087140
_symmetry_Int_Tables_number   1
_chemical_formula_structural   Ce4Mg37
_chemical_formula_sum   'Ce20 Mg185'
_cell_volume   9321.41888714
_cell_formula_units_Z   5
loop_
 _symmetry_equiv_pos_site_id
 _symmetry_equiv_pos_as_xyz
  1  'x, y, z'
loop_
 _atom_site_type_symbol
 _atom_site_label
 _atom_site_symmetry_multiplicity
 _atom_site_fract_x
 _atom_site_fract_y
 _atom_site_fract_z
 _atom_site_occupancy
  Ce  Ce0  1  0.65157700  0.34842300  0.35526300  1
  Ce  Ce1  1  0.45157700  0.54842300  0.30526300  1
  Ce  Ce2  1  0.31824400  0.01509000  0.35526300  1
  Ce  Ce3  1  0.78491000  0.88175600  0.30526300  1
  Ce  Ce4  1  0.05157700  0.94842300  0.45526300  1
  Ce  Ce5  1  0.85157700  0.14842300  0.40526300  1
  Ce  Ce6  1  0.71824400  0.61509000  0.45526300  1
  Ce  Ce7  1  0.18491000  0.48175600  0.40526300  1
  Ce  Ce8  1  0.45157700  0.54842300  0.55526300  1
  Ce  Ce9  1  0.25157700  0.74842300  0.50526300  1
  Ce  Ce10  1  0.11824400  0.21509000  0.55526300  1
  Ce  Ce11  1  0.58491000  0.08175600  0.50526300  1
  Ce  Ce12  1  0.85157700  0.14842300  0.65526300  1
  Ce  Ce13  1  0.65157700  0.34842300  0.60526300  1
  Ce  Ce14  1  0.51824400  0.81509000  0.65526300  1
  Ce  Ce15  1  0.98491000  0.68175600  0.60526300  1
  Ce  Ce16  1  0.25157700  0.74842300  0.75526300  1
  Ce  Ce17  1  0.05157700  0.94842300  0.70526300  1
  Ce  Ce18  1  0.91824400  0.41509000  0.75526300  1
  Ce  Ce19  1  0.38491000  0.28175600  0.70526300  1
  Mg  Mg20  1  0.64583500  0.02083200  0.27049400  1
  Mg  Mg21  1  0.19265700  0.96956300  0.28108800  1
  Mg  Mg22  1  0.40271400  0.95854300  0.28475500  1
  Mg  Mg23  1  0.18072100  0.49483900  0.27810400  1
  Mg  Mg24  1  0.01316500  0.82461500  0.27677000  1
  Mg  Mg25  1  0.68998900  0.47223100  0.28375600  1
  Mg  Mg26  1  0.05731900  0.27601400  0.29003200  1
  Mg  Mg27  1  0.52243300  0.80200700  0.28242200  1
  Mg  Mg28  1  0.70392600  0.26290400  0.28632900  1
  Mg  Mg29  1  0.51049700  0.32728300  0.27943800  1
  Mg  Mg30  1  0.85157700  0.64842300  0.28026300  1
  Mg  Mg31  1  0.99922800  0.03394200  0.27419700  1
  Mg  Mg32  1  0.30044000  0.33830300  0.27577100  1
  Mg  Mg33  1  0.85157700  0.14842300  0.28026300  1
  Mg  Mg34  1  0.35157700  0.14842300  0.28026300  1
  Mg  Mg35  1  0.55157700  0.94842300  0.33026300  1
  Mg  Mg36  1  0.05157700  0.44842300  0.33026300  1
  Mg  Mg37  1  0.37538500  0.78683500  0.32677000  1
  Mg  Mg38  1  0.39799300  0.27756700  0.33242200  1
  Mg  Mg39  1  0.23043700  0.60734300  0.33108800  1
  Mg  Mg40  1  0.05506300  0.27302400  0.36582100  1
  Mg  Mg41  1  0.17916800  0.15416500  0.32049400  1
  Mg  Mg42  1  0.04583500  0.62083200  0.37049400  1
  Mg  Mg43  1  0.70516100  0.61927900  0.32810400  1
  Mg  Mg44  1  0.24145700  0.39728600  0.33475500  1
  Mg  Mg45  1  0.16605800  0.80077200  0.32419700  1
  Mg  Mg46  1  0.59265700  0.56956300  0.38108800  1
  Mg  Mg47  1  0.80271400  0.55854300  0.38475500  1
  Mg  Mg48  1  0.93709600  0.09607400  0.33632900  1
  Mg  Mg49  1  0.58072100  0.09483900  0.37810400  1
  Mg  Mg50  1  0.87271700  0.28950300  0.32943800  1
  Mg  Mg51  1  0.41316500  0.42461500  0.37677000  1
  Mg  Mg52  1  0.08998900  0.07223100  0.38375600  1
  Mg  Mg53  1  0.45731900  0.87601400  0.39003200  1
  Mg  Mg54  1  0.92243300  0.40200700  0.38242200  1
  Mg  Mg55  1  0.05157700  0.94842300  0.33026300  1
  Mg  Mg56  1  0.52697600  0.14493700  0.31582100  1
  Mg  Mg57  1  0.04809100  0.62382200  0.29470600  1
  Mg  Mg58  1  0.92398600  0.74268100  0.34003200  1
  Mg  Mg59  1  0.72776900  0.11001100  0.33375600  1
  Mg  Mg60  1  0.10392600  0.86290400  0.38632900  1
  Mg  Mg61  1  0.57617800  0.75190900  0.34470600  1
  Mg  Mg62  1  0.91049700  0.92728300  0.37943800  1
  Mg  Mg63  1  0.86169700  0.49956000  0.32577100  1
  Mg  Mg64  1  0.25157700  0.24842300  0.38026300  1
  Mg  Mg65  1  0.39922800  0.63394200  0.37419700  1
  Mg  Mg66  1  0.70044000  0.93830300  0.37577100  1
  Mg  Mg67  1  0.25157700  0.74842300  0.38026300  1
  Mg  Mg68  1  0.75157700  0.74842300  0.38026300  1
  Mg  Mg69  1  0.95157700  0.54842300  0.43026300  1
  Mg  Mg70  1  0.45157700  0.04842300  0.43026300  1
  Mg  Mg71  1  0.77538500  0.38683500  0.42677000  1
  Mg  Mg72  1  0.79799300  0.87756700  0.43242200  1
  Mg  Mg73  1  0.63043700  0.20734300  0.43108800  1
  Mg  Mg74  1  0.45506300  0.87302400  0.46582100  1
  Mg  Mg75  1  0.57916800  0.75416500  0.42049400  1
  Mg  Mg76  1  0.44583500  0.22083200  0.47049400  1
  Mg  Mg77  1  0.10516100  0.21927900  0.42810400  1
  Mg  Mg78  1  0.64145700  0.99728600  0.43475500  1
  Mg  Mg79  1  0.56605800  0.40077200  0.42419700  1
  Mg  Mg80  1  0.99265700  0.16956300  0.48108800  1
  Mg  Mg81  1  0.20271400  0.15854300  0.48475500  1
  Mg  Mg82  1  0.33709600  0.69607400  0.43632900  1
  Mg  Mg83  1  0.98072100  0.69483900  0.47810400  1
  Mg  Mg84  1  0.27271700  0.88950300  0.42943800  1
  Mg  Mg85  1  0.81316500  0.02461500  0.47677000  1
  Mg  Mg86  1  0.48998900  0.67223100  0.48375600  1
  Mg  Mg87  1  0.85731900  0.47601400  0.49003200  1
  Mg  Mg88  1  0.32243300  0.00200700  0.48242200  1
  Mg  Mg89  1  0.45157700  0.54842300  0.43026300  1
  Mg  Mg90  1  0.92697600  0.74493700  0.41582100  1
  Mg  Mg91  1  0.44809100  0.22382200  0.39470600  1
  Mg  Mg92  1  0.32398600  0.34268100  0.44003200  1
  Mg  Mg93  1  0.12776900  0.71001100  0.43375600  1
  Mg  Mg94  1  0.50392600  0.46290400  0.48632900  1
  Mg  Mg95  1  0.97617800  0.35190900  0.44470600  1
  Mg  Mg96  1  0.31049700  0.52728300  0.47943800  1
  Mg  Mg97  1  0.26169700  0.09956000  0.42577100  1
  Mg  Mg98  1  0.65157700  0.84842300  0.48026300  1
  Mg  Mg99  1  0.79922800  0.23394200  0.47419700  1
  Mg  Mg100  1  0.10044000  0.53830300  0.47577100  1
  Mg  Mg101  1  0.65157700  0.34842300  0.48026300  1
  Mg  Mg102  1  0.15157700  0.34842300  0.48026300  1
  Mg  Mg103  1  0.35157700  0.14842300  0.53026300  1
  Mg  Mg104  1  0.85157700  0.64842300  0.53026300  1
  Mg  Mg105  1  0.17538500  0.98683500  0.52677000  1
  Mg  Mg106  1  0.19799300  0.47756700  0.53242200  1
  Mg  Mg107  1  0.03043700  0.80734300  0.53108800  1
  Mg  Mg108  1  0.85506300  0.47302400  0.56582100  1
  Mg  Mg109  1  0.97916800  0.35416500  0.52049400  1
  Mg  Mg110  1  0.84583500  0.82083200  0.57049400  1
  Mg  Mg111  1  0.50516100  0.81927900  0.52810400  1
  Mg  Mg112  1  0.04145700  0.59728600  0.53475500  1
  Mg  Mg113  1  0.96605800  0.00077200  0.52419700  1
  Mg  Mg114  1  0.39265700  0.76956300  0.58108800  1
  Mg  Mg115  1  0.60271400  0.75854300  0.58475500  1
  Mg  Mg116  1  0.73709600  0.29607400  0.53632900  1
  Mg  Mg117  1  0.38072100  0.29483900  0.57810400  1
  Mg  Mg118  1  0.67271700  0.48950300  0.52943800  1
  Mg  Mg119  1  0.21316500  0.62461500  0.57677000  1
  Mg  Mg120  1  0.88998900  0.27223100  0.58375600  1
  Mg  Mg121  1  0.25731900  0.07601400  0.59003200  1
  Mg  Mg122  1  0.72243300  0.60200700  0.58242200  1
  Mg  Mg123  1  0.85157700  0.14842300  0.53026300  1
  Mg  Mg124  1  0.32697600  0.34493700  0.51582100  1
  Mg  Mg125  1  0.84809100  0.82382200  0.49470600  1
  Mg  Mg126  1  0.72398600  0.94268100  0.54003200  1
  Mg  Mg127  1  0.52776900  0.31001100  0.53375600  1
  Mg  Mg128  1  0.90392600  0.06290400  0.58632900  1
  Mg  Mg129  1  0.37617800  0.95190900  0.54470600  1
  Mg  Mg130  1  0.71049700  0.12728300  0.57943800  1
  Mg  Mg131  1  0.66169700  0.69956000  0.52577100  1
  Mg  Mg132  1  0.05157700  0.44842300  0.58026300  1
  Mg  Mg133  1  0.19922800  0.83394200  0.57419700  1
  Mg  Mg134  1  0.50044000  0.13830300  0.57577100  1
  Mg  Mg135  1  0.05157700  0.94842300  0.58026300  1
  Mg  Mg136  1  0.55157700  0.94842300  0.58026300  1
  Mg  Mg137  1  0.75157700  0.74842300  0.63026300  1
  Mg  Mg138  1  0.25157700  0.24842300  0.63026300  1
  Mg  Mg139  1  0.57538500  0.58683500  0.62677000  1
  Mg  Mg140  1  0.59799300  0.07756700  0.63242200  1
  Mg  Mg141  1  0.43043700  0.40734300  0.63108800  1
  Mg  Mg142  1  0.25506300  0.07302400  0.66582100  1
  Mg  Mg143  1  0.37916800  0.95416500  0.62049400  1
  Mg  Mg144  1  0.24583500  0.42083200  0.67049400  1
  Mg  Mg145  1  0.90516100  0.41927900  0.62810400  1
  Mg  Mg146  1  0.44145700  0.19728600  0.63475500  1
  Mg  Mg147  1  0.36605800  0.60077200  0.62419700  1
  Mg  Mg148  1  0.79265700  0.36956300  0.68108800  1
  Mg  Mg149  1  0.00271400  0.35854300  0.68475500  1
  Mg  Mg150  1  0.13709600  0.89607400  0.63632900  1
  Mg  Mg151  1  0.78072100  0.89483900  0.67810400  1
  Mg  Mg152  1  0.07271700  0.08950300  0.62943800  1
  Mg  Mg153  1  0.61316500  0.22461500  0.67677000  1
  Mg  Mg154  1  0.28998900  0.87223100  0.68375600  1
  Mg  Mg155  1  0.65731900  0.67601400  0.69003200  1
  Mg  Mg156  1  0.12243300  0.20200700  0.68242200  1
  Mg  Mg157  1  0.25157700  0.74842300  0.63026300  1
  Mg  Mg158  1  0.72697600  0.94493700  0.61582100  1
  Mg  Mg159  1  0.24809100  0.42382200  0.59470600  1
  Mg  Mg160  1  0.12398600  0.54268100  0.64003200  1
  Mg  Mg161  1  0.92776900  0.91001100  0.63375600  1
  Mg  Mg162  1  0.30392600  0.66290400  0.68632900  1
  Mg  Mg163  1  0.77617800  0.55190900  0.64470600  1
  Mg  Mg164  1  0.11049700  0.72728300  0.67943800  1
  Mg  Mg165  1  0.06169700  0.29956000  0.62577100  1
  Mg  Mg166  1  0.45157700  0.04842300  0.68026300  1
  Mg  Mg167  1  0.59922800  0.43394200  0.67419700  1
  Mg  Mg168  1  0.90044000  0.73830300  0.67577100  1
  Mg  Mg169  1  0.45157700  0.54842300  0.68026300  1
  Mg  Mg170  1  0.95157700  0.54842300  0.68026300  1
  Mg  Mg171  1  0.15157700  0.34842300  0.73026300  1
  Mg  Mg172  1  0.65157700  0.84842300  0.73026300  1
  Mg  Mg173  1  0.97538500  0.18683500  0.72677000  1
  Mg  Mg174  1  0.99799300  0.67756700  0.73242200  1
  Mg  Mg175  1  0.83043700  0.00734300  0.73108800  1
  Mg  Mg176  1  0.65506300  0.67302400  0.76582100  1
  Mg  Mg177  1  0.77916800  0.55416500  0.72049400  1
  Mg  Mg178  1  0.64583500  0.02083200  0.77049400  1
  Mg  Mg179  1  0.30516100  0.01927900  0.72810400  1
  Mg  Mg180  1  0.84145700  0.79728600  0.73475500  1
  Mg  Mg181  1  0.76605800  0.20077200  0.72419700  1
  Mg  Mg182  1  0.19265700  0.96956300  0.78108800  1
  Mg  Mg183  1  0.40271400  0.95854300  0.78475500  1
  Mg  Mg184  1  0.53709600  0.49607400  0.73632900  1
  Mg  Mg185  1  0.18072100  0.49483900  0.77810400  1
  Mg  Mg186  1  0.47271700  0.68950300  0.72943800  1
  Mg  Mg187  1  0.01316500  0.82461500  0.77677000  1
  Mg  Mg188  1  0.68998900  0.47223100  0.78375600  1
  Mg  Mg189  1  0.05731900  0.27601400  0.79003200  1
  Mg  Mg190  1  0.52243300  0.80200700  0.78242200  1
  Mg  Mg191  1  0.65157700  0.34842300  0.73026300  1
  Mg  Mg192  1  0.12697600  0.54493700  0.71582100  1
  Mg  Mg193  1  0.64809100  0.02382200  0.69470600  1
  Mg  Mg194  1  0.52398600  0.14268100  0.74003200  1
  Mg  Mg195  1  0.32776900  0.51001100  0.73375600  1
  Mg  Mg196  1  0.70392600  0.26290400  0.78632900  1
  Mg  Mg197  1  0.17617800  0.15190900  0.74470600  1
  Mg  Mg198  1  0.51049700  0.32728300  0.77943800  1
  Mg  Mg199  1  0.46169700  0.89956000  0.72577100  1
  Mg  Mg200  1  0.85157700  0.64842300  0.78026300  1
  Mg  Mg201  1  0.99922800  0.03394200  0.77419700  1
  Mg  Mg202  1  0.30044000  0.33830300  0.77577100  1
  Mg  Mg203  1  0.85157700  0.14842300  0.78026300  1
  Mg  Mg204  1  0.35157700  0.14842300  0.78026300  1
