# generated using pymatgen
data_Mg31Hg18
_symmetry_space_group_name_H-M   'P 1'
_cell_length_a   5.97810100
_cell_length_b   14.38026390
_cell_length_c   46.22608200
_cell_angle_alpha   81.05172384
_cell_angle_beta   90.00000000
_cell_angle_gamma   90.00000000
_symmetry_Int_Tables_number   1
_chemical_formula_structural   Mg31Hg18
_chemical_formula_sum   'Mg62 Hg36'
_cell_volume   3925.53660475
_cell_formula_units_Z   2
loop_
 _symmetry_equiv_pos_site_id
 _symmetry_equiv_pos_as_xyz
  1  'x, y, z'
loop_
 _atom_site_type_symbol
 _atom_site_label
 _atom_site_symmetry_multiplicity
 _atom_site_fract_x
 _atom_site_fract_y
 _atom_site_fract_z
 _atom_site_occupancy
  Mg  Mg0  1  0.75000000  0.58334500  0.21041500  1
  Mg  Mg1  1  0.25000000  0.56080600  0.25549400  1
  Mg  Mg2  1  0.25000000  0.71858000  0.18787600  1
  Mg  Mg3  1  0.75000000  0.21895600  0.18712400  1
  Mg  Mg4  1  0.75000000  0.83127600  0.21041500  1
  Mg  Mg5  1  0.25000000  0.80873700  0.25549400  1
  Mg  Mg6  1  0.50000000  0.36270800  0.23295500  1
  Mg  Mg7  1  1.00000000  0.02937400  0.23295500  1
  Mg  Mg8  1  0.50000000  0.02937400  0.23295500  1
  Mg  Mg9  1  1.00000000  0.36270800  0.23295500  1
  Mg  Mg10  1  0.75000000  0.03789000  0.30132400  1
  Mg  Mg11  1  0.25000000  0.01535100  0.34640300  1
  Mg  Mg12  1  0.25000000  0.17312600  0.27878500  1
  Mg  Mg13  1  0.75000000  0.67350200  0.27803300  1
  Mg  Mg14  1  0.75000000  0.28582200  0.30132400  1
  Mg  Mg15  1  0.25000000  0.26328200  0.34640300  1
  Mg  Mg16  1  0.50000000  0.81725300  0.32386400  1
  Mg  Mg17  1  1.00000000  0.48392000  0.32386400  1
  Mg  Mg18  1  0.50000000  0.48392000  0.32386400  1
  Mg  Mg19  1  1.00000000  0.81725300  0.32386400  1
  Mg  Mg20  1  0.75000000  0.49243600  0.39223400  1
  Mg  Mg21  1  0.25000000  0.46989700  0.43731200  1
  Mg  Mg22  1  0.25000000  0.62767100  0.36969400  1
  Mg  Mg23  1  0.75000000  0.12804700  0.36894200  1
  Mg  Mg24  1  0.75000000  0.74036700  0.39223400  1
  Mg  Mg25  1  0.25000000  0.71782800  0.43731200  1
  Mg  Mg26  1  0.50000000  0.27179900  0.41477300  1
  Mg  Mg27  1  1.00000000  0.93846500  0.41477300  1
  Mg  Mg28  1  0.50000000  0.93846500  0.41477300  1
  Mg  Mg29  1  1.00000000  0.27179900  0.41477300  1
  Mg  Mg30  1  0.75000000  0.94698100  0.48314300  1
  Mg  Mg31  1  0.25000000  0.92444200  0.52822100  1
  Mg  Mg32  1  0.25000000  0.08221700  0.46060300  1
  Mg  Mg33  1  0.75000000  0.58259300  0.45985100  1
  Mg  Mg34  1  0.75000000  0.19491300  0.48314300  1
  Mg  Mg35  1  0.25000000  0.17237300  0.52822100  1
  Mg  Mg36  1  0.50000000  0.72634400  0.50568200  1
  Mg  Mg37  1  1.00000000  0.39301100  0.50568200  1
  Mg  Mg38  1  0.50000000  0.39301100  0.50568200  1
  Mg  Mg39  1  1.00000000  0.72634400  0.50568200  1
  Mg  Mg40  1  0.75000000  0.40152700  0.57405200  1
  Mg  Mg41  1  0.25000000  0.37898800  0.61913000  1
  Mg  Mg42  1  0.25000000  0.53676200  0.55151300  1
  Mg  Mg43  1  0.75000000  0.03713800  0.55076000  1
  Mg  Mg44  1  0.75000000  0.64945800  0.57405200  1
  Mg  Mg45  1  0.25000000  0.62691900  0.61913000  1
  Mg  Mg46  1  0.50000000  0.18088900  0.59659100  1
  Mg  Mg47  1  1.00000000  0.84755600  0.59659100  1
  Mg  Mg48  1  0.50000000  0.84755600  0.59659100  1
  Mg  Mg49  1  1.00000000  0.18088900  0.59659100  1
  Mg  Mg50  1  0.75000000  0.85607200  0.66496100  1
  Mg  Mg51  1  0.25000000  0.83353300  0.71003900  1
  Mg  Mg52  1  0.25000000  0.99130700  0.64242200  1
  Mg  Mg53  1  0.75000000  0.49168400  0.64166900  1
  Mg  Mg54  1  0.75000000  0.10400300  0.66496100  1
  Mg  Mg55  1  0.25000000  0.08146400  0.71003900  1
  Mg  Mg56  1  0.50000000  0.63543500  0.68750000  1
  Mg  Mg57  1  1.00000000  0.30210200  0.68750000  1
  Mg  Mg58  1  0.50000000  0.30210200  0.68750000  1
  Mg  Mg59  1  1.00000000  0.63543500  0.68750000  1
  Mg  Mg60  1  0.25000000  0.44585300  0.73333100  1
  Mg  Mg61  1  0.75000000  0.94622900  0.73257800  1
  Hg  Hg62  1  0.75000000  0.87314200  0.26837500  1
  Hg  Hg63  1  0.25000000  0.90856200  0.19753400  1
  Hg  Hg64  1  0.25000000  0.20607500  0.21288600  1
  Hg  Hg65  1  0.75000000  0.18600700  0.25302300  1
  Hg  Hg66  1  0.75000000  0.48352000  0.26837500  1
  Hg  Hg67  1  0.25000000  0.51894000  0.19753400  1
  Hg  Hg68  1  0.75000000  0.32768700  0.35928400  1
  Hg  Hg69  1  0.25000000  0.36310700  0.28844400  1
  Hg  Hg70  1  0.25000000  0.66062100  0.30379500  1
  Hg  Hg71  1  0.75000000  0.64055200  0.34393200  1
  Hg  Hg72  1  0.75000000  0.93806600  0.35928400  1
  Hg  Hg73  1  0.25000000  0.97348600  0.28844400  1
  Hg  Hg74  1  0.75000000  0.78223300  0.45019300  1
  Hg  Hg75  1  0.25000000  0.81765300  0.37935300  1
  Hg  Hg76  1  0.25000000  0.11516600  0.39470400  1
  Hg  Hg77  1  0.75000000  0.09509700  0.43484200  1
  Hg  Hg78  1  0.75000000  0.39261100  0.45019300  1
  Hg  Hg79  1  0.25000000  0.42803100  0.37935300  1
  Hg  Hg80  1  0.75000000  0.23677800  0.54110200  1
  Hg  Hg81  1  0.25000000  0.27219800  0.47026200  1
  Hg  Hg82  1  0.25000000  0.56971200  0.48561300  1
  Hg  Hg83  1  0.75000000  0.54964300  0.52575100  1
  Hg  Hg84  1  0.75000000  0.84715700  0.54110200  1
  Hg  Hg85  1  0.25000000  0.88257700  0.47026200  1
  Hg  Hg86  1  0.75000000  0.69132300  0.63201100  1
  Hg  Hg87  1  0.25000000  0.72674400  0.56117100  1
  Hg  Hg88  1  0.25000000  0.02425700  0.57652200  1
  Hg  Hg89  1  0.75000000  0.00418800  0.61666000  1
  Hg  Hg90  1  0.75000000  0.30170200  0.63201100  1
  Hg  Hg91  1  0.25000000  0.33712200  0.56117100  1
  Hg  Hg92  1  0.75000000  0.14586900  0.72292000  1
  Hg  Hg93  1  0.25000000  0.18128900  0.65208000  1
  Hg  Hg94  1  0.25000000  0.47880300  0.66743100  1
  Hg  Hg95  1  0.75000000  0.45873400  0.70756900  1
  Hg  Hg96  1  0.75000000  0.75624800  0.72292000  1
  Hg  Hg97  1  0.25000000  0.79166800  0.65208000  1
