# generated using pymatgen
data_Mg99Pd38
_symmetry_space_group_name_H-M   'P 1'
_cell_length_a   8.83883700
_cell_length_b   11.93708038
_cell_length_c   44.35540600
_cell_angle_alpha   87.49946255
_cell_angle_beta   90.00000000
_cell_angle_gamma   68.27044156
_symmetry_Int_Tables_number   1
_chemical_formula_structural   Mg99Pd38
_chemical_formula_sum   'Mg99 Pd38'
_cell_volume   4342.58916709
_cell_formula_units_Z   1
loop_
 _symmetry_equiv_pos_site_id
 _symmetry_equiv_pos_as_xyz
  1  'x, y, z'
loop_
 _atom_site_type_symbol
 _atom_site_label
 _atom_site_symmetry_multiplicity
 _atom_site_fract_x
 _atom_site_fract_y
 _atom_site_fract_z
 _atom_site_occupancy
  Mg  Mg0  1  0.54541400  0.33452300  0.22467800  1
  Mg  Mg1  1  0.97640100  0.04719800  0.29651000  1
  Mg  Mg2  1  0.12006300  0.33452300  0.22467800  1
  Mg  Mg3  1  0.18354100  0.20756700  0.28871400  1
  Mg  Mg4  1  0.75255400  0.49489200  0.21688300  1
  Mg  Mg5  1  0.60889200  0.20756700  0.28871400  1
  Mg  Mg6  1  0.34083800  0.89297300  0.21006600  1
  Mg  Mg7  1  0.65985100  0.68029800  0.26323500  1
  Mg  Mg8  1  0.76618900  0.89297300  0.21006600  1
  Mg  Mg9  1  0.38811700  0.64911700  0.30332700  1
  Mg  Mg10  1  0.06910400  0.86179200  0.25015800  1
  Mg  Mg11  1  0.96276600  0.64911700  0.30332700  1
  Mg  Mg12  1  0.73375600  0.91553700  0.28307300  1
  Mg  Mg13  1  0.44646900  0.10706100  0.23519200  1
  Mg  Mg14  1  0.35070700  0.91553700  0.28307300  1
  Mg  Mg15  1  0.99519900  0.62655300  0.23031900  1
  Mg  Mg16  1  0.28248600  0.43502900  0.27820000  1
  Mg  Mg17  1  0.37824800  0.62655300  0.23031900  1
  Mg  Mg18  1  0.86447700  0.27104500  0.25669600  1
  Mg  Mg19  1  0.29541400  0.83452300  0.34967800  1
  Mg  Mg20  1  0.72640100  0.54719800  0.42151000  1
  Mg  Mg21  1  0.87006300  0.83452300  0.34967800  1
  Mg  Mg22  1  0.93354100  0.70756700  0.41371400  1
  Mg  Mg23  1  0.50255400  0.99489200  0.34188300  1
  Mg  Mg24  1  0.35889200  0.70756700  0.41371400  1
  Mg  Mg25  1  0.09083800  0.39297300  0.33506600  1
  Mg  Mg26  1  0.40985100  0.18029800  0.38823500  1
  Mg  Mg27  1  0.51618900  0.39297300  0.33506600  1
  Mg  Mg28  1  0.13811700  0.14911700  0.42832700  1
  Mg  Mg29  1  0.81910400  0.36179200  0.37515800  1
  Mg  Mg30  1  0.71276600  0.14911700  0.42832700  1
  Mg  Mg31  1  0.48375600  0.41553700  0.40807300  1
  Mg  Mg32  1  0.19646900  0.60706100  0.36019200  1
  Mg  Mg33  1  0.10070700  0.41553700  0.40807300  1
  Mg  Mg34  1  0.74519900  0.12655300  0.35531900  1
  Mg  Mg35  1  0.03248600  0.93502900  0.40320000  1
  Mg  Mg36  1  0.12824800  0.12655300  0.35531900  1
  Mg  Mg37  1  0.61447700  0.77104500  0.38169600  1
  Mg  Mg38  1  0.73947700  0.52104500  0.31919600  1
  Mg  Mg39  1  0.04541400  0.33452300  0.47467800  1
  Mg  Mg40  1  0.47640100  0.04719800  0.54651000  1
  Mg  Mg41  1  0.62006300  0.33452300  0.47467800  1
  Mg  Mg42  1  0.68354100  0.20756700  0.53871400  1
  Mg  Mg43  1  0.25255400  0.49489200  0.46688300  1
  Mg  Mg44  1  0.10889200  0.20756700  0.53871400  1
  Mg  Mg45  1  0.84083800  0.89297300  0.46006600  1
  Mg  Mg46  1  0.15985100  0.68029800  0.51323500  1
  Mg  Mg47  1  0.26618900  0.89297300  0.46006600  1
  Mg  Mg48  1  0.88811700  0.64911700  0.55332700  1
  Mg  Mg49  1  0.56910400  0.86179200  0.50015800  1
  Mg  Mg50  1  0.46276600  0.64911700  0.55332700  1
  Mg  Mg51  1  0.23375600  0.91553700  0.53307300  1
  Mg  Mg52  1  0.94646900  0.10706100  0.48519200  1
  Mg  Mg53  1  0.85070700  0.91553700  0.53307300  1
  Mg  Mg54  1  0.49519900  0.62655300  0.48031900  1
  Mg  Mg55  1  0.78248600  0.43502900  0.52820000  1
  Mg  Mg56  1  0.87824800  0.62655300  0.48031900  1
  Mg  Mg57  1  0.36447700  0.27104500  0.50669600  1
  Mg  Mg58  1  0.48947700  0.02104500  0.44419600  1
  Mg  Mg59  1  0.79541400  0.83452300  0.59967800  1
  Mg  Mg60  1  0.22640100  0.54719800  0.67151000  1
  Mg  Mg61  1  0.37006300  0.83452300  0.59967800  1
  Mg  Mg62  1  0.43354100  0.70756700  0.66371400  1
  Mg  Mg63  1  0.00255400  0.99489200  0.59188300  1
  Mg  Mg64  1  0.85889200  0.70756700  0.66371400  1
  Mg  Mg65  1  0.59083800  0.39297300  0.58506600  1
  Mg  Mg66  1  0.90985100  0.18029800  0.63823500  1
  Mg  Mg67  1  0.01618900  0.39297300  0.58506600  1
  Mg  Mg68  1  0.63811700  0.14911700  0.67832700  1
  Mg  Mg69  1  0.31910400  0.36179200  0.62515800  1
  Mg  Mg70  1  0.21276600  0.14911700  0.67832700  1
  Mg  Mg71  1  0.98375600  0.41553700  0.65807300  1
  Mg  Mg72  1  0.69646900  0.60706100  0.61019200  1
  Mg  Mg73  1  0.60070700  0.41553700  0.65807300  1
  Mg  Mg74  1  0.24519900  0.12655300  0.60531900  1
  Mg  Mg75  1  0.53248600  0.93502900  0.65320000  1
  Mg  Mg76  1  0.62824800  0.12655300  0.60531900  1
  Mg  Mg77  1  0.11447700  0.77104500  0.63169600  1
  Mg  Mg78  1  0.23947700  0.52104500  0.56919600  1
  Mg  Mg79  1  0.54541400  0.33452300  0.72467800  1
  Mg  Mg80  1  0.97640100  0.04719800  0.79651000  1
  Mg  Mg81  1  0.12006300  0.33452300  0.72467800  1
  Mg  Mg82  1  0.18354100  0.20756700  0.78871400  1
  Mg  Mg83  1  0.75255400  0.49489200  0.71688300  1
  Mg  Mg84  1  0.60889200  0.20756700  0.78871400  1
  Mg  Mg85  1  0.34083800  0.89297300  0.71006600  1
  Mg  Mg86  1  0.65985100  0.68029800  0.76323500  1
  Mg  Mg87  1  0.76618900  0.89297300  0.71006600  1
  Mg  Mg88  1  0.38811700  0.64911700  0.80332700  1
  Mg  Mg89  1  0.06910400  0.86179200  0.75015800  1
  Mg  Mg90  1  0.96276600  0.64911700  0.80332700  1
  Mg  Mg91  1  0.73375600  0.91553700  0.78307300  1
  Mg  Mg92  1  0.44646900  0.10706100  0.73519200  1
  Mg  Mg93  1  0.35070700  0.91553700  0.78307300  1
  Mg  Mg94  1  0.99519900  0.62655300  0.73031900  1
  Mg  Mg95  1  0.28248600  0.43502900  0.77820000  1
  Mg  Mg96  1  0.37824800  0.62655300  0.73031900  1
  Mg  Mg97  1  0.86447700  0.27104500  0.75669600  1
  Mg  Mg98  1  0.98947700  0.02104500  0.69419600  1
  Pd  Pd99  1  0.14498700  0.08375700  0.24101900  1
  Pd  Pd100  1  0.77125700  0.08375700  0.24101900  1
  Pd  Pd101  1  0.58396800  0.45833300  0.27237400  1
  Pd  Pd102  1  0.95769800  0.45833300  0.27237400  1
  Pd  Pd103  1  0.09364400  0.81271200  0.30878000  1
  Pd  Pd104  1  0.63531100  0.72937800  0.20461300  1
  Pd  Pd105  1  0.89498700  0.58375700  0.36601900  1
  Pd  Pd106  1  0.61468900  0.77062200  0.31930200  1
  Pd  Pd107  1  0.52125700  0.58375700  0.36601900  1
  Pd  Pd108  1  0.33396800  0.95833300  0.39737400  1
  Pd  Pd109  1  0.86426600  0.27146800  0.31909100  1
  Pd  Pd110  1  0.70769800  0.95833300  0.39737400  1
  Pd  Pd111  1  0.84364400  0.31271200  0.43378000  1
  Pd  Pd112  1  0.38531100  0.22937800  0.32961300  1
  Pd  Pd113  1  0.64498700  0.08375700  0.49101900  1
  Pd  Pd114  1  0.36468900  0.27062200  0.44430200  1
  Pd  Pd115  1  0.27125700  0.08375700  0.49101900  1
  Pd  Pd116  1  0.08396800  0.45833300  0.52237400  1
  Pd  Pd117  1  0.61426600  0.77146800  0.44409100  1
  Pd  Pd118  1  0.45769800  0.45833300  0.52237400  1
  Pd  Pd119  1  0.59364400  0.81271200  0.55878000  1
  Pd  Pd120  1  0.13531100  0.72937800  0.45461300  1
  Pd  Pd121  1  0.39498700  0.58375700  0.61601900  1
  Pd  Pd122  1  0.11468900  0.77062200  0.56930200  1
  Pd  Pd123  1  0.02125700  0.58375700  0.61601900  1
  Pd  Pd124  1  0.83396800  0.95833300  0.64737400  1
  Pd  Pd125  1  0.36426600  0.27146800  0.56909100  1
  Pd  Pd126  1  0.20769800  0.95833300  0.64737400  1
  Pd  Pd127  1  0.34364400  0.31271200  0.68378000  1
  Pd  Pd128  1  0.88531100  0.22937800  0.57961300  1
  Pd  Pd129  1  0.14498700  0.08375700  0.74101900  1
  Pd  Pd130  1  0.86468900  0.27062200  0.69430200  1
  Pd  Pd131  1  0.77125700  0.08375700  0.74101900  1
  Pd  Pd132  1  0.58396800  0.45833300  0.77237400  1
  Pd  Pd133  1  0.11426600  0.77146800  0.69409100  1
  Pd  Pd134  1  0.95769800  0.45833300  0.77237400  1
  Pd  Pd135  1  0.09364400  0.81271200  0.80878000  1
  Pd  Pd136  1  0.63531100  0.72937800  0.70461300  1
