# generated using pymatgen
data_Mg91Rh36
_symmetry_space_group_name_H-M   'P 1'
_cell_length_a   8.64031900
_cell_length_b   11.79877622
_cell_length_c   43.91762100
_cell_angle_alpha   86.20917344
_cell_angle_beta   90.00000000
_cell_angle_gamma   68.52142843
_symmetry_Int_Tables_number   1
_chemical_formula_structural   Mg91Rh36
_chemical_formula_sum   'Mg91 Rh36'
_cell_volume   4155.74122190
_cell_formula_units_Z   1
loop_
 _symmetry_equiv_pos_site_id
 _symmetry_equiv_pos_as_xyz
  1  'x, y, z'
loop_
 _atom_site_type_symbol
 _atom_site_label
 _atom_site_symmetry_multiplicity
 _atom_site_fract_x
 _atom_site_fract_y
 _atom_site_fract_z
 _atom_site_occupancy
  Mg  Mg0  1  0.81680200  0.36639500  0.27901800  1
  Mg  Mg1  1  0.05358100  0.89283900  0.25627800  1
  Mg  Mg2  1  0.16770400  0.23848800  0.29486600  1
  Mg  Mg3  1  0.59380800  0.23848800  0.29486600  1
  Mg  Mg4  1  0.94705500  0.67978700  0.30954100  1
  Mg  Mg5  1  0.37315800  0.67978700  0.30954100  1
  Mg  Mg6  1  0.58002400  0.83995200  0.30175800  1
  Mg  Mg7  1  0.26044600  0.05300400  0.24849500  1
  Mg  Mg8  1  0.68655000  0.05300400  0.24849500  1
  Mg  Mg9  1  0.03979700  0.49430300  0.26317000  1
  Mg  Mg10  1  0.46590000  0.49430300  0.26317000  1
  Mg  Mg11  1  0.69180200  0.61639500  0.34151800  1
  Mg  Mg12  1  0.56680200  0.86639500  0.40401800  1
  Mg  Mg13  1  0.10918600  0.78162900  0.36271000  1
  Mg  Mg14  1  0.55889400  0.26151200  0.36773900  1
  Mg  Mg15  1  0.17959400  0.26151200  0.36773900  1
  Mg  Mg16  1  0.20401100  0.97127900  0.31529700  1
  Mg  Mg17  1  0.82471000  0.97127900  0.31529700  1
  Mg  Mg18  1  0.27441900  0.45116200  0.32032600  1
  Mg  Mg19  1  0.80358100  0.39283900  0.38127800  1
  Mg  Mg20  1  0.91770400  0.73848800  0.41986600  1
  Mg  Mg21  1  0.34380800  0.73848800  0.41986600  1
  Mg  Mg22  1  0.69705500  0.17978700  0.43454100  1
  Mg  Mg23  1  0.12315800  0.17978700  0.43454100  1
  Mg  Mg24  1  0.33002400  0.33995200  0.42675800  1
  Mg  Mg25  1  0.01044600  0.55300400  0.37349500  1
  Mg  Mg26  1  0.48728200  0.02543600  0.34812900  1
  Mg  Mg27  1  0.43655000  0.55300400  0.37349500  1
  Mg  Mg28  1  0.78979700  0.99430300  0.38817000  1
  Mg  Mg29  1  0.89632300  0.20735500  0.33490700  1
  Mg  Mg30  1  0.21590000  0.99430300  0.38817000  1
  Mg  Mg31  1  0.44180200  0.11639500  0.46651800  1
  Mg  Mg32  1  0.31680200  0.36639500  0.52901800  1
  Mg  Mg33  1  0.85918600  0.28162900  0.48771000  1
  Mg  Mg34  1  0.30889400  0.76151200  0.49273900  1
  Mg  Mg35  1  0.92959400  0.76151200  0.49273900  1
  Mg  Mg36  1  0.95401100  0.47127900  0.44029700  1
  Mg  Mg37  1  0.57471000  0.47127900  0.44029700  1
  Mg  Mg38  1  0.02441900  0.95116200  0.44532600  1
  Mg  Mg39  1  0.55358100  0.89283900  0.50627800  1
  Mg  Mg40  1  0.66770400  0.23848800  0.54486600  1
  Mg  Mg41  1  0.09380800  0.23848800  0.54486600  1
  Mg  Mg42  1  0.44705500  0.67978700  0.55954100  1
  Mg  Mg43  1  0.87315800  0.67978700  0.55954100  1
  Mg  Mg44  1  0.08002400  0.83995200  0.55175800  1
  Mg  Mg45  1  0.76044600  0.05300400  0.49849500  1
  Mg  Mg46  1  0.23728200  0.52543600  0.47312900  1
  Mg  Mg47  1  0.18655000  0.05300400  0.49849500  1
  Mg  Mg48  1  0.53979700  0.49430300  0.51317000  1
  Mg  Mg49  1  0.64632300  0.70735500  0.45990700  1
  Mg  Mg50  1  0.96590000  0.49430300  0.51317000  1
  Mg  Mg51  1  0.19180200  0.61639500  0.59151800  1
  Mg  Mg52  1  0.06680200  0.86639500  0.65401800  1
  Mg  Mg53  1  0.60918600  0.78162900  0.61271000  1
  Mg  Mg54  1  0.05889400  0.26151200  0.61773900  1
  Mg  Mg55  1  0.67959400  0.26151200  0.61773900  1
  Mg  Mg56  1  0.70401100  0.97127900  0.56529700  1
  Mg  Mg57  1  0.32471000  0.97127900  0.56529700  1
  Mg  Mg58  1  0.77441900  0.45116200  0.57032600  1
  Mg  Mg59  1  0.30358100  0.39283900  0.63127800  1
  Mg  Mg60  1  0.41770400  0.73848800  0.66986600  1
  Mg  Mg61  1  0.84380800  0.73848800  0.66986600  1
  Mg  Mg62  1  0.19705500  0.17978700  0.68454100  1
  Mg  Mg63  1  0.62315800  0.17978700  0.68454100  1
  Mg  Mg64  1  0.83002400  0.33995200  0.67675800  1
  Mg  Mg65  1  0.51044600  0.55300400  0.62349500  1
  Mg  Mg66  1  0.98728200  0.02543600  0.59812900  1
  Mg  Mg67  1  0.93655000  0.55300400  0.62349500  1
  Mg  Mg68  1  0.28979700  0.99430300  0.63817000  1
  Mg  Mg69  1  0.39632300  0.20735500  0.58490700  1
  Mg  Mg70  1  0.71590000  0.99430300  0.63817000  1
  Mg  Mg71  1  0.94180200  0.11639500  0.71651800  1
  Mg  Mg72  1  0.81680200  0.36639500  0.77901800  1
  Mg  Mg73  1  0.35918600  0.28162900  0.73771000  1
  Mg  Mg74  1  0.80889400  0.76151200  0.74273900  1
  Mg  Mg75  1  0.42959400  0.76151200  0.74273900  1
  Mg  Mg76  1  0.45401100  0.47127900  0.69029700  1
  Mg  Mg77  1  0.07471000  0.47127900  0.69029700  1
  Mg  Mg78  1  0.52441900  0.95116200  0.69532600  1
  Mg  Mg79  1  0.05358100  0.89283900  0.75627800  1
  Mg  Mg80  1  0.16770400  0.23848800  0.79486600  1
  Mg  Mg81  1  0.59380800  0.23848800  0.79486600  1
  Mg  Mg82  1  0.94705500  0.67978700  0.80954100  1
  Mg  Mg83  1  0.37315800  0.67978700  0.80954100  1
  Mg  Mg84  1  0.58002400  0.83995200  0.80175800  1
  Mg  Mg85  1  0.26044600  0.05300400  0.74849500  1
  Mg  Mg86  1  0.73728200  0.52543600  0.72312900  1
  Mg  Mg87  1  0.68655000  0.05300400  0.74849500  1
  Mg  Mg88  1  0.03979700  0.49430300  0.76317000  1
  Mg  Mg89  1  0.14632300  0.70735500  0.70990700  1
  Mg  Mg90  1  0.46590000  0.49430300  0.76317000  1
  Rh  Rh91  1  0.17096900  0.65806200  0.26860100  1
  Rh  Rh92  1  0.46263600  0.07472900  0.28943500  1
  Rh  Rh93  1  0.94045400  0.11909200  0.27834400  1
  Rh  Rh94  1  0.69315100  0.61369900  0.27969200  1
  Rh  Rh95  1  0.92096900  0.15806200  0.39360100  1
  Rh  Rh96  1  0.21263600  0.57472900  0.41443500  1
  Rh  Rh97  1  0.69045400  0.61909200  0.40334400  1
  Rh  Rh98  1  0.96833300  0.43024400  0.32555600  1
  Rh  Rh99  1  0.60142300  0.43024400  0.32555600  1
  Rh  Rh100  1  0.78218200  0.80254700  0.35748000  1
  Rh  Rh101  1  0.41527100  0.80254700  0.35748000  1
  Rh  Rh102  1  0.44315100  0.11369900  0.40469200  1
  Rh  Rh103  1  0.67096900  0.65806200  0.51860100  1
  Rh  Rh104  1  0.96263600  0.07472900  0.53943500  1
  Rh  Rh105  1  0.44045400  0.11909200  0.52834400  1
  Rh  Rh106  1  0.71833300  0.93024400  0.45055600  1
  Rh  Rh107  1  0.35142300  0.93024400  0.45055600  1
  Rh  Rh108  1  0.53218200  0.30254700  0.48248000  1
  Rh  Rh109  1  0.16527100  0.30254700  0.48248000  1
  Rh  Rh110  1  0.19315100  0.61369900  0.52969200  1
  Rh  Rh111  1  0.42096900  0.15806200  0.64360100  1
  Rh  Rh112  1  0.71263600  0.57472900  0.66443500  1
  Rh  Rh113  1  0.19045400  0.61909200  0.65334400  1
  Rh  Rh114  1  0.46833300  0.43024400  0.57555600  1
  Rh  Rh115  1  0.10142300  0.43024400  0.57555600  1
  Rh  Rh116  1  0.28218200  0.80254700  0.60748000  1
  Rh  Rh117  1  0.91527100  0.80254700  0.60748000  1
  Rh  Rh118  1  0.94315100  0.11369900  0.65469200  1
  Rh  Rh119  1  0.17096900  0.65806200  0.76860100  1
  Rh  Rh120  1  0.46263600  0.07472900  0.78943500  1
  Rh  Rh121  1  0.94045400  0.11909200  0.77834400  1
  Rh  Rh122  1  0.21833300  0.93024400  0.70055600  1
  Rh  Rh123  1  0.85142300  0.93024400  0.70055600  1
  Rh  Rh124  1  0.03218200  0.30254700  0.73248000  1
  Rh  Rh125  1  0.66527100  0.30254700  0.73248000  1
  Rh  Rh126  1  0.69315100  0.61369900  0.77969200  1
