# generated using pymatgen
data_Tb9Mg2
_symmetry_space_group_name_H-M   'P 1'
_cell_length_a   3.54692000
_cell_length_b   3.54692000
_cell_length_c   47.77043400
_cell_angle_alpha   90.00000000
_cell_angle_beta   90.00000000
_cell_angle_gamma   90.00000000
_symmetry_Int_Tables_number   1
_chemical_formula_structural   Tb9Mg2
_chemical_formula_sum   'Tb9 Mg2'
_cell_volume   600.98270380
_cell_formula_units_Z   1
loop_
 _symmetry_equiv_pos_site_id
 _symmetry_equiv_pos_as_xyz
  1  'x, y, z'
loop_
 _atom_site_type_symbol
 _atom_site_label
 _atom_site_symmetry_multiplicity
 _atom_site_fract_x
 _atom_site_fract_y
 _atom_site_fract_z
 _atom_site_occupancy
  Tb  Tb0  1  0.50000000  0.50000000  0.32760200  1
  Tb  Tb1  1  0.00000000  0.00000000  0.27500000  1
  Tb  Tb2  1  0.50000000  0.50000000  0.22239800  1
  Tb  Tb3  1  0.50000000  0.50000000  0.52760200  1
  Tb  Tb4  1  0.00000000  0.00000000  0.47500000  1
  Tb  Tb5  1  0.50000000  0.50000000  0.42239800  1
  Tb  Tb6  1  0.50000000  0.50000000  0.72760200  1
  Tb  Tb7  1  0.00000000  0.00000000  0.67500000  1
  Tb  Tb8  1  0.50000000  0.50000000  0.62239800  1
  Mg  Mg9  1  0.00000000  0.00000000  0.37500000  1
  Mg  Mg10  1  0.00000000  0.00000000  0.57500000  1
