# generated using pymatgen
data_Mg57Zn101
_symmetry_space_group_name_H-M   'P 1'
_cell_length_a   13.26606209
_cell_length_b   14.70723619
_cell_length_c   50.02254400
_cell_angle_alpha   94.04592358
_cell_angle_beta   85.51984715
_cell_angle_gamma   104.27395804
_symmetry_Int_Tables_number   1
_chemical_formula_structural   Mg57Zn101
_chemical_formula_sum   'Mg114 Zn202'
_cell_volume   9416.24948960
_cell_formula_units_Z   2
loop_
 _symmetry_equiv_pos_site_id
 _symmetry_equiv_pos_as_xyz
  1  'x, y, z'
loop_
 _atom_site_type_symbol
 _atom_site_label
 _atom_site_symmetry_multiplicity
 _atom_site_fract_x
 _atom_site_fract_y
 _atom_site_fract_z
 _atom_site_occupancy
  Mg  Mg0  1  0.56489000  0.35231700  0.24276200  1
  Mg  Mg1  1  0.82503400  0.95641800  0.25671200  1
  Mg  Mg2  1  0.90607300  0.60215500  0.26111900  1
  Mg  Mg3  1  0.47857000  0.02805300  0.29105400  1
  Mg  Mg4  1  0.66759000  0.57654400  0.24881700  1
  Mg  Mg5  1  0.04525700  0.04358200  0.26874300  1
  Mg  Mg6  1  0.54625900  0.67618400  0.29497700  1
  Mg  Mg7  1  0.96421800  0.39784500  0.26433600  1
  Mg  Mg8  1  0.30540100  0.64768300  0.28269200  1
  Mg  Mg9  1  0.32403200  0.32381600  0.23047700  1
  Mg  Mg10  1  0.58263200  0.25117100  0.29683700  1
  Mg  Mg11  1  0.28765900  0.74882900  0.22861700  1
  Mg  Mg12  1  0.20270000  0.42345600  0.27663700  1
  Mg  Mg13  1  0.39172100  0.97194700  0.23440000  1
  Mg  Mg14  1  0.64657100  0.89982000  0.30030700  1
  Mg  Mg15  1  0.95050900  0.71342500  0.31659800  1
  Mg  Mg16  1  0.46489000  0.35231700  0.34276200  1
  Mg  Mg17  1  0.72503400  0.95641800  0.35671200  1
  Mg  Mg18  1  0.80607300  0.60215500  0.36111900  1
  Mg  Mg19  1  0.37857000  0.02805300  0.39105400  1
  Mg  Mg20  1  0.56759000  0.57654400  0.34881700  1
  Mg  Mg21  1  0.94525700  0.04358200  0.36874300  1
  Mg  Mg22  1  0.44625900  0.67618400  0.39497700  1
  Mg  Mg23  1  0.86421800  0.39784500  0.36433600  1
  Mg  Mg24  1  0.20540100  0.64768300  0.38269200  1
  Mg  Mg25  1  0.22403200  0.32381600  0.33047700  1
  Mg  Mg26  1  0.89793400  0.90491200  0.31354800  1
  Mg  Mg27  1  0.48263200  0.25117100  0.39683700  1
  Mg  Mg28  1  0.18765900  0.74882900  0.32861700  1
  Mg  Mg29  1  0.10270000  0.42345600  0.37663700  1
  Mg  Mg30  1  0.12372000  0.10018000  0.32514700  1
  Mg  Mg31  1  0.29172100  0.97194700  0.33440000  1
  Mg  Mg32  1  0.81978100  0.28657500  0.30885700  1
  Mg  Mg33  1  0.87235700  0.09508800  0.31190700  1
  Mg  Mg34  1  0.54657100  0.89982000  0.40030700  1
  Mg  Mg35  1  0.85050900  0.71342500  0.41659800  1
  Mg  Mg36  1  0.36489000  0.35231700  0.44276200  1
  Mg  Mg37  1  0.62503400  0.95641800  0.45671200  1
  Mg  Mg38  1  0.70607300  0.60215500  0.46111900  1
  Mg  Mg39  1  0.27857000  0.02805300  0.49105400  1
  Mg  Mg40  1  0.46759000  0.57654400  0.44881700  1
  Mg  Mg41  1  0.84525700  0.04358200  0.46874300  1
  Mg  Mg42  1  0.34625900  0.67618400  0.49497700  1
  Mg  Mg43  1  0.76421800  0.39784500  0.46433600  1
  Mg  Mg44  1  0.10540100  0.64768300  0.48269200  1
  Mg  Mg45  1  0.12403200  0.32381600  0.43047700  1
  Mg  Mg46  1  0.79793400  0.90491200  0.41354800  1
  Mg  Mg47  1  0.38263200  0.25117100  0.49683700  1
  Mg  Mg48  1  0.08765900  0.74882900  0.42861700  1
  Mg  Mg49  1  0.00270000  0.42345600  0.47663700  1
  Mg  Mg50  1  0.02372000  0.10018000  0.42514700  1
  Mg  Mg51  1  0.19172100  0.97194700  0.43440000  1
  Mg  Mg52  1  0.71978100  0.28657500  0.40885700  1
  Mg  Mg53  1  0.77235700  0.09508800  0.41190700  1
  Mg  Mg54  1  0.44657100  0.89982000  0.50030700  1
  Mg  Mg55  1  0.75050900  0.71342500  0.51659800  1
  Mg  Mg56  1  0.26489000  0.35231700  0.54276200  1
  Mg  Mg57  1  0.52503400  0.95641800  0.55671200  1
  Mg  Mg58  1  0.60607300  0.60215500  0.56111900  1
  Mg  Mg59  1  0.17857000  0.02805300  0.59105400  1
  Mg  Mg60  1  0.36759000  0.57654400  0.54881700  1
  Mg  Mg61  1  0.74525700  0.04358200  0.56874300  1
  Mg  Mg62  1  0.24625900  0.67618400  0.59497700  1
  Mg  Mg63  1  0.66421800  0.39784500  0.56433600  1
  Mg  Mg64  1  0.00540100  0.64768300  0.58269200  1
  Mg  Mg65  1  0.02403200  0.32381600  0.53047700  1
  Mg  Mg66  1  0.69793400  0.90491200  0.51354800  1
  Mg  Mg67  1  0.28263200  0.25117100  0.59683700  1
  Mg  Mg68  1  0.98765900  0.74882900  0.52861700  1
  Mg  Mg69  1  0.90270000  0.42345600  0.57663700  1
  Mg  Mg70  1  0.92372000  0.10018000  0.52514700  1
  Mg  Mg71  1  0.09172100  0.97194700  0.53440000  1
  Mg  Mg72  1  0.61978100  0.28657500  0.50885700  1
  Mg  Mg73  1  0.67235700  0.09508800  0.51190700  1
  Mg  Mg74  1  0.34657100  0.89982000  0.60030700  1
  Mg  Mg75  1  0.65050900  0.71342500  0.61659800  1
  Mg  Mg76  1  0.16489000  0.35231700  0.64276200  1
  Mg  Mg77  1  0.42503400  0.95641800  0.65671200  1
  Mg  Mg78  1  0.50607300  0.60215500  0.66111900  1
  Mg  Mg79  1  0.07857000  0.02805300  0.69105400  1
  Mg  Mg80  1  0.26759000  0.57654400  0.64881700  1
  Mg  Mg81  1  0.64525700  0.04358200  0.66874300  1
  Mg  Mg82  1  0.14625900  0.67618400  0.69497700  1
  Mg  Mg83  1  0.56421800  0.39784500  0.66433600  1
  Mg  Mg84  1  0.90540100  0.64768300  0.68269200  1
  Mg  Mg85  1  0.92403200  0.32381600  0.63047700  1
  Mg  Mg86  1  0.59793400  0.90491200  0.61354800  1
  Mg  Mg87  1  0.18263200  0.25117100  0.69683700  1
  Mg  Mg88  1  0.88765900  0.74882900  0.62861700  1
  Mg  Mg89  1  0.80270000  0.42345600  0.67663700  1
  Mg  Mg90  1  0.82372000  0.10018000  0.62514700  1
  Mg  Mg91  1  0.99172100  0.97194700  0.63440000  1
  Mg  Mg92  1  0.51978100  0.28657500  0.60885700  1
  Mg  Mg93  1  0.57235700  0.09508800  0.61190700  1
  Mg  Mg94  1  0.24657100  0.89982000  0.70030700  1
  Mg  Mg95  1  0.55050900  0.71342500  0.71659800  1
  Mg  Mg96  1  0.06489000  0.35231700  0.74276200  1
  Mg  Mg97  1  0.32503400  0.95641800  0.75671200  1
  Mg  Mg98  1  0.40607300  0.60215500  0.76111900  1
  Mg  Mg99  1  0.97857000  0.02805300  0.79105400  1
  Mg  Mg100  1  0.16759000  0.57654400  0.74881700  1
  Mg  Mg101  1  0.54525700  0.04358200  0.76874300  1
  Mg  Mg102  1  0.04625900  0.67618400  0.79497700  1
  Mg  Mg103  1  0.46421800  0.39784500  0.76433600  1
  Mg  Mg104  1  0.80540100  0.64768300  0.78269200  1
  Mg  Mg105  1  0.82403200  0.32381600  0.73047700  1
  Mg  Mg106  1  0.49793400  0.90491200  0.71354800  1
  Mg  Mg107  1  0.08263200  0.25117100  0.79683700  1
  Mg  Mg108  1  0.78765900  0.74882900  0.72861700  1
  Mg  Mg109  1  0.70270000  0.42345600  0.77663700  1
  Mg  Mg110  1  0.72372000  0.10018000  0.72514700  1
  Mg  Mg111  1  0.89172100  0.97194700  0.73440000  1
  Mg  Mg112  1  0.41978100  0.28657500  0.70885700  1
  Mg  Mg113  1  0.47235700  0.09508800  0.71190700  1
  Zn  Zn114  1  0.96904200  0.81738700  0.26458800  1
  Zn  Zn115  1  0.47340600  0.66285200  0.23805500  1
  Zn  Zn116  1  0.04758000  0.24831100  0.29502500  1
  Zn  Zn117  1  0.12929800  0.57676400  0.24714000  1
  Zn  Zn118  1  0.77624300  0.75046900  0.28099100  1
  Zn  Zn119  1  0.43514500  0.50000000  0.26272700  1
  Zn  Zn120  1  0.29144500  0.86290600  0.28139500  1
  Zn  Zn121  1  0.78999400  0.42312300  0.22893700  1
  Zn  Zn122  1  0.46413400  0.82447600  0.26461200  1
  Zn  Zn123  1  0.61093000  0.96319600  0.24575500  1
  Zn  Zn124  1  0.56498100  0.46639900  0.29583300  1
  Zn  Zn125  1  0.75407400  0.26762300  0.25261700  1
  Zn  Zn126  1  0.90124900  0.18261300  0.26086600  1
  Zn  Zn127  1  0.57884600  0.13709400  0.24406000  1
  Zn  Zn128  1  0.08029700  0.57687700  0.29651800  1
  Zn  Zn129  1  0.09404800  0.24953100  0.24446400  1
  Zn  Zn130  1  0.30530900  0.53360100  0.22962200  1
  Zn  Zn131  1  0.74099300  0.42323600  0.27831500  1
  Zn  Zn132  1  0.64685900  0.78453800  0.24813900  1
  Zn  Zn133  1  0.71111200  0.09783900  0.27769900  1
  Zn  Zn134  1  0.22343200  0.21546200  0.27731600  1
  Zn  Zn135  1  0.15917900  0.90216100  0.24775600  1
  Zn  Zn136  1  0.11621700  0.73237700  0.27283700  1
  Zn  Zn137  1  0.82271100  0.75168900  0.23043000  1
  Zn  Zn138  1  0.40615600  0.17552400  0.26084300  1
  Zn  Zn139  1  0.25936100  0.03680400  0.27969900  1
  Zn  Zn140  1  0.39688500  0.33714800  0.28739900  1
  Zn  Zn141  1  0.74148000  0.59229000  0.30559800  1
  Zn  Zn142  1  0.86904200  0.81738700  0.36458800  1
  Zn  Zn143  1  0.37340600  0.66285200  0.33805500  1
  Zn  Zn144  1  0.94758000  0.24831100  0.39502500  1
  Zn  Zn145  1  0.02929800  0.57676400  0.34714000  1
  Zn  Zn146  1  0.67624300  0.75046900  0.38099100  1
  Zn  Zn147  1  0.33514500  0.50000000  0.36272700  1
  Zn  Zn148  1  0.02881100  0.40771000  0.31985700  1
  Zn  Zn149  1  0.19144500  0.86290600  0.38139500  1
  Zn  Zn150  1  0.68999400  0.42312300  0.32893700  1
  Zn  Zn151  1  0.36413400  0.82447600  0.36461200  1
  Zn  Zn152  1  0.51093000  0.96319600  0.34575500  1
  Zn  Zn153  1  0.46498100  0.46639900  0.39583300  1
  Zn  Zn154  1  0.65407400  0.26762300  0.35261700  1
  Zn  Zn155  1  0.80124900  0.18261300  0.36086600  1
  Zn  Zn156  1  0.47884600  0.13709400  0.34406000  1
  Zn  Zn157  1  0.65994200  0.09965700  0.32622700  1
  Zn  Zn158  1  0.98029700  0.57687700  0.39651800  1
  Zn  Zn159  1  0.99404800  0.24953100  0.34446400  1
  Zn  Zn160  1  0.20530900  0.53360100  0.32962200  1
  Zn  Zn161  1  0.11034800  0.90034300  0.29922800  1
  Zn  Zn162  1  0.64099300  0.42323600  0.37831500  1
  Zn  Zn163  1  0.38514500  0.50000000  0.31272700  1
  Zn  Zn164  1  0.54685900  0.78453800  0.34813900  1
  Zn  Zn165  1  0.41311100  0.82500200  0.31413000  1
  Zn  Zn166  1  0.61111200  0.09783900  0.37769900  1
  Zn  Zn167  1  0.12343200  0.21546200  0.37731600  1
  Zn  Zn168  1  0.05917900  0.90216100  0.34775600  1
  Zn  Zn169  1  0.01621700  0.73237700  0.37283700  1
  Zn  Zn170  1  0.35718000  0.17499800  0.31132400  1
  Zn  Zn171  1  0.72271100  0.75168900  0.33043000  1
  Zn  Zn172  1  0.88514500  0.50000000  0.31272700  1
  Zn  Zn173  1  0.30615600  0.17552400  0.36084300  1
  Zn  Zn174  1  0.15936100  0.03680400  0.37969900  1
  Zn  Zn175  1  0.29688500  0.33714800  0.38739900  1
  Zn  Zn176  1  0.64148000  0.59229000  0.40559800  1
  Zn  Zn177  1  0.76904200  0.81738700  0.46458800  1
  Zn  Zn178  1  0.27340600  0.66285200  0.43805500  1
  Zn  Zn179  1  0.84758000  0.24831100  0.49502500  1
  Zn  Zn180  1  0.92929800  0.57676400  0.44714000  1
  Zn  Zn181  1  0.57624300  0.75046900  0.48099100  1
  Zn  Zn182  1  0.23514500  0.50000000  0.46272700  1
  Zn  Zn183  1  0.92881100  0.40771000  0.41985700  1
  Zn  Zn184  1  0.09144500  0.86290600  0.48139500  1
  Zn  Zn185  1  0.58999400  0.42312300  0.42893700  1
  Zn  Zn186  1  0.26413400  0.82447600  0.46461200  1
  Zn  Zn187  1  0.41093000  0.96319600  0.44575500  1
  Zn  Zn188  1  0.36498100  0.46639900  0.49583300  1
  Zn  Zn189  1  0.55407400  0.26762300  0.45261700  1
  Zn  Zn190  1  0.70124900  0.18261300  0.46086600  1
  Zn  Zn191  1  0.37884600  0.13709400  0.44406000  1
  Zn  Zn192  1  0.55994200  0.09965700  0.42622700  1
  Zn  Zn193  1  0.88029700  0.57687700  0.49651800  1
  Zn  Zn194  1  0.89404800  0.24953100  0.44446400  1
  Zn  Zn195  1  0.10530900  0.53360100  0.42962200  1
  Zn  Zn196  1  0.01034800  0.90034300  0.39922800  1
  Zn  Zn197  1  0.54099300  0.42323600  0.47831500  1
  Zn  Zn198  1  0.28514500  0.50000000  0.41272700  1
  Zn  Zn199  1  0.44685900  0.78453800  0.44813900  1
  Zn  Zn200  1  0.31311100  0.82500200  0.41413000  1
  Zn  Zn201  1  0.51111200  0.09783900  0.47769900  1
  Zn  Zn202  1  0.02343200  0.21546200  0.47731600  1
  Zn  Zn203  1  0.95917900  0.90216100  0.44775600  1
  Zn  Zn204  1  0.91621700  0.73237700  0.47283700  1
  Zn  Zn205  1  0.25718000  0.17499800  0.41132400  1
  Zn  Zn206  1  0.62271100  0.75168900  0.43043000  1
  Zn  Zn207  1  0.78514500  0.50000000  0.41272700  1
  Zn  Zn208  1  0.20615600  0.17552400  0.46084300  1
  Zn  Zn209  1  0.05936100  0.03680400  0.47969900  1
  Zn  Zn210  1  0.19688500  0.33714800  0.48739900  1
  Zn  Zn211  1  0.54148000  0.59229000  0.50559800  1
  Zn  Zn212  1  0.66904200  0.81738700  0.56458800  1
  Zn  Zn213  1  0.17340600  0.66285200  0.53805500  1
  Zn  Zn214  1  0.74758000  0.24831100  0.59502500  1
  Zn  Zn215  1  0.82929800  0.57676400  0.54714000  1
  Zn  Zn216  1  0.47624300  0.75046900  0.58099100  1
  Zn  Zn217  1  0.13514500  0.50000000  0.56272700  1
  Zn  Zn218  1  0.82881100  0.40771000  0.51985700  1
  Zn  Zn219  1  0.99144500  0.86290600  0.58139500  1
  Zn  Zn220  1  0.48999400  0.42312300  0.52893700  1
  Zn  Zn221  1  0.16413400  0.82447600  0.56461200  1
  Zn  Zn222  1  0.31093000  0.96319600  0.54575500  1
  Zn  Zn223  1  0.26498100  0.46639900  0.59583300  1
  Zn  Zn224  1  0.45407400  0.26762300  0.55261700  1
  Zn  Zn225  1  0.60124900  0.18261300  0.56086600  1
  Zn  Zn226  1  0.27884600  0.13709400  0.54406000  1
  Zn  Zn227  1  0.45994200  0.09965700  0.52622700  1
  Zn  Zn228  1  0.78029700  0.57687700  0.59651800  1
  Zn  Zn229  1  0.79404800  0.24953100  0.54446400  1
  Zn  Zn230  1  0.00530900  0.53360100  0.52962200  1
  Zn  Zn231  1  0.91034800  0.90034300  0.49922800  1
  Zn  Zn232  1  0.44099300  0.42323600  0.57831500  1
  Zn  Zn233  1  0.18514500  0.50000000  0.51272700  1
  Zn  Zn234  1  0.34685900  0.78453800  0.54813900  1
  Zn  Zn235  1  0.21311100  0.82500200  0.51413000  1
  Zn  Zn236  1  0.41111200  0.09783900  0.57769900  1
  Zn  Zn237  1  0.92343200  0.21546200  0.57731600  1
  Zn  Zn238  1  0.85917900  0.90216100  0.54775600  1
  Zn  Zn239  1  0.81621700  0.73237700  0.57283700  1
  Zn  Zn240  1  0.15718000  0.17499800  0.51132400  1
  Zn  Zn241  1  0.52271100  0.75168900  0.53043000  1
  Zn  Zn242  1  0.68514500  0.50000000  0.51272700  1
  Zn  Zn243  1  0.10615600  0.17552400  0.56084300  1
  Zn  Zn244  1  0.95936100  0.03680400  0.57969900  1
  Zn  Zn245  1  0.09688500  0.33714800  0.58739900  1
  Zn  Zn246  1  0.44148000  0.59229000  0.60559800  1
  Zn  Zn247  1  0.56904200  0.81738700  0.66458800  1
  Zn  Zn248  1  0.07340600  0.66285200  0.63805500  1
  Zn  Zn249  1  0.64758000  0.24831100  0.69502500  1
  Zn  Zn250  1  0.72929800  0.57676400  0.64714000  1
  Zn  Zn251  1  0.37624300  0.75046900  0.68099100  1
  Zn  Zn252  1  0.03514500  0.50000000  0.66272700  1
  Zn  Zn253  1  0.72881100  0.40771000  0.61985700  1
  Zn  Zn254  1  0.89144500  0.86290600  0.68139500  1
  Zn  Zn255  1  0.38999400  0.42312300  0.62893700  1
  Zn  Zn256  1  0.06413400  0.82447600  0.66461200  1
  Zn  Zn257  1  0.21093000  0.96319600  0.64575500  1
  Zn  Zn258  1  0.16498100  0.46639900  0.69583300  1
  Zn  Zn259  1  0.35407400  0.26762300  0.65261700  1
  Zn  Zn260  1  0.50124900  0.18261300  0.66086600  1
  Zn  Zn261  1  0.17884600  0.13709400  0.64406000  1
  Zn  Zn262  1  0.35994200  0.09965700  0.62622700  1
  Zn  Zn263  1  0.68029700  0.57687700  0.69651800  1
  Zn  Zn264  1  0.69404800  0.24953100  0.64446400  1
  Zn  Zn265  1  0.90530900  0.53360100  0.62962200  1
  Zn  Zn266  1  0.81034800  0.90034300  0.59922800  1
  Zn  Zn267  1  0.34099300  0.42323600  0.67831500  1
  Zn  Zn268  1  0.08514500  0.50000000  0.61272700  1
  Zn  Zn269  1  0.24685900  0.78453800  0.64813900  1
  Zn  Zn270  1  0.11311100  0.82500200  0.61413000  1
  Zn  Zn271  1  0.31111200  0.09783900  0.67769900  1
  Zn  Zn272  1  0.82343200  0.21546200  0.67731600  1
  Zn  Zn273  1  0.75917900  0.90216100  0.64775600  1
  Zn  Zn274  1  0.71621700  0.73237700  0.67283700  1
  Zn  Zn275  1  0.05718000  0.17499800  0.61132400  1
  Zn  Zn276  1  0.42271100  0.75168900  0.63043000  1
  Zn  Zn277  1  0.58514500  0.50000000  0.61272700  1
  Zn  Zn278  1  0.00615600  0.17552400  0.66084300  1
  Zn  Zn279  1  0.85936100  0.03680400  0.67969900  1
  Zn  Zn280  1  0.99688500  0.33714800  0.68739900  1
  Zn  Zn281  1  0.34148000  0.59229000  0.70559800  1
  Zn  Zn282  1  0.46904200  0.81738700  0.76458800  1
  Zn  Zn283  1  0.97340600  0.66285200  0.73805500  1
  Zn  Zn284  1  0.54758000  0.24831100  0.79502500  1
  Zn  Zn285  1  0.62929800  0.57676400  0.74714000  1
  Zn  Zn286  1  0.27624300  0.75046900  0.78099100  1
  Zn  Zn287  1  0.93514500  0.50000000  0.76272700  1
  Zn  Zn288  1  0.62881100  0.40771000  0.71985700  1
  Zn  Zn289  1  0.79144500  0.86290600  0.78139500  1
  Zn  Zn290  1  0.28999400  0.42312300  0.72893700  1
  Zn  Zn291  1  0.96413400  0.82447600  0.76461200  1
  Zn  Zn292  1  0.11093000  0.96319600  0.74575500  1
  Zn  Zn293  1  0.06498100  0.46639900  0.79583300  1
  Zn  Zn294  1  0.25407400  0.26762300  0.75261700  1
  Zn  Zn295  1  0.40124900  0.18261300  0.76086600  1
  Zn  Zn296  1  0.07884600  0.13709400  0.74406000  1
  Zn  Zn297  1  0.25994200  0.09965700  0.72622700  1
  Zn  Zn298  1  0.58029700  0.57687700  0.79651800  1
  Zn  Zn299  1  0.59404800  0.24953100  0.74446400  1
  Zn  Zn300  1  0.80530900  0.53360100  0.72962200  1
  Zn  Zn301  1  0.71034800  0.90034300  0.69922800  1
  Zn  Zn302  1  0.24099300  0.42323600  0.77831500  1
  Zn  Zn303  1  0.98514500  0.50000000  0.71272700  1
  Zn  Zn304  1  0.14685900  0.78453800  0.74813900  1
  Zn  Zn305  1  0.01311100  0.82500200  0.71413000  1
  Zn  Zn306  1  0.21111200  0.09783900  0.77769900  1
  Zn  Zn307  1  0.72343200  0.21546200  0.77731600  1
  Zn  Zn308  1  0.65917900  0.90216100  0.74775600  1
  Zn  Zn309  1  0.61621700  0.73237700  0.77283700  1
  Zn  Zn310  1  0.95718000  0.17499800  0.71132400  1
  Zn  Zn311  1  0.32271100  0.75168900  0.73043000  1
  Zn  Zn312  1  0.48514500  0.50000000  0.71272700  1
  Zn  Zn313  1  0.90615600  0.17552400  0.76084300  1
  Zn  Zn314  1  0.75936100  0.03680400  0.77969900  1
  Zn  Zn315  1  0.89688500  0.33714800  0.78739900  1
