# generated using pymatgen
data_Ce2Mg19
_symmetry_space_group_name_H-M   'P 1'
_cell_length_a   5.91556090
_cell_length_b   7.86989903
_cell_length_c   51.13613300
_cell_angle_alpha   88.75436156
_cell_angle_beta   86.68408432
_cell_angle_gamma   67.92408970
_symmetry_Int_Tables_number   1
_chemical_formula_structural   Ce2Mg19
_chemical_formula_sum   'Ce4 Mg38'
_cell_volume   2202.41018646
_cell_formula_units_Z   2
loop_
 _symmetry_equiv_pos_site_id
 _symmetry_equiv_pos_as_xyz
  1  'x, y, z'
loop_
 _atom_site_type_symbol
 _atom_site_label
 _atom_site_symmetry_multiplicity
 _atom_site_fract_x
 _atom_site_fract_y
 _atom_site_fract_z
 _atom_site_occupancy
  Ce  Ce0  1  0.51069000  0.31927900  0.65934100  1
  Ce  Ce1  1  0.08211900  0.31927900  0.51648400  1
  Ce  Ce2  1  0.65354700  0.31927900  0.37362600  1
  Ce  Ce3  1  0.22497600  0.31927900  0.23076900  1
  Mg  Mg4  1  0.01069000  0.81927900  0.65934100  1
  Mg  Mg5  1  0.51069000  0.81927900  0.65934100  1
  Mg  Mg6  1  0.91958300  0.53186300  0.62897100  1
  Mg  Mg7  1  0.67322600  0.10669500  0.54685300  1
  Mg  Mg8  1  0.46064200  0.53186300  0.54685300  1
  Mg  Mg9  1  0.13216700  0.10669500  0.62897100  1
  Mg  Mg10  1  0.23263500  0.96807300  0.56665600  1
  Mg  Mg11  1  0.36017400  0.67048500  0.60916800  1
  Mg  Mg12  1  0.71137900  0.96807300  0.60916800  1
  Mg  Mg13  1  0.88143000  0.67048500  0.56665600  1
  Mg  Mg14  1  0.29640400  0.31927900  0.58791200  1
  Mg  Mg15  1  0.79640400  0.31927900  0.58791200  1
  Mg  Mg16  1  0.58211900  0.81927900  0.51648400  1
  Mg  Mg17  1  0.08211900  0.81927900  0.51648400  1
  Mg  Mg18  1  0.49101100  0.53186300  0.48611400  1
  Mg  Mg19  1  0.24465500  0.10669500  0.40399600  1
  Mg  Mg20  1  0.03207100  0.53186300  0.40399600  1
  Mg  Mg21  1  0.70359600  0.10669500  0.48611400  1
  Mg  Mg22  1  0.80406400  0.96807300  0.42379900  1
  Mg  Mg23  1  0.93160200  0.67048500  0.46631100  1
  Mg  Mg24  1  0.28280800  0.96807300  0.46631100  1
  Mg  Mg25  1  0.45285800  0.67048500  0.42379900  1
  Mg  Mg26  1  0.86783300  0.31927900  0.44505500  1
  Mg  Mg27  1  0.36783300  0.31927900  0.44505500  1
  Mg  Mg28  1  0.15354700  0.81927900  0.37362600  1
  Mg  Mg29  1  0.65354700  0.81927900  0.37362600  1
  Mg  Mg30  1  0.06244000  0.53186300  0.34325700  1
  Mg  Mg31  1  0.81608300  0.10669500  0.26113800  1
  Mg  Mg32  1  0.60349900  0.53186300  0.26113800  1
  Mg  Mg33  1  0.27502400  0.10669500  0.34325700  1
  Mg  Mg34  1  0.37549300  0.96807300  0.28094100  1
  Mg  Mg35  1  0.50303100  0.67048500  0.32345400  1
  Mg  Mg36  1  0.85423600  0.96807300  0.32345400  1
  Mg  Mg37  1  0.02428700  0.67048500  0.28094100  1
  Mg  Mg38  1  0.43926200  0.31927900  0.30219800  1
  Mg  Mg39  1  0.93926200  0.31927900  0.30219800  1
  Mg  Mg40  1  0.72497600  0.81927900  0.23076900  1
  Mg  Mg41  1  0.22497600  0.81927900  0.23076900  1
