# generated using pymatgen
data_Mg3B11
_symmetry_space_group_name_H-M   'P 1'
_cell_length_a   4.39738600
_cell_length_b   9.23299237
_cell_length_c   44.33566700
_cell_angle_alpha   84.37095004
_cell_angle_beta   90.00000000
_cell_angle_gamma   90.00000000
_symmetry_Int_Tables_number   1
_chemical_formula_structural   Mg3B11
_chemical_formula_sum   'Mg24 B88'
_cell_volume   1791.39348480
_cell_formula_units_Z   8
loop_
 _symmetry_equiv_pos_site_id
 _symmetry_equiv_pos_as_xyz
  1  'x, y, z'
loop_
 _atom_site_type_symbol
 _atom_site_label
 _atom_site_symmetry_multiplicity
 _atom_site_fract_x
 _atom_site_fract_y
 _atom_site_fract_z
 _atom_site_occupancy
  Mg  Mg0  1  0.25000000  0.13516300  0.26078900  1
  Mg  Mg1  1  0.75000000  0.33704700  0.27921100  1
  Mg  Mg2  1  0.25000000  0.80050500  0.28834600  1
  Mg  Mg3  1  0.75000000  0.67170400  0.25165400  1
  Mg  Mg4  1  0.25000000  0.73516300  0.36078900  1
  Mg  Mg5  1  0.75000000  0.93704700  0.37921100  1
  Mg  Mg6  1  0.25000000  0.40050500  0.38834600  1
  Mg  Mg7  1  0.75000000  0.27170400  0.35165400  1
  Mg  Mg8  1  0.25000000  0.33516300  0.46078900  1
  Mg  Mg9  1  0.75000000  0.53704700  0.47921100  1
  Mg  Mg10  1  0.25000000  0.00050500  0.48834600  1
  Mg  Mg11  1  0.75000000  0.87170400  0.45165400  1
  Mg  Mg12  1  0.25000000  0.93516300  0.56078900  1
  Mg  Mg13  1  0.75000000  0.13704700  0.57921100  1
  Mg  Mg14  1  0.25000000  0.60050500  0.58834600  1
  Mg  Mg15  1  0.75000000  0.47170400  0.55165400  1
  Mg  Mg16  1  0.25000000  0.53516300  0.66078900  1
  Mg  Mg17  1  0.75000000  0.73704700  0.67921100  1
  Mg  Mg18  1  0.25000000  0.20050500  0.68834600  1
  Mg  Mg19  1  0.75000000  0.07170400  0.65165400  1
  Mg  Mg20  1  0.25000000  0.13516300  0.76078900  1
  Mg  Mg21  1  0.75000000  0.33704700  0.77921100  1
  Mg  Mg22  1  0.25000000  0.80050500  0.78834600  1
  Mg  Mg23  1  0.75000000  0.67170400  0.75165400  1
  B  B24  1  0.25000000  0.55493800  0.27687000  1
  B  B25  1  0.75000000  0.91727200  0.26313000  1
  B  B26  1  0.25000000  0.50292000  0.24003100  1
  B  B27  1  0.75000000  0.96928900  0.29996900  1
  B  B28  1  0.05800500  0.92110500  0.23955500  1
  B  B29  1  0.55800500  0.55110400  0.30044500  1
  B  B30  1  0.94199500  0.55110400  0.30044500  1
  B  B31  1  0.44199500  0.92110500  0.23955500  1
  B  B32  1  0.25000000  0.15493800  0.37687000  1
  B  B33  1  0.75000000  0.51727200  0.36313000  1
  B  B34  1  0.25000000  0.23936400  0.30760700  1
  B  B35  1  0.75000000  0.83284500  0.33239300  1
  B  B36  1  0.25000000  0.10292000  0.34003100  1
  B  B37  1  0.75000000  0.56928900  0.39996900  1
  B  B38  1  0.25000000  0.42659100  0.31064300  1
  B  B39  1  0.75000000  0.64561900  0.32935700  1
  B  B40  1  0.05800500  0.52110500  0.33955500  1
  B  B41  1  0.55800500  0.15110400  0.40044500  1
  B  B42  1  0.44199500  0.94524200  0.32691100  1
  B  B43  1  0.94199500  0.12696800  0.31308900  1
  B  B44  1  0.94199500  0.15110400  0.40044500  1
  B  B45  1  0.44199500  0.52110500  0.33955500  1
  B  B46  1  0.55800500  0.12696800  0.31308900  1
  B  B47  1  0.05800500  0.94524200  0.32691100  1
  B  B48  1  0.25000000  0.75493800  0.47687000  1
  B  B49  1  0.75000000  0.11727200  0.46313000  1
  B  B50  1  0.25000000  0.83936400  0.40760700  1
  B  B51  1  0.75000000  0.43284500  0.43239300  1
  B  B52  1  0.25000000  0.70292000  0.44003100  1
  B  B53  1  0.75000000  0.16928900  0.49996900  1
  B  B54  1  0.25000000  0.02659100  0.41064300  1
  B  B55  1  0.75000000  0.24561900  0.42935700  1
  B  B56  1  0.05800500  0.12110500  0.43955500  1
  B  B57  1  0.55800500  0.75110400  0.50044500  1
  B  B58  1  0.44199500  0.54524200  0.42691100  1
  B  B59  1  0.94199500  0.72696800  0.41308900  1
  B  B60  1  0.94199500  0.75110400  0.50044500  1
  B  B61  1  0.44199500  0.12110500  0.43955500  1
  B  B62  1  0.55800500  0.72696800  0.41308900  1
  B  B63  1  0.05800500  0.54524200  0.42691100  1
  B  B64  1  0.25000000  0.35493800  0.57687000  1
  B  B65  1  0.75000000  0.71727200  0.56313000  1
  B  B66  1  0.25000000  0.43936400  0.50760700  1
  B  B67  1  0.75000000  0.03284500  0.53239300  1
  B  B68  1  0.25000000  0.30292000  0.54003100  1
  B  B69  1  0.75000000  0.76928900  0.59996900  1
  B  B70  1  0.25000000  0.62659100  0.51064300  1
  B  B71  1  0.75000000  0.84561900  0.52935700  1
  B  B72  1  0.05800500  0.72110500  0.53955500  1
  B  B73  1  0.55800500  0.35110400  0.60044500  1
  B  B74  1  0.44199500  0.14524200  0.52691100  1
  B  B75  1  0.94199500  0.32696800  0.51308900  1
  B  B76  1  0.94199500  0.35110400  0.60044500  1
  B  B77  1  0.44199500  0.72110500  0.53955500  1
  B  B78  1  0.55800500  0.32696800  0.51308900  1
  B  B79  1  0.05800500  0.14524200  0.52691100  1
  B  B80  1  0.25000000  0.95493800  0.67687000  1
  B  B81  1  0.75000000  0.31727200  0.66313000  1
  B  B82  1  0.25000000  0.03936400  0.60760700  1
  B  B83  1  0.75000000  0.63284500  0.63239300  1
  B  B84  1  0.25000000  0.90292000  0.64003100  1
  B  B85  1  0.75000000  0.36928900  0.69996900  1
  B  B86  1  0.25000000  0.22659100  0.61064300  1
  B  B87  1  0.75000000  0.44561900  0.62935700  1
  B  B88  1  0.05800500  0.32110500  0.63955500  1
  B  B89  1  0.55800500  0.95110400  0.70044500  1
  B  B90  1  0.44199500  0.74524200  0.62691100  1
  B  B91  1  0.94199500  0.92696800  0.61308900  1
  B  B92  1  0.94199500  0.95110400  0.70044500  1
  B  B93  1  0.44199500  0.32110500  0.63955500  1
  B  B94  1  0.55800500  0.92696800  0.61308900  1
  B  B95  1  0.05800500  0.74524200  0.62691100  1
  B  B96  1  0.25000000  0.55493800  0.77687000  1
  B  B97  1  0.75000000  0.91727200  0.76313000  1
  B  B98  1  0.25000000  0.63936400  0.70760700  1
  B  B99  1  0.75000000  0.23284500  0.73239300  1
  B  B100  1  0.25000000  0.50292000  0.74003100  1
  B  B101  1  0.75000000  0.96928900  0.79996900  1
  B  B102  1  0.25000000  0.82659100  0.71064300  1
  B  B103  1  0.75000000  0.04561900  0.72935700  1
  B  B104  1  0.05800500  0.92110500  0.73955500  1
  B  B105  1  0.55800500  0.55110400  0.80044500  1
  B  B106  1  0.44199500  0.34524200  0.72691100  1
  B  B107  1  0.94199500  0.52696800  0.71308900  1
  B  B108  1  0.94199500  0.55110400  0.80044500  1
  B  B109  1  0.44199500  0.92110500  0.73955500  1
  B  B110  1  0.55800500  0.52696800  0.71308900  1
  B  B111  1  0.05800500  0.34524200  0.72691100  1
