# generated using pymatgen
data_La2Mg21
_symmetry_space_group_name_H-M   'P 1'
_cell_length_a   5.93651313
_cell_length_b   7.89430397
_cell_length_c   51.29108600
_cell_angle_alpha   88.75318212
_cell_angle_beta   86.68239157
_cell_angle_gamma   67.91388134
_symmetry_Int_Tables_number   1
_chemical_formula_structural   La2Mg21
_chemical_formula_sum   'La4 Mg42'
_cell_volume   2223.61846800
_cell_formula_units_Z   2
loop_
 _symmetry_equiv_pos_site_id
 _symmetry_equiv_pos_as_xyz
  1  'x, y, z'
loop_
 _atom_site_type_symbol
 _atom_site_label
 _atom_site_symmetry_multiplicity
 _atom_site_fract_x
 _atom_site_fract_y
 _atom_site_fract_z
 _atom_site_occupancy
  La  La0  1  0.40945500  0.49977200  0.68131900  1
  La  La1  1  0.98088300  0.49977200  0.53846200  1
  La  La2  1  0.55231200  0.49977200  0.39560400  1
  La  La3  1  0.12374000  0.49977200  0.25274700  1
  Mg  Mg4  1  0.90945500  0.99977200  0.68131900  1
  Mg  Mg5  1  0.40945500  0.99977200  0.68131900  1
  Mg  Mg6  1  0.81774000  0.71377300  0.65074700  1
  Mg  Mg7  1  0.00116900  0.28577100  0.71189000  1
  Mg  Mg8  1  0.78716800  0.71377300  0.71189000  1
  Mg  Mg9  1  0.03174100  0.28577100  0.65074700  1
  Mg  Mg10  1  0.19516900  0.49977200  0.60989000  1
  Mg  Mg11  1  0.69516900  0.49977200  0.60989000  1
  Mg  Mg12  1  0.48088300  0.99977200  0.53846200  1
  Mg  Mg13  1  0.98088300  0.99977200  0.53846200  1
  Mg  Mg14  1  0.13212900  0.14686400  0.58887700  1
  Mg  Mg15  1  0.25820800  0.85268000  0.63090300  1
  Mg  Mg16  1  0.61111600  0.14686400  0.63090300  1
  Mg  Mg17  1  0.77922100  0.85268000  0.58887700  1
  Mg  Mg18  1  0.38916800  0.71377300  0.50789000  1
  Mg  Mg19  1  0.57259800  0.28577100  0.56903300  1
  Mg  Mg20  1  0.35859700  0.71377300  0.56903300  1
  Mg  Mg21  1  0.60316900  0.28577100  0.50789000  1
  Mg  Mg22  1  0.76659700  0.49977200  0.46703300  1
  Mg  Mg23  1  0.26659700  0.49977200  0.46703300  1
  Mg  Mg24  1  0.05231200  0.99977200  0.39560400  1
  Mg  Mg25  1  0.55231200  0.99977200  0.39560400  1
  Mg  Mg26  1  0.70355800  0.14686400  0.44602000  1
  Mg  Mg27  1  0.82963700  0.85268000  0.48804600  1
  Mg  Mg28  1  0.18254500  0.14686400  0.48804600  1
  Mg  Mg29  1  0.35065000  0.85268000  0.44602000  1
  Mg  Mg30  1  0.96059700  0.71377300  0.36503300  1
  Mg  Mg31  1  0.14402600  0.28577100  0.42617600  1
  Mg  Mg32  1  0.93002500  0.71377300  0.42617600  1
  Mg  Mg33  1  0.17459800  0.28577100  0.36503300  1
  Mg  Mg34  1  0.33802600  0.49977200  0.32417600  1
  Mg  Mg35  1  0.83802600  0.49977200  0.32417600  1
  Mg  Mg36  1  0.62374000  0.99977200  0.25274700  1
  Mg  Mg37  1  0.12374000  0.99977200  0.25274700  1
  Mg  Mg38  1  0.27498700  0.14686400  0.30316300  1
  Mg  Mg39  1  0.40106500  0.85268000  0.34518900  1
  Mg  Mg40  1  0.75397300  0.14686400  0.34518900  1
  Mg  Mg41  1  0.92207800  0.85268000  0.30316300  1
  Mg  Mg42  1  0.53202500  0.71377300  0.22217600  1
  Mg  Mg43  1  0.71545500  0.28577100  0.28331900  1
  Mg  Mg44  1  0.50145400  0.71377300  0.28331900  1
  Mg  Mg45  1  0.74602700  0.28577100  0.22217600  1
