# generated using pymatgen
data_Ho2Mg
_symmetry_space_group_name_H-M   'P 1'
_cell_length_a   3.67361200
_cell_length_b   17.91934624
_cell_length_c   41.80471200
_cell_angle_alpha   96.38806847
_cell_angle_beta   90.00000000
_cell_angle_gamma   90.00000000
_symmetry_Int_Tables_number   1
_chemical_formula_structural   Ho2Mg
_chemical_formula_sum   'Ho40 Mg20'
_cell_volume   2734.86434684
_cell_formula_units_Z   20
loop_
 _symmetry_equiv_pos_site_id
 _symmetry_equiv_pos_as_xyz
  1  'x, y, z'
loop_
 _atom_site_type_symbol
 _atom_site_label
 _atom_site_symmetry_multiplicity
 _atom_site_fract_x
 _atom_site_fract_y
 _atom_site_fract_z
 _atom_site_occupancy
  Ho  Ho0  1  0.00000000  0.01239400  0.29287200  1
  Ho  Ho1  1  0.50000000  0.73016400  0.19033400  1
  Ho  Ho2  1  0.50000000  0.67510600  0.26962800  1
  Ho  Ho3  1  0.00000000  0.83233600  0.24716600  1
  Ho  Ho4  1  0.50000000  0.44989400  0.23037200  1
  Ho  Ho5  1  0.00000000  0.29266400  0.25283400  1
  Ho  Ho6  1  0.00000000  0.11260600  0.20712800  1
  Ho  Ho7  1  0.50000000  0.39483600  0.30966600  1
  Ho  Ho8  1  0.00000000  0.13739400  0.41787200  1
  Ho  Ho9  1  0.50000000  0.85516400  0.31533400  1
  Ho  Ho10  1  0.50000000  0.80010600  0.39462800  1
  Ho  Ho11  1  0.00000000  0.95733600  0.37216600  1
  Ho  Ho12  1  0.50000000  0.57489400  0.35537200  1
  Ho  Ho13  1  0.00000000  0.41766400  0.37783400  1
  Ho  Ho14  1  0.00000000  0.23760600  0.33212800  1
  Ho  Ho15  1  0.50000000  0.51983600  0.43466600  1
  Ho  Ho16  1  0.00000000  0.26239400  0.54287200  1
  Ho  Ho17  1  0.50000000  0.98016400  0.44033400  1
  Ho  Ho18  1  0.50000000  0.92510600  0.51962800  1
  Ho  Ho19  1  0.00000000  0.08233600  0.49716600  1
  Ho  Ho20  1  0.50000000  0.69989400  0.48037200  1
  Ho  Ho21  1  0.00000000  0.54266400  0.50283400  1
  Ho  Ho22  1  0.00000000  0.36260600  0.45712800  1
  Ho  Ho23  1  0.50000000  0.64483600  0.55966600  1
  Ho  Ho24  1  0.00000000  0.38739400  0.66787200  1
  Ho  Ho25  1  0.50000000  0.10516400  0.56533400  1
  Ho  Ho26  1  0.50000000  0.05010600  0.64462800  1
  Ho  Ho27  1  0.00000000  0.20733600  0.62216600  1
  Ho  Ho28  1  0.50000000  0.82489400  0.60537200  1
  Ho  Ho29  1  0.00000000  0.66766400  0.62783400  1
  Ho  Ho30  1  0.00000000  0.48760600  0.58212800  1
  Ho  Ho31  1  0.50000000  0.76983600  0.68466600  1
  Ho  Ho32  1  1.00000000  0.51239400  0.79287200  1
  Ho  Ho33  1  0.50000000  0.23016400  0.69033400  1
  Ho  Ho34  1  0.50000000  0.17510600  0.76962800  1
  Ho  Ho35  1  0.00000000  0.33233600  0.74716600  1
  Ho  Ho36  1  0.50000000  0.94989400  0.73037200  1
  Ho  Ho37  1  0.00000000  0.79266400  0.75283400  1
  Ho  Ho38  1  0.00000000  0.61260600  0.70712800  1
  Ho  Ho39  1  0.50000000  0.89483600  0.80966600  1
  Mg  Mg40  1  0.00000000  0.58915900  0.21047700  1
  Mg  Mg41  1  0.50000000  0.97334100  0.22702300  1
  Mg  Mg42  1  0.50000000  0.15165900  0.27297700  1
  Mg  Mg43  1  0.00000000  0.53584100  0.28952300  1
  Mg  Mg44  1  0.00000000  0.71415900  0.33547700  1
  Mg  Mg45  1  0.50000000  0.09834100  0.35202300  1
  Mg  Mg46  1  0.50000000  0.27665900  0.39797700  1
  Mg  Mg47  1  0.00000000  0.66084100  0.41452300  1
  Mg  Mg48  1  0.00000000  0.83915900  0.46047700  1
  Mg  Mg49  1  0.50000000  0.22334100  0.47702300  1
  Mg  Mg50  1  0.50000000  0.40165900  0.52297700  1
  Mg  Mg51  1  0.00000000  0.78584100  0.53952300  1
  Mg  Mg52  1  0.00000000  0.96415900  0.58547700  1
  Mg  Mg53  1  0.50000000  0.34834100  0.60202300  1
  Mg  Mg54  1  0.50000000  0.52665900  0.64797700  1
  Mg  Mg55  1  0.00000000  0.91084100  0.66452300  1
  Mg  Mg56  1  0.00000000  0.08915900  0.71047700  1
  Mg  Mg57  1  0.50000000  0.47334100  0.72702300  1
  Mg  Mg58  1  0.50000000  0.65165900  0.77297700  1
  Mg  Mg59  1  0.00000000  0.03584100  0.78952300  1
