# generated using pymatgen
data_MgGa
_symmetry_space_group_name_H-M   'P 1'
_cell_length_a   8.03816789
_cell_length_b   8.03816859
_cell_length_c   49.15939500
_cell_angle_alpha   88.74412318
_cell_angle_beta   88.74412307
_cell_angle_gamma   83.19111861
_symmetry_Int_Tables_number   1
_chemical_formula_structural   MgGa
_chemical_formula_sum   'Mg48 Ga48'
_cell_volume   3152.53743401
_cell_formula_units_Z   48
loop_
 _symmetry_equiv_pos_site_id
 _symmetry_equiv_pos_as_xyz
  1  'x, y, z'
loop_
 _atom_site_type_symbol
 _atom_site_label
 _atom_site_symmetry_multiplicity
 _atom_site_fract_x
 _atom_site_fract_y
 _atom_site_fract_z
 _atom_site_occupancy
  Mg  Mg0  1  0.89558800  0.75015800  0.77749800  1
  Mg  Mg1  1  0.01172400  0.74747700  0.70344200  1
  Mg  Mg2  1  0.63113200  0.89537900  0.71798500  1
  Mg  Mg3  1  0.96155600  0.10698600  0.75107400  1
  Mg  Mg4  1  0.33844400  0.19301400  0.74892600  1
  Mg  Mg5  1  0.66886800  0.40462100  0.78201500  1
  Mg  Mg6  1  0.28827600  0.55252300  0.79655800  1
  Mg  Mg7  1  0.40441200  0.54984200  0.72250200  1
  Mg  Mg8  1  0.69558800  0.55015800  0.67749800  1
  Mg  Mg9  1  0.81172400  0.54747700  0.60344200  1
  Mg  Mg10  1  0.43113200  0.69537900  0.61798500  1
  Mg  Mg11  1  0.76155600  0.90698600  0.65107400  1
  Mg  Mg12  1  0.13844400  0.99301400  0.64892600  1
  Mg  Mg13  1  0.46886800  0.20462100  0.68201500  1
  Mg  Mg14  1  0.08827600  0.35252300  0.69655800  1
  Mg  Mg15  1  0.20441200  0.34984200  0.62250200  1
  Mg  Mg16  1  0.49558800  0.35015800  0.57749800  1
  Mg  Mg17  1  0.61172400  0.34747700  0.50344200  1
  Mg  Mg18  1  0.23113200  0.49537900  0.51798500  1
  Mg  Mg19  1  0.56155600  0.70698600  0.55107400  1
  Mg  Mg20  1  0.93844400  0.79301400  0.54892600  1
  Mg  Mg21  1  0.26886800  0.00462100  0.58201500  1
  Mg  Mg22  1  0.88827600  0.15252300  0.59655800  1
  Mg  Mg23  1  0.00441200  0.14984200  0.52250200  1
  Mg  Mg24  1  0.29558800  0.15015800  0.47749800  1
  Mg  Mg25  1  0.41172400  0.14747700  0.40344200  1
  Mg  Mg26  1  0.03113200  0.29537900  0.41798500  1
  Mg  Mg27  1  0.36155600  0.50698600  0.45107400  1
  Mg  Mg28  1  0.73844400  0.59301400  0.44892600  1
  Mg  Mg29  1  0.06886800  0.80462100  0.48201500  1
  Mg  Mg30  1  0.68827600  0.95252300  0.49655800  1
  Mg  Mg31  1  0.80441200  0.94984200  0.42250200  1
  Mg  Mg32  1  0.09558800  0.95015800  0.37749800  1
  Mg  Mg33  1  0.21172400  0.94747700  0.30344200  1
  Mg  Mg34  1  0.83113200  0.09537900  0.31798500  1
  Mg  Mg35  1  0.16155600  0.30698600  0.35107400  1
  Mg  Mg36  1  0.53844400  0.39301400  0.34892600  1
  Mg  Mg37  1  0.86886800  0.60462100  0.38201500  1
  Mg  Mg38  1  0.48827600  0.75252300  0.39655800  1
  Mg  Mg39  1  0.60441200  0.74984200  0.32250200  1
  Mg  Mg40  1  0.89558800  0.75015800  0.27749800  1
  Mg  Mg41  1  0.01172400  0.74747700  0.20344200  1
  Mg  Mg42  1  0.63113200  0.89537900  0.21798500  1
  Mg  Mg43  1  0.96155600  0.10698600  0.25107400  1
  Mg  Mg44  1  0.33844400  0.19301400  0.24892600  1
  Mg  Mg45  1  0.66886800  0.40462100  0.28201500  1
  Mg  Mg46  1  0.28827600  0.55252300  0.29655800  1
  Mg  Mg47  1  0.40441200  0.54984200  0.22250200  1
  Ga  Ga48  1  0.52582800  0.73983600  0.76704500  1
  Ga  Ga49  1  0.20818300  0.81070100  0.75121900  1
  Ga  Ga50  1  0.63949500  0.03697700  0.77262000  1
  Ga  Ga51  1  0.22185000  0.00784200  0.70679400  1
  Ga  Ga52  1  0.07815000  0.29215800  0.79320600  1
  Ga  Ga53  1  0.66050500  0.26302300  0.72738000  1
  Ga  Ga54  1  0.09181700  0.48929900  0.74878100  1
  Ga  Ga55  1  0.77417200  0.56016400  0.73295500  1
  Ga  Ga56  1  0.32582800  0.53983600  0.66704500  1
  Ga  Ga57  1  0.00818300  0.61070100  0.65121900  1
  Ga  Ga58  1  0.43949500  0.83697700  0.67262000  1
  Ga  Ga59  1  0.02185000  0.80784200  0.60679400  1
  Ga  Ga60  1  0.87815000  0.09215800  0.69320600  1
  Ga  Ga61  1  0.46050500  0.06302300  0.62738000  1
  Ga  Ga62  1  0.89181700  0.28929900  0.64878100  1
  Ga  Ga63  1  0.57417200  0.36016400  0.63295500  1
  Ga  Ga64  1  0.12582800  0.33983600  0.56704500  1
  Ga  Ga65  1  0.80818300  0.41070100  0.55121900  1
  Ga  Ga66  1  0.23949500  0.63697700  0.57262000  1
  Ga  Ga67  1  0.82185000  0.60784200  0.50679400  1
  Ga  Ga68  1  0.67815000  0.89215800  0.59320600  1
  Ga  Ga69  1  0.26050500  0.86302300  0.52738000  1
  Ga  Ga70  1  0.69181700  0.08929900  0.54878100  1
  Ga  Ga71  1  0.37417200  0.16016400  0.53295500  1
  Ga  Ga72  1  0.92582800  0.13983600  0.46704500  1
  Ga  Ga73  1  0.60818300  0.21070100  0.45121900  1
  Ga  Ga74  1  0.03949500  0.43697700  0.47262000  1
  Ga  Ga75  1  0.62185000  0.40784200  0.40679400  1
  Ga  Ga76  1  0.47815000  0.69215800  0.49320600  1
  Ga  Ga77  1  0.06050500  0.66302300  0.42738000  1
  Ga  Ga78  1  0.49181700  0.88929900  0.44878100  1
  Ga  Ga79  1  0.17417200  0.96016400  0.43295500  1
  Ga  Ga80  1  0.72582800  0.93983600  0.36704500  1
  Ga  Ga81  1  0.40818300  0.01070100  0.35121900  1
  Ga  Ga82  1  0.83949500  0.23697700  0.37262000  1
  Ga  Ga83  1  0.42185000  0.20784200  0.30679400  1
  Ga  Ga84  1  0.27815000  0.49215800  0.39320600  1
  Ga  Ga85  1  0.86050500  0.46302300  0.32738000  1
  Ga  Ga86  1  0.29181700  0.68929900  0.34878100  1
  Ga  Ga87  1  0.97417200  0.76016400  0.33295500  1
  Ga  Ga88  1  0.52582800  0.73983600  0.26704500  1
  Ga  Ga89  1  0.20818300  0.81070100  0.25121900  1
  Ga  Ga90  1  0.63949500  0.03697700  0.27262000  1
  Ga  Ga91  1  0.22185000  0.00784200  0.20679400  1
  Ga  Ga92  1  0.07815000  0.29215800  0.29320600  1
  Ga  Ga93  1  0.66050500  0.26302300  0.22738000  1
  Ga  Ga94  1  0.09181700  0.48929900  0.24878100  1
  Ga  Ga95  1  0.77417200  0.56016400  0.23295500  1
