# generated using pymatgen
data_Ca8Mg17
_symmetry_space_group_name_H-M   'P 1'
_cell_length_a   6.14690500
_cell_length_b   10.38483100
_cell_length_c   42.58700800
_cell_angle_alpha   90.00000000
_cell_angle_beta   90.00000000
_cell_angle_gamma   90.00000000
_symmetry_Int_Tables_number   1
_chemical_formula_structural   Ca8Mg17
_chemical_formula_sum   'Ca16 Mg34'
_cell_volume   2718.52332615
_cell_formula_units_Z   2
loop_
 _symmetry_equiv_pos_site_id
 _symmetry_equiv_pos_as_xyz
  1  'x, y, z'
loop_
 _atom_site_type_symbol
 _atom_site_label
 _atom_site_symmetry_multiplicity
 _atom_site_fract_x
 _atom_site_fract_y
 _atom_site_fract_z
 _atom_site_occupancy
  Ca  Ca0  1  0.54216200  0.94020900  0.38541700  1
  Ca  Ca1  1  0.04216200  0.44020900  0.34375000  1
  Ca  Ca2  1  0.04216200  0.05979100  0.34375000  1
  Ca  Ca3  1  0.54216200  0.55979100  0.38541700  1
  Ca  Ca4  1  0.04216200  0.94020900  0.51041700  1
  Ca  Ca5  1  0.54216200  0.44020900  0.46875000  1
  Ca  Ca6  1  0.54216200  0.05979100  0.46875000  1
  Ca  Ca7  1  0.04216200  0.55979100  0.51041700  1
  Ca  Ca8  1  0.54216200  0.94020900  0.63541700  1
  Ca  Ca9  1  0.04216200  0.44020900  0.59375000  1
  Ca  Ca10  1  0.04216200  0.05979100  0.59375000  1
  Ca  Ca11  1  0.54216200  0.55979100  0.63541700  1
  Ca  Ca12  1  0.04216200  0.94020900  0.76041700  1
  Ca  Ca13  1  0.54216200  0.44020900  0.71875000  1
  Ca  Ca14  1  0.54216200  0.05979100  0.71875000  1
  Ca  Ca15  1  0.04216200  0.55979100  0.76041700  1
  Mg  Mg16  1  0.54216200  0.50000000  0.30208300  1
  Mg  Mg17  1  0.54216200  0.00000000  0.30208300  1
  Mg  Mg18  1  0.54216200  0.25000000  0.34424600  1
  Mg  Mg19  1  0.79513700  0.75000000  0.32316500  1
  Mg  Mg20  1  0.28918800  0.75000000  0.32316500  1
  Mg  Mg21  1  0.29513700  0.25000000  0.40600200  1
  Mg  Mg22  1  0.04216200  0.50000000  0.42708300  1
  Mg  Mg23  1  0.04216200  0.00000000  0.42708300  1
  Mg  Mg24  1  0.04216200  0.75000000  0.38492100  1
  Mg  Mg25  1  0.78918800  0.25000000  0.40600200  1
  Mg  Mg26  1  0.04216200  0.25000000  0.46924600  1
  Mg  Mg27  1  0.29513700  0.75000000  0.44816500  1
  Mg  Mg28  1  0.78918800  0.75000000  0.44816500  1
  Mg  Mg29  1  0.79513700  0.25000000  0.53100200  1
  Mg  Mg30  1  0.54216200  0.50000000  0.55208300  1
  Mg  Mg31  1  0.54216200  0.00000000  0.55208300  1
  Mg  Mg32  1  0.54216200  0.75000000  0.50992100  1
  Mg  Mg33  1  0.28918800  0.25000000  0.53100200  1
  Mg  Mg34  1  0.54216200  0.25000000  0.59424600  1
  Mg  Mg35  1  0.79513700  0.75000000  0.57316500  1
  Mg  Mg36  1  0.28918800  0.75000000  0.57316500  1
  Mg  Mg37  1  0.29513700  0.25000000  0.65600200  1
  Mg  Mg38  1  0.04216200  0.50000000  0.67708300  1
  Mg  Mg39  1  0.04216200  0.00000000  0.67708300  1
  Mg  Mg40  1  0.04216200  0.75000000  0.63492100  1
  Mg  Mg41  1  0.78918800  0.25000000  0.65600200  1
  Mg  Mg42  1  0.04216200  0.25000000  0.71924600  1
  Mg  Mg43  1  0.29513700  0.75000000  0.69816500  1
  Mg  Mg44  1  0.78918800  0.75000000  0.69816500  1
  Mg  Mg45  1  0.79513700  0.25000000  0.78100200  1
  Mg  Mg46  1  0.54216200  0.50000000  0.80208300  1
  Mg  Mg47  1  0.54216200  0.00000000  0.80208300  1
  Mg  Mg48  1  0.54216200  0.75000000  0.75992100  1
  Mg  Mg49  1  0.28918800  0.25000000  0.78100200  1
