# generated using pymatgen
data_Mg12Zn65
_symmetry_space_group_name_H-M   'P 1'
_cell_length_a   9.87228519
_cell_length_b   10.62299195
_cell_length_c   43.15075500
_cell_angle_alpha   89.35999186
_cell_angle_beta   85.66423111
_cell_angle_gamma   73.25856991
_symmetry_Int_Tables_number   1
_chemical_formula_structural   Mg12Zn65
_chemical_formula_sum   'Mg24 Zn130'
_cell_volume   4320.87959756
_cell_formula_units_Z   2
loop_
 _symmetry_equiv_pos_site_id
 _symmetry_equiv_pos_as_xyz
  1  'x, y, z'
loop_
 _atom_site_type_symbol
 _atom_site_label
 _atom_site_symmetry_multiplicity
 _atom_site_fract_x
 _atom_site_fract_y
 _atom_site_fract_z
 _atom_site_occupancy
  Mg  Mg0  1  0.69759900  0.16811300  0.25471800  1
  Mg  Mg1  1  0.54262800  0.47154600  0.23770600  1
  Mg  Mg2  1  0.01267600  0.09078200  0.22116500  1
  Mg  Mg3  1  0.22755100  0.54887700  0.27125900  1
  Mg  Mg4  1  0.87941700  0.89538600  0.34562700  1
  Mg  Mg5  1  0.72444600  0.19881900  0.32861500  1
  Mg  Mg6  1  0.19449400  0.81805500  0.31207400  1
  Mg  Mg7  1  0.40936900  0.27615000  0.36216800  1
  Mg  Mg8  1  0.06123500  0.62265900  0.43653600  1
  Mg  Mg9  1  0.90626400  0.92609200  0.41952400  1
  Mg  Mg10  1  0.37631200  0.54532800  0.40298300  1
  Mg  Mg11  1  0.59118700  0.00342300  0.45307700  1
  Mg  Mg12  1  0.24305400  0.34993200  0.52744500  1
  Mg  Mg13  1  0.08808200  0.65336400  0.51043400  1
  Mg  Mg14  1  0.55813000  0.27260100  0.49389200  1
  Mg  Mg15  1  0.77300600  0.73069500  0.54398600  1
  Mg  Mg16  1  0.42487200  0.07720400  0.61835400  1
  Mg  Mg17  1  0.26990000  0.38063700  0.60134300  1
  Mg  Mg18  1  0.73994800  0.99987300  0.58480200  1
  Mg  Mg19  1  0.95482400  0.45796800  0.63489500  1
  Mg  Mg20  1  0.60669000  0.80447700  0.70926300  1
  Mg  Mg21  1  0.45171900  0.10791000  0.69225200  1
  Mg  Mg22  1  0.92176700  0.72714600  0.67571100  1
  Mg  Mg23  1  0.13664200  0.18524100  0.72580500  1
  Zn  Zn24  1  0.12011300  0.31983000  0.24621200  1
  Zn  Zn25  1  0.23750400  0.05661700  0.27165400  1
  Zn  Zn26  1  0.52597000  0.97410800  0.23926200  1
  Zn  Zn27  1  0.29977400  0.64792500  0.20882100  1
  Zn  Zn28  1  0.75863500  0.26446200  0.19269400  1
  Zn  Zn29  1  0.75563600  0.00663800  0.19216900  1
  Zn  Zn30  1  0.85310000  0.37151900  0.23654600  1
  Zn  Zn31  1  0.00272300  0.58304300  0.22077000  1
  Zn  Zn32  1  0.52347500  0.19940100  0.20019600  1
  Zn  Zn33  1  0.29517900  0.40606200  0.20990400  1
  Zn  Zn34  1  0.76322900  0.50632500  0.19161100  1
  Zn  Zn35  1  0.38712700  0.26814100  0.25587800  1
  Zn  Zn36  1  0.39464600  0.76793900  0.25528300  1
  Zn  Zn37  1  0.71425700  0.66555100  0.25316200  1
  Zn  Zn38  1  0.84558100  0.87172100  0.23714200  1
  Zn  Zn39  1  0.30277300  0.90574900  0.20934600  1
  Zn  Zn40  1  0.12011300  0.81983000  0.24621200  1
  Zn  Zn41  1  0.77160400  0.76305300  0.19156600  1
  Zn  Zn42  1  0.28680500  0.14933400  0.20994900  1
  Zn  Zn43  1  0.53493400  0.71298600  0.20131900  1
  Zn  Zn44  1  0.30193200  0.04710300  0.33712100  1
  Zn  Zn45  1  0.41932200  0.78389000  0.36256300  1
  Zn  Zn46  1  0.70778800  0.70138100  0.33017100  1
  Zn  Zn47  1  0.48159200  0.37519800  0.29973000  1
  Zn  Zn48  1  0.94045300  0.99173500  0.28360300  1
  Zn  Zn49  1  0.93745400  0.73391100  0.28307800  1
  Zn  Zn50  1  0.03491800  0.09879200  0.32745500  1
  Zn  Zn51  1  0.18454100  0.31031600  0.31168000  1
  Zn  Zn52  1  0.70529300  0.92667300  0.29110600  1
  Zn  Zn53  1  0.47699700  0.13333500  0.30081300  1
  Zn  Zn54  1  0.94504800  0.23359700  0.28252000  1
  Zn  Zn55  1  0.56894500  0.99541400  0.34678700  1
  Zn  Zn56  1  0.57646400  0.49521200  0.34619200  1
  Zn  Zn57  1  0.89607500  0.39282400  0.34407100  1
  Zn  Zn58  1  0.02739900  0.59899300  0.32805100  1
  Zn  Zn59  1  0.48459100  0.63302100  0.30025500  1
  Zn  Zn60  1  0.30193200  0.54710300  0.33712100  1
  Zn  Zn61  1  0.95342200  0.49032600  0.28247500  1
  Zn  Zn62  1  0.46862300  0.87660700  0.30085800  1
  Zn  Zn63  1  0.71675200  0.44025900  0.29222800  1
  Zn  Zn64  1  0.48375000  0.77437500  0.42803000  1
  Zn  Zn65  1  0.60114100  0.51116200  0.45347200  1
  Zn  Zn66  1  0.88960600  0.42865400  0.42108000  1
  Zn  Zn67  1  0.66341000  0.10247000  0.39064000  1
  Zn  Zn68  1  0.12227100  0.71900800  0.37451200  1
  Zn  Zn69  1  0.11927200  0.46118400  0.37398700  1
  Zn  Zn70  1  0.21673600  0.82606400  0.41836500  1
  Zn  Zn71  1  0.36635900  0.03758800  0.40258900  1
  Zn  Zn72  1  0.88711100  0.65394600  0.38201500  1
  Zn  Zn73  1  0.65881600  0.86060800  0.39172200  1
  Zn  Zn74  1  0.12686600  0.96087000  0.37342900  1
  Zn  Zn75  1  0.75076300  0.72268600  0.43769600  1
  Zn  Zn76  1  0.75828200  0.22248500  0.43710100  1
  Zn  Zn77  1  0.07789300  0.12009700  0.43498000  1
  Zn  Zn78  1  0.20921700  0.32626600  0.41896000  1
  Zn  Zn79  1  0.66640900  0.36029400  0.39116400  1
  Zn  Zn80  1  0.48375000  0.27437500  0.42803000  1
  Zn  Zn81  1  0.13524000  0.21759900  0.37338400  1
  Zn  Zn82  1  0.65044100  0.60387900  0.39176700  1
  Zn  Zn83  1  0.89857000  0.16753200  0.38313700  1
  Zn  Zn84  1  0.66556800  0.50164800  0.51893900  1
  Zn  Zn85  1  0.78295900  0.23843500  0.54438100  1
  Zn  Zn86  1  0.07142500  0.15592700  0.51198900  1
  Zn  Zn87  1  0.84522900  0.82974300  0.48154900  1
  Zn  Zn88  1  0.30408900  0.44628000  0.46542100  1
  Zn  Zn89  1  0.30109000  0.18845700  0.46489600  1
  Zn  Zn90  1  0.39855500  0.55333700  0.50927400  1
  Zn  Zn91  1  0.54817700  0.76486100  0.49349800  1
  Zn  Zn92  1  0.06892900  0.38121900  0.47292400  1
  Zn  Zn93  1  0.84063400  0.58788100  0.48263100  1
  Zn  Zn94  1  0.30868400  0.68814300  0.46433800  1
  Zn  Zn95  1  0.93258100  0.44995900  0.52860500  1
  Zn  Zn96  1  0.94010100  0.94975700  0.52801000  1
  Zn  Zn97  1  0.25971100  0.84736900  0.52588900  1
  Zn  Zn98  1  0.39103500  0.05353900  0.50986900  1
  Zn  Zn99  1  0.84822800  0.08756700  0.48207300  1
  Zn  Zn100  1  0.66556800  0.00164800  0.51893900  1
  Zn  Zn101  1  0.31705800  0.94487100  0.46429300  1
  Zn  Zn102  1  0.83225900  0.33115200  0.48267600  1
  Zn  Zn103  1  0.08038800  0.89480500  0.47404600  1
  Zn  Zn104  1  0.84738600  0.22892100  0.60984800  1
  Zn  Zn105  1  0.96477700  0.96570800  0.63529000  1
  Zn  Zn106  1  0.25324300  0.88319900  0.60289900  1
  Zn  Zn107  1  0.02704700  0.55701600  0.57245800  1
  Zn  Zn108  1  0.48590700  0.17355300  0.55633000  1
  Zn  Zn109  1  0.48290800  0.91572900  0.55580500  1
  Zn  Zn110  1  0.58037300  0.28061000  0.60018300  1
  Zn  Zn111  1  0.72999500  0.49213400  0.58440700  1
  Zn  Zn112  1  0.25074800  0.10849200  0.56383300  1
  Zn  Zn113  1  0.02245200  0.31515300  0.57354000  1
  Zn  Zn114  1  0.49050200  0.41541600  0.55524700  1
  Zn  Zn115  1  0.11439900  0.17723200  0.61951400  1
  Zn  Zn116  1  0.12191900  0.67703000  0.61891900  1
  Zn  Zn117  1  0.44153000  0.57464200  0.61679800  1
  Zn  Zn118  1  0.57285400  0.78081200  0.60077800  1
  Zn  Zn119  1  0.03004600  0.81483900  0.57298300  1
  Zn  Zn120  1  0.84738600  0.72892100  0.60984800  1
  Zn  Zn121  1  0.49887600  0.67214400  0.55520200  1
  Zn  Zn122  1  0.01407800  0.05842500  0.57358500  1
  Zn  Zn123  1  0.26220700  0.62207700  0.56495500  1
  Zn  Zn124  1  0.02920400  0.95619400  0.70075800  1
  Zn  Zn125  1  0.14659500  0.69298100  0.72619900  1
  Zn  Zn126  1  0.43506100  0.61047200  0.69380800  1
  Zn  Zn127  1  0.20886500  0.28428900  0.66336700  1
  Zn  Zn128  1  0.66772500  0.90082600  0.64723900  1
  Zn  Zn129  1  0.66472600  0.64300200  0.64671400  1
  Zn  Zn130  1  0.76219100  0.00788200  0.69109200  1
  Zn  Zn131  1  0.91181400  0.21940600  0.67531600  1
  Zn  Zn132  1  0.43256600  0.83576400  0.65474200  1
  Zn  Zn133  1  0.20427000  0.04242600  0.66445000  1
  Zn  Zn134  1  0.67232000  0.14268800  0.64615700  1
  Zn  Zn135  1  0.29621800  0.90450500  0.71042300  1
  Zn  Zn136  1  0.30373700  0.40430300  0.70982800  1
  Zn  Zn137  1  0.62334800  0.30191500  0.70770800  1
  Zn  Zn138  1  0.75467200  0.50808400  0.69168700  1
  Zn  Zn139  1  0.21186400  0.54211200  0.66389200  1
  Zn  Zn140  1  0.02920400  0.45619400  0.70075800  1
  Zn  Zn141  1  0.68069500  0.39941700  0.64611200  1
  Zn  Zn142  1  0.19589600  0.78569800  0.66449400  1
  Zn  Zn143  1  0.44402500  0.34935000  0.65586400  1
  Zn  Zn144  1  0.39068300  0.01156100  0.75427600  1
  Zn  Zn145  1  0.84954400  0.62809800  0.73814800  1
  Zn  Zn146  1  0.84654500  0.37027500  0.73762400  1
  Zn  Zn147  1  0.61438400  0.56303700  0.74565100  1
  Zn  Zn148  1  0.38608800  0.76969900  0.75535900  1
  Zn  Zn149  1  0.85413900  0.86996100  0.73706600  1
  Zn  Zn150  1  0.39368200  0.26938500  0.75480100  1
  Zn  Zn151  1  0.86251300  0.12668900  0.73702100  1
  Zn  Zn152  1  0.37771400  0.51297000  0.75540400  1
  Zn  Zn153  1  0.62584300  0.07662300  0.74677300  1
