# generated using pymatgen
data_Mg18Au55
_symmetry_space_group_name_H-M   'P 1'
_cell_length_a   9.58286600
_cell_length_b   10.43041211
_cell_length_c   46.00314700
_cell_angle_alpha   94.13499482
_cell_angle_beta   90.00000000
_cell_angle_gamma   90.00000000
_symmetry_Int_Tables_number   1
_chemical_formula_structural   Mg18Au55
_chemical_formula_sum   'Mg36 Au110'
_cell_volume   4586.19431584
_cell_formula_units_Z   2
loop_
 _symmetry_equiv_pos_site_id
 _symmetry_equiv_pos_as_xyz
  1  'x, y, z'
loop_
 _atom_site_type_symbol
 _atom_site_label
 _atom_site_symmetry_multiplicity
 _atom_site_fract_x
 _atom_site_fract_y
 _atom_site_fract_z
 _atom_site_occupancy
  Mg  Mg0  1  0.49920200  0.13922600  0.73032700  1
  Mg  Mg1  1  0.50079800  0.67473700  0.69936100  1
  Mg  Mg2  1  0.99920200  0.67473700  0.69936100  1
  Mg  Mg3  1  0.00079800  0.13922600  0.73032700  1
  Mg  Mg4  1  0.25000000  0.77461800  0.77268600  1
  Mg  Mg5  1  0.75000000  0.91434500  0.78200100  1
  Mg  Mg6  1  0.25000000  0.23868400  0.80362400  1
  Mg  Mg7  1  0.75000000  0.45027900  0.75106400  1
  Mg  Mg8  1  0.49920200  0.26422600  0.60532700  1
  Mg  Mg9  1  0.50079800  0.79973700  0.57436100  1
  Mg  Mg10  1  0.99920200  0.79973700  0.57436100  1
  Mg  Mg11  1  0.00079800  0.26422600  0.60532700  1
  Mg  Mg12  1  0.25000000  0.89961800  0.64768600  1
  Mg  Mg13  1  0.75000000  0.03934500  0.65700100  1
  Mg  Mg14  1  0.25000000  0.36368400  0.67862400  1
  Mg  Mg15  1  0.75000000  0.57527900  0.62606400  1
  Mg  Mg16  1  0.49920200  0.38922600  0.48032700  1
  Mg  Mg17  1  0.50079800  0.92473700  0.44936100  1
  Mg  Mg18  1  0.99920200  0.92473700  0.44936100  1
  Mg  Mg19  1  0.00079800  0.38922600  0.48032700  1
  Mg  Mg20  1  0.25000000  0.02461800  0.52268600  1
  Mg  Mg21  1  0.75000000  0.16434500  0.53200100  1
  Mg  Mg22  1  0.25000000  0.48868400  0.55362400  1
  Mg  Mg23  1  0.75000000  0.70027900  0.50106400  1
  Mg  Mg24  1  0.49920200  0.51422600  0.35532700  1
  Mg  Mg25  1  0.50079800  0.04973700  0.32436100  1
  Mg  Mg26  1  0.99920200  0.04973700  0.32436100  1
  Mg  Mg27  1  0.00079800  0.51422600  0.35532700  1
  Mg  Mg28  1  0.25000000  0.14961800  0.39768600  1
  Mg  Mg29  1  0.75000000  0.28934500  0.40700100  1
  Mg  Mg30  1  0.25000000  0.61368400  0.42862400  1
  Mg  Mg31  1  0.75000000  0.82527900  0.37606400  1
  Mg  Mg32  1  0.25000000  0.27461800  0.27268600  1
  Mg  Mg33  1  0.75000000  0.41434500  0.28200100  1
  Mg  Mg34  1  0.25000000  0.73868400  0.30362400  1
  Mg  Mg35  1  0.75000000  0.95027900  0.25106400  1
  Au  Au36  1  0.00000000  0.87559100  0.74623400  1
  Au  Au37  1  0.50000000  0.81337200  0.80845400  1
  Au  Au38  1  0.00000000  0.81337200  0.80845400  1
  Au  Au39  1  0.50000000  0.87559100  0.74623400  1
  Au  Au40  1  0.00054900  0.60816000  0.76158900  1
  Au  Au41  1  0.99945100  0.08080300  0.79309900  1
  Au  Au42  1  0.50054900  0.08080300  0.79309900  1
  Au  Au43  1  0.49945100  0.60816000  0.76158900  1
  Au  Au44  1  0.75000000  0.18209400  0.76624600  1
  Au  Au45  1  0.25000000  0.56988000  0.72543100  1
  Au  Au46  1  0.25000000  0.50686900  0.78844200  1
  Au  Au47  1  0.75000000  0.24408300  0.70425600  1
  Au  Au48  1  0.75000000  0.71253600  0.73527400  1
  Au  Au49  1  0.25000000  0.03881500  0.75702600  1
  Au  Au50  1  0.25000000  0.10142700  0.69441400  1
  Au  Au51  1  0.75000000  0.65014800  0.79766200  1
  Au  Au52  1  0.50000000  0.40698200  0.71484400  1
  Au  Au53  1  0.50000000  0.34448200  0.77734400  1
  Au  Au54  1  0.00000000  0.40698200  0.71484400  1
  Au  Au55  1  0.00000000  0.34448200  0.77734400  1
  Au  Au56  1  0.25000000  0.30406100  0.74131600  1
  Au  Au57  1  0.75000000  0.50990200  0.68837200  1
  Au  Au58  1  0.25000000  0.83088500  0.70977100  1
  Au  Au59  1  0.75000000  0.98307800  0.71991700  1
  Au  Au60  1  0.00000000  0.00059100  0.62123400  1
  Au  Au61  1  0.50000000  0.93837200  0.68345400  1
  Au  Au62  1  0.00000000  0.93837200  0.68345400  1
  Au  Au63  1  0.50000000  0.00059100  0.62123400  1
  Au  Au64  1  0.00054900  0.73316000  0.63658900  1
  Au  Au65  1  0.99945100  0.20580300  0.66809900  1
  Au  Au66  1  0.50054900  0.20580300  0.66809900  1
  Au  Au67  1  0.49945100  0.73316000  0.63658900  1
  Au  Au68  1  0.75000000  0.30709400  0.64124600  1
  Au  Au69  1  0.25000000  0.69488000  0.60043100  1
  Au  Au70  1  0.25000000  0.63186900  0.66344200  1
  Au  Au71  1  0.75000000  0.36908300  0.57925600  1
  Au  Au72  1  0.75000000  0.83753600  0.61027400  1
  Au  Au73  1  0.25000000  0.16381500  0.63202600  1
  Au  Au74  1  0.25000000  0.22642700  0.56941400  1
  Au  Au75  1  0.75000000  0.77514800  0.67266200  1
  Au  Au76  1  0.50000000  0.53198200  0.58984400  1
  Au  Au77  1  0.50000000  0.46948200  0.65234400  1
  Au  Au78  1  0.00000000  0.53198200  0.58984400  1
  Au  Au79  1  0.00000000  0.46948200  0.65234400  1
  Au  Au80  1  0.25000000  0.42906100  0.61631600  1
  Au  Au81  1  0.75000000  0.63490200  0.56337200  1
  Au  Au82  1  0.25000000  0.95588500  0.58477100  1
  Au  Au83  1  0.75000000  0.10807800  0.59491700  1
  Au  Au84  1  0.00000000  0.12559100  0.49623400  1
  Au  Au85  1  0.50000000  0.06337200  0.55845400  1
  Au  Au86  1  0.00000000  0.06337200  0.55845400  1
  Au  Au87  1  0.50000000  0.12559100  0.49623400  1
  Au  Au88  1  0.00054900  0.85816000  0.51158900  1
  Au  Au89  1  0.99945100  0.33080300  0.54309900  1
  Au  Au90  1  0.50054900  0.33080300  0.54309900  1
  Au  Au91  1  0.49945100  0.85816000  0.51158900  1
  Au  Au92  1  0.75000000  0.43209400  0.51624600  1
  Au  Au93  1  0.25000000  0.81988000  0.47543100  1
  Au  Au94  1  0.25000000  0.75686900  0.53844200  1
  Au  Au95  1  0.75000000  0.49408300  0.45425600  1
  Au  Au96  1  0.75000000  0.96253600  0.48527400  1
  Au  Au97  1  0.25000000  0.28881500  0.50702600  1
  Au  Au98  1  0.25000000  0.35142700  0.44441400  1
  Au  Au99  1  0.75000000  0.90014800  0.54766200  1
  Au  Au100  1  0.50000000  0.65698200  0.46484400  1
  Au  Au101  1  0.50000000  0.59448200  0.52734400  1
  Au  Au102  1  0.00000000  0.65698200  0.46484400  1
  Au  Au103  1  0.00000000  0.59448200  0.52734400  1
  Au  Au104  1  0.25000000  0.55406100  0.49131600  1
  Au  Au105  1  0.75000000  0.75990200  0.43837200  1
  Au  Au106  1  0.25000000  0.08088500  0.45977100  1
  Au  Au107  1  0.75000000  0.23307800  0.46991700  1
  Au  Au108  1  0.00000000  0.25059100  0.37123400  1
  Au  Au109  1  0.50000000  0.18837200  0.43345400  1
  Au  Au110  1  0.00000000  0.18837200  0.43345400  1
  Au  Au111  1  0.50000000  0.25059100  0.37123400  1
  Au  Au112  1  0.00054900  0.98316000  0.38658900  1
  Au  Au113  1  0.99945100  0.45580300  0.41809900  1
  Au  Au114  1  0.50054900  0.45580300  0.41809900  1
  Au  Au115  1  0.49945100  0.98316000  0.38658900  1
  Au  Au116  1  0.75000000  0.55709400  0.39124600  1
  Au  Au117  1  0.25000000  0.94488000  0.35043100  1
  Au  Au118  1  0.25000000  0.88186900  0.41344200  1
  Au  Au119  1  0.75000000  0.61908300  0.32925600  1
  Au  Au120  1  0.75000000  0.08753600  0.36027400  1
  Au  Au121  1  0.25000000  0.41381500  0.38202600  1
  Au  Au122  1  0.25000000  0.47642700  0.31941400  1
  Au  Au123  1  0.75000000  0.02514800  0.42266200  1
  Au  Au124  1  0.50000000  0.78198200  0.33984400  1
  Au  Au125  1  0.50000000  0.71948200  0.40234400  1
  Au  Au126  1  0.00000000  0.78198200  0.33984400  1
  Au  Au127  1  0.00000000  0.71948200  0.40234400  1
  Au  Au128  1  0.25000000  0.67906100  0.36631600  1
  Au  Au129  1  0.75000000  0.88490200  0.31337200  1
  Au  Au130  1  0.25000000  0.20588500  0.33477100  1
  Au  Au131  1  0.75000000  0.35807800  0.34491700  1
  Au  Au132  1  0.00000000  0.37559100  0.24623400  1
  Au  Au133  1  0.50000000  0.31337200  0.30845400  1
  Au  Au134  1  0.00000000  0.31337200  0.30845400  1
  Au  Au135  1  0.50000000  0.37559100  0.24623400  1
  Au  Au136  1  0.00054900  0.10816000  0.26158900  1
  Au  Au137  1  0.99945100  0.58080300  0.29309900  1
  Au  Au138  1  0.50054900  0.58080300  0.29309900  1
  Au  Au139  1  0.49945100  0.10816000  0.26158900  1
  Au  Au140  1  0.75000000  0.68209400  0.26624600  1
  Au  Au141  1  0.25000000  0.00686900  0.28844200  1
  Au  Au142  1  0.25000000  0.53881500  0.25702600  1
  Au  Au143  1  0.75000000  0.15014800  0.29766200  1
  Au  Au144  1  0.50000000  0.84448200  0.27734400  1
  Au  Au145  1  0.00000000  0.84448200  0.27734400  1
