# generated using pymatgen
data_Mg5Tl2
_symmetry_space_group_name_H-M   'P 1'
_cell_length_a   6.32911714
_cell_length_b   8.77491562
_cell_length_c   45.19527000
_cell_angle_alpha   85.33535441
_cell_angle_beta   85.98488022
_cell_angle_gamma   68.86068493
_symmetry_Int_Tables_number   1
_chemical_formula_structural   Mg5Tl2
_chemical_formula_sum   'Mg40 Tl16'
_cell_volume   2331.13079959
_cell_formula_units_Z   8
loop_
 _symmetry_equiv_pos_site_id
 _symmetry_equiv_pos_as_xyz
  1  'x, y, z'
loop_
 _atom_site_type_symbol
 _atom_site_label
 _atom_site_symmetry_multiplicity
 _atom_site_fract_x
 _atom_site_fract_y
 _atom_site_fract_z
 _atom_site_occupancy
  Mg  Mg0  1  0.80787500  0.70571200  0.67853800  1
  Mg  Mg1  1  0.88030900  0.05872000  0.68066300  1
  Mg  Mg2  1  0.67857100  0.42857100  0.71428600  1
  Mg  Mg3  1  0.45350200  0.43872900  0.65426700  1
  Mg  Mg4  1  0.04926800  0.15143100  0.75003300  1
  Mg  Mg5  1  0.97683400  0.79842300  0.74790900  1
  Mg  Mg6  1  0.47683400  0.79842300  0.74790900  1
  Mg  Mg7  1  0.38030900  0.05872000  0.68066300  1
  Mg  Mg8  1  0.40364100  0.41841400  0.77430400  1
  Mg  Mg9  1  0.17857100  0.42857100  0.71428600  1
  Mg  Mg10  1  0.66501800  0.13428300  0.53568100  1
  Mg  Mg11  1  0.73745100  0.48729200  0.53780600  1
  Mg  Mg12  1  0.53571400  0.85714300  0.57142900  1
  Mg  Mg13  1  0.31064500  0.86730100  0.51141000  1
  Mg  Mg14  1  0.90641100  0.58000300  0.60717600  1
  Mg  Mg15  1  0.83397700  0.22699400  0.60505100  1
  Mg  Mg16  1  0.33397700  0.22699400  0.60505100  1
  Mg  Mg17  1  0.23745100  0.48729200  0.53780600  1
  Mg  Mg18  1  0.26078400  0.84698500  0.63144700  1
  Mg  Mg19  1  0.03571400  0.85714300  0.57142900  1
  Mg  Mg20  1  0.52216100  0.56285400  0.39282400  1
  Mg  Mg21  1  0.59459400  0.91586300  0.39494900  1
  Mg  Mg22  1  0.39285700  0.28571400  0.42857100  1
  Mg  Mg23  1  0.16778700  0.29587200  0.36855300  1
  Mg  Mg24  1  0.76355400  0.00857400  0.46431900  1
  Mg  Mg25  1  0.69112000  0.65556600  0.46219400  1
  Mg  Mg26  1  0.19112000  0.65556600  0.46219400  1
  Mg  Mg27  1  0.09459400  0.91586300  0.39494900  1
  Mg  Mg28  1  0.11792700  0.27555600  0.48859000  1
  Mg  Mg29  1  0.89285700  0.28571400  0.42857100  1
  Mg  Mg30  1  0.37930400  0.99142600  0.24996700  1
  Mg  Mg31  1  0.45173700  0.34443400  0.25209100  1
  Mg  Mg32  1  0.25000000  0.71428600  0.28571400  1
  Mg  Mg33  1  0.02493000  0.72444400  0.22569600  1
  Mg  Mg34  1  0.62069600  0.43714600  0.32146200  1
  Mg  Mg35  1  0.54826300  0.08413700  0.31933700  1
  Mg  Mg36  1  0.04826300  0.08413700  0.31933700  1
  Mg  Mg37  1  0.95173700  0.34443400  0.25209100  1
  Mg  Mg38  1  0.97507000  0.70412800  0.34573300  1
  Mg  Mg39  1  0.75000000  0.71428600  0.28571400  1
  Tl  Tl40  1  0.99537800  0.34998300  0.65926200  1
  Tl  Tl41  1  0.28652600  0.73287800  0.69407000  1
  Tl  Tl42  1  0.57061700  0.12426500  0.73450100  1
  Tl  Tl43  1  0.86176500  0.50716000  0.76931000  1
  Tl  Tl44  1  0.85252100  0.77855400  0.51640500  1
  Tl  Tl45  1  0.14366900  0.16144900  0.55121300  1
  Tl  Tl46  1  0.42776000  0.55283600  0.59164400  1
  Tl  Tl47  1  0.71890800  0.93573100  0.62645300  1
  Tl  Tl48  1  0.70966300  0.20712600  0.37354700  1
  Tl  Tl49  1  0.00081200  0.59002100  0.40835600  1
  Tl  Tl50  1  0.28490300  0.98140800  0.44878700  1
  Tl  Tl51  1  0.57605100  0.36430300  0.48359500  1
  Tl  Tl52  1  0.56680600  0.63569700  0.23069000  1
  Tl  Tl53  1  0.85795400  0.01859200  0.26549900  1
  Tl  Tl54  1  0.14204600  0.40997900  0.30593000  1
  Tl  Tl55  1  0.43319400  0.79287400  0.34073800  1
