# generated using pymatgen
data_Mg8Zn37
_symmetry_space_group_name_H-M   'P 1'
_cell_length_a   9.38239124
_cell_length_b   9.87228504
_cell_length_c   47.88422100
_cell_angle_alpha   93.42143374
_cell_angle_beta   90.35613488
_cell_angle_gamma   117.39448675
_symmetry_Int_Tables_number   1
_chemical_formula_structural   Mg8Zn37
_chemical_formula_sum   'Mg24 Zn111'
_cell_volume   3928.07221196
_cell_formula_units_Z   3
loop_
 _symmetry_equiv_pos_site_id
 _symmetry_equiv_pos_as_xyz
  1  'x, y, z'
loop_
 _atom_site_type_symbol
 _atom_site_label
 _atom_site_symmetry_multiplicity
 _atom_site_fract_x
 _atom_site_fract_y
 _atom_site_fract_z
 _atom_site_occupancy
  Mg  Mg0  1  0.61489200  0.53786000  0.79072600  1
  Mg  Mg1  1  0.31854100  0.32900700  0.74677400  1
  Mg  Mg2  1  0.77377200  0.88182400  0.77161700  1
  Mg  Mg3  1  0.15966100  0.98504300  0.76588300  1
  Mg  Mg4  1  0.51489200  0.33786000  0.69072600  1
  Mg  Mg5  1  0.21854100  0.12900700  0.64677400  1
  Mg  Mg6  1  0.67377200  0.68182400  0.67161700  1
  Mg  Mg7  1  0.05966100  0.78504300  0.66588300  1
  Mg  Mg8  1  0.41489200  0.13786000  0.59072600  1
  Mg  Mg9  1  0.11854100  0.92900700  0.54677400  1
  Mg  Mg10  1  0.57377200  0.48182400  0.57161700  1
  Mg  Mg11  1  0.95966100  0.58504300  0.56588300  1
  Mg  Mg12  1  0.31489200  0.93786000  0.49072600  1
  Mg  Mg13  1  0.01854100  0.72900700  0.44677400  1
  Mg  Mg14  1  0.47377200  0.28182400  0.47161700  1
  Mg  Mg15  1  0.85966100  0.38504300  0.46588300  1
  Mg  Mg16  1  0.21489200  0.73786000  0.39072600  1
  Mg  Mg17  1  0.91854100  0.52900700  0.34677400  1
  Mg  Mg18  1  0.37377200  0.08182400  0.37161700  1
  Mg  Mg19  1  0.75966100  0.18504300  0.36588300  1
  Mg  Mg20  1  0.11489200  0.53786000  0.29072600  1
  Mg  Mg21  1  0.81854100  0.32900700  0.24677400  1
  Mg  Mg22  1  0.27377200  0.88182400  0.27161700  1
  Mg  Mg23  1  0.65966100  0.98504300  0.26588300  1
  Zn  Zn24  1  0.46671700  0.93343300  0.76875000  1
  Zn  Zn25  1  0.60027900  0.89329000  0.71542500  1
  Zn  Zn26  1  0.86230000  0.41121400  0.79776200  1
  Zn  Zn27  1  0.18807200  0.06243100  0.70602800  1
  Zn  Zn28  1  0.64536200  0.60443500  0.73147200  1
  Zn  Zn29  1  0.93012200  0.65321100  0.75683500  1
  Zn  Zn30  1  0.43112400  0.65994800  0.75584900  1
  Zn  Zn31  1  0.23315400  0.77357700  0.72207500  1
  Zn  Zn32  1  0.70042300  0.37928700  0.74398000  1
  Zn  Zn33  1  0.45173900  0.10577600  0.73108000  1
  Zn  Zn34  1  0.38169500  0.56109100  0.70642000  1
  Zn  Zn35  1  0.50231000  0.20691800  0.78165100  1
  Zn  Zn36  1  0.95384100  0.11471600  0.73119500  1
  Zn  Zn37  1  0.07113300  0.45565200  0.73973800  1
  Zn  Zn38  1  0.87959200  0.55215100  0.70630500  1
  Zn  Zn39  1  0.00331100  0.21365600  0.78066500  1
  Zn  Zn40  1  0.91671700  0.83343300  0.71875000  1
  Zn  Zn41  1  0.19939200  0.71813700  0.78071100  1
  Zn  Zn42  1  0.73404100  0.14872900  0.75678900  1
  Zn  Zn43  1  0.23301000  0.48758000  0.79352000  1
  Zn  Zn44  1  0.36671700  0.73343300  0.66875000  1
  Zn  Zn45  1  0.50027900  0.69329000  0.61542500  1
  Zn  Zn46  1  0.76230000  0.21121400  0.69776200  1
  Zn  Zn47  1  0.08807200  0.86243100  0.60602800  1
  Zn  Zn48  1  0.54536200  0.40443500  0.63147200  1
  Zn  Zn49  1  0.83012200  0.45321100  0.65683500  1
  Zn  Zn50  1  0.33112400  0.45994800  0.65584900  1
  Zn  Zn51  1  0.13315400  0.57357700  0.62207500  1
  Zn  Zn52  1  0.60042300  0.17928700  0.64398000  1
  Zn  Zn53  1  0.35173900  0.90577600  0.63108000  1
  Zn  Zn54  1  0.28169500  0.36109100  0.60642000  1
  Zn  Zn55  1  0.40231000  0.00691800  0.68165100  1
  Zn  Zn56  1  0.85384100  0.91471600  0.63119500  1
  Zn  Zn57  1  0.97113300  0.25565200  0.63973800  1
  Zn  Zn58  1  0.77959200  0.35215100  0.60630500  1
  Zn  Zn59  1  0.90331100  0.01365600  0.68066500  1
  Zn  Zn60  1  0.81671700  0.63343300  0.61875000  1
  Zn  Zn61  1  0.09939200  0.51813700  0.68071100  1
  Zn  Zn62  1  0.63404100  0.94872900  0.65678900  1
  Zn  Zn63  1  0.13301000  0.28758000  0.69352000  1
  Zn  Zn64  1  0.26671700  0.53343300  0.56875000  1
  Zn  Zn65  1  0.40027900  0.49329000  0.51542500  1
  Zn  Zn66  1  0.66230000  0.01121400  0.59776200  1
  Zn  Zn67  1  0.98807200  0.66243100  0.50602800  1
  Zn  Zn68  1  0.44536200  0.20443500  0.53147200  1
  Zn  Zn69  1  0.73012200  0.25321100  0.55683500  1
  Zn  Zn70  1  0.23112400  0.25994800  0.55584900  1
  Zn  Zn71  1  0.03315400  0.37357700  0.52207500  1
  Zn  Zn72  1  0.50042300  0.97928700  0.54398000  1
  Zn  Zn73  1  0.25173900  0.70577600  0.53108000  1
  Zn  Zn74  1  0.18169500  0.16109100  0.50642000  1
  Zn  Zn75  1  0.30231000  0.80691800  0.58165100  1
  Zn  Zn76  1  0.75384100  0.71471600  0.53119500  1
  Zn  Zn77  1  0.87113300  0.05565200  0.53973800  1
  Zn  Zn78  1  0.67959200  0.15215100  0.50630500  1
  Zn  Zn79  1  0.80331100  0.81365600  0.58066500  1
  Zn  Zn80  1  0.71671700  0.43343300  0.51875000  1
  Zn  Zn81  1  0.99939200  0.31813700  0.58071100  1
  Zn  Zn82  1  0.53404100  0.74872900  0.55678900  1
  Zn  Zn83  1  0.03301000  0.08758000  0.59352000  1
  Zn  Zn84  1  0.16671700  0.33343300  0.46875000  1
  Zn  Zn85  1  0.30027900  0.29329000  0.41542500  1
  Zn  Zn86  1  0.56230000  0.81121400  0.49776200  1
  Zn  Zn87  1  0.88807200  0.46243100  0.40602800  1
  Zn  Zn88  1  0.34536200  0.00443500  0.43147200  1
  Zn  Zn89  1  0.63012200  0.05321100  0.45683500  1
  Zn  Zn90  1  0.13112400  0.05994800  0.45584900  1
  Zn  Zn91  1  0.93315400  0.17357700  0.42207500  1
  Zn  Zn92  1  0.40042300  0.77928700  0.44398000  1
  Zn  Zn93  1  0.15173900  0.50577600  0.43108000  1
  Zn  Zn94  1  0.08169500  0.96109100  0.40642000  1
  Zn  Zn95  1  0.20231000  0.60691800  0.48165100  1
  Zn  Zn96  1  0.65384100  0.51471600  0.43119500  1
  Zn  Zn97  1  0.77113300  0.85565200  0.43973800  1
  Zn  Zn98  1  0.57959200  0.95215100  0.40630500  1
  Zn  Zn99  1  0.70331100  0.61365600  0.48066500  1
  Zn  Zn100  1  0.61671700  0.23343300  0.41875000  1
  Zn  Zn101  1  0.89939200  0.11813700  0.48071100  1
  Zn  Zn102  1  0.43404100  0.54872900  0.45678900  1
  Zn  Zn103  1  0.93301000  0.88758000  0.49352000  1
  Zn  Zn104  1  0.06671700  0.13343300  0.36875000  1
  Zn  Zn105  1  0.20027900  0.09329000  0.31542500  1
  Zn  Zn106  1  0.46230000  0.61121400  0.39776200  1
  Zn  Zn107  1  0.78807200  0.26243100  0.30602800  1
  Zn  Zn108  1  0.24536200  0.80443500  0.33147200  1
  Zn  Zn109  1  0.53012200  0.85321100  0.35683500  1
  Zn  Zn110  1  0.03112400  0.85994800  0.35584900  1
  Zn  Zn111  1  0.83315400  0.97357700  0.32207500  1
  Zn  Zn112  1  0.30042300  0.57928700  0.34398000  1
  Zn  Zn113  1  0.05173900  0.30577600  0.33108000  1
  Zn  Zn114  1  0.98169500  0.76109100  0.30642000  1
  Zn  Zn115  1  0.10231000  0.40691800  0.38165100  1
  Zn  Zn116  1  0.55384100  0.31471600  0.33119500  1
  Zn  Zn117  1  0.67113300  0.65565200  0.33973800  1
  Zn  Zn118  1  0.47959200  0.75215100  0.30630500  1
  Zn  Zn119  1  0.60331100  0.41365600  0.38066500  1
  Zn  Zn120  1  0.51671700  0.03343300  0.31875000  1
  Zn  Zn121  1  0.79939200  0.91813700  0.38071100  1
  Zn  Zn122  1  0.33404100  0.34872900  0.35678900  1
  Zn  Zn123  1  0.83301000  0.68758000  0.39352000  1
  Zn  Zn124  1  0.96671700  0.93343300  0.26875000  1
  Zn  Zn125  1  0.36230000  0.41121400  0.29776200  1
  Zn  Zn126  1  0.43012200  0.65321100  0.25683500  1
  Zn  Zn127  1  0.93112400  0.65994800  0.25584900  1
  Zn  Zn128  1  0.20042300  0.37928700  0.24398000  1
  Zn  Zn129  1  0.00231000  0.20691800  0.28165100  1
  Zn  Zn130  1  0.57113300  0.45565200  0.23973800  1
  Zn  Zn131  1  0.50331100  0.21365600  0.28066500  1
  Zn  Zn132  1  0.69939200  0.71813700  0.28071100  1
  Zn  Zn133  1  0.23404100  0.14872900  0.25678900  1
  Zn  Zn134  1  0.73301000  0.48758000  0.29352000  1
