# generated using pymatgen
data_Mg3Ag
_symmetry_space_group_name_H-M   'P 1'
_cell_length_a   6.16428200
_cell_length_b   7.89381708
_cell_length_c   43.60343000
_cell_angle_alpha   94.18337805
_cell_angle_beta   90.00000000
_cell_angle_gamma   67.01749644
_symmetry_Int_Tables_number   1
_chemical_formula_structural   Mg3Ag
_chemical_formula_sum   'Mg42 Ag14'
_cell_volume   1947.17441558
_cell_formula_units_Z   14
loop_
 _symmetry_equiv_pos_site_id
 _symmetry_equiv_pos_as_xyz
  1  'x, y, z'
loop_
 _atom_site_type_symbol
 _atom_site_label
 _atom_site_symmetry_multiplicity
 _atom_site_fract_x
 _atom_site_fract_y
 _atom_site_fract_z
 _atom_site_occupancy
  Mg  Mg0  1  0.14795500  0.70409100  0.21598500  1
  Mg  Mg1  1  0.51340800  0.46045500  0.25659100  1
  Mg  Mg2  1  0.02613700  0.46045500  0.25659100  1
  Mg  Mg3  1  0.72386300  0.03954500  0.24340900  1
  Mg  Mg4  1  0.23659200  0.03954500  0.24340900  1
  Mg  Mg5  1  0.60204500  0.79590900  0.28401500  1
  Mg  Mg6  1  0.89795500  0.20409100  0.29931800  1
  Mg  Mg7  1  0.26340800  0.96045500  0.33992400  1
  Mg  Mg8  1  0.77613700  0.96045500  0.33992400  1
  Mg  Mg9  1  0.47386300  0.53954500  0.32674200  1
  Mg  Mg10  1  0.98659200  0.53954500  0.32674200  1
  Mg  Mg11  1  0.35204500  0.29590900  0.36734800  1
  Mg  Mg12  1  0.64795500  0.70409100  0.38265200  1
  Mg  Mg13  1  0.01340800  0.46045500  0.42325800  1
  Mg  Mg14  1  0.52613700  0.46045500  0.42325800  1
  Mg  Mg15  1  0.22386300  0.03954500  0.41007600  1
  Mg  Mg16  1  0.73659200  0.03954500  0.41007600  1
  Mg  Mg17  1  0.10204500  0.79590900  0.45068200  1
  Mg  Mg18  1  0.39795500  0.20409100  0.46598500  1
  Mg  Mg19  1  0.76340800  0.96045500  0.50659100  1
  Mg  Mg20  1  0.27613700  0.96045500  0.50659100  1
  Mg  Mg21  1  0.97386300  0.53954500  0.49340900  1
  Mg  Mg22  1  0.48659200  0.53954500  0.49340900  1
  Mg  Mg23  1  0.85204500  0.29590900  0.53401500  1
  Mg  Mg24  1  0.14795500  0.70409100  0.54931800  1
  Mg  Mg25  1  0.51340800  0.46045500  0.58992400  1
  Mg  Mg26  1  0.02613700  0.46045500  0.58992400  1
  Mg  Mg27  1  0.72386300  0.03954500  0.57674200  1
  Mg  Mg28  1  0.23659200  0.03954500  0.57674200  1
  Mg  Mg29  1  0.60204500  0.79590900  0.61734800  1
  Mg  Mg30  1  0.89795500  0.20409100  0.63265200  1
  Mg  Mg31  1  0.26340800  0.96045500  0.67325800  1
  Mg  Mg32  1  0.77613700  0.96045500  0.67325800  1
  Mg  Mg33  1  0.47386300  0.53954500  0.66007600  1
  Mg  Mg34  1  0.98659200  0.53954500  0.66007600  1
  Mg  Mg35  1  0.35204500  0.29590900  0.70068200  1
  Mg  Mg36  1  0.64795500  0.70409100  0.71598500  1
  Mg  Mg37  1  0.01340800  0.46045500  0.75659100  1
  Mg  Mg38  1  0.52613700  0.46045500  0.75659100  1
  Mg  Mg39  1  0.22386300  0.03954500  0.74340900  1
  Mg  Mg40  1  0.73659200  0.03954500  0.74340900  1
  Mg  Mg41  1  0.10204500  0.79590900  0.78401500  1
  Ag  Ag42  1  0.64583300  0.70833300  0.21527800  1
  Ag  Ag43  1  0.10416700  0.79166700  0.28472200  1
  Ag  Ag44  1  0.39583300  0.20833300  0.29861100  1
  Ag  Ag45  1  0.85416700  0.29166700  0.36805600  1
  Ag  Ag46  1  0.14583300  0.70833300  0.38194400  1
  Ag  Ag47  1  0.60416700  0.79166700  0.45138900  1
  Ag  Ag48  1  0.89583300  0.20833300  0.46527800  1
  Ag  Ag49  1  0.35416700  0.29166700  0.53472200  1
  Ag  Ag50  1  0.64583300  0.70833300  0.54861100  1
  Ag  Ag51  1  0.10416700  0.79166700  0.61805600  1
  Ag  Ag52  1  0.39583300  0.20833300  0.63194400  1
  Ag  Ag53  1  0.85416700  0.29166700  0.70138900  1
  Ag  Ag54  1  0.14583300  0.70833300  0.71527800  1
  Ag  Ag55  1  0.60416700  0.79166700  0.78472200  1
