# generated using pymatgen
data_Mg14Zn75
_symmetry_space_group_name_H-M   'P 1'
_cell_length_a   8.56229400
_cell_length_b   12.10891200
_cell_length_c   48.43564800
_cell_angle_alpha   90.00000000
_cell_angle_beta   90.00000000
_cell_angle_gamma   90.00000000
_symmetry_Int_Tables_number   1
_chemical_formula_structural   Mg14Zn75
_chemical_formula_sum   'Mg28 Zn150'
_cell_volume   5021.81111185
_cell_formula_units_Z   2
loop_
 _symmetry_equiv_pos_site_id
 _symmetry_equiv_pos_as_xyz
  1  'x, y, z'
loop_
 _atom_site_type_symbol
 _atom_site_label
 _atom_site_symmetry_multiplicity
 _atom_site_fract_x
 _atom_site_fract_y
 _atom_site_fract_z
 _atom_site_occupancy
  Mg  Mg0  1  0.50000000  0.75723100  0.24743800  1
  Mg  Mg1  1  0.00000000  0.20468000  0.30993800  1
  Mg  Mg2  1  0.69744900  0.35595500  0.22275600  1
  Mg  Mg3  1  0.00000000  0.00723100  0.26057500  1
  Mg  Mg4  1  0.30255100  0.35595500  0.22275600  1
  Mg  Mg5  1  0.50000000  0.95468000  0.19807500  1
  Mg  Mg6  1  0.50000000  0.25723100  0.37243800  1
  Mg  Mg7  1  0.00000000  0.70468000  0.43493800  1
  Mg  Mg8  1  0.69744900  0.85595500  0.34775600  1
  Mg  Mg9  1  0.00000000  0.50723100  0.38557500  1
  Mg  Mg10  1  0.30255100  0.85595500  0.34775600  1
  Mg  Mg11  1  0.50000000  0.45468000  0.32307500  1
  Mg  Mg12  1  0.50000000  0.75723100  0.49743800  1
  Mg  Mg13  1  0.00000000  0.20468000  0.55993800  1
  Mg  Mg14  1  0.69744900  0.35595500  0.47275600  1
  Mg  Mg15  1  0.00000000  0.00723100  0.51057500  1
  Mg  Mg16  1  0.30255100  0.35595500  0.47275600  1
  Mg  Mg17  1  0.50000000  0.95468000  0.44807500  1
  Mg  Mg18  1  0.50000000  0.25723100  0.62243800  1
  Mg  Mg19  1  0.00000000  0.70468000  0.68493800  1
  Mg  Mg20  1  0.69744900  0.85595500  0.59775600  1
  Mg  Mg21  1  0.00000000  0.50723100  0.63557500  1
  Mg  Mg22  1  0.30255100  0.85595500  0.59775600  1
  Mg  Mg23  1  0.50000000  0.45468000  0.57307500  1
  Mg  Mg24  1  0.50000000  0.75723100  0.74743800  1
  Mg  Mg25  1  0.69744900  0.35595500  0.72275600  1
  Mg  Mg26  1  0.30255100  0.35595500  0.72275600  1
  Mg  Mg27  1  0.50000000  0.95468000  0.69807500  1
  Zn  Zn28  1  0.50000000  0.10595500  0.28525600  1
  Zn  Zn29  1  0.00000000  0.71914200  0.25696000  1
  Zn  Zn30  1  0.00000000  0.49276900  0.25696000  1
  Zn  Zn31  1  0.77362700  0.60595500  0.28525600  1
  Zn  Zn32  1  0.00000000  0.21914200  0.18855300  1
  Zn  Zn33  1  0.22637300  0.60595500  0.28525600  1
  Zn  Zn34  1  0.00000000  0.99276900  0.18855300  1
  Zn  Zn35  1  0.00000000  0.43476500  0.20305400  1
  Zn  Zn36  1  0.50000000  0.52714600  0.26555400  1
  Zn  Zn37  1  0.84238000  0.85595500  0.22275600  1
  Zn  Zn38  1  0.50000000  0.68476500  0.30495900  1
  Zn  Zn39  1  0.15762000  0.85595500  0.22275600  1
  Zn  Zn40  1  0.00000000  0.27714600  0.24245900  1
  Zn  Zn41  1  0.78094500  0.60595500  0.23049300  1
  Zn  Zn42  1  0.78094500  0.10595500  0.21502000  1
  Zn  Zn43  1  0.21905500  0.82501100  0.28525600  1
  Zn  Zn44  1  0.21905500  0.38690000  0.28525600  1
  Zn  Zn45  1  0.21905500  0.10595500  0.21502000  1
  Zn  Zn46  1  0.21905500  0.60595500  0.23049300  1
  Zn  Zn47  1  0.78094500  0.38690000  0.28525600  1
  Zn  Zn48  1  0.78094500  0.82501100  0.28525600  1
  Zn  Zn49  1  0.65815800  0.73976000  0.19370800  1
  Zn  Zn50  1  0.76760900  0.02687700  0.30502600  1
  Zn  Zn51  1  0.50000000  0.55123000  0.21347700  1
  Zn  Zn52  1  0.50000000  0.16068100  0.23203600  1
  Zn  Zn53  1  0.23239100  0.02687700  0.30502600  1
  Zn  Zn54  1  0.50000000  0.31883900  0.27157500  1
  Zn  Zn55  1  0.76760900  0.18503400  0.26548700  1
  Zn  Zn56  1  0.23239100  0.18503400  0.26548700  1
  Zn  Zn57  1  0.50000000  0.89307200  0.29893800  1
  Zn  Zn58  1  0.34184200  0.97215100  0.25180500  1
  Zn  Zn59  1  0.34184200  0.73976000  0.19370800  1
  Zn  Zn60  1  0.65815800  0.97215100  0.25180500  1
  Zn  Zn61  1  0.50000000  0.60595500  0.41025600  1
  Zn  Zn62  1  0.00000000  0.21914200  0.38196000  1
  Zn  Zn63  1  0.00000000  0.99276900  0.38196000  1
  Zn  Zn64  1  0.77362700  0.10595500  0.41025600  1
  Zn  Zn65  1  0.00000000  0.71914200  0.31355300  1
  Zn  Zn66  1  0.22637300  0.10595500  0.41025600  1
  Zn  Zn67  1  0.00000000  0.49276900  0.31355300  1
  Zn  Zn68  1  0.00000000  0.93476500  0.32805400  1
  Zn  Zn69  1  0.50000000  0.02714600  0.39055400  1
  Zn  Zn70  1  0.84238000  0.35595500  0.34775600  1
  Zn  Zn71  1  0.50000000  0.18476500  0.42995900  1
  Zn  Zn72  1  0.15762000  0.35595500  0.34775600  1
  Zn  Zn73  1  0.00000000  0.77714600  0.36745900  1
  Zn  Zn74  1  0.78094500  0.10595500  0.35549300  1
  Zn  Zn75  1  0.78094500  0.60595500  0.34002000  1
  Zn  Zn76  1  0.21905500  0.32501100  0.41025600  1
  Zn  Zn77  1  0.21905500  0.88690000  0.41025600  1
  Zn  Zn78  1  0.21905500  0.60595500  0.34002000  1
  Zn  Zn79  1  0.21905500  0.10595500  0.35549300  1
  Zn  Zn80  1  0.78094500  0.88690000  0.41025600  1
  Zn  Zn81  1  0.78094500  0.32501100  0.41025600  1
  Zn  Zn82  1  0.65815800  0.23976000  0.31870800  1
  Zn  Zn83  1  0.76760900  0.52687700  0.43002600  1
  Zn  Zn84  1  0.50000000  0.05123000  0.33847700  1
  Zn  Zn85  1  0.50000000  0.66068100  0.35703600  1
  Zn  Zn86  1  0.23239100  0.52687700  0.43002600  1
  Zn  Zn87  1  0.50000000  0.81883900  0.39657500  1
  Zn  Zn88  1  0.76760900  0.68503400  0.39048700  1
  Zn  Zn89  1  0.23239100  0.68503400  0.39048700  1
  Zn  Zn90  1  0.50000000  0.39307200  0.42393800  1
  Zn  Zn91  1  0.34184200  0.47215100  0.37680500  1
  Zn  Zn92  1  0.34184200  0.23976000  0.31870800  1
  Zn  Zn93  1  0.65815800  0.47215100  0.37680500  1
  Zn  Zn94  1  0.50000000  0.10595500  0.53525600  1
  Zn  Zn95  1  0.00000000  0.71914200  0.50696000  1
  Zn  Zn96  1  0.00000000  0.49276900  0.50696000  1
  Zn  Zn97  1  0.77362700  0.60595500  0.53525600  1
  Zn  Zn98  1  0.00000000  0.21914200  0.43855300  1
  Zn  Zn99  1  0.22637300  0.60595500  0.53525600  1
  Zn  Zn100  1  0.00000000  0.99276900  0.43855300  1
  Zn  Zn101  1  0.00000000  0.43476500  0.45305400  1
  Zn  Zn102  1  0.50000000  0.52714600  0.51555400  1
  Zn  Zn103  1  0.84238000  0.85595500  0.47275600  1
  Zn  Zn104  1  0.50000000  0.68476500  0.55495900  1
  Zn  Zn105  1  0.15762000  0.85595500  0.47275600  1
  Zn  Zn106  1  0.00000000  0.27714600  0.49245900  1
  Zn  Zn107  1  0.78094500  0.60595500  0.48049300  1
  Zn  Zn108  1  0.78094500  0.10595500  0.46502000  1
  Zn  Zn109  1  0.21905500  0.82501100  0.53525600  1
  Zn  Zn110  1  0.21905500  0.38690000  0.53525600  1
  Zn  Zn111  1  0.21905500  0.10595500  0.46502000  1
  Zn  Zn112  1  0.21905500  0.60595500  0.48049300  1
  Zn  Zn113  1  0.78094500  0.38690000  0.53525600  1
  Zn  Zn114  1  0.78094500  0.82501100  0.53525600  1
  Zn  Zn115  1  0.65815800  0.73976000  0.44370800  1
  Zn  Zn116  1  0.76760900  0.02687700  0.55502600  1
  Zn  Zn117  1  0.50000000  0.55123000  0.46347700  1
  Zn  Zn118  1  0.50000000  0.16068100  0.48203600  1
  Zn  Zn119  1  0.23239100  0.02687700  0.55502600  1
  Zn  Zn120  1  0.50000000  0.31883900  0.52157500  1
  Zn  Zn121  1  0.76760900  0.18503400  0.51548700  1
  Zn  Zn122  1  0.23239100  0.18503400  0.51548700  1
  Zn  Zn123  1  0.50000000  0.89307200  0.54893800  1
  Zn  Zn124  1  0.34184200  0.97215100  0.50180500  1
  Zn  Zn125  1  0.34184200  0.73976000  0.44370800  1
  Zn  Zn126  1  0.65815800  0.97215100  0.50180500  1
  Zn  Zn127  1  0.50000000  0.60595500  0.66025600  1
  Zn  Zn128  1  0.00000000  0.21914200  0.63196000  1
  Zn  Zn129  1  0.00000000  0.99276900  0.63196000  1
  Zn  Zn130  1  0.77362700  0.10595500  0.66025600  1
  Zn  Zn131  1  0.00000000  0.71914200  0.56355300  1
  Zn  Zn132  1  0.22637300  0.10595500  0.66025600  1
  Zn  Zn133  1  0.00000000  0.49276900  0.56355300  1
  Zn  Zn134  1  0.00000000  0.93476500  0.57805400  1
  Zn  Zn135  1  0.50000000  0.02714600  0.64055400  1
  Zn  Zn136  1  0.84238000  0.35595500  0.59775600  1
  Zn  Zn137  1  0.50000000  0.18476500  0.67995900  1
  Zn  Zn138  1  0.15762000  0.35595500  0.59775600  1
  Zn  Zn139  1  0.00000000  0.77714600  0.61745900  1
  Zn  Zn140  1  0.78094500  0.10595500  0.60549300  1
  Zn  Zn141  1  0.78094500  0.60595500  0.59002000  1
  Zn  Zn142  1  0.21905500  0.32501100  0.66025600  1
  Zn  Zn143  1  0.21905500  0.88690000  0.66025600  1
  Zn  Zn144  1  0.21905500  0.60595500  0.59002000  1
  Zn  Zn145  1  0.21905500  0.10595500  0.60549300  1
  Zn  Zn146  1  0.78094500  0.88690000  0.66025600  1
  Zn  Zn147  1  0.78094500  0.32501100  0.66025600  1
  Zn  Zn148  1  0.65815800  0.23976000  0.56870800  1
  Zn  Zn149  1  0.76760900  0.52687700  0.68002600  1
  Zn  Zn150  1  0.50000000  0.05123000  0.58847700  1
  Zn  Zn151  1  0.50000000  0.66068100  0.60703600  1
  Zn  Zn152  1  0.23239100  0.52687700  0.68002600  1
  Zn  Zn153  1  0.50000000  0.81883900  0.64657500  1
  Zn  Zn154  1  0.76760900  0.68503400  0.64048700  1
  Zn  Zn155  1  0.23239100  0.68503400  0.64048700  1
  Zn  Zn156  1  0.50000000  0.39307200  0.67393800  1
  Zn  Zn157  1  0.34184200  0.47215100  0.62680500  1
  Zn  Zn158  1  0.34184200  0.23976000  0.56870800  1
  Zn  Zn159  1  0.65815800  0.47215100  0.62680500  1
  Zn  Zn160  1  0.00000000  0.71914200  0.75696000  1
  Zn  Zn161  1  0.00000000  0.49276900  0.75696000  1
  Zn  Zn162  1  1.00000000  0.21914200  0.68855300  1
  Zn  Zn163  1  0.00000000  0.99276900  0.68855300  1
  Zn  Zn164  1  0.00000000  0.43476500  0.70305400  1
  Zn  Zn165  1  0.84238000  0.85595500  0.72275600  1
  Zn  Zn166  1  0.15762000  0.85595500  0.72275600  1
  Zn  Zn167  1  0.00000000  0.27714600  0.74245900  1
  Zn  Zn168  1  0.78094500  0.60595500  0.73049300  1
  Zn  Zn169  1  0.78094500  0.10595500  0.71502000  1
  Zn  Zn170  1  0.21905500  0.10595500  0.71502000  1
  Zn  Zn171  1  0.21905500  0.60595500  0.73049300  1
  Zn  Zn172  1  0.65815800  0.73976000  0.69370800  1
  Zn  Zn173  1  0.50000000  0.55123000  0.71347700  1
  Zn  Zn174  1  0.50000000  0.16068100  0.73203600  1
  Zn  Zn175  1  0.34184200  0.97215100  0.75180500  1
  Zn  Zn176  1  0.34184200  0.73976000  0.69370800  1
  Zn  Zn177  1  0.65815800  0.97215100  0.75180500  1
