# generated using pymatgen
data_Mg13Zn66
_symmetry_space_group_name_H-M   'P 1'
_cell_length_a   9.87228519
_cell_length_b   10.62299195
_cell_length_c   43.15075500
_cell_angle_alpha   89.35999186
_cell_angle_beta   85.66423111
_cell_angle_gamma   73.25856991
_symmetry_Int_Tables_number   1
_chemical_formula_structural   Mg13Zn66
_chemical_formula_sum   'Mg26 Zn132'
_cell_volume   4320.87959756
_cell_formula_units_Z   2
loop_
 _symmetry_equiv_pos_site_id
 _symmetry_equiv_pos_as_xyz
  1  'x, y, z'
loop_
 _atom_site_type_symbol
 _atom_site_label
 _atom_site_symmetry_multiplicity
 _atom_site_fract_x
 _atom_site_fract_y
 _atom_site_fract_z
 _atom_site_occupancy
  Mg  Mg0  1  0.72691200  0.12414400  0.26229400  1
  Mg  Mg1  1  0.57194100  0.42757700  0.24528200  1
  Mg  Mg2  1  0.04198900  0.04681300  0.22874100  1
  Mg  Mg3  1  0.07504600  0.77763500  0.18792600  1
  Mg  Mg4  1  0.90873000  0.85141600  0.35320300  1
  Mg  Mg5  1  0.75375900  0.15484900  0.33619100  1
  Mg  Mg6  1  0.22380700  0.77408500  0.31965000  1
  Mg  Mg7  1  0.25686400  0.50490800  0.27883500  1
  Mg  Mg8  1  0.09054900  0.57868900  0.44411200  1
  Mg  Mg9  1  0.93557700  0.88212200  0.42710000  1
  Mg  Mg10  1  0.40562500  0.50135800  0.41055900  1
  Mg  Mg11  1  0.43868200  0.23218000  0.36974400  1
  Mg  Mg12  1  0.27236700  0.30596200  0.53502100  1
  Mg  Mg13  1  0.11739500  0.60939500  0.51800900  1
  Mg  Mg14  1  0.58744300  0.22863100  0.50146800  1
  Mg  Mg15  1  0.62050100  0.95945300  0.46065300  1
  Mg  Mg16  1  0.45418500  0.03323500  0.62593000  1
  Mg  Mg17  1  0.29921400  0.33666800  0.60891800  1
  Mg  Mg18  1  0.76926200  0.95590400  0.59237700  1
  Mg  Mg19  1  0.80231900  0.68672600  0.55156200  1
  Mg  Mg20  1  0.63600300  0.76050700  0.71683900  1
  Mg  Mg21  1  0.48103200  0.06394000  0.69982800  1
  Mg  Mg22  1  0.95108000  0.68317600  0.68328600  1
  Mg  Mg23  1  0.98413700  0.41399900  0.64247100  1
  Mg  Mg24  1  0.13289800  0.41044900  0.77419500  1
  Mg  Mg25  1  0.16595500  0.14127100  0.73338000  1
  Zn  Zn26  1  0.14942700  0.27586000  0.25378800  1
  Zn  Zn27  1  0.08499900  0.28537400  0.18832000  1
  Zn  Zn28  1  0.55528300  0.93013900  0.24683800  1
  Zn  Zn29  1  0.32908700  0.60395500  0.21639700  1
  Zn  Zn30  1  0.78794800  0.22049200  0.20027000  1
  Zn  Zn31  1  0.78494900  0.96266900  0.19974500  1
  Zn  Zn32  1  0.88241300  0.32754900  0.24412200  1
  Zn  Zn33  1  0.03203600  0.53907300  0.22834600  1
  Zn  Zn34  1  0.55278800  0.15543100  0.20777200  1
  Zn  Zn35  1  0.32449200  0.36209300  0.21748000  1
  Zn  Zn36  1  0.79254300  0.46235500  0.19918700  1
  Zn  Zn37  1  0.41644000  0.22417100  0.26345400  1
  Zn  Zn38  1  0.42395900  0.72396900  0.26285800  1
  Zn  Zn39  1  0.74357000  0.62158200  0.26073800  1
  Zn  Zn40  1  0.87489400  0.82775100  0.24471700  1
  Zn  Zn41  1  0.33208600  0.86177900  0.21692200  1
  Zn  Zn42  1  0.14942700  0.77586000  0.25378800  1
  Zn  Zn43  1  0.80091700  0.71908300  0.19914200  1
  Zn  Zn44  1  0.31611800  0.10536400  0.21752500  1
  Zn  Zn45  1  0.56424700  0.66901700  0.20889400  1
  Zn  Zn46  1  0.33124500  0.00313300  0.34469700  1
  Zn  Zn47  1  0.26681700  0.01264700  0.27923000  1
  Zn  Zn48  1  0.73710100  0.65741100  0.33774700  1
  Zn  Zn49  1  0.51090500  0.33122800  0.30730600  1
  Zn  Zn50  1  0.96976600  0.94776500  0.29117900  1
  Zn  Zn51  1  0.96676700  0.68994200  0.29065400  1
  Zn  Zn52  1  0.06423100  0.05482200  0.33503100  1
  Zn  Zn53  1  0.21385400  0.26634600  0.31925500  1
  Zn  Zn54  1  0.73460600  0.88270400  0.29868100  1
  Zn  Zn55  1  0.50631100  0.08936500  0.30838900  1
  Zn  Zn56  1  0.97436100  0.18962800  0.29009600  1
  Zn  Zn57  1  0.59825800  0.95144400  0.35436300  1
  Zn  Zn58  1  0.60577700  0.45124200  0.35376700  1
  Zn  Zn59  1  0.92538800  0.34885400  0.35164700  1
  Zn  Zn60  1  0.05671200  0.55502400  0.33562600  1
  Zn  Zn61  1  0.51390400  0.58905200  0.30783100  1
  Zn  Zn62  1  0.33124500  0.50313300  0.34469700  1
  Zn  Zn63  1  0.98273500  0.44635600  0.29005100  1
  Zn  Zn64  1  0.49793600  0.83263700  0.30843400  1
  Zn  Zn65  1  0.74606500  0.39628900  0.29980400  1
  Zn  Zn66  1  0.51306300  0.73040600  0.43560600  1
  Zn  Zn67  1  0.44863500  0.73992000  0.37013900  1
  Zn  Zn68  1  0.91892000  0.38468400  0.42865600  1
  Zn  Zn69  1  0.69272400  0.05850100  0.39821500  1
  Zn  Zn70  1  0.15158400  0.67503800  0.38208800  1
  Zn  Zn71  1  0.14858500  0.41721400  0.38156300  1
  Zn  Zn72  1  0.24605000  0.78209500  0.42594000  1
  Zn  Zn73  1  0.39567200  0.99361900  0.41016400  1
  Zn  Zn74  1  0.91642400  0.60997600  0.38959000  1
  Zn  Zn75  1  0.68812900  0.81663800  0.39929800  1
  Zn  Zn76  1  0.15617900  0.91690000  0.38100500  1
  Zn  Zn77  1  0.78007600  0.67871700  0.44527200  1
  Zn  Zn78  1  0.78759600  0.17851500  0.44467700  1
  Zn  Zn79  1  0.10720600  0.07612700  0.44255600  1
  Zn  Zn80  1  0.23853000  0.28229600  0.42653600  1
  Zn  Zn81  1  0.69572300  0.31632400  0.39874000  1
  Zn  Zn82  1  0.51306300  0.23040600  0.43560600  1
  Zn  Zn83  1  0.16455300  0.17362900  0.38096000  1
  Zn  Zn84  1  0.67975400  0.55991000  0.39934300  1
  Zn  Zn85  1  0.92788300  0.12356200  0.39071300  1
  Zn  Zn86  1  0.69488100  0.45767800  0.52651500  1
  Zn  Zn87  1  0.63045400  0.46719300  0.46104800  1
  Zn  Zn88  1  0.10073800  0.11195700  0.51956500  1
  Zn  Zn89  1  0.87454200  0.78577300  0.48912400  1
  Zn  Zn90  1  0.33340200  0.40231100  0.47299700  1
  Zn  Zn91  1  0.33040300  0.14448700  0.47247200  1
  Zn  Zn92  1  0.42786800  0.50936700  0.51684900  1
  Zn  Zn93  1  0.57749000  0.72089100  0.50107300  1
  Zn  Zn94  1  0.09824200  0.33724900  0.48049900  1
  Zn  Zn95  1  0.86994700  0.54391100  0.49020700  1
  Zn  Zn96  1  0.33799700  0.64417300  0.47191400  1
  Zn  Zn97  1  0.96189400  0.40598900  0.53618100  1
  Zn  Zn98  1  0.96941400  0.90578800  0.53558600  1
  Zn  Zn99  1  0.28902400  0.80340000  0.53346500  1
  Zn  Zn100  1  0.42034800  0.00956900  0.51744500  1
  Zn  Zn101  1  0.87754100  0.04359700  0.48964900  1
  Zn  Zn102  1  0.69488100  0.95767800  0.52651500  1
  Zn  Zn103  1  0.34637100  0.90090200  0.47186900  1
  Zn  Zn104  1  0.86157300  0.28718200  0.49025200  1
  Zn  Zn105  1  0.10970200  0.85083500  0.48162200  1
  Zn  Zn106  1  0.87669900  0.18495100  0.61742400  1
  Zn  Zn107  1  0.81227200  0.19446500  0.55195700  1
  Zn  Zn108  1  0.28255600  0.83923000  0.61047400  1
  Zn  Zn109  1  0.05636000  0.51304600  0.58003300  1
  Zn  Zn110  1  0.51522000  0.12958300  0.56390600  1
  Zn  Zn111  1  0.51222100  0.87176000  0.56338100  1
  Zn  Zn112  1  0.60968600  0.23664000  0.60775800  1
  Zn  Zn113  1  0.75930900  0.44816400  0.59198300  1
  Zn  Zn114  1  0.28006100  0.06452200  0.57140900  1
  Zn  Zn115  1  0.05176500  0.27118400  0.58111600  1
  Zn  Zn116  1  0.51981500  0.37144600  0.56282300  1
  Zn  Zn117  1  0.14371300  0.13326200  0.62709000  1
  Zn  Zn118  1  0.15123200  0.63306000  0.62649500  1
  Zn  Zn119  1  0.47084300  0.53067200  0.62437400  1
  Zn  Zn120  1  0.60216700  0.73684200  0.60835400  1
  Zn  Zn121  1  0.05935900  0.77087000  0.58055800  1
  Zn  Zn122  1  0.87669900  0.68495100  0.61742400  1
  Zn  Zn123  1  0.52819000  0.62817400  0.56277800  1
  Zn  Zn124  1  0.04339100  0.01445500  0.58116100  1
  Zn  Zn125  1  0.29152000  0.57810800  0.57253100  1
  Zn  Zn126  1  0.05851700  0.91222400  0.70833300  1
  Zn  Zn127  1  0.99409000  0.92173800  0.64286600  1
  Zn  Zn128  1  0.46437400  0.56650200  0.70138300  1
  Zn  Zn129  1  0.23817800  0.24031900  0.67094300  1
  Zn  Zn130  1  0.69703900  0.85685600  0.65481500  1
  Zn  Zn131  1  0.69404000  0.59903200  0.65429000  1
  Zn  Zn132  1  0.79150400  0.96391300  0.69866800  1
  Zn  Zn133  1  0.94112700  0.17543700  0.68289200  1
  Zn  Zn134  1  0.46187900  0.79179500  0.66231800  1
  Zn  Zn135  1  0.23358300  0.99845600  0.67202500  1
  Zn  Zn136  1  0.70163400  0.09871900  0.65373200  1
  Zn  Zn137  1  0.32553100  0.86053500  0.71799900  1
  Zn  Zn138  1  0.33305000  0.36033300  0.71740400  1
  Zn  Zn139  1  0.65266100  0.25794500  0.71528300  1
  Zn  Zn140  1  0.78398500  0.46411500  0.69926300  1
  Zn  Zn141  1  0.24117700  0.49814200  0.67146700  1
  Zn  Zn142  1  0.05851700  0.41222400  0.70833300  1
  Zn  Zn143  1  0.71000800  0.35544700  0.65368700  1
  Zn  Zn144  1  0.22520900  0.74172800  0.67207000  1
  Zn  Zn145  1  0.47333800  0.30538000  0.66344000  1
  Zn  Zn146  1  0.17590800  0.64901100  0.73377500  1
  Zn  Zn147  1  0.41999600  0.96759200  0.76185200  1
  Zn  Zn148  1  0.87885700  0.58412900  0.74572400  1
  Zn  Zn149  1  0.87585800  0.32630500  0.74519900  1
  Zn  Zn150  1  0.12294500  0.90270900  0.77380100  1
  Zn  Zn151  1  0.64369700  0.51906700  0.75322700  1
  Zn  Zn152  1  0.41540100  0.72572900  0.76293400  1
  Zn  Zn153  1  0.88345200  0.82599100  0.74464100  1
  Zn  Zn154  1  0.42299500  0.22541500  0.76237600  1
  Zn  Zn155  1  0.89182600  0.08272000  0.74459600  1
  Zn  Zn156  1  0.40702700  0.46900100  0.76297900  1
  Zn  Zn157  1  0.65515600  0.03265300  0.75434900  1
