# generated using pymatgen
data_Mg4B15
_symmetry_space_group_name_H-M   'P 1'
_cell_length_a   4.39738600
_cell_length_b   5.48489200
_cell_length_c   51.99078400
_cell_angle_alpha   90.00000000
_cell_angle_beta   90.00000000
_cell_angle_gamma   90.00000000
_symmetry_Int_Tables_number   1
_chemical_formula_structural   Mg4B15
_chemical_formula_sum   'Mg16 B60'
_cell_volume   1253.97545677
_cell_formula_units_Z   4
loop_
 _symmetry_equiv_pos_site_id
 _symmetry_equiv_pos_as_xyz
  1  'x, y, z'
loop_
 _atom_site_type_symbol
 _atom_site_label
 _atom_site_symmetry_multiplicity
 _atom_site_fract_x
 _atom_site_fract_y
 _atom_site_fract_z
 _atom_site_occupancy
  Mg  Mg0  1  0.75000000  0.45432300  0.29111200  1
  Mg  Mg1  1  0.25000000  0.54567700  0.25174500  1
  Mg  Mg2  1  0.75000000  0.95432300  0.32317300  1
  Mg  Mg3  1  0.25000000  0.04567700  0.21968400  1
  Mg  Mg4  1  0.75000000  0.45432300  0.43396900  1
  Mg  Mg5  1  0.25000000  0.54567700  0.39460200  1
  Mg  Mg6  1  0.75000000  0.95432300  0.46603100  1
  Mg  Mg7  1  0.25000000  0.04567700  0.36254100  1
  Mg  Mg8  1  0.75000000  0.45432300  0.57682700  1
  Mg  Mg9  1  0.25000000  0.54567700  0.53745900  1
  Mg  Mg10  1  0.75000000  0.95432300  0.60888800  1
  Mg  Mg11  1  0.25000000  0.04567700  0.50539800  1
  Mg  Mg12  1  0.75000000  0.45432300  0.71968400  1
  Mg  Mg13  1  0.25000000  0.54567700  0.68031600  1
  Mg  Mg14  1  0.75000000  0.95432300  0.75174500  1
  Mg  Mg15  1  0.25000000  0.04567700  0.64825500  1
  B  B16  1  0.75000000  0.77761600  0.22195600  1
  B  B17  1  0.25000000  0.22238400  0.32090200  1
  B  B18  1  0.75000000  0.27761600  0.24947300  1
  B  B19  1  0.25000000  0.72238400  0.29338400  1
  B  B20  1  0.75000000  0.94662700  0.25043700  1
  B  B21  1  0.25000000  0.05337300  0.29242000  1
  B  B22  1  0.75000000  0.44662700  0.22099200  1
  B  B23  1  0.25000000  0.55337300  0.32186600  1
  B  B24  1  0.94199500  0.36767100  0.33382600  1
  B  B25  1  0.44199500  0.63232900  0.35188900  1
  B  B26  1  0.55800500  0.86767100  0.28046000  1
  B  B27  1  0.05800500  0.13232900  0.26239700  1
  B  B28  1  0.05800500  0.63232900  0.35188900  1
  B  B29  1  0.55800500  0.36767100  0.33382600  1
  B  B30  1  0.44199500  0.13232900  0.26239700  1
  B  B31  1  0.94199500  0.86767100  0.28046000  1
  B  B32  1  0.75000000  0.77761600  0.36481300  1
  B  B33  1  0.25000000  0.22238400  0.46375900  1
  B  B34  1  0.75000000  0.27761600  0.39233000  1
  B  B35  1  0.25000000  0.72238400  0.43624100  1
  B  B36  1  0.75000000  0.94662700  0.39329400  1
  B  B37  1  0.25000000  0.05337300  0.43527700  1
  B  B38  1  0.75000000  0.44662700  0.36384900  1
  B  B39  1  0.25000000  0.55337300  0.46472300  1
  B  B40  1  0.94199500  0.36767100  0.47668300  1
  B  B41  1  0.44199500  0.63232900  0.49474600  1
  B  B42  1  0.55800500  0.86767100  0.42331700  1
  B  B43  1  0.05800500  0.13232900  0.40525400  1
  B  B44  1  0.05800500  0.63232900  0.49474600  1
  B  B45  1  0.55800500  0.36767100  0.47668300  1
  B  B46  1  0.44199500  0.13232900  0.40525400  1
  B  B47  1  0.94199500  0.86767100  0.42331700  1
  B  B48  1  0.75000000  0.77761600  0.50767000  1
  B  B49  1  0.25000000  0.22238400  0.60661600  1
  B  B50  1  0.75000000  0.27761600  0.53518700  1
  B  B51  1  0.25000000  0.72238400  0.57909800  1
  B  B52  1  0.75000000  0.94662700  0.53615100  1
  B  B53  1  0.25000000  0.05337300  0.57813400  1
  B  B54  1  0.75000000  0.44662700  0.50670600  1
  B  B55  1  0.25000000  0.55337300  0.60758000  1
  B  B56  1  0.94199500  0.36767100  0.61954000  1
  B  B57  1  0.44199500  0.63232900  0.63760300  1
  B  B58  1  0.55800500  0.86767100  0.56617400  1
  B  B59  1  0.05800500  0.13232900  0.54811100  1
  B  B60  1  0.05800500  0.63232900  0.63760300  1
  B  B61  1  0.55800500  0.36767100  0.61954000  1
  B  B62  1  0.44199500  0.13232900  0.54811100  1
  B  B63  1  0.94199500  0.86767100  0.56617400  1
  B  B64  1  0.75000000  0.77761600  0.65052700  1
  B  B65  1  0.25000000  0.22238400  0.74947300  1
  B  B66  1  0.75000000  0.27761600  0.67804400  1
  B  B67  1  0.25000000  0.72238400  0.72195600  1
  B  B68  1  0.75000000  0.94662700  0.67900800  1
  B  B69  1  0.25000000  0.05337300  0.72099200  1
  B  B70  1  0.75000000  0.44662700  0.64956300  1
  B  B71  1  0.25000000  0.55337300  0.75043700  1
  B  B72  1  0.55800500  0.86767100  0.70903100  1
  B  B73  1  0.05800500  0.13232900  0.69096900  1
  B  B74  1  0.44199500  0.13232900  0.69096900  1
  B  B75  1  0.94199500  0.86767100  0.70903100  1
