# generated using pymatgen
data_Mg138Zn241
_symmetry_space_group_name_H-M   'P 1'
_cell_length_a   15.05205963
_cell_length_b   15.58232832
_cell_length_c   44.40935000
_cell_angle_alpha   95.28205411
_cell_angle_beta   87.96000798
_cell_angle_gamma   92.33702888
_symmetry_Int_Tables_number   1
_chemical_formula_structural   Mg138Zn241
_chemical_formula_sum   'Mg138 Zn241'
_cell_volume   10357.87463183
_cell_formula_units_Z   1
loop_
 _symmetry_equiv_pos_site_id
 _symmetry_equiv_pos_as_xyz
  1  'x, y, z'
loop_
 _atom_site_type_symbol
 _atom_site_label
 _atom_site_symmetry_multiplicity
 _atom_site_fract_x
 _atom_site_fract_y
 _atom_site_fract_z
 _atom_site_occupancy
  Mg  Mg0  1  0.56909900  0.80986700  0.27000700  1
  Mg  Mg1  1  0.01719400  0.68740500  0.20607400  1
  Mg  Mg2  1  0.47754200  0.28619800  0.24617300  1
  Mg  Mg3  1  0.74841900  0.88869100  0.24778100  1
  Mg  Mg4  1  0.87472800  0.55485900  0.22735000  1
  Mg  Mg5  1  0.41758100  0.95096800  0.25713900  1
  Mg  Mg6  1  0.69656400  0.56555900  0.19104000  1
  Mg  Mg7  1  0.08254000  0.02678900  0.19684700  1
  Mg  Mg8  1  0.53301600  0.62101100  0.23522800  1
  Mg  Mg9  1  0.95623200  0.36062000  0.21727900  1
  Mg  Mg10  1  0.35341800  0.62928100  0.19845500  1
  Mg  Mg11  1  0.29794300  0.29446900  0.20940000  1
  Mg  Mg12  1  0.94241100  0.86931300  0.21565300  1
  Mg  Mg13  1  0.63819100  0.22946800  0.20175700  1
  Mg  Mg14  1  0.19276800  0.68601200  0.24287100  1
  Mg  Mg15  1  0.13439600  0.34992100  0.25358800  1
  Mg  Mg16  1  0.08004300  0.01470400  0.26553000  1
  Mg  Mg17  1  0.41337800  0.96451200  0.18748900  1
  Mg  Mg18  1  0.81376600  0.22807500  0.23855400  1
  Mg  Mg19  1  0.88854800  0.04616700  0.22897500  1
  Mg  Mg20  1  0.38728000  0.71895800  0.36091700  1
  Mg  Mg21  1  0.83537500  0.59649600  0.29698300  1
  Mg  Mg22  1  0.29572300  0.19528900  0.33708200  1
  Mg  Mg23  1  0.56660100  0.79778200  0.33869000  1
  Mg  Mg24  1  0.69291000  0.46395000  0.31825900  1
  Mg  Mg25  1  0.23576300  0.86005900  0.34804800  1
  Mg  Mg26  1  0.51474600  0.47465000  0.28194900  1
  Mg  Mg27  1  0.90072200  0.93588000  0.28775600  1
  Mg  Mg28  1  0.35119800  0.53010200  0.32613700  1
  Mg  Mg29  1  0.77441400  0.26971100  0.30818800  1
  Mg  Mg30  1  0.17160000  0.53837200  0.28936400  1
  Mg  Mg31  1  0.11612500  0.20356000  0.30031000  1
  Mg  Mg32  1  0.76059300  0.77840400  0.30656200  1
  Mg  Mg33  1  0.45637300  0.13855900  0.29266600  1
  Mg  Mg34  1  0.01095000  0.59510300  0.33378100  1
  Mg  Mg35  1  0.95257800  0.25901200  0.34449800  1
  Mg  Mg36  1  0.89822500  0.92379500  0.35643900  1
  Mg  Mg37  1  0.23156000  0.87360200  0.27839800  1
  Mg  Mg38  1  0.63194800  0.13716600  0.32946300  1
  Mg  Mg39  1  0.70673000  0.95525800  0.31988400  1
  Mg  Mg40  1  0.20546200  0.62804900  0.45182600  1
  Mg  Mg41  1  0.65355700  0.50558700  0.38789200  1
  Mg  Mg42  1  0.11390500  0.10438000  0.42799100  1
  Mg  Mg43  1  0.38478300  0.70687300  0.42959900  1
  Mg  Mg44  1  0.51109100  0.37304100  0.40916800  1
  Mg  Mg45  1  0.05394500  0.76915000  0.43895700  1
  Mg  Mg46  1  0.33292700  0.38374100  0.37285800  1
  Mg  Mg47  1  0.71890400  0.84497000  0.37866500  1
  Mg  Mg48  1  0.16938000  0.43919200  0.41704600  1
  Mg  Mg49  1  0.59259500  0.17880200  0.39909700  1
  Mg  Mg50  1  0.98978200  0.44746300  0.38027300  1
  Mg  Mg51  1  0.93430700  0.11265100  0.39121900  1
  Mg  Mg52  1  0.57877500  0.68749500  0.39747100  1
  Mg  Mg53  1  0.27455500  0.04765000  0.38357500  1
  Mg  Mg54  1  0.82913200  0.50419300  0.42469000  1
  Mg  Mg55  1  0.77075900  0.16810300  0.43540700  1
  Mg  Mg56  1  0.71640600  0.83288600  0.44734800  1
  Mg  Mg57  1  0.04974200  0.78269300  0.36930700  1
  Mg  Mg58  1  0.45013000  0.04625700  0.42037200  1
  Mg  Mg59  1  0.52491200  0.86434900  0.41079300  1
  Mg  Mg60  1  0.02364400  0.53714000  0.54273500  1
  Mg  Mg61  1  0.47173900  0.41467700  0.47880200  1
  Mg  Mg62  1  0.93208700  0.01347100  0.51890000  1
  Mg  Mg63  1  0.20296500  0.61596400  0.52050800  1
  Mg  Mg64  1  0.32927300  0.28213200  0.50007700  1
  Mg  Mg65  1  0.87212700  0.67824100  0.52986600  1
  Mg  Mg66  1  0.15110900  0.29283100  0.46376700  1
  Mg  Mg67  1  0.53708600  0.75406100  0.46957400  1
  Mg  Mg68  1  0.98756200  0.34828300  0.50795500  1
  Mg  Mg69  1  0.41077700  0.08789300  0.49000600  1
  Mg  Mg70  1  0.80796300  0.35655400  0.47118300  1
  Mg  Mg71  1  0.75248900  0.02174200  0.48212800  1
  Mg  Mg72  1  0.39695700  0.59658600  0.48838000  1
  Mg  Mg73  1  0.09273700  0.95674100  0.47448400  1
  Mg  Mg74  1  0.64731400  0.41328400  0.51559900  1
  Mg  Mg75  1  0.58894100  0.07719400  0.52631600  1
  Mg  Mg76  1  0.53458800  0.74197700  0.53825700  1
  Mg  Mg77  1  0.86792400  0.69178400  0.46021600  1
  Mg  Mg78  1  0.26831100  0.95534800  0.51128100  1
  Mg  Mg79  1  0.34309400  0.77344000  0.50170300  1
  Mg  Mg80  1  0.84182600  0.44623000  0.63364400  1
  Mg  Mg81  1  0.28992100  0.32376800  0.56971100  1
  Mg  Mg82  1  0.75026900  0.92256200  0.60980900  1
  Mg  Mg83  1  0.02114600  0.52505500  0.61141700  1
  Mg  Mg84  1  0.14745500  0.19122300  0.59098600  1
  Mg  Mg85  1  0.69030800  0.58733200  0.62077500  1
  Mg  Mg86  1  0.96929100  0.20192200  0.55467600  1
  Mg  Mg87  1  0.35526800  0.66315200  0.56048400  1
  Mg  Mg88  1  0.80574300  0.25737400  0.59886400  1
  Mg  Mg89  1  0.22895900  0.99698400  0.58091500  1
  Mg  Mg90  1  0.62614500  0.26564500  0.56209200  1
  Mg  Mg91  1  0.57067100  0.93083300  0.57303700  1
  Mg  Mg92  1  0.21513900  0.50567600  0.57928900  1
  Mg  Mg93  1  0.91091900  0.86583200  0.56539300  1
  Mg  Mg94  1  0.46549600  0.32237500  0.60650800  1
  Mg  Mg95  1  0.40712300  0.98628500  0.61722500  1
  Mg  Mg96  1  0.35277000  0.65106800  0.62916600  1
  Mg  Mg97  1  0.68610600  0.60087500  0.55112500  1
  Mg  Mg98  1  0.08649300  0.86443900  0.60219000  1
  Mg  Mg99  1  0.16127600  0.68253100  0.59261200  1
  Mg  Mg100  1  0.66000800  0.35532100  0.72455300  1
  Mg  Mg101  1  0.10810300  0.23285900  0.66062000  1
  Mg  Mg102  1  0.56845100  0.83165300  0.70071800  1
  Mg  Mg103  1  0.83932800  0.43414600  0.70232600  1
  Mg  Mg104  1  0.96563700  0.10031400  0.68189500  1
  Mg  Mg105  1  0.50849000  0.49642300  0.71168500  1
  Mg  Mg106  1  0.78747300  0.11101300  0.64558500  1
  Mg  Mg107  1  0.17345000  0.57224300  0.65139300  1
  Mg  Mg108  1  0.62392500  0.16646500  0.68977300  1
  Mg  Mg109  1  0.04714100  0.90607500  0.67182400  1
  Mg  Mg110  1  0.44432700  0.17473600  0.65300100  1
  Mg  Mg111  1  0.38885300  0.83992400  0.66394600  1
  Mg  Mg112  1  0.03332000  0.41476700  0.67019800  1
  Mg  Mg113  1  0.72910000  0.77492300  0.65630200  1
  Mg  Mg114  1  0.28367700  0.23146600  0.69741700  1
  Mg  Mg115  1  0.22530500  0.89537600  0.70813400  1
  Mg  Mg116  1  0.17095200  0.56015800  0.72007500  1
  Mg  Mg117  1  0.50428700  0.50996600  0.64203500  1
  Mg  Mg118  1  0.90467500  0.77353000  0.69309900  1
  Mg  Mg119  1  0.97945700  0.59162100  0.68352100  1
  Mg  Mg120  1  0.92628500  0.14195000  0.75152900  1
  Mg  Mg121  1  0.38663200  0.74074400  0.79162700  1
  Mg  Mg122  1  0.65751000  0.34323700  0.79323500  1
  Mg  Mg123  1  0.78381900  0.00940500  0.77280400  1
  Mg  Mg124  1  0.32667200  0.40551400  0.80259400  1
  Mg  Mg125  1  0.60565500  0.02010400  0.73649400  1
  Mg  Mg126  1  0.99163100  0.48133400  0.74230200  1
  Mg  Mg127  1  0.44210700  0.07555600  0.78068200  1
  Mg  Mg128  1  0.86532300  0.81516600  0.76273300  1
  Mg  Mg129  1  0.26250900  0.08382700  0.74391000  1
  Mg  Mg130  1  0.20703400  0.74901500  0.75485500  1
  Mg  Mg131  1  0.85150200  0.32385800  0.76110700  1
  Mg  Mg132  1  0.54728200  0.68401400  0.74721100  1
  Mg  Mg133  1  0.10185900  0.14055700  0.78832600  1
  Mg  Mg134  1  0.04348700  0.80446700  0.79904300  1
  Mg  Mg135  1  0.32246900  0.41905700  0.73294400  1
  Mg  Mg136  1  0.72285700  0.68262000  0.78400800  1
  Mg  Mg137  1  0.79763900  0.50071200  0.77443000  1
  Zn  Zn138  1  0.69737600  0.51637500  0.25596900  1
  Zn  Zn139  1  0.88364600  0.74133200  0.25611000  1
  Zn  Zn140  1  0.35093700  0.58152600  0.26138000  1
  Zn  Zn141  1  0.02093600  0.18641300  0.24195200  1
  Zn  Zn142  1  0.07596200  0.52546300  0.23135500  1
  Zn  Zn143  1  0.72166600  0.68162100  0.24890200  1
  Zn  Zn144  1  0.32457100  0.41228500  0.26776900  1
  Zn  Zn145  1  0.13358300  0.39910500  0.18866000  1
  Zn  Zn146  1  0.30416500  0.82750500  0.21545500  1
  Zn  Zn147  1  0.66266900  0.34392800  0.25924800  1
  Zn  Zn148  1  0.46922700  0.79365300  0.21087700  1
  Zn  Zn149  1  0.58296700  0.92527300  0.21797700  1
  Zn  Zn150  1  0.58562200  0.42773900  0.21871400  1
  Zn  Zn151  1  0.63787300  0.18215000  0.26552700  1
  Zn  Zn152  1  0.94731400  0.17414800  0.18851800  1
  Zn  Zn153  1  0.52679400  0.08797500  0.22917300  1
  Zn  Zn154  1  0.69960400  0.05531100  0.22440000  1
  Zn  Zn155  1  0.16829000  0.57155100  0.18538000  1
  Zn  Zn156  1  0.10929400  0.23385900  0.19572700  1
  Zn  Zn157  1  0.24533700  0.48774100  0.22591400  1
  Zn  Zn158  1  0.13135600  0.86016900  0.22022800  1
  Zn  Zn159  1  0.75499700  0.39001700  0.21327300  1
  Zn  Zn160  1  0.41548000  0.45774000  0.22231400  1
  Zn  Zn161  1  0.64246400  0.75720700  0.20738500  1
  Zn  Zn162  1  0.37786600  0.74925100  0.25580500  1
  Zn  Zn163  1  0.79032800  0.09753400  0.18035900  1
  Zn  Zn164  1  0.18849600  0.15827300  0.23724400  1
  Zn  Zn165  1  0.04063100  0.81794600  0.26426900  1
  Zn  Zn166  1  0.01126900  0.64242100  0.27001000  1
  Zn  Zn167  1  0.45309300  0.16622900  0.18882300  1
  Zn  Zn168  1  0.81002400  0.72906700  0.20267600  1
  Zn  Zn169  1  0.82457100  0.41228500  0.26776900  1
  Zn  Zn170  1  0.36173300  0.12182700  0.23375100  1
  Zn  Zn171  1  0.24799300  0.99020600  0.22665100  1
  Zn  Zn172  1  0.48002200  0.33395300  0.18324800  1
  Zn  Zn173  1  0.51555800  0.42546600  0.34687800  1
  Zn  Zn174  1  0.70182800  0.65042300  0.34701900  1
  Zn  Zn175  1  0.16911900  0.49061700  0.35228900  1
  Zn  Zn176  1  0.83911800  0.09550400  0.33286100  1
  Zn  Zn177  1  0.89414400  0.43455400  0.32226400  1
  Zn  Zn178  1  0.53984700  0.59071200  0.33981100  1
  Zn  Zn179  1  0.14275200  0.32137600  0.35867800  1
  Zn  Zn180  1  0.95176500  0.30819600  0.27956900  1
  Zn  Zn181  1  0.12234700  0.73659600  0.30636400  1
  Zn  Zn182  1  0.48085100  0.25301900  0.35015700  1
  Zn  Zn183  1  0.28740900  0.70274400  0.30178600  1
  Zn  Zn184  1  0.40114900  0.83436400  0.30888600  1
  Zn  Zn185  1  0.40380400  0.33683000  0.30962300  1
  Zn  Zn186  1  0.45605400  0.09124100  0.35643600  1
  Zn  Zn187  1  0.76549600  0.08323900  0.27942700  1
  Zn  Zn188  1  0.34497600  0.99706600  0.32008200  1
  Zn  Zn189  1  0.51778600  0.96440100  0.31530900  1
  Zn  Zn190  1  0.98647200  0.48064200  0.27628900  1
  Zn  Zn191  1  0.92747600  0.14295000  0.28663600  1
  Zn  Zn192  1  0.06351900  0.39683200  0.31682400  1
  Zn  Zn193  1  0.94953800  0.76926000  0.31113700  1
  Zn  Zn194  1  0.57317900  0.29910800  0.30418200  1
  Zn  Zn195  1  0.23366200  0.36683100  0.31322300  1
  Zn  Zn196  1  0.46064600  0.66629800  0.29829400  1
  Zn  Zn197  1  0.19604800  0.65834200  0.34671400  1
  Zn  Zn198  1  0.60851000  0.00662500  0.27126800  1
  Zn  Zn199  1  0.00667800  0.06736400  0.32815300  1
  Zn  Zn200  1  0.85881300  0.72703700  0.35517800  1
  Zn  Zn201  1  0.82945000  0.55151200  0.36091900  1
  Zn  Zn202  1  0.27127500  0.07532000  0.27973200  1
  Zn  Zn203  1  0.62820500  0.63815800  0.29358500  1
  Zn  Zn204  1  0.64275200  0.32137600  0.35867800  1
  Zn  Zn205  1  0.17991400  0.03091800  0.32466000  1
  Zn  Zn206  1  0.06617500  0.89929700  0.31756000  1
  Zn  Zn207  1  0.29820400  0.24304400  0.27415700  1
  Zn  Zn208  1  0.33374000  0.33455700  0.43778700  1
  Zn  Zn209  1  0.52000900  0.55951300  0.43792800  1
  Zn  Zn210  1  0.98730100  0.39970800  0.44319800  1
  Zn  Zn211  1  0.65730000  0.00459500  0.42377000  1
  Zn  Zn212  1  0.71232600  0.34364400  0.41317400  1
  Zn  Zn213  1  0.35802900  0.49980300  0.43072000  1
  Zn  Zn214  1  0.96093400  0.23046700  0.44958700  1
  Zn  Zn215  1  0.76994700  0.21728600  0.37047800  1
  Zn  Zn216  1  0.94052900  0.64568700  0.39727300  1
  Zn  Zn217  1  0.29903300  0.16211000  0.44106600  1
  Zn  Zn218  1  0.10559100  0.61183500  0.39269500  1
  Zn  Zn219  1  0.21933000  0.74345500  0.39979500  1
  Zn  Zn220  1  0.22198600  0.24592100  0.40053200  1
  Zn  Zn221  1  0.27423600  0.00033200  0.44734500  1
  Zn  Zn222  1  0.58367700  0.99233000  0.37033600  1
  Zn  Zn223  1  0.16315800  0.90615700  0.41099100  1
  Zn  Zn224  1  0.33596700  0.87349200  0.40621800  1
  Zn  Zn225  1  0.80465400  0.38973300  0.36719800  1
  Zn  Zn226  1  0.74565800  0.05204000  0.37754500  1
  Zn  Zn227  1  0.88170100  0.30592200  0.40773300  1
  Zn  Zn228  1  0.76771900  0.67835100  0.40204600  1
  Zn  Zn229  1  0.39136100  0.20819900  0.39509100  1
  Zn  Zn230  1  0.05184300  0.27592200  0.40413200  1
  Zn  Zn231  1  0.27882700  0.57538900  0.38920300  1
  Zn  Zn232  1  0.01423000  0.56743300  0.43762300  1
  Zn  Zn233  1  0.42669200  0.91571600  0.36217700  1
  Zn  Zn234  1  0.82485900  0.97645500  0.41906200  1
  Zn  Zn235  1  0.67699500  0.63612800  0.44608700  1
  Zn  Zn236  1  0.64763200  0.46060300  0.45182800  1
  Zn  Zn237  1  0.08945700  0.98441000  0.37064100  1
  Zn  Zn238  1  0.44638700  0.54724900  0.38449400  1
  Zn  Zn239  1  0.46093400  0.23046700  0.44958700  1
  Zn  Zn240  1  0.99809600  0.94000900  0.41556900  1
  Zn  Zn241  1  0.88435600  0.80838800  0.40847000  1
  Zn  Zn242  1  0.11638600  0.15213500  0.36506700  1
  Zn  Zn243  1  0.15192200  0.24364800  0.52869600  1
  Zn  Zn244  1  0.33819100  0.46860400  0.52883700  1
  Zn  Zn245  1  0.80548300  0.30879900  0.53410700  1
  Zn  Zn246  1  0.47548100  0.91368600  0.51467900  1
  Zn  Zn247  1  0.53050800  0.25273500  0.50408300  1
  Zn  Zn248  1  0.17621100  0.40889400  0.52162900  1
  Zn  Zn249  1  0.77911600  0.13955800  0.54049600  1
  Zn  Zn250  1  0.58812900  0.12637700  0.46138700  1
  Zn  Zn251  1  0.75871100  0.55477800  0.48818200  1
  Zn  Zn252  1  0.11721500  0.07120100  0.53197600  1
  Zn  Zn253  1  0.92377200  0.52092600  0.48360500  1
  Zn  Zn254  1  0.03751200  0.65254600  0.49070400  1
  Zn  Zn255  1  0.04016800  0.15501200  0.49144100  1
  Zn  Zn256  1  0.09241800  0.90942200  0.53825400  1
  Zn  Zn257  1  0.40185900  0.90142100  0.46124600  1
  Zn  Zn258  1  0.98134000  0.81524700  0.50190000  1
  Zn  Zn259  1  0.15414900  0.78258300  0.49712800  1
  Zn  Zn260  1  0.62283600  0.29882400  0.45810700  1
  Zn  Zn261  1  0.56383900  0.96113100  0.46845400  1
  Zn  Zn262  1  0.69988300  0.21501300  0.49864200  1
  Zn  Zn263  1  0.58590100  0.58744200  0.49295500  1
  Zn  Zn264  1  0.20954300  0.11729000  0.48600000  1
  Zn  Zn265  1  0.87002500  0.18501300  0.49504100  1
  Zn  Zn266  1  0.09700900  0.48448000  0.48011200  1
  Zn  Zn267  1  0.83241200  0.47652400  0.52853200  1
  Zn  Zn268  1  0.24487400  0.82480600  0.45308600  1
  Zn  Zn269  1  0.64304100  0.88554500  0.50997100  1
  Zn  Zn270  1  0.49517700  0.54521900  0.53699700  1
  Zn  Zn271  1  0.46581400  0.36969400  0.54273700  1
  Zn  Zn272  1  0.90763900  0.89350100  0.46155000  1
  Zn  Zn273  1  0.26456900  0.45634000  0.47540400  1
  Zn  Zn274  1  0.27911600  0.13955800  0.54049600  1
  Zn  Zn275  1  0.81627800  0.84910000  0.50647800  1
  Zn  Zn276  1  0.70253800  0.71747900  0.49937900  1
  Zn  Zn277  1  0.93456800  0.06122600  0.45597600  1
  Zn  Zn278  1  0.97010300  0.15273900  0.61960500  1
  Zn  Zn279  1  0.15637300  0.37769500  0.61974600  1
  Zn  Zn280  1  0.62366400  0.21789000  0.62501600  1
  Zn  Zn281  1  0.29366300  0.82277600  0.60558800  1
  Zn  Zn282  1  0.34869000  0.16182600  0.59499200  1
  Zn  Zn283  1  0.99439300  0.31798500  0.61253800  1
  Zn  Zn284  1  0.59729800  0.04864900  0.63140500  1
  Zn  Zn285  1  0.40631100  0.03546800  0.55229600  1
  Zn  Zn286  1  0.57689200  0.46386900  0.57909100  1
  Zn  Zn287  1  0.93539600  0.98029200  0.62288500  1
  Zn  Zn288  1  0.74195400  0.43001700  0.57451400  1
  Zn  Zn289  1  0.85569400  0.56163700  0.58161300  1
  Zn  Zn290  1  0.85834900  0.06410300  0.58235000  1
  Zn  Zn291  1  0.91060000  0.81851300  0.62916300  1
  Zn  Zn292  1  0.22004100  0.81051200  0.55215500  1
  Zn  Zn293  1  0.79952200  0.72433800  0.59280900  1
  Zn  Zn294  1  0.97233100  0.69167400  0.58803700  1
  Zn  Zn295  1  0.44101800  0.20791500  0.54901600  1
  Zn  Zn296  1  0.38202100  0.87022200  0.55936300  1
  Zn  Zn297  1  0.51806500  0.12410400  0.58955100  1
  Zn  Zn298  1  0.40408300  0.49653300  0.58386400  1
  Zn  Zn299  1  0.02772500  0.02638100  0.57690900  1
  Zn  Zn300  1  0.68820700  0.09410400  0.58595000  1
  Zn  Zn301  1  0.91519100  0.39357100  0.57102100  1
  Zn  Zn302  1  0.65059300  0.38561500  0.61944100  1
  Zn  Zn303  1  0.06305500  0.73389700  0.54399500  1
  Zn  Zn304  1  0.46122300  0.79463600  0.60088000  1
  Zn  Zn305  1  0.31335900  0.45431000  0.62790600  1
  Zn  Zn306  1  0.28399600  0.27878500  0.63364700  1
  Zn  Zn307  1  0.72582100  0.80259200  0.55245900  1
  Zn  Zn308  1  0.08275100  0.36543100  0.56631300  1
  Zn  Zn309  1  0.09729800  0.04864900  0.63140500  1
  Zn  Zn310  1  0.63446000  0.75819000  0.59738700  1
  Zn  Zn311  1  0.52072000  0.62657000  0.59028800  1
  Zn  Zn312  1  0.75275000  0.97031700  0.54688500  1
  Zn  Zn313  1  0.78828500  0.06183000  0.71051400  1
  Zn  Zn314  1  0.97455500  0.28678600  0.71065500  1
  Zn  Zn315  1  0.44184600  0.12698100  0.71592500  1
  Zn  Zn316  1  0.11184500  0.73186700  0.69649700  1
  Zn  Zn317  1  0.16687100  0.07091700  0.68590100  1
  Zn  Zn318  1  0.81257500  0.22707600  0.70344700  1
  Zn  Zn319  1  0.41548000  0.95774000  0.72231400  1
  Zn  Zn320  1  0.22449200  0.94455900  0.64320500  1
  Zn  Zn321  1  0.39507400  0.37296000  0.67000100  1
  Zn  Zn322  1  0.75357800  0.88938300  0.71379400  1
  Zn  Zn323  1  0.56013600  0.33910800  0.66542300  1
  Zn  Zn324  1  0.67387600  0.47072800  0.67252200  1
  Zn  Zn325  1  0.67653100  0.97319400  0.67325900  1
  Zn  Zn326  1  0.72878200  0.72760400  0.72007200  1
  Zn  Zn327  1  0.03822300  0.71960300  0.64306400  1
  Zn  Zn328  1  0.61770300  0.63342900  0.68371800  1
  Zn  Zn329  1  0.79051300  0.60076500  0.67894600  1
  Zn  Zn330  1  0.25920000  0.11700600  0.63992500  1
  Zn  Zn331  1  0.20020300  0.77931300  0.65027200  1
  Zn  Zn332  1  0.33624700  0.03319500  0.68046000  1
  Zn  Zn333  1  0.22226500  0.40562400  0.67477300  1
  Zn  Zn334  1  0.84590600  0.93547200  0.66781800  1
  Zn  Zn335  1  0.50638900  0.00319400  0.67686000  1
  Zn  Zn336  1  0.73337300  0.30266200  0.66193000  1
  Zn  Zn337  1  0.46877500  0.29470600  0.71035100  1
  Zn  Zn338  1  0.88123700  0.64298800  0.63490400  1
  Zn  Zn339  1  0.27940500  0.70372700  0.69178900  1
  Zn  Zn340  1  0.13154000  0.36340100  0.71881500  1
  Zn  Zn341  1  0.10217800  0.18787500  0.72455600  1
  Zn  Zn342  1  0.54400200  0.71168300  0.64336800  1
  Zn  Zn343  1  0.90093300  0.27452200  0.65722200  1
  Zn  Zn344  1  0.91548000  0.95774000  0.72231400  1
  Zn  Zn345  1  0.45264200  0.66728100  0.68829600  1
  Zn  Zn346  1  0.33890200  0.53566100  0.68119700  1
  Zn  Zn347  1  0.57093200  0.87940800  0.63779400  1
  Zn  Zn348  1  0.60646700  0.97092100  0.80142300  1
  Zn  Zn349  1  0.79273700  0.19587700  0.80156400  1
  Zn  Zn350  1  0.26002800  0.03607200  0.80683400  1
  Zn  Zn351  1  0.93002700  0.64095800  0.78740600  1
  Zn  Zn352  1  0.98505300  0.98000800  0.77681000  1
  Zn  Zn353  1  0.63075600  0.13616700  0.79435600  1
  Zn  Zn354  1  0.04267400  0.85365000  0.73411400  1
  Zn  Zn355  1  0.21325600  0.28205100  0.76091000  1
  Zn  Zn356  1  0.57176000  0.79847400  0.80470300  1
  Zn  Zn357  1  0.37831800  0.24819800  0.75633200  1
  Zn  Zn358  1  0.49205800  0.37981900  0.76343100  1
  Zn  Zn359  1  0.49471300  0.88228500  0.76416800  1
  Zn  Zn360  1  0.85640500  0.62869400  0.73397300  1
  Zn  Zn361  1  0.43588500  0.54252000  0.77462800  1
  Zn  Zn362  1  0.60869500  0.50985600  0.76985500  1
  Zn  Zn363  1  0.07738100  0.02609700  0.73083400  1
  Zn  Zn364  1  0.01838500  0.68840400  0.74118100  1
  Zn  Zn365  1  0.15442800  0.94228600  0.77136900  1
  Zn  Zn366  1  0.04044700  0.31471500  0.76568200  1
  Zn  Zn367  1  0.66408800  0.84456300  0.75872700  1
  Zn  Zn368  1  0.32457100  0.91228500  0.76776900  1
  Zn  Zn369  1  0.55155500  0.21175200  0.75283900  1
  Zn  Zn370  1  0.28695700  0.20379700  0.80126000  1
  Zn  Zn371  1  0.69941900  0.55207900  0.72581300  1
  Zn  Zn372  1  0.09758700  0.61281800  0.78269800  1
  Zn  Zn373  1  0.94972200  0.27249100  0.80972400  1
  Zn  Zn374  1  0.36218400  0.62077400  0.73427800  1
  Zn  Zn375  1  0.71911500  0.18361200  0.74813100  1
  Zn  Zn376  1  0.27082400  0.57637200  0.77920500  1
  Zn  Zn377  1  0.15708400  0.44475200  0.77210600  1
  Zn  Zn378  1  0.38911300  0.78849900  0.72870300  1
