# generated using pymatgen
data_Li4Mg
_symmetry_space_group_name_H-M   'P 1'
_cell_length_a   3.06669500
_cell_length_b   38.27865085
_cell_length_c   42.49336600
_cell_angle_alpha   86.02152941
_cell_angle_beta   90.00000000
_cell_angle_gamma   92.29573984
_symmetry_Int_Tables_number   1
_chemical_formula_structural   Li4Mg
_chemical_formula_sum   'Li120 Mg30'
_cell_volume   4972.21739699
_cell_formula_units_Z   30
loop_
 _symmetry_equiv_pos_site_id
 _symmetry_equiv_pos_as_xyz
  1  'x, y, z'
loop_
 _atom_site_type_symbol
 _atom_site_label
 _atom_site_symmetry_multiplicity
 _atom_site_fract_x
 _atom_site_fract_y
 _atom_site_fract_z
 _atom_site_occupancy
  Li  Li0  1  0.04934000  0.93201300  0.22299900  1
  Li  Li1  1  0.51646200  0.86625700  0.20627600  1
  Li  Li2  1  0.98353800  0.80041000  0.18955800  1
  Li  Li3  1  0.95066000  0.73465400  0.23533400  1
  Li  Li4  1  0.21600600  0.26534600  0.24383300  1
  Li  Li5  1  0.68312800  0.19959000  0.22710900  1
  Li  Li6  1  0.15020500  0.13374300  0.21039100  1
  Li  Li7  1  0.61732700  0.06798700  0.19366700  1
  Li  Li8  1  0.88267300  0.59868000  0.20216600  1
  Li  Li9  1  0.84979500  0.53292300  0.24794200  1
  Li  Li10  1  0.31687200  0.46707700  0.23122400  1
  Li  Li11  1  0.78399400  0.40132000  0.21450100  1
  Li  Li12  1  0.54934000  0.93201300  0.28549900  1
  Li  Li13  1  0.01646200  0.86625700  0.26877600  1
  Li  Li14  1  0.48353800  0.80041000  0.25205800  1
  Li  Li15  1  0.45066000  0.73465400  0.29783400  1
  Li  Li16  1  0.71600600  0.26534600  0.30633300  1
  Li  Li17  1  0.18312800  0.19959000  0.28960900  1
  Li  Li18  1  0.65020500  0.13374300  0.27289100  1
  Li  Li19  1  0.11732700  0.06798700  0.25616700  1
  Li  Li20  1  0.38267300  0.59868000  0.26466600  1
  Li  Li21  1  0.34979500  0.53292300  0.31044200  1
  Li  Li22  1  0.81687200  0.46707700  0.29372400  1
  Li  Li23  1  0.28399400  0.40132000  0.27700100  1
  Li  Li24  1  0.04934000  0.93201300  0.34799900  1
  Li  Li25  1  0.51646200  0.86625700  0.33127600  1
  Li  Li26  1  0.98353800  0.80041000  0.31455800  1
  Li  Li27  1  0.95066000  0.73465400  0.36033400  1
  Li  Li28  1  0.21600600  0.26534600  0.36883300  1
  Li  Li29  1  0.68312800  0.19959000  0.35210900  1
  Li  Li30  1  0.15020500  0.13374300  0.33539100  1
  Li  Li31  1  0.61732700  0.06798700  0.31866700  1
  Li  Li32  1  0.88267300  0.59868000  0.32716600  1
  Li  Li33  1  0.84979500  0.53292300  0.37294200  1
  Li  Li34  1  0.31687200  0.46707700  0.35622400  1
  Li  Li35  1  0.78399400  0.40132000  0.33950100  1
  Li  Li36  1  0.54934000  0.93201300  0.41049900  1
  Li  Li37  1  0.01646200  0.86625700  0.39377600  1
  Li  Li38  1  0.48353800  0.80041000  0.37705800  1
  Li  Li39  1  0.45066000  0.73465400  0.42283400  1
  Li  Li40  1  0.71600600  0.26534600  0.43133300  1
  Li  Li41  1  0.18312800  0.19959000  0.41460900  1
  Li  Li42  1  0.65020500  0.13374300  0.39789100  1
  Li  Li43  1  0.11732700  0.06798700  0.38116700  1
  Li  Li44  1  0.38267300  0.59868000  0.38966600  1
  Li  Li45  1  0.34979500  0.53292300  0.43544200  1
  Li  Li46  1  0.81687200  0.46707700  0.41872400  1
  Li  Li47  1  0.28399400  0.40132000  0.40200100  1
  Li  Li48  1  0.04934000  0.93201300  0.47299900  1
  Li  Li49  1  0.51646200  0.86625700  0.45627600  1
  Li  Li50  1  0.98353800  0.80041000  0.43955800  1
  Li  Li51  1  0.95066000  0.73465400  0.48533400  1
  Li  Li52  1  0.21600600  0.26534600  0.49383300  1
  Li  Li53  1  0.68312800  0.19959000  0.47710900  1
  Li  Li54  1  0.15020500  0.13374300  0.46039100  1
  Li  Li55  1  0.61732700  0.06798700  0.44366700  1
  Li  Li56  1  0.88267300  0.59868000  0.45216600  1
  Li  Li57  1  0.84979500  0.53292300  0.49794200  1
  Li  Li58  1  0.31687200  0.46707700  0.48122400  1
  Li  Li59  1  0.78399400  0.40132000  0.46450100  1
  Li  Li60  1  0.54934000  0.93201300  0.53549900  1
  Li  Li61  1  0.01646200  0.86625700  0.51877600  1
  Li  Li62  1  0.48353800  0.80041000  0.50205800  1
  Li  Li63  1  0.45066000  0.73465400  0.54783400  1
  Li  Li64  1  0.71600600  0.26534600  0.55633300  1
  Li  Li65  1  0.18312800  0.19959000  0.53960900  1
  Li  Li66  1  0.65020500  0.13374300  0.52289100  1
  Li  Li67  1  0.11732700  0.06798700  0.50616700  1
  Li  Li68  1  0.38267300  0.59868000  0.51466600  1
  Li  Li69  1  0.34979500  0.53292300  0.56044200  1
  Li  Li70  1  0.81687200  0.46707700  0.54372400  1
  Li  Li71  1  0.28399400  0.40132000  0.52700100  1
  Li  Li72  1  0.04934000  0.93201300  0.59799900  1
  Li  Li73  1  0.51646200  0.86625700  0.58127600  1
  Li  Li74  1  0.98353800  0.80041000  0.56455800  1
  Li  Li75  1  0.95066000  0.73465400  0.61033400  1
  Li  Li76  1  0.21600600  0.26534600  0.61883300  1
  Li  Li77  1  0.68312800  0.19959000  0.60210900  1
  Li  Li78  1  0.15020500  0.13374300  0.58539100  1
  Li  Li79  1  0.61732700  0.06798700  0.56866700  1
  Li  Li80  1  0.88267300  0.59868000  0.57716600  1
  Li  Li81  1  0.84979500  0.53292300  0.62294200  1
  Li  Li82  1  0.31687200  0.46707700  0.60622400  1
  Li  Li83  1  0.78399400  0.40132000  0.58950100  1
  Li  Li84  1  0.54934000  0.93201300  0.66049900  1
  Li  Li85  1  0.01646200  0.86625700  0.64377600  1
  Li  Li86  1  0.48353800  0.80041000  0.62705800  1
  Li  Li87  1  0.45066000  0.73465400  0.67283400  1
  Li  Li88  1  0.71600600  0.26534600  0.68133300  1
  Li  Li89  1  0.18312800  0.19959000  0.66460900  1
  Li  Li90  1  0.65020500  0.13374300  0.64789100  1
  Li  Li91  1  0.11732700  0.06798700  0.63116700  1
  Li  Li92  1  0.38267300  0.59868000  0.63966600  1
  Li  Li93  1  0.34979500  0.53292300  0.68544200  1
  Li  Li94  1  0.81687200  0.46707700  0.66872400  1
  Li  Li95  1  0.28399400  0.40132000  0.65200100  1
  Li  Li96  1  0.04934000  0.93201300  0.72299900  1
  Li  Li97  1  0.51646200  0.86625700  0.70627600  1
  Li  Li98  1  0.98353800  0.80041000  0.68955800  1
  Li  Li99  1  0.95066000  0.73465400  0.73533400  1
  Li  Li100  1  0.21600600  0.26534600  0.74383300  1
  Li  Li101  1  0.68312800  0.19959000  0.72710900  1
  Li  Li102  1  0.15020500  0.13374300  0.71039100  1
  Li  Li103  1  0.61732700  0.06798700  0.69366700  1
  Li  Li104  1  0.88267300  0.59868000  0.70216600  1
  Li  Li105  1  0.84979500  0.53292300  0.74794200  1
  Li  Li106  1  0.31687200  0.46707700  0.73122400  1
  Li  Li107  1  0.78399400  0.40132000  0.71450100  1
  Li  Li108  1  0.54934000  0.93201300  0.78549900  1
  Li  Li109  1  0.01646200  0.86625700  0.76877600  1
  Li  Li110  1  0.48353800  0.80041000  0.75205800  1
  Li  Li111  1  0.45066000  0.73465400  0.79783400  1
  Li  Li112  1  0.71600600  0.26534600  0.80633300  1
  Li  Li113  1  0.18312800  0.19959000  0.78960900  1
  Li  Li114  1  0.65020500  0.13374300  0.77289100  1
  Li  Li115  1  0.11732700  0.06798700  0.75616700  1
  Li  Li116  1  0.38267300  0.59868000  0.76466600  1
  Li  Li117  1  0.34979500  0.53292300  0.81044200  1
  Li  Li118  1  0.81687200  0.46707700  0.79372400  1
  Li  Li119  1  0.28399400  0.40132000  0.77700100  1
  Mg  Mg120  1  0.58333300  0.00000000  0.23958300  1
  Mg  Mg121  1  0.25000000  0.33333300  0.19791700  1
  Mg  Mg122  1  0.41666700  0.66666700  0.21875000  1
  Mg  Mg123  1  0.08333300  0.00000000  0.30208300  1
  Mg  Mg124  1  0.75000000  0.33333300  0.26041700  1
  Mg  Mg125  1  0.91666700  0.66666700  0.28125000  1
  Mg  Mg126  1  0.58333300  0.00000000  0.36458300  1
  Mg  Mg127  1  0.25000000  0.33333300  0.32291700  1
  Mg  Mg128  1  0.41666700  0.66666700  0.34375000  1
  Mg  Mg129  1  0.08333300  0.00000000  0.42708300  1
  Mg  Mg130  1  0.75000000  0.33333300  0.38541700  1
  Mg  Mg131  1  0.91666700  0.66666700  0.40625000  1
  Mg  Mg132  1  0.58333300  0.00000000  0.48958300  1
  Mg  Mg133  1  0.25000000  0.33333300  0.44791700  1
  Mg  Mg134  1  0.41666700  0.66666700  0.46875000  1
  Mg  Mg135  1  0.08333300  0.00000000  0.55208300  1
  Mg  Mg136  1  0.75000000  0.33333300  0.51041700  1
  Mg  Mg137  1  0.91666700  0.66666700  0.53125000  1
  Mg  Mg138  1  0.58333300  0.00000000  0.61458300  1
  Mg  Mg139  1  0.25000000  0.33333300  0.57291700  1
  Mg  Mg140  1  0.41666700  0.66666700  0.59375000  1
  Mg  Mg141  1  0.08333300  0.00000000  0.67708300  1
  Mg  Mg142  1  0.75000000  0.33333300  0.63541700  1
  Mg  Mg143  1  0.91666700  0.66666700  0.65625000  1
  Mg  Mg144  1  0.58333300  0.00000000  0.73958300  1
  Mg  Mg145  1  0.25000000  0.33333300  0.69791700  1
  Mg  Mg146  1  0.41666700  0.66666700  0.71875000  1
  Mg  Mg147  1  0.08333300  0.00000000  0.80208300  1
  Mg  Mg148  1  0.75000000  0.33333300  0.76041700  1
  Mg  Mg149  1  0.91666700  0.66666700  0.78125000  1
