# generated using pymatgen
data_Mg13Ga5
_symmetry_space_group_name_H-M   'P 1'
_cell_length_a   8.32987939
_cell_length_b   8.32987964
_cell_length_c   45.71159500
_cell_angle_alpha   92.83451803
_cell_angle_beta   92.83451811
_cell_angle_gamma   113.28028594
_symmetry_Int_Tables_number   1
_chemical_formula_structural   Mg13Ga5
_chemical_formula_sum   'Mg52 Ga20'
_cell_volume   2901.74131394
_cell_formula_units_Z   4
loop_
 _symmetry_equiv_pos_site_id
 _symmetry_equiv_pos_as_xyz
  1  'x, y, z'
loop_
 _atom_site_type_symbol
 _atom_site_label
 _atom_site_symmetry_multiplicity
 _atom_site_fract_x
 _atom_site_fract_y
 _atom_site_fract_z
 _atom_site_occupancy
  Mg  Mg0  1  0.82760300  0.99296600  0.72268600  1
  Mg  Mg1  1  0.80645200  0.64108900  0.69160000  1
  Mg  Mg2  1  0.22760300  0.39296600  0.62268600  1
  Mg  Mg3  1  0.20645200  0.04108900  0.59160000  1
  Mg  Mg4  1  0.19296600  0.02760300  0.67268600  1
  Mg  Mg5  1  0.84108900  0.00645200  0.64160000  1
  Mg  Mg6  1  0.61702800  0.61702800  0.63214300  1
  Mg  Mg7  1  0.41702800  0.41702800  0.68214300  1
  Mg  Mg8  1  0.38234000  0.85171500  0.63214300  1
  Mg  Mg9  1  0.85171500  0.38234000  0.63214300  1
  Mg  Mg10  1  0.65171500  0.18234000  0.68214300  1
  Mg  Mg11  1  0.18234000  0.65171500  0.68214300  1
  Mg  Mg12  1  0.62760300  0.79296600  0.52268600  1
  Mg  Mg13  1  0.60645200  0.44108900  0.49160000  1
  Mg  Mg14  1  0.59296600  0.42760300  0.57268600  1
  Mg  Mg15  1  0.24108900  0.40645200  0.54160000  1
  Mg  Mg16  1  0.01702800  0.01702800  0.53214300  1
  Mg  Mg17  1  0.81702800  0.81702800  0.58214300  1
  Mg  Mg18  1  0.78234000  0.25171500  0.53214300  1
  Mg  Mg19  1  0.25171500  0.78234000  0.53214300  1
  Mg  Mg20  1  0.05171500  0.58234000  0.58214300  1
  Mg  Mg21  1  0.58234000  0.05171500  0.58214300  1
  Mg  Mg22  1  0.02760300  0.19296600  0.42268600  1
  Mg  Mg23  1  0.00645200  0.84108900  0.39160000  1
  Mg  Mg24  1  0.99296600  0.82760300  0.47268600  1
  Mg  Mg25  1  0.64108900  0.80645200  0.44160000  1
  Mg  Mg26  1  0.41702800  0.41702800  0.43214300  1
  Mg  Mg27  1  0.21702800  0.21702800  0.48214300  1
  Mg  Mg28  1  0.18234000  0.65171500  0.43214300  1
  Mg  Mg29  1  0.65171500  0.18234000  0.43214300  1
  Mg  Mg30  1  0.45171500  0.98234000  0.48214300  1
  Mg  Mg31  1  0.98234000  0.45171500  0.48214300  1
  Mg  Mg32  1  0.42760300  0.59296600  0.32268600  1
  Mg  Mg33  1  0.40645200  0.24108900  0.29160000  1
  Mg  Mg34  1  0.39296600  0.22760300  0.37268600  1
  Mg  Mg35  1  0.04108900  0.20645200  0.34160000  1
  Mg  Mg36  1  0.81702800  0.81702800  0.33214300  1
  Mg  Mg37  1  0.61702800  0.61702800  0.38214300  1
  Mg  Mg38  1  0.58234000  0.05171500  0.33214300  1
  Mg  Mg39  1  0.05171500  0.58234000  0.33214300  1
  Mg  Mg40  1  0.85171500  0.38234000  0.38214300  1
  Mg  Mg41  1  0.38234000  0.85171500  0.38214300  1
  Mg  Mg42  1  0.82760300  0.99296600  0.22268600  1
  Mg  Mg43  1  0.80645200  0.64108900  0.19160000  1
  Mg  Mg44  1  0.79296600  0.62760300  0.27268600  1
  Mg  Mg45  1  0.44108900  0.60645200  0.24160000  1
  Mg  Mg46  1  0.21702800  0.21702800  0.23214300  1
  Mg  Mg47  1  0.01702800  0.01702800  0.28214300  1
  Mg  Mg48  1  0.98234000  0.45171500  0.23214300  1
  Mg  Mg49  1  0.45171500  0.98234000  0.23214300  1
  Mg  Mg50  1  0.25171500  0.78234000  0.28214300  1
  Mg  Mg51  1  0.78234000  0.25171500  0.28214300  1
  Ga  Ga52  1  0.55027500  0.79510100  0.68308600  1
  Ga  Ga53  1  0.48378000  0.23895400  0.63119900  1
  Ga  Ga54  1  0.99510100  0.75027500  0.63308600  1
  Ga  Ga55  1  0.03895400  0.28378000  0.68119900  1
  Ga  Ga56  1  0.95027500  0.19510100  0.58308600  1
  Ga  Ga57  1  0.88378000  0.63895400  0.53119900  1
  Ga  Ga58  1  0.39510100  0.15027500  0.53308600  1
  Ga  Ga59  1  0.43895400  0.68378000  0.58119900  1
  Ga  Ga60  1  0.35027500  0.59510100  0.48308600  1
  Ga  Ga61  1  0.28378000  0.03895400  0.43119900  1
  Ga  Ga62  1  0.79510100  0.55027500  0.43308600  1
  Ga  Ga63  1  0.83895400  0.08378000  0.48119900  1
  Ga  Ga64  1  0.75027500  0.99510100  0.38308600  1
  Ga  Ga65  1  0.68378000  0.43895400  0.33119900  1
  Ga  Ga66  1  0.19510100  0.95027500  0.33308600  1
  Ga  Ga67  1  0.23895400  0.48378000  0.38119900  1
  Ga  Ga68  1  0.15027500  0.39510100  0.28308600  1
  Ga  Ga69  1  0.08378000  0.83895400  0.23119900  1
  Ga  Ga70  1  0.59510100  0.35027500  0.23308600  1
  Ga  Ga71  1  0.63895400  0.88378000  0.28119900  1
