# generated using pymatgen
data_Mg35Ir53
_symmetry_space_group_name_H-M   'P 1'
_cell_length_a   5.24707500
_cell_length_b   19.59900374
_cell_length_c   48.70839900
_cell_angle_alpha   93.84872638
_cell_angle_beta   90.00000000
_cell_angle_gamma   90.00000000
_symmetry_Int_Tables_number   1
_chemical_formula_structural   Mg35Ir53
_chemical_formula_sum   'Mg70 Ir106'
_cell_volume   4997.75050797
_cell_formula_units_Z   2
loop_
 _symmetry_equiv_pos_site_id
 _symmetry_equiv_pos_as_xyz
  1  'x, y, z'
loop_
 _atom_site_type_symbol
 _atom_site_label
 _atom_site_symmetry_multiplicity
 _atom_site_fract_x
 _atom_site_fract_y
 _atom_site_fract_z
 _atom_site_occupancy
  Mg  Mg0  1  0.00000000  0.69043500  0.30312300  1
  Mg  Mg1  1  0.50000000  0.05505500  0.27687700  1
  Mg  Mg2  1  0.50000000  0.89746300  0.27395800  1
  Mg  Mg3  1  1.00000000  0.84802700  0.30604200  1
  Mg  Mg4  1  0.50000000  0.62884500  0.27506800  1
  Mg  Mg5  1  0.00000000  0.11664500  0.30493200  1
  Mg  Mg6  1  1.00000000  0.41196800  0.29908800  1
  Mg  Mg7  1  0.50000000  0.33352200  0.28091200  1
  Mg  Mg8  1  1.00000000  0.51668000  0.26163600  1
  Mg  Mg9  1  0.50000000  0.22881000  0.31836400  1
  Mg  Mg10  1  0.50000000  0.99530200  0.38242100  1
  Mg  Mg11  1  1.00000000  0.91685500  0.36424600  1
  Mg  Mg12  1  1.00000000  0.85710200  0.46978900  1
  Mg  Mg13  1  0.50000000  0.22172200  0.44354400  1
  Mg  Mg14  1  0.50000000  0.06413000  0.44062500  1
  Mg  Mg15  1  1.00000000  0.01469400  0.47270900  1
  Mg  Mg16  1  0.50000000  0.10001400  0.34496900  1
  Mg  Mg17  1  0.00000000  0.81214300  0.40169800  1
  Mg  Mg18  1  0.50000000  0.79551200  0.44173500  1
  Mg  Mg19  1  0.00000000  0.28331100  0.47159800  1
  Mg  Mg20  1  0.00000000  0.57863500  0.46575400  1
  Mg  Mg21  1  0.50000000  0.50018800  0.44757900  1
  Mg  Mg22  1  0.50000000  0.27376800  0.38645600  1
  Mg  Mg23  1  0.00000000  0.63838800  0.36021100  1
  Mg  Mg24  1  0.00000000  0.48079600  0.35729100  1
  Mg  Mg25  1  0.50000000  0.43136000  0.38937500  1
  Mg  Mg26  1  0.00000000  0.68334700  0.42830200  1
  Mg  Mg27  1  0.50000000  0.39547700  0.48503100  1
  Mg  Mg28  1  0.00000000  0.21217900  0.35840200  1
  Mg  Mg29  1  0.50000000  0.69997800  0.38826500  1
  Mg  Mg30  1  0.50000000  0.16196800  0.54908800  1
  Mg  Mg31  1  0.00000000  0.08352200  0.53091200  1
  Mg  Mg32  1  1.00000000  0.02376800  0.63645600  1
  Mg  Mg33  1  0.50000000  0.38838800  0.61021100  1
  Mg  Mg34  1  0.50000000  0.23079600  0.60729100  1
  Mg  Mg35  1  1.00000000  0.18136000  0.63937500  1
  Mg  Mg36  1  0.50000000  0.26668000  0.51163600  1
  Mg  Mg37  1  1.00000000  0.97881000  0.56836400  1
  Mg  Mg38  1  0.50000000  0.96217900  0.60840200  1
  Mg  Mg39  1  0.00000000  0.44997800  0.63826500  1
  Mg  Mg40  1  1.00000000  0.74530200  0.63242100  1
  Mg  Mg41  1  0.50000000  0.66685500  0.61424600  1
  Mg  Mg42  1  0.50000000  0.44043500  0.55312300  1
  Mg  Mg43  1  1.00000000  0.80505500  0.52687700  1
  Mg  Mg44  1  1.00000000  0.64746300  0.52395800  1
  Mg  Mg45  1  0.50000000  0.59802700  0.55604200  1
  Mg  Mg46  1  0.00000000  0.85001400  0.59496900  1
  Mg  Mg47  1  0.50000000  0.56214300  0.65169800  1
  Mg  Mg48  1  1.00000000  0.37884500  0.52506800  1
  Mg  Mg49  1  0.50000000  0.86664500  0.55493200  1
  Mg  Mg50  1  0.50000000  0.32863500  0.71575400  1
  Mg  Mg51  1  1.00000000  0.25018800  0.69757900  1
  Mg  Mg52  1  1.00000000  0.19043500  0.80312300  1
  Mg  Mg53  1  0.50000000  0.55505500  0.77687700  1
  Mg  Mg54  1  0.50000000  0.39746300  0.77395800  1
  Mg  Mg55  1  0.00000000  0.34802700  0.80604200  1
  Mg  Mg56  1  0.50000000  0.43334700  0.67830200  1
  Mg  Mg57  1  0.00000000  0.14547700  0.73503100  1
  Mg  Mg58  1  0.50000000  0.12884500  0.77506800  1
  Mg  Mg59  1  1.00000000  0.61664500  0.80493200  1
  Mg  Mg60  1  1.00000000  0.91196800  0.79908800  1
  Mg  Mg61  1  0.50000000  0.83352200  0.78091200  1
  Mg  Mg62  1  0.50000000  0.60710200  0.71978900  1
  Mg  Mg63  1  1.00000000  0.97172200  0.69354400  1
  Mg  Mg64  1  1.00000000  0.81413000  0.69062500  1
  Mg  Mg65  1  0.50000000  0.76469400  0.72270900  1
  Mg  Mg66  1  0.00000000  0.01668000  0.76163600  1
  Mg  Mg67  1  0.50000000  0.72881000  0.81836400  1
  Mg  Mg68  1  1.00000000  0.54551200  0.69173500  1
  Mg  Mg69  1  0.50000000  0.03331100  0.72159800  1
  Ir  Ir70  1  0.75048700  0.75928600  0.25859700  1
  Ir  Ir71  1  0.74951300  0.98620400  0.32140300  1
  Ir  Ir72  1  0.25048700  0.98620400  0.32140300  1
  Ir  Ir73  1  0.24951300  0.75928600  0.25859700  1
  Ir  Ir74  1  0.00000000  0.08107800  0.24833300  1
  Ir  Ir75  1  0.50000000  0.77208300  0.30350900  1
  Ir  Ir76  1  1.00000000  0.97340700  0.27649100  1
  Ir  Ir77  1  0.50000000  0.47653100  0.27490700  1
  Ir  Ir78  1  0.00000000  0.26896000  0.30509300  1
  Ir  Ir79  1  0.50000000  0.66441200  0.33166700  1
  Ir  Ir80  1  0.00000000  0.30155200  0.25284300  1
  Ir  Ir81  1  0.50000000  0.44393800  0.32715700  1
  Ir  Ir82  1  0.23393800  0.55475700  0.31277900  1
  Ir  Ir83  1  0.26606200  0.19073400  0.26722100  1
  Ir  Ir84  1  0.73393800  0.19073400  0.26722100  1
  Ir  Ir85  1  0.76606200  0.55475700  0.31277900  1
  Ir  Ir86  1  1.00000000  0.05986400  0.35824000  1
  Ir  Ir87  1  0.50000000  0.85229300  0.38842600  1
  Ir  Ir88  1  0.75048700  0.92595300  0.42526400  1
  Ir  Ir89  1  0.74951300  0.15287100  0.48806900  1
  Ir  Ir90  1  0.25048700  0.15287100  0.48806900  1
  Ir  Ir91  1  0.24951300  0.92595300  0.42526400  1
  Ir  Ir92  1  0.00000000  0.24774500  0.41500000  1
  Ir  Ir93  1  0.50000000  0.88488500  0.33617700  1
  Ir  Ir94  1  0.00000000  0.02727100  0.41049000  1
  Ir  Ir95  1  0.50000000  0.93875000  0.47017600  1
  Ir  Ir96  1  0.00000000  0.14007400  0.44315700  1
  Ir  Ir97  1  0.73393800  0.13809000  0.39611200  1
  Ir  Ir98  1  0.76606200  0.77406700  0.35055400  1
  Ir  Ir99  1  0.23393800  0.77406700  0.35055400  1
  Ir  Ir100  1  0.26606200  0.13809000  0.39611200  1
  Ir  Ir101  1  0.50000000  0.64319700  0.44157400  1
  Ir  Ir102  1  1.00000000  0.43562600  0.47176000  1
  Ir  Ir103  1  0.25048700  0.34261900  0.34193100  1
  Ir  Ir104  1  0.24951300  0.56953700  0.40473600  1
  Ir  Ir105  1  0.75048700  0.56953700  0.40473600  1
  Ir  Ir106  1  0.74951300  0.34261900  0.34193100  1
  Ir  Ir107  1  0.50000000  0.83107800  0.49833300  1
  Ir  Ir108  1  1.00000000  0.46821900  0.41951000  1
  Ir  Ir109  1  0.50000000  0.61060500  0.49382300  1
  Ir  Ir110  1  0.00000000  0.35541600  0.38684300  1
  Ir  Ir111  1  0.50000000  0.55674100  0.35982400  1
  Ir  Ir112  1  0.23393800  0.72142300  0.47944600  1
  Ir  Ir113  1  0.26606200  0.35740000  0.43388800  1
  Ir  Ir114  1  0.73393800  0.35740000  0.43388800  1
  Ir  Ir115  1  0.76606200  0.72142300  0.47944600  1
  Ir  Ir116  1  1.00000000  0.22653100  0.52490700  1
  Ir  Ir117  1  0.50000000  0.01896000  0.55509300  1
  Ir  Ir118  1  0.75048700  0.09261900  0.59193100  1
  Ir  Ir119  1  0.74951300  0.31953700  0.65473600  1
  Ir  Ir120  1  0.25048700  0.31953700  0.65473600  1
  Ir  Ir121  1  0.24951300  0.09261900  0.59193100  1
  Ir  Ir122  1  0.00000000  0.41441200  0.58166700  1
  Ir  Ir123  1  0.50000000  0.05155200  0.50284300  1
  Ir  Ir124  1  1.00000000  0.19393800  0.57715700  1
  Ir  Ir125  1  0.50000000  0.10541600  0.63684300  1
  Ir  Ir126  1  0.00000000  0.30674100  0.60982400  1
  Ir  Ir127  1  0.73393800  0.30475700  0.56277900  1
  Ir  Ir128  1  0.76606200  0.94073400  0.51722100  1
  Ir  Ir129  1  0.23393800  0.94073400  0.51722100  1
  Ir  Ir130  1  0.26606200  0.30475700  0.56277900  1
  Ir  Ir131  1  0.50000000  0.80986400  0.60824000  1
  Ir  Ir132  1  1.00000000  0.60229300  0.63842600  1
  Ir  Ir133  1  0.25048700  0.50928600  0.50859700  1
  Ir  Ir134  1  0.24951300  0.73620400  0.57140300  1
  Ir  Ir135  1  0.75048700  0.73620400  0.57140300  1
  Ir  Ir136  1  0.74951300  0.50928600  0.50859700  1
  Ir  Ir137  1  0.50000000  0.99774500  0.66500000  1
  Ir  Ir138  1  0.00000000  0.63488500  0.58617700  1
  Ir  Ir139  1  0.50000000  0.77727100  0.66049000  1
  Ir  Ir140  1  1.00000000  0.52208300  0.55350900  1
  Ir  Ir141  1  0.50000000  0.72340700  0.52649100  1
  Ir  Ir142  1  0.23393800  0.88809000  0.64611200  1
  Ir  Ir143  1  0.26606200  0.52406700  0.60055400  1
  Ir  Ir144  1  0.73393800  0.52406700  0.60055400  1
  Ir  Ir145  1  0.76606200  0.88809000  0.64611200  1
  Ir  Ir146  1  0.00000000  0.39319700  0.69157400  1
  Ir  Ir147  1  0.50000000  0.18562600  0.72176000  1
  Ir  Ir148  1  0.75048700  0.25928600  0.75859700  1
  Ir  Ir149  1  0.74951300  0.48620400  0.82140300  1
  Ir  Ir150  1  0.25048700  0.48620400  0.82140300  1
  Ir  Ir151  1  0.24951300  0.25928600  0.75859700  1
  Ir  Ir152  1  0.00000000  0.58107800  0.74833300  1
  Ir  Ir153  1  0.50000000  0.21821900  0.66951000  1
  Ir  Ir154  1  1.00000000  0.36060500  0.74382300  1
  Ir  Ir155  1  0.50000000  0.27208300  0.80350900  1
  Ir  Ir156  1  1.00000000  0.47340700  0.77649100  1
  Ir  Ir157  1  0.73393800  0.47142300  0.72944600  1
  Ir  Ir158  1  0.76606200  0.10740000  0.68388800  1
  Ir  Ir159  1  0.23393800  0.10740000  0.68388800  1
  Ir  Ir160  1  0.26606200  0.47142300  0.72944600  1
  Ir  Ir161  1  0.50000000  0.97653100  0.77490700  1
  Ir  Ir162  1  1.00000000  0.76896000  0.80509300  1
  Ir  Ir163  1  0.25048700  0.67595300  0.67526400  1
  Ir  Ir164  1  0.24951300  0.90287100  0.73806900  1
  Ir  Ir165  1  0.75048700  0.90287100  0.73806900  1
  Ir  Ir166  1  0.74951300  0.67595300  0.67526400  1
  Ir  Ir167  1  0.50000000  0.16441200  0.83166700  1
  Ir  Ir168  1  0.00000000  0.80155200  0.75284300  1
  Ir  Ir169  1  0.50000000  0.94393800  0.82715700  1
  Ir  Ir170  1  0.00000000  0.68875000  0.72017600  1
  Ir  Ir171  1  0.50000000  0.89007400  0.69315700  1
  Ir  Ir172  1  0.23393800  0.05475700  0.81277900  1
  Ir  Ir173  1  0.26606200  0.69073400  0.76722100  1
  Ir  Ir174  1  0.73393800  0.69073400  0.76722100  1
  Ir  Ir175  1  0.76606200  0.05475700  0.81277900  1
