# generated using pymatgen
data_MgSe2
_symmetry_space_group_name_H-M   'P 1'
_cell_length_a   9.22042958
_cell_length_b   9.22042937
_cell_length_c   41.74727100
_cell_angle_alpha   83.65980880
_cell_angle_beta   83.65980894
_cell_angle_gamma   60.00000207
_symmetry_Int_Tables_number   1
_chemical_formula_structural   MgSe2
_chemical_formula_sum   'Mg28 Se56'
_cell_volume   3048.60503768
_cell_formula_units_Z   28
loop_
 _symmetry_equiv_pos_site_id
 _symmetry_equiv_pos_as_xyz
  1  'x, y, z'
loop_
 _atom_site_type_symbol
 _atom_site_label
 _atom_site_symmetry_multiplicity
 _atom_site_fract_x
 _atom_site_fract_y
 _atom_site_fract_z
 _atom_site_occupancy
  Mg  Mg0  1  0.31818200  0.81818200  0.22727300  1
  Mg  Mg1  1  0.81818200  0.31818200  0.22727300  1
  Mg  Mg2  1  0.31818200  0.31818200  0.22727300  1
  Mg  Mg3  1  0.81818200  0.81818200  0.22727300  1
  Mg  Mg4  1  0.95454500  0.45454500  0.31818200  1
  Mg  Mg5  1  0.45454500  0.95454500  0.31818200  1
  Mg  Mg6  1  0.95454500  0.95454500  0.31818200  1
  Mg  Mg7  1  0.45454500  0.45454500  0.31818200  1
  Mg  Mg8  1  0.59090900  0.09090900  0.40909100  1
  Mg  Mg9  1  0.09090900  0.59090900  0.40909100  1
  Mg  Mg10  1  0.59090900  0.59090900  0.40909100  1
  Mg  Mg11  1  0.09090900  0.09090900  0.40909100  1
  Mg  Mg12  1  0.22727300  0.72727300  0.50000000  1
  Mg  Mg13  1  0.72727300  0.22727300  0.50000000  1
  Mg  Mg14  1  0.22727300  0.22727300  0.50000000  1
  Mg  Mg15  1  0.72727300  0.72727300  0.50000000  1
  Mg  Mg16  1  0.86363600  0.36363600  0.59090900  1
  Mg  Mg17  1  0.36363600  0.86363600  0.59090900  1
  Mg  Mg18  1  0.86363600  0.86363600  0.59090900  1
  Mg  Mg19  1  0.36363600  0.36363600  0.59090900  1
  Mg  Mg20  1  0.50000000  0.00000000  0.68181800  1
  Mg  Mg21  1  1.00000000  0.50000000  0.68181800  1
  Mg  Mg22  1  0.50000000  0.50000000  0.68181800  1
  Mg  Mg23  1  0.00000000  0.00000000  0.68181800  1
  Mg  Mg24  1  0.13636400  0.63636400  0.77272700  1
  Mg  Mg25  1  0.63636400  0.13636400  0.77272700  1
  Mg  Mg26  1  0.13636400  0.13636400  0.77272700  1
  Mg  Mg27  1  0.63636400  0.63636400  0.77272700  1
  Se  Se28  1  0.56859800  0.06859800  0.26304600  1
  Se  Se29  1  0.06859800  0.78157600  0.26304600  1
  Se  Se30  1  0.78157600  0.56859800  0.26304600  1
  Se  Se31  1  0.49031900  0.49031900  0.21086100  1
  Se  Se32  1  0.06776600  0.56776600  0.19149900  1
  Se  Se33  1  0.56776600  0.85478800  0.19149900  1
  Se  Se34  1  0.85478800  0.06776600  0.19149900  1
  Se  Se35  1  0.14604400  0.14604400  0.24368500  1
  Se  Se36  1  0.20496200  0.70496200  0.35395600  1
  Se  Se37  1  0.70496200  0.41794000  0.35395600  1
  Se  Se38  1  0.41794000  0.20496200  0.35395600  1
  Se  Se39  1  0.12668300  0.12668300  0.30177000  1
  Se  Se40  1  0.70412900  0.20412900  0.28240800  1
  Se  Se41  1  0.20412900  0.49115100  0.28240800  1
  Se  Se42  1  0.49115100  0.70412900  0.28240800  1
  Se  Se43  1  0.78240800  0.78240800  0.33459400  1
  Se  Se44  1  0.84132500  0.34132500  0.44486500  1
  Se  Se45  1  0.34132500  0.05430300  0.44486500  1
  Se  Se46  1  0.05430300  0.84132500  0.44486500  1
  Se  Se47  1  0.76304600  0.76304600  0.39267900  1
  Se  Se48  1  0.34049300  0.84049300  0.37331700  1
  Se  Se49  1  0.84049300  0.12751500  0.37331700  1
  Se  Se50  1  0.12751500  0.34049300  0.37331700  1
  Se  Se51  1  0.41877200  0.41877200  0.42550300  1
  Se  Se52  1  0.47768900  0.97768900  0.53577400  1
  Se  Se53  1  0.97768900  0.69066700  0.53577400  1
  Se  Se54  1  0.69066700  0.47768900  0.53577400  1
  Se  Se55  1  0.39941000  0.39941000  0.48358800  1
  Se  Se56  1  0.97685700  0.47685700  0.46422600  1
  Se  Se57  1  0.47685700  0.76387900  0.46422600  1
  Se  Se58  1  0.76387900  0.97685700  0.46422600  1
  Se  Se59  1  0.05513500  0.05513500  0.51641200  1
  Se  Se60  1  0.11405200  0.61405200  0.62668300  1
  Se  Se61  1  0.61405200  0.32703000  0.62668300  1
  Se  Se62  1  0.32703000  0.11405200  0.62668300  1
  Se  Se63  1  0.03577400  0.03577400  0.57449700  1
  Se  Se64  1  0.61322000  0.11322000  0.55513500  1
  Se  Se65  1  0.11322000  0.40024200  0.55513500  1
  Se  Se66  1  0.40024200  0.61322000  0.55513500  1
  Se  Se67  1  0.69149900  0.69149900  0.60732100  1
  Se  Se68  1  0.75041600  0.25041600  0.71759200  1
  Se  Se69  1  0.25041600  0.96339400  0.71759200  1
  Se  Se70  1  0.96339400  0.75041600  0.71759200  1
  Se  Se71  1  0.67213700  0.67213700  0.66540600  1
  Se  Se72  1  0.24958400  0.74958400  0.64604400  1
  Se  Se73  1  0.74958400  0.03660600  0.64604400  1
  Se  Se74  1  0.03660600  0.24958400  0.64604400  1
  Se  Se75  1  0.32786300  0.32786300  0.69823000  1
  Se  Se76  1  0.38678000  0.88678000  0.80850100  1
  Se  Se77  1  0.88678000  0.59975800  0.80850100  1
  Se  Se78  1  0.59975800  0.38678000  0.80850100  1
  Se  Se79  1  0.30850100  0.30850100  0.75631500  1
  Se  Se80  1  0.88594800  0.38594800  0.73695400  1
  Se  Se81  1  0.38594800  0.67297000  0.73695400  1
  Se  Se82  1  0.67297000  0.88594800  0.73695400  1
  Se  Se83  1  0.96422600  0.96422600  0.78913900  1
