# generated using pymatgen
data_Mg54Zn97
_symmetry_space_group_name_H-M   'P 1'
_cell_length_a   5.07402209
_cell_length_b   22.10207791
_cell_length_c   42.67993100
_cell_angle_alpha   98.00895109
_cell_angle_beta   93.24549340
_cell_angle_gamma   83.83945518
_symmetry_Int_Tables_number   1
_chemical_formula_structural   Mg54Zn97
_chemical_formula_sum   'Mg54 Zn97'
_cell_volume   4708.12433190
_cell_formula_units_Z   1
loop_
 _symmetry_equiv_pos_site_id
 _symmetry_equiv_pos_as_xyz
  1  'x, y, z'
loop_
 _atom_site_type_symbol
 _atom_site_label
 _atom_site_symmetry_multiplicity
 _atom_site_fract_x
 _atom_site_fract_y
 _atom_site_fract_z
 _atom_site_occupancy
  Mg  Mg0  1  0.57802000  0.00782300  0.24478000  1
  Mg  Mg1  1  0.44188500  0.24775100  0.21801400  1
  Mg  Mg2  1  0.01612600  0.28063400  0.38212600  1
  Mg  Mg3  1  0.05227000  0.02781100  0.20648700  1
  Mg  Mg4  1  0.95443500  0.27454700  0.26025100  1
  Mg  Mg5  1  0.66074700  0.85998100  0.25458500  1
  Mg  Mg6  1  0.02217000  0.18960000  0.31553000  1
  Mg  Mg7  1  0.79584200  0.66841400  0.34260400  1
  Mg  Mg8  1  0.56546400  0.09974800  0.31063600  1
  Mg  Mg9  1  0.89367800  0.42167800  0.28884000  1
  Mg  Mg10  1  0.63198700  0.01559100  0.36696500  1
  Mg  Mg11  1  0.28264900  0.59647800  0.23845500  1
  Mg  Mg12  1  0.29955500  0.71060900  0.39084100  1
  Mg  Mg13  1  0.46950900  0.37004900  0.38799200  1
  Mg  Mg14  1  0.17860400  0.92617700  0.36109900  1
  Mg  Mg15  1  0.82594200  0.50662500  0.23356100  1
  Mg  Mg16  1  0.27009300  0.68840300  0.30431100  1
  Mg  Mg17  1  0.18736600  0.83624400  0.29450600  1
  Mg  Mg18  1  0.40622700  0.44847400  0.33107700  1
  Mg  Mg19  1  0.34855800  0.58561600  0.35825000  1
  Mg  Mg20  1  0.37802000  0.60782300  0.44478000  1
  Mg  Mg21  1  0.24188500  0.84775100  0.41801400  1
  Mg  Mg22  1  0.81612600  0.88063400  0.58212600  1
  Mg  Mg23  1  0.85227000  0.62781100  0.40648700  1
  Mg  Mg24  1  0.75443500  0.87454700  0.46025100  1
  Mg  Mg25  1  0.46074700  0.45998100  0.45458500  1
  Mg  Mg26  1  0.82217000  0.78960000  0.51553000  1
  Mg  Mg27  1  0.59584200  0.26841400  0.54260400  1
  Mg  Mg28  1  0.36546400  0.69974800  0.51063600  1
  Mg  Mg29  1  0.69367800  0.02167800  0.48884000  1
  Mg  Mg30  1  0.43198700  0.61559100  0.56696500  1
  Mg  Mg31  1  0.08264900  0.19647800  0.43845500  1
  Mg  Mg32  1  0.09955500  0.31060900  0.59084100  1
  Mg  Mg33  1  0.26950900  0.97004900  0.58799200  1
  Mg  Mg34  1  0.97860400  0.52617700  0.56109900  1
  Mg  Mg35  1  0.62594200  0.10662500  0.43356100  1
  Mg  Mg36  1  0.07009300  0.28840300  0.50431100  1
  Mg  Mg37  1  0.98736600  0.43624400  0.49450600  1
  Mg  Mg38  1  0.20622700  0.04847400  0.53107700  1
  Mg  Mg39  1  0.14855800  0.18561600  0.55825000  1
  Mg  Mg40  1  0.17802000  0.20782300  0.64478000  1
  Mg  Mg41  1  0.04188500  0.44775100  0.61801400  1
  Mg  Mg42  1  0.65227000  0.22781100  0.60648700  1
  Mg  Mg43  1  0.55443500  0.47454700  0.66025100  1
  Mg  Mg44  1  0.26074700  0.05998100  0.65458500  1
  Mg  Mg45  1  0.62217000  0.38960000  0.71553000  1
  Mg  Mg46  1  0.39584200  0.86841400  0.74260400  1
  Mg  Mg47  1  0.16546400  0.29974800  0.71063600  1
  Mg  Mg48  1  0.49367800  0.62167800  0.68884000  1
  Mg  Mg49  1  0.88264900  0.79647800  0.63845500  1
  Mg  Mg50  1  0.42594200  0.70662500  0.63356100  1
  Mg  Mg51  1  0.87009300  0.88840300  0.70431100  1
  Mg  Mg52  1  0.78736600  0.03624400  0.69450600  1
  Mg  Mg53  1  0.00622700  0.64847400  0.73107700  1
  Zn  Zn54  1  0.48365100  0.23242100  0.28624600  1
  Zn  Zn55  1  0.97607700  0.17198300  0.20391600  1
  Zn  Zn56  1  0.10606300  0.05583700  0.33925700  1
  Zn  Zn57  1  0.57969100  0.55701900  0.29593700  1
  Zn  Zn58  1  0.13099700  0.37348000  0.22348000  1
  Zn  Zn59  1  0.76338900  0.14157600  0.25258000  1
  Zn  Zn60  1  0.82405600  0.14811300  0.37454500  1
  Zn  Zn61  1  0.36446100  0.46380500  0.26284400  1
  Zn  Zn62  1  0.68495400  0.88035600  0.32697100  1
  Zn  Zn63  1  0.21079600  0.32266200  0.32570900  1
  Zn  Zn64  1  0.87628100  0.96577600  0.30347500  1
  Zn  Zn65  1  0.11817700  0.93372000  0.25014400  1
  Zn  Zn66  1  0.51886900  0.23345000  0.34867700  1
  Zn  Zn67  1  0.94044400  0.41106700  0.35925700  1
  Zn  Zn68  1  0.87203600  0.52424200  0.34517400  1
  Zn  Zn69  1  0.16315900  0.81587000  0.22212000  1
  Zn  Zn70  1  0.16665200  0.50363700  0.39695500  1
  Zn  Zn71  1  0.63731600  0.37356300  0.22338200  1
  Zn  Zn72  1  0.08472300  0.55465000  0.29651100  1
  Zn  Zn73  1  0.32924300  0.46277500  0.20041400  1
  Zn  Zn74  1  0.48146100  0.79258800  0.35213600  1
  Zn  Zn75  1  0.71711600  0.32274500  0.32561100  1
  Zn  Zn76  1  0.32405600  0.14811300  0.37454500  1
  Zn  Zn77  1  0.06627600  0.05624000  0.27821300  1
  Zn  Zn78  1  0.38090000  0.96485900  0.30367100  1
  Zn  Zn79  1  0.65209600  0.50578500  0.39679000  1
  Zn  Zn80  1  0.78183700  0.63998500  0.27087800  1
  Zn  Zn81  1  0.99601700  0.79044100  0.35230100  1
  Zn  Zn82  1  0.70766900  0.88515900  0.38983400  1
  Zn  Zn83  1  0.46721300  0.73136700  0.24542000  1
  Zn  Zn84  1  0.26842100  0.13920700  0.25315400  1
  Zn  Zn85  1  0.42405600  0.34811300  0.27454500  1
  Zn  Zn86  1  0.97183200  0.73044900  0.24561500  1
  Zn  Zn87  1  0.72993600  0.76250600  0.29894700  1
  Zn  Zn88  1  0.74205000  0.64038900  0.20983400  1
  Zn  Zn89  1  0.28365100  0.83242100  0.48624600  1
  Zn  Zn90  1  0.77607700  0.77198300  0.40391600  1
  Zn  Zn91  1  0.90606300  0.65583700  0.53925700  1
  Zn  Zn92  1  0.37969100  0.15701900  0.49593700  1
  Zn  Zn93  1  0.93099700  0.97348000  0.42348000  1
  Zn  Zn94  1  0.56338900  0.74157600  0.45258000  1
  Zn  Zn95  1  0.62405600  0.74811300  0.57454500  1
  Zn  Zn96  1  0.16446100  0.06380500  0.46284400  1
  Zn  Zn97  1  0.48495400  0.48035600  0.52697100  1
  Zn  Zn98  1  0.01079600  0.92266200  0.52570900  1
  Zn  Zn99  1  0.67628100  0.56577600  0.50347500  1
  Zn  Zn100  1  0.91817700  0.53372000  0.45014400  1
  Zn  Zn101  1  0.31886900  0.83345000  0.54867700  1
  Zn  Zn102  1  0.74044400  0.01106700  0.55925700  1
  Zn  Zn103  1  0.67203600  0.12424200  0.54517400  1
  Zn  Zn104  1  0.96315900  0.41587000  0.42212000  1
  Zn  Zn105  1  0.96665200  0.10363700  0.59695500  1
  Zn  Zn106  1  0.43731600  0.97356300  0.42338200  1
  Zn  Zn107  1  0.88472300  0.15465000  0.49651100  1
  Zn  Zn108  1  0.12924300  0.06277500  0.40041400  1
  Zn  Zn109  1  0.28146100  0.39258800  0.55213600  1
  Zn  Zn110  1  0.51711600  0.92274500  0.52561100  1
  Zn  Zn111  1  0.12405600  0.74811300  0.57454500  1
  Zn  Zn112  1  0.86627600  0.65624000  0.47821300  1
  Zn  Zn113  1  0.18090000  0.56485900  0.50367100  1
  Zn  Zn114  1  0.45209600  0.10578500  0.59679000  1
  Zn  Zn115  1  0.58183700  0.23998500  0.47087800  1
  Zn  Zn116  1  0.79601700  0.39044100  0.55230100  1
  Zn  Zn117  1  0.50766900  0.48515900  0.58983400  1
  Zn  Zn118  1  0.26721300  0.33136700  0.44542000  1
  Zn  Zn119  1  0.06842100  0.73920700  0.45315400  1
  Zn  Zn120  1  0.22405600  0.94811300  0.47454500  1
  Zn  Zn121  1  0.77183200  0.33044900  0.44561500  1
  Zn  Zn122  1  0.52993600  0.36250600  0.49894700  1
  Zn  Zn123  1  0.54205000  0.24038900  0.40983400  1
  Zn  Zn124  1  0.08365100  0.43242100  0.68624600  1
  Zn  Zn125  1  0.57607700  0.37198300  0.60391600  1
  Zn  Zn126  1  0.70606300  0.25583700  0.73925700  1
  Zn  Zn127  1  0.17969100  0.75701900  0.69593700  1
  Zn  Zn128  1  0.73099700  0.57348000  0.62348000  1
  Zn  Zn129  1  0.36338900  0.34157600  0.65258000  1
  Zn  Zn130  1  0.96446100  0.66380500  0.66284400  1
  Zn  Zn131  1  0.28495400  0.08035600  0.72697100  1
  Zn  Zn132  1  0.81079600  0.52266200  0.72570900  1
  Zn  Zn133  1  0.47628100  0.16577600  0.70347500  1
  Zn  Zn134  1  0.71817700  0.13372000  0.65014400  1
  Zn  Zn135  1  0.11886900  0.43345000  0.74867700  1
  Zn  Zn136  1  0.47203600  0.72424200  0.74517400  1
  Zn  Zn137  1  0.76315900  0.01587000  0.62212000  1
  Zn  Zn138  1  0.23731600  0.57356300  0.62338200  1
  Zn  Zn139  1  0.68472300  0.75465000  0.69651100  1
  Zn  Zn140  1  0.92924300  0.66277500  0.60041400  1
  Zn  Zn141  1  0.31711600  0.52274500  0.72561100  1
  Zn  Zn142  1  0.66627600  0.25624000  0.67821300  1
  Zn  Zn143  1  0.98090000  0.16485900  0.70367100  1
  Zn  Zn144  1  0.38183700  0.83998500  0.67087800  1
  Zn  Zn145  1  0.06721300  0.93136700  0.64542000  1
  Zn  Zn146  1  0.86842100  0.33920700  0.65315400  1
  Zn  Zn147  1  0.02405600  0.54811300  0.67454500  1
  Zn  Zn148  1  0.57183200  0.93044900  0.64561500  1
  Zn  Zn149  1  0.32993600  0.96250600  0.69894700  1
  Zn  Zn150  1  0.34205000  0.84038900  0.60983400  1
