# generated using pymatgen
data_Pr3Mg2
_symmetry_space_group_name_H-M   'P 1'
_cell_length_a   3.86864600
_cell_length_b   5.72809200
_cell_length_c   52.50645400
_cell_angle_alpha   90.00000000
_cell_angle_beta   90.00000000
_cell_angle_gamma   90.00000000
_symmetry_Int_Tables_number   1
_chemical_formula_structural   Pr3Mg2
_chemical_formula_sum   'Pr12 Mg8'
_cell_volume   1163.54093106
_cell_formula_units_Z   4
loop_
 _symmetry_equiv_pos_site_id
 _symmetry_equiv_pos_as_xyz
  1  'x, y, z'
loop_
 _atom_site_type_symbol
 _atom_site_label
 _atom_site_symmetry_multiplicity
 _atom_site_fract_x
 _atom_site_fract_y
 _atom_site_fract_z
 _atom_site_occupancy
  Pr  Pr0  1  0.50000000  0.75000000  0.33424200  1
  Pr  Pr1  1  0.00000000  0.75000000  0.39420800  1
  Pr  Pr2  1  0.00000000  0.25000000  0.44353600  1
  Pr  Pr3  1  0.50000000  0.25000000  0.38357000  1
  Pr  Pr4  1  0.00000000  0.75000000  0.50090800  1
  Pr  Pr5  1  0.50000000  0.75000000  0.56087500  1
  Pr  Pr6  1  0.50000000  0.25000000  0.61020300  1
  Pr  Pr7  1  0.00000000  0.25000000  0.55023700  1
  Pr  Pr8  1  0.50000000  0.75000000  0.66757500  1
  Pr  Pr9  1  0.00000000  0.75000000  0.72754100  1
  Pr  Pr10  1  0.00000000  0.25000000  0.77686900  1
  Pr  Pr11  1  0.50000000  0.25000000  0.71690300  1
  Mg  Mg12  1  0.00000000  0.75000000  0.28160900  1
  Mg  Mg13  1  0.50000000  0.25000000  0.49616900  1
  Mg  Mg14  1  0.50000000  0.75000000  0.44827500  1
  Mg  Mg15  1  0.00000000  0.25000000  0.32950200  1
  Mg  Mg16  1  0.00000000  0.75000000  0.61494200  1
  Mg  Mg17  1  0.50000000  0.25000000  0.82950200  1
  Mg  Mg18  1  0.50000000  0.75000000  0.78160900  1
  Mg  Mg19  1  0.00000000  0.25000000  0.66283600  1
