# generated using pymatgen
data_Mg3Tl
_symmetry_space_group_name_H-M   'P 1'
_cell_length_a   5.19908500
_cell_length_b   6.45355300
_cell_length_c   44.71152800
_cell_angle_alpha   90.00000000
_cell_angle_beta   90.00000000
_cell_angle_gamma   90.00000000
_symmetry_Int_Tables_number   1
_chemical_formula_structural   Mg3Tl
_chemical_formula_sum   'Mg30 Tl10'
_cell_volume   1500.18669981
_cell_formula_units_Z   10
loop_
 _symmetry_equiv_pos_site_id
 _symmetry_equiv_pos_as_xyz
  1  'x, y, z'
loop_
 _atom_site_type_symbol
 _atom_site_label
 _atom_site_symmetry_multiplicity
 _atom_site_fract_x
 _atom_site_fract_y
 _atom_site_fract_z
 _atom_site_occupancy
  Mg  Mg0  1  0.75000000  0.00000000  0.22877400  1
  Mg  Mg1  1  0.75000000  0.25235600  0.29186300  1
  Mg  Mg2  1  0.75000000  0.74764400  0.29186300  1
  Mg  Mg3  1  0.25000000  0.75235600  0.20813700  1
  Mg  Mg4  1  0.25000000  0.24764400  0.20813700  1
  Mg  Mg5  1  0.25000000  0.50000000  0.27122600  1
  Mg  Mg6  1  0.75000000  0.50000000  0.35377400  1
  Mg  Mg7  1  0.75000000  0.75235600  0.41686300  1
  Mg  Mg8  1  0.75000000  0.24764400  0.41686300  1
  Mg  Mg9  1  0.25000000  0.25235600  0.33313700  1
  Mg  Mg10  1  0.25000000  0.74764400  0.33313700  1
  Mg  Mg11  1  0.25000000  0.00000000  0.39622600  1
  Mg  Mg12  1  0.75000000  0.00000000  0.47877400  1
  Mg  Mg13  1  0.75000000  0.25235600  0.54186300  1
  Mg  Mg14  1  0.75000000  0.74764400  0.54186300  1
  Mg  Mg15  1  0.25000000  0.75235600  0.45813700  1
  Mg  Mg16  1  0.25000000  0.24764400  0.45813700  1
  Mg  Mg17  1  0.25000000  0.50000000  0.52122600  1
  Mg  Mg18  1  0.75000000  0.50000000  0.60377400  1
  Mg  Mg19  1  0.75000000  0.75235600  0.66686300  1
  Mg  Mg20  1  0.75000000  0.24764400  0.66686300  1
  Mg  Mg21  1  0.25000000  0.25235600  0.58313700  1
  Mg  Mg22  1  0.25000000  0.74764400  0.58313700  1
  Mg  Mg23  1  0.25000000  0.00000000  0.64622600  1
  Mg  Mg24  1  0.75000000  0.00000000  0.72877400  1
  Mg  Mg25  1  0.75000000  0.25235600  0.79186300  1
  Mg  Mg26  1  0.75000000  0.74764400  0.79186300  1
  Mg  Mg27  1  0.25000000  0.75235600  0.70813700  1
  Mg  Mg28  1  0.25000000  0.24764400  0.70813700  1
  Mg  Mg29  1  0.25000000  0.50000000  0.77122600  1
  Tl  Tl30  1  0.75000000  0.50000000  0.22916700  1
  Tl  Tl31  1  0.25000000  1.00000000  0.27083300  1
  Tl  Tl32  1  0.75000000  1.00000000  0.35416700  1
  Tl  Tl33  1  0.25000000  0.50000000  0.39583300  1
  Tl  Tl34  1  0.75000000  0.50000000  0.47916700  1
  Tl  Tl35  1  0.25000000  0.00000000  0.52083300  1
  Tl  Tl36  1  0.75000000  1.00000000  0.60416700  1
  Tl  Tl37  1  0.25000000  0.50000000  0.64583300  1
  Tl  Tl38  1  0.75000000  0.50000000  0.72916700  1
  Tl  Tl39  1  0.25000000  0.00000000  0.77083300  1
