# generated using pymatgen
data_MgZn
_symmetry_space_group_name_H-M   'P 1'
_cell_length_a   5.65220468
_cell_length_b   5.81071439
_cell_length_c   42.02870200
_cell_angle_alpha   90.90998255
_cell_angle_beta   87.55997189
_cell_angle_gamma   71.00987415
_symmetry_Int_Tables_number   1
_chemical_formula_structural   MgZn
_chemical_formula_sum   'Mg22 Zn22'
_cell_volume   1303.40698458
_cell_formula_units_Z   22
loop_
 _symmetry_equiv_pos_site_id
 _symmetry_equiv_pos_as_xyz
  1  'x, y, z'
loop_
 _atom_site_type_symbol
 _atom_site_label
 _atom_site_symmetry_multiplicity
 _atom_site_fract_x
 _atom_site_fract_y
 _atom_site_fract_z
 _atom_site_occupancy
  Mg  Mg0  1  0.62250300  0.10699200  0.21994400  1
  Mg  Mg1  1  0.09971900  0.67078500  0.22450100  1
  Mg  Mg2  1  0.34472500  0.88477000  0.27549900  1
  Mg  Mg3  1  0.82194200  0.44856300  0.28005600  1
  Mg  Mg4  1  0.06694700  0.66254800  0.33105500  1
  Mg  Mg5  1  0.54416400  0.22634100  0.33561200  1
  Mg  Mg6  1  0.78916900  0.44032600  0.38661100  1
  Mg  Mg7  1  0.26638600  0.00411900  0.39116700  1
  Mg  Mg8  1  0.51139200  0.21810300  0.44216600  1
  Mg  Mg9  1  0.98860800  0.78189700  0.44672300  1
  Mg  Mg10  1  0.23361400  0.99588100  0.49772200  1
  Mg  Mg11  1  0.71083100  0.55967400  0.50227800  1
  Mg  Mg12  1  0.95583600  0.77365900  0.55327700  1
  Mg  Mg13  1  0.43305300  0.33745200  0.55783400  1
  Mg  Mg14  1  0.67805800  0.55143700  0.60883300  1
  Mg  Mg15  1  0.15527500  0.11523000  0.61338900  1
  Mg  Mg16  1  0.40028100  0.32921500  0.66438800  1
  Mg  Mg17  1  0.87749700  0.89300800  0.66894500  1
  Mg  Mg18  1  0.12250300  0.10699200  0.71994400  1
  Mg  Mg19  1  0.59971900  0.67078500  0.72450100  1
  Mg  Mg20  1  0.84472500  0.88477000  0.77549900  1
  Mg  Mg21  1  0.32194200  0.44856300  0.78005600  1
  Zn  Zn22  1  0.62725200  0.59369500  0.21899400  1
  Zn  Zn23  1  0.09497000  0.18408300  0.22545000  1
  Zn  Zn24  1  0.34947400  0.37147300  0.27455000  1
  Zn  Zn25  1  0.81719300  0.96186000  0.28100600  1
  Zn  Zn26  1  0.07169600  0.14925100  0.33010500  1
  Zn  Zn27  1  0.53941500  0.73963800  0.33656100  1
  Zn  Zn28  1  0.79391800  0.92702800  0.38566100  1
  Zn  Zn29  1  0.26163700  0.51741600  0.39211700  1
  Zn  Zn30  1  0.51614100  0.70480600  0.44121600  1
  Zn  Zn31  1  0.98385900  0.29519400  0.44767300  1
  Zn  Zn32  1  0.23836300  0.48258400  0.49677200  1
  Zn  Zn33  1  0.70608200  0.07297200  0.50322800  1
  Zn  Zn34  1  0.96058500  0.26036200  0.55232700  1
  Zn  Zn35  1  0.42830400  0.85074900  0.55878400  1
  Zn  Zn36  1  0.68280700  0.03814000  0.60788300  1
  Zn  Zn37  1  0.15052600  0.62852700  0.61433900  1
  Zn  Zn38  1  0.40503000  0.81591700  0.66343900  1
  Zn  Zn39  1  0.87274800  0.40630500  0.66989500  1
  Zn  Zn40  1  0.12725200  0.59369500  0.71899400  1
  Zn  Zn41  1  0.59497000  0.18408300  0.72545000  1
  Zn  Zn42  1  0.84947400  0.37147300  0.77455000  1
  Zn  Zn43  1  0.31719300  0.96186000  0.78100600  1
