# generated using pymatgen
data_Mg3Zn5
_symmetry_space_group_name_H-M   'P 1'
_cell_length_a   5.07402209
_cell_length_b   22.10207791
_cell_length_c   42.67993100
_cell_angle_alpha   98.00895109
_cell_angle_beta   93.24549340
_cell_angle_gamma   83.83945518
_symmetry_Int_Tables_number   1
_chemical_formula_structural   Mg3Zn5
_chemical_formula_sum   'Mg54 Zn90'
_cell_volume   4708.12433190
_cell_formula_units_Z   18
loop_
 _symmetry_equiv_pos_site_id
 _symmetry_equiv_pos_as_xyz
  1  'x, y, z'
loop_
 _atom_site_type_symbol
 _atom_site_label
 _atom_site_symmetry_multiplicity
 _atom_site_fract_x
 _atom_site_fract_y
 _atom_site_fract_z
 _atom_site_occupancy
  Mg  Mg0  1  0.28531900  0.93461800  0.38165000  1
  Mg  Mg1  1  0.05955900  0.36750100  0.34576300  1
  Mg  Mg2  1  0.89570400  0.71467800  0.37012400  1
  Mg  Mg3  1  0.06560400  0.27646700  0.27916600  1
  Mg  Mg4  1  0.83927600  0.75528100  0.30624000  1
  Mg  Mg5  1  0.60889700  0.18661400  0.27427200  1
  Mg  Mg6  1  0.67542000  0.10245800  0.33060100  1
  Mg  Mg7  1  0.12608200  0.28334500  0.40209100  1
  Mg  Mg8  1  0.34298800  0.79747600  0.35447800  1
  Mg  Mg9  1  0.51294200  0.45691600  0.35162800  1
  Mg  Mg10  1  0.22203800  0.01304300  0.32473500  1
  Mg  Mg11  1  0.66937600  0.19349200  0.39719800  1
  Mg  Mg12  1  0.44966100  0.53534100  0.29471400  1
  Mg  Mg13  1  0.39199100  0.67248300  0.32188600  1
  Mg  Mg14  1  0.42145400  0.69469000  0.40841700  1
  Mg  Mg15  1  0.08531900  0.53461800  0.58165000  1
  Mg  Mg16  1  0.85955900  0.96750100  0.54576300  1
  Mg  Mg17  1  0.69570400  0.31467800  0.57012400  1
  Mg  Mg18  1  0.79786800  0.96141400  0.42388700  1
  Mg  Mg19  1  0.50418000  0.54684800  0.41822100  1
  Mg  Mg20  1  0.86560400  0.87646700  0.47916600  1
  Mg  Mg21  1  0.63927600  0.35528100  0.50624000  1
  Mg  Mg22  1  0.40889700  0.78661400  0.47427200  1
  Mg  Mg23  1  0.73711100  0.10854500  0.45247700  1
  Mg  Mg24  1  0.47542000  0.70245800  0.53060100  1
  Mg  Mg25  1  0.92608200  0.88334500  0.60209100  1
  Mg  Mg26  1  0.14298800  0.39747600  0.55447800  1
  Mg  Mg27  1  0.31294200  0.05691600  0.55162800  1
  Mg  Mg28  1  0.02203800  0.61304300  0.52473500  1
  Mg  Mg29  1  0.46937600  0.79349200  0.59719800  1
  Mg  Mg30  1  0.11352600  0.37526900  0.46794700  1
  Mg  Mg31  1  0.03079900  0.52311100  0.45814300  1
  Mg  Mg32  1  0.24966100  0.13534100  0.49471400  1
  Mg  Mg33  1  0.19199100  0.27248300  0.52188600  1
  Mg  Mg34  1  0.22145400  0.29469000  0.60841700  1
  Mg  Mg35  1  0.88531900  0.13461800  0.78165000  1
  Mg  Mg36  1  0.65955900  0.56750100  0.74576300  1
  Mg  Mg37  1  0.49570400  0.91467800  0.77012400  1
  Mg  Mg38  1  0.59786800  0.56141400  0.62388700  1
  Mg  Mg39  1  0.30418000  0.14684800  0.61822100  1
  Mg  Mg40  1  0.66560400  0.47646700  0.67916600  1
  Mg  Mg41  1  0.43927600  0.95528100  0.70624000  1
  Mg  Mg42  1  0.20889700  0.38661400  0.67427200  1
  Mg  Mg43  1  0.53711100  0.70854500  0.65247700  1
  Mg  Mg44  1  0.27542000  0.30245800  0.73060100  1
  Mg  Mg45  1  0.72608200  0.48334500  0.80209100  1
  Mg  Mg46  1  0.94298800  0.99747600  0.75447800  1
  Mg  Mg47  1  0.11294200  0.65691600  0.75162800  1
  Mg  Mg48  1  0.82203800  0.21304300  0.72473500  1
  Mg  Mg49  1  0.26937600  0.39349200  0.79719800  1
  Mg  Mg50  1  0.91352600  0.97526900  0.66794700  1
  Mg  Mg51  1  0.83079900  0.12311100  0.65814300  1
  Mg  Mg52  1  0.04966100  0.73534100  0.69471400  1
  Mg  Mg53  1  0.99199100  0.87248300  0.72188600  1
  Zn  Zn54  1  0.81951000  0.85885000  0.36755300  1
  Zn  Zn55  1  0.14949600  0.14270400  0.30289400  1
  Zn  Zn56  1  0.97443000  0.06034700  0.38711600  1
  Zn  Zn57  1  0.86749000  0.23498000  0.33818200  1
  Zn  Zn58  1  0.72838700  0.96722300  0.29060700  1
  Zn  Zn59  1  0.25423000  0.40952900  0.28934600  1
  Zn  Zn60  1  0.56230300  0.32031700  0.31231400  1
  Zn  Zn61  1  0.98387700  0.49793300  0.32289400  1
  Zn  Zn62  1  0.91546900  0.61110900  0.30881100  1
  Zn  Zn63  1  0.00659300  0.50273600  0.38575700  1
  Zn  Zn64  1  0.21008500  0.59050400  0.36059100  1
  Zn  Zn65  1  0.48075000  0.06043000  0.38701800  1
  Zn  Zn66  1  0.17267700  0.14964200  0.36405000  1
  Zn  Zn67  1  0.52489500  0.87945500  0.31577200  1
  Zn  Zn68  1  0.76054900  0.40961200  0.28924800  1
  Zn  Zn69  1  0.36749000  0.23498000  0.33818200  1
  Zn  Zn70  1  0.69552900  0.59265200  0.36042700  1
  Zn  Zn71  1  0.03945000  0.87730800  0.31593700  1
  Zn  Zn72  1  0.75110200  0.97202600  0.35347000  1
  Zn  Zn73  1  0.58548300  0.32725500  0.37347000  1
  Zn  Zn74  1  0.32708500  0.91928800  0.44988300  1
  Zn  Zn75  1  0.61951000  0.45885000  0.56755300  1
  Zn  Zn76  1  0.94949600  0.74270400  0.50289400  1
  Zn  Zn77  1  0.42312500  0.24388600  0.45957300  1
  Zn  Zn78  1  0.77443000  0.66034700  0.58711600  1
  Zn  Zn79  1  0.60682300  0.82844300  0.41621600  1
  Zn  Zn80  1  0.66749000  0.83498000  0.53818200  1
  Zn  Zn81  1  0.20789500  0.15067100  0.42648100  1
  Zn  Zn82  1  0.52838700  0.56722300  0.49060700  1
  Zn  Zn83  1  0.05423000  0.00952900  0.48934600  1
  Zn  Zn84  1  0.71971400  0.65264300  0.46711200  1
  Zn  Zn85  1  0.96161000  0.62058700  0.41378000  1
  Zn  Zn86  1  0.36230300  0.92031700  0.51231400  1
  Zn  Zn87  1  0.78387700  0.09793300  0.52289400  1
  Zn  Zn88  1  0.71546900  0.21110900  0.50881100  1
  Zn  Zn89  1  0.80659300  0.10273600  0.58575700  1
  Zn  Zn90  1  0.01008500  0.19050400  0.56059100  1
  Zn  Zn91  1  0.28075000  0.66043000  0.58701800  1
  Zn  Zn92  1  0.92815700  0.24151700  0.46014800  1
  Zn  Zn93  1  0.97267700  0.74964200  0.56405000  1
  Zn  Zn94  1  0.32489500  0.47945500  0.51577200  1
  Zn  Zn95  1  0.56054900  0.00961200  0.48924800  1
  Zn  Zn96  1  0.16749000  0.83498000  0.53818200  1
  Zn  Zn97  1  0.90970900  0.74310700  0.44184900  1
  Zn  Zn98  1  0.22433300  0.65172600  0.46730800  1
  Zn  Zn99  1  0.49552900  0.19265200  0.56042700  1
  Zn  Zn100  1  0.62527000  0.32685200  0.43451400  1
  Zn  Zn101  1  0.83945000  0.47730800  0.51593700  1
  Zn  Zn102  1  0.55110200  0.57202600  0.55347000  1
  Zn  Zn103  1  0.31064600  0.41823300  0.40905600  1
  Zn  Zn104  1  0.11185500  0.82607300  0.41679000  1
  Zn  Zn105  1  0.26749000  0.03498000  0.43818200  1
  Zn  Zn106  1  0.81526500  0.41731600  0.40925200  1
  Zn  Zn107  1  0.57336900  0.44937200  0.46258400  1
  Zn  Zn108  1  0.38548300  0.92725500  0.57347000  1
  Zn  Zn109  1  0.12708500  0.51928800  0.64988300  1
  Zn  Zn110  1  0.41951000  0.05885000  0.76755300  1
  Zn  Zn111  1  0.74949600  0.34270400  0.70289400  1
  Zn  Zn112  1  0.22312500  0.84388600  0.65957300  1
  Zn  Zn113  1  0.57443000  0.26034700  0.78711600  1
  Zn  Zn114  1  0.40682300  0.42844300  0.61621600  1
  Zn  Zn115  1  0.46749000  0.43498000  0.73818200  1
  Zn  Zn116  1  0.00789500  0.75067100  0.62648100  1
  Zn  Zn117  1  0.32838700  0.16722300  0.69060700  1
  Zn  Zn118  1  0.85423000  0.60952900  0.68934600  1
  Zn  Zn119  1  0.51971400  0.25264300  0.66711200  1
  Zn  Zn120  1  0.76161000  0.22058700  0.61378000  1
  Zn  Zn121  1  0.16230300  0.52031700  0.71231400  1
  Zn  Zn122  1  0.58387700  0.69793300  0.72289400  1
  Zn  Zn123  1  0.51546900  0.81110900  0.70881100  1
  Zn  Zn124  1  0.60659300  0.70273600  0.78575700  1
  Zn  Zn125  1  0.81008500  0.79050400  0.76059100  1
  Zn  Zn126  1  0.08075000  0.26043000  0.78701800  1
  Zn  Zn127  1  0.72815700  0.84151700  0.66014800  1
  Zn  Zn128  1  0.77267700  0.34964200  0.76405000  1
  Zn  Zn129  1  0.12489500  0.07945500  0.71577200  1
  Zn  Zn130  1  0.36054900  0.60961200  0.68924800  1
  Zn  Zn131  1  0.96749000  0.43498000  0.73818200  1
  Zn  Zn132  1  0.70970900  0.34310700  0.64184900  1
  Zn  Zn133  1  0.02433300  0.25172600  0.66730800  1
  Zn  Zn134  1  0.29552900  0.79265200  0.76042700  1
  Zn  Zn135  1  0.42527000  0.92685200  0.63451400  1
  Zn  Zn136  1  0.63945000  0.07730800  0.71593700  1
  Zn  Zn137  1  0.35110200  0.17202600  0.75347000  1
  Zn  Zn138  1  0.11064600  0.01823300  0.60905600  1
  Zn  Zn139  1  0.91185500  0.42607300  0.61679000  1
  Zn  Zn140  1  0.06749000  0.63498000  0.63818200  1
  Zn  Zn141  1  0.61526500  0.01731600  0.60925200  1
  Zn  Zn142  1  0.37336900  0.04937200  0.66258400  1
  Zn  Zn143  1  0.18548300  0.52725500  0.77347000  1
