# generated using pymatgen
data_Mg28Zn47
_symmetry_space_group_name_H-M   'P 1'
_cell_length_a   5.07402209
_cell_length_b   22.10207791
_cell_length_c   42.67993100
_cell_angle_alpha   98.00895109
_cell_angle_beta   93.24549340
_cell_angle_gamma   83.83945518
_symmetry_Int_Tables_number   1
_chemical_formula_structural   Mg28Zn47
_chemical_formula_sum   'Mg56 Zn94'
_cell_volume   4708.12433190
_cell_formula_units_Z   2
loop_
 _symmetry_equiv_pos_site_id
 _symmetry_equiv_pos_as_xyz
  1  'x, y, z'
loop_
 _atom_site_type_symbol
 _atom_site_label
 _atom_site_symmetry_multiplicity
 _atom_site_fract_x
 _atom_site_fract_y
 _atom_site_fract_z
 _atom_site_occupancy
  Mg  Mg0  1  0.42729800  0.70637800  0.39750800  1
  Mg  Mg1  1  0.29116300  0.94630700  0.37074100  1
  Mg  Mg2  1  0.06540400  0.37919000  0.33485300  1
  Mg  Mg3  1  0.90154800  0.72636700  0.35921500  1
  Mg  Mg4  1  0.07144800  0.28815600  0.26825700  1
  Mg  Mg5  1  0.84512000  0.76697000  0.29533100  1
  Mg  Mg6  1  0.61474200  0.19830300  0.26336300  1
  Mg  Mg7  1  0.68126400  0.11414700  0.31969200  1
  Mg  Mg8  1  0.13192600  0.29503300  0.39118200  1
  Mg  Mg9  1  0.34883300  0.80916500  0.34356900  1
  Mg  Mg10  1  0.51878600  0.46860400  0.34071900  1
  Mg  Mg11  1  0.22788200  0.02473200  0.31382600  1
  Mg  Mg12  1  0.67522000  0.20518100  0.38628900  1
  Mg  Mg13  1  0.31937000  0.78695800  0.25703800  1
  Mg  Mg14  1  0.45550500  0.54703000  0.28380500  1
  Mg  Mg15  1  0.39783600  0.68417200  0.31097700  1
  Mg  Mg16  1  0.22729800  0.30637800  0.59750800  1
  Mg  Mg17  1  0.09116300  0.54630700  0.57074100  1
  Mg  Mg18  1  0.86540400  0.97919000  0.53485300  1
  Mg  Mg19  1  0.70154800  0.32636700  0.55921500  1
  Mg  Mg20  1  0.80371300  0.97310300  0.41297800  1
  Mg  Mg21  1  0.51002500  0.55853700  0.40731200  1
  Mg  Mg22  1  0.87144800  0.88815600  0.46825700  1
  Mg  Mg23  1  0.64512000  0.36697000  0.49533100  1
  Mg  Mg24  1  0.41474200  0.79830300  0.46336300  1
  Mg  Mg25  1  0.74295600  0.12023400  0.44156700  1
  Mg  Mg26  1  0.48126400  0.71414700  0.51969200  1
  Mg  Mg27  1  0.93192600  0.89503300  0.59118200  1
  Mg  Mg28  1  0.14883300  0.40916500  0.54356900  1
  Mg  Mg29  1  0.31878600  0.06860400  0.54071900  1
  Mg  Mg30  1  0.02788200  0.62473200  0.51382600  1
  Mg  Mg31  1  0.47522000  0.80518100  0.58628900  1
  Mg  Mg32  1  0.11937000  0.38695800  0.45703800  1
  Mg  Mg33  1  0.03664300  0.53480000  0.44723400  1
  Mg  Mg34  1  0.25550500  0.14703000  0.48380500  1
  Mg  Mg35  1  0.19783600  0.28417200  0.51097700  1
  Mg  Mg36  1  0.02729800  0.90637800  0.79750800  1
  Mg  Mg37  1  0.89116300  0.14630700  0.77074100  1
  Mg  Mg38  1  0.66540400  0.57919000  0.73485300  1
  Mg  Mg39  1  0.50154800  0.92636700  0.75921500  1
  Mg  Mg40  1  0.60371300  0.57310300  0.61297800  1
  Mg  Mg41  1  0.31002500  0.15853700  0.60731200  1
  Mg  Mg42  1  0.67144800  0.48815600  0.66825700  1
  Mg  Mg43  1  0.44512000  0.96697000  0.69533100  1
  Mg  Mg44  1  0.21474200  0.39830300  0.66336300  1
  Mg  Mg45  1  0.54295600  0.72023400  0.64156700  1
  Mg  Mg46  1  0.28126400  0.31414700  0.71969200  1
  Mg  Mg47  1  0.73192600  0.49503300  0.79118200  1
  Mg  Mg48  1  0.94883300  0.00916500  0.74356900  1
  Mg  Mg49  1  0.11878600  0.66860400  0.74071900  1
  Mg  Mg50  1  0.82788200  0.22473200  0.71382600  1
  Mg  Mg51  1  0.27522000  0.40518100  0.78628900  1
  Mg  Mg52  1  0.91937000  0.98695800  0.65703800  1
  Mg  Mg53  1  0.83664300  0.13480000  0.64723400  1
  Mg  Mg54  1  0.05550500  0.74703000  0.68380500  1
  Mg  Mg55  1  0.99783600  0.88417200  0.71097700  1
  Zn  Zn56  1  0.82535500  0.87053900  0.35664400  1
  Zn  Zn57  1  0.15534100  0.15439200  0.29198500  1
  Zn  Zn58  1  0.98027500  0.07203600  0.37620700  1
  Zn  Zn59  1  0.87333400  0.24666800  0.32727300  1
  Zn  Zn60  1  0.73423100  0.97891200  0.27969800  1
  Zn  Zn61  1  0.26007400  0.42121800  0.27843700  1
  Zn  Zn62  1  0.92555900  0.06433200  0.25620300  1
  Zn  Zn63  1  0.56814700  0.33200600  0.30140500  1
  Zn  Zn64  1  0.98972200  0.50962200  0.31198400  1
  Zn  Zn65  1  0.92131400  0.62279800  0.29790200  1
  Zn  Zn66  1  0.01243700  0.51442500  0.37484700  1
  Zn  Zn67  1  0.21592900  0.60219300  0.34968200  1
  Zn  Zn68  1  0.48659400  0.07211900  0.37610900  1
  Zn  Zn69  1  0.17852100  0.16133100  0.35314100  1
  Zn  Zn70  1  0.53073900  0.89114400  0.30486300  1
  Zn  Zn71  1  0.76639400  0.42130100  0.27833900  1
  Zn  Zn72  1  0.37333400  0.24666800  0.32727300  1
  Zn  Zn73  1  0.43017800  0.06341400  0.25639900  1
  Zn  Zn74  1  0.70137400  0.60434000  0.34951700  1
  Zn  Zn75  1  0.04529500  0.88899600  0.30502800  1
  Zn  Zn76  1  0.75694600  0.98371400  0.34256100  1
  Zn  Zn77  1  0.31649000  0.42992200  0.39814700  1
  Zn  Zn78  1  0.82111000  0.42900500  0.39834300  1
  Zn  Zn79  1  0.59132800  0.33894400  0.36256100  1
  Zn  Zn80  1  0.33292900  0.93097700  0.43897400  1
  Zn  Zn81  1  0.62535500  0.47053900  0.55664400  1
  Zn  Zn82  1  0.95534100  0.75439200  0.49198500  1
  Zn  Zn83  1  0.42896900  0.25557500  0.44866400  1
  Zn  Zn84  1  0.78027500  0.67203600  0.57620700  1
  Zn  Zn85  1  0.61266700  0.84013100  0.40530700  1
  Zn  Zn86  1  0.67333400  0.84666800  0.52727300  1
  Zn  Zn87  1  0.21373900  0.16236000  0.41557200  1
  Zn  Zn88  1  0.53423100  0.57891200  0.47969800  1
  Zn  Zn89  1  0.06007400  0.02121800  0.47843700  1
  Zn  Zn90  1  0.72555900  0.66433200  0.45620300  1
  Zn  Zn91  1  0.96745500  0.63227500  0.40287100  1
  Zn  Zn92  1  0.36814700  0.93200600  0.50140500  1
  Zn  Zn93  1  0.78972200  0.10962200  0.51198400  1
  Zn  Zn94  1  0.72131400  0.22279800  0.49790200  1
  Zn  Zn95  1  0.81243700  0.11442500  0.57484700  1
  Zn  Zn96  1  0.01592900  0.20219300  0.54968200  1
  Zn  Zn97  1  0.28659400  0.67211900  0.57610900  1
  Zn  Zn98  1  0.93400100  0.25320500  0.44923900  1
  Zn  Zn99  1  0.97852100  0.76133100  0.55314100  1
  Zn  Zn100  1  0.33073900  0.49114400  0.50486300  1
  Zn  Zn101  1  0.56639400  0.02130100  0.47833900  1
  Zn  Zn102  1  0.17333400  0.84666800  0.52727300  1
  Zn  Zn103  1  0.91555400  0.75479600  0.43094000  1
  Zn  Zn104  1  0.23017800  0.66341400  0.45639900  1
  Zn  Zn105  1  0.50137400  0.20434000  0.54951700  1
  Zn  Zn106  1  0.63111500  0.33854100  0.42360500  1
  Zn  Zn107  1  0.84529500  0.48899600  0.50502800  1
  Zn  Zn108  1  0.55694600  0.58371400  0.54256100  1
  Zn  Zn109  1  0.11649000  0.02992200  0.59814700  1
  Zn  Zn110  1  0.11769900  0.83776200  0.40588100  1
  Zn  Zn111  1  0.27333400  0.04666800  0.42727300  1
  Zn  Zn112  1  0.62111000  0.02900500  0.59834300  1
  Zn  Zn113  1  0.57921400  0.46106100  0.45167400  1
  Zn  Zn114  1  0.39132800  0.93894400  0.56256100  1
  Zn  Zn115  1  0.13292900  0.53097700  0.63897400  1
  Zn  Zn116  1  0.42535500  0.07053900  0.75664400  1
  Zn  Zn117  1  0.75534100  0.35439200  0.69198500  1
  Zn  Zn118  1  0.22896900  0.85557500  0.64866400  1
  Zn  Zn119  1  0.58027500  0.27203600  0.77620700  1
  Zn  Zn120  1  0.41266700  0.44013100  0.60530700  1
  Zn  Zn121  1  0.47333400  0.44666800  0.72727300  1
  Zn  Zn122  1  0.01373900  0.76236000  0.61557200  1
  Zn  Zn123  1  0.33423100  0.17891200  0.67969800  1
  Zn  Zn124  1  0.86007400  0.62121800  0.67843700  1
  Zn  Zn125  1  0.52555900  0.26433200  0.65620300  1
  Zn  Zn126  1  0.76745500  0.23227500  0.60287100  1
  Zn  Zn127  1  0.16814700  0.53200600  0.70140500  1
  Zn  Zn128  1  0.58972200  0.70962200  0.71198400  1
  Zn  Zn129  1  0.52131400  0.82279800  0.69790200  1
  Zn  Zn130  1  0.61243700  0.71442500  0.77484700  1
  Zn  Zn131  1  0.81592900  0.80219300  0.74968200  1
  Zn  Zn132  1  0.08659400  0.27211900  0.77610900  1
  Zn  Zn133  1  0.73400100  0.85320500  0.64923900  1
  Zn  Zn134  1  0.77852100  0.36133100  0.75314100  1
  Zn  Zn135  1  0.13073900  0.09114400  0.70486300  1
  Zn  Zn136  1  0.36639400  0.62130100  0.67833900  1
  Zn  Zn137  1  0.97333400  0.44666800  0.72727300  1
  Zn  Zn138  1  0.71555400  0.35479600  0.63094000  1
  Zn  Zn139  1  0.03017800  0.26341400  0.65639900  1
  Zn  Zn140  1  0.30137400  0.80434000  0.74951700  1
  Zn  Zn141  1  0.43111500  0.93854100  0.62360500  1
  Zn  Zn142  1  0.64529500  0.08899600  0.70502800  1
  Zn  Zn143  1  0.35694600  0.18371400  0.74256100  1
  Zn  Zn144  1  0.91649000  0.62992200  0.79814700  1
  Zn  Zn145  1  0.91769900  0.43776200  0.60588100  1
  Zn  Zn146  1  0.07333400  0.64666800  0.62727300  1
  Zn  Zn147  1  0.42111000  0.62900500  0.79834300  1
  Zn  Zn148  1  0.37921400  0.06106100  0.65167400  1
  Zn  Zn149  1  0.19132800  0.53894400  0.76256100  1
