# generated using pymatgen
data_Mg3Hg8
_symmetry_space_group_name_H-M   'P 1'
_cell_length_a   4.95207500
_cell_length_b   4.95207410
_cell_length_c   46.98637400
_cell_angle_alpha   90.00000000
_cell_angle_beta   90.00000000
_cell_angle_gamma   119.99999934
_symmetry_Int_Tables_number   1
_chemical_formula_structural   Mg3Hg8
_chemical_formula_sum   'Mg6 Hg16'
_cell_volume   997.87677293
_cell_formula_units_Z   2
loop_
 _symmetry_equiv_pos_site_id
 _symmetry_equiv_pos_as_xyz
  1  'x, y, z'
loop_
 _atom_site_type_symbol
 _atom_site_label
 _atom_site_symmetry_multiplicity
 _atom_site_fract_x
 _atom_site_fract_y
 _atom_site_fract_z
 _atom_site_occupancy
  Mg  Mg0  1  0.66666700  0.33333300  0.32500000  1
  Mg  Mg1  1  0.33333300  0.66666700  0.22500000  1
  Mg  Mg2  1  0.66666700  0.33333300  0.52500000  1
  Mg  Mg3  1  0.33333300  0.66666700  0.42500000  1
  Mg  Mg4  1  0.66666700  0.33333300  0.72500000  1
  Mg  Mg5  1  0.33333300  0.66666700  0.62500000  1
  Hg  Hg6  1  0.66666700  0.33333300  0.38963700  1
  Hg  Hg7  1  0.33333300  0.66666700  0.36036300  1
  Hg  Hg8  1  0.33333300  0.66666700  0.28963700  1
  Hg  Hg9  1  0.66666700  0.33333300  0.26036300  1
  Hg  Hg10  1  0.00000000  0.00000000  0.32500000  1
  Hg  Hg11  1  0.00000000  0.00000000  0.22500000  1
  Hg  Hg12  1  0.66666700  0.33333300  0.58963700  1
  Hg  Hg13  1  0.33333300  0.66666700  0.56036300  1
  Hg  Hg14  1  0.33333300  0.66666700  0.48963700  1
  Hg  Hg15  1  0.66666700  0.33333300  0.46036300  1
  Hg  Hg16  1  0.00000000  0.00000000  0.52500000  1
  Hg  Hg17  1  0.00000000  0.00000000  0.42500000  1
  Hg  Hg18  1  0.33333300  0.66666700  0.68963700  1
  Hg  Hg19  1  0.66666700  0.33333300  0.66036300  1
  Hg  Hg20  1  0.00000000  0.00000000  0.72500000  1
  Hg  Hg21  1  0.00000000  0.00000000  0.62500000  1
