# generated using pymatgen
data_MgGa2
_symmetry_space_group_name_H-M   'P 1'
_cell_length_a   4.34920200
_cell_length_b   8.34732573
_cell_length_c   43.30735800
_cell_angle_alpha   88.34823179
_cell_angle_beta   90.00000000
_cell_angle_gamma   74.89939561
_symmetry_Int_Tables_number   1
_chemical_formula_structural   MgGa2
_chemical_formula_sum   'Mg16 Ga32'
_cell_volume   1517.27295674
_cell_formula_units_Z   16
loop_
 _symmetry_equiv_pos_site_id
 _symmetry_equiv_pos_as_xyz
  1  'x, y, z'
loop_
 _atom_site_type_symbol
 _atom_site_label
 _atom_site_symmetry_multiplicity
 _atom_site_fract_x
 _atom_site_fract_y
 _atom_site_fract_z
 _atom_site_occupancy
  Mg  Mg0  1  0.71153800  0.07692300  0.25000000  1
  Mg  Mg1  1  0.90384600  0.69230800  0.21153800  1
  Mg  Mg2  1  0.32692300  0.84615400  0.32692300  1
  Mg  Mg3  1  0.51923100  0.46153800  0.28846200  1
  Mg  Mg4  1  0.94230800  0.61538500  0.40384600  1
  Mg  Mg5  1  0.13461500  0.23076900  0.36538500  1
  Mg  Mg6  1  0.55769200  0.38461500  0.48076900  1
  Mg  Mg7  1  0.75000000  0.00000000  0.44230800  1
  Mg  Mg8  1  0.17307700  0.15384600  0.55769200  1
  Mg  Mg9  1  0.36538500  0.76923100  0.51923100  1
  Mg  Mg10  1  0.78846200  0.92307700  0.63461500  1
  Mg  Mg11  1  0.98076900  0.53846200  0.59615400  1
  Mg  Mg12  1  0.40384600  0.69230800  0.71153800  1
  Mg  Mg13  1  0.59615400  0.30769200  0.67307700  1
  Mg  Mg14  1  0.01923100  0.46153800  0.78846200  1
  Mg  Mg15  1  0.21153800  0.07692300  0.75000000  1
  Ga  Ga16  1  0.32605100  0.84789900  0.26043100  1
  Ga  Ga17  1  0.05682000  0.38636000  0.24761000  1
  Ga  Ga18  1  0.55856500  0.38287100  0.21392800  1
  Ga  Ga19  1  0.28933400  0.92133200  0.20110800  1
  Ga  Ga20  1  0.94143500  0.61712900  0.33735400  1
  Ga  Ga21  1  0.67220500  0.15559100  0.32453300  1
  Ga  Ga22  1  0.17394900  0.15210100  0.29085100  1
  Ga  Ga23  1  0.90471900  0.69056300  0.27803100  1
  Ga  Ga24  1  0.55682000  0.38636000  0.41427700  1
  Ga  Ga25  1  0.28758900  0.92482200  0.40145700  1
  Ga  Ga26  1  0.78933400  0.92133200  0.36777400  1
  Ga  Ga27  1  0.52010300  0.45979400  0.35495400  1
  Ga  Ga28  1  0.17220500  0.15559100  0.49120000  1
  Ga  Ga29  1  0.90297400  0.69405200  0.47838000  1
  Ga  Ga30  1  0.40471900  0.69056300  0.44469700  1
  Ga  Ga31  1  0.13548800  0.22902400  0.43187700  1
  Ga  Ga32  1  0.78758900  0.92482200  0.56812300  1
  Ga  Ga33  1  0.51835800  0.46328300  0.55530300  1
  Ga  Ga34  1  0.02010300  0.45979400  0.52162000  1
  Ga  Ga35  1  0.75087200  0.99825500  0.50880000  1
  Ga  Ga36  1  0.40297400  0.69405200  0.64504600  1
  Ga  Ga37  1  0.13374300  0.23251400  0.63222600  1
  Ga  Ga38  1  0.63548800  0.22902400  0.59854300  1
  Ga  Ga39  1  0.36625700  0.76748600  0.58572300  1
  Ga  Ga40  1  0.01835800  0.46328300  0.72196900  1
  Ga  Ga41  1  0.74912800  0.00174500  0.70914900  1
  Ga  Ga42  1  0.25087200  0.99825500  0.67546700  1
  Ga  Ga43  1  0.98164200  0.53671700  0.66264600  1
  Ga  Ga44  1  0.63374300  0.23251400  0.79889200  1
  Ga  Ga45  1  0.36451200  0.77097600  0.78607200  1
  Ga  Ga46  1  0.86625700  0.76748600  0.75239000  1
  Ga  Ga47  1  0.59702600  0.30594800  0.73956900  1
