# generated using pymatgen
data_Ca8Mg17
_symmetry_space_group_name_H-M   'P 1'
_cell_length_a   6.14690500
_cell_length_b   6.14690535
_cell_length_c   51.92415600
_cell_angle_alpha   90.00000000
_cell_angle_beta   90.00000000
_cell_angle_gamma   120.00000350
_symmetry_Int_Tables_number   1
_chemical_formula_structural   Ca8Mg17
_chemical_formula_sum   'Ca8 Mg17'
_cell_volume   1699.07711157
_cell_formula_units_Z   1
loop_
 _symmetry_equiv_pos_site_id
 _symmetry_equiv_pos_as_xyz
  1  'x, y, z'
loop_
 _atom_site_type_symbol
 _atom_site_label
 _atom_site_symmetry_multiplicity
 _atom_site_fract_x
 _atom_site_fract_y
 _atom_site_fract_z
 _atom_site_occupancy
  Ca  Ca0  1  0.66666700  0.33333300  0.57970800  1
  Ca  Ca1  1  0.33333300  0.66666700  0.47970800  1
  Ca  Ca2  1  0.33333300  0.66666700  0.40362500  1
  Ca  Ca3  1  0.66666700  0.33333300  0.50362500  1
  Ca  Ca4  1  0.66666700  0.33333300  0.77970800  1
  Ca  Ca5  1  0.33333300  0.66666700  0.67970800  1
  Ca  Ca6  1  0.33333300  0.66666700  0.60362500  1
  Ca  Ca7  1  0.66666700  0.33333300  0.70362500  1
  Mg  Mg8  1  0.00000000  0.00000000  0.39166700  1
  Mg  Mg9  1  0.33729900  0.16865000  0.44166700  1
  Mg  Mg10  1  0.16865000  0.33729900  0.54166700  1
  Mg  Mg11  1  0.16865000  0.83135000  0.54166700  1
  Mg  Mg12  1  0.83135000  0.16865000  0.44166700  1
  Mg  Mg13  1  0.00000000  0.00000000  0.49166700  1
  Mg  Mg14  1  0.00000000  0.00000000  0.59166700  1
  Mg  Mg15  1  0.66270100  0.83135000  0.54166700  1
  Mg  Mg16  1  0.83135000  0.66270100  0.44166700  1
  Mg  Mg17  1  0.33729900  0.16865000  0.64166700  1
  Mg  Mg18  1  0.16865000  0.33729900  0.74166700  1
  Mg  Mg19  1  0.16865000  0.83135000  0.74166700  1
  Mg  Mg20  1  0.83135000  0.16865000  0.64166700  1
  Mg  Mg21  1  0.00000000  0.00000000  0.69166700  1
  Mg  Mg22  1  0.00000000  0.00000000  0.79166700  1
  Mg  Mg23  1  0.66270100  0.83135000  0.74166700  1
  Mg  Mg24  1  0.83135000  0.66270100  0.64166700  1
