# generated using pymatgen
data_Ce14Mg115
_symmetry_space_group_name_H-M   'P 1'
_cell_length_a   10.33012900
_cell_length_b   14.43775486
_cell_length_c   46.86335100
_cell_angle_alpha   91.26380978
_cell_angle_beta   90.00000000
_cell_angle_gamma   69.03810193
_symmetry_Int_Tables_number   1
_chemical_formula_structural   Ce14Mg115
_chemical_formula_sum   'Ce14 Mg115'
_cell_volume   6524.99326643
_cell_formula_units_Z   1
loop_
 _symmetry_equiv_pos_site_id
 _symmetry_equiv_pos_as_xyz
  1  'x, y, z'
loop_
 _atom_site_type_symbol
 _atom_site_label
 _atom_site_symmetry_multiplicity
 _atom_site_fract_x
 _atom_site_fract_y
 _atom_site_fract_z
 _atom_site_occupancy
  Ce  Ce0  1  0.42307200  0.15385600  0.34085200  1
  Ce  Ce1  1  0.13735800  0.72528400  0.31704300  1
  Ce  Ce2  1  0.56592900  0.86814100  0.43609000  1
  Ce  Ce3  1  0.70878600  0.58242700  0.36466200  1
  Ce  Ce4  1  0.13735800  0.72528400  0.48370900  1
  Ce  Ce5  1  0.85164400  0.29671300  0.45990000  1
  Ce  Ce6  1  0.28021500  0.43957000  0.57894700  1
  Ce  Ce7  1  0.42307200  0.15385600  0.50751900  1
  Ce  Ce8  1  0.85164400  0.29671300  0.62656600  1
  Ce  Ce9  1  0.56592900  0.86814100  0.60275700  1
  Ce  Ce10  1  0.99450100  0.01099800  0.72180500  1
  Ce  Ce11  1  0.13735800  0.72528400  0.65037600  1
  Ce  Ce12  1  0.56592900  0.86814100  0.76942400  1
  Ce  Ce13  1  0.28021500  0.43957000  0.74561400  1
  Mg  Mg14  1  0.28021500  0.43957000  0.32894700  1
  Mg  Mg15  1  0.06447500  0.35771000  0.34903700  1
  Mg  Mg16  1  0.77883300  0.73725100  0.31305400  1
  Mg  Mg17  1  0.07651400  0.14188900  0.34484100  1
  Mg  Mg18  1  0.48391600  0.73725100  0.31305400  1
  Mg  Mg19  1  0.57781500  0.35771000  0.34903700  1
  Mg  Mg20  1  0.99876300  0.00247300  0.30078300  1
  Mg  Mg21  1  0.56166700  0.87666700  0.35711200  1
  Mg  Mg22  1  0.98261500  0.52143000  0.30885700  1
  Mg  Mg23  1  0.28021500  0.93957000  0.32894700  1
  Mg  Mg24  1  0.78159700  0.14188900  0.34484100  1
  Mg  Mg25  1  0.49595500  0.52143000  0.30885700  1
  Mg  Mg26  1  0.78021500  0.93957000  0.32894700  1
  Mg  Mg27  1  0.99450100  0.01099800  0.47180500  1
  Mg  Mg28  1  0.63735800  0.22528400  0.40037600  1
  Mg  Mg29  1  0.77876000  0.92913900  0.49189500  1
  Mg  Mg30  1  0.42262100  0.66809800  0.42663400  1
  Mg  Mg31  1  0.84356900  0.31286100  0.37838000  1
  Mg  Mg32  1  0.49311900  0.30868000  0.45591100  1
  Mg  Mg33  1  0.23669800  0.52660500  0.43403900  1
  Mg  Mg34  1  0.95098300  0.09803400  0.41023000  1
  Mg  Mg35  1  0.85209500  0.78247000  0.37411700  1
  Mg  Mg36  1  0.58187800  0.44181800  0.41153100  1
  Mg  Mg37  1  0.79080000  0.71331700  0.48769800  1
  Mg  Mg38  1  0.90928100  0.66809800  0.42663400  1
  Mg  Mg39  1  0.90349300  0.88235700  0.43135200  1
  Mg  Mg40  1  0.19820200  0.30868000  0.45591100  1
  Mg  Mg41  1  0.29210100  0.92913900  0.49189500  1
  Mg  Mg42  1  0.43114600  0.13770700  0.42237200  1
  Mg  Mg43  1  0.71304900  0.57390200  0.44364000  1
  Mg  Mg44  1  0.27595200  0.44809500  0.49996900  1
  Mg  Mg45  1  0.32373300  0.35253500  0.39052200  1
  Mg  Mg46  1  0.69690100  0.09285800  0.45171500  1
  Mg  Mg47  1  0.99450100  0.51099800  0.47180500  1
  Mg  Mg48  1  0.21415000  0.88235700  0.43135200  1
  Mg  Mg49  1  0.49588300  0.71331700  0.48769800  1
  Mg  Mg50  1  0.03801800  0.92396300  0.36671200  1
  Mg  Mg51  1  0.21024100  0.09285800  0.45171500  1
  Mg  Mg52  1  0.29841200  0.00875000  0.38922100  1
  Mg  Mg53  1  0.06056600  0.56821100  0.36940000  1
  Mg  Mg54  1  0.36543500  0.78247000  0.37411700  1
  Mg  Mg55  1  0.69283800  0.00875000  0.38922100  1
  Mg  Mg56  1  0.49450100  0.51099800  0.47180500  1
  Mg  Mg57  1  0.97630400  0.44181800  0.41153100  1
  Mg  Mg58  1  0.37122300  0.56821100  0.36940000  1
  Mg  Mg59  1  0.13735800  0.22528400  0.40037600  1
  Mg  Mg60  1  0.13735800  0.72528400  0.40037600  1
  Mg  Mg61  1  0.70878600  0.58242700  0.61466200  1
  Mg  Mg62  1  0.35164400  0.79671300  0.54323300  1
  Mg  Mg63  1  0.49304600  0.50056700  0.63475200  1
  Mg  Mg64  1  0.13690700  0.23952700  0.56949200  1
  Mg  Mg65  1  0.55785500  0.88429000  0.52123700  1
  Mg  Mg66  1  0.20740400  0.88010800  0.59876800  1
  Mg  Mg67  1  0.95098300  0.09803400  0.57689700  1
  Mg  Mg68  1  0.66526900  0.66946200  0.55308700  1
  Mg  Mg69  1  0.56638100  0.35389900  0.51697500  1
  Mg  Mg70  1  0.29616300  0.01324700  0.55438800  1
  Mg  Mg71  1  0.50508600  0.28474600  0.63055500  1
  Mg  Mg72  1  0.62356600  0.23952700  0.56949200  1
  Mg  Mg73  1  0.61777900  0.45378500  0.57420900  1
  Mg  Mg74  1  0.91248700  0.88010800  0.59876800  1
  Mg  Mg75  1  0.00638700  0.50056700  0.63475200  1
  Mg  Mg76  1  0.14543200  0.70913600  0.56522900  1
  Mg  Mg77  1  0.42733500  0.14533000  0.58649700  1
  Mg  Mg78  1  0.99023800  0.01952400  0.64282600  1
  Mg  Mg79  1  0.03801800  0.92396300  0.53337900  1
  Mg  Mg80  1  0.41118600  0.66428700  0.59457200  1
  Mg  Mg81  1  0.70878600  0.08242700  0.61466200  1
  Mg  Mg82  1  0.92843600  0.45378500  0.57420900  1
  Mg  Mg83  1  0.21016900  0.28474600  0.63055500  1
  Mg  Mg84  1  0.75230400  0.49539200  0.50957000  1
  Mg  Mg85  1  0.92452700  0.66428700  0.59457200  1
  Mg  Mg86  1  0.01269800  0.58017800  0.53207800  1
  Mg  Mg87  1  0.77485200  0.13964000  0.51225700  1
  Mg  Mg88  1  0.07972100  0.35389900  0.51697500  1
  Mg  Mg89  1  0.40712400  0.58017800  0.53207800  1
  Mg  Mg90  1  0.20878600  0.08242700  0.61466200  1
  Mg  Mg91  1  0.69059000  0.01324700  0.55438800  1
  Mg  Mg92  1  0.08550800  0.13964000  0.51225700  1
  Mg  Mg93  1  0.85164400  0.79671300  0.54323300  1
  Mg  Mg94  1  0.85164400  0.29671300  0.54323300  1
  Mg  Mg95  1  0.42307200  0.15385600  0.75751900  1
  Mg  Mg96  1  0.06592900  0.36814100  0.68609000  1
  Mg  Mg97  1  0.20733200  0.07199600  0.77760900  1
  Mg  Mg98  1  0.85119200  0.81095600  0.71234900  1
  Mg  Mg99  1  0.27214100  0.45571800  0.66409400  1
  Mg  Mg100  1  0.92169000  0.45153700  0.74162500  1
  Mg  Mg101  1  0.66526900  0.66946200  0.71975400  1
  Mg  Mg102  1  0.37955500  0.24089100  0.69594400  1
  Mg  Mg103  1  0.28066600  0.92532700  0.65983200  1
  Mg  Mg104  1  0.01044900  0.58467600  0.69724500  1
  Mg  Mg105  1  0.21937100  0.85617400  0.77341300  1
  Mg  Mg106  1  0.33785200  0.81095600  0.71234900  1
  Mg  Mg107  1  0.33206500  0.02521400  0.71706600  1
  Mg  Mg108  1  0.62677300  0.45153700  0.74162500  1
  Mg  Mg109  1  0.72067200  0.07199600  0.77760900  1
  Mg  Mg110  1  0.85971800  0.28056400  0.70808600  1
  Mg  Mg111  1  0.14162100  0.71675900  0.72935400  1
  Mg  Mg112  1  0.70452400  0.59095200  0.78568300  1
  Mg  Mg113  1  0.75230400  0.49539200  0.67623600  1
  Mg  Mg114  1  0.12547200  0.23571500  0.73742900  1
  Mg  Mg115  1  0.42307200  0.65385600  0.75751900  1
  Mg  Mg116  1  0.64272100  0.02521400  0.71706600  1
  Mg  Mg117  1  0.92445400  0.85617400  0.77341300  1
  Mg  Mg118  1  0.46659000  0.06682100  0.65242700  1
  Mg  Mg119  1  0.63881300  0.23571500  0.73742900  1
  Mg  Mg120  1  0.72698300  0.15160700  0.67493500  1
  Mg  Mg121  1  0.48913700  0.71106900  0.65511400  1
  Mg  Mg122  1  0.79400700  0.92532700  0.65983200  1
  Mg  Mg123  1  0.12141000  0.15160700  0.67493500  1
  Mg  Mg124  1  0.92307200  0.65385600  0.75751900  1
  Mg  Mg125  1  0.40487500  0.58467600  0.69724500  1
  Mg  Mg126  1  0.79979400  0.71106900  0.65511400  1
  Mg  Mg127  1  0.56592900  0.36814100  0.68609000  1
  Mg  Mg128  1  0.56592900  0.86814100  0.68609000  1
