# generated using pymatgen
data_Mg34Zn59
_symmetry_space_group_name_H-M   'P 1'
_cell_length_a   5.07402260
_cell_length_b   13.26606241
_cell_length_c   57.00757700
_cell_angle_alpha   92.18610401
_cell_angle_beta   87.66012493
_cell_angle_gamma   100.62858194
_symmetry_Int_Tables_number   1
_chemical_formula_structural   Mg34Zn59
_chemical_formula_sum   'Mg34 Zn59'
_cell_volume   3766.49990850
_cell_formula_units_Z   1
loop_
 _symmetry_equiv_pos_site_id
 _symmetry_equiv_pos_as_xyz
  1  'x, y, z'
loop_
 _atom_site_type_symbol
 _atom_site_label
 _atom_site_symmetry_multiplicity
 _atom_site_fract_x
 _atom_site_fract_y
 _atom_site_fract_z
 _atom_site_occupancy
  Mg  Mg0  1  0.23702900  0.61023400  0.38859100  1
  Mg  Mg1  1  0.44653000  0.97706100  0.34199300  1
  Mg  Mg2  1  0.78692300  0.73095200  0.40274100  1
  Mg  Mg3  1  0.11244000  0.40092100  0.42065000  1
  Mg  Mg4  1  0.88544300  0.94141500  0.42453200  1
  Mg  Mg5  1  0.23963900  0.56050100  0.33268200  1
  Mg  Mg6  1  0.43272700  0.11186600  0.49459000  1
  Mg  Mg7  1  0.36816100  0.87356400  0.38986400  1
  Mg  Mg8  1  0.11449200  0.45498700  0.47642900  1
  Mg  Mg9  1  0.55787500  0.21737900  0.35084400  1
  Mg  Mg10  1  0.43533700  0.06213300  0.43868100  1
  Mg  Mg11  1  0.55992600  0.27144500  0.40662300  1
  Mg  Mg12  1  0.22583700  0.69530500  0.48528000  1
  Mg  Mg13  1  0.30420600  0.79880200  0.43740800  1
  Mg  Mg14  1  0.98702900  0.36023400  0.63859100  1
  Mg  Mg15  1  0.19653000  0.72706100  0.59199300  1
  Mg  Mg16  1  0.54845300  0.35788300  0.50171600  1
  Mg  Mg17  1  0.53692300  0.48095200  0.65274100  1
  Mg  Mg18  1  0.66956100  0.65496300  0.56417500  1
  Mg  Mg19  1  0.86244000  0.15092100  0.67065000  1
  Mg  Mg20  1  0.55294900  0.41058200  0.55777200  1
  Mg  Mg21  1  0.63544300  0.69141500  0.67453200  1
  Mg  Mg22  1  0.98963900  0.31050100  0.58268200  1
  Mg  Mg23  1  0.75280600  0.76740300  0.51309800  1
  Mg  Mg24  1  0.87391300  0.06448300  0.57555700  1
  Mg  Mg25  1  0.18272700  0.86186600  0.74459000  1
  Mg  Mg26  1  0.11816100  0.62356400  0.63986400  1
  Mg  Mg27  1  0.86449200  0.20498700  0.72642900  1
  Mg  Mg28  1  0.30787500  0.96737900  0.60084400  1
  Mg  Mg29  1  0.86941700  0.01178400  0.51950000  1
  Mg  Mg30  1  0.18533700  0.81213300  0.68868100  1
  Mg  Mg31  1  0.30992600  0.02144500  0.65662300  1
  Mg  Mg32  1  0.97583700  0.44530500  0.73528000  1
  Mg  Mg33  1  0.05420600  0.54880200  0.68740800  1
  Zn  Zn34  1  0.90044500  0.91759400  0.36798300  1
  Zn  Zn35  1  0.67375200  0.43405900  0.32934900  1
  Zn  Zn36  1  0.09707900  0.91883700  0.47571400  1
  Zn  Zn37  1  0.08119900  0.75792700  0.35125400  1
  Zn  Zn38  1  0.05713400  0.24542400  0.37936300  1
  Zn  Zn39  1  0.89891000  0.41093800  0.36975500  1
  Zn  Zn40  1  0.67566500  0.50419600  0.40443500  1
  Zn  Zn41  1  0.66817800  0.57809600  0.48054200  1
  Zn  Zn42  1  0.77192200  0.75477200  0.45928900  1
  Zn  Zn43  1  0.61523200  0.42694200  0.44791000  1
  Zn  Zn44  1  0.44626400  0.59956500  0.43855100  1
  Zn  Zn45  1  0.59116800  0.91444000  0.47601900  1
  Zn  Zn46  1  0.22610200  0.07280100  0.38872200  1
  Zn  Zn47  1  0.74416200  0.58717400  0.35977100  1
  Zn  Zn48  1  0.39396300  0.40930100  0.36988700  1
  Zn  Zn49  1  0.96143900  0.60266100  0.43809600  1
  Zn  Zn50  1  0.92820500  0.08519200  0.46750200  1
  Zn  Zn51  1  0.71092700  0.06970500  0.38917700  1
  Zn  Zn52  1  0.00418800  0.09427000  0.34673100  1
  Zn  Zn53  1  0.27840300  0.26306500  0.45738600  1
  Zn  Zn54  1  0.57528700  0.75352900  0.35155900  1
  Zn  Zn55  1  0.77345700  0.26142900  0.45751700  1
  Zn  Zn56  1  0.99670100  0.16817000  0.42283700  1
  Zn  Zn57  1  0.99861500  0.23830700  0.49792300  1
  Zn  Zn58  1  0.11681500  0.53731600  0.56170900  1
  Zn  Zn59  1  0.65044500  0.66759400  0.61798300  1
  Zn  Zn60  1  0.42375200  0.18405900  0.57934900  1
  Zn  Zn61  1  0.84707900  0.66883700  0.72571400  1
  Zn  Zn62  1  0.53611800  0.87055700  0.55782700  1
  Zn  Zn63  1  0.83119900  0.50792700  0.60125400  1
  Zn  Zn64  1  0.71118300  0.21118300  0.53863600  1
  Zn  Zn65  1  0.30555200  0.88505000  0.51556400  1
  Zn  Zn66  1  0.80713400  0.99542400  0.62936300  1
  Zn  Zn67  1  0.39249900  0.55146000  0.51941700  1
  Zn  Zn68  1  0.64891000  0.16093800  0.61975500  1
  Zn  Zn69  1  0.42566500  0.25419600  0.65443500  1
  Zn  Zn70  1  0.05063800  0.38252500  0.53023600  1
  Zn  Zn71  1  0.41817800  0.32809600  0.73054200  1
  Zn  Zn72  1  0.52192200  0.50477200  0.70928900  1
  Zn  Zn73  1  0.36523200  0.17694200  0.69791000  1
  Zn  Zn74  1  0.19626400  0.34956500  0.68855100  1
  Zn  Zn75  1  0.02986800  0.87090600  0.55785600  1
  Zn  Zn76  1  0.34116800  0.66444000  0.72601900  1
  Zn  Zn77  1  0.37172800  0.03984100  0.54703700  1
  Zn  Zn78  1  0.97610200  0.82280100  0.63872200  1
  Zn  Zn79  1  0.88624900  0.55180900  0.51944500  1
  Zn  Zn80  1  0.21118300  0.21118300  0.53863600  1
  Zn  Zn81  1  0.49416200  0.33717400  0.60977100  1
  Zn  Zn82  1  0.14396300  0.15930100  0.61988700  1
  Zn  Zn83  1  0.71143900  0.35266100  0.68809600  1
  Zn  Zn84  1  0.67820500  0.83519200  0.71750200  1
  Zn  Zn85  1  0.46092700  0.81970500  0.63917700  1
  Zn  Zn86  1  0.75418800  0.84427000  0.59673100  1
  Zn  Zn87  1  0.02840300  0.01306500  0.70738600  1
  Zn  Zn88  1  0.32528700  0.50352900  0.60155900  1
  Zn  Zn89  1  0.21118300  0.71118300  0.53863600  1
  Zn  Zn90  1  0.52345700  0.01142900  0.70751700  1
  Zn  Zn91  1  0.74670100  0.91817000  0.67283700  1
  Zn  Zn92  1  0.74861500  0.98830700  0.74792300  1
