# generated using pymatgen
data_Mg56Zn93
_symmetry_space_group_name_H-M   'P 1'
_cell_length_a   13.26606221
_cell_length_b   15.53344873
_cell_length_c   48.04736100
_cell_angle_alpha   89.05057746
_cell_angle_beta   95.72936823
_cell_angle_gamma   107.07914806
_symmetry_Int_Tables_number   1
_chemical_formula_structural   Mg56Zn93
_chemical_formula_sum   'Mg112 Zn186'
_cell_volume   9416.24909417
_cell_formula_units_Z   2
loop_
 _symmetry_equiv_pos_site_id
 _symmetry_equiv_pos_as_xyz
  1  'x, y, z'
loop_
 _atom_site_type_symbol
 _atom_site_label
 _atom_site_symmetry_multiplicity
 _atom_site_fract_x
 _atom_site_fract_y
 _atom_site_fract_z
 _atom_site_occupancy
  Mg  Mg0  1  0.74900600  0.91992100  0.21850700  1
  Mg  Mg1  1  0.06923400  0.76845600  0.25343700  1
  Mg  Mg2  1  0.60977900  0.36962300  0.21571200  1
  Mg  Mg3  1  0.88387300  0.02726300  0.26925200  1
  Mg  Mg4  1  0.96931900  0.61283400  0.20908500  1
  Mg  Mg5  1  0.57175100  0.12607800  0.29643100  1
  Mg  Mg6  1  0.71853500  0.57748300  0.19934500  1
  Mg  Mg7  1  0.11612700  0.11774200  0.27256600  1
  Mg  Mg8  1  0.64336400  0.71331900  0.23554100  1
  Mg  Mg9  1  0.03068100  0.43217200  0.23273300  1
  Mg  Mg10  1  0.39022100  0.67538200  0.22610600  1
  Mg  Mg11  1  0.35663600  0.33168700  0.20627700  1
  Mg  Mg12  1  0.01360900  0.93774400  0.23123800  1
  Mg  Mg13  1  0.68159700  0.33266700  0.27990200  1
  Mg  Mg14  1  0.31840300  0.81233900  0.26191600  1
  Mg  Mg15  1  0.28146500  0.46752300  0.24247300  1
  Mg  Mg16  1  0.25099400  0.12508400  0.22331100  1
  Mg  Mg17  1  0.42824900  0.01892800  0.24538700  1
  Mg  Mg18  1  0.93076600  0.37655000  0.28838100  1
  Mg  Mg19  1  0.98639100  0.10726200  0.21058000  1
  Mg  Mg20  1  0.74900600  0.01992100  0.31850700  1
  Mg  Mg21  1  0.06923400  0.86845600  0.35343700  1
  Mg  Mg22  1  0.60977900  0.46962300  0.31571200  1
  Mg  Mg23  1  0.88387300  0.12726300  0.36925200  1
  Mg  Mg24  1  0.96931900  0.71283400  0.30908500  1
  Mg  Mg25  1  0.57175100  0.22607800  0.39643100  1
  Mg  Mg26  1  0.71853500  0.67748300  0.29934500  1
  Mg  Mg27  1  0.11612700  0.21774200  0.37256600  1
  Mg  Mg28  1  0.64336400  0.81331900  0.33554100  1
  Mg  Mg29  1  0.03068100  0.53217200  0.33273300  1
  Mg  Mg30  1  0.39022100  0.77538200  0.32610600  1
  Mg  Mg31  1  0.35663600  0.43168700  0.30627700  1
  Mg  Mg32  1  0.01360900  0.03774400  0.33123800  1
  Mg  Mg33  1  0.68159700  0.43266700  0.37990200  1
  Mg  Mg34  1  0.31840300  0.91233900  0.36191600  1
  Mg  Mg35  1  0.28146500  0.56752300  0.34247300  1
  Mg  Mg36  1  0.25099400  0.22508400  0.32331100  1
  Mg  Mg37  1  0.42824900  0.11892800  0.34538700  1
  Mg  Mg38  1  0.93076600  0.47655000  0.38838100  1
  Mg  Mg39  1  0.98639100  0.20726200  0.31058000  1
  Mg  Mg40  1  0.74900600  0.11992100  0.41850700  1
  Mg  Mg41  1  0.06923400  0.96845600  0.45343700  1
  Mg  Mg42  1  0.60977900  0.56962300  0.41571200  1
  Mg  Mg43  1  0.88387300  0.22726300  0.46925200  1
  Mg  Mg44  1  0.96931900  0.81283400  0.40908500  1
  Mg  Mg45  1  0.57175100  0.32607800  0.49643100  1
  Mg  Mg46  1  0.71853500  0.77748300  0.39934500  1
  Mg  Mg47  1  0.11612700  0.31774200  0.47256600  1
  Mg  Mg48  1  0.64336400  0.91331900  0.43554100  1
  Mg  Mg49  1  0.03068100  0.63217200  0.43273300  1
  Mg  Mg50  1  0.39022100  0.87538200  0.42610600  1
  Mg  Mg51  1  0.35663600  0.53168700  0.40627700  1
  Mg  Mg52  1  0.01360900  0.13774400  0.43123800  1
  Mg  Mg53  1  0.68159700  0.53266700  0.47990200  1
  Mg  Mg54  1  0.31840300  0.01233900  0.46191600  1
  Mg  Mg55  1  0.28146500  0.66752300  0.44247300  1
  Mg  Mg56  1  0.25099400  0.32508400  0.42331100  1
  Mg  Mg57  1  0.42824900  0.21892800  0.44538700  1
  Mg  Mg58  1  0.93076600  0.57655000  0.48838100  1
  Mg  Mg59  1  0.98639100  0.30726200  0.41058000  1
  Mg  Mg60  1  0.74900600  0.21992100  0.51850700  1
  Mg  Mg61  1  0.06923400  0.06845600  0.55343700  1
  Mg  Mg62  1  0.60977900  0.66962300  0.51571200  1
  Mg  Mg63  1  0.88387300  0.32726300  0.56925200  1
  Mg  Mg64  1  0.96931900  0.91283400  0.50908500  1
  Mg  Mg65  1  0.57175100  0.42607800  0.59643100  1
  Mg  Mg66  1  0.71853500  0.87748300  0.49934500  1
  Mg  Mg67  1  0.11612700  0.41774200  0.57256600  1
  Mg  Mg68  1  0.64336400  0.01331900  0.53554100  1
  Mg  Mg69  1  0.03068100  0.73217200  0.53273300  1
  Mg  Mg70  1  0.39022100  0.97538200  0.52610600  1
  Mg  Mg71  1  0.35663600  0.63168700  0.50627700  1
  Mg  Mg72  1  0.01360900  0.23774400  0.53123800  1
  Mg  Mg73  1  0.68159700  0.63266700  0.57990200  1
  Mg  Mg74  1  0.31840300  0.11233900  0.56191600  1
  Mg  Mg75  1  0.28146500  0.76752300  0.54247300  1
  Mg  Mg76  1  0.25099400  0.42508400  0.52331100  1
  Mg  Mg77  1  0.42824900  0.31892800  0.54538700  1
  Mg  Mg78  1  0.93076600  0.67655000  0.58838100  1
  Mg  Mg79  1  0.98639100  0.40726200  0.51058000  1
  Mg  Mg80  1  0.74900600  0.31992100  0.61850700  1
  Mg  Mg81  1  0.06923400  0.16845600  0.65343700  1
  Mg  Mg82  1  0.60977900  0.76962300  0.61571200  1
  Mg  Mg83  1  0.88387300  0.42726300  0.66925200  1
  Mg  Mg84  1  0.96931900  0.01283400  0.60908500  1
  Mg  Mg85  1  0.57175100  0.52607800  0.69643100  1
  Mg  Mg86  1  0.71853500  0.97748300  0.59934500  1
  Mg  Mg87  1  0.11612700  0.51774200  0.67256600  1
  Mg  Mg88  1  0.64336400  0.11331900  0.63554100  1
  Mg  Mg89  1  0.03068100  0.83217200  0.63273300  1
  Mg  Mg90  1  0.39022100  0.07538200  0.62610600  1
  Mg  Mg91  1  0.35663600  0.73168700  0.60627700  1
  Mg  Mg92  1  0.01360900  0.33774400  0.63123800  1
  Mg  Mg93  1  0.68159700  0.73266700  0.67990200  1
  Mg  Mg94  1  0.31840300  0.21233900  0.66191600  1
  Mg  Mg95  1  0.28146500  0.86752300  0.64247300  1
  Mg  Mg96  1  0.25099400  0.52508400  0.62331100  1
  Mg  Mg97  1  0.42824900  0.41892800  0.64538700  1
  Mg  Mg98  1  0.93076600  0.77655000  0.68838100  1
  Mg  Mg99  1  0.98639100  0.50726200  0.61058000  1
  Mg  Mg100  1  0.74900600  0.41992100  0.71850700  1
  Mg  Mg101  1  0.60977900  0.86962300  0.71571200  1
  Mg  Mg102  1  0.96931900  0.11283400  0.70908500  1
  Mg  Mg103  1  0.71853500  0.07748300  0.69934500  1
  Mg  Mg104  1  0.64336400  0.21331900  0.73554100  1
  Mg  Mg105  1  0.03068100  0.93217200  0.73273300  1
  Mg  Mg106  1  0.39022100  0.17538200  0.72610600  1
  Mg  Mg107  1  0.35663600  0.83168700  0.70627700  1
  Mg  Mg108  1  0.01360900  0.43774400  0.73123800  1
  Mg  Mg109  1  0.28146500  0.96752300  0.74247300  1
  Mg  Mg110  1  0.25099400  0.62508400  0.72331100  1
  Mg  Mg111  1  0.98639100  0.60726200  0.71058000  1
  Zn  Zn112  1  0.84920500  0.64843400  0.25455100  1
  Zn  Zn113  1  0.03575800  0.91001200  0.29103100  1
  Zn  Zn114  1  0.51358900  0.74439800  0.27995200  1
  Zn  Zn115  1  0.14473200  0.32828000  0.27837500  1
  Zn  Zn116  1  0.17856500  0.67600300  0.29764500  1
  Zn  Zn117  1  0.85936100  0.76618800  0.21412500  1
  Zn  Zn118  1  0.50000000  0.52250300  0.22090900  1
  Zn  Zn119  1  0.15079500  0.49657200  0.28726800  1
  Zn  Zn120  1  0.37496700  0.86778600  0.20328600  1
  Zn  Zn121  1  0.82105800  0.51952300  0.29480600  1
  Zn  Zn122  1  0.53087400  0.91641600  0.29034600  1
  Zn  Zn123  1  0.65881200  0.02240700  0.25761800  1
  Zn  Zn124  1  0.66294100  0.52536700  0.25737500  1
  Zn  Zn125  1  0.80881900  0.30325300  0.23403700  1
  Zn  Zn126  1  0.96424200  0.23499300  0.25078700  1
  Zn  Zn127  1  0.62503300  0.17721900  0.23853200  1
  Zn  Zn128  1  0.78829600  0.12569400  0.22444300  1
  Zn  Zn129  1  0.17894200  0.62548300  0.24701200  1
  Zn  Zn130  1  0.14063900  0.27881800  0.22769300  1
  Zn  Zn131  1  0.33705900  0.61963800  0.28444300  1
  Zn  Zn132  1  0.21170400  0.91931200  0.21737500  1
  Zn  Zn133  1  0.82143500  0.46900300  0.24417300  1
  Zn  Zn134  1  0.50000000  0.57250300  0.27090900  1
  Zn  Zn135  1  0.69712500  0.86399800  0.27786700  1
  Zn  Zn136  1  0.52936800  0.86640800  0.23981200  1
  Zn  Zn137  1  0.79093800  0.17552900  0.27609700  1
  Zn  Zn138  1  0.30287500  0.28100800  0.26395200  1
  Zn  Zn139  1  0.20906200  0.96947600  0.26572100  1
  Zn  Zn140  1  0.19118100  0.74175200  0.20778100  1
  Zn  Zn141  1  0.47063200  0.17859800  0.20200600  1
  Zn  Zn142  1  0.85526800  0.81672600  0.26344300  1
  Zn  Zn143  1  0.00000000  0.57250300  0.27090900  1
  Zn  Zn144  1  0.46912600  0.22859000  0.25147200  1
  Zn  Zn145  1  0.34118800  0.12259800  0.28420100  1
  Zn  Zn146  1  0.48641100  0.40060800  0.26186600  1
  Zn  Zn147  1  0.84920500  0.74843400  0.35455100  1
  Zn  Zn148  1  0.03575800  0.01001200  0.39103100  1
  Zn  Zn149  1  0.51358900  0.84439800  0.37995200  1
  Zn  Zn150  1  0.14473200  0.42828000  0.37837500  1
  Zn  Zn151  1  0.17856500  0.77600300  0.39764500  1
  Zn  Zn152  1  0.85936100  0.86618800  0.31412500  1
  Zn  Zn153  1  0.50000000  0.62250300  0.32090900  1
  Zn  Zn154  1  0.15079500  0.59657200  0.38726800  1
  Zn  Zn155  1  0.37496700  0.96778600  0.30328600  1
  Zn  Zn156  1  0.82105800  0.61952300  0.39480600  1
  Zn  Zn157  1  0.53087400  0.01641600  0.39034600  1
  Zn  Zn158  1  0.65881200  0.12240700  0.35761800  1
  Zn  Zn159  1  0.66294100  0.62536700  0.35737500  1
  Zn  Zn160  1  0.80881900  0.40325300  0.33403700  1
  Zn  Zn161  1  0.96424200  0.33499300  0.35078700  1
  Zn  Zn162  1  0.62503300  0.27721900  0.33853200  1
  Zn  Zn163  1  0.78829600  0.22569400  0.32444300  1
  Zn  Zn164  1  0.17894200  0.72548300  0.34701200  1
  Zn  Zn165  1  0.14063900  0.37881800  0.32769300  1
  Zn  Zn166  1  0.33705900  0.71963800  0.38444300  1
  Zn  Zn167  1  0.21170400  0.01931200  0.31737500  1
  Zn  Zn168  1  0.82143500  0.56900300  0.34417300  1
  Zn  Zn169  1  0.50000000  0.67250300  0.37090900  1
  Zn  Zn170  1  0.69712500  0.96399800  0.37786700  1
  Zn  Zn171  1  0.52936800  0.96640800  0.33981200  1
  Zn  Zn172  1  0.79093800  0.27552900  0.37609700  1
  Zn  Zn173  1  0.30287500  0.38100800  0.36395200  1
  Zn  Zn174  1  0.20906200  0.06947600  0.36572100  1
  Zn  Zn175  1  0.19118100  0.84175200  0.30778100  1
  Zn  Zn176  1  0.47063200  0.27859800  0.30200600  1
  Zn  Zn177  1  0.85526800  0.91672600  0.36344300  1
  Zn  Zn178  1  0.00000000  0.67250300  0.37090900  1
  Zn  Zn179  1  0.46912600  0.32859000  0.35147200  1
  Zn  Zn180  1  0.34118800  0.22259800  0.38420100  1
  Zn  Zn181  1  0.48641100  0.50060800  0.36186600  1
  Zn  Zn182  1  0.84920500  0.84843400  0.45455100  1
  Zn  Zn183  1  0.03575800  0.11001200  0.49103100  1
  Zn  Zn184  1  0.51358900  0.94439800  0.47995200  1
  Zn  Zn185  1  0.14473200  0.52828000  0.47837500  1
  Zn  Zn186  1  0.17856500  0.87600300  0.49764500  1
  Zn  Zn187  1  0.85936100  0.96618800  0.41412500  1
  Zn  Zn188  1  0.50000000  0.72250300  0.42090900  1
  Zn  Zn189  1  0.15079500  0.69657200  0.48726800  1
  Zn  Zn190  1  0.37496700  0.06778600  0.40328600  1
  Zn  Zn191  1  0.82105800  0.71952300  0.49480600  1
  Zn  Zn192  1  0.53087400  0.11641600  0.49034600  1
  Zn  Zn193  1  0.65881200  0.22240700  0.45761800  1
  Zn  Zn194  1  0.66294100  0.72536700  0.45737500  1
  Zn  Zn195  1  0.80881900  0.50325300  0.43403700  1
  Zn  Zn196  1  0.96424200  0.43499300  0.45078700  1
  Zn  Zn197  1  0.62503300  0.37721900  0.43853200  1
  Zn  Zn198  1  0.78829600  0.32569400  0.42444300  1
  Zn  Zn199  1  0.17894200  0.82548300  0.44701200  1
  Zn  Zn200  1  0.14063900  0.47881800  0.42769300  1
  Zn  Zn201  1  0.33705900  0.81963800  0.48444300  1
  Zn  Zn202  1  0.21170400  0.11931200  0.41737500  1
  Zn  Zn203  1  0.82143500  0.66900300  0.44417300  1
  Zn  Zn204  1  0.50000000  0.77250300  0.47090900  1
  Zn  Zn205  1  0.69712500  0.06399800  0.47786700  1
  Zn  Zn206  1  0.52936800  0.06640800  0.43981200  1
  Zn  Zn207  1  0.79093800  0.37552900  0.47609700  1
  Zn  Zn208  1  0.30287500  0.48100800  0.46395200  1
  Zn  Zn209  1  0.20906200  0.16947600  0.46572100  1
  Zn  Zn210  1  0.19118100  0.94175200  0.40778100  1
  Zn  Zn211  1  0.47063200  0.37859800  0.40200600  1
  Zn  Zn212  1  0.85526800  0.01672600  0.46344300  1
  Zn  Zn213  1  0.00000000  0.77250300  0.47090900  1
  Zn  Zn214  1  0.46912600  0.42859000  0.45147200  1
  Zn  Zn215  1  0.34118800  0.32259800  0.48420100  1
  Zn  Zn216  1  0.48641100  0.60060800  0.46186600  1
  Zn  Zn217  1  0.84920500  0.94843400  0.55455100  1
  Zn  Zn218  1  0.03575800  0.21001200  0.59103100  1
  Zn  Zn219  1  0.51358900  0.04439800  0.57995200  1
  Zn  Zn220  1  0.14473200  0.62828000  0.57837500  1
  Zn  Zn221  1  0.17856500  0.97600300  0.59764500  1
  Zn  Zn222  1  0.85936100  0.06618800  0.51412500  1
  Zn  Zn223  1  0.50000000  0.82250300  0.52090900  1
  Zn  Zn224  1  0.15079500  0.79657200  0.58726800  1
  Zn  Zn225  1  0.37496700  0.16778600  0.50328600  1
  Zn  Zn226  1  0.82105800  0.81952300  0.59480600  1
  Zn  Zn227  1  0.53087400  0.21641600  0.59034600  1
  Zn  Zn228  1  0.65881200  0.32240700  0.55761800  1
  Zn  Zn229  1  0.66294100  0.82536700  0.55737500  1
  Zn  Zn230  1  0.80881900  0.60325300  0.53403700  1
  Zn  Zn231  1  0.96424200  0.53499300  0.55078700  1
  Zn  Zn232  1  0.62503300  0.47721900  0.53853200  1
  Zn  Zn233  1  0.78829600  0.42569400  0.52444300  1
  Zn  Zn234  1  0.17894200  0.92548300  0.54701200  1
  Zn  Zn235  1  0.14063900  0.57881800  0.52769300  1
  Zn  Zn236  1  0.33705900  0.91963800  0.58444300  1
  Zn  Zn237  1  0.21170400  0.21931200  0.51737500  1
  Zn  Zn238  1  0.82143500  0.76900300  0.54417300  1
  Zn  Zn239  1  0.50000000  0.87250300  0.57090900  1
  Zn  Zn240  1  0.69712500  0.16399800  0.57786700  1
  Zn  Zn241  1  0.52936800  0.16640800  0.53981200  1
  Zn  Zn242  1  0.79093800  0.47552900  0.57609700  1
  Zn  Zn243  1  0.30287500  0.58100800  0.56395200  1
  Zn  Zn244  1  0.20906200  0.26947600  0.56572100  1
  Zn  Zn245  1  0.19118100  0.04175200  0.50778100  1
  Zn  Zn246  1  0.47063200  0.47859800  0.50200600  1
  Zn  Zn247  1  0.85526800  0.11672600  0.56344300  1
  Zn  Zn248  1  0.00000000  0.87250300  0.57090900  1
  Zn  Zn249  1  0.46912600  0.52859000  0.55147200  1
  Zn  Zn250  1  0.34118800  0.42259800  0.58420100  1
  Zn  Zn251  1  0.48641100  0.70060800  0.56186600  1
  Zn  Zn252  1  0.84920500  0.04843400  0.65455100  1
  Zn  Zn253  1  0.03575800  0.31001200  0.69103100  1
  Zn  Zn254  1  0.51358900  0.14439800  0.67995200  1
  Zn  Zn255  1  0.14473200  0.72828000  0.67837500  1
  Zn  Zn256  1  0.17856500  0.07600300  0.69764500  1
  Zn  Zn257  1  0.85936100  0.16618800  0.61412500  1
  Zn  Zn258  1  0.50000000  0.92250300  0.62090900  1
  Zn  Zn259  1  0.15079500  0.89657200  0.68726800  1
  Zn  Zn260  1  0.37496700  0.26778600  0.60328600  1
  Zn  Zn261  1  0.82105800  0.91952300  0.69480600  1
  Zn  Zn262  1  0.53087400  0.31641600  0.69034600  1
  Zn  Zn263  1  0.65881200  0.42240700  0.65761800  1
  Zn  Zn264  1  0.66294100  0.92536700  0.65737500  1
  Zn  Zn265  1  0.80881900  0.70325300  0.63403700  1
  Zn  Zn266  1  0.96424200  0.63499300  0.65078700  1
  Zn  Zn267  1  0.62503300  0.57721900  0.63853200  1
  Zn  Zn268  1  0.78829600  0.52569400  0.62444300  1
  Zn  Zn269  1  0.17894200  0.02548300  0.64701200  1
  Zn  Zn270  1  0.14063900  0.67881800  0.62769300  1
  Zn  Zn271  1  0.33705900  0.01963800  0.68444300  1
  Zn  Zn272  1  0.21170400  0.31931200  0.61737500  1
  Zn  Zn273  1  0.82143500  0.86900300  0.64417300  1
  Zn  Zn274  1  0.50000000  0.97250300  0.67090900  1
  Zn  Zn275  1  0.69712500  0.26399800  0.67786700  1
  Zn  Zn276  1  0.52936800  0.26640800  0.63981200  1
  Zn  Zn277  1  0.79093800  0.57552900  0.67609700  1
  Zn  Zn278  1  0.30287500  0.68100800  0.66395200  1
  Zn  Zn279  1  0.20906200  0.36947600  0.66572100  1
  Zn  Zn280  1  0.19118100  0.14175200  0.60778100  1
  Zn  Zn281  1  0.47063200  0.57859800  0.60200600  1
  Zn  Zn282  1  0.85526800  0.21672600  0.66344300  1
  Zn  Zn283  1  0.00000000  0.97250300  0.67090900  1
  Zn  Zn284  1  0.46912600  0.62859000  0.65147200  1
  Zn  Zn285  1  0.34118800  0.52259800  0.68420100  1
  Zn  Zn286  1  0.48641100  0.80060800  0.66186600  1
  Zn  Zn287  1  0.85936100  0.26618800  0.71412500  1
  Zn  Zn288  1  0.50000000  0.02250300  0.72090900  1
  Zn  Zn289  1  0.37496700  0.36778600  0.70328600  1
  Zn  Zn290  1  0.80881900  0.80325300  0.73403700  1
  Zn  Zn291  1  0.62503300  0.67721900  0.73853200  1
  Zn  Zn292  1  0.78829600  0.62569400  0.72444300  1
  Zn  Zn293  1  0.14063900  0.77881800  0.72769300  1
  Zn  Zn294  1  0.21170400  0.41931200  0.71737500  1
  Zn  Zn295  1  0.52936800  0.36640800  0.73981200  1
  Zn  Zn296  1  0.19118100  0.24175200  0.70778100  1
  Zn  Zn297  1  0.47063200  0.67859800  0.70200600  1
