# generated using pymatgen
data_Li4Mg
_symmetry_space_group_name_H-M   'P 1'
_cell_length_a   3.06669500
_cell_length_b   12.84118484
_cell_length_c   42.49336600
_cell_angle_alpha   93.95313665
_cell_angle_beta   90.00000000
_cell_angle_gamma   96.85796838
_symmetry_Int_Tables_number   1
_chemical_formula_structural   Li4Mg
_chemical_formula_sum   'Li40 Mg10'
_cell_volume   1657.40575556
_cell_formula_units_Z   10
loop_
 _symmetry_equiv_pos_site_id
 _symmetry_equiv_pos_as_xyz
  1  'x, y, z'
loop_
 _atom_site_type_symbol
 _atom_site_label
 _atom_site_symmetry_multiplicity
 _atom_site_fract_x
 _atom_site_fract_y
 _atom_site_fract_z
 _atom_site_occupancy
  Li  Li0  1  0.14801900  0.79603900  0.19366700  1
  Li  Li1  1  0.04938500  0.59877000  0.23122400  1
  Li  Li2  1  0.45061500  0.40123000  0.20627600  1
  Li  Li3  1  0.35198100  0.20396100  0.24383300  1
  Li  Li4  1  0.64801900  0.79603900  0.25616700  1
  Li  Li5  1  0.54938500  0.59877000  0.29372400  1
  Li  Li6  1  0.95061500  0.40123000  0.26877600  1
  Li  Li7  1  0.85198100  0.20396100  0.30633300  1
  Li  Li8  1  0.14801900  0.79603900  0.31866700  1
  Li  Li9  1  0.04938500  0.59877000  0.35622400  1
  Li  Li10  1  0.45061500  0.40123000  0.33127600  1
  Li  Li11  1  0.35198100  0.20396100  0.36883300  1
  Li  Li12  1  0.64801900  0.79603900  0.38116700  1
  Li  Li13  1  0.54938500  0.59877000  0.41872400  1
  Li  Li14  1  0.95061500  0.40123000  0.39377600  1
  Li  Li15  1  0.85198100  0.20396100  0.43133300  1
  Li  Li16  1  0.14801900  0.79603900  0.44366700  1
  Li  Li17  1  0.04938500  0.59877000  0.48122400  1
  Li  Li18  1  0.45061500  0.40123000  0.45627600  1
  Li  Li19  1  0.35198100  0.20396100  0.49383300  1
  Li  Li20  1  0.64801900  0.79603900  0.50616700  1
  Li  Li21  1  0.54938500  0.59877000  0.54372400  1
  Li  Li22  1  0.95061500  0.40123000  0.51877600  1
  Li  Li23  1  0.85198100  0.20396100  0.55633300  1
  Li  Li24  1  0.14801900  0.79603900  0.56866700  1
  Li  Li25  1  0.04938500  0.59877000  0.60622400  1
  Li  Li26  1  0.45061500  0.40123000  0.58127600  1
  Li  Li27  1  0.35198100  0.20396100  0.61883300  1
  Li  Li28  1  0.64801900  0.79603900  0.63116700  1
  Li  Li29  1  0.54938500  0.59877000  0.66872400  1
  Li  Li30  1  0.95061500  0.40123000  0.64377600  1
  Li  Li31  1  0.85198100  0.20396100  0.68133300  1
  Li  Li32  1  0.14801900  0.79603900  0.69366700  1
  Li  Li33  1  0.04938500  0.59877000  0.73122400  1
  Li  Li34  1  0.45061500  0.40123000  0.70627600  1
  Li  Li35  1  0.35198100  0.20396100  0.74383300  1
  Li  Li36  1  0.64801900  0.79603900  0.75616700  1
  Li  Li37  1  0.54938500  0.59877000  0.79372400  1
  Li  Li38  1  0.95061500  0.40123000  0.76877600  1
  Li  Li39  1  0.85198100  0.20396100  0.80633300  1
  Mg  Mg40  1  0.75000000  1.00000000  0.21875000  1
  Mg  Mg41  1  0.25000000  0.00000000  0.28125000  1
  Mg  Mg42  1  0.75000000  0.00000000  0.34375000  1
  Mg  Mg43  1  0.25000000  1.00000000  0.40625000  1
  Mg  Mg44  1  0.75000000  1.00000000  0.46875000  1
  Mg  Mg45  1  0.25000000  0.00000000  0.53125000  1
  Mg  Mg46  1  0.75000000  1.00000000  0.59375000  1
  Mg  Mg47  1  0.25000000  0.00000000  0.65625000  1
  Mg  Mg48  1  0.75000000  1.00000000  0.71875000  1
  Mg  Mg49  1  0.25000000  1.00000000  0.78125000  1
