# generated using pymatgen
data_Mg18B71
_symmetry_space_group_name_H-M   'P 1'
_cell_length_a   7.03000979
_cell_length_b   8.63140288
_cell_length_c   43.82089200
_cell_angle_alpha   93.79448005
_cell_angle_beta   87.19767736
_cell_angle_gamma   71.41702184
_symmetry_Int_Tables_number   1
_chemical_formula_structural   Mg18B71
_chemical_formula_sum   'Mg36 B142'
_cell_volume   2507.95072880
_cell_formula_units_Z   2
loop_
 _symmetry_equiv_pos_site_id
 _symmetry_equiv_pos_as_xyz
  1  'x, y, z'
loop_
 _atom_site_type_symbol
 _atom_site_label
 _atom_site_symmetry_multiplicity
 _atom_site_fract_x
 _atom_site_fract_y
 _atom_site_fract_z
 _atom_site_occupancy
  Mg  Mg0  1  0.16442500  0.52182600  0.23515100  1
  Mg  Mg1  1  0.50014200  0.34400100  0.18627800  1
  Mg  Mg2  1  0.76284300  0.78562300  0.21546700  1
  Mg  Mg3  1  0.90172400  0.08020400  0.20596200  1
  Mg  Mg4  1  0.80728200  0.37896900  0.30657900  1
  Mg  Mg5  1  0.14300000  0.20114300  0.25770700  1
  Mg  Mg6  1  0.40570100  0.64276500  0.28689600  1
  Mg  Mg7  1  0.54458100  0.93734700  0.27739000  1
  Mg  Mg8  1  0.45013900  0.23611200  0.37800800  1
  Mg  Mg9  1  0.78585700  0.05828600  0.32913500  1
  Mg  Mg10  1  0.04855800  0.49990800  0.35832400  1
  Mg  Mg11  1  0.18743800  0.79449000  0.34881900  1
  Mg  Mg12  1  0.09299700  0.09325500  0.44943600  1
  Mg  Mg13  1  0.42871400  0.91542900  0.40056400  1
  Mg  Mg14  1  0.69141500  0.35705100  0.42975300  1
  Mg  Mg15  1  0.83029600  0.65163300  0.42024700  1
  Mg  Mg16  1  0.73585400  0.95039800  0.52086500  1
  Mg  Mg17  1  0.07157100  0.77257200  0.47199200  1
  Mg  Mg18  1  0.33427200  0.21419400  0.50118100  1
  Mg  Mg19  1  0.47315300  0.50877600  0.49167600  1
  Mg  Mg20  1  0.37871100  0.80754100  0.59229300  1
  Mg  Mg21  1  0.71442800  0.62971500  0.54342100  1
  Mg  Mg22  1  0.97712900  0.07133700  0.57261000  1
  Mg  Mg23  1  0.11601000  0.36591900  0.56310400  1
  Mg  Mg24  1  0.02156800  0.66468400  0.66372200  1
  Mg  Mg25  1  0.35728500  0.48685800  0.61484900  1
  Mg  Mg26  1  0.61998600  0.92848000  0.64403800  1
  Mg  Mg27  1  0.75886700  0.22306200  0.63453300  1
  Mg  Mg28  1  0.66442500  0.52182600  0.73515100  1
  Mg  Mg29  1  0.00014200  0.34400100  0.68627800  1
  Mg  Mg30  1  0.26284300  0.78562300  0.71546700  1
  Mg  Mg31  1  0.40172400  0.08020400  0.70596200  1
  Mg  Mg32  1  0.30728200  0.37896900  0.80657900  1
  Mg  Mg33  1  0.64300000  0.20114300  0.75770700  1
  Mg  Mg34  1  0.90570100  0.64276500  0.78689600  1
  Mg  Mg35  1  0.04458100  0.93734700  0.77739000  1
  B  B36  1  0.54514800  0.06070200  0.22366500  1
  B  B37  1  0.11942000  0.80512500  0.19776400  1
  B  B38  1  0.15492600  0.29723500  0.20170900  1
  B  B39  1  0.50964200  0.56859200  0.21971900  1
  B  B40  1  0.93973700  0.35030300  0.17854900  1
  B  B41  1  0.72483100  0.51552400  0.24288000  1
  B  B42  1  0.33477900  0.10220200  0.19954100  1
  B  B43  1  0.32978900  0.76362500  0.22188800  1
  B  B44  1  0.29051000  0.90591600  0.19260300  1
  B  B45  1  0.59406100  0.04791300  0.18482500  1
  B  B46  1  0.52534900  0.42629100  0.24563500  1
  B  B47  1  0.91921500  0.35153500  0.21979400  1
  B  B48  1  0.37405800  0.95991100  0.22882500  1
  B  B49  1  0.07050600  0.81791400  0.23660400  1
  B  B50  1  0.78207500  0.29667900  0.24722200  1
  B  B51  1  0.74535300  0.51429200  0.20163500  1
  B  B52  1  0.18800500  0.91784400  0.29509300  1
  B  B53  1  0.76227700  0.66226800  0.26919300  1
  B  B54  1  0.79778300  0.15437800  0.27313800  1
  B  B55  1  0.15249900  0.42573500  0.29114800  1
  B  B56  1  0.58259400  0.20744600  0.24997800  1
  B  B57  1  0.36768800  0.37266700  0.31430800  1
  B  B58  1  0.97763600  0.95934500  0.27096900  1
  B  B59  1  0.97264600  0.62076800  0.29331700  1
  B  B60  1  0.93336700  0.76305800  0.26403200  1
  B  B61  1  0.23691800  0.90505600  0.25625300  1
  B  B62  1  0.16820700  0.28343400  0.31706400  1
  B  B63  1  0.56207200  0.20867700  0.29122200  1
  B  B64  1  0.01691500  0.81705400  0.30025400  1
  B  B65  1  0.71336400  0.67505700  0.30803300  1
  B  B66  1  0.42493200  0.15382200  0.31865000  1
  B  B67  1  0.38821000  0.37143500  0.27306300  1
  B  B68  1  0.83086200  0.77498700  0.36652200  1
  B  B69  1  0.40513400  0.51941100  0.34062100  1
  B  B70  1  0.44064000  0.01152100  0.34456600  1
  B  B71  1  0.79535600  0.28287700  0.36257700  1
  B  B72  1  0.22545100  0.06458900  0.32140600  1
  B  B73  1  0.01054500  0.22981000  0.38573700  1
  B  B74  1  0.62049300  0.81648800  0.34239800  1
  B  B75  1  0.61550300  0.47791000  0.36474500  1
  B  B76  1  0.57622400  0.62020100  0.33546000  1
  B  B77  1  0.87977500  0.76219900  0.32768200  1
  B  B78  1  0.81106400  0.14057700  0.38849300  1
  B  B79  1  0.20492900  0.06582000  0.36265100  1
  B  B80  1  0.65977200  0.67419700  0.37168200  1
  B  B81  1  0.35622100  0.53220000  0.37946100  1
  B  B82  1  0.06779000  0.01096500  0.39007900  1
  B  B83  1  0.03106700  0.22857800  0.34449200  1
  B  B84  1  0.47371900  0.63213000  0.43795000  1
  B  B85  1  0.04799100  0.37655400  0.41205000  1
  B  B86  1  0.08349700  0.86866400  0.41599500  1
  B  B87  1  0.43821300  0.14002000  0.43400500  1
  B  B88  1  0.86830800  0.92173100  0.39283500  1
  B  B89  1  0.65340200  0.08695300  0.45716500  1
  B  B90  1  0.26335000  0.67363100  0.41382600  1
  B  B91  1  0.25836000  0.33505300  0.43617400  1
  B  B92  1  0.21908100  0.47734400  0.40688900  1
  B  B93  1  0.52263300  0.61934100  0.39911000  1
  B  B94  1  0.45392100  0.99772000  0.45992100  1
  B  B95  1  0.84778600  0.92296300  0.43408000  1
  B  B96  1  0.30262900  0.53134000  0.44311100  1
  B  B97  1  0.99907800  0.38934300  0.45089000  1
  B  B98  1  0.71064700  0.86810700  0.46150700  1
  B  B99  1  0.67392400  0.08572100  0.41592000  1
  B  B100  1  0.11657700  0.48927300  0.50937900  1
  B  B101  1  0.69084800  0.23369700  0.48347800  1
  B  B102  1  0.72635400  0.72580700  0.48742300  1
  B  B103  1  0.08107000  0.99716300  0.50543400  1
  B  B104  1  0.51116600  0.77887400  0.46426300  1
  B  B105  1  0.29625900  0.94409600  0.52859400  1
  B  B106  1  0.90620800  0.53077400  0.48525500  1
  B  B107  1  0.90121700  0.19219600  0.50760200  1
  B  B108  1  0.86193800  0.33448700  0.47831800  1
  B  B109  1  0.16549000  0.47648400  0.47053900  1
  B  B110  1  0.09677800  0.85486200  0.53135000  1
  B  B111  1  0.49064300  0.78010600  0.50550800  1
  B  B112  1  0.94548600  0.38848300  0.51454000  1
  B  B113  1  0.64193500  0.24648600  0.52231800  1
  B  B114  1  0.35350400  0.72525000  0.53293600  1
  B  B115  1  0.31678100  0.94286400  0.48734900  1
  B  B116  1  0.75943400  0.34641600  0.58080700  1
  B  B117  1  0.33370500  0.09084000  0.55490700  1
  B  B118  1  0.36921100  0.58295000  0.55885200  1
  B  B119  1  0.72392800  0.85430600  0.57686200  1
  B  B120  1  0.15402300  0.63601700  0.53569200  1
  B  B121  1  0.93911600  0.80123800  0.60002200  1
  B  B122  1  0.54906500  0.38791700  0.55668300  1
  B  B123  1  0.54407400  0.04933900  0.57903100  1
  B  B124  1  0.50479600  0.19163000  0.54974600  1
  B  B125  1  0.80834700  0.33362700  0.54196700  1
  B  B126  1  0.73963500  0.71200500  0.60277800  1
  B  B127  1  0.13350000  0.63724900  0.57693700  1
  B  B128  1  0.58834300  0.24562600  0.58596800  1
  B  B129  1  0.28479200  0.10362800  0.59374700  1
  B  B130  1  0.99636100  0.58239300  0.60436500  1
  B  B131  1  0.95963900  0.80000700  0.55877800  1
  B  B132  1  0.40229100  0.20355900  0.65223600  1
  B  B133  1  0.97656200  0.94798300  0.62633500  1
  B  B134  1  0.01206800  0.44009200  0.63028100  1
  B  B135  1  0.36678500  0.71144900  0.64829100  1
  B  B136  1  0.79688000  0.49316000  0.60712000  1
  B  B137  1  0.58197300  0.65838100  0.67145100  1
  B  B138  1  0.19192200  0.24505900  0.62811200  1
  B  B139  1  0.18693100  0.90648200  0.65045900  1
  B  B140  1  0.14765300  0.04877300  0.62117500  1
  B  B141  1  0.45120400  0.19077000  0.61339600  1
  B  B142  1  0.38249200  0.56914800  0.67420700  1
  B  B143  1  0.77635800  0.49439200  0.64836500  1
  B  B144  1  0.23120100  0.10276900  0.65739700  1
  B  B145  1  0.92764900  0.96077100  0.66517500  1
  B  B146  1  0.63921800  0.43953600  0.67579300  1
  B  B147  1  0.60249600  0.65715000  0.63020600  1
  B  B148  1  0.04514800  0.06070200  0.72366500  1
  B  B149  1  0.61942000  0.80512500  0.69776400  1
  B  B150  1  0.65492600  0.29723500  0.70170900  1
  B  B151  1  0.00964200  0.56859200  0.71971900  1
  B  B152  1  0.43973700  0.35030300  0.67854900  1
  B  B153  1  0.22483100  0.51552400  0.74288000  1
  B  B154  1  0.83477900  0.10220200  0.69954100  1
  B  B155  1  0.82978900  0.76362500  0.72188800  1
  B  B156  1  0.79051000  0.90591600  0.69260300  1
  B  B157  1  0.09406100  0.04791300  0.68482500  1
  B  B158  1  0.02534900  0.42629100  0.74563500  1
  B  B159  1  0.41921500  0.35153500  0.71979400  1
  B  B160  1  0.87405800  0.95991100  0.72882500  1
  B  B161  1  0.57050600  0.81791400  0.73660400  1
  B  B162  1  0.28207500  0.29667900  0.74722200  1
  B  B163  1  0.24535300  0.51429200  0.70163500  1
  B  B164  1  0.68800500  0.91784400  0.79509300  1
  B  B165  1  0.26227700  0.66226800  0.76919300  1
  B  B166  1  0.29778300  0.15437800  0.77313800  1
  B  B167  1  0.65249900  0.42573500  0.79114800  1
  B  B168  1  0.08259400  0.20744600  0.74997800  1
  B  B169  1  0.86768800  0.37266700  0.81430800  1
  B  B170  1  0.47763600  0.95934500  0.77096900  1
  B  B171  1  0.47264600  0.62076800  0.79331700  1
  B  B172  1  0.43336700  0.76305800  0.76403200  1
  B  B173  1  0.73691800  0.90505600  0.75625300  1
  B  B174  1  0.06207200  0.20867700  0.79122200  1
  B  B175  1  0.51691500  0.81705400  0.80025400  1
  B  B176  1  0.21336400  0.67505700  0.80803300  1
  B  B177  1  0.88821000  0.37143500  0.77306300  1
