# generated using pymatgen
data_Mg13Hg6
_symmetry_space_group_name_H-M   'P 1'
_cell_length_a   4.75496500
_cell_length_b   8.61312000
_cell_length_c   44.83598300
_cell_angle_alpha   90.00000000
_cell_angle_beta   90.00000000
_cell_angle_gamma   90.00000000
_symmetry_Int_Tables_number   1
_chemical_formula_structural   Mg13Hg6
_chemical_formula_sum   'Mg26 Hg12'
_cell_volume   1836.26145630
_cell_formula_units_Z   2
loop_
 _symmetry_equiv_pos_site_id
 _symmetry_equiv_pos_as_xyz
  1  'x, y, z'
loop_
 _atom_site_type_symbol
 _atom_site_label
 _atom_site_symmetry_multiplicity
 _atom_site_fract_x
 _atom_site_fract_y
 _atom_site_fract_z
 _atom_site_occupancy
  Mg  Mg0  1  0.75000000  0.71145700  0.34989600  1
  Mg  Mg1  1  0.25000000  0.28854300  0.34058000  1
  Mg  Mg2  1  0.75000000  0.78854300  0.42132400  1
  Mg  Mg3  1  0.25000000  0.21145700  0.41200900  1
  Mg  Mg4  1  0.75000000  0.71145700  0.49275300  1
  Mg  Mg5  1  0.25000000  0.28854300  0.48343700  1
  Mg  Mg6  1  0.25000000  0.56198000  0.39131000  1
  Mg  Mg7  1  0.75000000  0.43802000  0.44202300  1
  Mg  Mg8  1  0.25000000  0.93802000  0.46273800  1
  Mg  Mg9  1  0.75000000  0.06198000  0.37059500  1
  Mg  Mg10  1  0.75000000  0.78854300  0.56418200  1
  Mg  Mg11  1  0.25000000  0.21145700  0.55486600  1
  Mg  Mg12  1  0.75000000  0.71145700  0.63561000  1
  Mg  Mg13  1  0.25000000  0.28854300  0.62629500  1
  Mg  Mg14  1  0.25000000  0.56198000  0.53416700  1
  Mg  Mg15  1  0.75000000  0.43802000  0.58488100  1
  Mg  Mg16  1  0.25000000  0.93802000  0.60559600  1
  Mg  Mg17  1  0.75000000  0.06198000  0.51345200  1
  Mg  Mg18  1  0.75000000  0.78854300  0.70703900  1
  Mg  Mg19  1  0.25000000  0.21145700  0.69772300  1
  Mg  Mg20  1  0.75000000  0.71145700  0.77846700  1
  Mg  Mg21  1  0.25000000  0.28854300  0.76915200  1
  Mg  Mg22  1  0.25000000  0.56198000  0.67702400  1
  Mg  Mg23  1  0.75000000  0.43802000  0.72773800  1
  Mg  Mg24  1  0.25000000  0.93802000  0.74845300  1
  Mg  Mg25  1  0.75000000  0.06198000  0.65630900  1
  Hg  Hg26  1  0.75000000  0.10846200  0.44813300  1
  Hg  Hg27  1  0.25000000  0.89153800  0.38520100  1
  Hg  Hg28  1  0.75000000  0.39153800  0.37670400  1
  Hg  Hg29  1  0.25000000  0.60846200  0.45662900  1
  Hg  Hg30  1  0.75000000  0.10846200  0.59099000  1
  Hg  Hg31  1  0.25000000  0.89153800  0.52805800  1
  Hg  Hg32  1  0.75000000  0.39153800  0.51956100  1
  Hg  Hg33  1  0.25000000  0.60846200  0.59948600  1
  Hg  Hg34  1  0.75000000  0.10846200  0.73384700  1
  Hg  Hg35  1  0.25000000  0.89153800  0.67091500  1
  Hg  Hg36  1  0.75000000  0.39153800  0.66241800  1
  Hg  Hg37  1  0.25000000  0.60846200  0.74234400  1
