# generated using pymatgen
data_Mg12B41
_symmetry_space_group_name_H-M   'P 1'
_cell_length_a   4.39738600
_cell_length_b   9.23299237
_cell_length_c   44.33566700
_cell_angle_alpha   84.37095004
_cell_angle_beta   90.00000000
_cell_angle_gamma   90.00000000
_symmetry_Int_Tables_number   1
_chemical_formula_structural   Mg12B41
_chemical_formula_sum   'Mg24 B82'
_cell_volume   1791.39348480
_cell_formula_units_Z   2
loop_
 _symmetry_equiv_pos_site_id
 _symmetry_equiv_pos_as_xyz
  1  'x, y, z'
loop_
 _atom_site_type_symbol
 _atom_site_label
 _atom_site_symmetry_multiplicity
 _atom_site_fract_x
 _atom_site_fract_y
 _atom_site_fract_z
 _atom_site_occupancy
  Mg  Mg0  1  0.25000000  0.09664100  0.27578900  1
  Mg  Mg1  1  0.75000000  0.29852500  0.29421100  1
  Mg  Mg2  1  0.25000000  0.76198300  0.30334600  1
  Mg  Mg3  1  0.75000000  0.63318200  0.26665400  1
  Mg  Mg4  1  0.25000000  0.69664100  0.37578900  1
  Mg  Mg5  1  0.75000000  0.89852500  0.39421100  1
  Mg  Mg6  1  0.25000000  0.36198300  0.40334600  1
  Mg  Mg7  1  0.75000000  0.23318200  0.36665400  1
  Mg  Mg8  1  0.25000000  0.29664100  0.47578900  1
  Mg  Mg9  1  0.75000000  0.49852500  0.49421100  1
  Mg  Mg10  1  0.25000000  0.96198300  0.50334600  1
  Mg  Mg11  1  0.75000000  0.83318200  0.46665400  1
  Mg  Mg12  1  0.25000000  0.89664100  0.57578900  1
  Mg  Mg13  1  0.75000000  0.09852500  0.59421100  1
  Mg  Mg14  1  0.25000000  0.56198300  0.60334600  1
  Mg  Mg15  1  0.75000000  0.43318200  0.56665400  1
  Mg  Mg16  1  0.25000000  0.49664100  0.67578900  1
  Mg  Mg17  1  0.75000000  0.69852500  0.69421100  1
  Mg  Mg18  1  0.25000000  0.16198300  0.70334600  1
  Mg  Mg19  1  0.75000000  0.03318200  0.66665400  1
  Mg  Mg20  1  0.25000000  0.09664100  0.77578900  1
  Mg  Mg21  1  0.75000000  0.29852500  0.79421100  1
  Mg  Mg22  1  0.25000000  0.76198300  0.80334600  1
  Mg  Mg23  1  0.75000000  0.63318200  0.76665400  1
  B  B24  1  0.25000000  0.51641600  0.29187000  1
  B  B25  1  0.75000000  0.87875000  0.27813000  1
  B  B26  1  0.25000000  0.11641600  0.39187000  1
  B  B27  1  0.75000000  0.47875000  0.37813000  1
  B  B28  1  0.25000000  0.20084200  0.32260700  1
  B  B29  1  0.75000000  0.79432300  0.34739300  1
  B  B30  1  0.25000000  0.06439800  0.35503100  1
  B  B31  1  0.75000000  0.93076700  0.31496900  1
  B  B32  1  0.25000000  0.38806900  0.32564300  1
  B  B33  1  0.75000000  0.60709700  0.34435700  1
  B  B34  1  0.05800500  0.48258300  0.35455500  1
  B  B35  1  0.55800500  0.51258200  0.31544500  1
  B  B36  1  0.44199500  0.90672000  0.34191100  1
  B  B37  1  0.94199500  0.08844600  0.32808900  1
  B  B38  1  0.94199500  0.51258200  0.31544500  1
  B  B39  1  0.44199500  0.48258300  0.35455500  1
  B  B40  1  0.55800500  0.08844600  0.32808900  1
  B  B41  1  0.05800500  0.90672000  0.34191100  1
  B  B42  1  0.25000000  0.71641600  0.49187000  1
  B  B43  1  0.75000000  0.07875000  0.47813000  1
  B  B44  1  0.25000000  0.80084200  0.42260700  1
  B  B45  1  0.75000000  0.39432300  0.44739300  1
  B  B46  1  0.25000000  0.66439800  0.45503100  1
  B  B47  1  0.75000000  0.53076700  0.41496900  1
  B  B48  1  0.25000000  0.98806900  0.42564300  1
  B  B49  1  0.75000000  0.20709700  0.44435700  1
  B  B50  1  0.05800500  0.08258300  0.45455500  1
  B  B51  1  0.55800500  0.11258200  0.41544500  1
  B  B52  1  0.44199500  0.50672000  0.44191100  1
  B  B53  1  0.94199500  0.68844600  0.42808900  1
  B  B54  1  0.94199500  0.11258200  0.41544500  1
  B  B55  1  0.44199500  0.08258300  0.45455500  1
  B  B56  1  0.55800500  0.68844600  0.42808900  1
  B  B57  1  0.05800500  0.50672000  0.44191100  1
  B  B58  1  0.25000000  0.31641600  0.59187000  1
  B  B59  1  0.75000000  0.67875000  0.57813000  1
  B  B60  1  0.25000000  0.40084200  0.52260700  1
  B  B61  1  0.75000000  0.99432300  0.54739300  1
  B  B62  1  0.25000000  0.26439800  0.55503100  1
  B  B63  1  0.75000000  0.13076700  0.51496900  1
  B  B64  1  0.25000000  0.58806900  0.52564300  1
  B  B65  1  0.75000000  0.80709700  0.54435700  1
  B  B66  1  0.05800500  0.68258300  0.55455500  1
  B  B67  1  0.55800500  0.71258200  0.51544500  1
  B  B68  1  0.44199500  0.10672000  0.54191100  1
  B  B69  1  0.94199500  0.28844600  0.52808900  1
  B  B70  1  0.94199500  0.71258200  0.51544500  1
  B  B71  1  0.44199500  0.68258300  0.55455500  1
  B  B72  1  0.55800500  0.28844600  0.52808900  1
  B  B73  1  0.05800500  0.10672000  0.54191100  1
  B  B74  1  0.25000000  0.91641600  0.69187000  1
  B  B75  1  0.75000000  0.27875000  0.67813000  1
  B  B76  1  0.25000000  0.00084200  0.62260700  1
  B  B77  1  0.75000000  0.59432300  0.64739300  1
  B  B78  1  0.25000000  0.86439800  0.65503100  1
  B  B79  1  0.75000000  0.73076700  0.61496900  1
  B  B80  1  0.25000000  0.18806900  0.62564300  1
  B  B81  1  0.75000000  0.40709700  0.64435700  1
  B  B82  1  0.05800500  0.28258300  0.65455500  1
  B  B83  1  0.55800500  0.31258200  0.61544500  1
  B  B84  1  0.44199500  0.70672000  0.64191100  1
  B  B85  1  0.94199500  0.88844600  0.62808900  1
  B  B86  1  0.94199500  0.31258200  0.61544500  1
  B  B87  1  0.44199500  0.28258300  0.65455500  1
  B  B88  1  0.55800500  0.88844600  0.62808900  1
  B  B89  1  0.05800500  0.70672000  0.64191100  1
  B  B90  1  0.25000000  0.51641600  0.79187000  1
  B  B91  1  0.75000000  0.87875000  0.77813000  1
  B  B92  1  0.25000000  0.60084200  0.72260700  1
  B  B93  1  0.75000000  0.19432300  0.74739300  1
  B  B94  1  0.25000000  0.46439800  0.75503100  1
  B  B95  1  0.75000000  0.33076700  0.71496900  1
  B  B96  1  0.25000000  0.78806900  0.72564300  1
  B  B97  1  0.75000000  0.00709700  0.74435700  1
  B  B98  1  0.05800500  0.88258300  0.75455500  1
  B  B99  1  0.55800500  0.91258200  0.71544500  1
  B  B100  1  0.44199500  0.30672000  0.74191100  1
  B  B101  1  0.94199500  0.48844600  0.72808900  1
  B  B102  1  0.94199500  0.91258200  0.71544500  1
  B  B103  1  0.44199500  0.88258300  0.75455500  1
  B  B104  1  0.55800500  0.48844600  0.72808900  1
  B  B105  1  0.05800500  0.30672000  0.74191100  1
