# generated using pymatgen
data_Mg20Au57
_symmetry_space_group_name_H-M   'P 1'
_cell_length_a   9.58286600
_cell_length_b   10.43041211
_cell_length_c   46.00314700
_cell_angle_alpha   94.13499482
_cell_angle_beta   90.00000000
_cell_angle_gamma   90.00000000
_symmetry_Int_Tables_number   1
_chemical_formula_structural   Mg20Au57
_chemical_formula_sum   'Mg40 Au114'
_cell_volume   4586.19431584
_cell_formula_units_Z   2
loop_
 _symmetry_equiv_pos_site_id
 _symmetry_equiv_pos_as_xyz
  1  'x, y, z'
loop_
 _atom_site_type_symbol
 _atom_site_label
 _atom_site_symmetry_multiplicity
 _atom_site_fract_x
 _atom_site_fract_y
 _atom_site_fract_z
 _atom_site_occupancy
  Mg  Mg0  1  0.49920200  0.15539300  0.71470200  1
  Mg  Mg1  1  0.50079800  0.56590400  0.80873600  1
  Mg  Mg2  1  0.99920200  0.56590400  0.80873600  1
  Mg  Mg3  1  0.00079800  0.15539300  0.71470200  1
  Mg  Mg4  1  0.25000000  0.79078500  0.75706100  1
  Mg  Mg5  1  0.75000000  0.93051100  0.76637600  1
  Mg  Mg6  1  0.25000000  0.25485000  0.78799900  1
  Mg  Mg7  1  0.75000000  0.46644600  0.73543900  1
  Mg  Mg8  1  0.49920200  0.28039300  0.58970200  1
  Mg  Mg9  1  0.50079800  0.69090400  0.68373600  1
  Mg  Mg10  1  0.99920200  0.69090400  0.68373600  1
  Mg  Mg11  1  0.00079800  0.28039300  0.58970200  1
  Mg  Mg12  1  0.25000000  0.91578500  0.63206100  1
  Mg  Mg13  1  0.75000000  0.05551100  0.64137600  1
  Mg  Mg14  1  0.25000000  0.37985000  0.66299900  1
  Mg  Mg15  1  0.75000000  0.59144600  0.61043900  1
  Mg  Mg16  1  0.49920200  0.40539300  0.46470200  1
  Mg  Mg17  1  0.50079800  0.81590400  0.55873600  1
  Mg  Mg18  1  0.99920200  0.81590400  0.55873600  1
  Mg  Mg19  1  0.00079800  0.40539300  0.46470200  1
  Mg  Mg20  1  0.25000000  0.04078500  0.50706100  1
  Mg  Mg21  1  0.75000000  0.18051100  0.51637600  1
  Mg  Mg22  1  0.25000000  0.50485000  0.53799900  1
  Mg  Mg23  1  0.75000000  0.71644600  0.48543900  1
  Mg  Mg24  1  0.49920200  0.53039300  0.33970200  1
  Mg  Mg25  1  0.50079800  0.94090400  0.43373600  1
  Mg  Mg26  1  0.99920200  0.94090400  0.43373600  1
  Mg  Mg27  1  0.00079800  0.53039300  0.33970200  1
  Mg  Mg28  1  0.25000000  0.16578500  0.38206100  1
  Mg  Mg29  1  0.75000000  0.30551100  0.39137600  1
  Mg  Mg30  1  0.25000000  0.62985000  0.41299900  1
  Mg  Mg31  1  0.75000000  0.84144600  0.36043900  1
  Mg  Mg32  1  0.49920200  0.65539300  0.21470200  1
  Mg  Mg33  1  0.50079800  0.06590400  0.30873600  1
  Mg  Mg34  1  0.99920200  0.06590400  0.30873600  1
  Mg  Mg35  1  0.00079800  0.65539300  0.21470200  1
  Mg  Mg36  1  0.25000000  0.29078500  0.25706100  1
  Mg  Mg37  1  0.75000000  0.43051100  0.26637600  1
  Mg  Mg38  1  0.25000000  0.75485000  0.28799900  1
  Mg  Mg39  1  0.75000000  0.96644600  0.23543900  1
  Au  Au40  1  0.00000000  0.89175800  0.73060900  1
  Au  Au41  1  0.50000000  0.82953800  0.79282900  1
  Au  Au42  1  0.00000000  0.82953800  0.79282900  1
  Au  Au43  1  0.50000000  0.89175800  0.73060900  1
  Au  Au44  1  0.00054900  0.62432700  0.74596400  1
  Au  Au45  1  0.99945100  0.09697000  0.77747400  1
  Au  Au46  1  0.50054900  0.09697000  0.77747400  1
  Au  Au47  1  0.49945100  0.62432700  0.74596400  1
  Au  Au48  1  0.75000000  0.19826100  0.75062100  1
  Au  Au49  1  0.25000000  0.58604700  0.70980600  1
  Au  Au50  1  0.25000000  0.52303600  0.77281700  1
  Au  Au51  1  0.75000000  0.26025000  0.68863100  1
  Au  Au52  1  0.75000000  0.72870200  0.71964900  1
  Au  Au53  1  0.25000000  0.05498200  0.74140100  1
  Au  Au54  1  0.25000000  0.99259400  0.80378900  1
  Au  Au55  1  0.75000000  0.66631500  0.78203700  1
  Au  Au56  1  0.50000000  0.42314800  0.69921900  1
  Au  Au57  1  0.50000000  0.36064800  0.76171900  1
  Au  Au58  1  0.00000000  0.42314800  0.69921900  1
  Au  Au59  1  0.00000000  0.36064800  0.76171900  1
  Au  Au60  1  0.25000000  0.32022800  0.72569100  1
  Au  Au61  1  0.75000000  0.40106800  0.79774700  1
  Au  Au62  1  0.25000000  0.84705200  0.69414600  1
  Au  Au63  1  0.75000000  0.99924400  0.70429200  1
  Au  Au64  1  0.00000000  0.01675800  0.60560900  1
  Au  Au65  1  0.50000000  0.95453800  0.66782900  1
  Au  Au66  1  0.00000000  0.95453800  0.66782900  1
  Au  Au67  1  0.50000000  0.01675800  0.60560900  1
  Au  Au68  1  0.00054900  0.74932700  0.62096400  1
  Au  Au69  1  0.99945100  0.22197000  0.65247400  1
  Au  Au70  1  0.50054900  0.22197000  0.65247400  1
  Au  Au71  1  0.49945100  0.74932700  0.62096400  1
  Au  Au72  1  0.75000000  0.32326100  0.62562100  1
  Au  Au73  1  0.25000000  0.71104700  0.58480600  1
  Au  Au74  1  0.25000000  0.64803600  0.64781700  1
  Au  Au75  1  0.75000000  0.38525000  0.56363100  1
  Au  Au76  1  0.75000000  0.85370200  0.59464900  1
  Au  Au77  1  0.25000000  0.17998200  0.61640100  1
  Au  Au78  1  0.25000000  0.11759400  0.67878900  1
  Au  Au79  1  0.75000000  0.79131500  0.65703700  1
  Au  Au80  1  0.50000000  0.54814800  0.57421900  1
  Au  Au81  1  0.50000000  0.48564800  0.63671900  1
  Au  Au82  1  0.00000000  0.54814800  0.57421900  1
  Au  Au83  1  0.00000000  0.48564800  0.63671900  1
  Au  Au84  1  0.25000000  0.44522800  0.60069100  1
  Au  Au85  1  0.75000000  0.52606800  0.67274700  1
  Au  Au86  1  0.25000000  0.97205200  0.56914600  1
  Au  Au87  1  0.75000000  0.12424400  0.57929200  1
  Au  Au88  1  0.00000000  0.14175800  0.48060900  1
  Au  Au89  1  0.50000000  0.07953800  0.54282900  1
  Au  Au90  1  0.00000000  0.07953800  0.54282900  1
  Au  Au91  1  0.50000000  0.14175800  0.48060900  1
  Au  Au92  1  0.00054900  0.87432700  0.49596400  1
  Au  Au93  1  0.99945100  0.34697000  0.52747400  1
  Au  Au94  1  0.50054900  0.34697000  0.52747400  1
  Au  Au95  1  0.49945100  0.87432700  0.49596400  1
  Au  Au96  1  0.75000000  0.44826100  0.50062100  1
  Au  Au97  1  0.25000000  0.83604700  0.45980600  1
  Au  Au98  1  0.25000000  0.77303600  0.52281700  1
  Au  Au99  1  0.75000000  0.51025000  0.43863100  1
  Au  Au100  1  0.75000000  0.97870200  0.46964900  1
  Au  Au101  1  0.25000000  0.30498200  0.49140100  1
  Au  Au102  1  0.25000000  0.24259400  0.55378900  1
  Au  Au103  1  0.75000000  0.91631500  0.53203700  1
  Au  Au104  1  0.50000000  0.67314800  0.44921900  1
  Au  Au105  1  0.50000000  0.61064800  0.51171900  1
  Au  Au106  1  0.00000000  0.67314800  0.44921900  1
  Au  Au107  1  0.00000000  0.61064800  0.51171900  1
  Au  Au108  1  0.25000000  0.57022800  0.47569100  1
  Au  Au109  1  0.75000000  0.65106800  0.54774700  1
  Au  Au110  1  0.25000000  0.09705200  0.44414600  1
  Au  Au111  1  0.75000000  0.24924400  0.45429200  1
  Au  Au112  1  0.00000000  0.26675800  0.35560900  1
  Au  Au113  1  0.50000000  0.20453800  0.41782900  1
  Au  Au114  1  0.00000000  0.20453800  0.41782900  1
  Au  Au115  1  0.50000000  0.26675800  0.35560900  1
  Au  Au116  1  0.00054900  0.99932700  0.37096400  1
  Au  Au117  1  0.99945100  0.47197000  0.40247400  1
  Au  Au118  1  0.50054900  0.47197000  0.40247400  1
  Au  Au119  1  0.49945100  0.99932700  0.37096400  1
  Au  Au120  1  0.75000000  0.57326100  0.37562100  1
  Au  Au121  1  0.25000000  0.96104700  0.33480600  1
  Au  Au122  1  0.25000000  0.89803600  0.39781700  1
  Au  Au123  1  0.75000000  0.63525000  0.31363100  1
  Au  Au124  1  0.75000000  0.10370200  0.34464900  1
  Au  Au125  1  0.25000000  0.42998200  0.36640100  1
  Au  Au126  1  0.25000000  0.36759400  0.42878900  1
  Au  Au127  1  0.75000000  0.04131500  0.40703700  1
  Au  Au128  1  0.50000000  0.79814800  0.32421900  1
  Au  Au129  1  0.50000000  0.73564800  0.38671900  1
  Au  Au130  1  0.00000000  0.79814800  0.32421900  1
  Au  Au131  1  0.00000000  0.73564800  0.38671900  1
  Au  Au132  1  0.25000000  0.69522800  0.35069100  1
  Au  Au133  1  0.75000000  0.77606800  0.42274700  1
  Au  Au134  1  0.25000000  0.22205200  0.31914600  1
  Au  Au135  1  0.75000000  0.37424400  0.32929200  1
  Au  Au136  1  0.00000000  0.39175800  0.23060900  1
  Au  Au137  1  0.50000000  0.32953800  0.29282900  1
  Au  Au138  1  0.00000000  0.32953800  0.29282900  1
  Au  Au139  1  0.50000000  0.39175800  0.23060900  1
  Au  Au140  1  0.00054900  0.12432700  0.24596400  1
  Au  Au141  1  0.99945100  0.59697000  0.27747400  1
  Au  Au142  1  0.50054900  0.59697000  0.27747400  1
  Au  Au143  1  0.49945100  0.12432700  0.24596400  1
  Au  Au144  1  0.75000000  0.69826100  0.25062100  1
  Au  Au145  1  0.25000000  0.02303600  0.27281700  1
  Au  Au146  1  0.75000000  0.22870200  0.21964900  1
  Au  Au147  1  0.25000000  0.55498200  0.24140100  1
  Au  Au148  1  0.25000000  0.49259400  0.30378900  1
  Au  Au149  1  0.75000000  0.16631500  0.28203700  1
  Au  Au150  1  0.50000000  0.86064800  0.26171900  1
  Au  Au151  1  0.00000000  0.86064800  0.26171900  1
  Au  Au152  1  0.25000000  0.82022800  0.22569100  1
  Au  Au153  1  0.75000000  0.90106800  0.29774700  1
