# generated using pymatgen
data_Mg15Pd29
_symmetry_space_group_name_H-M   'P 1'
_cell_length_a   6.94548400
_cell_length_b   8.17953600
_cell_length_c   43.48413300
_cell_angle_alpha   90.00000000
_cell_angle_beta   87.55073761
_cell_angle_gamma   90.00000000
_symmetry_Int_Tables_number   1
_chemical_formula_structural   Mg15Pd29
_chemical_formula_sum   'Mg30 Pd58'
_cell_volume   2468.11317673
_cell_formula_units_Z   2
loop_
 _symmetry_equiv_pos_site_id
 _symmetry_equiv_pos_as_xyz
  1  'x, y, z'
loop_
 _atom_site_type_symbol
 _atom_site_label
 _atom_site_symmetry_multiplicity
 _atom_site_fract_x
 _atom_site_fract_y
 _atom_site_fract_z
 _atom_site_occupancy
  Mg  Mg0  1  0.46797600  0.59827400  0.26267100  1
  Mg  Mg1  1  0.86780300  0.40172600  0.25014900  1
  Mg  Mg2  1  0.08336100  0.59827400  0.33959400  1
  Mg  Mg3  1  0.48318800  0.40172600  0.32707200  1
  Mg  Mg4  1  0.77566900  0.90172600  0.30113300  1
  Mg  Mg5  1  0.17549500  0.09827400  0.28861100  1
  Mg  Mg6  1  0.69874600  0.59827400  0.41651700  1
  Mg  Mg7  1  0.09857200  0.40172600  0.40399600  1
  Mg  Mg8  1  0.39105300  0.90172600  0.37805600  1
  Mg  Mg9  1  0.79088000  0.09827400  0.36553400  1
  Mg  Mg10  1  0.31413000  0.59827400  0.49344000  1
  Mg  Mg11  1  0.71395700  0.40172600  0.48091900  1
  Mg  Mg12  1  0.00643800  0.90172600  0.45497900  1
  Mg  Mg13  1  0.40626400  0.09827400  0.44245700  1
  Mg  Mg14  1  0.92951500  0.59827400  0.57036300  1
  Mg  Mg15  1  0.32934100  0.40172600  0.55784200  1
  Mg  Mg16  1  0.62182300  0.90172600  0.53190200  1
  Mg  Mg17  1  0.02164900  0.09827400  0.51938000  1
  Mg  Mg18  1  0.54489900  0.59827400  0.64728600  1
  Mg  Mg19  1  0.94472600  0.40172600  0.63476500  1
  Mg  Mg20  1  0.23720700  0.90172600  0.60882500  1
  Mg  Mg21  1  0.63703400  0.09827400  0.59630300  1
  Mg  Mg22  1  0.16028400  0.59827400  0.72421000  1
  Mg  Mg23  1  0.56011100  0.40172600  0.71168800  1
  Mg  Mg24  1  0.85259200  0.90172600  0.68574800  1
  Mg  Mg25  1  0.25241800  0.09827400  0.67322600  1
  Mg  Mg26  1  0.77566900  0.59827400  0.80113300  1
  Mg  Mg27  1  0.17549500  0.40172600  0.78861100  1
  Mg  Mg28  1  0.46797600  0.90172600  0.76267100  1
  Mg  Mg29  1  0.86780300  0.09827400  0.75014900  1
  Pd  Pd30  1  0.47395200  0.92737900  0.26341800  1
  Pd  Pd31  1  0.86182800  0.07262100  0.24940300  1
  Pd  Pd32  1  0.08933600  0.92737900  0.34034100  1
  Pd  Pd33  1  0.47721200  0.07262100  0.32632600  1
  Pd  Pd34  1  0.78164400  0.57262100  0.30188000  1
  Pd  Pd35  1  0.16952000  0.42737900  0.28786400  1
  Pd  Pd36  1  0.52984400  0.26411300  0.27040500  1
  Pd  Pd37  1  0.42132000  0.73588700  0.31933900  1
  Pd  Pd38  1  0.83753600  0.23588700  0.30886600  1
  Pd  Pd39  1  0.11362800  0.76411300  0.28087800  1
  Pd  Pd40  1  0.70472100  0.92737900  0.41726400  1
  Pd  Pd41  1  0.09259700  0.07262100  0.40324900  1
  Pd  Pd42  1  0.39702800  0.57262100  0.37880300  1
  Pd  Pd43  1  0.78490500  0.42737900  0.36478700  1
  Pd  Pd44  1  0.14522900  0.26411300  0.34732800  1
  Pd  Pd45  1  0.03670500  0.73588700  0.39626200  1
  Pd  Pd46  1  0.45292100  0.23588700  0.38578900  1
  Pd  Pd47  1  0.72901200  0.76411300  0.35780100  1
  Pd  Pd48  1  0.32010500  0.92737900  0.49418700  1
  Pd  Pd49  1  0.70798200  0.07262100  0.48017200  1
  Pd  Pd50  1  0.01241300  0.57262100  0.45572600  1
  Pd  Pd51  1  0.40028900  0.42737900  0.44171000  1
  Pd  Pd52  1  0.76061300  0.26411300  0.42425100  1
  Pd  Pd53  1  0.65208900  0.73588700  0.47318500  1
  Pd  Pd54  1  0.06830500  0.23588700  0.46271200  1
  Pd  Pd55  1  0.34439700  0.76411300  0.43472400  1
  Pd  Pd56  1  0.93549000  0.92737900  0.57111000  1
  Pd  Pd57  1  0.32336600  0.07262100  0.55709500  1
  Pd  Pd58  1  0.62779800  0.57262100  0.53264900  1
  Pd  Pd59  1  0.01567400  0.42737900  0.51863300  1
  Pd  Pd60  1  0.37599800  0.26411300  0.50117400  1
  Pd  Pd61  1  0.26747400  0.73588700  0.55010800  1
  Pd  Pd62  1  0.68369000  0.23588700  0.53963500  1
  Pd  Pd63  1  0.95978200  0.76411300  0.51164700  1
  Pd  Pd64  1  0.55087500  0.92737900  0.64803300  1
  Pd  Pd65  1  0.93875100  0.07262100  0.63401800  1
  Pd  Pd66  1  0.24318200  0.57262100  0.60957200  1
  Pd  Pd67  1  0.63105900  0.42737900  0.59555600  1
  Pd  Pd68  1  0.99138200  0.26411300  0.57809700  1
  Pd  Pd69  1  0.88285800  0.73588700  0.62703100  1
  Pd  Pd70  1  0.29907500  0.23588700  0.61655800  1
  Pd  Pd71  1  0.57516600  0.76411300  0.58857000  1
  Pd  Pd72  1  0.16625900  0.92737900  0.72495600  1
  Pd  Pd73  1  0.55413600  0.07262100  0.71094100  1
  Pd  Pd74  1  0.85856700  0.57262100  0.68649500  1
  Pd  Pd75  1  0.24644300  0.42737900  0.67247900  1
  Pd  Pd76  1  0.60676700  0.26411300  0.65502000  1
  Pd  Pd77  1  0.49824300  0.73588700  0.70395400  1
  Pd  Pd78  1  0.91445900  0.23588700  0.69348100  1
  Pd  Pd79  1  0.19055100  0.76411300  0.66549300  1
  Pd  Pd80  1  0.78164400  0.92737900  0.80188000  1
  Pd  Pd81  1  0.16952000  0.07262100  0.78786400  1
  Pd  Pd82  1  0.47395200  0.57262100  0.76341800  1
  Pd  Pd83  1  0.86182800  0.42737900  0.74940300  1
  Pd  Pd84  1  0.22215200  0.26411300  0.73194300  1
  Pd  Pd85  1  0.11362800  0.73588700  0.78087800  1
  Pd  Pd86  1  0.52984400  0.23588700  0.77040500  1
  Pd  Pd87  1  0.80593500  0.76411300  0.74241600  1
