# generated using pymatgen
data_Mg28Ni57
_symmetry_space_group_name_H-M   'P 1'
_cell_length_a   8.34586100
_cell_length_b   16.44013778
_cell_length_c   43.36636500
_cell_angle_alpha   98.42683803
_cell_angle_beta   90.00000000
_cell_angle_gamma   75.29598462
_symmetry_Int_Tables_number   1
_chemical_formula_structural   Mg28Ni57
_chemical_formula_sum   'Mg84 Ni171'
_cell_volume   5688.86568255
_cell_formula_units_Z   3
loop_
 _symmetry_equiv_pos_site_id
 _symmetry_equiv_pos_as_xyz
  1  'x, y, z'
loop_
 _atom_site_type_symbol
 _atom_site_label
 _atom_site_symmetry_multiplicity
 _atom_site_fract_x
 _atom_site_fract_y
 _atom_site_fract_z
 _atom_site_occupancy
  Mg  Mg0  1  0.64024400  0.90702400  0.23441800  1
  Mg  Mg1  1  0.54726900  0.09297600  0.24474900  1
  Mg  Mg2  1  0.89024400  0.40702400  0.20664000  1
  Mg  Mg3  1  0.79726900  0.59297600  0.21697100  1
  Mg  Mg4  1  0.84911500  0.15594900  0.24824700  1
  Mg  Mg5  1  0.33839800  0.84405100  0.23091900  1
  Mg  Mg6  1  0.43244900  0.65594900  0.22046900  1
  Mg  Mg7  1  0.25506400  0.34405100  0.20314200  1
  Mg  Mg8  1  0.14024400  0.90702400  0.28997400  1
  Mg  Mg9  1  0.04726900  0.09297600  0.30030400  1
  Mg  Mg10  1  0.39024400  0.40702400  0.26219600  1
  Mg  Mg11  1  0.29726900  0.59297600  0.27252600  1
  Mg  Mg12  1  0.34911500  0.15594900  0.30380300  1
  Mg  Mg13  1  0.83839800  0.84405100  0.28647500  1
  Mg  Mg14  1  0.93244900  0.65594900  0.27602500  1
  Mg  Mg15  1  0.75506400  0.34405100  0.25869700  1
  Mg  Mg16  1  0.64024400  0.90702400  0.34552900  1
  Mg  Mg17  1  0.54726900  0.09297600  0.35586000  1
  Mg  Mg18  1  0.89024400  0.40702400  0.31775100  1
  Mg  Mg19  1  0.79726900  0.59297600  0.32808200  1
  Mg  Mg20  1  0.84911500  0.15594900  0.35935800  1
  Mg  Mg21  1  0.33839800  0.84405100  0.34203100  1
  Mg  Mg22  1  0.43244900  0.65594900  0.33158100  1
  Mg  Mg23  1  0.25506400  0.34405100  0.31425300  1
  Mg  Mg24  1  0.14024400  0.90702400  0.40108500  1
  Mg  Mg25  1  0.04726900  0.09297600  0.41141500  1
  Mg  Mg26  1  0.39024400  0.40702400  0.37330700  1
  Mg  Mg27  1  0.29726900  0.59297600  0.38363800  1
  Mg  Mg28  1  0.34911500  0.15594900  0.41491400  1
  Mg  Mg29  1  0.83839800  0.84405100  0.39758600  1
  Mg  Mg30  1  0.93244900  0.65594900  0.38713600  1
  Mg  Mg31  1  0.75506400  0.34405100  0.36980800  1
  Mg  Mg32  1  0.64024400  0.90702400  0.45664000  1
  Mg  Mg33  1  0.54726900  0.09297600  0.46697100  1
  Mg  Mg34  1  0.89024400  0.40702400  0.42886200  1
  Mg  Mg35  1  0.79726900  0.59297600  0.43919300  1
  Mg  Mg36  1  0.84911500  0.15594900  0.47046900  1
  Mg  Mg37  1  0.33839800  0.84405100  0.45314200  1
  Mg  Mg38  1  0.43244900  0.65594900  0.44269200  1
  Mg  Mg39  1  0.25506400  0.34405100  0.42536400  1
  Mg  Mg40  1  0.14024400  0.90702400  0.51219600  1
  Mg  Mg41  1  0.04726900  0.09297600  0.52252600  1
  Mg  Mg42  1  0.39024400  0.40702400  0.48441800  1
  Mg  Mg43  1  0.29726900  0.59297600  0.49474900  1
  Mg  Mg44  1  0.34911500  0.15594900  0.52602500  1
  Mg  Mg45  1  0.83839800  0.84405100  0.50869700  1
  Mg  Mg46  1  0.93244900  0.65594900  0.49824700  1
  Mg  Mg47  1  0.75506400  0.34405100  0.48091900  1
  Mg  Mg48  1  0.64024400  0.90702400  0.56775100  1
  Mg  Mg49  1  0.54726900  0.09297600  0.57808200  1
  Mg  Mg50  1  0.89024400  0.40702400  0.53997400  1
  Mg  Mg51  1  0.79726900  0.59297600  0.55030400  1
  Mg  Mg52  1  0.84911500  0.15594900  0.58158100  1
  Mg  Mg53  1  0.33839800  0.84405100  0.56425300  1
  Mg  Mg54  1  0.43244900  0.65594900  0.55380300  1
  Mg  Mg55  1  0.25506400  0.34405100  0.53647500  1
  Mg  Mg56  1  0.14024400  0.90702400  0.62330700  1
  Mg  Mg57  1  0.04726900  0.09297600  0.63363800  1
  Mg  Mg58  1  0.39024400  0.40702400  0.59552900  1
  Mg  Mg59  1  0.29726900  0.59297600  0.60586000  1
  Mg  Mg60  1  0.34911500  0.15594900  0.63713600  1
  Mg  Mg61  1  0.83839800  0.84405100  0.61980800  1
  Mg  Mg62  1  0.93244900  0.65594900  0.60935800  1
  Mg  Mg63  1  0.75506400  0.34405100  0.59203100  1
  Mg  Mg64  1  0.64024400  0.90702400  0.67886200  1
  Mg  Mg65  1  0.54726900  0.09297600  0.68919300  1
  Mg  Mg66  1  0.89024400  0.40702400  0.65108500  1
  Mg  Mg67  1  0.79726900  0.59297600  0.66141500  1
  Mg  Mg68  1  0.84911500  0.15594900  0.69269200  1
  Mg  Mg69  1  0.33839800  0.84405100  0.67536400  1
  Mg  Mg70  1  0.43244900  0.65594900  0.66491400  1
  Mg  Mg71  1  0.25506400  0.34405100  0.64758600  1
  Mg  Mg72  1  0.14024400  0.90702400  0.73441800  1
  Mg  Mg73  1  0.04726900  0.09297600  0.74474900  1
  Mg  Mg74  1  0.39024400  0.40702400  0.70664000  1
  Mg  Mg75  1  0.29726900  0.59297600  0.71697100  1
  Mg  Mg76  1  0.34911500  0.15594900  0.74824700  1
  Mg  Mg77  1  0.83839800  0.84405100  0.73091900  1
  Mg  Mg78  1  0.93244900  0.65594900  0.72046900  1
  Mg  Mg79  1  0.75506400  0.34405100  0.70314200  1
  Mg  Mg80  1  0.89024400  0.40702400  0.76219600  1
  Mg  Mg81  1  0.79726900  0.59297600  0.77252600  1
  Mg  Mg82  1  0.43244900  0.65594900  0.77602500  1
  Mg  Mg83  1  0.25506400  0.34405100  0.75869700  1
  Ni  Ni84  1  0.98960300  0.87497400  0.23263700  1
  Ni  Ni85  1  0.19791000  0.12502600  0.24652900  1
  Ni  Ni86  1  0.57293600  0.37497400  0.20486000  1
  Ni  Ni87  1  0.11457700  0.62502600  0.21875100  1
  Ni  Ni88  1  0.84375600  0.00000000  0.21180600  1
  Ni  Ni89  1  0.34375600  0.00000000  0.21180600  1
  Ni  Ni90  1  0.09375600  0.00000000  0.23958300  1
  Ni  Ni91  1  0.59375600  0.50000000  0.23958300  1
  Ni  Ni92  1  0.09375600  0.50000000  0.23958300  1
  Ni  Ni93  1  0.34375600  0.50000000  0.21180600  1
  Ni  Ni94  1  0.63651200  0.75000000  0.19828000  1
  Ni  Ni95  1  0.13651200  0.75000000  0.19755400  1
  Ni  Ni96  1  0.88324600  0.75000000  0.22569400  1
  Ni  Ni97  1  0.05100100  0.25000000  0.22533200  1
  Ni  Ni98  1  0.55100100  0.25000000  0.22605700  1
  Ni  Ni99  1  0.80426700  0.25000000  0.19791700  1
  Ni  Ni100  1  0.48960300  0.87497400  0.28819300  1
  Ni  Ni101  1  0.69791000  0.12502600  0.30208500  1
  Ni  Ni102  1  0.07293600  0.37497400  0.26041500  1
  Ni  Ni103  1  0.61457700  0.62502600  0.27430700  1
  Ni  Ni104  1  0.34375600  0.00000000  0.26736100  1
  Ni  Ni105  1  0.84375600  0.00000000  0.26736100  1
  Ni  Ni106  1  0.59375600  0.00000000  0.29513900  1
  Ni  Ni107  1  0.09375600  0.50000000  0.29513900  1
  Ni  Ni108  1  0.59375600  0.50000000  0.29513900  1
  Ni  Ni109  1  0.84375600  0.50000000  0.26736100  1
  Ni  Ni110  1  0.13651200  0.75000000  0.25383500  1
  Ni  Ni111  1  0.63651200  0.75000000  0.25310900  1
  Ni  Ni112  1  0.38324600  0.75000000  0.28125000  1
  Ni  Ni113  1  0.55100100  0.25000000  0.28088700  1
  Ni  Ni114  1  0.05100100  0.25000000  0.28161300  1
  Ni  Ni115  1  0.30426700  0.25000000  0.25347200  1
  Ni  Ni116  1  0.98960300  0.87497400  0.34374900  1
  Ni  Ni117  1  0.19791000  0.12502600  0.35764000  1
  Ni  Ni118  1  0.57293600  0.37497400  0.31597100  1
  Ni  Ni119  1  0.11457700  0.62502600  0.32986300  1
  Ni  Ni120  1  0.84375600  0.00000000  0.32291700  1
  Ni  Ni121  1  0.34375600  0.00000000  0.32291700  1
  Ni  Ni122  1  0.09375600  0.00000000  0.35069400  1
  Ni  Ni123  1  0.59375600  0.50000000  0.35069400  1
  Ni  Ni124  1  0.09375600  0.50000000  0.35069400  1
  Ni  Ni125  1  0.34375600  0.50000000  0.32291700  1
  Ni  Ni126  1  0.63651200  0.75000000  0.30939100  1
  Ni  Ni127  1  0.13651200  0.75000000  0.30866500  1
  Ni  Ni128  1  0.88324600  0.75000000  0.33680600  1
  Ni  Ni129  1  0.05100100  0.25000000  0.33644300  1
  Ni  Ni130  1  0.55100100  0.25000000  0.33716800  1
  Ni  Ni131  1  0.80426700  0.25000000  0.30902800  1
  Ni  Ni132  1  0.48960300  0.87497400  0.39930400  1
  Ni  Ni133  1  0.69791000  0.12502600  0.41319600  1
  Ni  Ni134  1  0.07293600  0.37497400  0.37152600  1
  Ni  Ni135  1  0.61457700  0.62502600  0.38541800  1
  Ni  Ni136  1  0.34375600  0.00000000  0.37847200  1
  Ni  Ni137  1  0.84375600  0.00000000  0.37847200  1
  Ni  Ni138  1  0.59375600  0.00000000  0.40625000  1
  Ni  Ni139  1  0.09375600  0.50000000  0.40625000  1
  Ni  Ni140  1  0.59375600  0.50000000  0.40625000  1
  Ni  Ni141  1  0.84375600  0.50000000  0.37847200  1
  Ni  Ni142  1  0.13651200  0.75000000  0.36494600  1
  Ni  Ni143  1  0.63651200  0.75000000  0.36422000  1
  Ni  Ni144  1  0.38324600  0.75000000  0.39236100  1
  Ni  Ni145  1  0.55100100  0.25000000  0.39199800  1
  Ni  Ni146  1  0.05100100  0.25000000  0.39272400  1
  Ni  Ni147  1  0.30426700  0.25000000  0.36458300  1
  Ni  Ni148  1  0.98960300  0.87497400  0.45486000  1
  Ni  Ni149  1  0.19791000  0.12502600  0.46875100  1
  Ni  Ni150  1  0.57293600  0.37497400  0.42708200  1
  Ni  Ni151  1  0.11457700  0.62502600  0.44097400  1
  Ni  Ni152  1  0.84375600  0.00000000  0.43402800  1
  Ni  Ni153  1  0.34375600  0.00000000  0.43402800  1
  Ni  Ni154  1  0.09375600  0.00000000  0.46180600  1
  Ni  Ni155  1  0.59375600  0.50000000  0.46180600  1
  Ni  Ni156  1  0.09375600  0.50000000  0.46180600  1
  Ni  Ni157  1  0.34375600  0.50000000  0.43402800  1
  Ni  Ni158  1  0.63651200  0.75000000  0.42050200  1
  Ni  Ni159  1  0.13651200  0.75000000  0.41977600  1
  Ni  Ni160  1  0.88324600  0.75000000  0.44791700  1
  Ni  Ni161  1  0.05100100  0.25000000  0.44755400  1
  Ni  Ni162  1  0.55100100  0.25000000  0.44828000  1
  Ni  Ni163  1  0.80426700  0.25000000  0.42013900  1
  Ni  Ni164  1  0.48960300  0.87497400  0.51041500  1
  Ni  Ni165  1  0.69791000  0.12502600  0.52430700  1
  Ni  Ni166  1  0.07293600  0.37497400  0.48263700  1
  Ni  Ni167  1  0.61457700  0.62502600  0.49652900  1
  Ni  Ni168  1  0.34375600  0.00000000  0.48958300  1
  Ni  Ni169  1  0.84375600  0.00000000  0.48958300  1
  Ni  Ni170  1  0.59375600  0.00000000  0.51736100  1
  Ni  Ni171  1  0.09375600  0.50000000  0.51736100  1
  Ni  Ni172  1  0.59375600  0.50000000  0.51736100  1
  Ni  Ni173  1  0.84375600  0.50000000  0.48958300  1
  Ni  Ni174  1  0.13651200  0.75000000  0.47605700  1
  Ni  Ni175  1  0.63651200  0.75000000  0.47533200  1
  Ni  Ni176  1  0.38324600  0.75000000  0.50347200  1
  Ni  Ni177  1  0.55100100  0.25000000  0.50310900  1
  Ni  Ni178  1  0.05100100  0.25000000  0.50383500  1
  Ni  Ni179  1  0.30426700  0.25000000  0.47569400  1
  Ni  Ni180  1  0.98960300  0.87497400  0.56597100  1
  Ni  Ni181  1  0.19791000  0.12502600  0.57986300  1
  Ni  Ni182  1  0.57293600  0.37497400  0.53819300  1
  Ni  Ni183  1  0.11457700  0.62502600  0.55208500  1
  Ni  Ni184  1  0.84375600  0.00000000  0.54513900  1
  Ni  Ni185  1  0.34375600  0.00000000  0.54513900  1
  Ni  Ni186  1  0.09375600  0.00000000  0.57291700  1
  Ni  Ni187  1  0.59375600  0.50000000  0.57291700  1
  Ni  Ni188  1  0.09375600  0.50000000  0.57291700  1
  Ni  Ni189  1  0.34375600  0.50000000  0.54513900  1
  Ni  Ni190  1  0.63651200  0.75000000  0.53161300  1
  Ni  Ni191  1  0.13651200  0.75000000  0.53088700  1
  Ni  Ni192  1  0.88324600  0.75000000  0.55902800  1
  Ni  Ni193  1  0.05100100  0.25000000  0.55866500  1
  Ni  Ni194  1  0.55100100  0.25000000  0.55939100  1
  Ni  Ni195  1  0.80426700  0.25000000  0.53125000  1
  Ni  Ni196  1  0.48960300  0.87497400  0.62152600  1
  Ni  Ni197  1  0.69791000  0.12502600  0.63541800  1
  Ni  Ni198  1  0.07293600  0.37497400  0.59374900  1
  Ni  Ni199  1  0.61457700  0.62502600  0.60764000  1
  Ni  Ni200  1  0.34375600  0.00000000  0.60069400  1
  Ni  Ni201  1  0.84375600  0.00000000  0.60069400  1
  Ni  Ni202  1  0.59375600  0.00000000  0.62847200  1
  Ni  Ni203  1  0.09375600  0.50000000  0.62847200  1
  Ni  Ni204  1  0.59375600  0.50000000  0.62847200  1
  Ni  Ni205  1  0.84375600  0.50000000  0.60069400  1
  Ni  Ni206  1  0.13651200  0.75000000  0.58716800  1
  Ni  Ni207  1  0.63651200  0.75000000  0.58644300  1
  Ni  Ni208  1  0.38324600  0.75000000  0.61458300  1
  Ni  Ni209  1  0.55100100  0.25000000  0.61422000  1
  Ni  Ni210  1  0.05100100  0.25000000  0.61494600  1
  Ni  Ni211  1  0.30426700  0.25000000  0.58680600  1
  Ni  Ni212  1  0.98960300  0.87497400  0.67708200  1
  Ni  Ni213  1  0.19791000  0.12502600  0.69097400  1
  Ni  Ni214  1  0.57293600  0.37497400  0.64930400  1
  Ni  Ni215  1  0.11457700  0.62502600  0.66319600  1
  Ni  Ni216  1  0.84375600  0.00000000  0.65625000  1
  Ni  Ni217  1  0.34375600  0.00000000  0.65625000  1
  Ni  Ni218  1  0.09375600  0.00000000  0.68402800  1
  Ni  Ni219  1  0.59375600  0.50000000  0.68402800  1
  Ni  Ni220  1  0.09375600  0.50000000  0.68402800  1
  Ni  Ni221  1  0.34375600  0.50000000  0.65625000  1
  Ni  Ni222  1  0.63651200  0.75000000  0.64272400  1
  Ni  Ni223  1  0.13651200  0.75000000  0.64199800  1
  Ni  Ni224  1  0.88324600  0.75000000  0.67013900  1
  Ni  Ni225  1  0.05100100  0.25000000  0.66977600  1
  Ni  Ni226  1  0.55100100  0.25000000  0.67050200  1
  Ni  Ni227  1  0.80426700  0.25000000  0.64236100  1
  Ni  Ni228  1  0.48960300  0.87497400  0.73263700  1
  Ni  Ni229  1  0.69791000  0.12502600  0.74652900  1
  Ni  Ni230  1  0.07293600  0.37497400  0.70486000  1
  Ni  Ni231  1  0.61457700  0.62502600  0.71875100  1
  Ni  Ni232  1  0.34375600  0.00000000  0.71180600  1
  Ni  Ni233  1  0.84375600  0.00000000  0.71180600  1
  Ni  Ni234  1  0.59375600  0.00000000  0.73958300  1
  Ni  Ni235  1  0.09375600  0.50000000  0.73958300  1
  Ni  Ni236  1  0.59375600  0.50000000  0.73958300  1
  Ni  Ni237  1  0.84375600  0.50000000  0.71180600  1
  Ni  Ni238  1  0.13651200  0.75000000  0.69828000  1
  Ni  Ni239  1  0.63651200  0.75000000  0.69755400  1
  Ni  Ni240  1  0.38324600  0.75000000  0.72569400  1
  Ni  Ni241  1  0.55100100  0.25000000  0.72533200  1
  Ni  Ni242  1  0.05100100  0.25000000  0.72605700  1
  Ni  Ni243  1  0.30426700  0.25000000  0.69791700  1
  Ni  Ni244  1  0.57293600  0.37497400  0.76041500  1
  Ni  Ni245  1  0.11457700  0.62502600  0.77430700  1
  Ni  Ni246  1  0.84375600  0.00000000  0.76736100  1
  Ni  Ni247  1  0.34375600  0.00000000  0.76736100  1
  Ni  Ni248  1  0.34375600  0.50000000  0.76736100  1
  Ni  Ni249  1  0.63651200  0.75000000  0.75383500  1
  Ni  Ni250  1  0.13651200  0.75000000  0.75310900  1
  Ni  Ni251  1  0.88324600  0.75000000  0.78125000  1
  Ni  Ni252  1  0.05100100  0.25000000  0.78088700  1
  Ni  Ni253  1  0.55100100  0.25000000  0.78161300  1
  Ni  Ni254  1  0.80426700  0.25000000  0.75347200  1
