# generated using pymatgen
data_Mg17Pd35
_symmetry_space_group_name_H-M   'P 1'
_cell_length_a   6.94548378
_cell_length_b   9.19052455
_cell_length_c   43.38640000
_cell_angle_alpha   90.95958529
_cell_angle_beta   93.38110513
_cell_angle_gamma   74.03149322
_symmetry_Int_Tables_number   1
_chemical_formula_structural   Mg17Pd35
_chemical_formula_sum   'Mg34 Pd70'
_cell_volume   2657.96799762
_cell_formula_units_Z   2
loop_
 _symmetry_equiv_pos_site_id
 _symmetry_equiv_pos_as_xyz
  1  'x, y, z'
loop_
 _atom_site_type_symbol
 _atom_site_label
 _atom_site_symmetry_multiplicity
 _atom_site_fract_x
 _atom_site_fract_y
 _atom_site_fract_z
 _atom_site_occupancy
  Mg  Mg0  1  0.90085200  0.26784800  0.24907200  1
  Mg  Mg1  1  0.74668300  0.55592000  0.20330900  1
  Mg  Mg2  1  0.61513800  0.12499100  0.32050000  1
  Mg  Mg3  1  0.46096900  0.41306300  0.27473800  1
  Mg  Mg4  1  0.34469600  0.93631700  0.26311100  1
  Mg  Mg5  1  0.01712500  0.74459400  0.26069900  1
  Mg  Mg6  1  0.32942400  0.98213400  0.39192900  1
  Mg  Mg7  1  0.17525500  0.27020500  0.34616700  1
  Mg  Mg8  1  0.05898200  0.79346000  0.33453900  1
  Mg  Mg9  1  0.73141100  0.60173600  0.33212700  1
  Mg  Mg10  1  0.04371000  0.83927700  0.46335700  1
  Mg  Mg11  1  0.88954000  0.12734800  0.41759500  1
  Mg  Mg12  1  0.77326800  0.65060300  0.40596800  1
  Mg  Mg13  1  0.44569700  0.45887900  0.40355600  1
  Mg  Mg14  1  0.75799500  0.69641900  0.53478600  1
  Mg  Mg15  1  0.60382600  0.98449100  0.48902400  1
  Mg  Mg16  1  0.48755300  0.50774600  0.47739600  1
  Mg  Mg17  1  0.15998200  0.31602200  0.47498500  1
  Mg  Mg18  1  0.47228100  0.55356200  0.60621400  1
  Mg  Mg19  1  0.31811200  0.84163400  0.56045200  1
  Mg  Mg20  1  0.20183900  0.36488900  0.54882500  1
  Mg  Mg21  1  0.87426800  0.17316500  0.54641300  1
  Mg  Mg22  1  0.18656700  0.41070500  0.67764300  1
  Mg  Mg23  1  0.03239700  0.69877700  0.63188100  1
  Mg  Mg24  1  0.91612500  0.22203100  0.62025400  1
  Mg  Mg25  1  0.58855400  0.03030800  0.61784200  1
  Mg  Mg26  1  0.90085200  0.26784800  0.74907200  1
  Mg  Mg27  1  0.74668300  0.55592000  0.70330900  1
  Mg  Mg28  1  0.63041000  0.07917400  0.69168200  1
  Mg  Mg29  1  0.30283900  0.88745100  0.68927000  1
  Mg  Mg30  1  0.61513800  0.12499100  0.82050000  1
  Mg  Mg31  1  0.46096900  0.41306300  0.77473800  1
  Mg  Mg32  1  0.34469600  0.93631700  0.76311100  1
  Mg  Mg33  1  0.01712500  0.74459400  0.76069900  1
  Pd  Pd34  1  0.98794700  0.98714500  0.22487100  1
  Pd  Pd35  1  0.65958800  0.83662300  0.22751000  1
  Pd  Pd36  1  0.52944500  0.36265200  0.21449600  1
  Pd  Pd37  1  0.11809100  0.46111600  0.23788500  1
  Pd  Pd38  1  0.36836000  0.66425600  0.23206100  1
  Pd  Pd39  1  0.27917600  0.15951200  0.22032000  1
  Pd  Pd40  1  0.70223300  0.84428800  0.29629900  1
  Pd  Pd41  1  0.37387400  0.69376600  0.29893900  1
  Pd  Pd42  1  0.24373100  0.21979400  0.28592500  1
  Pd  Pd43  1  0.83237600  0.31825900  0.30931300  1
  Pd  Pd44  1  0.73356700  0.56863300  0.26575900  1
  Pd  Pd45  1  0.62825400  0.11227700  0.25805000  1
  Pd  Pd46  1  0.08264600  0.52139900  0.30349000  1
  Pd  Pd47  1  0.99346100  0.01665500  0.29174900  1
  Pd  Pd48  1  0.41651900  0.70143100  0.36772800  1
  Pd  Pd49  1  0.08816000  0.55090900  0.37036800  1
  Pd  Pd50  1  0.95801600  0.07693700  0.35735300  1
  Pd  Pd51  1  0.54666200  0.17540200  0.38074200  1
  Pd  Pd52  1  0.44785300  0.42577600  0.33718800  1
  Pd  Pd53  1  0.34254000  0.96942000  0.32947900  1
  Pd  Pd54  1  0.79693100  0.37854200  0.37491800  1
  Pd  Pd55  1  0.70774700  0.87379800  0.36317700  1
  Pd  Pd56  1  0.13080400  0.55857300  0.43915600  1
  Pd  Pd57  1  0.80244600  0.40805100  0.44179600  1
  Pd  Pd58  1  0.67230200  0.93408000  0.42878200  1
  Pd  Pd59  1  0.26094800  0.03254500  0.45217100  1
  Pd  Pd60  1  0.16213900  0.28291900  0.40861600  1
  Pd  Pd61  1  0.05682500  0.82656300  0.40090800  1
  Pd  Pd62  1  0.51121700  0.23568400  0.44634700  1
  Pd  Pd63  1  0.42203300  0.73094000  0.43460600  1
  Pd  Pd64  1  0.84509000  0.41571600  0.51058500  1
  Pd  Pd65  1  0.51673100  0.26519400  0.51322500  1
  Pd  Pd66  1  0.38658800  0.79122300  0.50021000  1
  Pd  Pd67  1  0.97523400  0.88968800  0.52359900  1
  Pd  Pd68  1  0.87642500  0.14006200  0.48004500  1
  Pd  Pd69  1  0.77111100  0.68370600  0.47233600  1
  Pd  Pd70  1  0.22550300  0.09282700  0.51777500  1
  Pd  Pd71  1  0.13631800  0.58808300  0.50603400  1
  Pd  Pd72  1  0.55937600  0.27285900  0.58201300  1
  Pd  Pd73  1  0.23101700  0.12233700  0.58465300  1
  Pd  Pd74  1  0.10087300  0.64836600  0.57163900  1
  Pd  Pd75  1  0.68951900  0.74683000  0.59502800  1
  Pd  Pd76  1  0.59071000  0.99720500  0.55147300  1
  Pd  Pd77  1  0.48539700  0.54084900  0.54376500  1
  Pd  Pd78  1  0.93978900  0.94997000  0.58920400  1
  Pd  Pd79  1  0.85060400  0.44522600  0.57746300  1
  Pd  Pd80  1  0.27366100  0.13000200  0.65344200  1
  Pd  Pd81  1  0.94530300  0.97948000  0.65608200  1
  Pd  Pd82  1  0.81515900  0.50550900  0.64306800  1
  Pd  Pd83  1  0.40380500  0.60397300  0.66645600  1
  Pd  Pd84  1  0.30499600  0.85434800  0.62290200  1
  Pd  Pd85  1  0.19968200  0.39799100  0.61519300  1
  Pd  Pd86  1  0.65407400  0.80711300  0.66063200  1
  Pd  Pd87  1  0.56489000  0.30236900  0.64889100  1
  Pd  Pd88  1  0.98794700  0.98714500  0.72487100  1
  Pd  Pd89  1  0.65958800  0.83662300  0.72751000  1
  Pd  Pd90  1  0.52944500  0.36265200  0.71449600  1
  Pd  Pd91  1  0.11809100  0.46111600  0.73788500  1
  Pd  Pd92  1  0.01928200  0.71149100  0.69433100  1
  Pd  Pd93  1  0.91396800  0.25513400  0.68662200  1
  Pd  Pd94  1  0.36836000  0.66425600  0.73206100  1
  Pd  Pd95  1  0.27917600  0.15951200  0.72032000  1
  Pd  Pd96  1  0.70223300  0.84428800  0.79629900  1
  Pd  Pd97  1  0.37387400  0.69376600  0.79893900  1
  Pd  Pd98  1  0.24373100  0.21979400  0.78592500  1
  Pd  Pd99  1  0.83237600  0.31825900  0.80931300  1
  Pd  Pd100  1  0.73356700  0.56863300  0.76575900  1
  Pd  Pd101  1  0.62825400  0.11227700  0.75805000  1
  Pd  Pd102  1  0.08264600  0.52139900  0.80349000  1
  Pd  Pd103  1  0.99346100  0.01665500  0.79174900  1
