# generated using pymatgen
data_Mg97Rh40
_symmetry_space_group_name_H-M   'P 1'
_cell_length_a   8.64031900
_cell_length_b   11.79877622
_cell_length_c   43.91762100
_cell_angle_alpha   86.20917344
_cell_angle_beta   90.00000000
_cell_angle_gamma   68.52142843
_symmetry_Int_Tables_number   1
_chemical_formula_structural   Mg97Rh40
_chemical_formula_sum   'Mg97 Rh40'
_cell_volume   4155.74122190
_cell_formula_units_Z   1
loop_
 _symmetry_equiv_pos_site_id
 _symmetry_equiv_pos_as_xyz
  1  'x, y, z'
loop_
 _atom_site_type_symbol
 _atom_site_label
 _atom_site_symmetry_multiplicity
 _atom_site_fract_x
 _atom_site_fract_y
 _atom_site_fract_z
 _atom_site_occupancy
  Mg  Mg0  1  0.85242700  0.29514600  0.25669600  1
  Mg  Mg1  1  0.39481100  0.21037900  0.21538800  1
  Mg  Mg2  1  0.84451900  0.69026200  0.22041700  1
  Mg  Mg3  1  0.46521900  0.69026200  0.22041700  1
  Mg  Mg4  1  0.23963600  0.90002900  0.29297600  1
  Mg  Mg5  1  0.86033500  0.90002900  0.29297600  1
  Mg  Mg6  1  0.31004400  0.37991300  0.29800500  1
  Mg  Mg7  1  0.08920600  0.82158900  0.23395700  1
  Mg  Mg8  1  0.20332900  0.16723800  0.27254400  1
  Mg  Mg9  1  0.62943300  0.16723800  0.27254400  1
  Mg  Mg10  1  0.98268000  0.60853700  0.28722000  1
  Mg  Mg11  1  0.40878300  0.60853700  0.28722000  1
  Mg  Mg12  1  0.61564900  0.76870300  0.27943600  1
  Mg  Mg13  1  0.29607100  0.98175400  0.22617300  1
  Mg  Mg14  1  0.72217500  0.98175400  0.22617300  1
  Mg  Mg15  1  0.07542200  0.42305300  0.24084900  1
  Mg  Mg16  1  0.50152500  0.42305300  0.24084900  1
  Mg  Mg17  1  0.72742700  0.54514600  0.31919600  1
  Mg  Mg18  1  0.60242700  0.79514600  0.38169600  1
  Mg  Mg19  1  0.14481100  0.71037900  0.34038800  1
  Mg  Mg20  1  0.59451900  0.19026200  0.34541700  1
  Mg  Mg21  1  0.21521900  0.19026200  0.34541700  1
  Mg  Mg22  1  0.98963600  0.40002900  0.41797600  1
  Mg  Mg23  1  0.61033500  0.40002900  0.41797600  1
  Mg  Mg24  1  0.06004400  0.87991300  0.42300500  1
  Mg  Mg25  1  0.83920600  0.32158900  0.35895700  1
  Mg  Mg26  1  0.95332900  0.66723800  0.39754400  1
  Mg  Mg27  1  0.37943300  0.66723800  0.39754400  1
  Mg  Mg28  1  0.73268000  0.10853700  0.41222000  1
  Mg  Mg29  1  0.15878300  0.10853700  0.41222000  1
  Mg  Mg30  1  0.36564900  0.26870300  0.40443600  1
  Mg  Mg31  1  0.04607100  0.48175400  0.35117300  1
  Mg  Mg32  1  0.52290700  0.95418700  0.32580700  1
  Mg  Mg33  1  0.47217500  0.48175400  0.35117300  1
  Mg  Mg34  1  0.82542200  0.92305300  0.36584900  1
  Mg  Mg35  1  0.93194800  0.13610500  0.31258600  1
  Mg  Mg36  1  0.25152500  0.92305300  0.36584900  1
  Mg  Mg37  1  0.47742700  0.04514600  0.44419600  1
  Mg  Mg38  1  0.35242700  0.29514600  0.50669600  1
  Mg  Mg39  1  0.89481100  0.21037900  0.46538800  1
  Mg  Mg40  1  0.34451900  0.69026200  0.47041700  1
  Mg  Mg41  1  0.96521900  0.69026200  0.47041700  1
  Mg  Mg42  1  0.73963600  0.90002900  0.54297600  1
  Mg  Mg43  1  0.36033500  0.90002900  0.54297600  1
  Mg  Mg44  1  0.81004400  0.37991300  0.54800500  1
  Mg  Mg45  1  0.58920600  0.82158900  0.48395700  1
  Mg  Mg46  1  0.70332900  0.16723800  0.52254400  1
  Mg  Mg47  1  0.12943300  0.16723800  0.52254400  1
  Mg  Mg48  1  0.48268000  0.60853700  0.53722000  1
  Mg  Mg49  1  0.90878300  0.60853700  0.53722000  1
  Mg  Mg50  1  0.11564900  0.76870300  0.52943600  1
  Mg  Mg51  1  0.79607100  0.98175400  0.47617300  1
  Mg  Mg52  1  0.27290700  0.45418700  0.45080700  1
  Mg  Mg53  1  0.22217500  0.98175400  0.47617300  1
  Mg  Mg54  1  0.57542200  0.42305300  0.49084900  1
  Mg  Mg55  1  0.68194800  0.63610500  0.43758600  1
  Mg  Mg56  1  0.00152500  0.42305300  0.49084900  1
  Mg  Mg57  1  0.22742700  0.54514600  0.56919600  1
  Mg  Mg58  1  0.10242700  0.79514600  0.63169600  1
  Mg  Mg59  1  0.64481100  0.71037900  0.59038800  1
  Mg  Mg60  1  0.09451900  0.19026200  0.59541700  1
  Mg  Mg61  1  0.71521900  0.19026200  0.59541700  1
  Mg  Mg62  1  0.48963600  0.40002900  0.66797600  1
  Mg  Mg63  1  0.11033500  0.40002900  0.66797600  1
  Mg  Mg64  1  0.56004400  0.87991300  0.67300500  1
  Mg  Mg65  1  0.33920600  0.32158900  0.60895700  1
  Mg  Mg66  1  0.45332900  0.66723800  0.64754400  1
  Mg  Mg67  1  0.87943300  0.66723800  0.64754400  1
  Mg  Mg68  1  0.23268000  0.10853700  0.66222000  1
  Mg  Mg69  1  0.65878300  0.10853700  0.66222000  1
  Mg  Mg70  1  0.86564900  0.26870300  0.65443600  1
  Mg  Mg71  1  0.54607100  0.48175400  0.60117300  1
  Mg  Mg72  1  0.02290700  0.95418700  0.57580700  1
  Mg  Mg73  1  0.97217500  0.48175400  0.60117300  1
  Mg  Mg74  1  0.32542200  0.92305300  0.61584900  1
  Mg  Mg75  1  0.43194800  0.13610500  0.56258600  1
  Mg  Mg76  1  0.75152500  0.92305300  0.61584900  1
  Mg  Mg77  1  0.97742700  0.04514600  0.69419600  1
  Mg  Mg78  1  0.85242700  0.29514600  0.75669600  1
  Mg  Mg79  1  0.39481100  0.21037900  0.71538800  1
  Mg  Mg80  1  0.84451900  0.69026200  0.72041700  1
  Mg  Mg81  1  0.46521900  0.69026200  0.72041700  1
  Mg  Mg82  1  0.23963600  0.90002900  0.79297600  1
  Mg  Mg83  1  0.86033500  0.90002900  0.79297600  1
  Mg  Mg84  1  0.31004400  0.37991300  0.79800500  1
  Mg  Mg85  1  0.08920600  0.82158900  0.73395700  1
  Mg  Mg86  1  0.20332900  0.16723800  0.77254400  1
  Mg  Mg87  1  0.62943300  0.16723800  0.77254400  1
  Mg  Mg88  1  0.98268000  0.60853700  0.78722000  1
  Mg  Mg89  1  0.40878300  0.60853700  0.78722000  1
  Mg  Mg90  1  0.61564900  0.76870300  0.77943600  1
  Mg  Mg91  1  0.29607100  0.98175400  0.72617300  1
  Mg  Mg92  1  0.77290700  0.45418700  0.70080700  1
  Mg  Mg93  1  0.72217500  0.98175400  0.72617300  1
  Mg  Mg94  1  0.07542200  0.42305300  0.74084900  1
  Mg  Mg95  1  0.18194800  0.63610500  0.68758600  1
  Mg  Mg96  1  0.50152500  0.42305300  0.74084900  1
  Rh  Rh97  1  0.20659400  0.58681200  0.24628000  1
  Rh  Rh98  1  0.49826000  0.00347900  0.26711300  1
  Rh  Rh99  1  0.97607900  0.04784200  0.25602200  1
  Rh  Rh100  1  0.00395800  0.35899400  0.30323400  1
  Rh  Rh101  1  0.63704800  0.35899400  0.30323400  1
  Rh  Rh102  1  0.06780600  0.23129700  0.21015800  1
  Rh  Rh103  1  0.70089600  0.23129700  0.21015800  1
  Rh  Rh104  1  0.72877500  0.54244900  0.25737100  1
  Rh  Rh105  1  0.95659400  0.08681200  0.37128000  1
  Rh  Rh106  1  0.24826000  0.50347900  0.39211300  1
  Rh  Rh107  1  0.72607900  0.54784200  0.38102200  1
  Rh  Rh108  1  0.75395800  0.85899400  0.42823400  1
  Rh  Rh109  1  0.38704800  0.85899400  0.42823400  1
  Rh  Rh110  1  0.81780600  0.73129700  0.33515800  1
  Rh  Rh111  1  0.45089600  0.73129700  0.33515800  1
  Rh  Rh112  1  0.47877500  0.04244900  0.38237100  1
  Rh  Rh113  1  0.70659400  0.58681200  0.49628000  1
  Rh  Rh114  1  0.99826000  0.00347900  0.51711300  1
  Rh  Rh115  1  0.47607900  0.04784200  0.50602200  1
  Rh  Rh116  1  0.50395800  0.35899400  0.55323400  1
  Rh  Rh117  1  0.13704800  0.35899400  0.55323400  1
  Rh  Rh118  1  0.56780600  0.23129700  0.46015800  1
  Rh  Rh119  1  0.20089600  0.23129700  0.46015800  1
  Rh  Rh120  1  0.22877500  0.54244900  0.50737100  1
  Rh  Rh121  1  0.45659400  0.08681200  0.62128000  1
  Rh  Rh122  1  0.74826000  0.50347900  0.64211300  1
  Rh  Rh123  1  0.22607900  0.54784200  0.63102200  1
  Rh  Rh124  1  0.25395800  0.85899400  0.67823400  1
  Rh  Rh125  1  0.88704800  0.85899400  0.67823400  1
  Rh  Rh126  1  0.31780600  0.73129700  0.58515800  1
  Rh  Rh127  1  0.95089600  0.73129700  0.58515800  1
  Rh  Rh128  1  0.97877500  0.04244900  0.63237100  1
  Rh  Rh129  1  0.20659400  0.58681200  0.74628000  1
  Rh  Rh130  1  0.49826000  0.00347900  0.76711300  1
  Rh  Rh131  1  0.97607900  0.04784200  0.75602200  1
  Rh  Rh132  1  0.00395800  0.35899400  0.80323400  1
  Rh  Rh133  1  0.63704800  0.35899400  0.80323400  1
  Rh  Rh134  1  0.06780600  0.23129700  0.71015800  1
  Rh  Rh135  1  0.70089600  0.23129700  0.71015800  1
  Rh  Rh136  1  0.72877500  0.54244900  0.75737100  1
