# generated using pymatgen
data_Mg23Bi7
_symmetry_space_group_name_H-M   'P 1'
_cell_length_a   4.64049900
_cell_length_b   6.56265642
_cell_length_c   42.78328500
_cell_angle_alpha   94.39870736
_cell_angle_beta   90.00000000
_cell_angle_gamma   90.00000000
_symmetry_Int_Tables_number   1
_chemical_formula_structural   Mg23Bi7
_chemical_formula_sum   'Mg23 Bi7'
_cell_volume   1299.08440488
_cell_formula_units_Z   1
loop_
 _symmetry_equiv_pos_site_id
 _symmetry_equiv_pos_as_xyz
  1  'x, y, z'
loop_
 _atom_site_type_symbol
 _atom_site_label
 _atom_site_symmetry_multiplicity
 _atom_site_fract_x
 _atom_site_fract_y
 _atom_site_fract_z
 _atom_site_occupancy
  Mg  Mg0  1  0.00000000  0.15384600  0.25000000  1
  Mg  Mg1  1  0.50000000  0.88461500  0.21153800  1
  Mg  Mg2  1  0.50000000  0.38461500  0.21153800  1
  Mg  Mg3  1  0.00000000  0.69230800  0.32692300  1
  Mg  Mg4  1  0.50000000  0.42307700  0.28846200  1
  Mg  Mg5  1  0.50000000  0.92307700  0.28846200  1
  Mg  Mg6  1  0.00000000  0.23076900  0.40384600  1
  Mg  Mg7  1  0.50000000  0.96153800  0.36538500  1
  Mg  Mg8  1  0.50000000  0.46153800  0.36538500  1
  Mg  Mg9  1  0.00000000  0.76923100  0.48076900  1
  Mg  Mg10  1  0.50000000  0.50000000  0.44230800  1
  Mg  Mg11  1  0.50000000  0.00000000  0.44230800  1
  Mg  Mg12  1  0.00000000  0.30769200  0.55769200  1
  Mg  Mg13  1  0.50000000  0.03846200  0.51923100  1
  Mg  Mg14  1  0.50000000  0.53846200  0.51923100  1
  Mg  Mg15  1  0.00000000  0.84615400  0.63461500  1
  Mg  Mg16  1  0.50000000  0.57692300  0.59615400  1
  Mg  Mg17  1  0.50000000  0.07692300  0.59615400  1
  Mg  Mg18  1  0.00000000  0.38461500  0.71153800  1
  Mg  Mg19  1  0.50000000  0.11538500  0.67307700  1
  Mg  Mg20  1  0.50000000  0.61538500  0.67307700  1
  Mg  Mg21  1  0.50000000  0.65384600  0.75000000  1
  Mg  Mg22  1  0.50000000  0.15384600  0.75000000  1
  Bi  Bi23  1  0.00000000  0.65384600  0.25000000  1
  Bi  Bi24  1  0.00000000  0.19230800  0.32692300  1
  Bi  Bi25  1  0.00000000  0.73076900  0.40384600  1
  Bi  Bi26  1  0.00000000  0.26923100  0.48076900  1
  Bi  Bi27  1  0.00000000  0.80769200  0.55769200  1
  Bi  Bi28  1  0.00000000  0.34615400  0.63461500  1
  Bi  Bi29  1  0.00000000  0.88461500  0.71153800  1
