# generated using pymatgen
data_Mg3In
_symmetry_space_group_name_H-M   'P 1'
_cell_length_a   6.31272300
_cell_length_b   7.10486100
_cell_length_c   58.65194500
_cell_angle_alpha   90.00000000
_cell_angle_beta   90.00000000
_cell_angle_gamma   90.00000000
_symmetry_Int_Tables_number   1
_chemical_formula_structural   Mg3In
_chemical_formula_sum   'Mg36 In12'
_cell_volume   2630.59952577
_cell_formula_units_Z   12
loop_
 _symmetry_equiv_pos_site_id
 _symmetry_equiv_pos_as_xyz
  1  'x, y, z'
loop_
 _atom_site_type_symbol
 _atom_site_label
 _atom_site_symmetry_multiplicity
 _atom_site_fract_x
 _atom_site_fract_y
 _atom_site_fract_z
 _atom_site_occupancy
  Mg  Mg0  1  1.00000000  0.16542200  0.49448300  1
  Mg  Mg1  1  0.50000000  0.33457800  0.32694500  1
  Mg  Mg2  1  1.00000000  0.66542200  0.32694500  1
  Mg  Mg3  1  0.50000000  0.83457800  0.49448300  1
  Mg  Mg4  1  0.25000000  0.50000000  0.47321400  1
  Mg  Mg5  1  0.75000000  0.50000000  0.47321400  1
  Mg  Mg6  1  0.50000000  0.66542200  0.36948300  1
  Mg  Mg7  1  1.00000000  0.83457800  0.45194500  1
  Mg  Mg8  1  0.50000000  0.16542200  0.45194500  1
  Mg  Mg9  1  0.00000000  0.33457800  0.36948300  1
  Mg  Mg10  1  0.75000000  0.00000000  0.34821400  1
  Mg  Mg11  1  0.25000000  0.00000000  0.34821400  1
  Mg  Mg12  1  0.25000000  0.50000000  0.41407200  1
  Mg  Mg13  1  0.75000000  0.00000000  0.40735600  1
  Mg  Mg14  1  0.25000000  0.00000000  0.40735600  1
  Mg  Mg15  1  0.75000000  0.50000000  0.41407200  1
  Mg  Mg16  1  1.00000000  0.16542200  0.74448300  1
  Mg  Mg17  1  0.50000000  0.33457800  0.57694500  1
  Mg  Mg18  1  1.00000000  0.66542200  0.57694500  1
  Mg  Mg19  1  0.50000000  0.83457800  0.74448300  1
  Mg  Mg20  1  0.25000000  0.50000000  0.72321400  1
  Mg  Mg21  1  0.75000000  0.50000000  0.72321400  1
  Mg  Mg22  1  0.75000000  0.00000000  0.53907200  1
  Mg  Mg23  1  0.25000000  0.50000000  0.53235600  1
  Mg  Mg24  1  0.75000000  0.50000000  0.53235600  1
  Mg  Mg25  1  0.25000000  0.00000000  0.53907200  1
  Mg  Mg26  1  0.50000000  0.66542200  0.61948300  1
  Mg  Mg27  1  1.00000000  0.83457800  0.70194500  1
  Mg  Mg28  1  0.50000000  0.16542200  0.70194500  1
  Mg  Mg29  1  0.00000000  0.33457800  0.61948300  1
  Mg  Mg30  1  0.75000000  0.00000000  0.59821400  1
  Mg  Mg31  1  0.25000000  0.00000000  0.59821400  1
  Mg  Mg32  1  0.25000000  0.50000000  0.66407200  1
  Mg  Mg33  1  0.75000000  0.00000000  0.65735600  1
  Mg  Mg34  1  0.25000000  0.00000000  0.65735600  1
  Mg  Mg35  1  0.75000000  0.50000000  0.66407200  1
  In  In36  1  0.50000000  0.26117200  0.37872400  1
  In  In37  1  1.00000000  0.23882800  0.44270500  1
  In  In38  1  0.50000000  0.76117200  0.44270500  1
  In  In39  1  0.00000000  0.73882800  0.37872400  1
  In  In40  1  1.00000000  0.76117200  0.50372400  1
  In  In41  1  0.50000000  0.73882800  0.56770500  1
  In  In42  1  0.00000000  0.26117200  0.56770500  1
  In  In43  1  0.50000000  0.23882800  0.50372400  1
  In  In44  1  0.50000000  0.26117200  0.62872400  1
  In  In45  1  1.00000000  0.23882800  0.69270500  1
  In  In46  1  0.50000000  0.76117200  0.69270500  1
  In  In47  1  0.00000000  0.73882800  0.62872400  1
