# generated using pymatgen
data_Mg5Zn17
_symmetry_space_group_name_H-M   'P 1'
_cell_length_a   4.57917500
_cell_length_b   5.75474300
_cell_length_c   49.83753800
_cell_angle_alpha   90.00000000
_cell_angle_beta   90.00000000
_cell_angle_gamma   90.00000000
_symmetry_Int_Tables_number   1
_chemical_formula_structural   Mg5Zn17
_chemical_formula_sum   'Mg10 Zn34'
_cell_volume   1313.31756924
_cell_formula_units_Z   2
loop_
 _symmetry_equiv_pos_site_id
 _symmetry_equiv_pos_as_xyz
  1  'x, y, z'
loop_
 _atom_site_type_symbol
 _atom_site_label
 _atom_site_symmetry_multiplicity
 _atom_site_fract_x
 _atom_site_fract_y
 _atom_site_fract_z
 _atom_site_occupancy
  Mg  Mg0  1  0.25000000  0.12020200  0.30833300  1
  Mg  Mg1  1  0.75000000  0.62020200  0.34166700  1
  Mg  Mg2  1  0.25000000  0.62020200  0.40833300  1
  Mg  Mg3  1  0.75000000  0.12020200  0.44166700  1
  Mg  Mg4  1  0.25000000  0.12020200  0.50833300  1
  Mg  Mg5  1  0.75000000  0.62020200  0.54166700  1
  Mg  Mg6  1  0.25000000  0.62020200  0.60833300  1
  Mg  Mg7  1  0.75000000  0.12020200  0.64166700  1
  Mg  Mg8  1  0.25000000  0.12020200  0.70833300  1
  Mg  Mg9  1  0.75000000  0.62020200  0.74166700  1
  Zn  Zn10  1  0.25000000  0.86060700  0.25897300  1
  Zn  Zn11  1  0.25000000  0.37979800  0.25897300  1
  Zn  Zn12  1  0.75000000  0.86060700  0.29102700  1
  Zn  Zn13  1  0.75000000  0.37979800  0.29102700  1
  Zn  Zn14  1  0.25000000  0.36060700  0.35897300  1
  Zn  Zn15  1  0.25000000  0.62020200  0.30705400  1
  Zn  Zn16  1  0.25000000  0.87979800  0.35897300  1
  Zn  Zn17  1  0.75000000  0.12020200  0.34294600  1
  Zn  Zn18  1  0.75000000  0.36060700  0.39102700  1
  Zn  Zn19  1  0.75000000  0.87979800  0.39102700  1
  Zn  Zn20  1  0.25000000  0.86060700  0.45897300  1
  Zn  Zn21  1  0.25000000  0.12020200  0.40705400  1
  Zn  Zn22  1  0.25000000  0.37979800  0.45897300  1
  Zn  Zn23  1  0.75000000  0.62020200  0.44294600  1
  Zn  Zn24  1  0.75000000  0.86060700  0.49102700  1
  Zn  Zn25  1  0.75000000  0.37979800  0.49102700  1
  Zn  Zn26  1  0.25000000  0.36060700  0.55897300  1
  Zn  Zn27  1  0.25000000  0.62020200  0.50705400  1
  Zn  Zn28  1  0.25000000  0.87979800  0.55897300  1
  Zn  Zn29  1  0.75000000  0.12020200  0.54294600  1
  Zn  Zn30  1  0.75000000  0.36060700  0.59102700  1
  Zn  Zn31  1  0.75000000  0.87979800  0.59102700  1
  Zn  Zn32  1  0.25000000  0.86060700  0.65897300  1
  Zn  Zn33  1  0.25000000  0.12020200  0.60705400  1
  Zn  Zn34  1  0.25000000  0.37979800  0.65897300  1
  Zn  Zn35  1  0.75000000  0.62020200  0.64294600  1
  Zn  Zn36  1  0.75000000  0.86060700  0.69102700  1
  Zn  Zn37  1  0.75000000  0.37979800  0.69102700  1
  Zn  Zn38  1  0.25000000  0.36060700  0.75897300  1
  Zn  Zn39  1  0.25000000  0.62020200  0.70705400  1
  Zn  Zn40  1  0.25000000  0.87979800  0.75897300  1
  Zn  Zn41  1  0.75000000  0.12020200  0.74294600  1
  Zn  Zn42  1  0.75000000  0.36060700  0.79102700  1
  Zn  Zn43  1  0.75000000  0.87979800  0.79102700  1
