# generated using pymatgen
data_Mg4B7
_symmetry_space_group_name_H-M   'P 1'
_cell_length_a   3.08673700
_cell_length_b   3.08673755
_cell_length_c   45.43622300
_cell_angle_alpha   90.00000000
_cell_angle_beta   90.00000000
_cell_angle_gamma   59.99999515
_symmetry_Int_Tables_number   1
_chemical_formula_structural   Mg4B7
_chemical_formula_sum   'Mg8 B14'
_cell_volume   374.91443790
_cell_formula_units_Z   2
loop_
 _symmetry_equiv_pos_site_id
 _symmetry_equiv_pos_as_xyz
  1  'x, y, z'
loop_
 _atom_site_type_symbol
 _atom_site_label
 _atom_site_symmetry_multiplicity
 _atom_site_fract_x
 _atom_site_fract_y
 _atom_site_fract_z
 _atom_site_occupancy
  Mg  Mg0  1  0.00000000  0.00000000  0.25641000  1
  Mg  Mg1  1  0.00000000  0.00000000  0.33333300  1
  Mg  Mg2  1  0.00000000  0.00000000  0.41025600  1
  Mg  Mg3  1  0.00000000  0.00000000  0.48717900  1
  Mg  Mg4  1  0.00000000  0.00000000  0.56410300  1
  Mg  Mg5  1  0.00000000  0.00000000  0.64102600  1
  Mg  Mg6  1  0.00000000  0.00000000  0.71794900  1
  Mg  Mg7  1  0.00000000  0.00000000  0.79487200  1
  B  B8  1  0.66666700  0.66666700  0.29487200  1
  B  B9  1  0.33333300  0.33333300  0.29487200  1
  B  B10  1  0.66666700  0.66666700  0.37179500  1
  B  B11  1  0.33333300  0.33333300  0.37179500  1
  B  B12  1  0.66666700  0.66666700  0.44871800  1
  B  B13  1  0.33333300  0.33333300  0.44871800  1
  B  B14  1  0.66666700  0.66666700  0.52564100  1
  B  B15  1  0.33333300  0.33333300  0.52564100  1
  B  B16  1  0.66666700  0.66666700  0.60256400  1
  B  B17  1  0.33333300  0.33333300  0.60256400  1
  B  B18  1  0.66666700  0.66666700  0.67948700  1
  B  B19  1  0.33333300  0.33333300  0.67948700  1
  B  B20  1  0.66666700  0.66666700  0.75641000  1
  B  B21  1  0.33333300  0.33333300  0.75641000  1
