# generated using pymatgen
data_MgB6
_symmetry_space_group_name_H-M   'P 1'
_cell_length_a   5.97250318
_cell_length_b   7.26364858
_cell_length_c   45.01062000
_cell_angle_alpha   86.50256948
_cell_angle_beta   86.19588580
_cell_angle_gamma   65.72461627
_symmetry_Int_Tables_number   1
_chemical_formula_structural   MgB6
_chemical_formula_sum   'Mg14 B84'
_cell_volume   1774.86073170
_cell_formula_units_Z   14
loop_
 _symmetry_equiv_pos_site_id
 _symmetry_equiv_pos_as_xyz
  1  'x, y, z'
loop_
 _atom_site_type_symbol
 _atom_site_label
 _atom_site_symmetry_multiplicity
 _atom_site_fract_x
 _atom_site_fract_y
 _atom_site_fract_z
 _atom_site_occupancy
  Mg  Mg0  1  0.42147600  0.00972700  0.64732100  1
  Mg  Mg1  1  0.92147600  0.00972700  0.64732100  1
  Mg  Mg2  1  0.85004700  0.29544100  0.50446400  1
  Mg  Mg3  1  0.35004700  0.29544100  0.50446400  1
  Mg  Mg4  1  0.33662400  0.73447900  0.59227200  1
  Mg  Mg5  1  0.93489900  0.57068900  0.55951400  1
  Mg  Mg6  1  0.27861900  0.58115500  0.36160700  1
  Mg  Mg7  1  0.77861900  0.58115500  0.36160700  1
  Mg  Mg8  1  0.76519600  0.02019400  0.44941500  1
  Mg  Mg9  1  0.36347000  0.85640300  0.41665700  1
  Mg  Mg10  1  0.70719000  0.86687000  0.21875000  1
  Mg  Mg11  1  0.20719000  0.86687000  0.21875000  1
  Mg  Mg12  1  0.19376700  0.30590800  0.30655800  1
  Mg  Mg13  1  0.79204200  0.14211700  0.27379900  1
  B  B14  1  0.16665100  0.05426800  0.61243000  1
  B  B15  1  0.41446100  0.08445500  0.59340100  1
  B  B16  1  0.90768300  0.08445500  0.59340100  1
  B  B17  1  0.66431000  0.13243600  0.53894500  1
  B  B18  1  0.74114500  0.92156700  0.59614200  1
  B  B19  1  0.58660800  0.95402800  0.56164000  1
  B  B20  1  0.89772400  0.95402800  0.56164000  1
  B  B21  1  0.22744600  0.02720900  0.51789900  1
  B  B22  1  0.29179200  0.77270100  0.64371500  1
  B  B23  1  0.83699400  0.70590700  0.62010500  1
  B  B24  1  0.61122200  0.64174300  0.64259100  1
  B  B25  1  0.10444400  0.64174300  0.64259100  1
  B  B26  1  0.16082200  0.83033800  0.53690200  1
  B  B27  1  0.47193900  0.83033800  0.53690200  1
  B  B28  1  0.79958500  0.47483000  0.61488400  1
  B  B29  1  0.11070100  0.47483000  0.61488400  1
  B  B30  1  0.16707900  0.66342500  0.50919500  1
  B  B31  1  0.66030100  0.66342500  0.50919500  1
  B  B32  1  0.43452900  0.59926100  0.53168100  1
  B  B33  1  0.97973100  0.53246700  0.50807000  1
  B  B34  1  0.04407700  0.27795900  0.63388700  1
  B  B35  1  0.37379900  0.35114000  0.59014600  1
  B  B36  1  0.68491500  0.35114000  0.59014600  1
  B  B37  1  0.53037800  0.38360100  0.55564300  1
  B  B38  1  0.60721300  0.17273200  0.61284100  1
  B  B39  1  0.36384000  0.22071300  0.55838500  1
  B  B40  1  0.85706200  0.22071300  0.55838500  1
  B  B41  1  0.10487200  0.25090000  0.53935500  1
  B  B42  1  0.59522300  0.33998200  0.46957300  1
  B  B43  1  0.84303200  0.37017000  0.45054400  1
  B  B44  1  0.33625400  0.37017000  0.45054400  1
  B  B45  1  0.09288100  0.41815000  0.39608700  1
  B  B46  1  0.16971700  0.20728100  0.45328500  1
  B  B47  1  0.01517900  0.23974200  0.41878300  1
  B  B48  1  0.32629600  0.23974200  0.41878300  1
  B  B49  1  0.65601700  0.31292400  0.37504200  1
  B  B50  1  0.72036300  0.05841500  0.50085800  1
  B  B51  1  0.26556600  0.99162100  0.47724700  1
  B  B52  1  0.03979300  0.92745800  0.49973400  1
  B  B53  1  0.53301500  0.92745800  0.49973400  1
  B  B54  1  0.58939300  0.11605200  0.39404500  1
  B  B55  1  0.90051000  0.11605200  0.39404500  1
  B  B56  1  0.22815600  0.76054400  0.47202700  1
  B  B57  1  0.53927300  0.76054400  0.47202700  1
  B  B58  1  0.59565100  0.94913900  0.36633800  1
  B  B59  1  0.08887300  0.94913900  0.36633800  1
  B  B60  1  0.86310000  0.88497500  0.38882400  1
  B  B61  1  0.40830300  0.81818200  0.36521300  1
  B  B62  1  0.47264900  0.56367300  0.49102900  1
  B  B63  1  0.80237000  0.63685400  0.44728900  1
  B  B64  1  0.11348700  0.63685400  0.44728900  1
  B  B65  1  0.95894900  0.66931500  0.41278600  1
  B  B66  1  0.03578500  0.45844600  0.46998400  1
  B  B67  1  0.79241200  0.50642700  0.41552800  1
  B  B68  1  0.28563400  0.50642700  0.41552800  1
  B  B69  1  0.53344300  0.53661500  0.39649800  1
  B  B70  1  0.02379400  0.62569600  0.32671600  1
  B  B71  1  0.27160400  0.65588400  0.30768700  1
  B  B72  1  0.76482600  0.65588400  0.30768700  1
  B  B73  1  0.52145300  0.70386500  0.25323000  1
  B  B74  1  0.59828800  0.49299600  0.31042800  1
  B  B75  1  0.44375100  0.52545700  0.27592500  1
  B  B76  1  0.75486700  0.52545700  0.27592500  1
  B  B77  1  0.08458900  0.59863800  0.23218500  1
  B  B78  1  0.14893500  0.34412900  0.35800100  1
  B  B79  1  0.69413700  0.27733600  0.33439000  1
  B  B80  1  0.46836500  0.21317200  0.35687700  1
  B  B81  1  0.96158700  0.21317200  0.35687700  1
  B  B82  1  0.01796500  0.40176600  0.25118700  1
  B  B83  1  0.32908100  0.40176600  0.25118700  1
  B  B84  1  0.65672700  0.04625900  0.32917000  1
  B  B85  1  0.96784400  0.04625900  0.32917000  1
  B  B86  1  0.02422200  0.23485300  0.22348000  1
  B  B87  1  0.51744400  0.23485300  0.22348000  1
  B  B88  1  0.29167200  0.17068900  0.24596700  1
  B  B89  1  0.83687400  0.10389600  0.22235600  1
  B  B90  1  0.90122000  0.84938700  0.34817200  1
  B  B91  1  0.23094200  0.92256900  0.30443200  1
  B  B92  1  0.54205800  0.92256900  0.30443200  1
  B  B93  1  0.38752100  0.95503000  0.26992900  1
  B  B94  1  0.46435600  0.74416000  0.32712700  1
  B  B95  1  0.22098300  0.79214100  0.27267100  1
  B  B96  1  0.71420500  0.79214100  0.27267100  1
  B  B97  1  0.96201500  0.82232900  0.25364100  1
