# generated using pymatgen
data_MgZn2
_symmetry_space_group_name_H-M   'P 1'
_cell_length_a   5.07402260
_cell_length_b   13.26606241
_cell_length_c   57.00757700
_cell_angle_alpha   92.18610401
_cell_angle_beta   87.66012493
_cell_angle_gamma   100.62858194
_symmetry_Int_Tables_number   1
_chemical_formula_structural   MgZn2
_chemical_formula_sum   'Mg22 Zn44'
_cell_volume   3766.49990850
_cell_formula_units_Z   22
loop_
 _symmetry_equiv_pos_site_id
 _symmetry_equiv_pos_as_xyz
  1  'x, y, z'
loop_
 _atom_site_type_symbol
 _atom_site_label
 _atom_site_symmetry_multiplicity
 _atom_site_fract_x
 _atom_site_fract_y
 _atom_site_fract_z
 _atom_site_occupancy
  Mg  Mg0  1  0.25471500  0.62791900  0.37495500  1
  Mg  Mg1  1  0.46421500  0.99474600  0.32835600  1
  Mg  Mg2  1  0.56613900  0.37556800  0.48807900  1
  Mg  Mg3  1  0.80460800  0.74863700  0.38910500  1
  Mg  Mg4  1  0.93724600  0.92264900  0.30053900  1
  Mg  Mg5  1  0.13012500  0.41860600  0.40701300  1
  Mg  Mg6  1  0.82063400  0.67826700  0.29413600  1
  Mg  Mg7  1  0.90312800  0.95910000  0.41089500  1
  Mg  Mg8  1  0.25732400  0.57818600  0.31904600  1
  Mg  Mg9  1  0.77049100  0.78508800  0.49946100  1
  Mg  Mg10  1  0.14159800  0.33216800  0.31192100  1
  Mg  Mg11  1  0.45041200  0.12955100  0.48095400  1
  Mg  Mg12  1  0.38584600  0.89124900  0.37622800  1
  Mg  Mg13  1  0.13217700  0.47267200  0.46279300  1
  Mg  Mg14  1  0.57556000  0.23506400  0.33720700  1
  Mg  Mg15  1  0.13710200  0.27946900  0.25586400  1
  Mg  Mg16  1  0.45302200  0.07981800  0.42504500  1
  Mg  Mg17  1  0.57761100  0.28913000  0.39298700  1
  Mg  Mg18  1  0.24352200  0.71299000  0.47164400  1
  Mg  Mg19  1  0.32189100  0.81648700  0.42377200  1
  Mg  Mg20  1  0.57063400  0.42826700  0.54413600  1
  Mg  Mg21  1  0.88710200  0.02946900  0.50586400  1
  Zn  Zn22  1  0.38450000  0.80500100  0.29807200  1
  Zn  Zn23  1  0.91813000  0.93527900  0.35434700  1
  Zn  Zn24  1  0.69143700  0.45174400  0.31571300  1
  Zn  Zn25  1  0.11476400  0.93652200  0.46207800  1
  Zn  Zn26  1  0.80380300  0.13824200  0.29419100  1
  Zn  Zn27  1  0.09888400  0.77561200  0.33761700  1
  Zn  Zn28  1  0.97886800  0.47886800  0.27500000  1
  Zn  Zn29  1  0.32323700  0.90273500  0.50192800  1
  Zn  Zn30  1  0.07481900  0.26310900  0.36572700  1
  Zn  Zn31  1  0.66018400  0.81914500  0.25578100  1
  Zn  Zn32  1  0.91659500  0.42862300  0.35611900  1
  Zn  Zn33  1  0.69335100  0.52188200  0.39079900  1
  Zn  Zn34  1  0.31832400  0.65021000  0.26660000  1
  Zn  Zn35  1  0.68586300  0.59578100  0.46690600  1
  Zn  Zn36  1  0.78960700  0.77245800  0.44565300  1
  Zn  Zn37  1  0.63291700  0.44462700  0.43427300  1
  Zn  Zn38  1  0.46394900  0.61725100  0.42491400  1
  Zn  Zn39  1  0.29755300  0.13859100  0.29421900  1
  Zn  Zn40  1  0.60885300  0.93212500  0.46238300  1
  Zn  Zn41  1  0.63941300  0.30752600  0.28340000  1
  Zn  Zn42  1  0.24378700  0.09048600  0.37508600  1
  Zn  Zn43  1  0.15393400  0.81949400  0.25580900  1
  Zn  Zn44  1  0.47886800  0.47886800  0.27500000  1
  Zn  Zn45  1  0.76184700  0.60485900  0.34613400  1
  Zn  Zn46  1  0.41164800  0.42698600  0.35625100  1
  Zn  Zn47  1  0.97912400  0.62034600  0.42446000  1
  Zn  Zn48  1  0.94589000  0.10287800  0.45386600  1
  Zn  Zn49  1  0.72861200  0.08739000  0.37554000  1
  Zn  Zn50  1  0.02187300  0.11195500  0.33309400  1
  Zn  Zn51  1  0.29608800  0.28075000  0.44374900  1
  Zn  Zn52  1  0.59297300  0.77121400  0.33792200  1
  Zn  Zn53  1  0.47886800  0.97886800  0.27500000  1
  Zn  Zn54  1  0.79114200  0.27911400  0.44388100  1
  Zn  Zn55  1  0.01438600  0.18585500  0.40920100  1
  Zn  Zn56  1  0.01630000  0.25599300  0.48428700  1
  Zn  Zn57  1  0.55380300  0.88824200  0.54419100  1
  Zn  Zn58  1  0.72886800  0.22886800  0.52500000  1
  Zn  Zn59  1  0.41018400  0.56914500  0.50578100  1
  Zn  Zn60  1  0.06832400  0.40021000  0.51660000  1
  Zn  Zn61  1  0.04755300  0.88859100  0.54421900  1
  Zn  Zn62  1  0.38941300  0.05752600  0.53340000  1
  Zn  Zn63  1  0.90393400  0.56949400  0.50580900  1
  Zn  Zn64  1  0.22886800  0.22886800  0.52500000  1
  Zn  Zn65  1  0.22886800  0.72886800  0.52500000  1
