# generated using pymatgen
data_CeMg10
_symmetry_space_group_name_H-M   'P 1'
_cell_length_a   10.33012841
_cell_length_b   10.08648700
_cell_length_c   45.02798700
_cell_angle_alpha   90.00000000
_cell_angle_beta   83.41322442
_cell_angle_gamma   90.00000000
_symmetry_Int_Tables_number   1
_chemical_formula_structural   CeMg10
_chemical_formula_sum   'Ce10 Mg100'
_cell_volume   4660.70935486
_cell_formula_units_Z   10
loop_
 _symmetry_equiv_pos_site_id
 _symmetry_equiv_pos_as_xyz
  1  'x, y, z'
loop_
 _atom_site_type_symbol
 _atom_site_label
 _atom_site_symmetry_multiplicity
 _atom_site_fract_x
 _atom_site_fract_y
 _atom_site_fract_z
 _atom_site_occupancy
  Ce  Ce0  1  0.40995100  0.75000000  0.38947400  1
  Ce  Ce1  1  0.40995100  0.25000000  0.38947400  1
  Ce  Ce2  1  0.47661800  0.75000000  0.25614000  1
  Ce  Ce3  1  0.94328400  0.25000000  0.32280700  1
  Ce  Ce4  1  0.80995100  0.75000000  0.58947400  1
  Ce  Ce5  1  0.80995100  0.25000000  0.58947400  1
  Ce  Ce6  1  0.87661800  0.75000000  0.45614000  1
  Ce  Ce7  1  0.34328400  0.25000000  0.52280700  1
  Ce  Ce8  1  0.27661800  0.75000000  0.65614000  1
  Ce  Ce9  1  0.74328400  0.25000000  0.72280700  1
  Mg  Mg10  1  0.90995100  0.00000000  0.38947400  1
  Mg  Mg11  1  0.70995100  0.00000000  0.28947400  1
  Mg  Mg12  1  0.23705900  0.97841000  0.22191800  1
  Mg  Mg13  1  0.75039900  0.52159000  0.22191800  1
  Mg  Mg14  1  0.97750700  0.02159000  0.25436200  1
  Mg  Mg15  1  0.59353500  0.25000000  0.31722200  1
  Mg  Mg16  1  0.47661800  0.40231100  0.25614000  1
  Mg  Mg17  1  0.94328400  0.90231100  0.32280700  1
  Mg  Mg18  1  0.66950300  0.47841000  0.35703000  1
  Mg  Mg19  1  0.77992900  0.25000000  0.25509100  1
  Mg  Mg20  1  0.12128400  0.75000000  0.26172500  1
  Mg  Mg21  1  0.23705900  0.52159000  0.22191800  1
  Mg  Mg22  1  0.75794000  0.75000000  0.38284000  1
  Mg  Mg23  1  0.29861800  0.25000000  0.31722200  1
  Mg  Mg24  1  0.75039900  0.97841000  0.22191800  1
  Mg  Mg25  1  0.44239500  0.97841000  0.32458600  1
  Mg  Mg26  1  0.97750700  0.47841000  0.25436200  1
  Mg  Mg27  1  0.44239500  0.52159000  0.32458600  1
  Mg  Mg28  1  0.47661800  0.09768900  0.25614000  1
  Mg  Mg29  1  0.66950300  0.02159000  0.35703000  1
  Mg  Mg30  1  0.20995100  0.50000000  0.28947400  1
  Mg  Mg31  1  0.06859600  0.75000000  0.38284000  1
  Mg  Mg32  1  0.82636700  0.75000000  0.26172500  1
  Mg  Mg33  1  0.94328400  0.59768900  0.32280700  1
  Mg  Mg34  1  0.18284300  0.02159000  0.35703000  1
  Mg  Mg35  1  0.24554600  0.75000000  0.32385600  1
  Mg  Mg36  1  0.35130600  0.25000000  0.19610800  1
  Mg  Mg37  1  0.18284300  0.47841000  0.35703000  1
  Mg  Mg38  1  0.63997300  0.75000000  0.32385600  1
  Mg  Mg39  1  0.70995100  0.50000000  0.28947400  1
  Mg  Mg40  1  0.17435500  0.25000000  0.25509100  1
  Mg  Mg41  1  0.66196200  0.25000000  0.19610800  1
  Mg  Mg42  1  0.20995100  0.00000000  0.28947400  1
  Mg  Mg43  1  0.90995100  0.50000000  0.38947400  1
  Mg  Mg44  1  0.30995100  0.00000000  0.58947400  1
  Mg  Mg45  1  0.10995100  0.00000000  0.48947400  1
  Mg  Mg46  1  0.63705900  0.97841000  0.42191800  1
  Mg  Mg47  1  0.15039900  0.52159000  0.42191800  1
  Mg  Mg48  1  0.37750700  0.02159000  0.45436200  1
  Mg  Mg49  1  0.99353500  0.25000000  0.51722200  1
  Mg  Mg50  1  0.87661800  0.40231100  0.45614000  1
  Mg  Mg51  1  0.34328400  0.90231100  0.52280700  1
  Mg  Mg52  1  0.06950300  0.47841000  0.55703000  1
  Mg  Mg53  1  0.17992900  0.25000000  0.45509100  1
  Mg  Mg54  1  0.52128400  0.75000000  0.46172500  1
  Mg  Mg55  1  0.63705900  0.52159000  0.42191800  1
  Mg  Mg56  1  0.15794000  0.75000000  0.58284000  1
  Mg  Mg57  1  0.69861800  0.25000000  0.51722200  1
  Mg  Mg58  1  0.15039900  0.97841000  0.42191800  1
  Mg  Mg59  1  0.84239500  0.97841000  0.52458600  1
  Mg  Mg60  1  0.37750700  0.47841000  0.45436200  1
  Mg  Mg61  1  0.84239500  0.52159000  0.52458600  1
  Mg  Mg62  1  0.87661800  0.09768900  0.45614000  1
  Mg  Mg63  1  0.06950300  0.02159000  0.55703000  1
  Mg  Mg64  1  0.60995100  0.50000000  0.48947400  1
  Mg  Mg65  1  0.46859600  0.75000000  0.58284000  1
  Mg  Mg66  1  0.22636700  0.75000000  0.46172500  1
  Mg  Mg67  1  0.34328400  0.59768900  0.52280700  1
  Mg  Mg68  1  0.58284300  0.02159000  0.55703000  1
  Mg  Mg69  1  0.64554600  0.75000000  0.52385600  1
  Mg  Mg70  1  0.75130600  0.25000000  0.39610800  1
  Mg  Mg71  1  0.58284300  0.47841000  0.55703000  1
  Mg  Mg72  1  0.03997300  0.75000000  0.52385600  1
  Mg  Mg73  1  0.10995100  0.50000000  0.48947400  1
  Mg  Mg74  1  0.57435500  0.25000000  0.45509100  1
  Mg  Mg75  1  0.06196200  0.25000000  0.39610800  1
  Mg  Mg76  1  0.60995100  0.00000000  0.48947400  1
  Mg  Mg77  1  0.30995100  0.50000000  0.58947400  1
  Mg  Mg78  1  0.50995100  0.00000000  0.68947400  1
  Mg  Mg79  1  0.03705900  0.97841000  0.62191800  1
  Mg  Mg80  1  0.55039900  0.52159000  0.62191800  1
  Mg  Mg81  1  0.77750700  0.02159000  0.65436200  1
  Mg  Mg82  1  0.39353500  0.25000000  0.71722200  1
  Mg  Mg83  1  0.27661800  0.40231100  0.65614000  1
  Mg  Mg84  1  0.74328400  0.90231100  0.72280700  1
  Mg  Mg85  1  0.46950300  0.47841000  0.75703000  1
  Mg  Mg86  1  0.57992900  0.25000000  0.65509100  1
  Mg  Mg87  1  0.92128400  0.75000000  0.66172500  1
  Mg  Mg88  1  0.03705900  0.52159000  0.62191800  1
  Mg  Mg89  1  0.55794000  0.75000000  0.78284000  1
  Mg  Mg90  1  0.09861800  0.25000000  0.71722200  1
  Mg  Mg91  1  0.55039900  0.97841000  0.62191800  1
  Mg  Mg92  1  0.24239500  0.97841000  0.72458600  1
  Mg  Mg93  1  0.77750700  0.47841000  0.65436200  1
  Mg  Mg94  1  0.24239500  0.52159000  0.72458600  1
  Mg  Mg95  1  0.27661800  0.09768900  0.65614000  1
  Mg  Mg96  1  0.46950300  0.02159000  0.75703000  1
  Mg  Mg97  1  0.00995100  0.50000000  0.68947400  1
  Mg  Mg98  1  0.86859600  0.75000000  0.78284000  1
  Mg  Mg99  1  0.62636700  0.75000000  0.66172500  1
  Mg  Mg100  1  0.74328400  0.59768900  0.72280700  1
  Mg  Mg101  1  0.98284300  0.02159000  0.75703000  1
  Mg  Mg102  1  0.04554600  0.75000000  0.72385600  1
  Mg  Mg103  1  0.15130600  0.25000000  0.59610800  1
  Mg  Mg104  1  0.98284300  0.47841000  0.75703000  1
  Mg  Mg105  1  0.43997300  0.75000000  0.72385600  1
  Mg  Mg106  1  0.50995100  0.50000000  0.68947400  1
  Mg  Mg107  1  0.97435500  0.25000000  0.65509100  1
  Mg  Mg108  1  0.46196200  0.25000000  0.59610800  1
  Mg  Mg109  1  0.00995100  0.00000000  0.68947400  1
