# generated using pymatgen
data_Mg32Zn55
_symmetry_space_group_name_H-M   'P 1'
_cell_length_a   5.07402229
_cell_length_b   14.70723601
_cell_length_c   50.49845100
_cell_angle_alpha   88.21601723
_cell_angle_beta   89.67566990
_cell_angle_gamma   90.29193359
_symmetry_Int_Tables_number   1
_chemical_formula_structural   Mg32Zn55
_chemical_formula_sum   'Mg32 Zn55'
_cell_volume   3766.49971225
_cell_formula_units_Z   1
loop_
 _symmetry_equiv_pos_site_id
 _symmetry_equiv_pos_as_xyz
  1  'x, y, z'
loop_
 _atom_site_type_symbol
 _atom_site_label
 _atom_site_symmetry_multiplicity
 _atom_site_fract_x
 _atom_site_fract_y
 _atom_site_fract_z
 _atom_site_occupancy
  Mg  Mg0  1  0.59876200  0.08746200  0.26047600  1
  Mg  Mg1  1  0.09597500  0.10391400  0.43041900  1
  Mg  Mg2  1  0.10460100  0.60015800  0.29528200  1
  Mg  Mg3  1  0.60215300  0.81458100  0.47675900  1
  Mg  Mg4  1  0.60080400  0.19020500  0.45539800  1
  Mg  Mg5  1  0.60266600  0.91491500  0.30478900  1
  Mg  Mg6  1  0.09842700  0.40312000  0.26809300  1
  Mg  Mg7  1  0.59796900  0.78548000  0.41869600  1
  Mg  Mg8  1  0.59924100  0.28468700  0.28688600  1
  Mg  Mg9  1  0.59931800  0.40985600  0.44005700  1
  Mg  Mg10  1  0.59552100  0.24990300  0.35017200  1
  Mg  Mg11  1  0.10088100  0.56537400  0.35856800  1
  Mg  Mg12  1  0.09866000  0.89852100  0.44432500  1
  Mg  Mg13  1  0.59975800  0.71925900  0.27732800  1
  Mg  Mg14  1  0.10036400  0.13080200  0.36812600  1
  Mg  Mg15  1  0.60169500  0.44694100  0.37736100  1
  Mg  Mg16  1  0.10135900  0.76259900  0.38497900  1
  Mg  Mg17  1  0.09745500  0.93514600  0.34066500  1
  Mg  Mg18  1  0.10414600  0.49614700  0.46503600  1
  Mg  Mg19  1  0.10146200  0.70154000  0.45113000  1
  Mg  Mg20  1  0.09876200  0.83746200  0.51047600  1
  Mg  Mg21  1  0.60460100  0.35015800  0.54528200  1
  Mg  Mg22  1  0.10266600  0.66491500  0.55478900  1
  Mg  Mg23  1  0.59842700  0.15312000  0.51809300  1
  Mg  Mg24  1  0.09924100  0.03468700  0.53688600  1
  Mg  Mg25  1  0.09552100  0.99990300  0.60017200  1
  Mg  Mg26  1  0.60088100  0.31537400  0.60856800  1
  Mg  Mg27  1  0.09975800  0.46925900  0.52732800  1
  Mg  Mg28  1  0.60036400  0.88080200  0.61812600  1
  Mg  Mg29  1  0.10169500  0.19694100  0.62736100  1
  Mg  Mg30  1  0.60135900  0.51259900  0.63497900  1
  Mg  Mg31  1  0.59745500  0.68514600  0.59066500  1
  Zn  Zn32  1  0.09595900  0.17004200  0.48542600  1
  Zn  Zn33  1  0.59933100  0.99158200  0.43878800  1
  Zn  Zn34  1  0.10357400  0.26557500  0.31933000  1
  Zn  Zn35  1  0.34945300  0.58790300  0.41154400  1
  Zn  Zn36  1  0.84521800  0.26790800  0.40308600  1
  Zn  Zn37  1  0.34710800  0.01440200  0.48288700  1
  Zn  Zn38  1  0.85006100  0.42503000  0.32272700  1
  Zn  Zn39  1  0.10416200  0.43001900  0.41002900  1
  Zn  Zn40  1  0.60086700  0.03086600  0.35398500  1
  Zn  Zn41  1  0.84849400  0.33217200  0.49246300  1
  Zn  Zn42  1  0.84665200  0.10827300  0.31500900  1
  Zn  Zn43  1  0.09918600  0.00153700  0.28302400  1
  Zn  Zn44  1  0.60047700  0.49936700  0.28199200  1
  Zn  Zn45  1  0.60557000  0.48461200  0.49552300  1
  Zn  Zn46  1  0.60079000  0.60847900  0.45666700  1
  Zn  Zn47  1  0.09925500  0.81919500  0.29146900  1
  Zn  Zn48  1  0.35921400  0.89744800  0.25065300  1
  Zn  Zn49  1  0.35162800  0.26788900  0.40299200  1
  Zn  Zn50  1  0.85301300  0.58565900  0.41256700  1
  Zn  Zn51  1  0.09964500  0.35069400  0.36346300  1
  Zn  Zn52  1  0.34090800  0.95261300  0.39480100  1
  Zn  Zn53  1  0.35490400  0.33215300  0.49236900  1
  Zn  Zn54  1  0.35006100  0.42503000  0.32272700  1
  Zn  Zn55  1  0.09451000  0.18977400  0.27344600  1
  Zn  Zn56  1  0.35071500  0.10737000  0.31538500  1
  Zn  Zn57  1  0.84581400  0.89992600  0.24999300  1
  Zn  Zn58  1  0.60561100  0.66028700  0.37200900  1
  Zn  Zn59  1  0.85430800  0.95013500  0.39546200  1
  Zn  Zn60  1  0.59455200  0.11544900  0.39993200  1
  Zn  Zn61  1  0.34940700  0.74269100  0.33006900  1
  Zn  Zn62  1  0.85066800  0.01215800  0.48391000  1
  Zn  Zn63  1  0.10006100  0.30003000  0.44772700  1
  Zn  Zn64  1  0.85347000  0.74178800  0.33044600  1
  Zn  Zn65  1  0.60093600  0.84852400  0.36243000  1
  Zn  Zn66  1  0.59654800  0.58448500  0.32612400  1
  Zn  Zn67  1  0.60357400  0.01557500  0.56933000  1
  Zn  Zn68  1  0.35006100  0.17503000  0.57272700  1
  Zn  Zn69  1  0.10086700  0.78086600  0.60398500  1
  Zn  Zn70  1  0.34665200  0.85827300  0.56500900  1
  Zn  Zn71  1  0.59918600  0.75153700  0.53302400  1
  Zn  Zn72  1  0.10047700  0.24936700  0.53199200  1
  Zn  Zn73  1  0.59925500  0.56919500  0.54146900  1
  Zn  Zn74  1  0.85921400  0.64744800  0.50065300  1
  Zn  Zn75  1  0.59964500  0.10069400  0.61346300  1
  Zn  Zn76  1  0.84090800  0.70261300  0.64480100  1
  Zn  Zn77  1  0.85006100  0.17503000  0.57272700  1
  Zn  Zn78  1  0.59451000  0.93977400  0.52344600  1
  Zn  Zn79  1  0.85071500  0.85737000  0.56538500  1
  Zn  Zn80  1  0.34581400  0.64992600  0.49999300  1
  Zn  Zn81  1  0.10561100  0.41028700  0.62200900  1
  Zn  Zn82  1  0.35430800  0.70013500  0.64546200  1
  Zn  Zn83  1  0.84940700  0.49269100  0.58006900  1
  Zn  Zn84  1  0.35347000  0.49178800  0.58044600  1
  Zn  Zn85  1  0.10093600  0.59852400  0.61243000  1
  Zn  Zn86  1  0.09654800  0.33448500  0.57612400  1
