# generated using pymatgen
data_Sr14Mg115
_symmetry_space_group_name_H-M   'P 1'
_cell_length_a   10.60291300
_cell_length_b   14.66206680
_cell_length_c   47.66603800
_cell_angle_alpha   92.42755603
_cell_angle_beta   90.00000000
_cell_angle_gamma   68.80296164
_symmetry_Int_Tables_number   1
_chemical_formula_structural   Sr14Mg115
_chemical_formula_sum   'Sr14 Mg115'
_cell_volume   6901.70350145
_cell_formula_units_Z   1
loop_
 _symmetry_equiv_pos_site_id
 _symmetry_equiv_pos_as_xyz
  1  'x, y, z'
loop_
 _atom_site_type_symbol
 _atom_site_label
 _atom_site_symmetry_multiplicity
 _atom_site_fract_x
 _atom_site_fract_y
 _atom_site_fract_z
 _atom_site_occupancy
  Sr  Sr0  1  0.42032100  0.15935700  0.34085200  1
  Sr  Sr1  1  0.13460700  0.73078600  0.31704300  1
  Sr  Sr2  1  0.13460700  0.73078600  0.48370900  1
  Sr  Sr3  1  0.84889300  0.30221400  0.45990000  1
  Sr  Sr4  1  0.70603600  0.58792900  0.36466200  1
  Sr  Sr5  1  0.56317800  0.87364300  0.43609000  1
  Sr  Sr6  1  0.84889300  0.30221400  0.62656600  1
  Sr  Sr7  1  0.56317800  0.87364300  0.60275700  1
  Sr  Sr8  1  0.42032100  0.15935700  0.50751900  1
  Sr  Sr9  1  0.27746400  0.44507200  0.57894700  1
  Sr  Sr10  1  0.56317800  0.87364300  0.76942400  1
  Sr  Sr11  1  0.27746400  0.44507200  0.74561400  1
  Sr  Sr12  1  0.13460700  0.73078600  0.65037600  1
  Sr  Sr13  1  0.99175000  0.01650000  0.72180500  1
  Mg  Mg14  1  0.98300200  0.52795500  0.30850500  1
  Mg  Mg15  1  0.48904200  0.52795500  0.30850500  1
  Mg  Mg16  1  0.27746400  0.94507200  0.32894700  1
  Mg  Mg17  1  0.77746400  0.94507200  0.32894700  1
  Mg  Mg18  1  0.27746400  0.44507200  0.32894700  1
  Mg  Mg19  1  0.48197200  0.74458700  0.31244200  1
  Mg  Mg20  1  0.07295600  0.14555600  0.34545300  1
  Mg  Mg21  1  0.77344000  0.74458700  0.31244200  1
  Mg  Mg22  1  0.78148800  0.14555600  0.34545300  1
  Mg  Mg23  1  0.57192600  0.36218800  0.34939000  1
  Mg  Mg24  1  0.99704600  0.00590800  0.30148300  1
  Mg  Mg25  1  0.55788200  0.88423500  0.35641200  1
  Mg  Mg26  1  0.06588600  0.36218800  0.34939000  1
  Mg  Mg27  1  0.84187100  0.31625800  0.37907100  1
  Mg  Mg28  1  0.69728800  0.09938400  0.45136200  1
  Mg  Mg29  1  0.20332800  0.09938400  0.45136200  1
  Mg  Mg30  1  0.91071100  0.67253800  0.42697700  1
  Mg  Mg31  1  0.03514900  0.92970200  0.36677200  1
  Mg  Mg32  1  0.32086400  0.35827300  0.39058100  1
  Mg  Mg33  1  0.23406500  0.53187000  0.43398000  1
  Mg  Mg34  1  0.94835100  0.10329900  0.41017100  1
  Mg  Mg35  1  0.13460700  0.73078600  0.40037600  1
  Mg  Mg36  1  0.63460700  0.23078600  0.40037600  1
  Mg  Mg37  1  0.13460700  0.23078600  0.40037600  1
  Mg  Mg38  1  0.99175000  0.51650000  0.47180500  1
  Mg  Mg39  1  0.49175000  0.51650000  0.47180500  1
  Mg  Mg40  1  0.99175000  0.01650000  0.47180500  1
  Mg  Mg41  1  0.20822300  0.88951500  0.43080000  1
  Mg  Mg42  1  0.57514300  0.44714200  0.41159100  1
  Mg  Mg43  1  0.19625800  0.31601600  0.45529900  1
  Mg  Mg44  1  0.78724200  0.71698400  0.48831000  1
  Mg  Mg45  1  0.69407100  0.01443000  0.38916100  1
  Mg  Mg46  1  0.36695200  0.57205700  0.36995200  1
  Mg  Mg47  1  0.48772600  0.31601600  0.45529900  1
  Mg  Mg48  1  0.06099100  0.57205700  0.36995200  1
  Mg  Mg49  1  0.97771500  0.44714200  0.41159100  1
  Mg  Mg50  1  0.29149900  0.01443000  0.38916100  1
  Mg  Mg51  1  0.90226200  0.88951500  0.43080000  1
  Mg  Mg52  1  0.49577400  0.71698400  0.48831000  1
  Mg  Mg53  1  0.35850300  0.78903400  0.37377500  1
  Mg  Mg54  1  0.28621200  0.93361700  0.49224700  1
  Mg  Mg55  1  0.42734300  0.14531400  0.42168100  1
  Mg  Mg56  1  0.71133200  0.57733700  0.44434000  1
  Mg  Mg57  1  0.85246300  0.78903400  0.37377500  1
  Mg  Mg58  1  0.41675100  0.67253800  0.42697700  1
  Mg  Mg59  1  0.27216800  0.45566400  0.49926900  1
  Mg  Mg60  1  0.78017200  0.93361700  0.49224700  1
  Mg  Mg61  1  0.55615700  0.88768700  0.52192800  1
  Mg  Mg62  1  0.41157400  0.67081200  0.59421900  1
  Mg  Mg63  1  0.91761400  0.67081200  0.59421900  1
  Mg  Mg64  1  0.62499700  0.24396700  0.56983400  1
  Mg  Mg65  1  0.74943500  0.50113000  0.50962900  1
  Mg  Mg66  1  0.03514900  0.92970200  0.53343800  1
  Mg  Mg67  1  0.94835100  0.10329900  0.57683700  1
  Mg  Mg68  1  0.66263600  0.67472700  0.55302800  1
  Mg  Mg69  1  0.84889300  0.30221400  0.54323300  1
  Mg  Mg70  1  0.34889300  0.80221400  0.54323300  1
  Mg  Mg71  1  0.84889300  0.80221400  0.54323300  1
  Mg  Mg72  1  0.70603600  0.08792900  0.61466200  1
  Mg  Mg73  1  0.20603600  0.08792900  0.61466200  1
  Mg  Mg74  1  0.70603600  0.58792900  0.61466200  1
  Mg  Mg75  1  0.92250800  0.46094400  0.57365700  1
  Mg  Mg76  1  0.28942900  0.01857100  0.55444800  1
  Mg  Mg77  1  0.91054400  0.88744500  0.59815600  1
  Mg  Mg78  1  0.50152800  0.28841300  0.63116700  1
  Mg  Mg79  1  0.40835700  0.58585800  0.53201800  1
  Mg  Mg80  1  0.08123800  0.14348500  0.51280900  1
  Mg  Mg81  1  0.20201200  0.88744500  0.59815600  1
  Mg  Mg82  1  0.77527700  0.14348500  0.51280900  1
  Mg  Mg83  1  0.69200100  0.01857100  0.55444800  1
  Mg  Mg84  1  0.00578500  0.58585800  0.53201800  1
  Mg  Mg85  1  0.61654800  0.46094400  0.57365700  1
  Mg  Mg86  1  0.21006000  0.28841300  0.63116700  1
  Mg  Mg87  1  0.07278900  0.36046200  0.51663200  1
  Mg  Mg88  1  0.00049700  0.50504500  0.63510400  1
  Mg  Mg89  1  0.14162900  0.71674200  0.56453800  1
  Mg  Mg90  1  0.42561700  0.14876500  0.58719700  1
  Mg  Mg91  1  0.56674900  0.36046200  0.51663200  1
  Mg  Mg92  1  0.13103700  0.24396700  0.56983400  1
  Mg  Mg93  1  0.98645400  0.02709200  0.64212600  1
  Mg  Mg94  1  0.49445700  0.50504500  0.63510400  1
  Mg  Mg95  1  0.27044200  0.45911500  0.66478500  1
  Mg  Mg96  1  0.12586000  0.24224100  0.73707600  1
  Mg  Mg97  1  0.63190000  0.24224100  0.73707600  1
  Mg  Mg98  1  0.33928200  0.81539500  0.71269200  1
  Mg  Mg99  1  0.46372100  0.07255900  0.65248600  1
  Mg  Mg100  1  0.74943500  0.50113000  0.67629500  1
  Mg  Mg101  1  0.66263600  0.67472700  0.71969500  1
  Mg  Mg102  1  0.37692200  0.24615600  0.69588500  1
  Mg  Mg103  1  0.56317800  0.87364300  0.68609000  1
  Mg  Mg104  1  0.06317800  0.37364300  0.68609000  1
  Mg  Mg105  1  0.56317800  0.37364300  0.68609000  1
  Mg  Mg106  1  0.42032100  0.65935700  0.75751900  1
  Mg  Mg107  1  0.92032100  0.65935700  0.75751900  1
  Mg  Mg108  1  0.42032100  0.15935700  0.75751900  1
  Mg  Mg109  1  0.63679400  0.03237200  0.71651400  1
  Mg  Mg110  1  0.00371500  0.58999900  0.69730500  1
  Mg  Mg111  1  0.62482900  0.45887300  0.74101300  1
  Mg  Mg112  1  0.21581300  0.85984100  0.77402400  1
  Mg  Mg113  1  0.12264200  0.15728700  0.67487600  1
  Mg  Mg114  1  0.79552300  0.71491400  0.65566700  1
  Mg  Mg115  1  0.91629700  0.45887300  0.74101300  1
  Mg  Mg116  1  0.48956300  0.71491400  0.65566700  1
  Mg  Mg117  1  0.40628600  0.58999900  0.69730500  1
  Mg  Mg118  1  0.72007100  0.15728700  0.67487600  1
  Mg  Mg119  1  0.33083400  0.03237200  0.71651400  1
  Mg  Mg120  1  0.92434500  0.85984100  0.77402400  1
  Mg  Mg121  1  0.78707500  0.93189100  0.65948900  1
  Mg  Mg122  1  0.71478300  0.07647400  0.77796100  1
  Mg  Mg123  1  0.85591500  0.28817100  0.70739600  1
  Mg  Mg124  1  0.13990300  0.72019400  0.73005500  1
  Mg  Mg125  1  0.28103500  0.93189100  0.65948900  1
  Mg  Mg126  1  0.84532200  0.81539500  0.71269200  1
  Mg  Mg127  1  0.70074000  0.59852100  0.78498300  1
  Mg  Mg128  1  0.20874300  0.07647400  0.77796100  1
