# generated using pymatgen
data_La2Mg
_symmetry_space_group_name_H-M   'P 1'
_cell_length_a   6.71963278
_cell_length_b   9.00193886
_cell_length_c   42.72961100
_cell_angle_alpha   91.59388813
_cell_angle_beta   91.45339096
_cell_angle_gamma   97.58387584
_symmetry_Int_Tables_number   1
_chemical_formula_structural   La2Mg
_chemical_formula_sum   'La32 Mg16'
_cell_volume   2560.00218928
_cell_formula_units_Z   16
loop_
 _symmetry_equiv_pos_site_id
 _symmetry_equiv_pos_as_xyz
  1  'x, y, z'
loop_
 _atom_site_type_symbol
 _atom_site_label
 _atom_site_symmetry_multiplicity
 _atom_site_fract_x
 _atom_site_fract_y
 _atom_site_fract_z
 _atom_site_occupancy
  La  La0  1  0.94692200  0.40361000  0.75201900  1
  La  La1  1  0.43769400  0.36562100  0.78644300  1
  La  La2  1  0.06522900  0.02597900  0.78948700  1
  La  La3  1  0.31938600  0.74325200  0.74897500  1
  La  La4  1  0.71615300  0.17284100  0.67509600  1
  La  La5  1  0.20692400  0.13485200  0.70952000  1
  La  La6  1  0.83446000  0.79521000  0.71256400  1
  La  La7  1  0.08861700  0.51248300  0.67205200  1
  La  La8  1  0.48538300  0.94207200  0.59817300  1
  La  La9  1  0.97615500  0.90408200  0.63259700  1
  La  La10  1  0.60369100  0.56444000  0.63564100  1
  La  La11  1  0.85784800  0.28171400  0.59512900  1
  La  La12  1  0.25461400  0.71130200  0.52125000  1
  La  La13  1  0.74538600  0.67331300  0.55567400  1
  La  La14  1  0.37292100  0.33367100  0.55871800  1
  La  La15  1  0.62707900  0.05094400  0.51820600  1
  La  La16  1  0.02384500  0.48053300  0.44432600  1
  La  La17  1  0.51461700  0.44254400  0.47875000  1
  La  La18  1  0.14215200  0.10290200  0.48179400  1
  La  La19  1  0.39630900  0.82017500  0.44128200  1
  La  La20  1  0.79307600  0.24976400  0.36740300  1
  La  La21  1  0.28384700  0.21177500  0.40182700  1
  La  La22  1  0.91138300  0.87213300  0.40487100  1
  La  La23  1  0.16554000  0.58940600  0.36435900  1
  La  La24  1  0.56230600  0.01899500  0.29048000  1
  La  La25  1  0.05307800  0.98100500  0.32490400  1
  La  La26  1  0.68061400  0.64136300  0.32794800  1
  La  La27  1  0.93477100  0.35863700  0.28743600  1
  La  La28  1  0.33153700  0.78822500  0.21355700  1
  La  La29  1  0.82230900  0.75023600  0.24798100  1
  La  La30  1  0.44984400  0.41059400  0.25102500  1
  La  La31  1  0.70400200  0.12786700  0.21051300  1
  Mg  Mg32  1  0.75544600  0.69385600  0.78795900  1
  Mg  Mg33  1  0.62917000  0.07537500  0.75050200  1
  Mg  Mg34  1  0.52467700  0.46308700  0.71103600  1
  Mg  Mg35  1  0.39840000  0.84460600  0.67357900  1
  Mg  Mg36  1  0.29390700  0.23231700  0.63411300  1
  Mg  Mg37  1  0.16763100  0.61383700  0.59665600  1
  Mg  Mg38  1  0.06313800  0.00154800  0.55719000  1
  Mg  Mg39  1  0.93686200  0.38306700  0.51973300  1
  Mg  Mg40  1  0.83236900  0.77077900  0.48026700  1
  Mg  Mg41  1  0.70609300  0.15229800  0.44281000  1
  Mg  Mg42  1  0.60160000  0.54001000  0.40334400  1
  Mg  Mg43  1  0.47532300  0.92152900  0.36588700  1
  Mg  Mg44  1  0.37083000  0.30924000  0.32642100  1
  Mg  Mg45  1  0.24455400  0.69076000  0.28896400  1
  Mg  Mg46  1  0.14006100  0.07847100  0.24949800  1
  Mg  Mg47  1  0.01378500  0.45999000  0.21204100  1
