# generated using pymatgen
data_Mg17B69
_symmetry_space_group_name_H-M   'P 1'
_cell_length_a   7.03000979
_cell_length_b   8.63140288
_cell_length_c   43.82089200
_cell_angle_alpha   93.79448005
_cell_angle_beta   87.19767736
_cell_angle_gamma   71.41702184
_symmetry_Int_Tables_number   1
_chemical_formula_structural   Mg17B69
_chemical_formula_sum   'Mg34 B138'
_cell_volume   2507.95072880
_cell_formula_units_Z   2
loop_
 _symmetry_equiv_pos_site_id
 _symmetry_equiv_pos_as_xyz
  1  'x, y, z'
loop_
 _atom_site_type_symbol
 _atom_site_label
 _atom_site_symmetry_multiplicity
 _atom_site_fract_x
 _atom_site_fract_y
 _atom_site_fract_z
 _atom_site_occupancy
  Mg  Mg0  1  0.22214000  0.54491200  0.22443600  1
  Mg  Mg1  1  0.20071400  0.22422900  0.24699200  1
  Mg  Mg2  1  0.82055800  0.80870800  0.20475300  1
  Mg  Mg3  1  0.95943900  0.10329000  0.19524700  1
  Mg  Mg4  1  0.86499700  0.40205500  0.29586500  1
  Mg  Mg5  1  0.84357100  0.08137200  0.31842100  1
  Mg  Mg6  1  0.46341500  0.66585100  0.27618100  1
  Mg  Mg7  1  0.60229600  0.96043300  0.26667600  1
  Mg  Mg8  1  0.50785400  0.25919800  0.36729300  1
  Mg  Mg9  1  0.48642800  0.93851500  0.38984900  1
  Mg  Mg10  1  0.10627200  0.52299400  0.34761000  1
  Mg  Mg11  1  0.24515300  0.81757600  0.33810400  1
  Mg  Mg12  1  0.15071100  0.11634100  0.43872200  1
  Mg  Mg13  1  0.12928600  0.79565800  0.46127800  1
  Mg  Mg14  1  0.74912900  0.38013700  0.41903800  1
  Mg  Mg15  1  0.88801000  0.67471900  0.40953300  1
  Mg  Mg16  1  0.79356800  0.97348400  0.51015100  1
  Mg  Mg17  1  0.77214300  0.65280100  0.53270700  1
  Mg  Mg18  1  0.39198600  0.23728000  0.49046700  1
  Mg  Mg19  1  0.53086700  0.53186200  0.48096200  1
  Mg  Mg20  1  0.43642500  0.83062700  0.58157900  1
  Mg  Mg21  1  0.41500000  0.50994300  0.60413500  1
  Mg  Mg22  1  0.03484400  0.09442300  0.56189600  1
  Mg  Mg23  1  0.17372400  0.38900500  0.55239000  1
  Mg  Mg24  1  0.07928200  0.68776900  0.65300800  1
  Mg  Mg25  1  0.05785700  0.36708600  0.67556400  1
  Mg  Mg26  1  0.67770100  0.95156500  0.63332400  1
  Mg  Mg27  1  0.81658200  0.24614700  0.62381900  1
  Mg  Mg28  1  0.72214000  0.54491200  0.72443600  1
  Mg  Mg29  1  0.70071400  0.22422900  0.74699200  1
  Mg  Mg30  1  0.32055800  0.80870800  0.70475300  1
  Mg  Mg31  1  0.45943900  0.10329000  0.69524700  1
  Mg  Mg32  1  0.96341500  0.66585100  0.77618100  1
  Mg  Mg33  1  0.10229600  0.96043300  0.76667600  1
  B  B34  1  0.60286200  0.08378700  0.21295000  1
  B  B35  1  0.17713400  0.82821100  0.18705000  1
  B  B36  1  0.21264000  0.32032100  0.19099500  1
  B  B37  1  0.56735600  0.59167800  0.20900500  1
  B  B38  1  0.64030900  0.23053200  0.23926300  1
  B  B39  1  0.78254500  0.53861000  0.23216500  1
  B  B40  1  0.39249300  0.12528800  0.18882600  1
  B  B41  1  0.38750300  0.78671100  0.21117400  1
  B  B42  1  0.34822400  0.92900100  0.18188900  1
  B  B43  1  0.29463300  0.92814100  0.24553900  1
  B  B44  1  0.58306400  0.44937700  0.23492100  1
  B  B45  1  0.97692900  0.37462000  0.20908000  1
  B  B46  1  0.43177200  0.98299700  0.21811100  1
  B  B47  1  0.12822100  0.84100000  0.22589000  1
  B  B48  1  0.83979000  0.31976500  0.23650700  1
  B  B49  1  0.80306700  0.53737800  0.19092000  1
  B  B50  1  0.24572000  0.94093000  0.28437900  1
  B  B51  1  0.81999100  0.68535400  0.25847800  1
  B  B52  1  0.85549700  0.17746400  0.26242300  1
  B  B53  1  0.21021400  0.44882000  0.28043400  1
  B  B54  1  0.28316600  0.08767400  0.31069200  1
  B  B55  1  0.42540200  0.39575300  0.30359400  1
  B  B56  1  0.03535100  0.98243100  0.26025500  1
  B  B57  1  0.03036000  0.64385300  0.28260200  1
  B  B58  1  0.99108200  0.78614400  0.25331800  1
  B  B59  1  0.93749000  0.78528400  0.31696700  1
  B  B60  1  0.22592100  0.30652000  0.30635000  1
  B  B61  1  0.61978600  0.23176300  0.28050800  1
  B  B62  1  0.07462900  0.84014000  0.28954000  1
  B  B63  1  0.77107800  0.69814300  0.29731800  1
  B  B64  1  0.48264700  0.17690800  0.30793600  1
  B  B65  1  0.44592500  0.39452100  0.26234900  1
  B  B66  1  0.88857700  0.79807300  0.35580700  1
  B  B67  1  0.46284800  0.54249700  0.32990700  1
  B  B68  1  0.49835400  0.03460700  0.33385200  1
  B  B69  1  0.85307100  0.30596300  0.35186200  1
  B  B70  1  0.92602300  0.94481700  0.38212000  1
  B  B71  1  0.06825900  0.25289600  0.37502200  1
  B  B72  1  0.67820800  0.83957400  0.33168300  1
  B  B73  1  0.67321700  0.50099600  0.35403100  1
  B  B74  1  0.63393900  0.64328700  0.32474600  1
  B  B75  1  0.58034700  0.64242700  0.38839600  1
  B  B76  1  0.86877800  0.16366300  0.37777800  1
  B  B77  1  0.26264300  0.08890600  0.35193700  1
  B  B78  1  0.71748600  0.69728300  0.36096800  1
  B  B79  1  0.41393500  0.55528600  0.36874700  1
  B  B80  1  0.12550400  0.03405000  0.37936500  1
  B  B81  1  0.08878200  0.25166400  0.33377800  1
  B  B82  1  0.53143400  0.65521600  0.42723600  1
  B  B83  1  0.10570500  0.39964000  0.40133500  1
  B  B84  1  0.14121200  0.89175000  0.40528100  1
  B  B85  1  0.49592800  0.16310600  0.42329100  1
  B  B86  1  0.56888000  0.80196000  0.45354900  1
  B  B87  1  0.71111600  0.11003900  0.44645100  1
  B  B88  1  0.32106500  0.69671700  0.40311200  1
  B  B89  1  0.31607500  0.35813900  0.42545900  1
  B  B90  1  0.27679600  0.50043000  0.39617500  1
  B  B91  1  0.22320400  0.49957000  0.45982500  1
  B  B92  1  0.51163500  0.02080500  0.44920700  1
  B  B93  1  0.90550100  0.94604900  0.42336500  1
  B  B94  1  0.36034400  0.55442600  0.43239700  1
  B  B95  1  0.05679200  0.41242900  0.44017500  1
  B  B96  1  0.76836100  0.89119300  0.45079300  1
  B  B97  1  0.73163900  0.10880700  0.40520600  1
  B  B98  1  0.17429100  0.51235900  0.49866500  1
  B  B99  1  0.74856300  0.25678300  0.47276400  1
  B  B100  1  0.78406900  0.74889200  0.47670900  1
  B  B101  1  0.13878500  0.02024900  0.49471900  1
  B  B102  1  0.21173700  0.65910300  0.52497800  1
  B  B103  1  0.35397400  0.96718100  0.51788000  1
  B  B104  1  0.96392200  0.55386000  0.47454100  1
  B  B105  1  0.95893200  0.21528200  0.49688800  1
  B  B106  1  0.91965300  0.35757300  0.46760300  1
  B  B107  1  0.86606100  0.35671300  0.53125300  1
  B  B108  1  0.15449200  0.87794800  0.52063500  1
  B  B109  1  0.54835800  0.80319200  0.49479400  1
  B  B110  1  0.00320100  0.41156900  0.50382500  1
  B  B111  1  0.69964900  0.26957100  0.51160400  1
  B  B112  1  0.41121800  0.74833600  0.52222200  1
  B  B113  1  0.37449600  0.96595000  0.47663500  1
  B  B114  1  0.81714800  0.36950200  0.57009300  1
  B  B115  1  0.39142000  0.11392600  0.54419300  1
  B  B116  1  0.42692600  0.60603500  0.54813800  1
  B  B117  1  0.78164200  0.87739200  0.56614800  1
  B  B118  1  0.85459400  0.51624600  0.59640600  1
  B  B119  1  0.99683100  0.82432400  0.58930800  1
  B  B120  1  0.60677900  0.41100200  0.54596900  1
  B  B121  1  0.60178900  0.07242500  0.56831700  1
  B  B122  1  0.56251000  0.21471600  0.53903200  1
  B  B123  1  0.50891800  0.21385600  0.60268200  1
  B  B124  1  0.79735000  0.73509100  0.59206400  1
  B  B125  1  0.19121500  0.66033500  0.56622200  1
  B  B126  1  0.64605800  0.26871200  0.57525400  1
  B  B127  1  0.34250700  0.12671400  0.58303300  1
  B  B128  1  0.05407500  0.60547900  0.59365000  1
  B  B129  1  0.01735300  0.82309200  0.54806300  1
  B  B130  1  0.46000500  0.22664400  0.64152200  1
  B  B131  1  0.03427700  0.97106800  0.61562100  1
  B  B132  1  0.06978300  0.46317800  0.61956600  1
  B  B133  1  0.42449900  0.73453500  0.63757700  1
  B  B134  1  0.49745200  0.37338900  0.66783500  1
  B  B135  1  0.63968800  0.68146700  0.66073700  1
  B  B136  1  0.24963600  0.26814500  0.61739800  1
  B  B137  1  0.24464600  0.92956800  0.63974500  1
  B  B138  1  0.20536700  0.07185900  0.61046000  1
  B  B139  1  0.15177600  0.07099900  0.67411000  1
  B  B140  1  0.44020700  0.59223400  0.66349300  1
  B  B141  1  0.83407200  0.51747800  0.63765100  1
  B  B142  1  0.28891500  0.12585400  0.64668200  1
  B  B143  1  0.98536400  0.98385700  0.65446100  1
  B  B144  1  0.69693300  0.46262200  0.66507900  1
  B  B145  1  0.66021000  0.68023500  0.61949200  1
  B  B146  1  0.10286200  0.08378700  0.71295000  1
  B  B147  1  0.67713400  0.82821100  0.68705000  1
  B  B148  1  0.71264000  0.32032100  0.69099500  1
  B  B149  1  0.06735600  0.59167800  0.70900500  1
  B  B150  1  0.14030900  0.23053200  0.73926300  1
  B  B151  1  0.28254500  0.53861000  0.73216500  1
  B  B152  1  0.89249300  0.12528800  0.68882600  1
  B  B153  1  0.88750300  0.78671100  0.71117400  1
  B  B154  1  0.84822400  0.92900100  0.68188900  1
  B  B155  1  0.79463300  0.92814100  0.74553900  1
  B  B156  1  0.08306400  0.44937700  0.73492100  1
  B  B157  1  0.47692900  0.37462000  0.70908000  1
  B  B158  1  0.93177200  0.98299700  0.71811100  1
  B  B159  1  0.62822100  0.84100000  0.72589000  1
  B  B160  1  0.33979000  0.31976500  0.73650700  1
  B  B161  1  0.30306700  0.53737800  0.69092000  1
  B  B162  1  0.74572000  0.94093000  0.78437900  1
  B  B163  1  0.31999100  0.68535400  0.75847800  1
  B  B164  1  0.35549700  0.17746400  0.76242300  1
  B  B165  1  0.71021400  0.44882000  0.78043400  1
  B  B166  1  0.53535100  0.98243100  0.76025500  1
  B  B167  1  0.53036000  0.64385300  0.78260200  1
  B  B168  1  0.49108200  0.78614400  0.75331800  1
  B  B169  1  0.11978600  0.23176300  0.78050800  1
  B  B170  1  0.57462900  0.84014000  0.78954000  1
  B  B171  1  0.94592500  0.39452100  0.76234900  1
