# generated using pymatgen
data_Er2Mg
_symmetry_space_group_name_H-M   'P 1'
_cell_length_a   3.65070000
_cell_length_b   5.42669900
_cell_length_c   51.06088300
_cell_angle_alpha   90.00000000
_cell_angle_beta   90.00000000
_cell_angle_gamma   90.00000000
_symmetry_Int_Tables_number   1
_chemical_formula_structural   Er2Mg
_chemical_formula_sum   'Er16 Mg8'
_cell_volume   1011.57992034
_cell_formula_units_Z   8
loop_
 _symmetry_equiv_pos_site_id
 _symmetry_equiv_pos_as_xyz
  1  'x, y, z'
loop_
 _atom_site_type_symbol
 _atom_site_label
 _atom_site_symmetry_multiplicity
 _atom_site_fract_x
 _atom_site_fract_y
 _atom_site_fract_z
 _atom_site_occupancy
  Er  Er0  1  0.50000000  0.25000000  0.19804900  1
  Er  Er1  1  0.00000000  0.25000000  0.25768900  1
  Er  Er2  1  0.00000000  0.75000000  0.30195100  1
  Er  Er3  1  0.50000000  0.75000000  0.24231100  1
  Er  Er4  1  0.00000000  0.25000000  0.36471600  1
  Er  Er5  1  0.50000000  0.25000000  0.42435600  1
  Er  Er6  1  0.50000000  0.75000000  0.46861700  1
  Er  Er7  1  0.00000000  0.75000000  0.40897800  1
  Er  Er8  1  0.50000000  0.25000000  0.53138300  1
  Er  Er9  1  0.00000000  0.25000000  0.59102200  1
  Er  Er10  1  0.00000000  0.75000000  0.63528400  1
  Er  Er11  1  0.50000000  0.75000000  0.57564400  1
  Er  Er12  1  0.00000000  0.25000000  0.69804900  1
  Er  Er13  1  0.50000000  0.25000000  0.75768900  1
  Er  Er14  1  0.50000000  0.75000000  0.80195100  1
  Er  Er15  1  0.00000000  0.75000000  0.74231100  1
  Mg  Mg16  1  0.50000000  0.25000000  0.31149200  1
  Mg  Mg17  1  1.00000000  0.75000000  0.18850800  1
  Mg  Mg18  1  0.00000000  0.25000000  0.47815900  1
  Mg  Mg19  1  0.50000000  0.75000000  0.35517400  1
  Mg  Mg20  1  0.50000000  0.25000000  0.64482600  1
  Mg  Mg21  1  0.00000000  0.75000000  0.52184100  1
  Mg  Mg22  1  0.00000000  0.25000000  0.81149200  1
  Mg  Mg23  1  0.50000000  0.75000000  0.68850800  1
