# generated using pymatgen
data_Yb17Mg8
_symmetry_space_group_name_H-M   'P 1'
_cell_length_a   6.97474268
_cell_length_b   9.47017927
_cell_length_c   43.76977500
_cell_angle_alpha   87.38801216
_cell_angle_beta   89.35373178
_cell_angle_gamma   83.84723935
_symmetry_Int_Tables_number   1
_chemical_formula_structural   Yb17Mg8
_chemical_formula_sum   'Yb34 Mg16'
_cell_volume   2871.38447292
_cell_formula_units_Z   2
loop_
 _symmetry_equiv_pos_site_id
 _symmetry_equiv_pos_as_xyz
  1  'x, y, z'
loop_
 _atom_site_type_symbol
 _atom_site_label
 _atom_site_symmetry_multiplicity
 _atom_site_fract_x
 _atom_site_fract_y
 _atom_site_fract_z
 _atom_site_occupancy
  Yb  Yb0  1  0.53102700  0.43397100  0.75064100  1
  Yb  Yb1  1  0.94091600  0.04222000  0.77316900  1
  Yb  Yb2  1  0.81674100  0.50539900  0.67921200  1
  Yb  Yb3  1  0.61930000  0.83812700  0.72857300  1
  Yb  Yb4  1  0.22663000  0.11364800  0.70174000  1
  Yb  Yb5  1  0.13835700  0.70949200  0.72380800  1
  Yb  Yb6  1  0.10245500  0.57682800  0.60778400  1
  Yb  Yb7  1  0.90501400  0.90955500  0.65714400  1
  Yb  Yb8  1  0.51234400  0.18507700  0.63031100  1
  Yb  Yb9  1  0.42407100  0.78092100  0.65238000  1
  Yb  Yb10  1  0.38817000  0.64825600  0.53635500  1
  Yb  Yb11  1  0.19072800  0.98098400  0.58571500  1
  Yb  Yb12  1  0.79805900  0.25650500  0.55888300  1
  Yb  Yb13  1  0.70978500  0.85234900  0.58095100  1
  Yb  Yb14  1  0.67388400  0.71968500  0.46492700  1
  Yb  Yb15  1  0.47644300  0.05241200  0.51428700  1
  Yb  Yb16  1  0.08377300  0.32793400  0.48745400  1
  Yb  Yb17  1  0.99550000  0.92377800  0.50952300  1
  Yb  Yb18  1  0.95959800  0.79111400  0.39349800  1
  Yb  Yb19  1  0.76215700  0.12384100  0.44285800  1
  Yb  Yb20  1  0.36948700  0.39936300  0.41602600  1
  Yb  Yb21  1  0.28121400  0.99520700  0.43809400  1
  Yb  Yb22  1  0.24531200  0.86254200  0.32206900  1
  Yb  Yb23  1  0.04787100  0.19527000  0.37143000  1
  Yb  Yb24  1  0.65520100  0.47079100  0.34459700  1
  Yb  Yb25  1  0.56692800  0.06663500  0.36666600  1
  Yb  Yb26  1  0.53102700  0.93397100  0.25064100  1
  Yb  Yb27  1  0.33358600  0.26669800  0.30000100  1
  Yb  Yb28  1  0.94091600  0.54222000  0.27316900  1
  Yb  Yb29  1  0.85264300  0.13806400  0.29523700  1
  Yb  Yb30  1  0.81674100  0.00539900  0.17921200  1
  Yb  Yb31  1  0.61930000  0.33812700  0.22857300  1
  Yb  Yb32  1  0.22663000  0.61364800  0.20174000  1
  Yb  Yb33  1  0.13835700  0.20949200  0.22380800  1
  Mg  Mg34  1  0.71725500  0.17693100  0.70408400  1
  Mg  Mg35  1  0.04040200  0.37068800  0.74829700  1
  Mg  Mg36  1  0.00296900  0.24836000  0.63265500  1
  Mg  Mg37  1  0.32611600  0.44211600  0.67686900  1
  Mg  Mg38  1  0.28868300  0.31978800  0.56122700  1
  Mg  Mg39  1  0.61183000  0.51354500  0.60544000  1
  Mg  Mg40  1  0.57439800  0.39121700  0.48979800  1
  Mg  Mg41  1  0.89754500  0.58497400  0.53401100  1
  Mg  Mg42  1  0.86011200  0.46264500  0.41837000  1
  Mg  Mg43  1  0.18325900  0.65640200  0.46258300  1
  Mg  Mg44  1  0.14582600  0.53407400  0.34694100  1
  Mg  Mg45  1  0.46897300  0.72783100  0.39115400  1
  Mg  Mg46  1  0.43154000  0.60550300  0.27551200  1
  Mg  Mg47  1  0.75468800  0.79925900  0.31972600  1
  Mg  Mg48  1  0.71725500  0.67693100  0.20408400  1
  Mg  Mg49  1  0.04040200  0.87068800  0.24829700  1
