# generated using pymatgen
data_Li17Mg9
_symmetry_space_group_name_H-M   'P 1'
_cell_length_a   5.55556833
_cell_length_b   7.83024243
_cell_length_c   43.29092500
_cell_angle_alpha   86.72308210
_cell_angle_beta   89.82360246
_cell_angle_gamma   76.82475675
_symmetry_Int_Tables_number   1
_chemical_formula_structural   Li17Mg9
_chemical_formula_sum   'Li34 Mg18'
_cell_volume   1830.55277808
_cell_formula_units_Z   2
loop_
 _symmetry_equiv_pos_site_id
 _symmetry_equiv_pos_as_xyz
  1  'x, y, z'
loop_
 _atom_site_type_symbol
 _atom_site_label
 _atom_site_symmetry_multiplicity
 _atom_site_fract_x
 _atom_site_fract_y
 _atom_site_fract_z
 _atom_site_occupancy
  Li  Li0  1  0.80681600  0.35394500  0.21655400  1
  Li  Li1  1  0.92925200  0.59351800  0.26123900  1
  Li  Li2  1  0.40414800  0.78423700  0.24987200  1
  Li  Li3  1  0.32658500  0.15714400  0.22789100  1
  Li  Li4  1  0.00681600  0.22061200  0.28322000  1
  Li  Li5  1  0.12925200  0.46018500  0.32790600  1
  Li  Li6  1  0.60414800  0.65090400  0.31653900  1
  Li  Li7  1  0.52658500  0.02381000  0.29455700  1
  Li  Li8  1  0.20681600  0.08727900  0.34988700  1
  Li  Li9  1  0.32925200  0.32685100  0.39457200  1
  Li  Li10  1  0.80414800  0.51757100  0.38320500  1
  Li  Li11  1  0.72658500  0.89047700  0.36122400  1
  Li  Li12  1  0.40681600  0.95394500  0.41655400  1
  Li  Li13  1  0.52925200  0.19351800  0.46123900  1
  Li  Li14  1  0.00414800  0.38423700  0.44987200  1
  Li  Li15  1  0.92658500  0.75714400  0.42789100  1
  Li  Li16  1  0.60681600  0.82061200  0.48322000  1
  Li  Li17  1  0.72925200  0.06018500  0.52790600  1
  Li  Li18  1  0.20414800  0.25090400  0.51653900  1
  Li  Li19  1  0.12658500  0.62381000  0.49455700  1
  Li  Li20  1  0.80681600  0.68727900  0.54988700  1
  Li  Li21  1  0.92925200  0.92685100  0.59457200  1
  Li  Li22  1  0.40414800  0.11757100  0.58320500  1
  Li  Li23  1  0.32658500  0.49047700  0.56122400  1
  Li  Li24  1  0.00681600  0.55394500  0.61655400  1
  Li  Li25  1  0.12925200  0.79351800  0.66123900  1
  Li  Li26  1  0.60414800  0.98423700  0.64987200  1
  Li  Li27  1  0.52658500  0.35714400  0.62789100  1
  Li  Li28  1  0.20681600  0.42061200  0.68322000  1
  Li  Li29  1  0.32925200  0.66018500  0.72790600  1
  Li  Li30  1  0.80414800  0.85090400  0.71653900  1
  Li  Li31  1  0.72658500  0.22381000  0.69455700  1
  Li  Li32  1  0.40681600  0.28727900  0.74988700  1
  Li  Li33  1  0.92658500  0.09047700  0.76122400  1
  Mg  Mg34  1  0.26816600  0.53658600  0.20540500  1
  Mg  Mg35  1  0.86523400  0.97450300  0.23903900  1
  Mg  Mg36  1  0.46816600  0.40325200  0.27207200  1
  Mg  Mg37  1  0.06523400  0.84117000  0.30570600  1
  Mg  Mg38  1  0.66816600  0.26991900  0.33873900  1
  Mg  Mg39  1  0.26523400  0.70783600  0.37237300  1
  Mg  Mg40  1  0.86816600  0.13658600  0.40540500  1
  Mg  Mg41  1  0.46523400  0.57450300  0.43903900  1
  Mg  Mg42  1  0.06816600  0.00325200  0.47207200  1
  Mg  Mg43  1  0.66523400  0.44117000  0.50570600  1
  Mg  Mg44  1  0.26816600  0.86991900  0.53873900  1
  Mg  Mg45  1  0.86523400  0.30783600  0.57237300  1
  Mg  Mg46  1  0.46816600  0.73658600  0.60540500  1
  Mg  Mg47  1  0.06523400  0.17450300  0.63903900  1
  Mg  Mg48  1  0.66816600  0.60325200  0.67207200  1
  Mg  Mg49  1  0.26523400  0.04117000  0.70570600  1
  Mg  Mg50  1  0.86816600  0.46991900  0.73873900  1
  Mg  Mg51  1  0.46523400  0.90783600  0.77237300  1
