# generated using pymatgen
data_Nd2Mg
_symmetry_space_group_name_H-M   'P 1'
_cell_length_a   3.84469700
_cell_length_b   18.34695764
_cell_length_c   43.38189500
_cell_angle_alpha   95.69976072
_cell_angle_beta   90.00000000
_cell_angle_gamma   90.00000000
_symmetry_Int_Tables_number   1
_chemical_formula_structural   Nd2Mg
_chemical_formula_sum   'Nd40 Mg20'
_cell_volume   3044.96434749
_cell_formula_units_Z   20
loop_
 _symmetry_equiv_pos_site_id
 _symmetry_equiv_pos_as_xyz
  1  'x, y, z'
loop_
 _atom_site_type_symbol
 _atom_site_label
 _atom_site_symmetry_multiplicity
 _atom_site_fract_x
 _atom_site_fract_y
 _atom_site_fract_z
 _atom_site_occupancy
  Nd  Nd0  1  0.00000000  0.98632600  0.26088200  1
  Nd  Nd1  1  0.50000000  0.82757000  0.28356100  1
  Nd  Nd2  1  0.50000000  0.63867400  0.23911800  1
  Nd  Nd3  1  1.00000000  0.79743000  0.21643900  1
  Nd  Nd4  1  0.50000000  0.42382600  0.19838200  1
  Nd  Nd5  1  0.00000000  0.26507000  0.22106100  1
  Nd  Nd6  1  0.00000000  0.20117400  0.30161800  1
  Nd  Nd7  1  0.50000000  0.35993000  0.27893900  1
  Nd  Nd8  1  0.00000000  0.11132600  0.38588200  1
  Nd  Nd9  1  0.50000000  0.95257000  0.40856100  1
  Nd  Nd10  1  0.50000000  0.76367400  0.36411800  1
  Nd  Nd11  1  0.00000000  0.92243000  0.34143900  1
  Nd  Nd12  1  0.50000000  0.54882600  0.32338200  1
  Nd  Nd13  1  0.00000000  0.39007000  0.34606100  1
  Nd  Nd14  1  0.00000000  0.32617400  0.42661800  1
  Nd  Nd15  1  0.50000000  0.48493000  0.40393900  1
  Nd  Nd16  1  1.00000000  0.23632600  0.51088200  1
  Nd  Nd17  1  0.50000000  0.07757000  0.53356100  1
  Nd  Nd18  1  0.50000000  0.88867400  0.48911800  1
  Nd  Nd19  1  0.00000000  0.04743000  0.46643900  1
  Nd  Nd20  1  0.50000000  0.67382600  0.44838200  1
  Nd  Nd21  1  0.00000000  0.51507000  0.47106100  1
  Nd  Nd22  1  0.00000000  0.45117400  0.55161800  1
  Nd  Nd23  1  0.50000000  0.60993000  0.52893900  1
  Nd  Nd24  1  0.00000000  0.36132600  0.63588200  1
  Nd  Nd25  1  0.50000000  0.20257000  0.65856100  1
  Nd  Nd26  1  0.50000000  0.01367400  0.61411800  1
  Nd  Nd27  1  1.00000000  0.17243000  0.59143900  1
  Nd  Nd28  1  0.50000000  0.79882600  0.57338200  1
  Nd  Nd29  1  1.00000000  0.64007000  0.59606100  1
  Nd  Nd30  1  1.00000000  0.57617400  0.67661800  1
  Nd  Nd31  1  0.50000000  0.73493000  0.65393900  1
  Nd  Nd32  1  1.00000000  0.48632600  0.76088200  1
  Nd  Nd33  1  0.50000000  0.32757000  0.78356100  1
  Nd  Nd34  1  0.50000000  0.13867400  0.73911800  1
  Nd  Nd35  1  0.00000000  0.29743000  0.71643900  1
  Nd  Nd36  1  0.50000000  0.92382600  0.69838200  1
  Nd  Nd37  1  1.00000000  0.76507000  0.72106100  1
  Nd  Nd38  1  1.00000000  0.70117400  0.80161800  1
  Nd  Nd39  1  0.50000000  0.85993000  0.77893900  1
  Mg  Mg40  1  1.00000000  0.68662500  0.30369600  1
  Mg  Mg41  1  0.50000000  0.93837500  0.19630400  1
  Mg  Mg42  1  0.50000000  0.12412500  0.24119600  1
  Mg  Mg43  1  1.00000000  0.50087500  0.25880400  1
  Mg  Mg44  1  1.00000000  0.81162500  0.42869600  1
  Mg  Mg45  1  0.50000000  0.06337500  0.32130400  1
  Mg  Mg46  1  0.50000000  0.24912500  0.36619600  1
  Mg  Mg47  1  0.00000000  0.62587500  0.38380400  1
  Mg  Mg48  1  0.00000000  0.93662500  0.55369600  1
  Mg  Mg49  1  0.50000000  0.18837500  0.44630400  1
  Mg  Mg50  1  0.50000000  0.37412500  0.49119600  1
  Mg  Mg51  1  0.00000000  0.75087500  0.50880400  1
  Mg  Mg52  1  0.00000000  0.06162500  0.67869600  1
  Mg  Mg53  1  0.50000000  0.31337500  0.57130400  1
  Mg  Mg54  1  0.50000000  0.49912500  0.61619600  1
  Mg  Mg55  1  0.00000000  0.87587500  0.63380400  1
  Mg  Mg56  1  1.00000000  0.18662500  0.80369600  1
  Mg  Mg57  1  0.50000000  0.43837500  0.69630400  1
  Mg  Mg58  1  0.50000000  0.62412500  0.74119600  1
  Mg  Mg59  1  1.00000000  0.00087500  0.75880400  1
