# generated using pymatgen
data_Mg13Hg5
_symmetry_space_group_name_H-M   'P 1'
_cell_length_a   5.00141800
_cell_length_b   6.29546100
_cell_length_c   43.61623200
_cell_angle_alpha   90.00000000
_cell_angle_beta   90.00000000
_cell_angle_gamma   90.00000000
_symmetry_Int_Tables_number   1
_chemical_formula_structural   Mg13Hg5
_chemical_formula_sum   'Mg26 Hg10'
_cell_volume   1373.31079813
_cell_formula_units_Z   2
loop_
 _symmetry_equiv_pos_site_id
 _symmetry_equiv_pos_as_xyz
  1  'x, y, z'
loop_
 _atom_site_type_symbol
 _atom_site_label
 _atom_site_symmetry_multiplicity
 _atom_site_fract_x
 _atom_site_fract_y
 _atom_site_fract_z
 _atom_site_occupancy
  Mg  Mg0  1  0.75000000  0.12548600  0.19840200  1
  Mg  Mg1  1  0.75000000  0.37257100  0.26017400  1
  Mg  Mg2  1  0.75000000  0.87840000  0.26017400  1
  Mg  Mg3  1  0.25000000  0.37257100  0.30232600  1
  Mg  Mg4  1  0.25000000  0.87840000  0.30232600  1
  Mg  Mg5  1  0.25000000  0.62548600  0.23909800  1
  Mg  Mg6  1  0.75000000  0.62548600  0.32340200  1
  Mg  Mg7  1  0.75000000  0.87257100  0.38517400  1
  Mg  Mg8  1  0.75000000  0.37840000  0.38517400  1
  Mg  Mg9  1  0.25000000  0.87257100  0.42732600  1
  Mg  Mg10  1  0.25000000  0.37840000  0.42732600  1
  Mg  Mg11  1  0.25000000  0.12548600  0.36409800  1
  Mg  Mg12  1  0.75000000  0.12548600  0.44840200  1
  Mg  Mg13  1  0.75000000  0.37257100  0.51017400  1
  Mg  Mg14  1  0.75000000  0.87840000  0.51017400  1
  Mg  Mg15  1  0.25000000  0.37257100  0.55232600  1
  Mg  Mg16  1  0.25000000  0.87840000  0.55232600  1
  Mg  Mg17  1  0.25000000  0.62548600  0.48909800  1
  Mg  Mg18  1  0.75000000  0.62548600  0.57340200  1
  Mg  Mg19  1  0.75000000  0.87257100  0.63517400  1
  Mg  Mg20  1  0.75000000  0.37840000  0.63517400  1
  Mg  Mg21  1  0.25000000  0.87257100  0.67732600  1
  Mg  Mg22  1  0.25000000  0.37840000  0.67732600  1
  Mg  Mg23  1  0.25000000  0.12548600  0.61409800  1
  Mg  Mg24  1  0.75000000  0.12548600  0.69840200  1
  Mg  Mg25  1  0.25000000  0.62548600  0.73909800  1
  Hg  Hg26  1  0.75000000  0.62548600  0.19791700  1
  Hg  Hg27  1  0.25000000  0.12548600  0.23958300  1
  Hg  Hg28  1  0.75000000  0.12548600  0.32291700  1
  Hg  Hg29  1  0.25000000  0.62548600  0.36458300  1
  Hg  Hg30  1  0.75000000  0.62548600  0.44791700  1
  Hg  Hg31  1  0.25000000  0.12548600  0.48958300  1
  Hg  Hg32  1  0.75000000  0.12548600  0.57291700  1
  Hg  Hg33  1  0.25000000  0.62548600  0.61458300  1
  Hg  Hg34  1  0.75000000  0.62548600  0.69791700  1
  Hg  Hg35  1  0.25000000  0.12548600  0.73958300  1
