# generated using pymatgen
data_Mg8Zn39
_symmetry_space_group_name_H-M   'P 1'
_cell_length_a   9.38239124
_cell_length_b   9.87228504
_cell_length_c   47.88422100
_cell_angle_alpha   93.42143374
_cell_angle_beta   90.35613488
_cell_angle_gamma   117.39448675
_symmetry_Int_Tables_number   1
_chemical_formula_structural   Mg8Zn39
_chemical_formula_sum   'Mg24 Zn117'
_cell_volume   3928.07221196
_cell_formula_units_Z   3
loop_
 _symmetry_equiv_pos_site_id
 _symmetry_equiv_pos_as_xyz
  1  'x, y, z'
loop_
 _atom_site_type_symbol
 _atom_site_label
 _atom_site_symmetry_multiplicity
 _atom_site_fract_x
 _atom_site_fract_y
 _atom_site_fract_z
 _atom_site_occupancy
  Mg  Mg0  1  0.60606100  0.52019700  0.77822600  1
  Mg  Mg1  1  0.30971000  0.31134400  0.73427400  1
  Mg  Mg2  1  0.76494100  0.86416100  0.75911700  1
  Mg  Mg3  1  0.15083000  0.96738000  0.75338300  1
  Mg  Mg4  1  0.50606100  0.32019700  0.67822600  1
  Mg  Mg5  1  0.20971000  0.11134400  0.63427400  1
  Mg  Mg6  1  0.66494100  0.66416100  0.65911700  1
  Mg  Mg7  1  0.05083000  0.76738000  0.65338300  1
  Mg  Mg8  1  0.40606100  0.12019700  0.57822600  1
  Mg  Mg9  1  0.10971000  0.91134400  0.53427400  1
  Mg  Mg10  1  0.56494100  0.46416100  0.55911700  1
  Mg  Mg11  1  0.95083000  0.56738000  0.55338300  1
  Mg  Mg12  1  0.30606100  0.92019700  0.47822600  1
  Mg  Mg13  1  0.00971000  0.71134400  0.43427400  1
  Mg  Mg14  1  0.46494100  0.26416100  0.45911700  1
  Mg  Mg15  1  0.85083000  0.36738000  0.45338300  1
  Mg  Mg16  1  0.20606100  0.72019700  0.37822600  1
  Mg  Mg17  1  0.90971000  0.51134400  0.33427400  1
  Mg  Mg18  1  0.36494100  0.06416100  0.35911700  1
  Mg  Mg19  1  0.75083000  0.16738000  0.35338300  1
  Mg  Mg20  1  0.10606100  0.52019700  0.27822600  1
  Mg  Mg21  1  0.80971000  0.31134400  0.23427400  1
  Mg  Mg22  1  0.26494100  0.86416100  0.25911700  1
  Mg  Mg23  1  0.65083000  0.96738000  0.25338300  1
  Zn  Zn24  1  0.45788500  0.91577100  0.75625000  1
  Zn  Zn25  1  0.59144800  0.87562800  0.70292500  1
  Zn  Zn26  1  0.85346900  0.39355200  0.78526200  1
  Zn  Zn27  1  0.27924000  0.24476900  0.79352800  1
  Zn  Zn28  1  0.63653000  0.58677300  0.71897200  1
  Zn  Zn29  1  0.92129100  0.63554900  0.74433500  1
  Zn  Zn30  1  0.42229200  0.64228600  0.74334900  1
  Zn  Zn31  1  0.22432300  0.75591400  0.70957500  1
  Zn  Zn32  1  0.69159200  0.36162400  0.73148000  1
  Zn  Zn33  1  0.44290700  0.08811300  0.71858000  1
  Zn  Zn34  1  0.47286300  0.74342800  0.79392000  1
  Zn  Zn35  1  0.49347900  0.18925600  0.76915100  1
  Zn  Zn36  1  0.94501000  0.09705300  0.71869500  1
  Zn  Zn37  1  0.06230200  0.43799000  0.72723800  1
  Zn  Zn38  1  0.97076100  0.73448800  0.79380500  1
  Zn  Zn39  1  0.99448000  0.19599300  0.76816500  1
  Zn  Zn40  1  0.90788500  0.81577100  0.70625000  1
  Zn  Zn41  1  0.19056100  0.70047500  0.76821100  1
  Zn  Zn42  1  0.72521000  0.13106700  0.74428900  1
  Zn  Zn43  1  0.22417900  0.46991700  0.78102000  1
  Zn  Zn44  1  0.35788500  0.71577100  0.65625000  1
  Zn  Zn45  1  0.49144800  0.67562800  0.60292500  1
  Zn  Zn46  1  0.75346900  0.19355200  0.68526200  1
  Zn  Zn47  1  0.17924000  0.04476900  0.69352800  1
  Zn  Zn48  1  0.53653000  0.38677300  0.61897200  1
  Zn  Zn49  1  0.82129100  0.43554900  0.64433500  1
  Zn  Zn50  1  0.32229200  0.44228600  0.64334900  1
  Zn  Zn51  1  0.12432300  0.55591400  0.60957500  1
  Zn  Zn52  1  0.59159200  0.16162400  0.63148000  1
  Zn  Zn53  1  0.34290700  0.88811300  0.61858000  1
  Zn  Zn54  1  0.37286300  0.54342800  0.69392000  1
  Zn  Zn55  1  0.39347900  0.98925600  0.66915100  1
  Zn  Zn56  1  0.84501000  0.89705300  0.61869500  1
  Zn  Zn57  1  0.96230200  0.23799000  0.62723800  1
  Zn  Zn58  1  0.87076100  0.53448800  0.69380500  1
  Zn  Zn59  1  0.89448000  0.99599300  0.66816500  1
  Zn  Zn60  1  0.80788500  0.61577100  0.60625000  1
  Zn  Zn61  1  0.09056100  0.50047500  0.66821100  1
  Zn  Zn62  1  0.62521000  0.93106700  0.64428900  1
  Zn  Zn63  1  0.12417900  0.26991700  0.68102000  1
  Zn  Zn64  1  0.25788500  0.51577100  0.55625000  1
  Zn  Zn65  1  0.39144800  0.47562800  0.50292500  1
  Zn  Zn66  1  0.65346900  0.99355200  0.58526200  1
  Zn  Zn67  1  0.07924000  0.84476900  0.59352800  1
  Zn  Zn68  1  0.43653000  0.18677300  0.51897200  1
  Zn  Zn69  1  0.72129100  0.23554900  0.54433500  1
  Zn  Zn70  1  0.22229200  0.24228600  0.54334900  1
  Zn  Zn71  1  0.02432300  0.35591400  0.50957500  1
  Zn  Zn72  1  0.49159200  0.96162400  0.53148000  1
  Zn  Zn73  1  0.24290700  0.68811300  0.51858000  1
  Zn  Zn74  1  0.27286300  0.34342800  0.59392000  1
  Zn  Zn75  1  0.29347900  0.78925600  0.56915100  1
  Zn  Zn76  1  0.74501000  0.69705300  0.51869500  1
  Zn  Zn77  1  0.86230200  0.03799000  0.52723800  1
  Zn  Zn78  1  0.77076100  0.33448800  0.59380500  1
  Zn  Zn79  1  0.79448000  0.79599300  0.56816500  1
  Zn  Zn80  1  0.70788500  0.41577100  0.50625000  1
  Zn  Zn81  1  0.99056100  0.30047500  0.56821100  1
  Zn  Zn82  1  0.52521000  0.73106700  0.54428900  1
  Zn  Zn83  1  0.02417900  0.06991700  0.58102000  1
  Zn  Zn84  1  0.15788500  0.31577100  0.45625000  1
  Zn  Zn85  1  0.29144800  0.27562800  0.40292500  1
  Zn  Zn86  1  0.55346900  0.79355200  0.48526200  1
  Zn  Zn87  1  0.97924000  0.64476900  0.49352800  1
  Zn  Zn88  1  0.33653000  0.98677300  0.41897200  1
  Zn  Zn89  1  0.62129100  0.03554900  0.44433500  1
  Zn  Zn90  1  0.12229200  0.04228600  0.44334900  1
  Zn  Zn91  1  0.92432300  0.15591400  0.40957500  1
  Zn  Zn92  1  0.39159200  0.76162400  0.43148000  1
  Zn  Zn93  1  0.14290700  0.48811300  0.41858000  1
  Zn  Zn94  1  0.17286300  0.14342800  0.49392000  1
  Zn  Zn95  1  0.19347900  0.58925600  0.46915100  1
  Zn  Zn96  1  0.64501000  0.49705300  0.41869500  1
  Zn  Zn97  1  0.76230200  0.83799000  0.42723800  1
  Zn  Zn98  1  0.67076100  0.13448800  0.49380500  1
  Zn  Zn99  1  0.69448000  0.59599300  0.46816500  1
  Zn  Zn100  1  0.60788500  0.21577100  0.40625000  1
  Zn  Zn101  1  0.89056100  0.10047500  0.46821100  1
  Zn  Zn102  1  0.42521000  0.53106700  0.44428900  1
  Zn  Zn103  1  0.92417900  0.86991700  0.48102000  1
  Zn  Zn104  1  0.05788500  0.11577100  0.35625000  1
  Zn  Zn105  1  0.19144800  0.07562800  0.30292500  1
  Zn  Zn106  1  0.45346900  0.59355200  0.38526200  1
  Zn  Zn107  1  0.87924000  0.44476900  0.39352800  1
  Zn  Zn108  1  0.23653000  0.78677300  0.31897200  1
  Zn  Zn109  1  0.52129100  0.83554900  0.34433500  1
  Zn  Zn110  1  0.02229200  0.84228600  0.34334900  1
  Zn  Zn111  1  0.82432300  0.95591400  0.30957500  1
  Zn  Zn112  1  0.29159200  0.56162400  0.33148000  1
  Zn  Zn113  1  0.04290700  0.28811300  0.31858000  1
  Zn  Zn114  1  0.07286300  0.94342800  0.39392000  1
  Zn  Zn115  1  0.09347900  0.38925600  0.36915100  1
  Zn  Zn116  1  0.54501000  0.29705300  0.31869500  1
  Zn  Zn117  1  0.66230200  0.63799000  0.32723800  1
  Zn  Zn118  1  0.57076100  0.93448800  0.39380500  1
  Zn  Zn119  1  0.59448000  0.39599300  0.36816500  1
  Zn  Zn120  1  0.50788500  0.01577100  0.30625000  1
  Zn  Zn121  1  0.79056100  0.90047500  0.36821100  1
  Zn  Zn122  1  0.32521000  0.33106700  0.34428900  1
  Zn  Zn123  1  0.82417900  0.66991700  0.38102000  1
  Zn  Zn124  1  0.95788500  0.91577100  0.25625000  1
  Zn  Zn125  1  0.35346900  0.39355200  0.28526200  1
  Zn  Zn126  1  0.77924000  0.24476900  0.29352800  1
  Zn  Zn127  1  0.13653000  0.58677300  0.21897200  1
  Zn  Zn128  1  0.42129100  0.63554900  0.24433500  1
  Zn  Zn129  1  0.92229200  0.64228600  0.24334900  1
  Zn  Zn130  1  0.19159200  0.36162400  0.23148000  1
  Zn  Zn131  1  0.94290700  0.08811300  0.21858000  1
  Zn  Zn132  1  0.97286300  0.74342800  0.29392000  1
  Zn  Zn133  1  0.99347900  0.18925600  0.26915100  1
  Zn  Zn134  1  0.44501000  0.09705300  0.21869500  1
  Zn  Zn135  1  0.56230200  0.43799000  0.22723800  1
  Zn  Zn136  1  0.47076100  0.73448800  0.29380500  1
  Zn  Zn137  1  0.49448000  0.19599300  0.26816500  1
  Zn  Zn138  1  0.69056100  0.70047500  0.26821100  1
  Zn  Zn139  1  0.22521000  0.13106700  0.24428900  1
  Zn  Zn140  1  0.72417900  0.46991700  0.28102000  1
