# generated using pymatgen
data_La39Mg10
_symmetry_space_group_name_H-M   'P 1'
_cell_length_a   5.32060900
_cell_length_b   24.91303150
_cell_length_c   42.56487600
_cell_angle_alpha   96.12994132
_cell_angle_beta   90.00000000
_cell_angle_gamma   83.87005868
_symmetry_Int_Tables_number   1
_chemical_formula_structural   La39Mg10
_chemical_formula_sum   'La78 Mg20'
_cell_volume   5577.37441684
_cell_formula_units_Z   2
loop_
 _symmetry_equiv_pos_site_id
 _symmetry_equiv_pos_as_xyz
  1  'x, y, z'
loop_
 _atom_site_type_symbol
 _atom_site_label
 _atom_site_symmetry_multiplicity
 _atom_site_fract_x
 _atom_site_fract_y
 _atom_site_fract_z
 _atom_site_occupancy
  La  La0  1  0.02667500  0.09003400  0.24625200  1
  La  La1  1  0.86670900  0.40996600  0.20374800  1
  La  La2  1  0.77667500  0.59003400  0.21500200  1
  La  La3  1  0.22332500  0.69673400  0.22167100  1
  La  La4  1  0.67005900  0.80326600  0.22832900  1
  La  La5  1  0.11670900  0.90996600  0.23499800  1
  La  La6  1  0.52667500  0.09003400  0.30875200  1
  La  La7  1  0.47332500  0.19673400  0.25292100  1
  La  La8  1  0.92005900  0.30326600  0.25957900  1
  La  La9  1  0.36670900  0.40996600  0.26624800  1
  La  La10  1  0.27667500  0.59003400  0.27750200  1
  La  La11  1  0.72332500  0.69673400  0.28417100  1
  La  La12  1  0.17005900  0.80326600  0.29082900  1
  La  La13  1  0.61670900  0.90996600  0.29749800  1
  La  La14  1  0.02667500  0.09003400  0.37125200  1
  La  La15  1  0.97332500  0.19673400  0.31542100  1
  La  La16  1  0.42005900  0.30326600  0.32207900  1
  La  La17  1  0.86670900  0.40996600  0.32874800  1
  La  La18  1  0.77667500  0.59003400  0.34000200  1
  La  La19  1  0.22332500  0.69673400  0.34667100  1
  La  La20  1  0.67005900  0.80326600  0.35332900  1
  La  La21  1  0.11670900  0.90996600  0.35999800  1
  La  La22  1  0.52667500  0.09003400  0.43375200  1
  La  La23  1  0.47332500  0.19673400  0.37792100  1
  La  La24  1  0.92005900  0.30326600  0.38457900  1
  La  La25  1  0.36670900  0.40996600  0.39124800  1
  La  La26  1  0.27667500  0.59003400  0.40250200  1
  La  La27  1  0.72332500  0.69673400  0.40917100  1
  La  La28  1  0.17005900  0.80326600  0.41582900  1
  La  La29  1  0.61670900  0.90996600  0.42249800  1
  La  La30  1  0.02667500  0.09003400  0.49625200  1
  La  La31  1  0.97332500  0.19673400  0.44042100  1
  La  La32  1  0.42005900  0.30326600  0.44707900  1
  La  La33  1  0.86670900  0.40996600  0.45374800  1
  La  La34  1  0.77667500  0.59003400  0.46500200  1
  La  La35  1  0.22332500  0.69673400  0.47167100  1
  La  La36  1  0.67005900  0.80326600  0.47832900  1
  La  La37  1  0.11670900  0.90996600  0.48499800  1
  La  La38  1  0.52667500  0.09003400  0.55875200  1
  La  La39  1  0.47332500  0.19673400  0.50292100  1
  La  La40  1  0.92005900  0.30326600  0.50957900  1
  La  La41  1  0.36670900  0.40996600  0.51624800  1
  La  La42  1  0.27667500  0.59003400  0.52750200  1
  La  La43  1  0.72332500  0.69673400  0.53417100  1
  La  La44  1  0.17005900  0.80326600  0.54082900  1
  La  La45  1  0.61670900  0.90996600  0.54749800  1
  La  La46  1  0.02667500  0.09003400  0.62125200  1
  La  La47  1  0.97332500  0.19673400  0.56542100  1
  La  La48  1  0.42005900  0.30326600  0.57207900  1
  La  La49  1  0.86670900  0.40996600  0.57874800  1
  La  La50  1  0.77667500  0.59003400  0.59000200  1
  La  La51  1  0.22332500  0.69673400  0.59667100  1
  La  La52  1  0.67005900  0.80326600  0.60332900  1
  La  La53  1  0.11670900  0.90996600  0.60999800  1
  La  La54  1  0.52667500  0.09003400  0.68375200  1
  La  La55  1  0.47332500  0.19673400  0.62792100  1
  La  La56  1  0.92005900  0.30326600  0.63457900  1
  La  La57  1  0.36670900  0.40996600  0.64124800  1
  La  La58  1  0.27667500  0.59003400  0.65250200  1
  La  La59  1  0.72332500  0.69673400  0.65917100  1
  La  La60  1  0.17005900  0.80326600  0.66582900  1
  La  La61  1  0.61670900  0.90996600  0.67249800  1
  La  La62  1  0.02667500  0.09003400  0.74625200  1
  La  La63  1  0.97332500  0.19673400  0.69042100  1
  La  La64  1  0.42005900  0.30326600  0.69707900  1
  La  La65  1  0.86670900  0.40996600  0.70374800  1
  La  La66  1  0.77667500  0.59003400  0.71500200  1
  La  La67  1  0.22332500  0.69673400  0.72167100  1
  La  La68  1  0.67005900  0.80326600  0.72832900  1
  La  La69  1  0.11670900  0.90996600  0.73499800  1
  La  La70  1  0.52667500  0.09003400  0.80875200  1
  La  La71  1  0.47332500  0.19673400  0.75292100  1
  La  La72  1  0.92005900  0.30326600  0.75957900  1
  La  La73  1  0.36670900  0.40996600  0.76624800  1
  La  La74  1  0.27667500  0.59003400  0.77750200  1
  La  La75  1  0.72332500  0.69673400  0.78417100  1
  La  La76  1  0.17005900  0.80326600  0.79082900  1
  La  La77  1  0.61670900  0.90996600  0.79749800  1
  Mg  Mg78  1  0.57169200  0.00000000  0.24062500  1
  Mg  Mg79  1  0.32169200  0.50000000  0.20937500  1
  Mg  Mg80  1  0.07169200  0.00000000  0.30312500  1
  Mg  Mg81  1  0.82169200  0.50000000  0.27187500  1
  Mg  Mg82  1  0.57169200  0.00000000  0.36562500  1
  Mg  Mg83  1  0.32169200  0.50000000  0.33437500  1
  Mg  Mg84  1  0.07169200  0.00000000  0.42812500  1
  Mg  Mg85  1  0.82169200  0.50000000  0.39687500  1
  Mg  Mg86  1  0.57169200  0.00000000  0.49062500  1
  Mg  Mg87  1  0.32169200  0.50000000  0.45937500  1
  Mg  Mg88  1  0.07169200  0.00000000  0.55312500  1
  Mg  Mg89  1  0.82169200  0.50000000  0.52187500  1
  Mg  Mg90  1  0.57169200  0.00000000  0.61562500  1
  Mg  Mg91  1  0.32169200  0.50000000  0.58437500  1
  Mg  Mg92  1  0.07169200  0.00000000  0.67812500  1
  Mg  Mg93  1  0.82169200  0.50000000  0.64687500  1
  Mg  Mg94  1  0.57169200  0.00000000  0.74062500  1
  Mg  Mg95  1  0.32169200  0.50000000  0.70937500  1
  Mg  Mg96  1  0.07169200  0.00000000  0.80312500  1
  Mg  Mg97  1  0.82169200  0.50000000  0.77187500  1
