# generated using pymatgen
data_Mg19Tl8
_symmetry_space_group_name_H-M   'P 1'
_cell_length_a   6.32911714
_cell_length_b   8.77491562
_cell_length_c   45.19527000
_cell_angle_alpha   85.33535441
_cell_angle_beta   85.98488022
_cell_angle_gamma   68.86068493
_symmetry_Int_Tables_number   1
_chemical_formula_structural   Mg19Tl8
_chemical_formula_sum   'Mg38 Tl16'
_cell_volume   2331.13079959
_cell_formula_units_Z   2
loop_
 _symmetry_equiv_pos_site_id
 _symmetry_equiv_pos_as_xyz
  1  'x, y, z'
loop_
 _atom_site_type_symbol
 _atom_site_label
 _atom_site_symmetry_multiplicity
 _atom_site_fract_x
 _atom_site_fract_y
 _atom_site_fract_z
 _atom_site_occupancy
  Mg  Mg0  1  0.82178200  0.66769300  0.68874200  1
  Mg  Mg1  1  0.89421600  0.02070100  0.69086700  1
  Mg  Mg2  1  0.69247900  0.39055300  0.72449000  1
  Mg  Mg3  1  0.46740900  0.40071100  0.66447100  1
  Mg  Mg4  1  0.06317500  0.11341300  0.76023700  1
  Mg  Mg5  1  0.99074200  0.76040400  0.75811300  1
  Mg  Mg6  1  0.49074200  0.76040400  0.75811300  1
  Mg  Mg7  1  0.39421600  0.02070100  0.69086700  1
  Mg  Mg8  1  0.27469100  0.80896600  0.64165100  1
  Mg  Mg9  1  0.19247900  0.39055300  0.72449000  1
  Mg  Mg10  1  0.67892500  0.09626400  0.54588500  1
  Mg  Mg11  1  0.75135900  0.44927300  0.54801000  1
  Mg  Mg12  1  0.54962200  0.81912400  0.58163300  1
  Mg  Mg13  1  0.32455200  0.82928200  0.52161400  1
  Mg  Mg14  1  0.92031800  0.54198400  0.61738000  1
  Mg  Mg15  1  0.84788400  0.18897600  0.61525600  1
  Mg  Mg16  1  0.34788400  0.18897600  0.61525600  1
  Mg  Mg17  1  0.25135900  0.44927300  0.54801000  1
  Mg  Mg18  1  0.13183400  0.23753800  0.49879400  1
  Mg  Mg19  1  0.04962200  0.81912400  0.58163300  1
  Mg  Mg20  1  0.53606800  0.52483600  0.40302800  1
  Mg  Mg21  1  0.60850200  0.87784400  0.40515300  1
  Mg  Mg22  1  0.40676400  0.24769600  0.43877600  1
  Mg  Mg23  1  0.18169500  0.25785300  0.37875700  1
  Mg  Mg24  1  0.77746100  0.97055500  0.47452300  1
  Mg  Mg25  1  0.70502700  0.61754700  0.47239800  1
  Mg  Mg26  1  0.20502700  0.61754700  0.47239800  1
  Mg  Mg27  1  0.10850200  0.87784400  0.40515300  1
  Mg  Mg28  1  0.98897700  0.66610900  0.35593700  1
  Mg  Mg29  1  0.90676400  0.24769600  0.43877600  1
  Mg  Mg30  1  0.39321100  0.95340700  0.26017100  1
  Mg  Mg31  1  0.46564400  0.30641600  0.26229600  1
  Mg  Mg32  1  0.26390700  0.67626700  0.29591800  1
  Mg  Mg33  1  0.63460400  0.39912700  0.33166600  1
  Mg  Mg34  1  0.56217000  0.04611800  0.32954100  1
  Mg  Mg35  1  0.06217000  0.04611800  0.32954100  1
  Mg  Mg36  1  0.96564400  0.30641600  0.26229600  1
  Mg  Mg37  1  0.76390700  0.67626700  0.29591800  1
  Tl  Tl38  1  0.00928500  0.31196400  0.66946600  1
  Tl  Tl39  1  0.30043300  0.69485900  0.70427400  1
  Tl  Tl40  1  0.58452400  0.08624600  0.74470500  1
  Tl  Tl41  1  0.87567200  0.46914100  0.77951400  1
  Tl  Tl42  1  0.86642800  0.74053600  0.52660900  1
  Tl  Tl43  1  0.15757600  0.12343100  0.56141700  1
  Tl  Tl44  1  0.44166700  0.51481800  0.60184800  1
  Tl  Tl45  1  0.73281500  0.89771300  0.63665700  1
  Tl  Tl46  1  0.72357100  0.16910700  0.38375200  1
  Tl  Tl47  1  0.01471900  0.55200200  0.41856000  1
  Tl  Tl48  1  0.29881000  0.94338900  0.45899100  1
  Tl  Tl49  1  0.58995800  0.32628400  0.49379900  1
  Tl  Tl50  1  0.58071400  0.59767800  0.24089400  1
  Tl  Tl51  1  0.87186200  0.98057400  0.27570300  1
  Tl  Tl52  1  0.15595300  0.37196100  0.31613400  1
  Tl  Tl53  1  0.44710100  0.75485600  0.35094200  1
