# generated using pymatgen
data_Mg18Rh7
_symmetry_space_group_name_H-M   'P 1'
_cell_length_a   8.64031975
_cell_length_b   8.03467500
_cell_length_c   52.55701100
_cell_angle_alpha   90.00000000
_cell_angle_beta   94.71500456
_cell_angle_gamma   90.00000000
_symmetry_Int_Tables_number   1
_chemical_formula_structural   Mg18Rh7
_chemical_formula_sum   'Mg72 Rh28'
_cell_volume   3636.27396607
_cell_formula_units_Z   4
loop_
 _symmetry_equiv_pos_site_id
 _symmetry_equiv_pos_as_xyz
  1  'x, y, z'
loop_
 _atom_site_type_symbol
 _atom_site_label
 _atom_site_symmetry_multiplicity
 _atom_site_fract_x
 _atom_site_fract_y
 _atom_site_fract_z
 _atom_site_occupancy
  Mg  Mg0  1  0.66483700  0.50000000  0.31632700  1
  Mg  Mg1  1  0.66483700  0.00000000  0.31632700  1
  Mg  Mg2  1  0.15908900  0.75000000  0.30483100  1
  Mg  Mg3  1  0.17058500  0.25000000  0.32782200  1
  Mg  Mg4  1  0.96544900  0.93548400  0.34365500  1
  Mg  Mg5  1  0.39155300  0.93548400  0.34365500  1
  Mg  Mg6  1  0.93812100  0.43548400  0.28899800  1
  Mg  Mg7  1  0.36422400  0.43548400  0.28899800  1
  Mg  Mg8  1  0.96544900  0.56451600  0.34365500  1
  Mg  Mg9  1  0.39155300  0.56451600  0.34365500  1
  Mg  Mg10  1  0.93812100  0.06451600  0.28899800  1
  Mg  Mg11  1  0.36422400  0.06451600  0.28899800  1
  Mg  Mg12  1  0.23626600  0.50000000  0.45918400  1
  Mg  Mg13  1  0.23626600  0.00000000  0.45918400  1
  Mg  Mg14  1  0.73051800  0.75000000  0.44768800  1
  Mg  Mg15  1  0.38732800  0.25000000  0.38200800  1
  Mg  Mg16  1  0.00802700  0.25000000  0.38200800  1
  Mg  Mg17  1  0.89307500  0.75000000  0.39350300  1
  Mg  Mg18  1  0.51377500  0.75000000  0.39350300  1
  Mg  Mg19  1  0.74201300  0.25000000  0.47067900  1
  Mg  Mg20  1  0.69216500  0.43548400  0.37098300  1
  Mg  Mg21  1  0.53687800  0.93548400  0.48651200  1
  Mg  Mg22  1  0.96298100  0.93548400  0.48651200  1
  Mg  Mg23  1  0.50955000  0.43548400  0.43185500  1
  Mg  Mg24  1  0.93565300  0.43548400  0.43185500  1
  Mg  Mg25  1  0.20893700  0.56451600  0.40452700  1
  Mg  Mg26  1  0.53687800  0.56451600  0.48651200  1
  Mg  Mg27  1  0.20893700  0.93548400  0.40452700  1
  Mg  Mg28  1  0.96298100  0.56451600  0.48651200  1
  Mg  Mg29  1  0.50955000  0.06451600  0.43185500  1
  Mg  Mg30  1  0.69216500  0.06451600  0.37098300  1
  Mg  Mg31  1  0.93565300  0.06451600  0.43185500  1
  Mg  Mg32  1  0.80769400  0.50000000  0.60204100  1
  Mg  Mg33  1  0.80769400  0.00000000  0.60204100  1
  Mg  Mg34  1  0.30194700  0.75000000  0.59054600  1
  Mg  Mg35  1  0.95875600  0.25000000  0.52486500  1
  Mg  Mg36  1  0.57945600  0.25000000  0.52486500  1
  Mg  Mg37  1  0.46450400  0.75000000  0.53636000  1
  Mg  Mg38  1  0.08520300  0.75000000  0.53636000  1
  Mg  Mg39  1  0.31344200  0.25000000  0.61353600  1
  Mg  Mg40  1  0.26359400  0.43548400  0.51384000  1
  Mg  Mg41  1  0.10830700  0.93548400  0.62936900  1
  Mg  Mg42  1  0.53441000  0.93548400  0.62936900  1
  Mg  Mg43  1  0.08097800  0.43548400  0.57471200  1
  Mg  Mg44  1  0.50708200  0.43548400  0.57471200  1
  Mg  Mg45  1  0.78036600  0.56451600  0.54738400  1
  Mg  Mg46  1  0.10830700  0.56451600  0.62936900  1
  Mg  Mg47  1  0.78036600  0.93548400  0.54738400  1
  Mg  Mg48  1  0.53441000  0.56451600  0.62936900  1
  Mg  Mg49  1  0.08097800  0.06451600  0.57471200  1
  Mg  Mg50  1  0.26359400  0.06451600  0.51384000  1
  Mg  Mg51  1  0.50708200  0.06451600  0.57471200  1
  Mg  Mg52  1  0.37912300  0.50000000  0.74489800  1
  Mg  Mg53  1  0.37912300  0.00000000  0.74489800  1
  Mg  Mg54  1  0.87337500  0.75000000  0.73340300  1
  Mg  Mg55  1  0.53018500  0.25000000  0.66772200  1
  Mg  Mg56  1  0.15088400  0.25000000  0.66772200  1
  Mg  Mg57  1  0.03593200  0.75000000  0.67921700  1
  Mg  Mg58  1  0.65663200  0.75000000  0.67921700  1
  Mg  Mg59  1  0.88487000  0.25000000  0.75639300  1
  Mg  Mg60  1  0.83502300  0.43548400  0.65669800  1
  Mg  Mg61  1  0.67973500  0.93548400  0.77222600  1
  Mg  Mg62  1  0.10583900  0.93548400  0.77222600  1
  Mg  Mg63  1  0.65240700  0.43548400  0.71757000  1
  Mg  Mg64  1  0.07851000  0.43548400  0.71757000  1
  Mg  Mg65  1  0.35179400  0.56451600  0.69024100  1
  Mg  Mg66  1  0.67973500  0.56451600  0.77222600  1
  Mg  Mg67  1  0.35179400  0.93548400  0.69024100  1
  Mg  Mg68  1  0.10583900  0.56451600  0.77222600  1
  Mg  Mg69  1  0.65240700  0.06451600  0.71757000  1
  Mg  Mg70  1  0.83502300  0.06451600  0.65669800  1
  Mg  Mg71  1  0.07851000  0.06451600  0.71757000  1
  Rh  Rh72  1  0.85702800  0.25000000  0.33379800  1
  Rh  Rh73  1  0.49011800  0.25000000  0.33379800  1
  Rh  Rh74  1  0.83955600  0.75000000  0.29885500  1
  Rh  Rh75  1  0.47264600  0.75000000  0.29885500  1
  Rh  Rh76  1  0.71245600  0.25000000  0.41156500  1
  Rh  Rh77  1  0.18864600  0.75000000  0.36394600  1
  Rh  Rh78  1  0.68230900  0.75000000  0.35127000  1
  Rh  Rh79  1  0.42845700  0.25000000  0.47665600  1
  Rh  Rh80  1  0.06154600  0.25000000  0.47665600  1
  Rh  Rh81  1  0.41098500  0.75000000  0.44171200  1
  Rh  Rh82  1  0.04407400  0.75000000  0.44171200  1
  Rh  Rh83  1  0.21879400  0.25000000  0.42424000  1
  Rh  Rh84  1  0.28388500  0.25000000  0.55442200  1
  Rh  Rh85  1  0.76007500  0.75000000  0.50680300  1
  Rh  Rh86  1  0.25373700  0.75000000  0.49412800  1
  Rh  Rh87  1  0.99988500  0.25000000  0.61951300  1
  Rh  Rh88  1  0.63297500  0.25000000  0.61951300  1
  Rh  Rh89  1  0.98241300  0.75000000  0.58456900  1
  Rh  Rh90  1  0.61550300  0.75000000  0.58456900  1
  Rh  Rh91  1  0.79022200  0.25000000  0.56709700  1
  Rh  Rh92  1  0.85531300  0.25000000  0.69727900  1
  Rh  Rh93  1  0.33150400  0.75000000  0.64966000  1
  Rh  Rh94  1  0.82516600  0.75000000  0.63698500  1
  Rh  Rh95  1  0.57131400  0.25000000  0.76237000  1
  Rh  Rh96  1  0.20440300  0.25000000  0.76237000  1
  Rh  Rh97  1  0.55384200  0.75000000  0.72742600  1
  Rh  Rh98  1  0.18693100  0.75000000  0.72742600  1
  Rh  Rh99  1  0.36165100  0.25000000  0.70995400  1
