# generated using pymatgen
data_Mg2Hg
_symmetry_space_group_name_H-M   'P 1'
_cell_length_a   6.40514000
_cell_length_b   9.83847238
_cell_length_c   45.98578800
_cell_angle_alpha   84.71414465
_cell_angle_beta   90.00000000
_cell_angle_gamma   90.00000000
_symmetry_Int_Tables_number   1
_chemical_formula_structural   Mg2Hg
_chemical_formula_sum   'Mg56 Hg28'
_cell_volume   2885.55357962
_cell_formula_units_Z   28
loop_
 _symmetry_equiv_pos_site_id
 _symmetry_equiv_pos_as_xyz
  1  'x, y, z'
loop_
 _atom_site_type_symbol
 _atom_site_label
 _atom_site_symmetry_multiplicity
 _atom_site_fract_x
 _atom_site_fract_y
 _atom_site_fract_z
 _atom_site_occupancy
  Mg  Mg0  1  0.46739600  0.08560500  0.22376900  1
  Mg  Mg1  1  0.53260400  0.64166800  0.23077700  1
  Mg  Mg2  1  0.96739600  0.14166800  0.23077700  1
  Mg  Mg3  1  0.03260400  0.58560500  0.22376900  1
  Mg  Mg4  1  0.67749800  0.38674200  0.19891100  1
  Mg  Mg5  1  0.32250200  0.34053100  0.25563500  1
  Mg  Mg6  1  0.17749800  0.84053100  0.25563500  1
  Mg  Mg7  1  0.82250200  0.88674200  0.19891100  1
  Mg  Mg8  1  0.46739600  0.81287800  0.31467800  1
  Mg  Mg9  1  0.53260400  0.36894000  0.32168600  1
  Mg  Mg10  1  0.96739600  0.86894000  0.32168600  1
  Mg  Mg11  1  0.03260400  0.31287800  0.31467800  1
  Mg  Mg12  1  0.67749800  0.11401500  0.28982000  1
  Mg  Mg13  1  0.32250200  0.06780400  0.34654400  1
  Mg  Mg14  1  0.17749800  0.56780400  0.34654400  1
  Mg  Mg15  1  0.82250200  0.61401500  0.28982000  1
  Mg  Mg16  1  0.46739600  0.54015000  0.40558700  1
  Mg  Mg17  1  0.53260400  0.09621300  0.41259500  1
  Mg  Mg18  1  0.96739600  0.59621300  0.41259500  1
  Mg  Mg19  1  0.03260400  0.04015000  0.40558700  1
  Mg  Mg20  1  0.67749800  0.84128700  0.38072900  1
  Mg  Mg21  1  0.32250200  0.79507600  0.43745300  1
  Mg  Mg22  1  0.17749800  0.29507600  0.43745300  1
  Mg  Mg23  1  0.82250200  0.34128700  0.38072900  1
  Mg  Mg24  1  0.46739600  0.26742300  0.49649600  1
  Mg  Mg25  1  0.53260400  0.82348600  0.50350400  1
  Mg  Mg26  1  0.96739600  0.32348600  0.50350400  1
  Mg  Mg27  1  0.03260400  0.76742300  0.49649600  1
  Mg  Mg28  1  0.67749800  0.56856000  0.47163800  1
  Mg  Mg29  1  0.32250200  0.52234900  0.52836200  1
  Mg  Mg30  1  0.17749800  0.02234900  0.52836200  1
  Mg  Mg31  1  0.82250200  0.06856000  0.47163800  1
  Mg  Mg32  1  0.46739600  0.99469600  0.58740500  1
  Mg  Mg33  1  0.53260400  0.55075900  0.59441300  1
  Mg  Mg34  1  0.96739600  0.05075900  0.59441300  1
  Mg  Mg35  1  0.03260400  0.49469600  0.58740500  1
  Mg  Mg36  1  0.67749800  0.29583300  0.56254700  1
  Mg  Mg37  1  0.32250200  0.24962200  0.61927100  1
  Mg  Mg38  1  0.17749800  0.74962200  0.61927100  1
  Mg  Mg39  1  0.82250200  0.79583300  0.56254700  1
  Mg  Mg40  1  0.46739600  0.72196900  0.67831400  1
  Mg  Mg41  1  0.53260400  0.27803100  0.68532200  1
  Mg  Mg42  1  0.96739600  0.77803100  0.68532200  1
  Mg  Mg43  1  0.03260400  0.22196900  0.67831400  1
  Mg  Mg44  1  0.67749800  0.02310500  0.65345600  1
  Mg  Mg45  1  0.32250200  0.97689500  0.71018000  1
  Mg  Mg46  1  0.17749800  0.47689500  0.71018000  1
  Mg  Mg47  1  0.82250200  0.52310500  0.65345600  1
  Mg  Mg48  1  0.46739600  0.44924100  0.76922300  1
  Mg  Mg49  1  0.53260400  0.00530400  0.77623100  1
  Mg  Mg50  1  0.96739600  0.50530400  0.77623100  1
  Mg  Mg51  1  0.03260400  0.94924100  0.76922300  1
  Mg  Mg52  1  0.67749800  0.75037800  0.74436500  1
  Mg  Mg53  1  0.32250200  0.70416700  0.80108900  1
  Mg  Mg54  1  0.17749800  0.20416700  0.80108900  1
  Mg  Mg55  1  0.82250200  0.25037800  0.74436500  1
  Hg  Hg56  1  0.27973800  0.85293700  0.19468500  1
  Hg  Hg57  1  0.72026200  0.87433600  0.25986000  1
  Hg  Hg58  1  0.77973800  0.37433600  0.25986000  1
  Hg  Hg59  1  0.22026200  0.35293700  0.19468500  1
  Hg  Hg60  1  0.27973800  0.58020900  0.28559400  1
  Hg  Hg61  1  0.72026200  0.60160900  0.35076900  1
  Hg  Hg62  1  0.77973800  0.10160900  0.35076900  1
  Hg  Hg63  1  0.22026200  0.08020900  0.28559400  1
  Hg  Hg64  1  0.27973800  0.30748200  0.37650300  1
  Hg  Hg65  1  0.72026200  0.32888100  0.44167800  1
  Hg  Hg66  1  0.77973800  0.82888100  0.44167800  1
  Hg  Hg67  1  0.22026200  0.80748200  0.37650300  1
  Hg  Hg68  1  0.27973800  0.03475500  0.46741300  1
  Hg  Hg69  1  0.72026200  0.05615400  0.53258700  1
  Hg  Hg70  1  0.77973800  0.55615400  0.53258700  1
  Hg  Hg71  1  0.22026200  0.53475500  0.46741300  1
  Hg  Hg72  1  0.27973800  0.76202800  0.55832200  1
  Hg  Hg73  1  0.72026200  0.78342700  0.62349700  1
  Hg  Hg74  1  0.77973800  0.28342700  0.62349700  1
  Hg  Hg75  1  0.22026200  0.26202800  0.55832200  1
  Hg  Hg76  1  0.27973800  0.48930000  0.64923100  1
  Hg  Hg77  1  0.72026200  0.51070000  0.71440600  1
  Hg  Hg78  1  0.77973800  0.01070000  0.71440600  1
  Hg  Hg79  1  0.22026200  0.98930000  0.64923100  1
  Hg  Hg80  1  0.27973800  0.21657300  0.74014000  1
  Hg  Hg81  1  0.72026200  0.23797200  0.80531500  1
  Hg  Hg82  1  0.77973800  0.73797200  0.80531500  1
  Hg  Hg83  1  0.22026200  0.71657300  0.74014000  1
