# generated using pymatgen
data_CeMg3
_symmetry_space_group_name_H-M   'P 1'
_cell_length_a   5.21939400
_cell_length_b   7.38133800
_cell_length_c   41.75515600
_cell_angle_alpha   90.00000000
_cell_angle_beta   90.00000000
_cell_angle_gamma   90.00000000
_symmetry_Int_Tables_number   1
_chemical_formula_structural   CeMg3
_chemical_formula_sum   'Ce10 Mg30'
_cell_volume   1608.66378612
_cell_formula_units_Z   10
loop_
 _symmetry_equiv_pos_site_id
 _symmetry_equiv_pos_as_xyz
  1  'x, y, z'
loop_
 _atom_site_type_symbol
 _atom_site_label
 _atom_site_symmetry_multiplicity
 _atom_site_fract_x
 _atom_site_fract_y
 _atom_site_fract_z
 _atom_site_occupancy
  Ce  Ce0  1  0.75000000  0.00000000  0.28125000  1
  Ce  Ce1  1  0.25000000  0.50000000  0.21875000  1
  Ce  Ce2  1  0.75000000  0.00000000  0.40625000  1
  Ce  Ce3  1  0.25000000  0.50000000  0.34375000  1
  Ce  Ce4  1  0.75000000  0.00000000  0.53125000  1
  Ce  Ce5  1  0.25000000  0.50000000  0.46875000  1
  Ce  Ce6  1  0.75000000  0.00000000  0.65625000  1
  Ce  Ce7  1  0.25000000  0.50000000  0.59375000  1
  Ce  Ce8  1  0.75000000  0.00000000  0.78125000  1
  Ce  Ce9  1  0.25000000  0.50000000  0.71875000  1
  Mg  Mg10  1  0.25000000  0.25000000  0.28125000  1
  Mg  Mg11  1  0.25000000  0.00000000  0.21875000  1
  Mg  Mg12  1  0.75000000  0.25000000  0.21875000  1
  Mg  Mg13  1  0.75000000  0.75000000  0.21875000  1
  Mg  Mg14  1  0.75000000  0.50000000  0.28125000  1
  Mg  Mg15  1  0.25000000  0.75000000  0.28125000  1
  Mg  Mg16  1  0.25000000  0.25000000  0.40625000  1
  Mg  Mg17  1  0.25000000  0.00000000  0.34375000  1
  Mg  Mg18  1  0.75000000  0.25000000  0.34375000  1
  Mg  Mg19  1  0.75000000  0.75000000  0.34375000  1
  Mg  Mg20  1  0.75000000  0.50000000  0.40625000  1
  Mg  Mg21  1  0.25000000  0.75000000  0.40625000  1
  Mg  Mg22  1  0.25000000  0.25000000  0.53125000  1
  Mg  Mg23  1  0.25000000  0.00000000  0.46875000  1
  Mg  Mg24  1  0.75000000  0.25000000  0.46875000  1
  Mg  Mg25  1  0.75000000  0.75000000  0.46875000  1
  Mg  Mg26  1  0.75000000  0.50000000  0.53125000  1
  Mg  Mg27  1  0.25000000  0.75000000  0.53125000  1
  Mg  Mg28  1  0.25000000  0.25000000  0.65625000  1
  Mg  Mg29  1  0.25000000  0.00000000  0.59375000  1
  Mg  Mg30  1  0.75000000  0.25000000  0.59375000  1
  Mg  Mg31  1  0.75000000  0.75000000  0.59375000  1
  Mg  Mg32  1  0.75000000  0.50000000  0.65625000  1
  Mg  Mg33  1  0.25000000  0.75000000  0.65625000  1
  Mg  Mg34  1  0.25000000  0.25000000  0.78125000  1
  Mg  Mg35  1  0.25000000  0.00000000  0.71875000  1
  Mg  Mg36  1  0.75000000  0.25000000  0.71875000  1
  Mg  Mg37  1  0.75000000  0.75000000  0.71875000  1
  Mg  Mg38  1  0.75000000  0.50000000  0.78125000  1
  Mg  Mg39  1  0.25000000  0.75000000  0.78125000  1
