# generated using pymatgen
data_Mg19Si10
_symmetry_space_group_name_H-M   'P 1'
_cell_length_a   12.34156200
_cell_length_b   12.41651900
_cell_length_c   43.01208400
_cell_angle_alpha   90.00000000
_cell_angle_beta   90.00000000
_cell_angle_gamma   90.00000000
_symmetry_Int_Tables_number   1
_chemical_formula_structural   Mg19Si10
_chemical_formula_sum   'Mg114 Si60'
_cell_volume   6591.13902266
_cell_formula_units_Z   6
loop_
 _symmetry_equiv_pos_site_id
 _symmetry_equiv_pos_as_xyz
  1  'x, y, z'
loop_
 _atom_site_type_symbol
 _atom_site_label
 _atom_site_symmetry_multiplicity
 _atom_site_fract_x
 _atom_site_fract_y
 _atom_site_fract_z
 _atom_site_occupancy
  Mg  Mg0  1  0.91704200  0.49693800  0.27864000  1
  Mg  Mg1  1  0.41704200  0.15740400  0.23611800  1
  Mg  Mg2  1  0.41704200  0.53913800  0.21811700  1
  Mg  Mg3  1  0.91704200  0.36007100  0.21640600  1
  Mg  Mg4  1  0.91704200  0.24180500  0.28174000  1
  Mg  Mg5  1  0.41704200  0.90227200  0.23921700  1
  Mg  Mg6  1  0.08295800  0.90227200  0.23921700  1
  Mg  Mg7  1  0.58295800  0.24180500  0.28174000  1
  Mg  Mg8  1  0.58295800  0.36007100  0.21640600  1
  Mg  Mg9  1  0.08295800  0.53913800  0.21811700  1
  Mg  Mg10  1  0.08295800  0.15740400  0.23611800  1
  Mg  Mg11  1  0.58295800  0.49693800  0.27864000  1
  Mg  Mg12  1  0.25000000  0.52660100  0.27572700  1
  Mg  Mg13  1  0.75000000  0.16349800  0.22724500  1
  Mg  Mg14  1  0.75000000  0.56270700  0.22407700  1
  Mg  Mg15  1  0.25000000  0.33650200  0.21044700  1
  Mg  Mg16  1  0.25000000  0.23571100  0.29061200  1
  Mg  Mg17  1  0.75000000  0.87260800  0.24213000  1
  Mg  Mg18  1  0.91704200  0.99693800  0.36197300  1
  Mg  Mg19  1  0.41704200  0.65740400  0.31945100  1
  Mg  Mg20  1  0.41704200  0.03913800  0.30145100  1
  Mg  Mg21  1  0.91704200  0.86007100  0.29974000  1
  Mg  Mg22  1  0.91704200  0.74180500  0.36507300  1
  Mg  Mg23  1  0.41704200  0.40227200  0.32255100  1
  Mg  Mg24  1  0.08295800  0.40227200  0.32255100  1
  Mg  Mg25  1  0.58295800  0.74180500  0.36507300  1
  Mg  Mg26  1  0.58295800  0.86007100  0.29974000  1
  Mg  Mg27  1  0.08295800  0.03913800  0.30145100  1
  Mg  Mg28  1  0.08295800  0.65740400  0.31945100  1
  Mg  Mg29  1  0.58295800  0.99693800  0.36197300  1
  Mg  Mg30  1  0.25000000  0.02660100  0.35906000  1
  Mg  Mg31  1  0.75000000  0.66349800  0.31057900  1
  Mg  Mg32  1  0.75000000  0.06270700  0.30741000  1
  Mg  Mg33  1  0.25000000  0.83650200  0.29378000  1
  Mg  Mg34  1  0.25000000  0.73571100  0.37394500  1
  Mg  Mg35  1  0.75000000  0.37260800  0.32546300  1
  Mg  Mg36  1  0.91704200  0.49693800  0.44530600  1
  Mg  Mg37  1  0.41704200  0.15740400  0.40278400  1
  Mg  Mg38  1  0.41704200  0.53913800  0.38478400  1
  Mg  Mg39  1  0.91704200  0.36007100  0.38307300  1
  Mg  Mg40  1  0.91704200  0.24180500  0.44840600  1
  Mg  Mg41  1  0.41704200  0.90227200  0.40588400  1
  Mg  Mg42  1  0.08295800  0.90227200  0.40588400  1
  Mg  Mg43  1  0.58295800  0.24180500  0.44840600  1
  Mg  Mg44  1  0.58295800  0.36007100  0.38307300  1
  Mg  Mg45  1  0.08295800  0.53913800  0.38478400  1
  Mg  Mg46  1  0.08295800  0.15740400  0.40278400  1
  Mg  Mg47  1  0.58295800  0.49693800  0.44530600  1
  Mg  Mg48  1  0.25000000  0.52660100  0.44239400  1
  Mg  Mg49  1  0.75000000  0.16349800  0.39391200  1
  Mg  Mg50  1  0.75000000  0.56270700  0.39074400  1
  Mg  Mg51  1  0.25000000  0.33650200  0.37711400  1
  Mg  Mg52  1  0.25000000  0.23571100  0.45727800  1
  Mg  Mg53  1  0.75000000  0.87260800  0.40879700  1
  Mg  Mg54  1  0.91704200  0.99693800  0.52864000  1
  Mg  Mg55  1  0.41704200  0.65740400  0.48611800  1
  Mg  Mg56  1  0.41704200  0.03913800  0.46811700  1
  Mg  Mg57  1  0.91704200  0.86007100  0.46640600  1
  Mg  Mg58  1  0.91704200  0.74180500  0.53174000  1
  Mg  Mg59  1  0.41704200  0.40227200  0.48921700  1
  Mg  Mg60  1  0.08295800  0.40227200  0.48921700  1
  Mg  Mg61  1  0.58295800  0.74180500  0.53174000  1
  Mg  Mg62  1  0.58295800  0.86007100  0.46640600  1
  Mg  Mg63  1  0.08295800  0.03913800  0.46811700  1
  Mg  Mg64  1  0.08295800  0.65740400  0.48611800  1
  Mg  Mg65  1  0.58295800  0.99693800  0.52864000  1
  Mg  Mg66  1  0.25000000  0.02660100  0.52572700  1
  Mg  Mg67  1  0.75000000  0.66349800  0.47724500  1
  Mg  Mg68  1  0.75000000  0.06270700  0.47407700  1
  Mg  Mg69  1  0.25000000  0.83650200  0.46044700  1
  Mg  Mg70  1  0.25000000  0.73571100  0.54061200  1
  Mg  Mg71  1  0.75000000  0.37260800  0.49213000  1
  Mg  Mg72  1  0.91704200  0.49693800  0.61197300  1
  Mg  Mg73  1  0.41704200  0.15740400  0.56945100  1
  Mg  Mg74  1  0.41704200  0.53913800  0.55145100  1
  Mg  Mg75  1  0.91704200  0.36007100  0.54974000  1
  Mg  Mg76  1  0.91704200  0.24180500  0.61507300  1
  Mg  Mg77  1  0.41704200  0.90227200  0.57255100  1
  Mg  Mg78  1  0.08295800  0.90227200  0.57255100  1
  Mg  Mg79  1  0.58295800  0.24180500  0.61507300  1
  Mg  Mg80  1  0.58295800  0.36007100  0.54974000  1
  Mg  Mg81  1  0.08295800  0.53913800  0.55145100  1
  Mg  Mg82  1  0.08295800  0.15740400  0.56945100  1
  Mg  Mg83  1  0.58295800  0.49693800  0.61197300  1
  Mg  Mg84  1  0.25000000  0.52660100  0.60906000  1
  Mg  Mg85  1  0.75000000  0.16349800  0.56057900  1
  Mg  Mg86  1  0.75000000  0.56270700  0.55741000  1
  Mg  Mg87  1  0.25000000  0.33650200  0.54378000  1
  Mg  Mg88  1  0.25000000  0.23571100  0.62394500  1
  Mg  Mg89  1  0.75000000  0.87260800  0.57546300  1
  Mg  Mg90  1  0.91704200  0.99693800  0.69530600  1
  Mg  Mg91  1  0.41704200  0.65740400  0.65278400  1
  Mg  Mg92  1  0.41704200  0.03913800  0.63478400  1
  Mg  Mg93  1  0.91704200  0.86007100  0.63307300  1
  Mg  Mg94  1  0.91704200  0.74180500  0.69840600  1
  Mg  Mg95  1  0.41704200  0.40227200  0.65588400  1
  Mg  Mg96  1  0.08295800  0.40227200  0.65588400  1
  Mg  Mg97  1  0.58295800  0.74180500  0.69840600  1
  Mg  Mg98  1  0.58295800  0.86007100  0.63307300  1
  Mg  Mg99  1  0.08295800  0.03913800  0.63478400  1
  Mg  Mg100  1  0.08295800  0.65740400  0.65278400  1
  Mg  Mg101  1  0.58295800  0.99693800  0.69530600  1
  Mg  Mg102  1  0.25000000  0.02660100  0.69239400  1
  Mg  Mg103  1  0.75000000  0.66349800  0.64391200  1
  Mg  Mg104  1  0.75000000  0.06270700  0.64074400  1
  Mg  Mg105  1  0.25000000  0.83650200  0.62711400  1
  Mg  Mg106  1  0.25000000  0.73571100  0.70727800  1
  Mg  Mg107  1  0.75000000  0.37260800  0.65879700  1
  Mg  Mg108  1  0.41704200  0.53913800  0.71811700  1
  Mg  Mg109  1  0.91704200  0.36007100  0.71640600  1
  Mg  Mg110  1  0.58295800  0.36007100  0.71640600  1
  Mg  Mg111  1  0.08295800  0.53913800  0.71811700  1
  Mg  Mg112  1  0.75000000  0.56270700  0.72407700  1
  Mg  Mg113  1  0.25000000  0.33650200  0.71044700  1
  Si  Si114  1  0.10025900  0.69960500  0.25892900  1
  Si  Si115  1  0.60025900  0.69960500  0.25892900  1
  Si  Si116  1  0.89974100  0.69960500  0.25892900  1
  Si  Si117  1  0.39974100  0.69960500  0.25892900  1
  Si  Si118  1  0.25000000  0.03293800  0.25892900  1
  Si  Si119  1  0.75000000  0.36627100  0.25892900  1
  Si  Si120  1  0.41253500  0.36627100  0.25892900  1
  Si  Si121  1  0.91253500  0.03293800  0.25892900  1
  Si  Si122  1  0.58746500  0.03293800  0.25892900  1
  Si  Si123  1  0.08746500  0.36627100  0.25892900  1
  Si  Si124  1  0.10025900  0.19960500  0.34226200  1
  Si  Si125  1  0.60025900  0.19960500  0.34226200  1
  Si  Si126  1  0.89974100  0.19960500  0.34226200  1
  Si  Si127  1  0.39974100  0.19960500  0.34226200  1
  Si  Si128  1  0.25000000  0.53293800  0.34226200  1
  Si  Si129  1  0.75000000  0.86627100  0.34226200  1
  Si  Si130  1  0.41253500  0.86627100  0.34226200  1
  Si  Si131  1  0.91253500  0.53293800  0.34226200  1
  Si  Si132  1  0.58746500  0.53293800  0.34226200  1
  Si  Si133  1  0.08746500  0.86627100  0.34226200  1
  Si  Si134  1  0.10025900  0.69960500  0.42559500  1
  Si  Si135  1  0.60025900  0.69960500  0.42559500  1
  Si  Si136  1  0.89974100  0.69960500  0.42559500  1
  Si  Si137  1  0.39974100  0.69960500  0.42559500  1
  Si  Si138  1  0.25000000  0.03293800  0.42559500  1
  Si  Si139  1  0.75000000  0.36627100  0.42559500  1
  Si  Si140  1  0.41253500  0.36627100  0.42559500  1
  Si  Si141  1  0.91253500  0.03293800  0.42559500  1
  Si  Si142  1  0.58746500  0.03293800  0.42559500  1
  Si  Si143  1  0.08746500  0.36627100  0.42559500  1
  Si  Si144  1  0.10025900  0.19960500  0.50892900  1
  Si  Si145  1  0.60025900  0.19960500  0.50892900  1
  Si  Si146  1  0.89974100  0.19960500  0.50892900  1
  Si  Si147  1  0.39974100  0.19960500  0.50892900  1
  Si  Si148  1  0.25000000  0.53293800  0.50892900  1
  Si  Si149  1  0.75000000  0.86627100  0.50892900  1
  Si  Si150  1  0.41253500  0.86627100  0.50892900  1
  Si  Si151  1  0.91253500  0.53293800  0.50892900  1
  Si  Si152  1  0.58746500  0.53293800  0.50892900  1
  Si  Si153  1  0.08746500  0.86627100  0.50892900  1
  Si  Si154  1  0.10025900  0.69960500  0.59226200  1
  Si  Si155  1  0.60025900  0.69960500  0.59226200  1
  Si  Si156  1  0.89974100  0.69960500  0.59226200  1
  Si  Si157  1  0.39974100  0.69960500  0.59226200  1
  Si  Si158  1  0.25000000  0.03293800  0.59226200  1
  Si  Si159  1  0.75000000  0.36627100  0.59226200  1
  Si  Si160  1  0.41253500  0.36627100  0.59226200  1
  Si  Si161  1  0.91253500  0.03293800  0.59226200  1
  Si  Si162  1  0.58746500  0.03293800  0.59226200  1
  Si  Si163  1  0.08746500  0.36627100  0.59226200  1
  Si  Si164  1  0.10025900  0.19960500  0.67559500  1
  Si  Si165  1  0.60025900  0.19960500  0.67559500  1
  Si  Si166  1  0.89974100  0.19960500  0.67559500  1
  Si  Si167  1  0.39974100  0.19960500  0.67559500  1
  Si  Si168  1  0.25000000  0.53293800  0.67559500  1
  Si  Si169  1  0.75000000  0.86627100  0.67559500  1
  Si  Si170  1  0.41253500  0.86627100  0.67559500  1
  Si  Si171  1  0.91253500  0.53293800  0.67559500  1
  Si  Si172  1  0.58746500  0.53293800  0.67559500  1
  Si  Si173  1  0.08746500  0.86627100  0.67559500  1
