# generated using pymatgen
data_MgAg2
_symmetry_space_group_name_H-M   'P 1'
_cell_length_a   5.11669478
_cell_length_b   7.04186210
_cell_length_c   42.59610200
_cell_angle_alpha   90.16923033
_cell_angle_beta   93.08783511
_cell_angle_gamma   110.97454756
_symmetry_Int_Tables_number   1
_chemical_formula_structural   MgAg2
_chemical_formula_sum   'Mg16 Ag32'
_cell_volume   1430.59960922
_cell_formula_units_Z   16
loop_
 _symmetry_equiv_pos_site_id
 _symmetry_equiv_pos_as_xyz
  1  'x, y, z'
loop_
 _atom_site_type_symbol
 _atom_site_label
 _atom_site_symmetry_multiplicity
 _atom_site_fract_x
 _atom_site_fract_y
 _atom_site_fract_z
 _atom_site_occupancy
  Mg  Mg0  1  0.81999200  0.22540100  0.80359200  1
  Mg  Mg1  1  0.02616200  0.31306100  0.73486900  1
  Mg  Mg2  1  0.05076100  0.76386200  0.72666900  1
  Mg  Mg3  1  0.25693100  0.85152200  0.65794600  1
  Mg  Mg4  1  0.28153000  0.30232400  0.64974600  1
  Mg  Mg5  1  0.48770000  0.38998400  0.58102300  1
  Mg  Mg6  1  0.51230000  0.84078500  0.57282300  1
  Mg  Mg7  1  0.71847000  0.92844600  0.50410000  1
  Mg  Mg8  1  0.74306900  0.37924700  0.49590000  1
  Mg  Mg9  1  0.94923900  0.46690700  0.42717700  1
  Mg  Mg10  1  0.97383800  0.91770800  0.41897700  1
  Mg  Mg11  1  0.18000800  0.00536900  0.35025400  1
  Mg  Mg12  1  0.20460700  0.45617000  0.34205400  1
  Mg  Mg13  1  0.41077700  0.54383000  0.27333100  1
  Mg  Mg14  1  0.43537700  0.99463100  0.26513100  1
  Mg  Mg15  1  0.64154600  0.08229200  0.19640800  1
  Ag  Ag16  1  0.20265200  0.62593800  0.78701500  1
  Ag  Ag17  1  0.23253000  0.06618300  0.77705600  1
  Ag  Ag18  1  0.64350200  0.91252300  0.75144600  1
  Ag  Ag19  1  0.61362400  0.47227900  0.76140500  1
  Ag  Ag20  1  0.43342100  0.16440000  0.71009200  1
  Ag  Ag21  1  0.46329900  0.60464400  0.70013300  1
  Ag  Ag22  1  0.87427100  0.45098500  0.67452300  1
  Ag  Ag23  1  0.84439300  0.01074100  0.68448200  1
  Ag  Ag24  1  0.66419000  0.70286100  0.63316900  1
  Ag  Ag25  1  0.69406800  0.14310600  0.62321000  1
  Ag  Ag26  1  0.10504100  0.98944600  0.59760000  1
  Ag  Ag27  1  0.07516300  0.54920200  0.60755900  1
  Ag  Ag28  1  0.89495900  0.24132300  0.55624600  1
  Ag  Ag29  1  0.92483700  0.68156700  0.54628700  1
  Ag  Ag30  1  0.33581000  0.52790800  0.52067700  1
  Ag  Ag31  1  0.30593200  0.08766400  0.53063600  1
  Ag  Ag32  1  0.12572900  0.77978500  0.47932300  1
  Ag  Ag33  1  0.15560700  0.22002900  0.46936400  1
  Ag  Ag34  1  0.56657900  0.06636900  0.44375400  1
  Ag  Ag35  1  0.53670100  0.62612500  0.45371300  1
  Ag  Ag36  1  0.35649800  0.31824600  0.40240000  1
  Ag  Ag37  1  0.38637600  0.75849000  0.39244100  1
  Ag  Ag38  1  0.79734800  0.60483100  0.36683100  1
  Ag  Ag39  1  0.76747000  0.16458700  0.37679000  1
  Ag  Ag40  1  0.58726700  0.85670800  0.32547700  1
  Ag  Ag41  1  0.61714500  0.29695200  0.31551800  1
  Ag  Ag42  1  0.02811800  0.14329200  0.28990800  1
  Ag  Ag43  1  0.99824000  0.70304800  0.29986700  1
  Ag  Ag44  1  0.81803600  0.39516900  0.24855400  1
  Ag  Ag45  1  0.84791400  0.83541300  0.23859500  1
  Ag  Ag46  1  0.25888700  0.68175400  0.21298500  1
  Ag  Ag47  1  0.22900900  0.24151000  0.22294400  1
