# generated using pymatgen
data_MgHg3
_symmetry_space_group_name_H-M   'P 1'
_cell_length_a   4.95207500
_cell_length_b   9.39727500
_cell_length_c   42.88622400
_cell_angle_alpha   90.00000000
_cell_angle_beta   90.00000000
_cell_angle_gamma   90.00000000
_symmetry_Int_Tables_number   1
_chemical_formula_structural   MgHg3
_chemical_formula_sum   'Mg12 Hg36'
_cell_volume   1995.75377447
_cell_formula_units_Z   12
loop_
 _symmetry_equiv_pos_site_id
 _symmetry_equiv_pos_as_xyz
  1  'x, y, z'
loop_
 _atom_site_type_symbol
 _atom_site_label
 _atom_site_symmetry_multiplicity
 _atom_site_fract_x
 _atom_site_fract_y
 _atom_site_fract_z
 _atom_site_occupancy
  Mg  Mg0  1  0.25000000  0.75000000  0.21666700  1
  Mg  Mg1  1  0.25000000  0.25000000  0.28333300  1
  Mg  Mg2  1  0.75000000  0.75000000  0.31666700  1
  Mg  Mg3  1  0.75000000  0.25000000  0.38333300  1
  Mg  Mg4  1  0.25000000  0.75000000  0.41666700  1
  Mg  Mg5  1  0.25000000  0.25000000  0.48333300  1
  Mg  Mg6  1  0.75000000  0.75000000  0.51666700  1
  Mg  Mg7  1  0.75000000  0.25000000  0.58333300  1
  Mg  Mg8  1  0.25000000  0.75000000  0.61666700  1
  Mg  Mg9  1  0.25000000  0.25000000  0.68333300  1
  Mg  Mg10  1  0.75000000  0.75000000  0.71666700  1
  Mg  Mg11  1  0.75000000  0.25000000  0.78333300  1
  Hg  Hg12  1  0.25000000  0.07318500  0.21666700  1
  Hg  Hg13  1  0.25000000  0.92681500  0.28333300  1
  Hg  Hg14  1  0.25000000  0.57318500  0.28333300  1
  Hg  Hg15  1  0.25000000  0.42681500  0.21666700  1
  Hg  Hg16  1  0.75000000  0.75000000  0.25000000  1
  Hg  Hg17  1  0.75000000  0.25000000  0.25000000  1
  Hg  Hg18  1  0.75000000  0.07318500  0.31666700  1
  Hg  Hg19  1  0.75000000  0.92681500  0.38333300  1
  Hg  Hg20  1  0.75000000  0.57318500  0.38333300  1
  Hg  Hg21  1  0.75000000  0.42681500  0.31666700  1
  Hg  Hg22  1  0.25000000  0.75000000  0.35000000  1
  Hg  Hg23  1  0.25000000  0.25000000  0.35000000  1
  Hg  Hg24  1  0.25000000  0.07318500  0.41666700  1
  Hg  Hg25  1  0.25000000  0.92681500  0.48333300  1
  Hg  Hg26  1  0.25000000  0.57318500  0.48333300  1
  Hg  Hg27  1  0.25000000  0.42681500  0.41666700  1
  Hg  Hg28  1  0.75000000  0.75000000  0.45000000  1
  Hg  Hg29  1  0.75000000  0.25000000  0.45000000  1
  Hg  Hg30  1  0.75000000  0.07318500  0.51666700  1
  Hg  Hg31  1  0.75000000  0.92681500  0.58333300  1
  Hg  Hg32  1  0.75000000  0.57318500  0.58333300  1
  Hg  Hg33  1  0.75000000  0.42681500  0.51666700  1
  Hg  Hg34  1  0.25000000  0.75000000  0.55000000  1
  Hg  Hg35  1  0.25000000  0.25000000  0.55000000  1
  Hg  Hg36  1  0.25000000  0.07318500  0.61666700  1
  Hg  Hg37  1  0.25000000  0.92681500  0.68333300  1
  Hg  Hg38  1  0.25000000  0.57318500  0.68333300  1
  Hg  Hg39  1  0.25000000  0.42681500  0.61666700  1
  Hg  Hg40  1  0.75000000  0.75000000  0.65000000  1
  Hg  Hg41  1  0.75000000  0.25000000  0.65000000  1
  Hg  Hg42  1  0.75000000  0.07318500  0.71666700  1
  Hg  Hg43  1  0.75000000  0.92681500  0.78333300  1
  Hg  Hg44  1  0.75000000  0.57318500  0.78333300  1
  Hg  Hg45  1  0.75000000  0.42681500  0.71666700  1
  Hg  Hg46  1  0.25000000  0.75000000  0.75000000  1
  Hg  Hg47  1  0.25000000  0.25000000  0.75000000  1
