# generated using pymatgen
data_Mg12Pt5
_symmetry_space_group_name_H-M   'P 1'
_cell_length_a   5.33237400
_cell_length_b   5.33237405
_cell_length_c   45.15508500
_cell_angle_alpha   90.00000000
_cell_angle_beta   90.00000000
_cell_angle_gamma   115.73280348
_symmetry_Int_Tables_number   1
_chemical_formula_structural   Mg12Pt5
_chemical_formula_sum   'Mg24 Pt10'
_cell_volume   1156.61823228
_cell_formula_units_Z   2
loop_
 _symmetry_equiv_pos_site_id
 _symmetry_equiv_pos_as_xyz
  1  'x, y, z'
loop_
 _atom_site_type_symbol
 _atom_site_label
 _atom_site_symmetry_multiplicity
 _atom_site_fract_x
 _atom_site_fract_y
 _atom_site_fract_z
 _atom_site_occupancy
  Mg  Mg0  1  0.39992000  0.60008000  0.23333300  1
  Mg  Mg1  1  0.71664000  0.28336000  0.19667700  1
  Mg  Mg2  1  0.03336000  0.96664000  0.23333300  1
  Mg  Mg3  1  0.71664000  0.28336000  0.26998900  1
  Mg  Mg4  1  0.89992000  0.10008000  0.33333300  1
  Mg  Mg5  1  0.21664000  0.78336000  0.29667700  1
  Mg  Mg6  1  0.53336000  0.46664000  0.33333300  1
  Mg  Mg7  1  0.21664000  0.78336000  0.36998900  1
  Mg  Mg8  1  0.39992000  0.60008000  0.43333300  1
  Mg  Mg9  1  0.71664000  0.28336000  0.39667700  1
  Mg  Mg10  1  0.03336000  0.96664000  0.43333300  1
  Mg  Mg11  1  0.71664000  0.28336000  0.46998900  1
  Mg  Mg12  1  0.89992000  0.10008000  0.53333300  1
  Mg  Mg13  1  0.21664000  0.78336000  0.49667700  1
  Mg  Mg14  1  0.53336000  0.46664000  0.53333300  1
  Mg  Mg15  1  0.21664000  0.78336000  0.56998900  1
  Mg  Mg16  1  0.39992000  0.60008000  0.63333300  1
  Mg  Mg17  1  0.71664000  0.28336000  0.59667700  1
  Mg  Mg18  1  0.03336000  0.96664000  0.63333300  1
  Mg  Mg19  1  0.71664000  0.28336000  0.66998900  1
  Mg  Mg20  1  0.89992000  0.10008000  0.73333300  1
  Mg  Mg21  1  0.21664000  0.78336000  0.69667700  1
  Mg  Mg22  1  0.53336000  0.46664000  0.73333300  1
  Mg  Mg23  1  0.21664000  0.78336000  0.76998900  1
  Pt  Pt24  1  0.21664000  0.28336000  0.28333300  1
  Pt  Pt25  1  0.71664000  0.78336000  0.28333300  1
  Pt  Pt26  1  0.71664000  0.78336000  0.38333300  1
  Pt  Pt27  1  0.21664000  0.28336000  0.38333300  1
  Pt  Pt28  1  0.21664000  0.28336000  0.48333300  1
  Pt  Pt29  1  0.71664000  0.78336000  0.48333300  1
  Pt  Pt30  1  0.71664000  0.78336000  0.58333300  1
  Pt  Pt31  1  0.21664000  0.28336000  0.58333300  1
  Pt  Pt32  1  0.21664000  0.28336000  0.68333300  1
  Pt  Pt33  1  0.71664000  0.78336000  0.68333300  1
