# generated using pymatgen
data_CeMg2
_symmetry_space_group_name_H-M   'P 1'
_cell_length_a   3.18877500
_cell_length_b   5.20463200
_cell_length_c   53.43870200
_cell_angle_alpha   90.00000000
_cell_angle_beta   90.00000000
_cell_angle_gamma   90.00000000
_symmetry_Int_Tables_number   1
_chemical_formula_structural   CeMg2
_chemical_formula_sum   'Ce8 Mg16'
_cell_volume   886.89009556
_cell_formula_units_Z   8
loop_
 _symmetry_equiv_pos_site_id
 _symmetry_equiv_pos_as_xyz
  1  'x, y, z'
loop_
 _atom_site_type_symbol
 _atom_site_label
 _atom_site_symmetry_multiplicity
 _atom_site_fract_x
 _atom_site_fract_y
 _atom_site_fract_z
 _atom_site_occupancy
  Ce  Ce0  1  0.00000000  0.75000000  0.23707900  1
  Ce  Ce1  1  0.50000000  0.25000000  0.42958800  1
  Ce  Ce2  1  0.50000000  0.75000000  0.40374600  1
  Ce  Ce3  1  0.00000000  0.25000000  0.26292100  1
  Ce  Ce4  1  0.00000000  0.75000000  0.57041200  1
  Ce  Ce5  1  0.50000000  0.25000000  0.76292100  1
  Ce  Ce6  1  0.50000000  0.75000000  0.73707900  1
  Ce  Ce7  1  0.00000000  0.25000000  0.59625400  1
  Mg  Mg8  1  0.00000000  0.75000000  0.45853100  1
  Mg  Mg9  1  0.50000000  0.75000000  0.17739600  1
  Mg  Mg10  1  0.00000000  0.25000000  0.48927100  1
  Mg  Mg11  1  0.50000000  0.25000000  0.20813600  1
  Mg  Mg12  1  0.50000000  0.75000000  0.29186400  1
  Mg  Mg13  1  0.00000000  0.75000000  0.34406200  1
  Mg  Mg14  1  0.50000000  0.25000000  0.32260400  1
  Mg  Mg15  1  0.00000000  0.25000000  0.37480200  1
  Mg  Mg16  1  0.00000000  0.75000000  0.79186400  1
  Mg  Mg17  1  0.50000000  0.75000000  0.51072900  1
  Mg  Mg18  1  0.00000000  0.25000000  0.82260400  1
  Mg  Mg19  1  0.50000000  0.25000000  0.54146900  1
  Mg  Mg20  1  0.50000000  0.75000000  0.62519800  1
  Mg  Mg21  1  0.00000000  0.75000000  0.67739600  1
  Mg  Mg22  1  0.50000000  0.25000000  0.65593800  1
  Mg  Mg23  1  0.00000000  0.25000000  0.70813600  1
