# generated using pymatgen
data_Li101Mg25
_symmetry_space_group_name_H-M   'P 1'
_cell_length_a   5.31167075
_cell_length_b   38.27865090
_cell_length_c   41.48547500
_cell_angle_alpha   92.03635659
_cell_angle_beta   86.32950214
_cell_angle_gamma   86.02152896
_symmetry_Int_Tables_number   1
_chemical_formula_structural   Li101Mg25
_chemical_formula_sum   'Li202 Mg50'
_cell_volume   8390.61563564
_cell_formula_units_Z   2
loop_
 _symmetry_equiv_pos_site_id
 _symmetry_equiv_pos_as_xyz
  1  'x, y, z'
loop_
 _atom_site_type_symbol
 _atom_site_label
 _atom_site_symmetry_multiplicity
 _atom_site_fract_x
 _atom_site_fract_y
 _atom_site_fract_z
 _atom_site_occupancy
  Li  Li0  1  0.90236800  0.93201300  0.21600000  1
  Li  Li1  1  0.26979700  0.86625700  0.21356500  1
  Li  Li2  1  0.63727300  0.80041000  0.21112600  1
  Li  Li3  1  0.00470200  0.73465400  0.20869100  1
  Li  Li4  1  0.58138000  0.26534600  0.19130900  1
  Li  Li5  1  0.94880900  0.19959000  0.18887400  1
  Li  Li6  1  0.31628500  0.13374300  0.18643500  1
  Li  Li7  1  0.16519600  0.06798700  0.22103700  1
  Li  Li8  1  0.74187400  0.59868000  0.20365500  1
  Li  Li9  1  0.10930300  0.53292300  0.20121900  1
  Li  Li10  1  0.47677900  0.46707700  0.19878100  1
  Li  Li11  1  0.84420800  0.40132000  0.19634500  1
  Li  Li12  1  0.38384900  0.93201300  0.25303800  1
  Li  Li13  1  0.75127900  0.86625700  0.25060200  1
  Li  Li14  1  0.11875500  0.80041000  0.24816300  1
  Li  Li15  1  0.48618400  0.73465400  0.24572800  1
  Li  Li16  1  0.06286200  0.26534600  0.22834600  1
  Li  Li17  1  0.43029100  0.19959000  0.22591100  1
  Li  Li18  1  0.79776700  0.13374300  0.22347200  1
  Li  Li19  1  0.64667800  0.06798700  0.25807400  1
  Li  Li20  1  0.22335600  0.59868000  0.24069200  1
  Li  Li21  1  0.59078500  0.53292300  0.23825600  1
  Li  Li22  1  0.95826100  0.46707700  0.23581800  1
  Li  Li23  1  0.32569000  0.40132000  0.23338200  1
  Li  Li24  1  0.86533100  0.93201300  0.29007500  1
  Li  Li25  1  0.23276000  0.86625700  0.28763900  1
  Li  Li26  1  0.60023600  0.80041000  0.28520000  1
  Li  Li27  1  0.96766500  0.73465400  0.28276500  1
  Li  Li28  1  0.54434300  0.26534600  0.26538300  1
  Li  Li29  1  0.91177200  0.19959000  0.26294800  1
  Li  Li30  1  0.27924800  0.13374300  0.26050900  1
  Li  Li31  1  0.12815900  0.06798700  0.29511100  1
  Li  Li32  1  0.70483700  0.59868000  0.27772900  1
  Li  Li33  1  0.07226600  0.53292300  0.27529300  1
  Li  Li34  1  0.43974200  0.46707700  0.27285500  1
  Li  Li35  1  0.80717100  0.40132000  0.27041900  1
  Li  Li36  1  0.34681200  0.93201300  0.32711200  1
  Li  Li37  1  0.71424200  0.86625700  0.32467600  1
  Li  Li38  1  0.08171700  0.80041000  0.32223700  1
  Li  Li39  1  0.44914700  0.73465400  0.31980200  1
  Li  Li40  1  0.02582500  0.26534600  0.30242000  1
  Li  Li41  1  0.39325400  0.19959000  0.29998500  1
  Li  Li42  1  0.76073000  0.13374300  0.29754600  1
  Li  Li43  1  0.60964100  0.06798700  0.33214800  1
  Li  Li44  1  0.18631900  0.59868000  0.31476600  1
  Li  Li45  1  0.55374800  0.53292300  0.31233000  1
  Li  Li46  1  0.92122400  0.46707700  0.30989200  1
  Li  Li47  1  0.28865300  0.40132000  0.30745600  1
  Li  Li48  1  0.82829400  0.93201300  0.36414900  1
  Li  Li49  1  0.19572300  0.86625700  0.36171300  1
  Li  Li50  1  0.56319900  0.80041000  0.35927400  1
  Li  Li51  1  0.93062800  0.73465400  0.35683900  1
  Li  Li52  1  0.50730600  0.26534600  0.33945700  1
  Li  Li53  1  0.87473500  0.19959000  0.33702200  1
  Li  Li54  1  0.24221100  0.13374300  0.33458300  1
  Li  Li55  1  0.09112200  0.06798700  0.36918500  1
  Li  Li56  1  0.66780000  0.59868000  0.35180300  1
  Li  Li57  1  0.03522900  0.53292300  0.34936800  1
  Li  Li58  1  0.40270500  0.46707700  0.34692900  1
  Li  Li59  1  0.77013400  0.40132000  0.34449300  1
  Li  Li60  1  0.30977500  0.93201300  0.40118600  1
  Li  Li61  1  0.67720500  0.86625700  0.39875000  1
  Li  Li62  1  0.04468000  0.80041000  0.39631100  1
  Li  Li63  1  0.41211000  0.73465400  0.39387600  1
  Li  Li64  1  0.98878800  0.26534600  0.37649400  1
  Li  Li65  1  0.35621700  0.19959000  0.37405900  1
  Li  Li66  1  0.72369300  0.13374300  0.37162000  1
  Li  Li67  1  0.57260300  0.06798700  0.40622200  1
  Li  Li68  1  0.14928100  0.59868000  0.38884000  1
  Li  Li69  1  0.51671100  0.53292300  0.38640500  1
  Li  Li70  1  0.88418700  0.46707700  0.38396600  1
  Li  Li71  1  0.25161600  0.40132000  0.38153000  1
  Li  Li72  1  0.79125700  0.93201300  0.43822300  1
  Li  Li73  1  0.15868600  0.86625700  0.43578700  1
  Li  Li74  1  0.52616200  0.80041000  0.43334900  1
  Li  Li75  1  0.89359100  0.73465400  0.43091300  1
  Li  Li76  1  0.47026900  0.26534600  0.41353100  1
  Li  Li77  1  0.83769800  0.19959000  0.41109600  1
  Li  Li78  1  0.20517400  0.13374300  0.40865700  1
  Li  Li79  1  0.05408500  0.06798700  0.44325900  1
  Li  Li80  1  0.63076300  0.59868000  0.42587700  1
  Li  Li81  1  0.99819200  0.53292300  0.42344200  1
  Li  Li82  1  0.36566800  0.46707700  0.42100300  1
  Li  Li83  1  0.73309700  0.40132000  0.41856700  1
  Li  Li84  1  0.27273800  0.93201300  0.47526000  1
  Li  Li85  1  0.64016700  0.86625700  0.47282400  1
  Li  Li86  1  0.00764300  0.80041000  0.47038600  1
  Li  Li87  1  0.37507300  0.73465400  0.46795000  1
  Li  Li88  1  0.95175100  0.26534600  0.45056800  1
  Li  Li89  1  0.31918000  0.19959000  0.44813300  1
  Li  Li90  1  0.68665600  0.13374300  0.44569400  1
  Li  Li91  1  0.53556600  0.06798700  0.48029600  1
  Li  Li92  1  0.11224400  0.59868000  0.46291400  1
  Li  Li93  1  0.47967400  0.53292300  0.46047900  1
  Li  Li94  1  0.84715000  0.46707700  0.45804000  1
  Li  Li95  1  0.21457900  0.40132000  0.45560400  1
  Li  Li96  1  0.75422000  0.93201300  0.51229700  1
  Li  Li97  1  0.12164900  0.86625700  0.50986100  1
  Li  Li98  1  0.48912500  0.80041000  0.50742300  1
  Li  Li99  1  0.85655400  0.73465400  0.50498700  1
  Li  Li100  1  0.43323200  0.26534600  0.48760500  1
  Li  Li101  1  0.80066100  0.19959000  0.48517000  1
  Li  Li102  1  0.16813700  0.13374300  0.48273100  1
  Li  Li103  1  0.01704800  0.06798700  0.51733300  1
  Li  Li104  1  0.59372600  0.59868000  0.49995100  1
  Li  Li105  1  0.96115500  0.53292300  0.49751600  1
  Li  Li106  1  0.32863100  0.46707700  0.49507700  1
  Li  Li107  1  0.69606000  0.40132000  0.49264100  1
  Li  Li108  1  0.23570100  0.93201300  0.54933400  1
  Li  Li109  1  0.60313000  0.86625700  0.54689800  1
  Li  Li110  1  0.97060600  0.80041000  0.54446000  1
  Li  Li111  1  0.33803600  0.73465400  0.54202400  1
  Li  Li112  1  0.91471400  0.26534600  0.52464200  1
  Li  Li113  1  0.28214300  0.19959000  0.52220700  1
  Li  Li114  1  0.64961900  0.13374300  0.51976800  1
  Li  Li115  1  0.49852900  0.06798700  0.55437000  1
  Li  Li116  1  0.07520700  0.59868000  0.53698800  1
  Li  Li117  1  0.44263700  0.53292300  0.53455300  1
  Li  Li118  1  0.81011300  0.46707700  0.53211400  1
  Li  Li119  1  0.17754200  0.40132000  0.52967900  1
  Li  Li120  1  0.71718300  0.93201300  0.58637100  1
  Li  Li121  1  0.08461200  0.86625700  0.58393500  1
  Li  Li122  1  0.45208800  0.80041000  0.58149700  1
  Li  Li123  1  0.81951700  0.73465400  0.57906100  1
  Li  Li124  1  0.39619500  0.26534600  0.56167900  1
  Li  Li125  1  0.76362400  0.19959000  0.55924400  1
  Li  Li126  1  0.13110000  0.13374300  0.55680500  1
  Li  Li127  1  0.98001100  0.06798700  0.59140700  1
  Li  Li128  1  0.55668900  0.59868000  0.57402500  1
  Li  Li129  1  0.92411800  0.53292300  0.57159000  1
  Li  Li130  1  0.29159400  0.46707700  0.56915100  1
  Li  Li131  1  0.65902300  0.40132000  0.56671600  1
  Li  Li132  1  0.19866400  0.93201300  0.62340800  1
  Li  Li133  1  0.56609300  0.86625700  0.62097200  1
  Li  Li134  1  0.93356900  0.80041000  0.61853400  1
  Li  Li135  1  0.30099900  0.73465400  0.61609800  1
  Li  Li136  1  0.87767700  0.26534600  0.59871700  1
  Li  Li137  1  0.24510600  0.19959000  0.59628100  1
  Li  Li138  1  0.61258200  0.13374300  0.59384200  1
  Li  Li139  1  0.46149200  0.06798700  0.62844400  1
  Li  Li140  1  0.03817000  0.59868000  0.61106200  1
  Li  Li141  1  0.40560000  0.53292300  0.60862700  1
  Li  Li142  1  0.77307600  0.46707700  0.60618800  1
  Li  Li143  1  0.14050500  0.40132000  0.60375300  1
  Li  Li144  1  0.68014600  0.93201300  0.66044500  1
  Li  Li145  1  0.04757500  0.86625700  0.65801000  1
  Li  Li146  1  0.41505100  0.80041000  0.65557100  1
  Li  Li147  1  0.78248000  0.73465400  0.65313500  1
  Li  Li148  1  0.35915800  0.26534600  0.63575400  1
  Li  Li149  1  0.72658700  0.19959000  0.63331800  1
  Li  Li150  1  0.09406300  0.13374300  0.63087900  1
  Li  Li151  1  0.94297400  0.06798700  0.66548100  1
  Li  Li152  1  0.51965200  0.59868000  0.64809900  1
  Li  Li153  1  0.88708100  0.53292300  0.64566400  1
  Li  Li154  1  0.25455700  0.46707700  0.64322500  1
  Li  Li155  1  0.62198600  0.40132000  0.64079000  1
  Li  Li156  1  0.16162700  0.93201300  0.69748200  1
  Li  Li157  1  0.52905600  0.86625700  0.69504700  1
  Li  Li158  1  0.89653200  0.80041000  0.69260800  1
  Li  Li159  1  0.26396200  0.73465400  0.69017200  1
  Li  Li160  1  0.84064000  0.26534600  0.67279100  1
  Li  Li161  1  0.20806900  0.19959000  0.67035500  1
  Li  Li162  1  0.57554500  0.13374300  0.66791600  1
  Li  Li163  1  0.42445500  0.06798700  0.70251800  1
  Li  Li164  1  0.00113300  0.59868000  0.68513600  1
  Li  Li165  1  0.36856300  0.53292300  0.68270100  1
  Li  Li166  1  0.73603800  0.46707700  0.68026200  1
  Li  Li167  1  0.10346800  0.40132000  0.67782700  1
  Li  Li168  1  0.64310900  0.93201300  0.73451900  1
  Li  Li169  1  0.01053800  0.86625700  0.73208400  1
  Li  Li170  1  0.37801400  0.80041000  0.72964500  1
  Li  Li171  1  0.74544300  0.73465400  0.72720900  1
  Li  Li172  1  0.32212100  0.26534600  0.70982800  1
  Li  Li173  1  0.68955000  0.19959000  0.70739200  1
  Li  Li174  1  0.05702600  0.13374300  0.70495300  1
  Li  Li175  1  0.90593700  0.06798700  0.73955500  1
  Li  Li176  1  0.48261500  0.59868000  0.72217300  1
  Li  Li177  1  0.85004400  0.53292300  0.71973800  1
  Li  Li178  1  0.21752000  0.46707700  0.71729900  1
  Li  Li179  1  0.58494900  0.40132000  0.71486400  1
  Li  Li180  1  0.12459000  0.93201300  0.77155600  1
  Li  Li181  1  0.49201900  0.86625700  0.76912100  1
  Li  Li182  1  0.85949500  0.80041000  0.76668200  1
  Li  Li183  1  0.22692400  0.73465400  0.76424600  1
  Li  Li184  1  0.80360200  0.26534600  0.74686500  1
  Li  Li185  1  0.17103200  0.19959000  0.74442900  1
  Li  Li186  1  0.53850800  0.13374300  0.74199000  1
  Li  Li187  1  0.38741800  0.06798700  0.77659200  1
  Li  Li188  1  0.96409600  0.59868000  0.75921000  1
  Li  Li189  1  0.33152500  0.53292300  0.75677500  1
  Li  Li190  1  0.69900100  0.46707700  0.75433600  1
  Li  Li191  1  0.06643100  0.40132000  0.75190100  1
  Li  Li192  1  0.97350100  0.86625700  0.80615800  1
  Li  Li193  1  0.34097700  0.80041000  0.80371900  1
  Li  Li194  1  0.70840600  0.73465400  0.80128300  1
  Li  Li195  1  0.28508400  0.26534600  0.78390200  1
  Li  Li196  1  0.65251300  0.19959000  0.78146600  1
  Li  Li197  1  0.01998900  0.13374300  0.77902800  1
  Li  Li198  1  0.44557800  0.59868000  0.79624700  1
  Li  Li199  1  0.81300700  0.53292300  0.79381200  1
  Li  Li200  1  0.18048300  0.46707700  0.79137300  1
  Li  Li201  1  0.54791200  0.40132000  0.78893800  1
  Mg  Mg202  1  0.53378200  0.00000000  0.21851900  1
  Mg  Mg203  1  0.21279400  0.33333300  0.19382700  1
  Mg  Mg204  1  0.37328800  0.66666700  0.20617300  1
  Mg  Mg205  1  0.01526300  0.00000000  0.25555600  1
  Mg  Mg206  1  0.69427600  0.33333300  0.23086400  1
  Mg  Mg207  1  0.85477000  0.66666700  0.24321000  1
  Mg  Mg208  1  0.49674500  0.00000000  0.29259300  1
  Mg  Mg209  1  0.17575700  0.33333300  0.26790100  1
  Mg  Mg210  1  0.33625100  0.66666700  0.28024700  1
  Mg  Mg211  1  0.97822600  0.00000000  0.32963000  1
  Mg  Mg212  1  0.65723900  0.33333300  0.30493800  1
  Mg  Mg213  1  0.81773300  0.66666700  0.31728400  1
  Mg  Mg214  1  0.45970800  0.00000000  0.36666700  1
  Mg  Mg215  1  0.13872000  0.33333300  0.34197500  1
  Mg  Mg216  1  0.29921400  0.66666700  0.35432100  1
  Mg  Mg217  1  0.94118900  0.00000000  0.40370400  1
  Mg  Mg218  1  0.62020200  0.33333300  0.37901200  1
  Mg  Mg219  1  0.78069600  0.66666700  0.39135800  1
  Mg  Mg220  1  0.42267100  0.00000000  0.44074100  1
  Mg  Mg221  1  0.10168300  0.33333300  0.41604900  1
  Mg  Mg222  1  0.26217700  0.66666700  0.42839500  1
  Mg  Mg223  1  0.90415200  0.00000000  0.47777800  1
  Mg  Mg224  1  0.58316500  0.33333300  0.45308600  1
  Mg  Mg225  1  0.74365900  0.66666700  0.46543200  1
  Mg  Mg226  1  0.38563400  0.00000000  0.51481500  1
  Mg  Mg227  1  0.06464600  0.33333300  0.49012300  1
  Mg  Mg228  1  0.22514000  0.66666700  0.50246900  1
  Mg  Mg229  1  0.86711500  0.00000000  0.55185200  1
  Mg  Mg230  1  0.54612800  0.33333300  0.52716000  1
  Mg  Mg231  1  0.70662100  0.66666700  0.53950600  1
  Mg  Mg232  1  0.34859700  0.00000000  0.58888900  1
  Mg  Mg233  1  0.02760900  0.33333300  0.56419800  1
  Mg  Mg234  1  0.18810300  0.66666700  0.57654300  1
  Mg  Mg235  1  0.83007800  0.00000000  0.62592600  1
  Mg  Mg236  1  0.50909100  0.33333300  0.60123500  1
  Mg  Mg237  1  0.66958400  0.66666700  0.61358000  1
  Mg  Mg238  1  0.31156000  0.00000000  0.66296300  1
  Mg  Mg239  1  0.99057200  0.33333300  0.63827200  1
  Mg  Mg240  1  0.15106600  0.66666700  0.65061700  1
  Mg  Mg241  1  0.79304100  0.00000000  0.70000000  1
  Mg  Mg242  1  0.47205400  0.33333300  0.67530900  1
  Mg  Mg243  1  0.63254700  0.66666700  0.68765400  1
  Mg  Mg244  1  0.27452300  0.00000000  0.73703700  1
  Mg  Mg245  1  0.95353500  0.33333300  0.71234600  1
  Mg  Mg246  1  0.11402900  0.66666700  0.72469100  1
  Mg  Mg247  1  0.75600400  0.00000000  0.77407400  1
  Mg  Mg248  1  0.43501700  0.33333300  0.74938300  1
  Mg  Mg249  1  0.59551000  0.66666700  0.76172800  1
  Mg  Mg250  1  0.91649800  0.33333300  0.78642000  1
  Mg  Mg251  1  0.07699200  0.66666700  0.79876500  1
