# generated using pymatgen
data_Mg19Pb7
_symmetry_space_group_name_H-M   'P 1'
_cell_length_a   6.53025067
_cell_length_b   8.37231008
_cell_length_c   42.40860600
_cell_angle_alpha   90.94701037
_cell_angle_beta   94.41568601
_cell_angle_gamma   67.04605902
_symmetry_Int_Tables_number   1
_chemical_formula_structural   Mg19Pb7
_chemical_formula_sum   'Mg38 Pb14'
_cell_volume   2128.45900269
_cell_formula_units_Z   2
loop_
 _symmetry_equiv_pos_site_id
 _symmetry_equiv_pos_as_xyz
  1  'x, y, z'
loop_
 _atom_site_type_symbol
 _atom_site_label
 _atom_site_symmetry_multiplicity
 _atom_site_fract_x
 _atom_site_fract_y
 _atom_site_fract_z
 _atom_site_occupancy
  Mg  Mg0  1  0.01232100  0.05058600  0.25686800  1
  Mg  Mg1  1  0.71424400  0.63300200  0.24313200  1
  Mg  Mg2  1  0.83050200  0.50513100  0.34777700  1
  Mg  Mg3  1  0.43096600  0.77148900  0.30338400  1
  Mg  Mg4  1  0.91928800  0.77148900  0.30338400  1
  Mg  Mg5  1  0.62545800  0.36664400  0.28752500  1
  Mg  Mg6  1  0.11378100  0.36664400  0.28752500  1
  Mg  Mg7  1  0.53242600  0.08754700  0.33404100  1
  Mg  Mg8  1  0.64868400  0.95967600  0.43868600  1
  Mg  Mg9  1  0.24914800  0.22603400  0.39429300  1
  Mg  Mg10  1  0.73747000  0.22603400  0.39429300  1
  Mg  Mg11  1  0.44364000  0.82119000  0.37843400  1
  Mg  Mg12  1  0.93196300  0.82119000  0.37843400  1
  Mg  Mg13  1  0.35060800  0.54209300  0.42495000  1
  Mg  Mg14  1  0.46686600  0.41422200  0.52959500  1
  Mg  Mg15  1  0.06732900  0.68058000  0.48520200  1
  Mg  Mg16  1  0.55565200  0.68058000  0.48520200  1
  Mg  Mg17  1  0.26182200  0.27573500  0.46934300  1
  Mg  Mg18  1  0.75014500  0.27573500  0.46934300  1
  Mg  Mg19  1  0.16879000  0.99663800  0.51585900  1
  Mg  Mg20  1  0.28504800  0.86876700  0.62050400  1
  Mg  Mg21  1  0.88551100  0.13512500  0.57611100  1
  Mg  Mg22  1  0.37383400  0.13512500  0.57611100  1
  Mg  Mg23  1  0.08000400  0.73028100  0.56025200  1
  Mg  Mg24  1  0.56832600  0.73028100  0.56025200  1
  Mg  Mg25  1  0.98697200  0.45118400  0.60676800  1
  Mg  Mg26  1  0.10323000  0.32331300  0.71141300  1
  Mg  Mg27  1  0.70369300  0.58967100  0.66702100  1
  Mg  Mg28  1  0.19201600  0.58967100  0.66702100  1
  Mg  Mg29  1  0.89818600  0.18482600  0.65116100  1
  Mg  Mg30  1  0.38650800  0.18482600  0.65116100  1
  Mg  Mg31  1  0.80515300  0.90572900  0.69767700  1
  Mg  Mg32  1  0.92141200  0.77785800  0.80232300  1
  Mg  Mg33  1  0.52187500  0.04421600  0.75793000  1
  Mg  Mg34  1  0.01019700  0.04421600  0.75793000  1
  Mg  Mg35  1  0.71636800  0.63937100  0.74207000  1
  Mg  Mg36  1  0.20469000  0.63937100  0.74207000  1
  Mg  Mg37  1  0.62333500  0.36027500  0.78858700  1
  Pb  Pb38  1  0.51479800  0.04633900  0.25757600  1
  Pb  Pb39  1  0.21176700  0.63724800  0.24242400  1
  Pb  Pb40  1  0.33297900  0.50088500  0.34848500  1
  Pb  Pb41  1  0.02994900  0.09179400  0.33333300  1
  Pb  Pb42  1  0.15116100  0.95543000  0.43939400  1
  Pb  Pb43  1  0.84813100  0.54633900  0.42424200  1
  Pb  Pb44  1  0.96934300  0.40997600  0.53030300  1
  Pb  Pb45  1  0.66631300  0.00088500  0.51515200  1
  Pb  Pb46  1  0.78752500  0.86452100  0.62121200  1
  Pb  Pb47  1  0.48449500  0.45543000  0.60606100  1
  Pb  Pb48  1  0.60570700  0.31906600  0.71212100  1
  Pb  Pb49  1  0.30267600  0.90997600  0.69697000  1
  Pb  Pb50  1  0.42388900  0.77361200  0.80303000  1
  Pb  Pb51  1  0.12085800  0.36452100  0.78787900  1
