# generated using pymatgen
data_Mg42As29
_symmetry_space_group_name_H-M   'P 1'
_cell_length_a   17.64245218
_cell_length_b   17.64245173
_cell_length_c   51.43614400
_cell_angle_alpha   90.00000000
_cell_angle_beta   80.12503724
_cell_angle_gamma   60.00000132
_symmetry_Int_Tables_number   1
_chemical_formula_structural   Mg42As29
_chemical_formula_sum   'Mg168 As116'
_cell_volume   13590.32609305
_cell_formula_units_Z   4
loop_
 _symmetry_equiv_pos_site_id
 _symmetry_equiv_pos_as_xyz
  1  'x, y, z'
loop_
 _atom_site_type_symbol
 _atom_site_label
 _atom_site_symmetry_multiplicity
 _atom_site_fract_x
 _atom_site_fract_y
 _atom_site_fract_z
 _atom_site_occupancy
  Mg  Mg0  1  0.60555600  0.21808500  0.30068700  1
  Mg  Mg1  1  0.61332900  0.43351900  0.29809600  1
  Mg  Mg2  1  0.87839500  0.69913300  0.29809600  1
  Mg  Mg3  1  0.85332600  0.19632800  0.29622600  1
  Mg  Mg4  1  0.35770800  0.44386300  0.30499100  1
  Mg  Mg5  1  0.09901200  0.69395100  0.30068700  1
  Mg  Mg6  1  0.87746000  0.93725900  0.29622600  1
  Mg  Mg7  1  0.26105600  0.85965600  0.33502700  1
  Mg  Mg8  1  0.25328200  0.64422200  0.33761800  1
  Mg  Mg9  1  0.98821700  0.37860800  0.33761800  1
  Mg  Mg10  1  0.98915200  0.14048200  0.33948800  1
  Mg  Mg11  1  0.76760000  0.38379000  0.33502700  1
  Mg  Mg12  1  0.50890300  0.63387800  0.33072300  1
  Mg  Mg13  1  0.01328600  0.88141300  0.33948800  1
  Mg  Mg14  1  0.35116400  0.20947600  0.30499100  1
  Mg  Mg15  1  0.12969000  0.18740600  0.30068700  1
  Mg  Mg16  1  0.11239500  0.96139300  0.29622600  1
  Mg  Mg17  1  0.34771600  0.96419800  0.29809600  1
  Mg  Mg18  1  0.11677700  0.45040700  0.30499100  1
  Mg  Mg19  1  0.51544800  0.86826500  0.33072300  1
  Mg  Mg20  1  0.74983400  0.62733400  0.33072300  1
  Mg  Mg21  1  0.51889600  0.11354300  0.33761800  1
  Mg  Mg22  1  0.75421700  0.11634800  0.33948800  1
  Mg  Mg23  1  0.73692200  0.89033500  0.33502700  1
  Mg  Mg24  1  0.17698500  0.93237000  0.44354400  1
  Mg  Mg25  1  0.18475800  0.14780500  0.44095300  1
  Mg  Mg26  1  0.63687800  0.56661900  0.37642000  1
  Mg  Mg27  1  0.44982300  0.41341900  0.44095300  1
  Mg  Mg28  1  0.41540400  0.54454900  0.37211600  1
  Mg  Mg29  1  0.42475400  0.91061400  0.43908300  1
  Mg  Mg30  1  0.39810900  0.31853600  0.36765500  1
  Mg  Mg31  1  0.63343000  0.32134100  0.36952400  1
  Mg  Mg32  1  0.92913700  0.15814800  0.44784800  1
  Mg  Mg33  1  0.40249100  0.80755000  0.37642000  1
  Mg  Mg34  1  0.67044000  0.40823600  0.44354400  1
  Mg  Mg35  1  0.44888800  0.65154500  0.43908300  1
  Mg  Mg36  1  0.83248400  0.57394200  0.47788400  1
  Mg  Mg37  1  0.82471100  0.35850700  0.48047600  1
  Mg  Mg38  1  0.80116200  0.22540800  0.40215200  1
  Mg  Mg39  1  0.55964600  0.09289400  0.48047600  1
  Mg  Mg40  1  0.56058100  0.85476800  0.48234500  1
  Mg  Mg41  1  0.33902900  0.09807600  0.47788400  1
  Mg  Mg42  1  0.03554900  0.98447700  0.40215200  1
  Mg  Mg43  1  0.08033200  0.34816400  0.47358000  1
  Mg  Mg44  1  0.80461000  0.47068600  0.40904700  1
  Mg  Mg45  1  0.03993100  0.47349100  0.41091700  1
  Mg  Mg46  1  0.58471500  0.59569900  0.48234500  1
  Mg  Mg47  1  0.02263600  0.24747800  0.40645600  1
  Mg  Mg48  1  0.89127000  0.57522700  0.37211600  1
  Mg  Mg49  1  0.89904400  0.79066200  0.36952400  1
  Mg  Mg50  1  0.92259200  0.92376200  0.44784800  1
  Mg  Mg51  1  0.16410900  0.05627600  0.36952400  1
  Mg  Mg52  1  0.70111900  0.90169200  0.44354400  1
  Mg  Mg53  1  0.13904000  0.55347100  0.36765500  1
  Mg  Mg54  1  0.68382300  0.67567900  0.43908300  1
  Mg  Mg55  1  0.91914500  0.67848400  0.44095300  1
  Mg  Mg56  1  0.64342300  0.80100500  0.37642000  1
  Mg  Mg57  1  0.68820600  0.16469300  0.44784800  1
  Mg  Mg58  1  0.38472600  0.05109400  0.37211600  1
  Mg  Mg59  1  0.16317400  0.29440200  0.36765500  1
  Mg  Mg60  1  0.54677000  0.21679900  0.40645600  1
  Mg  Mg61  1  0.53899600  0.00136400  0.40904700  1
  Mg  Mg62  1  0.08687600  0.58255100  0.47358000  1
  Mg  Mg63  1  0.27393100  0.73575100  0.40904700  1
  Mg  Mg64  1  0.27486600  0.49762500  0.41091700  1
  Mg  Mg65  1  0.05331400  0.74093300  0.40645600  1
  Mg  Mg66  1  0.32126300  0.34162000  0.47358000  1
  Mg  Mg67  1  0.79461800  0.99102100  0.40215200  1
  Mg  Mg68  1  0.09032400  0.82782900  0.48047600  1
  Mg  Mg69  1  0.32564600  0.83063400  0.48234500  1
  Mg  Mg70  1  0.29900000  0.23855600  0.41091700  1
  Mg  Mg71  1  0.30835000  0.60462100  0.47788400  1
  Mg  Mg72  1  0.74841300  0.64665600  0.58640100  1
  Mg  Mg73  1  0.75618700  0.86209100  0.58381000  1
  Mg  Mg74  1  0.20830700  0.28090500  0.51927700  1
  Mg  Mg75  1  0.02125200  0.12770400  0.58381000  1
  Mg  Mg76  1  0.98683300  0.25883500  0.51497300  1
  Mg  Mg77  1  0.99618300  0.62490000  0.58194000  1
  Mg  Mg78  1  0.96953700  0.03282200  0.51051200  1
  Mg  Mg79  1  0.20485900  0.03562700  0.51238200  1
  Mg  Mg80  1  0.50056500  0.87243400  0.59070600  1
  Mg  Mg81  1  0.97392000  0.52183600  0.51927700  1
  Mg  Mg82  1  0.24186900  0.12252200  0.58640100  1
  Mg  Mg83  1  0.02031700  0.36583100  0.58194000  1
  Mg  Mg84  1  0.40391300  0.28822800  0.62074200  1
  Mg  Mg85  1  0.39613900  0.07279300  0.62333300  1
  Mg  Mg86  1  0.37259100  0.93969400  0.54500900  1
  Mg  Mg87  1  0.13107400  0.80718000  0.62333300  1
  Mg  Mg88  1  0.13200900  0.56905300  0.62520300  1
  Mg  Mg89  1  0.91045700  0.81236200  0.62074200  1
  Mg  Mg90  1  0.60697700  0.69876300  0.54500900  1
  Mg  Mg91  1  0.65176100  0.06245000  0.61643700  1
  Mg  Mg92  1  0.37603800  0.18497200  0.55190400  1
  Mg  Mg93  1  0.61136000  0.18777600  0.55377400  1
  Mg  Mg94  1  0.15614300  0.30998400  0.62520300  1
  Mg  Mg95  1  0.59406400  0.96176400  0.54931300  1
  Mg  Mg96  1  0.46269900  0.28951300  0.51497300  1
  Mg  Mg97  1  0.47047200  0.50494800  0.51238200  1
  Mg  Mg98  1  0.49402100  0.63804700  0.59070600  1
  Mg  Mg99  1  0.73553700  0.77056100  0.51238200  1
  Mg  Mg100  1  0.27254700  0.61597800  0.58640100  1
  Mg  Mg101  1  0.71046800  0.26775700  0.51051200  1
  Mg  Mg102  1  0.25525200  0.38996500  0.58194000  1
  Mg  Mg103  1  0.49057300  0.39276900  0.58381000  1
  Mg  Mg104  1  0.21485100  0.51529100  0.51927700  1
  Mg  Mg105  1  0.25963400  0.87897900  0.59070600  1
  Mg  Mg106  1  0.95615400  0.76537900  0.51497300  1
  Mg  Mg107  1  0.73460200  0.00868800  0.51051200  1
  Mg  Mg108  1  0.11819800  0.93108500  0.54931300  1
  Mg  Mg109  1  0.11042500  0.71565000  0.55190400  1
  Mg  Mg110  1  0.65830500  0.29683600  0.61643700  1
  Mg  Mg111  1  0.84536000  0.45003700  0.55190400  1
  Mg  Mg112  1  0.84629500  0.21191000  0.55377400  1
  Mg  Mg113  1  0.62474300  0.45521900  0.54931300  1
  Mg  Mg114  1  0.89269200  0.05590500  0.61643700  1
  Mg  Mg115  1  0.36604600  0.70530700  0.54500900  1
  Mg  Mg116  1  0.66175300  0.54211500  0.62333300  1
  Mg  Mg117  1  0.89707400  0.54491900  0.62520300  1
  Mg  Mg118  1  0.87042900  0.95284200  0.55377400  1
  Mg  Mg119  1  0.87977900  0.31890600  0.62074200  1
  Mg  Mg120  1  0.31984200  0.36094200  0.72925800  1
  Mg  Mg121  1  0.32761500  0.57637700  0.72666700  1
  Mg  Mg122  1  0.77973500  0.99519000  0.66213400  1
  Mg  Mg123  1  0.59268000  0.84199000  0.72666700  1
  Mg  Mg124  1  0.55826200  0.97312000  0.65783000  1
  Mg  Mg125  1  0.56761100  0.33918500  0.72479700  1
  Mg  Mg126  1  0.54096600  0.74710700  0.65336900  1
  Mg  Mg127  1  0.77628700  0.74991200  0.65523900  1
  Mg  Mg128  1  0.07199400  0.58672000  0.73356300  1
  Mg  Mg129  1  0.54534900  0.23612100  0.66213400  1
  Mg  Mg130  1  0.81329700  0.83680800  0.72925800  1
  Mg  Mg131  1  0.59174500  0.08011600  0.72479700  1
  Mg  Mg132  1  0.97534100  0.00251400  0.76359900  1
  Mg  Mg133  1  0.96756800  0.78707900  0.76619000  1
  Mg  Mg134  1  0.94401900  0.65397900  0.68786600  1
  Mg  Mg135  1  0.70250300  0.52146500  0.76619000  1
  Mg  Mg136  1  0.70343800  0.28333900  0.76806000  1
  Mg  Mg137  1  0.48188600  0.52664800  0.76359900  1
  Mg  Mg138  1  0.17840600  0.41304800  0.68786600  1
  Mg  Mg139  1  0.22318900  0.77673600  0.75929400  1
  Mg  Mg140  1  0.94746700  0.89925700  0.69476100  1
  Mg  Mg141  1  0.18278800  0.90206200  0.69663100  1
  Mg  Mg142  1  0.72757200  0.02427000  0.76806000  1
  Mg  Mg143  1  0.16549300  0.67604900  0.69217000  1
  Mg  Mg144  1  0.03412800  0.00379900  0.65783000  1
  Mg  Mg145  1  0.04190100  0.21923400  0.65523900  1
  Mg  Mg146  1  0.06544900  0.35233300  0.73356300  1
  Mg  Mg147  1  0.30696600  0.48484700  0.65523900  1
  Mg  Mg148  1  0.84397600  0.33026300  0.72925800  1
  Mg  Mg149  1  0.28189700  0.98204200  0.65336900  1
  Mg  Mg150  1  0.82668000  0.10425000  0.72479700  1
  Mg  Mg151  1  0.06200200  0.10705500  0.72666700  1
  Mg  Mg152  1  0.78628000  0.22957700  0.66213400  1
  Mg  Mg153  1  0.83106300  0.59326400  0.73356300  1
  Mg  Mg154  1  0.52758300  0.47966500  0.65783000  1
  Mg  Mg155  1  0.30603100  0.72297300  0.65336900  1
  Mg  Mg156  1  0.68962700  0.64537100  0.69217000  1
  Mg  Mg157  1  0.68185400  0.42993600  0.69476100  1
  Mg  Mg158  1  0.22973400  0.01112200  0.75929400  1
  Mg  Mg159  1  0.41678900  0.16432200  0.69476100  1
  Mg  Mg160  1  0.41772300  0.92619600  0.69663100  1
  Mg  Mg161  1  0.19617100  0.16950500  0.69217000  1
  Mg  Mg162  1  0.46412000  0.77019100  0.75929400  1
  Mg  Mg163  1  0.93747500  0.41959300  0.68786600  1
  Mg  Mg164  1  0.23318100  0.25640000  0.76619000  1
  Mg  Mg165  1  0.46850300  0.25920500  0.76806000  1
  Mg  Mg166  1  0.44185700  0.66712700  0.69663100  1
  Mg  Mg167  1  0.45120700  0.03319200  0.76359900  1
  As  As168  1  0.81353800  0.22375400  0.35041500  1
  As  As169  1  0.83563200  0.95166100  0.35041500  1
  As  As170  1  0.05307400  0.35398700  0.28529900  1
  As  As171  1  0.28098000  0.60398700  0.28529900  1
  As  As172  1  0.05307400  0.85398700  0.28529900  1
  As  As173  1  0.03098000  0.12608000  0.28529900  1
  As  As174  1  0.81353800  0.72375400  0.35041500  1
  As  As175  1  0.58563200  0.47375400  0.35041500  1
  As  As176  1  0.29044900  0.86029900  0.28214300  1
  As  As177  1  0.57616300  0.71744200  0.35357100  1
  As  As178  1  0.79044900  0.36029900  0.28214300  1
  As  As179  1  0.79044900  0.86029900  0.28214300  1
  As  As180  1  0.08563200  0.97375400  0.35041500  1
  As  As181  1  0.53098000  0.12608000  0.28529900  1
  As  As182  1  0.78098000  0.10398700  0.28529900  1
  As  As183  1  0.33563200  0.95166100  0.35041500  1
  As  As184  1  0.57616300  0.21744200  0.35357100  1
  As  As185  1  0.29044900  0.36029900  0.28214300  1
  As  As186  1  0.07616300  0.71744200  0.35357100  1
  As  As187  1  0.07616300  0.21744200  0.35357100  1
  As  As188  1  0.37134600  0.33089700  0.42184400  1
  As  As189  1  0.81669400  0.48322300  0.35672800  1
  As  As190  1  0.38496700  0.93804000  0.49327200  1
  As  As191  1  0.40706000  0.66594600  0.49327200  1
  As  As192  1  0.62450200  0.06827200  0.42815600  1
  As  As193  1  0.85240800  0.31827200  0.42815600  1
  As  As194  1  0.06669400  0.46112900  0.35672800  1
  As  As195  1  0.62134600  0.30880400  0.42184400  1
  As  As196  1  0.62450200  0.56827200  0.42815600  1
  As  As197  1  0.60240800  0.84036600  0.42815600  1
  As  As198  1  0.38496700  0.43804000  0.49327200  1
  As  As199  1  0.15706000  0.18804000  0.49327200  1
  As  As200  1  0.86187700  0.57458500  0.42500000  1
  As  As201  1  0.14759200  0.43172800  0.49642900  1
  As  As202  1  0.36187700  0.07458500  0.42500000  1
  As  As203  1  0.36187700  0.57458500  0.42500000  1
  As  As204  1  0.65706000  0.68804000  0.49327200  1
  As  As205  1  0.10240800  0.84036600  0.42815600  1
  As  As206  1  0.09925200  0.58089700  0.42184400  1
  As  As207  1  0.12134600  0.30880400  0.42184400  1
  As  As208  1  0.33878800  0.71112900  0.35672800  1
  As  As209  1  0.56669400  0.96112900  0.35672800  1
  As  As210  1  0.35240800  0.81827200  0.42815600  1
  As  As211  1  0.90706000  0.66594600  0.49327200  1
  As  As212  1  0.33878800  0.21112900  0.35672800  1
  As  As213  1  0.31669400  0.48322300  0.35672800  1
  As  As214  1  0.09925200  0.08089700  0.42184400  1
  As  As215  1  0.87134600  0.83089700  0.42184400  1
  As  As216  1  0.14759200  0.93172800  0.49642900  1
  As  As217  1  0.86187700  0.07458500  0.42500000  1
  As  As218  1  0.64759200  0.43172800  0.49642900  1
  As  As219  1  0.64759200  0.93172800  0.49642900  1
  As  As220  1  0.94277500  0.04518300  0.56470100  1
  As  As221  1  0.38812300  0.19750900  0.49958500  1
  As  As222  1  0.95639500  0.65232600  0.63612900  1
  As  As223  1  0.97848900  0.38023200  0.63612900  1
  As  As224  1  0.19593100  0.78255800  0.57101300  1
  As  As225  1  0.42383700  0.03255800  0.57101300  1
  As  As226  1  0.63812300  0.17541500  0.49958500  1
  As  As227  1  0.19277500  0.02308900  0.56470100  1
  As  As228  1  0.19593100  0.28255800  0.57101300  1
  As  As229  1  0.17383700  0.55465200  0.57101300  1
  As  As230  1  0.95639500  0.15232600  0.63612900  1
  As  As231  1  0.72848900  0.90232600  0.63612900  1
  As  As232  1  0.43330600  0.28887100  0.56785700  1
  As  As233  1  0.71902000  0.14601300  0.63928600  1
  As  As234  1  0.93330600  0.78887100  0.56785700  1
  As  As235  1  0.93330600  0.28887100  0.56785700  1
  As  As236  1  0.22848900  0.40232600  0.63612900  1
  As  As237  1  0.67383700  0.55465200  0.57101300  1
  As  As238  1  0.67068100  0.29518300  0.56470100  1
  As  As239  1  0.69277500  0.02308900  0.56470100  1
  As  As240  1  0.91021700  0.42541500  0.49958500  1
  As  As241  1  0.13812300  0.67541500  0.49958500  1
  As  As242  1  0.92383700  0.53255800  0.57101300  1
  As  As243  1  0.47848900  0.38023200  0.63612900  1
  As  As244  1  0.91021700  0.92541500  0.49958500  1
  As  As245  1  0.88812300  0.19750900  0.49958500  1
  As  As246  1  0.67068100  0.79518300  0.56470100  1
  As  As247  1  0.44277500  0.54518300  0.56470100  1
  As  As248  1  0.71902000  0.64601300  0.63928600  1
  As  As249  1  0.43330600  0.78887100  0.56785700  1
  As  As250  1  0.21902000  0.14601300  0.63928600  1
  As  As251  1  0.21902000  0.64601300  0.63928600  1
  As  As252  1  0.51420300  0.75946900  0.70755800  1
  As  As253  1  0.95955100  0.91179500  0.64244200  1
  As  As254  1  0.52782400  0.36661200  0.77898700  1
  As  As255  1  0.54991700  0.09451800  0.77898700  1
  As  As256  1  0.76735900  0.49684400  0.71387100  1
  As  As257  1  0.99526600  0.74684400  0.71387100  1
  As  As258  1  0.20955100  0.88970100  0.64244200  1
  As  As259  1  0.76420300  0.73737500  0.70755800  1
  As  As260  1  0.76735900  0.99684400  0.71387100  1
  As  As261  1  0.74526600  0.26893800  0.71387100  1
  As  As262  1  0.52782400  0.86661200  0.77898700  1
  As  As263  1  0.29991700  0.61661200  0.77898700  1
  As  As264  1  0.00473400  0.00315600  0.71071400  1
  As  As265  1  0.29044900  0.86029900  0.78214300  1
  As  As266  1  0.50473400  0.50315600  0.71071400  1
  As  As267  1  0.50473400  0.00315600  0.71071400  1
  As  As268  1  0.79991700  0.11661200  0.77898700  1
  As  As269  1  0.24526600  0.26893800  0.71387100  1
  As  As270  1  0.24210900  0.00946900  0.70755800  1
  As  As271  1  0.26420300  0.73737500  0.70755800  1
  As  As272  1  0.48164500  0.13970100  0.64244200  1
  As  As273  1  0.70955100  0.38970100  0.64244200  1
  As  As274  1  0.49526600  0.24684400  0.71387100  1
  As  As275  1  0.04991700  0.09451800  0.77898700  1
  As  As276  1  0.48164500  0.63970100  0.64244200  1
  As  As277  1  0.45955100  0.91179500  0.64244200  1
  As  As278  1  0.24210900  0.50946900  0.70755800  1
  As  As279  1  0.01420300  0.25946900  0.70755800  1
  As  As280  1  0.29044900  0.36029900  0.78214300  1
  As  As281  1  0.00473400  0.50315600  0.71071400  1
  As  As282  1  0.79044900  0.86029900  0.78214300  1
  As  As283  1  0.79044900  0.36029900  0.78214300  1
