# generated using pymatgen
data_Mg5Pb4
_symmetry_space_group_name_H-M   'P 1'
_cell_length_a   3.47558800
_cell_length_b   5.22762700
_cell_length_c   47.06449200
_cell_angle_alpha   90.00000000
_cell_angle_beta   90.00000000
_cell_angle_gamma   90.00000000
_symmetry_Int_Tables_number   1
_chemical_formula_structural   Mg5Pb4
_chemical_formula_sum   'Mg10 Pb8'
_cell_volume   855.11841063
_cell_formula_units_Z   2
loop_
 _symmetry_equiv_pos_site_id
 _symmetry_equiv_pos_as_xyz
  1  'x, y, z'
loop_
 _atom_site_type_symbol
 _atom_site_label
 _atom_site_symmetry_multiplicity
 _atom_site_fract_x
 _atom_site_fract_y
 _atom_site_fract_z
 _atom_site_occupancy
  Mg  Mg0  1  0.50000000  0.75000000  0.30419300  1
  Mg  Mg1  1  0.50000000  0.25000000  0.25830700  1
  Mg  Mg2  1  0.50000000  0.75000000  0.42919300  1
  Mg  Mg3  1  0.50000000  0.25000000  0.38330700  1
  Mg  Mg4  1  0.50000000  0.75000000  0.55419300  1
  Mg  Mg5  1  0.50000000  0.25000000  0.50830700  1
  Mg  Mg6  1  0.50000000  0.75000000  0.67919300  1
  Mg  Mg7  1  0.50000000  0.25000000  0.63330700  1
  Mg  Mg8  1  0.50000000  0.75000000  0.80419300  1
  Mg  Mg9  1  0.50000000  0.25000000  0.75830700  1
  Pb  Pb10  1  1.00000000  0.75000000  0.36950200  1
  Pb  Pb11  1  0.00000000  0.25000000  0.31799800  1
  Pb  Pb12  1  1.00000000  0.75000000  0.49450200  1
  Pb  Pb13  1  0.00000000  0.25000000  0.44299800  1
  Pb  Pb14  1  1.00000000  0.75000000  0.61950200  1
  Pb  Pb15  1  0.00000000  0.25000000  0.56799800  1
  Pb  Pb16  1  1.00000000  0.75000000  0.74450200  1
  Pb  Pb17  1  0.00000000  0.25000000  0.69299800  1
