# generated using pymatgen
data_MgHg3
_symmetry_space_group_name_H-M   'P 1'
_cell_length_a   4.95207504
_cell_length_b   10.62223185
_cell_length_c   43.00163600
_cell_angle_alpha   89.37829739
_cell_angle_beta   93.30092273
_cell_angle_gamma   76.52037499
_symmetry_Int_Tables_number   1
_chemical_formula_structural   MgHg3
_chemical_formula_sum   'Mg14 Hg42'
_cell_volume   2195.32902800
_cell_formula_units_Z   14
loop_
 _symmetry_equiv_pos_site_id
 _symmetry_equiv_pos_as_xyz
  1  'x, y, z'
loop_
 _atom_site_type_symbol
 _atom_site_label
 _atom_site_symmetry_multiplicity
 _atom_site_fract_x
 _atom_site_fract_y
 _atom_site_fract_z
 _atom_site_occupancy
  Mg  Mg0  1  0.18181800  0.67424200  0.21969700  1
  Mg  Mg1  1  0.45454500  0.14393900  0.23484800  1
  Mg  Mg2  1  0.81818200  0.49242400  0.31060600  1
  Mg  Mg3  1  0.09090900  0.96212100  0.32575800  1
  Mg  Mg4  1  0.45454500  0.31060600  0.40151500  1
  Mg  Mg5  1  0.72727300  0.78030300  0.41666700  1
  Mg  Mg6  1  0.09090900  0.12878800  0.49242400  1
  Mg  Mg7  1  0.36363600  0.59848500  0.50757600  1
  Mg  Mg8  1  0.72727300  0.94697000  0.58333300  1
  Mg  Mg9  1  0.00000000  0.41666700  0.59848500  1
  Mg  Mg10  1  0.36363600  0.76515200  0.67424200  1
  Mg  Mg11  1  0.63636400  0.23484800  0.68939400  1
  Mg  Mg12  1  0.00000000  0.58333300  0.76515200  1
  Mg  Mg13  1  0.27272700  0.05303000  0.78030300  1
  Hg  Hg14  1  0.06429600  0.93866700  0.24907700  1
  Hg  Hg15  1  0.57206700  0.87951500  0.20546800  1
  Hg  Hg16  1  0.33702400  0.40836400  0.26422900  1
  Hg  Hg17  1  0.29934000  0.40981800  0.19031700  1
  Hg  Hg18  1  0.72727300  0.61363600  0.25000000  1
  Hg  Hg19  1  0.90909100  0.20454500  0.20454500  1
  Hg  Hg20  1  0.70066000  0.75684800  0.33998700  1
  Hg  Hg21  1  0.20843100  0.69769700  0.29637700  1
  Hg  Hg22  1  0.97338700  0.22654500  0.35513800  1
  Hg  Hg23  1  0.93570400  0.22800000  0.28122600  1
  Hg  Hg24  1  0.36363600  0.43181800  0.34090900  1
  Hg  Hg25  1  0.54545500  0.02272700  0.29545500  1
  Hg  Hg26  1  0.33702400  0.57503000  0.43089600  1
  Hg  Hg27  1  0.84479500  0.51587900  0.38728600  1
  Hg  Hg28  1  0.60975100  0.04472700  0.44604700  1
  Hg  Hg29  1  0.57206700  0.04618200  0.37213500  1
  Hg  Hg30  1  0.00000000  0.25000000  0.43181800  1
  Hg  Hg31  1  0.18181800  0.84090900  0.38636400  1
  Hg  Hg32  1  0.97338700  0.39321200  0.52180500  1
  Hg  Hg33  1  0.48115800  0.33406100  0.47819500  1
  Hg  Hg34  1  0.24611500  0.86290900  0.53695600  1
  Hg  Hg35  1  0.20843100  0.86436400  0.46304400  1
  Hg  Hg36  1  0.63636400  0.06818200  0.52272700  1
  Hg  Hg37  1  0.81818200  0.65909100  0.47727300  1
  Hg  Hg38  1  0.60975100  0.21139400  0.61271400  1
  Hg  Hg39  1  0.11752200  0.15224300  0.56910400  1
  Hg  Hg40  1  0.88247800  0.68109100  0.62786500  1
  Hg  Hg41  1  0.84479500  0.68254600  0.55395300  1
  Hg  Hg42  1  0.27272700  0.88636400  0.61363600  1
  Hg  Hg43  1  0.45454500  0.47727300  0.56818200  1
  Hg  Hg44  1  0.24611500  0.02957600  0.70362300  1
  Hg  Hg45  1  0.75388500  0.97042400  0.66001300  1
  Hg  Hg46  1  0.51884200  0.49927300  0.71877400  1
  Hg  Hg47  1  0.48115800  0.50072700  0.64486200  1
  Hg  Hg48  1  0.90909100  0.70454500  0.70454500  1
  Hg  Hg49  1  0.09090900  0.29545500  0.65909100  1
  Hg  Hg50  1  0.88247800  0.84775700  0.79453200  1
  Hg  Hg51  1  0.39024900  0.78860600  0.75092300  1
  Hg  Hg52  1  0.15520500  0.31745400  0.80968300  1
  Hg  Hg53  1  0.11752200  0.31890900  0.73577100  1
  Hg  Hg54  1  0.54545500  0.52272700  0.79545500  1
  Hg  Hg55  1  0.72727300  0.11363600  0.75000000  1
