# generated using pymatgen
data_Mg7Ga18
_symmetry_space_group_name_H-M   'P 1'
_cell_length_a   8.80393500
_cell_length_b   8.80393500
_cell_length_c   49.23312600
_cell_angle_alpha   90.00000000
_cell_angle_beta   90.00000000
_cell_angle_gamma   90.00000000
_symmetry_Int_Tables_number   1
_chemical_formula_structural   Mg7Ga18
_chemical_formula_sum   'Mg28 Ga72'
_cell_volume   3816.02372915
_cell_formula_units_Z   4
loop_
 _symmetry_equiv_pos_site_id
 _symmetry_equiv_pos_as_xyz
  1  'x, y, z'
loop_
 _atom_site_type_symbol
 _atom_site_label
 _atom_site_symmetry_multiplicity
 _atom_site_fract_x
 _atom_site_fract_y
 _atom_site_fract_z
 _atom_site_occupancy
  Mg  Mg0  1  0.20097600  0.20097600  0.25510200  1
  Mg  Mg1  1  0.70097600  0.29902400  0.32653100  1
  Mg  Mg2  1  0.79902400  0.20097600  0.25510200  1
  Mg  Mg3  1  0.29902400  0.29902400  0.32653100  1
  Mg  Mg4  1  0.70097600  0.70097600  0.32653100  1
  Mg  Mg5  1  0.20097600  0.79902400  0.25510200  1
  Mg  Mg6  1  0.29902400  0.70097600  0.32653100  1
  Mg  Mg7  1  0.79902400  0.79902400  0.25510200  1
  Mg  Mg8  1  0.20097600  0.20097600  0.39795900  1
  Mg  Mg9  1  0.70097600  0.29902400  0.46938800  1
  Mg  Mg10  1  0.79902400  0.20097600  0.39795900  1
  Mg  Mg11  1  0.29902400  0.29902400  0.46938800  1
  Mg  Mg12  1  0.70097600  0.70097600  0.46938800  1
  Mg  Mg13  1  0.20097600  0.79902400  0.39795900  1
  Mg  Mg14  1  0.29902400  0.70097600  0.46938800  1
  Mg  Mg15  1  0.79902400  0.79902400  0.39795900  1
  Mg  Mg16  1  0.20097600  0.20097600  0.54081600  1
  Mg  Mg17  1  0.70097600  0.29902400  0.61224500  1
  Mg  Mg18  1  0.79902400  0.20097600  0.54081600  1
  Mg  Mg19  1  0.29902400  0.29902400  0.61224500  1
  Mg  Mg20  1  0.70097600  0.70097600  0.61224500  1
  Mg  Mg21  1  0.20097600  0.79902400  0.54081600  1
  Mg  Mg22  1  0.29902400  0.70097600  0.61224500  1
  Mg  Mg23  1  0.79902400  0.79902400  0.54081600  1
  Mg  Mg24  1  0.20097600  0.20097600  0.68367300  1
  Mg  Mg25  1  0.79902400  0.20097600  0.68367300  1
  Mg  Mg26  1  0.20097600  0.79902400  0.68367300  1
  Mg  Mg27  1  0.79902400  0.79902400  0.68367300  1
  Ga  Ga28  1  1.00000000  0.70404000  0.30019100  1
  Ga  Ga29  1  0.79596000  0.50000000  0.22876300  1
  Ga  Ga30  1  0.20404000  0.50000000  0.22876300  1
  Ga  Ga31  1  1.00000000  0.29596000  0.30019100  1
  Ga  Ga32  1  0.00000000  0.00000000  0.22530200  1
  Ga  Ga33  1  0.00000000  0.00000000  0.28490200  1
  Ga  Ga34  1  0.20404000  0.50000000  0.28144100  1
  Ga  Ga35  1  1.00000000  0.29596000  0.35287000  1
  Ga  Ga36  1  1.00000000  0.70404000  0.35287000  1
  Ga  Ga37  1  0.79596000  0.50000000  0.28144100  1
  Ga  Ga38  1  0.50000000  0.20404000  0.22876300  1
  Ga  Ga39  1  0.29596000  0.00000000  0.30019100  1
  Ga  Ga40  1  0.70404000  0.00000000  0.30019100  1
  Ga  Ga41  1  0.50000000  0.79596000  0.22876300  1
  Ga  Ga42  1  0.50000000  0.50000000  0.29673100  1
  Ga  Ga43  1  0.50000000  0.50000000  0.21347300  1
  Ga  Ga44  1  0.70404000  0.00000000  0.35287000  1
  Ga  Ga45  1  0.50000000  0.79596000  0.28144100  1
  Ga  Ga46  1  0.50000000  0.20404000  0.28144100  1
  Ga  Ga47  1  0.29596000  0.00000000  0.35287000  1
  Ga  Ga48  1  1.00000000  0.70404000  0.44304900  1
  Ga  Ga49  1  0.79596000  0.50000000  0.37162000  1
  Ga  Ga50  1  0.20404000  0.50000000  0.37162000  1
  Ga  Ga51  1  1.00000000  0.29596000  0.44304900  1
  Ga  Ga52  1  0.00000000  0.00000000  0.36815900  1
  Ga  Ga53  1  0.00000000  0.00000000  0.42775900  1
  Ga  Ga54  1  0.20404000  0.50000000  0.42429800  1
  Ga  Ga55  1  1.00000000  0.29596000  0.49572700  1
  Ga  Ga56  1  1.00000000  0.70404000  0.49572700  1
  Ga  Ga57  1  0.79596000  0.50000000  0.42429800  1
  Ga  Ga58  1  0.50000000  0.20404000  0.37162000  1
  Ga  Ga59  1  0.29596000  0.00000000  0.44304900  1
  Ga  Ga60  1  0.70404000  0.00000000  0.44304900  1
  Ga  Ga61  1  0.50000000  0.79596000  0.37162000  1
  Ga  Ga62  1  0.50000000  0.50000000  0.43958800  1
  Ga  Ga63  1  0.50000000  0.50000000  0.35633100  1
  Ga  Ga64  1  0.70404000  0.00000000  0.49572700  1
  Ga  Ga65  1  0.50000000  0.79596000  0.42429800  1
  Ga  Ga66  1  0.50000000  0.20404000  0.42429800  1
  Ga  Ga67  1  0.29596000  0.00000000  0.49572700  1
  Ga  Ga68  1  1.00000000  0.70404000  0.58590600  1
  Ga  Ga69  1  0.79596000  0.50000000  0.51447700  1
  Ga  Ga70  1  0.20404000  0.50000000  0.51447700  1
  Ga  Ga71  1  1.00000000  0.29596000  0.58590600  1
  Ga  Ga72  1  0.00000000  0.00000000  0.51101600  1
  Ga  Ga73  1  0.00000000  0.00000000  0.57061600  1
  Ga  Ga74  1  0.20404000  0.50000000  0.56715600  1
  Ga  Ga75  1  1.00000000  0.29596000  0.63858400  1
  Ga  Ga76  1  1.00000000  0.70404000  0.63858400  1
  Ga  Ga77  1  0.79596000  0.50000000  0.56715600  1
  Ga  Ga78  1  0.50000000  0.20404000  0.51447700  1
  Ga  Ga79  1  0.29596000  0.00000000  0.58590600  1
  Ga  Ga80  1  0.70404000  0.00000000  0.58590600  1
  Ga  Ga81  1  0.50000000  0.79596000  0.51447700  1
  Ga  Ga82  1  0.50000000  0.50000000  0.58244500  1
  Ga  Ga83  1  0.50000000  0.50000000  0.49918800  1
  Ga  Ga84  1  0.70404000  0.00000000  0.63858400  1
  Ga  Ga85  1  0.50000000  0.79596000  0.56715600  1
  Ga  Ga86  1  0.50000000  0.20404000  0.56715600  1
  Ga  Ga87  1  0.29596000  0.00000000  0.63858400  1
  Ga  Ga88  1  0.79596000  0.50000000  0.65733400  1
  Ga  Ga89  1  0.20404000  0.50000000  0.65733400  1
  Ga  Ga90  1  0.00000000  0.00000000  0.65387400  1
  Ga  Ga91  1  0.00000000  0.00000000  0.71347300  1
  Ga  Ga92  1  0.20404000  0.50000000  0.71001300  1
  Ga  Ga93  1  0.79596000  0.50000000  0.71001300  1
  Ga  Ga94  1  0.50000000  0.20404000  0.65733400  1
  Ga  Ga95  1  0.50000000  0.79596000  0.65733400  1
  Ga  Ga96  1  0.50000000  0.50000000  0.72530200  1
  Ga  Ga97  1  0.50000000  0.50000000  0.64204500  1
  Ga  Ga98  1  0.50000000  0.79596000  0.71001300  1
  Ga  Ga99  1  0.50000000  0.20404000  0.71001300  1
