# generated using pymatgen
data_Mg16Hg9
_symmetry_space_group_name_H-M   'P 1'
_cell_length_a   5.97810100
_cell_length_b   14.38026390
_cell_length_c   46.22608200
_cell_angle_alpha   81.05172384
_cell_angle_beta   90.00000000
_cell_angle_gamma   90.00000000
_symmetry_Int_Tables_number   1
_chemical_formula_structural   Mg16Hg9
_chemical_formula_sum   'Mg64 Hg36'
_cell_volume   3925.53660475
_cell_formula_units_Z   4
loop_
 _symmetry_equiv_pos_site_id
 _symmetry_equiv_pos_as_xyz
  1  'x, y, z'
loop_
 _atom_site_type_symbol
 _atom_site_label
 _atom_site_symmetry_multiplicity
 _atom_site_fract_x
 _atom_site_fract_y
 _atom_site_fract_z
 _atom_site_occupancy
  Mg  Mg0  1  0.50000000  0.18141900  0.26136400  1
  Mg  Mg1  1  1.00000000  0.84808500  0.26136400  1
  Mg  Mg2  1  0.50000000  0.84808500  0.26136400  1
  Mg  Mg3  1  1.00000000  0.18141900  0.26136400  1
  Mg  Mg4  1  0.75000000  0.85660100  0.32973400  1
  Mg  Mg5  1  0.25000000  0.37951700  0.28390300  1
  Mg  Mg6  1  0.25000000  0.99183700  0.30719400  1
  Mg  Mg7  1  0.75000000  0.49221300  0.30644200  1
  Mg  Mg8  1  0.75000000  0.10453300  0.32973400  1
  Mg  Mg9  1  0.25000000  0.62744800  0.28390300  1
  Mg  Mg10  1  0.50000000  0.63596400  0.35227300  1
  Mg  Mg11  1  1.00000000  0.30263100  0.35227300  1
  Mg  Mg12  1  0.50000000  0.30263100  0.35227300  1
  Mg  Mg13  1  1.00000000  0.63596400  0.35227300  1
  Mg  Mg14  1  0.75000000  0.31114700  0.42064300  1
  Mg  Mg15  1  0.25000000  0.83406200  0.37481200  1
  Mg  Mg16  1  0.25000000  0.44638200  0.39810300  1
  Mg  Mg17  1  0.75000000  0.94675800  0.39735100  1
  Mg  Mg18  1  0.75000000  0.55907800  0.42064300  1
  Mg  Mg19  1  0.25000000  0.08199300  0.37481200  1
  Mg  Mg20  1  0.50000000  0.09051000  0.44318200  1
  Mg  Mg21  1  1.00000000  0.75717600  0.44318200  1
  Mg  Mg22  1  0.50000000  0.75717600  0.44318200  1
  Mg  Mg23  1  1.00000000  0.09051000  0.44318200  1
  Mg  Mg24  1  0.75000000  0.76569200  0.51155200  1
  Mg  Mg25  1  0.25000000  0.28860800  0.46572100  1
  Mg  Mg26  1  0.25000000  0.90092800  0.48901300  1
  Mg  Mg27  1  0.75000000  0.40130400  0.48826000  1
  Mg  Mg28  1  0.75000000  0.01362400  0.51155200  1
  Mg  Mg29  1  0.25000000  0.53653900  0.46572100  1
  Mg  Mg30  1  0.50000000  0.54505500  0.53409100  1
  Mg  Mg31  1  1.00000000  0.21172200  0.53409100  1
  Mg  Mg32  1  0.50000000  0.21172200  0.53409100  1
  Mg  Mg33  1  1.00000000  0.54505500  0.53409100  1
  Mg  Mg34  1  0.75000000  0.22023800  0.60246100  1
  Mg  Mg35  1  0.25000000  0.74315300  0.55663000  1
  Mg  Mg36  1  0.25000000  0.35547300  0.57992200  1
  Mg  Mg37  1  0.75000000  0.85584900  0.57916900  1
  Mg  Mg38  1  0.75000000  0.46816900  0.60246100  1
  Mg  Mg39  1  0.25000000  0.99108400  0.55663000  1
  Mg  Mg40  1  0.50000000  0.99960000  0.62500000  1
  Mg  Mg41  1  1.00000000  0.66626700  0.62500000  1
  Mg  Mg42  1  0.50000000  0.66626700  0.62500000  1
  Mg  Mg43  1  1.00000000  0.99960000  0.62500000  1
  Mg  Mg44  1  0.75000000  0.67478300  0.69337000  1
  Mg  Mg45  1  0.25000000  0.19769900  0.64753900  1
  Mg  Mg46  1  0.25000000  0.81001800  0.67083100  1
  Mg  Mg47  1  0.75000000  0.31039500  0.67007800  1
  Mg  Mg48  1  0.75000000  0.92271400  0.69337000  1
  Mg  Mg49  1  0.25000000  0.44563000  0.64753900  1
  Mg  Mg50  1  0.50000000  0.45414600  0.71590900  1
  Mg  Mg51  1  1.00000000  0.12081300  0.71590900  1
  Mg  Mg52  1  0.50000000  0.12081300  0.71590900  1
  Mg  Mg53  1  1.00000000  0.45414600  0.71590900  1
  Mg  Mg54  1  0.75000000  0.12932900  0.78427900  1
  Mg  Mg55  1  0.25000000  0.65224400  0.73844800  1
  Mg  Mg56  1  0.25000000  0.26456400  0.76174000  1
  Mg  Mg57  1  0.75000000  0.76494000  0.76098700  1
  Mg  Mg58  1  0.75000000  0.37726000  0.78427900  1
  Mg  Mg59  1  0.25000000  0.90017500  0.73844800  1
  Mg  Mg60  1  0.50000000  0.90869100  0.80681800  1
  Mg  Mg61  1  1.00000000  0.57535800  0.80681800  1
  Mg  Mg62  1  0.50000000  0.57535800  0.80681800  1
  Mg  Mg63  1  1.00000000  0.90869100  0.80681800  1
  Hg  Hg64  1  0.75000000  0.69185300  0.29678400  1
  Hg  Hg65  1  0.25000000  0.18181800  0.31685300  1
  Hg  Hg66  1  0.25000000  0.47933200  0.33220400  1
  Hg  Hg67  1  0.75000000  0.00471800  0.28143200  1
  Hg  Hg68  1  0.75000000  0.30223100  0.29678400  1
  Hg  Hg69  1  0.25000000  0.79219700  0.31685300  1
  Hg  Hg70  1  0.75000000  0.14639800  0.38769300  1
  Hg  Hg71  1  0.25000000  0.63636400  0.40776200  1
  Hg  Hg72  1  0.25000000  0.93387700  0.42311300  1
  Hg  Hg73  1  0.75000000  0.45926300  0.37234200  1
  Hg  Hg74  1  0.75000000  0.75677700  0.38769300  1
  Hg  Hg75  1  0.25000000  0.24674200  0.40776200  1
  Hg  Hg76  1  0.75000000  0.60094400  0.47860200  1
  Hg  Hg77  1  0.25000000  0.09090900  0.49867100  1
  Hg  Hg78  1  0.25000000  0.38842300  0.51402200  1
  Hg  Hg79  1  0.75000000  0.91380800  0.46325100  1
  Hg  Hg80  1  0.75000000  0.21132200  0.47860200  1
  Hg  Hg81  1  0.25000000  0.70128800  0.49867100  1
  Hg  Hg82  1  0.75000000  0.05548900  0.56951100  1
  Hg  Hg83  1  0.25000000  0.54545500  0.58958000  1
  Hg  Hg84  1  0.25000000  0.84296800  0.60493100  1
  Hg  Hg85  1  0.75000000  0.36835400  0.55416000  1
  Hg  Hg86  1  0.75000000  0.66586800  0.56951100  1
  Hg  Hg87  1  0.25000000  0.15583300  0.58958000  1
  Hg  Hg88  1  0.75000000  0.51003400  0.66042000  1
  Hg  Hg89  1  0.25000000  0.00000000  0.68048900  1
  Hg  Hg90  1  0.25000000  0.29751400  0.69584000  1
  Hg  Hg91  1  0.75000000  0.82289900  0.64506900  1
  Hg  Hg92  1  0.75000000  0.12041300  0.66042000  1
  Hg  Hg93  1  0.25000000  0.61037900  0.68048900  1
  Hg  Hg94  1  0.75000000  0.96458000  0.75132900  1
  Hg  Hg95  1  0.25000000  0.45454500  0.77139800  1
  Hg  Hg96  1  0.25000000  0.75205900  0.78674900  1
  Hg  Hg97  1  0.75000000  0.27744500  0.73597800  1
  Hg  Hg98  1  0.75000000  0.57495900  0.75132900  1
  Hg  Hg99  1  0.25000000  0.06492400  0.77139800  1
