# generated using pymatgen
data_Mg13Tl5
_symmetry_space_group_name_H-M   'P 1'
_cell_length_a   5.19908500
_cell_length_b   6.45355300
_cell_length_c   44.71152800
_cell_angle_alpha   90.00000000
_cell_angle_beta   90.00000000
_cell_angle_gamma   90.00000000
_symmetry_Int_Tables_number   1
_chemical_formula_structural   Mg13Tl5
_chemical_formula_sum   'Mg26 Tl10'
_cell_volume   1500.18669981
_cell_formula_units_Z   2
loop_
 _symmetry_equiv_pos_site_id
 _symmetry_equiv_pos_as_xyz
  1  'x, y, z'
loop_
 _atom_site_type_symbol
 _atom_site_label
 _atom_site_symmetry_multiplicity
 _atom_site_fract_x
 _atom_site_fract_y
 _atom_site_fract_z
 _atom_site_occupancy
  Mg  Mg0  1  0.75000000  0.12460700  0.19752400  1
  Mg  Mg1  1  0.75000000  0.37696300  0.26061300  1
  Mg  Mg2  1  0.75000000  0.87225100  0.26061300  1
  Mg  Mg3  1  0.25000000  0.37696300  0.30188700  1
  Mg  Mg4  1  0.25000000  0.87225100  0.30188700  1
  Mg  Mg5  1  0.25000000  0.62460700  0.23997600  1
  Mg  Mg6  1  0.75000000  0.62460700  0.32252400  1
  Mg  Mg7  1  0.75000000  0.87696300  0.38561300  1
  Mg  Mg8  1  0.75000000  0.37225100  0.38561300  1
  Mg  Mg9  1  0.25000000  0.87696300  0.42688700  1
  Mg  Mg10  1  0.25000000  0.37225100  0.42688700  1
  Mg  Mg11  1  0.25000000  0.12460700  0.36497600  1
  Mg  Mg12  1  0.75000000  0.12460700  0.44752400  1
  Mg  Mg13  1  0.75000000  0.37696300  0.51061300  1
  Mg  Mg14  1  0.75000000  0.87225100  0.51061300  1
  Mg  Mg15  1  0.25000000  0.37696300  0.55188700  1
  Mg  Mg16  1  0.25000000  0.87225100  0.55188700  1
  Mg  Mg17  1  0.25000000  0.62460700  0.48997600  1
  Mg  Mg18  1  0.75000000  0.62460700  0.57252400  1
  Mg  Mg19  1  0.75000000  0.87696300  0.63561300  1
  Mg  Mg20  1  0.75000000  0.37225100  0.63561300  1
  Mg  Mg21  1  0.25000000  0.87696300  0.67688700  1
  Mg  Mg22  1  0.25000000  0.37225100  0.67688700  1
  Mg  Mg23  1  0.25000000  0.12460700  0.61497600  1
  Mg  Mg24  1  0.75000000  0.12460700  0.69752400  1
  Mg  Mg25  1  0.25000000  0.62460700  0.73997600  1
  Tl  Tl26  1  0.75000000  0.62460700  0.19791700  1
  Tl  Tl27  1  0.25000000  0.12460700  0.23958300  1
  Tl  Tl28  1  0.75000000  0.12460700  0.32291700  1
  Tl  Tl29  1  0.25000000  0.62460700  0.36458300  1
  Tl  Tl30  1  0.75000000  0.62460700  0.44791700  1
  Tl  Tl31  1  0.25000000  0.12460700  0.48958300  1
  Tl  Tl32  1  0.75000000  0.12460700  0.57291700  1
  Tl  Tl33  1  0.25000000  0.62460700  0.61458300  1
  Tl  Tl34  1  0.75000000  0.62460700  0.69791700  1
  Tl  Tl35  1  0.25000000  0.12460700  0.73958300  1
