# generated using pymatgen
data_Mg3P2
_symmetry_space_group_name_H-M   'P 1'
_cell_length_a   17.07071752
_cell_length_b   17.07071720
_cell_length_c   49.76926500
_cell_angle_alpha   99.87496192
_cell_angle_beta   99.87496173
_cell_angle_gamma   59.99999851
_symmetry_Int_Tables_number   1
_chemical_formula_structural   Mg3P2
_chemical_formula_sum   'Mg192 P128'
_cell_volume   12311.42566265
_cell_formula_units_Z   64
loop_
 _symmetry_equiv_pos_site_id
 _symmetry_equiv_pos_as_xyz
  1  'x, y, z'
loop_
 _atom_site_type_symbol
 _atom_site_label
 _atom_site_symmetry_multiplicity
 _atom_site_fract_x
 _atom_site_fract_y
 _atom_site_fract_z
 _atom_site_occupancy
  Mg  Mg0  1  0.12578400  0.88555500  0.34463900  1
  Mg  Mg1  1  0.61174700  0.63773100  0.33528100  1
  Mg  Mg2  1  0.36883500  0.86206600  0.34000700  1
  Mg  Mg3  1  0.10787900  0.37441800  0.33721500  1
  Mg  Mg4  1  0.28058900  0.51437500  0.26385300  1
  Mg  Mg5  1  0.89482000  0.36883500  0.34000700  1
  Mg  Mg6  1  0.37441800  0.64063200  0.33721500  1
  Mg  Mg7  1  0.11901500  0.12578400  0.34463900  1
  Mg  Mg8  1  0.52841200  0.76187200  0.27321100  1
  Mg  Mg9  1  0.51437500  0.25460400  0.26385300  1
  Mg  Mg10  1  0.50492400  0.53767700  0.26857800  1
  Mg  Mg11  1  0.28348900  0.75073600  0.26578700  1
  Mg  Mg12  1  0.94564500  0.18587400  0.29821800  1
  Mg  Mg13  1  0.45968200  0.43369700  0.30757600  1
  Mg  Mg14  1  0.70259400  0.20936200  0.30285000  1
  Mg  Mg15  1  0.96355000  0.69701000  0.30564200  1
  Mg  Mg16  1  0.07655400  0.84276800  0.23614700  1
  Mg  Mg17  1  0.17660900  0.70259400  0.30285000  1
  Mg  Mg18  1  0.69701000  0.43079600  0.30564200  1
  Mg  Mg19  1  0.95241300  0.94564500  0.29821800  1
  Mg  Mg20  1  0.82873100  0.59527000  0.22678900  1
  Mg  Mg21  1  0.84276800  0.10253900  0.23614700  1
  Mg  Mg22  1  0.85221900  0.81946600  0.23142200  1
  Mg  Mg23  1  0.07365300  0.60640700  0.23421300  1
  Mg  Mg24  1  0.76864100  0.52841200  0.27321100  1
  Mg  Mg25  1  0.25460400  0.28058900  0.26385300  1
  Mg  Mg26  1  0.01169200  0.50492400  0.26857800  1
  Mg  Mg27  1  0.75073600  0.01727500  0.26578700  1
  Mg  Mg28  1  0.63773100  0.87151700  0.33528100  1
  Mg  Mg29  1  0.53767700  0.01169200  0.26857800  1
  Mg  Mg30  1  0.01727500  0.28348900  0.26578700  1
  Mg  Mg31  1  0.76187200  0.76864100  0.27321100  1
  Mg  Mg32  1  0.88555500  0.11901500  0.34463900  1
  Mg  Mg33  1  0.87151700  0.61174700  0.33528100  1
  Mg  Mg34  1  0.86206600  0.89482000  0.34000700  1
  Mg  Mg35  1  0.64063200  0.10787900  0.33721500  1
  Mg  Mg36  1  0.58850200  0.82873100  0.22678900  1
  Mg  Mg37  1  0.10253900  0.07655400  0.23614700  1
  Mg  Mg38  1  0.34545100  0.85221900  0.23142200  1
  Mg  Mg39  1  0.60640700  0.33986700  0.23421300  1
  Mg  Mg40  1  0.43369700  0.19991100  0.30757600  1
  Mg  Mg41  1  0.81946600  0.34545100  0.23142200  1
  Mg  Mg42  1  0.33986700  0.07365300  0.23421300  1
  Mg  Mg43  1  0.59527000  0.58850200  0.22678900  1
  Mg  Mg44  1  0.18587400  0.95241300  0.29821800  1
  Mg  Mg45  1  0.19991100  0.45968200  0.30757600  1
  Mg  Mg46  1  0.20936200  0.17660900  0.30285000  1
  Mg  Mg47  1  0.43079600  0.96355000  0.30564200  1
  Mg  Mg48  1  0.84007000  0.59984000  0.48749700  1
  Mg  Mg49  1  0.32603200  0.35201700  0.47813900  1
  Mg  Mg50  1  0.08312100  0.57635200  0.48286400  1
  Mg  Mg51  1  0.82216500  0.08870400  0.48007200  1
  Mg  Mg52  1  0.99487400  0.22866000  0.40671000  1
  Mg  Mg53  1  0.60910500  0.08312100  0.48286400  1
  Mg  Mg54  1  0.08870400  0.35491800  0.48007200  1
  Mg  Mg55  1  0.83330100  0.84007000  0.48749700  1
  Mg  Mg56  1  0.24269700  0.47615800  0.41606800  1
  Mg  Mg57  1  0.22866000  0.96889000  0.40671000  1
  Mg  Mg58  1  0.21920900  0.25196300  0.41143500  1
  Mg  Mg59  1  0.99777500  0.46502200  0.40864400  1
  Mg  Mg60  1  0.65993000  0.90016000  0.44107500  1
  Mg  Mg61  1  0.17396800  0.14798300  0.45043300  1
  Mg  Mg62  1  0.41687900  0.92364800  0.44570700  1
  Mg  Mg63  1  0.67783500  0.41129600  0.44849900  1
  Mg  Mg64  1  0.79084000  0.55705400  0.37900400  1
  Mg  Mg65  1  0.89089500  0.41687900  0.44570700  1
  Mg  Mg66  1  0.41129600  0.14508200  0.44849900  1
  Mg  Mg67  1  0.66669900  0.65993000  0.44107500  1
  Mg  Mg68  1  0.54301700  0.30955600  0.36964600  1
  Mg  Mg69  1  0.55705400  0.81682500  0.37900400  1
  Mg  Mg70  1  0.56650500  0.53375200  0.37427900  1
  Mg  Mg71  1  0.78793900  0.32069200  0.37707000  1
  Mg  Mg72  1  0.48292700  0.24269700  0.41606800  1
  Mg  Mg73  1  0.96889000  0.99487400  0.40671000  1
  Mg  Mg74  1  0.72597800  0.21920900  0.41143500  1
  Mg  Mg75  1  0.46502200  0.73156100  0.40864400  1
  Mg  Mg76  1  0.35201700  0.58580300  0.47813900  1
  Mg  Mg77  1  0.25196300  0.72597800  0.41143500  1
  Mg  Mg78  1  0.73156100  0.99777500  0.40864400  1
  Mg  Mg79  1  0.47615800  0.48292700  0.41606800  1
  Mg  Mg80  1  0.59984000  0.83330100  0.48749700  1
  Mg  Mg81  1  0.58580300  0.32603200  0.47813900  1
  Mg  Mg82  1  0.57635200  0.60910500  0.48286400  1
  Mg  Mg83  1  0.35491800  0.82216500  0.48007200  1
  Mg  Mg84  1  0.30278800  0.54301700  0.36964600  1
  Mg  Mg85  1  0.81682500  0.79084000  0.37900400  1
  Mg  Mg86  1  0.05973600  0.56650500  0.37427900  1
  Mg  Mg87  1  0.32069200  0.05415300  0.37707000  1
  Mg  Mg88  1  0.14798300  0.91419700  0.45043300  1
  Mg  Mg89  1  0.53375200  0.05973600  0.37427900  1
  Mg  Mg90  1  0.05415300  0.78793900  0.37707000  1
  Mg  Mg91  1  0.30955600  0.30278800  0.36964600  1
  Mg  Mg92  1  0.90016000  0.66669900  0.44107500  1
  Mg  Mg93  1  0.91419700  0.17396800  0.45043300  1
  Mg  Mg94  1  0.92364800  0.89089500  0.44570700  1
  Mg  Mg95  1  0.14508200  0.67783500  0.44849900  1
  Mg  Mg96  1  0.55435500  0.31412600  0.63035400  1
  Mg  Mg97  1  0.04031800  0.06630300  0.62099600  1
  Mg  Mg98  1  0.79740600  0.29063800  0.62572100  1
  Mg  Mg99  1  0.53645000  0.80299000  0.62293000  1
  Mg  Mg100  1  0.70916000  0.94294600  0.54956700  1
  Mg  Mg101  1  0.32339100  0.79740600  0.62572100  1
  Mg  Mg102  1  0.80299000  0.06920400  0.62293000  1
  Mg  Mg103  1  0.54758700  0.55435500  0.63035400  1
  Mg  Mg104  1  0.95698300  0.19044400  0.55892500  1
  Mg  Mg105  1  0.94294600  0.68317500  0.54956700  1
  Mg  Mg106  1  0.93349500  0.96624800  0.55429300  1
  Mg  Mg107  1  0.71206100  0.17930800  0.55150100  1
  Mg  Mg108  1  0.37421600  0.61444500  0.58393200  1
  Mg  Mg109  1  0.88825300  0.86226900  0.59329000  1
  Mg  Mg110  1  0.13116500  0.63793400  0.58856500  1
  Mg  Mg111  1  0.39212100  0.12558200  0.59135600  1
  Mg  Mg112  1  0.50512600  0.27134000  0.52186100  1
  Mg  Mg113  1  0.60518000  0.13116500  0.58856500  1
  Mg  Mg114  1  0.12558200  0.85936800  0.59135600  1
  Mg  Mg115  1  0.38098500  0.37421600  0.58393200  1
  Mg  Mg116  1  0.25730300  0.02384200  0.51250300  1
  Mg  Mg117  1  0.27134000  0.53111000  0.52186100  1
  Mg  Mg118  1  0.28079100  0.24803700  0.51713600  1
  Mg  Mg119  1  0.50222500  0.03497800  0.51992800  1
  Mg  Mg120  1  0.19721200  0.95698300  0.55892500  1
  Mg  Mg121  1  0.68317500  0.70916000  0.54956700  1
  Mg  Mg122  1  0.44026400  0.93349500  0.55429300  1
  Mg  Mg123  1  0.17930800  0.44584700  0.55150100  1
  Mg  Mg124  1  0.06630300  0.30008900  0.62099600  1
  Mg  Mg125  1  0.96624800  0.44026400  0.55429300  1
  Mg  Mg126  1  0.44584700  0.71206100  0.55150100  1
  Mg  Mg127  1  0.19044400  0.19721200  0.55892500  1
  Mg  Mg128  1  0.31412600  0.54758700  0.63035400  1
  Mg  Mg129  1  0.30008900  0.04031800  0.62099600  1
  Mg  Mg130  1  0.29063800  0.32339100  0.62572100  1
  Mg  Mg131  1  0.06920400  0.53645000  0.62293000  1
  Mg  Mg132  1  0.01707300  0.25730300  0.51250300  1
  Mg  Mg133  1  0.53111000  0.50512600  0.52186100  1
  Mg  Mg134  1  0.77402200  0.28079100  0.51713600  1
  Mg  Mg135  1  0.03497800  0.76843900  0.51992800  1
  Mg  Mg136  1  0.86226900  0.62848300  0.59329000  1
  Mg  Mg137  1  0.24803700  0.77402200  0.51713600  1
  Mg  Mg138  1  0.76843900  0.50222500  0.51992800  1
  Mg  Mg139  1  0.02384200  0.01707300  0.51250300  1
  Mg  Mg140  1  0.61444500  0.38098500  0.58393200  1
  Mg  Mg141  1  0.62848300  0.88825300  0.59329000  1
  Mg  Mg142  1  0.63793400  0.60518000  0.58856500  1
  Mg  Mg143  1  0.85936800  0.39212100  0.59135600  1
  Mg  Mg144  1  0.26864100  0.02841200  0.77321100  1
  Mg  Mg145  1  0.75460400  0.78058900  0.76385300  1
  Mg  Mg146  1  0.51169200  0.00492400  0.76857800  1
  Mg  Mg147  1  0.25073600  0.51727500  0.76578700  1
  Mg  Mg148  1  0.42344600  0.65723200  0.69242400  1
  Mg  Mg149  1  0.03767700  0.51169200  0.76857800  1
  Mg  Mg150  1  0.51727500  0.78348900  0.76578700  1
  Mg  Mg151  1  0.26187200  0.26864100  0.77321100  1
  Mg  Mg152  1  0.67126900  0.90473000  0.70178200  1
  Mg  Mg153  1  0.65723200  0.39746100  0.69242400  1
  Mg  Mg154  1  0.64778100  0.68053400  0.69715000  1
  Mg  Mg155  1  0.42634700  0.89359300  0.69435800  1
  Mg  Mg156  1  0.08850200  0.32873100  0.72678900  1
  Mg  Mg157  1  0.60253900  0.57655400  0.73614700  1
  Mg  Mg158  1  0.84545100  0.35221900  0.73142200  1
  Mg  Mg159  1  0.10640700  0.83986700  0.73421300  1
  Mg  Mg160  1  0.21941100  0.98562500  0.66471900  1
  Mg  Mg161  1  0.31946600  0.84545100  0.73142200  1
  Mg  Mg162  1  0.83986700  0.57365300  0.73421300  1
  Mg  Mg163  1  0.09527000  0.08850200  0.72678900  1
  Mg  Mg164  1  0.97158800  0.73812800  0.65536100  1
  Mg  Mg165  1  0.98562500  0.24539600  0.66471900  1
  Mg  Mg166  1  0.99507600  0.96232300  0.65999300  1
  Mg  Mg167  1  0.21651100  0.74926400  0.66278500  1
  Mg  Mg168  1  0.91149800  0.67126900  0.70178200  1
  Mg  Mg169  1  0.39746100  0.42344600  0.69242400  1
  Mg  Mg170  1  0.15454900  0.64778100  0.69715000  1
  Mg  Mg171  1  0.89359300  0.16013300  0.69435800  1
  Mg  Mg172  1  0.78058900  0.01437500  0.76385300  1
  Mg  Mg173  1  0.68053400  0.15454900  0.69715000  1
  Mg  Mg174  1  0.16013300  0.42634700  0.69435800  1
  Mg  Mg175  1  0.90473000  0.91149800  0.70178200  1
  Mg  Mg176  1  0.02841200  0.26187200  0.77321100  1
  Mg  Mg177  1  0.01437500  0.75460400  0.76385300  1
  Mg  Mg178  1  0.00492400  0.03767700  0.76857800  1
  Mg  Mg179  1  0.78348900  0.25073600  0.76578700  1
  Mg  Mg180  1  0.73135900  0.97158800  0.65536100  1
  Mg  Mg181  1  0.24539600  0.21941100  0.66471900  1
  Mg  Mg182  1  0.48830800  0.99507600  0.65999300  1
  Mg  Mg183  1  0.74926400  0.48272500  0.66278500  1
  Mg  Mg184  1  0.57655400  0.34276800  0.73614700  1
  Mg  Mg185  1  0.96232300  0.48830800  0.65999300  1
  Mg  Mg186  1  0.48272500  0.21651100  0.66278500  1
  Mg  Mg187  1  0.73812800  0.73135900  0.65536100  1
  Mg  Mg188  1  0.32873100  0.09527000  0.72678900  1
  Mg  Mg189  1  0.34276800  0.60253900  0.73614700  1
  Mg  Mg190  1  0.35221900  0.31946600  0.73142200  1
  Mg  Mg191  1  0.57365300  0.10640700  0.73421300  1
  P  P192  1  0.03571400  0.03571400  0.32142900  1
  P  P193  1  0.53571400  0.53571400  0.32142900  1
  P  P194  1  0.03571400  0.53571400  0.32142900  1
  P  P195  1  0.17857100  0.67857100  0.25000000  1
  P  P196  1  0.26872200  0.29251100  0.31803000  1
  P  P197  1  0.92177500  0.67177500  0.25339800  1
  P  P198  1  0.02891700  0.80270600  0.32482700  1
  P  P199  1  0.29251100  0.54251100  0.31803000  1
  P  P200  1  0.18536800  0.91157900  0.24660200  1
  P  P201  1  0.80270600  0.27891700  0.32482700  1
  P  P202  1  0.80270600  0.77891700  0.32482700  1
  P  P203  1  0.43536800  0.68536800  0.24660200  1
  P  P204  1  0.04251100  0.26872200  0.31803000  1
  P  P205  1  0.77891700  0.52891700  0.32482700  1
  P  P206  1  0.17177500  0.44556300  0.25339800  1
  P  P207  1  0.26872200  0.79251100  0.31803000  1
  P  P208  1  0.67857100  0.67857100  0.25000000  1
  P  P209  1  0.17857100  0.17857100  0.25000000  1
  P  P210  1  0.67857100  0.17857100  0.25000000  1
  P  P211  1  0.53571400  0.03571400  0.32142900  1
  P  P212  1  0.91157900  0.93536800  0.24660200  1
  P  P213  1  0.27891700  0.02891700  0.32482700  1
  P  P214  1  0.67177500  0.44556300  0.25339800  1
  P  P215  1  0.93536800  0.18536800  0.24660200  1
  P  P216  1  0.54251100  0.26872200  0.31803000  1
  P  P217  1  0.44556300  0.92177500  0.25339800  1
  P  P218  1  0.44556300  0.42177500  0.25339800  1
  P  P219  1  0.79251100  0.04251100  0.31803000  1
  P  P220  1  0.68536800  0.91157900  0.24660200  1
  P  P221  1  0.42177500  0.17177500  0.25339800  1
  P  P222  1  0.52891700  0.80270600  0.32482700  1
  P  P223  1  0.91157900  0.43536800  0.24660200  1
  P  P224  1  0.75000000  0.75000000  0.46428600  1
  P  P225  1  0.25000000  0.25000000  0.46428600  1
  P  P226  1  0.75000000  0.25000000  0.46428600  1
  P  P227  1  0.89285700  0.39285700  0.39285700  1
  P  P228  1  0.98300800  0.00679700  0.46088700  1
  P  P229  1  0.63606000  0.38606000  0.39625600  1
  P  P230  1  0.74320300  0.51699200  0.46768400  1
  P  P231  1  0.00679700  0.25679700  0.46088700  1
  P  P232  1  0.89965400  0.62586500  0.38945900  1
  P  P233  1  0.51699200  0.99320300  0.46768400  1
  P  P234  1  0.51699200  0.49320300  0.46768400  1
  P  P235  1  0.14965400  0.39965400  0.38945900  1
  P  P236  1  0.75679700  0.98300800  0.46088700  1
  P  P237  1  0.49320300  0.24320300  0.46768400  1
  P  P238  1  0.88606000  0.15984900  0.39625600  1
  P  P239  1  0.98300800  0.50679700  0.46088700  1
  P  P240  1  0.39285700  0.39285700  0.39285700  1
  P  P241  1  0.89285700  0.89285700  0.39285700  1
  P  P242  1  0.39285700  0.89285700  0.39285700  1
  P  P243  1  0.25000000  0.75000000  0.46428600  1
  P  P244  1  0.62586500  0.64965400  0.38945900  1
  P  P245  1  0.99320300  0.74320300  0.46768400  1
  P  P246  1  0.38606000  0.15984900  0.39625600  1
  P  P247  1  0.64965400  0.89965400  0.38945900  1
  P  P248  1  0.25679700  0.98300800  0.46088700  1
  P  P249  1  0.15984900  0.63606000  0.39625600  1
  P  P250  1  0.15984900  0.13606000  0.39625600  1
  P  P251  1  0.50679700  0.75679700  0.46088700  1
  P  P252  1  0.39965400  0.62586500  0.38945900  1
  P  P253  1  0.13606000  0.88606000  0.39625600  1
  P  P254  1  0.24320300  0.51699200  0.46768400  1
  P  P255  1  0.62586500  0.14965400  0.38945900  1
  P  P256  1  0.46428600  0.46428600  0.60714300  1
  P  P257  1  0.96428600  0.96428600  0.60714300  1
  P  P258  1  0.46428600  0.96428600  0.60714300  1
  P  P259  1  0.60714300  0.10714300  0.53571400  1
  P  P260  1  0.69729400  0.72108300  0.60374400  1
  P  P261  1  0.35034600  0.10034600  0.53911300  1
  P  P262  1  0.45748900  0.23127800  0.61054100  1
  P  P263  1  0.72108300  0.97108300  0.60374400  1
  P  P264  1  0.61394000  0.34015100  0.53231600  1
  P  P265  1  0.23127800  0.70748900  0.61054100  1
  P  P266  1  0.23127800  0.20748900  0.61054100  1
  P  P267  1  0.86394000  0.11394000  0.53231600  1
  P  P268  1  0.47108300  0.69729400  0.60374400  1
  P  P269  1  0.20748900  0.95748900  0.61054100  1
  P  P270  1  0.60034600  0.87413500  0.53911300  1
  P  P271  1  0.69729400  0.22108300  0.60374400  1
  P  P272  1  0.10714300  0.10714300  0.53571400  1
  P  P273  1  0.60714300  0.60714300  0.53571400  1
  P  P274  1  0.10714300  0.60714300  0.53571400  1
  P  P275  1  0.96428600  0.46428600  0.60714300  1
  P  P276  1  0.34015100  0.36394000  0.53231600  1
  P  P277  1  0.70748900  0.45748900  0.61054100  1
  P  P278  1  0.10034600  0.87413500  0.53911300  1
  P  P279  1  0.36394000  0.61394000  0.53231600  1
  P  P280  1  0.97108300  0.69729400  0.60374400  1
  P  P281  1  0.87413500  0.35034600  0.53911300  1
  P  P282  1  0.87413500  0.85034600  0.53911300  1
  P  P283  1  0.22108300  0.47108300  0.60374400  1
  P  P284  1  0.11394000  0.34015100  0.53231600  1
  P  P285  1  0.85034600  0.60034600  0.53911300  1
  P  P286  1  0.95748900  0.23127800  0.61054100  1
  P  P287  1  0.34015100  0.86394000  0.53231600  1
  P  P288  1  0.17857100  0.17857100  0.75000000  1
  P  P289  1  0.67857100  0.67857100  0.75000000  1
  P  P290  1  0.17857100  0.67857100  0.75000000  1
  P  P291  1  0.32142900  0.82142900  0.67857100  1
  P  P292  1  0.41157900  0.43536800  0.74660200  1
  P  P293  1  0.06463200  0.81463200  0.68197000  1
  P  P294  1  0.17177500  0.94556300  0.75339800  1
  P  P295  1  0.43536800  0.68536800  0.74660200  1
  P  P296  1  0.32822500  0.05443700  0.67517300  1
  P  P297  1  0.94556300  0.42177500  0.75339800  1
  P  P298  1  0.94556300  0.92177500  0.75339800  1
  P  P299  1  0.57822500  0.82822500  0.67517300  1
  P  P300  1  0.18536800  0.41157900  0.74660200  1
  P  P301  1  0.92177500  0.67177500  0.75339800  1
  P  P302  1  0.31463200  0.58842100  0.68197000  1
  P  P303  1  0.41157900  0.93536800  0.74660200  1
  P  P304  1  0.82142900  0.82142900  0.67857100  1
  P  P305  1  0.32142900  0.32142900  0.67857100  1
  P  P306  1  0.82142900  0.32142900  0.67857100  1
  P  P307  1  0.67857100  0.17857100  0.75000000  1
  P  P308  1  0.05443700  0.07822500  0.67517300  1
  P  P309  1  0.42177500  0.17177500  0.75339800  1
  P  P310  1  0.81463200  0.58842100  0.68197000  1
  P  P311  1  0.07822500  0.32822500  0.67517300  1
  P  P312  1  0.68536800  0.41157900  0.74660200  1
  P  P313  1  0.58842100  0.06463200  0.68197000  1
  P  P314  1  0.58842100  0.56463200  0.68197000  1
  P  P315  1  0.93536800  0.18536800  0.74660200  1
  P  P316  1  0.82822500  0.05443700  0.67517300  1
  P  P317  1  0.56463200  0.31463200  0.68197000  1
  P  P318  1  0.67177500  0.94556300  0.75339800  1
  P  P319  1  0.05443700  0.57822500  0.67517300  1
