# generated using pymatgen
data_MgSe2
_symmetry_space_group_name_H-M   'P 1'
_cell_length_a   6.51982800
_cell_length_b   6.51982800
_cell_length_c   45.63879800
_cell_angle_alpha   90.00000000
_cell_angle_beta   90.00000000
_cell_angle_gamma   90.00000000
_symmetry_Int_Tables_number   1
_chemical_formula_structural   MgSe2
_chemical_formula_sum   'Mg14 Se28'
_cell_volume   1940.02119750
_cell_formula_units_Z   14
loop_
 _symmetry_equiv_pos_site_id
 _symmetry_equiv_pos_as_xyz
  1  'x, y, z'
loop_
 _atom_site_type_symbol
 _atom_site_label
 _atom_site_symmetry_multiplicity
 _atom_site_fract_x
 _atom_site_fract_y
 _atom_site_fract_z
 _atom_site_occupancy
  Mg  Mg0  1  0.50000000  0.00000000  0.25000000  1
  Mg  Mg1  1  0.00000000  0.50000000  0.25000000  1
  Mg  Mg2  1  0.50000000  0.50000000  0.32142900  1
  Mg  Mg3  1  0.00000000  0.00000000  0.32142900  1
  Mg  Mg4  1  0.50000000  0.00000000  0.39285700  1
  Mg  Mg5  1  0.00000000  0.50000000  0.39285700  1
  Mg  Mg6  1  0.50000000  0.50000000  0.46428600  1
  Mg  Mg7  1  0.00000000  0.00000000  0.46428600  1
  Mg  Mg8  1  0.50000000  0.00000000  0.53571400  1
  Mg  Mg9  1  0.00000000  0.50000000  0.53571400  1
  Mg  Mg10  1  0.50000000  0.50000000  0.60714300  1
  Mg  Mg11  1  0.00000000  0.00000000  0.60714300  1
  Mg  Mg12  1  0.50000000  0.00000000  0.67857100  1
  Mg  Mg13  1  0.00000000  0.50000000  0.67857100  1
  Se  Se14  1  0.89351100  0.39351100  0.33664100  1
  Se  Se15  1  0.39351100  0.10648900  0.30621600  1
  Se  Se16  1  0.10648900  0.89351100  0.23478700  1
  Se  Se17  1  0.60648900  0.60648900  0.26521300  1
  Se  Se18  1  0.10648900  0.60648900  0.30621600  1
  Se  Se19  1  0.60648900  0.89351100  0.33664100  1
  Se  Se20  1  0.89351100  0.10648900  0.26521300  1
  Se  Se21  1  0.39351100  0.39351100  0.23478700  1
  Se  Se22  1  0.89351100  0.39351100  0.47949800  1
  Se  Se23  1  0.39351100  0.10648900  0.44907300  1
  Se  Se24  1  0.10648900  0.89351100  0.37764400  1
  Se  Se25  1  0.60648900  0.60648900  0.40807000  1
  Se  Se26  1  0.10648900  0.60648900  0.44907300  1
  Se  Se27  1  0.60648900  0.89351100  0.47949800  1
  Se  Se28  1  0.89351100  0.10648900  0.40807000  1
  Se  Se29  1  0.39351100  0.39351100  0.37764400  1
  Se  Se30  1  0.89351100  0.39351100  0.62235600  1
  Se  Se31  1  0.39351100  0.10648900  0.59193000  1
  Se  Se32  1  0.10648900  0.89351100  0.52050200  1
  Se  Se33  1  0.60648900  0.60648900  0.55092700  1
  Se  Se34  1  0.10648900  0.60648900  0.59193000  1
  Se  Se35  1  0.60648900  0.89351100  0.62235600  1
  Se  Se36  1  0.89351100  0.10648900  0.55092700  1
  Se  Se37  1  0.39351100  0.39351100  0.52050200  1
  Se  Se38  1  0.10648900  0.89351100  0.66335900  1
  Se  Se39  1  0.60648900  0.60648900  0.69378400  1
  Se  Se40  1  0.89351100  0.10648900  0.69378400  1
  Se  Se41  1  0.39351100  0.39351100  0.66335900  1
