# generated using pymatgen
data_Mg51Zn88
_symmetry_space_group_name_H-M   'P 1'
_cell_length_a   13.26606221
_cell_length_b   15.53344873
_cell_length_c   48.04736100
_cell_angle_alpha   89.05057746
_cell_angle_beta   95.72936823
_cell_angle_gamma   107.07914806
_symmetry_Int_Tables_number   1
_chemical_formula_structural   Mg51Zn88
_chemical_formula_sum   'Mg102 Zn176'
_cell_volume   9416.24909417
_cell_formula_units_Z   2
loop_
 _symmetry_equiv_pos_site_id
 _symmetry_equiv_pos_as_xyz
  1  'x, y, z'
loop_
 _atom_site_type_symbol
 _atom_site_label
 _atom_site_symmetry_multiplicity
 _atom_site_fract_x
 _atom_site_fract_y
 _atom_site_fract_z
 _atom_site_occupancy
  Mg  Mg0  1  0.74900600  0.99402700  0.29487100  1
  Mg  Mg1  1  0.25099400  0.19919000  0.29967500  1
  Mg  Mg2  1  0.74900600  0.09402700  0.39487100  1
  Mg  Mg3  1  0.06923400  0.84256100  0.32980100  1
  Mg  Mg4  1  0.60977900  0.54372900  0.39207600  1
  Mg  Mg5  1  0.88387300  0.10136900  0.34561500  1
  Mg  Mg6  1  0.96931900  0.78693900  0.38544900  1
  Mg  Mg7  1  0.57175100  0.20018300  0.37279400  1
  Mg  Mg8  1  0.71853500  0.75158800  0.37570800  1
  Mg  Mg9  1  0.11612700  0.19184700  0.34893000  1
  Mg  Mg10  1  0.64336400  0.78742400  0.31190400  1
  Mg  Mg11  1  0.03068100  0.50627700  0.30909700  1
  Mg  Mg12  1  0.39022100  0.74948800  0.30246900  1
  Mg  Mg13  1  0.35663600  0.50579200  0.38264100  1
  Mg  Mg14  1  0.01360900  0.01184900  0.30760200  1
  Mg  Mg15  1  0.68159700  0.40677200  0.35626600  1
  Mg  Mg16  1  0.31840300  0.88644400  0.33828000  1
  Mg  Mg17  1  0.28146500  0.54162800  0.31883700  1
  Mg  Mg18  1  0.25099400  0.29919000  0.39967500  1
  Mg  Mg19  1  0.42824900  0.09303300  0.32175100  1
  Mg  Mg20  1  0.93076600  0.45065500  0.36474500  1
  Mg  Mg21  1  0.98639100  0.28136700  0.38694300  1
  Mg  Mg22  1  0.74900600  0.19402700  0.49487100  1
  Mg  Mg23  1  0.06923400  0.94256100  0.42980100  1
  Mg  Mg24  1  0.60977900  0.64372900  0.49207600  1
  Mg  Mg25  1  0.88387300  0.20136900  0.44561500  1
  Mg  Mg26  1  0.96931900  0.88693900  0.48544900  1
  Mg  Mg27  1  0.57175100  0.30018300  0.47279400  1
  Mg  Mg28  1  0.71853500  0.85158800  0.47570800  1
  Mg  Mg29  1  0.11612700  0.29184700  0.44893000  1
  Mg  Mg30  1  0.64336400  0.88742400  0.41190400  1
  Mg  Mg31  1  0.03068100  0.60627700  0.40909700  1
  Mg  Mg32  1  0.39022100  0.84948800  0.40246900  1
  Mg  Mg33  1  0.35663600  0.60579200  0.48264100  1
  Mg  Mg34  1  0.01360900  0.11184900  0.40760200  1
  Mg  Mg35  1  0.68159700  0.50677200  0.45626600  1
  Mg  Mg36  1  0.31840300  0.98644400  0.43828000  1
  Mg  Mg37  1  0.28146500  0.64162800  0.41883700  1
  Mg  Mg38  1  0.25099400  0.39919000  0.49967500  1
  Mg  Mg39  1  0.42824900  0.19303300  0.42175100  1
  Mg  Mg40  1  0.93076600  0.55065500  0.46474500  1
  Mg  Mg41  1  0.98639100  0.38136700  0.48694300  1
  Mg  Mg42  1  0.74900600  0.29402700  0.59487100  1
  Mg  Mg43  1  0.06923400  0.04256100  0.52980100  1
  Mg  Mg44  1  0.60977900  0.74372900  0.59207600  1
  Mg  Mg45  1  0.88387300  0.30136900  0.54561500  1
  Mg  Mg46  1  0.96931900  0.98693900  0.58544900  1
  Mg  Mg47  1  0.57175100  0.40018300  0.57279400  1
  Mg  Mg48  1  0.71853500  0.95158800  0.57570800  1
  Mg  Mg49  1  0.11612700  0.39184700  0.54893000  1
  Mg  Mg50  1  0.64336400  0.98742400  0.51190400  1
  Mg  Mg51  1  0.03068100  0.70627700  0.50909700  1
  Mg  Mg52  1  0.39022100  0.94948800  0.50246900  1
  Mg  Mg53  1  0.35663600  0.70579200  0.58264100  1
  Mg  Mg54  1  0.01360900  0.21184900  0.50760200  1
  Mg  Mg55  1  0.68159700  0.60677200  0.55626600  1
  Mg  Mg56  1  0.31840300  0.08644400  0.53828000  1
  Mg  Mg57  1  0.28146500  0.74162800  0.51883700  1
  Mg  Mg58  1  0.25099400  0.49919000  0.59967500  1
  Mg  Mg59  1  0.42824900  0.29303300  0.52175100  1
  Mg  Mg60  1  0.93076600  0.65065500  0.56474500  1
  Mg  Mg61  1  0.98639100  0.48136700  0.58694300  1
  Mg  Mg62  1  0.74900600  0.39402700  0.69487100  1
  Mg  Mg63  1  0.06923400  0.14256100  0.62980100  1
  Mg  Mg64  1  0.60977900  0.84372900  0.69207600  1
  Mg  Mg65  1  0.88387300  0.40136900  0.64561500  1
  Mg  Mg66  1  0.96931900  0.08693900  0.68544900  1
  Mg  Mg67  1  0.57175100  0.50018300  0.67279400  1
  Mg  Mg68  1  0.71853500  0.05158800  0.67570800  1
  Mg  Mg69  1  0.11612700  0.49184700  0.64893000  1
  Mg  Mg70  1  0.64336400  0.08742400  0.61190400  1
  Mg  Mg71  1  0.03068100  0.80627700  0.60909700  1
  Mg  Mg72  1  0.39022100  0.04948800  0.60246900  1
  Mg  Mg73  1  0.35663600  0.80579200  0.68264100  1
  Mg  Mg74  1  0.01360900  0.31184900  0.60760200  1
  Mg  Mg75  1  0.68159700  0.70677200  0.65626600  1
  Mg  Mg76  1  0.31840300  0.18644400  0.63828000  1
  Mg  Mg77  1  0.28146500  0.84162800  0.61883700  1
  Mg  Mg78  1  0.25099400  0.59919000  0.69967500  1
  Mg  Mg79  1  0.42824900  0.39303300  0.62175100  1
  Mg  Mg80  1  0.93076600  0.75065500  0.66474500  1
  Mg  Mg81  1  0.98639100  0.58136700  0.68694300  1
  Mg  Mg82  1  0.74900600  0.49402700  0.79487100  1
  Mg  Mg83  1  0.06923400  0.24256100  0.72980100  1
  Mg  Mg84  1  0.60977900  0.94372900  0.79207600  1
  Mg  Mg85  1  0.88387300  0.50136900  0.74561500  1
  Mg  Mg86  1  0.96931900  0.18693900  0.78544900  1
  Mg  Mg87  1  0.57175100  0.60018300  0.77279400  1
  Mg  Mg88  1  0.71853500  0.15158800  0.77570800  1
  Mg  Mg89  1  0.11612700  0.59184700  0.74893000  1
  Mg  Mg90  1  0.64336400  0.18742400  0.71190400  1
  Mg  Mg91  1  0.03068100  0.90627700  0.70909700  1
  Mg  Mg92  1  0.39022100  0.14948800  0.70246900  1
  Mg  Mg93  1  0.35663600  0.90579200  0.78264100  1
  Mg  Mg94  1  0.01360900  0.41184900  0.70760200  1
  Mg  Mg95  1  0.68159700  0.80677200  0.75626600  1
  Mg  Mg96  1  0.31840300  0.28644400  0.73828000  1
  Mg  Mg97  1  0.28146500  0.94162800  0.71883700  1
  Mg  Mg98  1  0.25099400  0.69919000  0.79967500  1
  Mg  Mg99  1  0.42824900  0.49303300  0.72175100  1
  Mg  Mg100  1  0.93076600  0.85065500  0.76474500  1
  Mg  Mg101  1  0.98639100  0.68136700  0.78694300  1
  Zn  Zn102  1  0.50000000  0.59660800  0.29727300  1
  Zn  Zn103  1  0.84920500  0.72253900  0.33091400  1
  Zn  Zn104  1  0.03575800  0.98411800  0.36739500  1
  Zn  Zn105  1  0.51358900  0.81850300  0.35631600  1
  Zn  Zn106  1  0.14473200  0.40238500  0.35473900  1
  Zn  Zn107  1  0.17856500  0.75010800  0.37400900  1
  Zn  Zn108  1  0.85936100  0.94029300  0.39048900  1
  Zn  Zn109  1  0.50000000  0.69660800  0.39727300  1
  Zn  Zn110  1  0.15079500  0.57067700  0.36363100  1
  Zn  Zn111  1  0.37496700  0.04189200  0.37965000  1
  Zn  Zn112  1  0.82105800  0.59362800  0.37117000  1
  Zn  Zn113  1  0.53087400  0.99052100  0.36671000  1
  Zn  Zn114  1  0.65881200  0.09651300  0.33398100  1
  Zn  Zn115  1  0.66294100  0.59947300  0.33373800  1
  Zn  Zn116  1  0.80881900  0.37735900  0.31040100  1
  Zn  Zn117  1  0.96424200  0.30909900  0.32715100  1
  Zn  Zn118  1  0.62503300  0.25132500  0.31489600  1
  Zn  Zn119  1  0.78829600  0.19979900  0.30080700  1
  Zn  Zn120  1  0.17894200  0.69958800  0.32337500  1
  Zn  Zn121  1  0.14063900  0.35292300  0.30405600  1
  Zn  Zn122  1  0.33705900  0.69374400  0.36080700  1
  Zn  Zn123  1  0.21170400  0.09341700  0.39373900  1
  Zn  Zn124  1  0.82143500  0.54310800  0.32053700  1
  Zn  Zn125  1  0.50000000  0.64660800  0.34727300  1
  Zn  Zn126  1  0.69712500  0.93810300  0.35423000  1
  Zn  Zn127  1  0.52936800  0.94051300  0.31617600  1
  Zn  Zn128  1  0.79093800  0.24963400  0.35246000  1
  Zn  Zn129  1  0.30287500  0.35511300  0.34031500  1
  Zn  Zn130  1  0.20906200  0.04358200  0.34208500  1
  Zn  Zn131  1  0.19118100  0.91585800  0.38414500  1
  Zn  Zn132  1  0.47063200  0.35270300  0.37837000  1
  Zn  Zn133  1  0.85526800  0.89083100  0.33980600  1
  Zn  Zn134  1  0.00000000  0.64660800  0.34727300  1
  Zn  Zn135  1  0.46912600  0.30269500  0.32783600  1
  Zn  Zn136  1  0.34118800  0.19670300  0.36056400  1
  Zn  Zn137  1  0.48641100  0.47471300  0.33823000  1
  Zn  Zn138  1  0.84920500  0.82253900  0.43091400  1
  Zn  Zn139  1  0.03575800  0.08411800  0.46739500  1
  Zn  Zn140  1  0.51358900  0.91850300  0.45631600  1
  Zn  Zn141  1  0.14473200  0.50238500  0.45473900  1
  Zn  Zn142  1  0.17856500  0.85010800  0.47400900  1
  Zn  Zn143  1  0.85936100  0.04029300  0.49048900  1
  Zn  Zn144  1  0.50000000  0.79660800  0.49727300  1
  Zn  Zn145  1  0.15079500  0.67067700  0.46363100  1
  Zn  Zn146  1  0.37496700  0.14189200  0.47965000  1
  Zn  Zn147  1  0.82105800  0.69362800  0.47117000  1
  Zn  Zn148  1  0.53087400  0.09052100  0.46671000  1
  Zn  Zn149  1  0.65881200  0.19651300  0.43398100  1
  Zn  Zn150  1  0.66294100  0.69947300  0.43373800  1
  Zn  Zn151  1  0.80881900  0.47735900  0.41040100  1
  Zn  Zn152  1  0.96424200  0.40909900  0.42715100  1
  Zn  Zn153  1  0.62503300  0.35132500  0.41489600  1
  Zn  Zn154  1  0.78829600  0.29979900  0.40080700  1
  Zn  Zn155  1  0.17894200  0.79958800  0.42337500  1
  Zn  Zn156  1  0.14063900  0.45292300  0.40405600  1
  Zn  Zn157  1  0.33705900  0.79374400  0.46080700  1
  Zn  Zn158  1  0.21170400  0.19341700  0.49373900  1
  Zn  Zn159  1  0.82143500  0.64310800  0.42053700  1
  Zn  Zn160  1  0.50000000  0.74660800  0.44727300  1
  Zn  Zn161  1  0.69712500  0.03810300  0.45423000  1
  Zn  Zn162  1  0.52936800  0.04051300  0.41617600  1
  Zn  Zn163  1  0.79093800  0.34963400  0.45246000  1
  Zn  Zn164  1  0.30287500  0.45511300  0.44031500  1
  Zn  Zn165  1  0.20906200  0.14358200  0.44208500  1
  Zn  Zn166  1  0.19118100  0.01585800  0.48414500  1
  Zn  Zn167  1  0.47063200  0.45270300  0.47837000  1
  Zn  Zn168  1  0.85526800  0.99083100  0.43980600  1
  Zn  Zn169  1  0.00000000  0.74660800  0.44727300  1
  Zn  Zn170  1  0.46912600  0.40269500  0.42783600  1
  Zn  Zn171  1  0.34118800  0.29670300  0.46056400  1
  Zn  Zn172  1  0.48641100  0.57471300  0.43823000  1
  Zn  Zn173  1  0.84920500  0.92253900  0.53091400  1
  Zn  Zn174  1  0.03575800  0.18411800  0.56739500  1
  Zn  Zn175  1  0.51358900  0.01850300  0.55631600  1
  Zn  Zn176  1  0.14473200  0.60238500  0.55473900  1
  Zn  Zn177  1  0.17856500  0.95010800  0.57400900  1
  Zn  Zn178  1  0.85936100  0.14029300  0.59048900  1
  Zn  Zn179  1  0.50000000  0.89660800  0.59727300  1
  Zn  Zn180  1  0.15079500  0.77067700  0.56363100  1
  Zn  Zn181  1  0.37496700  0.24189200  0.57965000  1
  Zn  Zn182  1  0.82105800  0.79362800  0.57117000  1
  Zn  Zn183  1  0.53087400  0.19052100  0.56671000  1
  Zn  Zn184  1  0.65881200  0.29651300  0.53398100  1
  Zn  Zn185  1  0.66294100  0.79947300  0.53373800  1
  Zn  Zn186  1  0.80881900  0.57735900  0.51040100  1
  Zn  Zn187  1  0.96424200  0.50909900  0.52715100  1
  Zn  Zn188  1  0.62503300  0.45132500  0.51489600  1
  Zn  Zn189  1  0.78829600  0.39979900  0.50080700  1
  Zn  Zn190  1  0.17894200  0.89958800  0.52337500  1
  Zn  Zn191  1  0.14063900  0.55292300  0.50405600  1
  Zn  Zn192  1  0.33705900  0.89374400  0.56080700  1
  Zn  Zn193  1  0.21170400  0.29341700  0.59373900  1
  Zn  Zn194  1  0.82143500  0.74310800  0.52053700  1
  Zn  Zn195  1  0.50000000  0.84660800  0.54727300  1
  Zn  Zn196  1  0.69712500  0.13810300  0.55423000  1
  Zn  Zn197  1  0.52936800  0.14051300  0.51617600  1
  Zn  Zn198  1  0.79093800  0.44963400  0.55246000  1
  Zn  Zn199  1  0.30287500  0.55511300  0.54031500  1
  Zn  Zn200  1  0.20906200  0.24358200  0.54208500  1
  Zn  Zn201  1  0.19118100  0.11585800  0.58414500  1
  Zn  Zn202  1  0.47063200  0.55270300  0.57837000  1
  Zn  Zn203  1  0.85526800  0.09083100  0.53980600  1
  Zn  Zn204  1  0.00000000  0.84660800  0.54727300  1
  Zn  Zn205  1  0.46912600  0.50269500  0.52783600  1
  Zn  Zn206  1  0.34118800  0.39670300  0.56056400  1
  Zn  Zn207  1  0.48641100  0.67471300  0.53823000  1
  Zn  Zn208  1  0.84920500  0.02253900  0.63091400  1
  Zn  Zn209  1  0.03575800  0.28411800  0.66739500  1
  Zn  Zn210  1  0.51358900  0.11850300  0.65631600  1
  Zn  Zn211  1  0.14473200  0.70238500  0.65473900  1
  Zn  Zn212  1  0.17856500  0.05010800  0.67400900  1
  Zn  Zn213  1  0.85936100  0.24029300  0.69048900  1
  Zn  Zn214  1  0.50000000  0.99660800  0.69727300  1
  Zn  Zn215  1  0.15079500  0.87067700  0.66363100  1
  Zn  Zn216  1  0.37496700  0.34189200  0.67965000  1
  Zn  Zn217  1  0.82105800  0.89362800  0.67117000  1
  Zn  Zn218  1  0.53087400  0.29052100  0.66671000  1
  Zn  Zn219  1  0.65881200  0.39651300  0.63398100  1
  Zn  Zn220  1  0.66294100  0.89947300  0.63373800  1
  Zn  Zn221  1  0.80881900  0.67735900  0.61040100  1
  Zn  Zn222  1  0.96424200  0.60909900  0.62715100  1
  Zn  Zn223  1  0.62503300  0.55132500  0.61489600  1
  Zn  Zn224  1  0.78829600  0.49979900  0.60080700  1
  Zn  Zn225  1  0.17894200  0.99958800  0.62337500  1
  Zn  Zn226  1  0.14063900  0.65292300  0.60405600  1
  Zn  Zn227  1  0.33705900  0.99374400  0.66080700  1
  Zn  Zn228  1  0.21170400  0.39341700  0.69373900  1
  Zn  Zn229  1  0.82143500  0.84310800  0.62053700  1
  Zn  Zn230  1  0.50000000  0.94660800  0.64727300  1
  Zn  Zn231  1  0.69712500  0.23810300  0.65423000  1
  Zn  Zn232  1  0.52936800  0.24051300  0.61617600  1
  Zn  Zn233  1  0.79093800  0.54963400  0.65246000  1
  Zn  Zn234  1  0.30287500  0.65511300  0.64031500  1
  Zn  Zn235  1  0.20906200  0.34358200  0.64208500  1
  Zn  Zn236  1  0.19118100  0.21585800  0.68414500  1
  Zn  Zn237  1  0.47063200  0.65270300  0.67837000  1
  Zn  Zn238  1  0.85526800  0.19083100  0.63980600  1
  Zn  Zn239  1  0.00000000  0.94660800  0.64727300  1
  Zn  Zn240  1  0.46912600  0.60269500  0.62783600  1
  Zn  Zn241  1  0.34118800  0.49670300  0.66056400  1
  Zn  Zn242  1  0.48641100  0.77471300  0.63823000  1
  Zn  Zn243  1  0.84920500  0.12253900  0.73091400  1
  Zn  Zn244  1  0.03575800  0.38411800  0.76739500  1
  Zn  Zn245  1  0.51358900  0.21850300  0.75631600  1
  Zn  Zn246  1  0.14473200  0.80238500  0.75473900  1
  Zn  Zn247  1  0.17856500  0.15010800  0.77400900  1
  Zn  Zn248  1  0.85936100  0.34029300  0.79048900  1
  Zn  Zn249  1  0.50000000  0.09660800  0.79727300  1
  Zn  Zn250  1  0.15079500  0.97067700  0.76363100  1
  Zn  Zn251  1  0.37496700  0.44189200  0.77965000  1
  Zn  Zn252  1  0.82105800  0.99362800  0.77117000  1
  Zn  Zn253  1  0.53087400  0.39052100  0.76671000  1
  Zn  Zn254  1  0.65881200  0.49651300  0.73398100  1
  Zn  Zn255  1  0.66294100  0.99947300  0.73373800  1
  Zn  Zn256  1  0.80881900  0.77735900  0.71040100  1
  Zn  Zn257  1  0.96424200  0.70909900  0.72715100  1
  Zn  Zn258  1  0.62503300  0.65132500  0.71489600  1
  Zn  Zn259  1  0.78829600  0.59979900  0.70080700  1
  Zn  Zn260  1  0.17894200  0.09958800  0.72337500  1
  Zn  Zn261  1  0.14063900  0.75292300  0.70405600  1
  Zn  Zn262  1  0.33705900  0.09374400  0.76080700  1
  Zn  Zn263  1  0.21170400  0.49341700  0.79373900  1
  Zn  Zn264  1  0.82143500  0.94310800  0.72053700  1
  Zn  Zn265  1  0.50000000  0.04660800  0.74727300  1
  Zn  Zn266  1  0.69712500  0.33810300  0.75423000  1
  Zn  Zn267  1  0.52936800  0.34051300  0.71617600  1
  Zn  Zn268  1  0.79093800  0.64963400  0.75246000  1
  Zn  Zn269  1  0.30287500  0.75511300  0.74031500  1
  Zn  Zn270  1  0.20906200  0.44358200  0.74208500  1
  Zn  Zn271  1  0.19118100  0.31585800  0.78414500  1
  Zn  Zn272  1  0.47063200  0.75270300  0.77837000  1
  Zn  Zn273  1  0.85526800  0.29083100  0.73980600  1
  Zn  Zn274  1  0.00000000  0.04660800  0.74727300  1
  Zn  Zn275  1  0.46912600  0.70269500  0.72783600  1
  Zn  Zn276  1  0.34118800  0.59670300  0.76056400  1
  Zn  Zn277  1  0.48641100  0.87471300  0.73823000  1
