# generated using pymatgen
data_Mg3Zn
_symmetry_space_group_name_H-M   'P 1'
_cell_length_a   7.89728269
_cell_length_b   7.89728290
_cell_length_c   41.87140800
_cell_angle_alpha   87.41717122
_cell_angle_beta   92.58282885
_cell_angle_gamma   95.25902179
_symmetry_Int_Tables_number   1
_chemical_formula_structural   Mg3Zn
_chemical_formula_sum   'Mg60 Zn20'
_cell_volume   2595.56276830
_cell_formula_units_Z   20
loop_
 _symmetry_equiv_pos_site_id
 _symmetry_equiv_pos_as_xyz
  1  'x, y, z'
loop_
 _atom_site_type_symbol
 _atom_site_label
 _atom_site_symmetry_multiplicity
 _atom_site_fract_x
 _atom_site_fract_y
 _atom_site_fract_z
 _atom_site_occupancy
  Mg  Mg0  1  0.26425300  0.07675300  0.20312500  1
  Mg  Mg1  1  0.94456000  0.88493700  0.23509400  1
  Mg  Mg2  1  0.44743700  0.38206000  0.23365600  1
  Mg  Mg3  1  0.43044000  0.74006300  0.20240600  1
  Mg  Mg4  1  0.92756300  0.24294000  0.20384400  1
  Mg  Mg5  1  0.11074700  0.54824700  0.23437500  1
  Mg  Mg6  1  0.63925300  0.70175300  0.26562500  1
  Mg  Mg7  1  0.31956000  0.50993700  0.29759400  1
  Mg  Mg8  1  0.82243700  0.00706000  0.29615600  1
  Mg  Mg9  1  0.80544000  0.36506300  0.26490600  1
  Mg  Mg10  1  0.30256300  0.86794000  0.26634400  1
  Mg  Mg11  1  0.48574700  0.17324700  0.29687500  1
  Mg  Mg12  1  0.01425300  0.32675300  0.32812500  1
  Mg  Mg13  1  0.69456000  0.13493700  0.36009400  1
  Mg  Mg14  1  0.19743700  0.63206000  0.35865600  1
  Mg  Mg15  1  0.18044000  0.99006300  0.32740600  1
  Mg  Mg16  1  0.67756300  0.49294000  0.32884400  1
  Mg  Mg17  1  0.86074700  0.79824700  0.35937500  1
  Mg  Mg18  1  0.38925300  0.95175300  0.39062500  1
  Mg  Mg19  1  0.06956000  0.75993700  0.42259400  1
  Mg  Mg20  1  0.57243700  0.25706000  0.42115600  1
  Mg  Mg21  1  0.55544000  0.61506300  0.38990600  1
  Mg  Mg22  1  0.05256300  0.11794000  0.39134400  1
  Mg  Mg23  1  0.23574700  0.42324700  0.42187500  1
  Mg  Mg24  1  0.76425300  0.57675300  0.45312500  1
  Mg  Mg25  1  0.44456000  0.38493700  0.48509400  1
  Mg  Mg26  1  0.94743700  0.88206000  0.48365600  1
  Mg  Mg27  1  0.93044000  0.24006300  0.45240600  1
  Mg  Mg28  1  0.42756300  0.74294000  0.45384400  1
  Mg  Mg29  1  0.61074700  0.04824700  0.48437500  1
  Mg  Mg30  1  0.13925300  0.20175300  0.51562500  1
  Mg  Mg31  1  0.81956000  0.00993700  0.54759400  1
  Mg  Mg32  1  0.32243700  0.50706000  0.54615600  1
  Mg  Mg33  1  0.30544000  0.86506300  0.51490600  1
  Mg  Mg34  1  0.80256300  0.36794000  0.51634400  1
  Mg  Mg35  1  0.98574700  0.67324700  0.54687500  1
  Mg  Mg36  1  0.51425300  0.82675300  0.57812500  1
  Mg  Mg37  1  0.19456000  0.63493700  0.61009400  1
  Mg  Mg38  1  0.69743700  0.13206000  0.60865600  1
  Mg  Mg39  1  0.68044000  0.49006300  0.57740600  1
  Mg  Mg40  1  0.17756300  0.99294000  0.57884400  1
  Mg  Mg41  1  0.36074700  0.29824700  0.60937500  1
  Mg  Mg42  1  0.88925300  0.45175300  0.64062500  1
  Mg  Mg43  1  0.56956000  0.25993700  0.67259400  1
  Mg  Mg44  1  0.07243700  0.75706000  0.67115600  1
  Mg  Mg45  1  0.05544000  0.11506300  0.63990600  1
  Mg  Mg46  1  0.55256300  0.61794000  0.64134400  1
  Mg  Mg47  1  0.73574700  0.92324700  0.67187500  1
  Mg  Mg48  1  0.26425300  0.07675300  0.70312500  1
  Mg  Mg49  1  0.94456000  0.88493700  0.73509400  1
  Mg  Mg50  1  0.44743700  0.38206000  0.73365600  1
  Mg  Mg51  1  0.43044000  0.74006300  0.70240600  1
  Mg  Mg52  1  0.92756300  0.24294000  0.70384400  1
  Mg  Mg53  1  0.11074700  0.54824700  0.73437500  1
  Mg  Mg54  1  0.63925300  0.70175300  0.76562500  1
  Mg  Mg55  1  0.31956000  0.50993700  0.79759400  1
  Mg  Mg56  1  0.82243700  0.00706000  0.79615600  1
  Mg  Mg57  1  0.80544000  0.36506300  0.76490600  1
  Mg  Mg58  1  0.30256300  0.86794000  0.76634400  1
  Mg  Mg59  1  0.48574700  0.17324700  0.79687500  1
  Zn  Zn60  1  0.76041700  0.57291700  0.20312500  1
  Zn  Zn61  1  0.61458300  0.05208300  0.23437500  1
  Zn  Zn62  1  0.13541700  0.19791700  0.26562500  1
  Zn  Zn63  1  0.98958300  0.67708300  0.29687500  1
  Zn  Zn64  1  0.51041700  0.82291700  0.32812500  1
  Zn  Zn65  1  0.36458300  0.30208300  0.35937500  1
  Zn  Zn66  1  0.88541700  0.44791700  0.39062500  1
  Zn  Zn67  1  0.73958300  0.92708300  0.42187500  1
  Zn  Zn68  1  0.26041700  0.07291700  0.45312500  1
  Zn  Zn69  1  0.11458300  0.55208300  0.48437500  1
  Zn  Zn70  1  0.63541700  0.69791700  0.51562500  1
  Zn  Zn71  1  0.48958300  0.17708300  0.54687500  1
  Zn  Zn72  1  0.01041700  0.32291700  0.57812500  1
  Zn  Zn73  1  0.86458300  0.80208300  0.60937500  1
  Zn  Zn74  1  0.38541700  0.94791700  0.64062500  1
  Zn  Zn75  1  0.23958300  0.42708300  0.67187500  1
  Zn  Zn76  1  0.76041700  0.57291700  0.70312500  1
  Zn  Zn77  1  0.61458300  0.05208300  0.73437500  1
  Zn  Zn78  1  0.13541700  0.19791700  0.76562500  1
  Zn  Zn79  1  0.98958300  0.67708300  0.79687500  1
