# generated using pymatgen
data_Pr10Mg17
_symmetry_space_group_name_H-M   'P 1'
_cell_length_a   6.18580419
_cell_length_b   6.18580418
_cell_length_c   40.56303100
_cell_angle_alpha   85.62699472
_cell_angle_beta   85.62699473
_cell_angle_gamma   60.00000547
_symmetry_Int_Tables_number   1
_chemical_formula_structural   Pr10Mg17
_chemical_formula_sum   'Pr10 Mg17'
_cell_volume   1338.94741635
_cell_formula_units_Z   1
loop_
 _symmetry_equiv_pos_site_id
 _symmetry_equiv_pos_as_xyz
  1  'x, y, z'
loop_
 _atom_site_type_symbol
 _atom_site_label
 _atom_site_symmetry_multiplicity
 _atom_site_fract_x
 _atom_site_fract_y
 _atom_site_fract_z
 _atom_site_occupancy
  Pr  Pr0  1  0.34375000  0.57812500  0.73437500  1
  Pr  Pr1  1  0.68750000  0.92187500  0.70312500  1
  Pr  Pr2  1  0.71875000  0.95312500  0.60937500  1
  Pr  Pr3  1  0.06250000  0.29687500  0.57812500  1
  Pr  Pr4  1  0.09375000  0.32812500  0.48437500  1
  Pr  Pr5  1  0.43750000  0.67187500  0.45312500  1
  Pr  Pr6  1  0.46875000  0.70312500  0.35937500  1
  Pr  Pr7  1  0.81250000  0.04687500  0.32812500  1
  Pr  Pr8  1  0.84375000  0.07812500  0.23437500  1
  Pr  Pr9  1  0.18750000  0.42187500  0.20312500  1
  Mg  Mg10  1  0.01562500  0.25000000  0.71875000  1
  Mg  Mg11  1  0.70312500  0.43750000  0.65625000  1
  Mg  Mg12  1  0.20312500  0.43750000  0.65625000  1
  Mg  Mg13  1  0.20312500  0.93750000  0.65625000  1
  Mg  Mg14  1  0.39062500  0.62500000  0.59375000  1
  Mg  Mg15  1  0.07812500  0.81250000  0.53125000  1
  Mg  Mg16  1  0.57812500  0.81250000  0.53125000  1
  Mg  Mg17  1  0.57812500  0.31250000  0.53125000  1
  Mg  Mg18  1  0.76562500  0.00000000  0.46875000  1
  Mg  Mg19  1  0.45312500  0.18750000  0.40625000  1
  Mg  Mg20  1  0.95312500  0.18750000  0.40625000  1
  Mg  Mg21  1  0.95312500  0.68750000  0.40625000  1
  Mg  Mg22  1  0.14062500  0.37500000  0.34375000  1
  Mg  Mg23  1  0.82812500  0.56250000  0.28125000  1
  Mg  Mg24  1  0.32812500  0.56250000  0.28125000  1
  Mg  Mg25  1  0.32812500  0.06250000  0.28125000  1
  Mg  Mg26  1  0.51562500  0.75000000  0.21875000  1
