# generated using pymatgen
data_Ho3Mg
_symmetry_space_group_name_H-M   'P 1'
_cell_length_a   4.95026500
_cell_length_b   9.53334000
_cell_length_c   44.55238300
_cell_angle_alpha   90.00000000
_cell_angle_beta   90.00000000
_cell_angle_gamma   90.00000000
_symmetry_Int_Tables_number   1
_chemical_formula_structural   Ho3Mg
_chemical_formula_sum   'Ho33 Mg11'
_cell_volume   2102.54097825
_cell_formula_units_Z   11
loop_
 _symmetry_equiv_pos_site_id
 _symmetry_equiv_pos_as_xyz
  1  'x, y, z'
loop_
 _atom_site_type_symbol
 _atom_site_label
 _atom_site_symmetry_multiplicity
 _atom_site_fract_x
 _atom_site_fract_y
 _atom_site_fract_z
 _atom_site_occupancy
  Ho  Ho0  1  0.25000000  0.23912600  0.22222200  1
  Ho  Ho1  1  0.75000000  0.50000000  0.22222200  1
  Ho  Ho2  1  0.25000000  0.76087400  0.22222200  1
  Ho  Ho3  1  0.75000000  0.23912600  0.27777800  1
  Ho  Ho4  1  0.25000000  0.50000000  0.27777800  1
  Ho  Ho5  1  0.75000000  0.76087400  0.27777800  1
  Ho  Ho6  1  0.25000000  0.23912600  0.33333300  1
  Ho  Ho7  1  0.75000000  0.50000000  0.33333300  1
  Ho  Ho8  1  0.25000000  0.76087400  0.33333300  1
  Ho  Ho9  1  0.75000000  0.23912600  0.38888900  1
  Ho  Ho10  1  0.25000000  0.50000000  0.38888900  1
  Ho  Ho11  1  0.75000000  0.76087400  0.38888900  1
  Ho  Ho12  1  0.25000000  0.23912600  0.44444400  1
  Ho  Ho13  1  0.75000000  0.50000000  0.44444400  1
  Ho  Ho14  1  0.25000000  0.76087400  0.44444400  1
  Ho  Ho15  1  0.75000000  0.23912600  0.50000000  1
  Ho  Ho16  1  0.25000000  0.50000000  0.50000000  1
  Ho  Ho17  1  0.75000000  0.76087400  0.50000000  1
  Ho  Ho18  1  0.25000000  0.23912600  0.55555600  1
  Ho  Ho19  1  0.75000000  0.50000000  0.55555600  1
  Ho  Ho20  1  0.25000000  0.76087400  0.55555600  1
  Ho  Ho21  1  0.75000000  0.23912600  0.61111100  1
  Ho  Ho22  1  0.25000000  0.50000000  0.61111100  1
  Ho  Ho23  1  0.75000000  0.76087400  0.61111100  1
  Ho  Ho24  1  0.25000000  0.23912600  0.66666700  1
  Ho  Ho25  1  0.75000000  0.50000000  0.66666700  1
  Ho  Ho26  1  0.25000000  0.76087400  0.66666700  1
  Ho  Ho27  1  0.75000000  0.23912600  0.72222200  1
  Ho  Ho28  1  0.25000000  0.50000000  0.72222200  1
  Ho  Ho29  1  0.75000000  0.76087400  0.72222200  1
  Ho  Ho30  1  0.25000000  0.23912600  0.77777800  1
  Ho  Ho31  1  0.75000000  0.50000000  0.77777800  1
  Ho  Ho32  1  0.25000000  0.76087400  0.77777800  1
  Mg  Mg33  1  0.75000000  0.00000000  0.22222200  1
  Mg  Mg34  1  0.25000000  0.00000000  0.27777800  1
  Mg  Mg35  1  0.75000000  0.00000000  0.33333300  1
  Mg  Mg36  1  0.25000000  0.00000000  0.38888900  1
  Mg  Mg37  1  0.75000000  0.00000000  0.44444400  1
  Mg  Mg38  1  0.25000000  0.00000000  0.50000000  1
  Mg  Mg39  1  0.75000000  0.00000000  0.55555600  1
  Mg  Mg40  1  0.25000000  0.00000000  0.61111100  1
  Mg  Mg41  1  0.75000000  0.00000000  0.66666700  1
  Mg  Mg42  1  0.25000000  0.00000000  0.72222200  1
  Mg  Mg43  1  0.75000000  0.00000000  0.77777800  1
