# generated using pymatgen
data_Mg11Ir16
_symmetry_space_group_name_H-M   'P 1'
_cell_length_a   8.54477469
_cell_length_b   9.72091536
_cell_length_c   40.45091800
_cell_angle_alpha   92.27818184
_cell_angle_beta   91.63073542
_cell_angle_gamma   96.80090534
_symmetry_Int_Tables_number   1
_chemical_formula_structural   Mg11Ir16
_chemical_formula_sum   'Mg44 Ir64'
_cell_volume   3331.83388964
_cell_formula_units_Z   4
loop_
 _symmetry_equiv_pos_site_id
 _symmetry_equiv_pos_as_xyz
  1  'x, y, z'
loop_
 _atom_site_type_symbol
 _atom_site_label
 _atom_site_symmetry_multiplicity
 _atom_site_fract_x
 _atom_site_fract_y
 _atom_site_fract_z
 _atom_site_occupancy
  Mg  Mg0  1  0.91533800  0.37379700  0.69498300  1
  Mg  Mg1  1  0.08466200  0.42430600  0.76501700  1
  Mg  Mg2  1  0.61669600  0.73423800  0.78567900  1
  Mg  Mg3  1  0.38330400  0.93886500  0.79932100  1
  Mg  Mg4  1  0.55549200  0.35387600  0.69365500  1
  Mg  Mg5  1  0.44450800  0.44422600  0.76634500  1
  Mg  Mg6  1  0.99788700  0.98224000  0.80221300  1
  Mg  Mg7  1  0.00211300  0.69086300  0.78278700  1
  Mg  Mg8  1  0.81855800  0.85961700  0.72737100  1
  Mg  Mg9  1  0.18144200  0.93848600  0.73262900  1
  Mg  Mg10  1  0.91533800  0.49879700  0.56998300  1
  Mg  Mg11  1  0.08466200  0.54930600  0.64001700  1
  Mg  Mg12  1  0.61669600  0.85923800  0.66067900  1
  Mg  Mg13  1  0.38330400  0.06386500  0.67432100  1
  Mg  Mg14  1  0.55549200  0.47887600  0.56865500  1
  Mg  Mg15  1  0.44450800  0.56922600  0.64134500  1
  Mg  Mg16  1  0.99788700  0.10724000  0.67721300  1
  Mg  Mg17  1  0.00211300  0.81586300  0.65778700  1
  Mg  Mg18  1  0.81855800  0.98461700  0.60237100  1
  Mg  Mg19  1  0.18144200  0.06348600  0.60762900  1
  Mg  Mg20  1  0.91533800  0.62379700  0.44498300  1
  Mg  Mg21  1  0.08466200  0.67430600  0.51501700  1
  Mg  Mg22  1  0.61669600  0.98423800  0.53567900  1
  Mg  Mg23  1  0.38330400  0.18886500  0.54932100  1
  Mg  Mg24  1  0.55549200  0.60387600  0.44365500  1
  Mg  Mg25  1  0.44450800  0.69422600  0.51634500  1
  Mg  Mg26  1  0.99788700  0.23224000  0.55221300  1
  Mg  Mg27  1  0.00211300  0.94086300  0.53278700  1
  Mg  Mg28  1  0.81855800  0.10961700  0.47737100  1
  Mg  Mg29  1  0.18144200  0.18848600  0.48262900  1
  Mg  Mg30  1  0.91533800  0.74879700  0.31998300  1
  Mg  Mg31  1  0.08466200  0.79930600  0.39001700  1
  Mg  Mg32  1  0.61669600  0.10923800  0.41067900  1
  Mg  Mg33  1  0.38330400  0.31386500  0.42432100  1
  Mg  Mg34  1  0.55549200  0.72887600  0.31865500  1
  Mg  Mg35  1  0.44450800  0.81922600  0.39134500  1
  Mg  Mg36  1  0.99788700  0.35724000  0.42721300  1
  Mg  Mg37  1  0.00211300  0.06586300  0.40778700  1
  Mg  Mg38  1  0.81855800  0.23461700  0.35237100  1
  Mg  Mg39  1  0.18144200  0.31348600  0.35762900  1
  Mg  Mg40  1  0.61669600  0.23423800  0.28567900  1
  Mg  Mg41  1  0.38330400  0.43886500  0.29932100  1
  Mg  Mg42  1  0.99788700  0.48224000  0.30221300  1
  Mg  Mg43  1  0.00211300  0.19086300  0.28278700  1
  Ir  Ir44  1  0.97167900  0.14490400  0.74639000  1
  Ir  Ir45  1  0.02832100  0.65319900  0.71361000  1
  Ir  Ir46  1  0.77047200  0.49046800  0.80269600  1
  Ir  Ir47  1  0.22952800  0.18263500  0.78230400  1
  Ir  Ir48  1  0.22952800  0.24525700  0.71968200  1
  Ir  Ir49  1  0.77047200  0.55284600  0.74031800  1
  Ir  Ir50  1  0.50000000  0.89905100  0.73000000  1
  Ir  Ir51  1  0.25697700  0.49411900  0.70300500  1
  Ir  Ir52  1  0.74302300  0.30398300  0.75699500  1
  Ir  Ir53  1  0.53311500  0.64437300  0.71302100  1
  Ir  Ir54  1  0.46688500  0.15373000  0.74697900  1
  Ir  Ir55  1  0.70409300  0.03598300  0.77460400  1
  Ir  Ir56  1  0.29590700  0.63712000  0.81039600  1
  Ir  Ir57  1  0.29590700  0.69560400  0.75191200  1
  Ir  Ir58  1  0.70409300  0.10249800  0.70808800  1
  Ir  Ir59  1  0.97167900  0.26990400  0.62139000  1
  Ir  Ir60  1  0.02832100  0.77819900  0.58861000  1
  Ir  Ir61  1  0.77047200  0.61546800  0.67769600  1
  Ir  Ir62  1  0.22952800  0.30763500  0.65730400  1
  Ir  Ir63  1  0.22952800  0.37025700  0.59468200  1
  Ir  Ir64  1  0.77047200  0.67784600  0.61531800  1
  Ir  Ir65  1  0.50000000  0.02405100  0.60500000  1
  Ir  Ir66  1  0.25697700  0.61911900  0.57800500  1
  Ir  Ir67  1  0.74302300  0.42898300  0.63199500  1
  Ir  Ir68  1  0.53311500  0.76937300  0.58802100  1
  Ir  Ir69  1  0.46688500  0.27873000  0.62197900  1
  Ir  Ir70  1  0.70409300  0.16098300  0.64960400  1
  Ir  Ir71  1  0.29590700  0.76212000  0.68539600  1
  Ir  Ir72  1  0.29590700  0.82060400  0.62691200  1
  Ir  Ir73  1  0.70409300  0.22749800  0.58308800  1
  Ir  Ir74  1  0.97167900  0.39490400  0.49639000  1
  Ir  Ir75  1  0.02832100  0.90319900  0.46361000  1
  Ir  Ir76  1  0.77047200  0.74046800  0.55269600  1
  Ir  Ir77  1  0.22952800  0.43263500  0.53230400  1
  Ir  Ir78  1  0.22952800  0.49525700  0.46968200  1
  Ir  Ir79  1  0.77047200  0.80284600  0.49031800  1
  Ir  Ir80  1  0.50000000  0.14905100  0.48000000  1
  Ir  Ir81  1  0.25697700  0.74411900  0.45300500  1
  Ir  Ir82  1  0.74302300  0.55398300  0.50699500  1
  Ir  Ir83  1  0.53311500  0.89437300  0.46302100  1
  Ir  Ir84  1  0.46688500  0.40373000  0.49697900  1
  Ir  Ir85  1  0.70409300  0.28598300  0.52460400  1
  Ir  Ir86  1  0.29590700  0.88712000  0.56039600  1
  Ir  Ir87  1  0.29590700  0.94560400  0.50191200  1
  Ir  Ir88  1  0.70409300  0.35249800  0.45808800  1
  Ir  Ir89  1  0.97167900  0.51990400  0.37139000  1
  Ir  Ir90  1  0.02832100  0.02819900  0.33861000  1
  Ir  Ir91  1  0.77047200  0.86546800  0.42769600  1
  Ir  Ir92  1  0.22952800  0.55763500  0.40730400  1
  Ir  Ir93  1  0.22952800  0.62025700  0.34468200  1
  Ir  Ir94  1  0.77047200  0.92784600  0.36531800  1
  Ir  Ir95  1  0.50000000  0.27405100  0.35500000  1
  Ir  Ir96  1  0.25697700  0.86911900  0.32800500  1
  Ir  Ir97  1  0.74302300  0.67898300  0.38199500  1
  Ir  Ir98  1  0.53311500  0.01937300  0.33802100  1
  Ir  Ir99  1  0.46688500  0.52873000  0.37197900  1
  Ir  Ir100  1  0.70409300  0.41098300  0.39960400  1
  Ir  Ir101  1  0.29590700  0.01212000  0.43539600  1
  Ir  Ir102  1  0.29590700  0.07060400  0.37691200  1
  Ir  Ir103  1  0.70409300  0.47749800  0.33308800  1
  Ir  Ir104  1  0.77047200  0.99046800  0.30269600  1
  Ir  Ir105  1  0.22952800  0.68263500  0.28230400  1
  Ir  Ir106  1  0.70409300  0.53598300  0.27460400  1
  Ir  Ir107  1  0.29590700  0.13712000  0.31039600  1
