# generated using pymatgen
data_MgPb
_symmetry_space_group_name_H-M   'P 1'
_cell_length_a   6.27756332
_cell_length_b   6.83301719
_cell_length_c   41.55959300
_cell_angle_alpha   90.98588911
_cell_angle_beta   89.86933671
_cell_angle_gamma   73.64349051
_symmetry_Int_Tables_number   1
_chemical_formula_structural   MgPb
_chemical_formula_sum   'Mg20 Pb20'
_cell_volume   1710.23693644
_cell_formula_units_Z   20
loop_
 _symmetry_equiv_pos_site_id
 _symmetry_equiv_pos_as_xyz
  1  'x, y, z'
loop_
 _atom_site_type_symbol
 _atom_site_label
 _atom_site_symmetry_multiplicity
 _atom_site_fract_x
 _atom_site_fract_y
 _atom_site_fract_z
 _atom_site_occupancy
  Mg  Mg0  1  0.51661300  0.00850700  0.24584700  1
  Mg  Mg1  1  0.23338700  0.80399300  0.19165300  1
  Mg  Mg2  1  0.26661300  0.82100700  0.30834700  1
  Mg  Mg3  1  0.98338700  0.61649300  0.25415300  1
  Mg  Mg4  1  0.01661300  0.63350700  0.37084700  1
  Mg  Mg5  1  0.73338700  0.42899300  0.31665300  1
  Mg  Mg6  1  0.76661300  0.44600700  0.43334700  1
  Mg  Mg7  1  0.48338700  0.24149300  0.37915300  1
  Mg  Mg8  1  0.51661300  0.25850700  0.49584700  1
  Mg  Mg9  1  0.23338700  0.05399300  0.44165300  1
  Mg  Mg10  1  0.26661300  0.07100700  0.55834700  1
  Mg  Mg11  1  0.98338700  0.86649300  0.50415300  1
  Mg  Mg12  1  0.01661300  0.88350700  0.62084700  1
  Mg  Mg13  1  0.73338700  0.67899300  0.56665300  1
  Mg  Mg14  1  0.76661300  0.69600700  0.68334700  1
  Mg  Mg15  1  0.48338700  0.49149300  0.62915300  1
  Mg  Mg16  1  0.51661300  0.50850700  0.74584700  1
  Mg  Mg17  1  0.23338700  0.30399300  0.69165300  1
  Mg  Mg18  1  0.26661300  0.32100700  0.80834700  1
  Mg  Mg19  1  0.98338700  0.11649300  0.75415300  1
  Pb  Pb20  1  0.51099600  0.52676300  0.24725100  1
  Pb  Pb21  1  0.23900400  0.28573700  0.19024900  1
  Pb  Pb22  1  0.26099600  0.33926300  0.30975100  1
  Pb  Pb23  1  0.98900400  0.09823700  0.25274900  1
  Pb  Pb24  1  0.01099600  0.15176300  0.37225100  1
  Pb  Pb25  1  0.73900400  0.91073700  0.31524900  1
  Pb  Pb26  1  0.76099600  0.96426300  0.43475100  1
  Pb  Pb27  1  0.48900400  0.72323700  0.37774900  1
  Pb  Pb28  1  0.51099600  0.77676300  0.49725100  1
  Pb  Pb29  1  0.23900400  0.53573700  0.44024900  1
  Pb  Pb30  1  0.26099600  0.58926300  0.55975100  1
  Pb  Pb31  1  0.98900400  0.34823700  0.50274900  1
  Pb  Pb32  1  0.01099600  0.40176300  0.62225100  1
  Pb  Pb33  1  0.73900400  0.16073700  0.56524900  1
  Pb  Pb34  1  0.76099600  0.21426300  0.68475100  1
  Pb  Pb35  1  0.48900400  0.97323700  0.62774900  1
  Pb  Pb36  1  0.51099600  0.02676300  0.74725100  1
  Pb  Pb37  1  0.23900400  0.78573700  0.69024900  1
  Pb  Pb38  1  0.26099600  0.83926300  0.80975100  1
  Pb  Pb39  1  0.98900400  0.59823700  0.75274900  1
