# generated using pymatgen
data_Sr2Mg
_symmetry_space_group_name_H-M   'P 1'
_cell_length_a   5.83337000
_cell_length_b   15.54546606
_cell_length_c   43.49746700
_cell_angle_alpha   81.01977214
_cell_angle_beta   90.00000000
_cell_angle_gamma   79.18590984
_symmetry_Int_Tables_number   1
_chemical_formula_structural   Sr2Mg
_chemical_formula_sum   'Sr36 Mg18'
_cell_volume   3825.17262411
_cell_formula_units_Z   18
loop_
 _symmetry_equiv_pos_site_id
 _symmetry_equiv_pos_as_xyz
  1  'x, y, z'
loop_
 _atom_site_type_symbol
 _atom_site_label
 _atom_site_symmetry_multiplicity
 _atom_site_fract_x
 _atom_site_fract_y
 _atom_site_fract_z
 _atom_site_occupancy
  Sr  Sr0  1  0.83373200  0.08253600  0.25946700  1
  Sr  Sr1  1  0.69960100  0.35079700  0.20720000  1
  Sr  Sr2  1  0.56706500  0.61586900  0.22613400  1
  Sr  Sr3  1  0.96626800  0.81746400  0.24053300  1
  Sr  Sr4  1  0.36706500  0.01586900  0.32613400  1
  Sr  Sr5  1  0.23293500  0.28413100  0.27386600  1
  Sr  Sr6  1  0.10039900  0.54920300  0.29280000  1
  Sr  Sr7  1  0.49960100  0.75079700  0.30720000  1
  Sr  Sr8  1  0.90039900  0.94920300  0.39280000  1
  Sr  Sr9  1  0.76626800  0.21746400  0.34053300  1
  Sr  Sr10  1  0.63373200  0.48253600  0.35946700  1
  Sr  Sr11  1  0.03293500  0.68413100  0.37386600  1
  Sr  Sr12  1  0.43373200  0.88253600  0.45946700  1
  Sr  Sr13  1  0.29960100  0.15079700  0.40720000  1
  Sr  Sr14  1  0.16706500  0.41586900  0.42613400  1
  Sr  Sr15  1  0.56626800  0.61746400  0.44053300  1
  Sr  Sr16  1  0.96706500  0.81586900  0.52613400  1
  Sr  Sr17  1  0.83293500  0.08413100  0.47386600  1
  Sr  Sr18  1  0.70039900  0.34920300  0.49280000  1
  Sr  Sr19  1  0.09960100  0.55079700  0.50720000  1
  Sr  Sr20  1  0.50039900  0.74920300  0.59280000  1
  Sr  Sr21  1  0.36626800  0.01746400  0.54053300  1
  Sr  Sr22  1  0.23373200  0.28253600  0.55946700  1
  Sr  Sr23  1  0.63293500  0.48413100  0.57386600  1
  Sr  Sr24  1  0.03373200  0.68253600  0.65946700  1
  Sr  Sr25  1  0.89960100  0.95079700  0.60720000  1
  Sr  Sr26  1  0.76706500  0.21586900  0.62613400  1
  Sr  Sr27  1  0.16626800  0.41746400  0.64053300  1
  Sr  Sr28  1  0.56706500  0.61586900  0.72613400  1
  Sr  Sr29  1  0.43293500  0.88413100  0.67386600  1
  Sr  Sr30  1  0.30039900  0.14920300  0.69280000  1
  Sr  Sr31  1  0.69960100  0.35079700  0.70720000  1
  Sr  Sr32  1  0.10039900  0.54920300  0.79280000  1
  Sr  Sr33  1  0.96626800  0.81746400  0.74053300  1
  Sr  Sr34  1  0.83373200  0.08253600  0.75946700  1
  Sr  Sr35  1  0.23293500  0.28413100  0.77386600  1
  Mg  Mg36  1  0.40000000  0.95000000  0.25000000  1
  Mg  Mg37  1  0.13333300  0.48333300  0.21666700  1
  Mg  Mg38  1  0.93333300  0.88333300  0.31666700  1
  Mg  Mg39  1  0.66666700  0.41666700  0.28333300  1
  Mg  Mg40  1  0.46666700  0.81666700  0.38333300  1
  Mg  Mg41  1  0.20000000  0.35000000  0.35000000  1
  Mg  Mg42  1  1.00000000  0.75000000  0.45000000  1
  Mg  Mg43  1  0.73333300  0.28333300  0.41666700  1
  Mg  Mg44  1  0.53333300  0.68333300  0.51666700  1
  Mg  Mg45  1  0.26666700  0.21666700  0.48333300  1
  Mg  Mg46  1  0.06666700  0.61666700  0.58333300  1
  Mg  Mg47  1  0.80000000  0.15000000  0.55000000  1
  Mg  Mg48  1  0.60000000  0.55000000  0.65000000  1
  Mg  Mg49  1  0.33333300  0.08333300  0.61666700  1
  Mg  Mg50  1  0.13333300  0.48333300  0.71666700  1
  Mg  Mg51  1  0.86666700  0.01666700  0.68333300  1
  Mg  Mg52  1  0.66666700  0.41666700  0.78333300  1
  Mg  Mg53  1  0.40000000  0.95000000  0.75000000  1
