# generated using pymatgen
data_Mg20Au61
_symmetry_space_group_name_H-M   'P 1'
_cell_length_a   10.43041218
_cell_length_b   11.29953425
_cell_length_c   49.40543900
_cell_angle_alpha   85.63582371
_cell_angle_beta   88.14566253
_cell_angle_gamma   98.74753851
_symmetry_Int_Tables_number   1
_chemical_formula_structural   Mg20Au61
_chemical_formula_sum   'Mg40 Au122'
_cell_volume   5732.74310784
_cell_formula_units_Z   2
loop_
 _symmetry_equiv_pos_site_id
 _symmetry_equiv_pos_as_xyz
  1  'x, y, z'
loop_
 _atom_site_type_symbol
 _atom_site_label
 _atom_site_symmetry_multiplicity
 _atom_site_fract_x
 _atom_site_fract_y
 _atom_site_fract_z
 _atom_site_occupancy
  Mg  Mg0  1  0.28595900  0.98086700  0.64065900  1
  Mg  Mg1  1  0.81543600  0.90766600  0.66559100  1
  Mg  Mg2  1  0.76527600  0.55654900  0.61543200  1
  Mg  Mg3  1  0.33611900  0.33198400  0.69081800  1
  Mg  Mg4  1  0.00490300  0.60808800  0.68185100  1
  Mg  Mg5  1  0.09649200  0.28044400  0.62439900  1
  Mg  Mg6  1  0.47515600  0.68233900  0.65710100  1
  Mg  Mg7  1  0.62623900  0.20619400  0.64914900  1
  Mg  Mg8  1  0.18595900  0.28086700  0.54065900  1
  Mg  Mg9  1  0.71543600  0.20766600  0.56559100  1
  Mg  Mg10  1  0.66527600  0.85654900  0.51543200  1
  Mg  Mg11  1  0.23611900  0.63198400  0.59081800  1
  Mg  Mg12  1  0.90490300  0.90808800  0.58185100  1
  Mg  Mg13  1  0.99649200  0.58044400  0.52439900  1
  Mg  Mg14  1  0.37515600  0.98233900  0.55710100  1
  Mg  Mg15  1  0.52623900  0.50619400  0.54914900  1
  Mg  Mg16  1  0.08595900  0.58086700  0.44065900  1
  Mg  Mg17  1  0.61543600  0.50766600  0.46559100  1
  Mg  Mg18  1  0.56527600  0.15654900  0.41543200  1
  Mg  Mg19  1  0.13611900  0.93198400  0.49081800  1
  Mg  Mg20  1  0.80490300  0.20808800  0.48185100  1
  Mg  Mg21  1  0.89649200  0.88044400  0.42439900  1
  Mg  Mg22  1  0.27515600  0.28233900  0.45710100  1
  Mg  Mg23  1  0.42623900  0.80619400  0.44914900  1
  Mg  Mg24  1  0.98595900  0.88086700  0.34065900  1
  Mg  Mg25  1  0.51543600  0.80766600  0.36559100  1
  Mg  Mg26  1  0.46527600  0.45654900  0.31543200  1
  Mg  Mg27  1  0.03611900  0.23198400  0.39081800  1
  Mg  Mg28  1  0.70490300  0.50808800  0.38185100  1
  Mg  Mg29  1  0.79649200  0.18044400  0.32439900  1
  Mg  Mg30  1  0.17515600  0.58233900  0.35710100  1
  Mg  Mg31  1  0.32623900  0.10619400  0.34914900  1
  Mg  Mg32  1  0.88595900  0.18086700  0.24065900  1
  Mg  Mg33  1  0.41543600  0.10766600  0.26559100  1
  Mg  Mg34  1  0.36527600  0.75654900  0.21543200  1
  Mg  Mg35  1  0.93611900  0.53198400  0.29081800  1
  Mg  Mg36  1  0.60490300  0.80808800  0.28185100  1
  Mg  Mg37  1  0.69649200  0.48044400  0.22439900  1
  Mg  Mg38  1  0.07515600  0.88233900  0.25710100  1
  Mg  Mg39  1  0.22623900  0.40619400  0.24914900  1
  Au  Au40  1  0.60069700  0.79426600  0.70312500  1
  Au  Au41  1  0.60069700  0.29426600  0.70312500  1
  Au  Au42  1  0.07558500  0.36960300  0.67801300  1
  Au  Au43  1  0.07581000  0.86893000  0.67823700  1
  Au  Au44  1  0.02581000  0.51893000  0.62823700  1
  Au  Au45  1  0.02558500  0.01960300  0.62801300  1
  Au  Au46  1  0.81128000  0.40683900  0.66578400  1
  Au  Au47  1  0.29011500  0.48169300  0.64046600  1
  Au  Au48  1  0.34022500  0.83246200  0.69057600  1
  Au  Au49  1  0.76117000  0.05607000  0.61567400  1
  Au  Au50  1  0.36109000  0.24263100  0.63700400  1
  Au  Au51  1  0.69071300  0.79467600  0.61965500  1
  Au  Au52  1  0.74030500  0.64590200  0.66924600  1
  Au  Au53  1  0.41068200  0.09385600  0.68659500  1
  Au  Au54  1  0.88533800  0.16829900  0.66178100  1
  Au  Au55  1  0.26596800  0.57050300  0.69437900  1
  Au  Au56  1  0.21605700  0.72023400  0.64446900  1
  Au  Au57  1  0.83542700  0.31802900  0.61187100  1
  Au  Au58  1  0.55069700  0.94426600  0.65312500  1
  Au  Au59  1  0.50069700  0.09426600  0.60312500  1
  Au  Au60  1  0.50069700  0.59426600  0.60312500  1
  Au  Au61  1  0.55069700  0.44426600  0.65312500  1
  Au  Au62  1  0.42807200  0.83279900  0.60694700  1
  Au  Au63  1  0.67332300  0.05573400  0.69930300  1
  Au  Au64  1  0.94858700  0.75709100  0.63218300  1
  Au  Au65  1  0.15280800  0.13144200  0.67406700  1
  Au  Au66  1  0.97558500  0.66960300  0.57801300  1
  Au  Au67  1  0.97581000  0.16893000  0.57823700  1
  Au  Au68  1  0.92581000  0.81893000  0.52823700  1
  Au  Au69  1  0.92558500  0.31960300  0.52801300  1
  Au  Au70  1  0.71128000  0.70683900  0.56578400  1
  Au  Au71  1  0.19011500  0.78169300  0.54046600  1
  Au  Au72  1  0.24022500  0.13246200  0.59057600  1
  Au  Au73  1  0.66117000  0.35607000  0.51567400  1
  Au  Au74  1  0.26109000  0.54263100  0.53700400  1
  Au  Au75  1  0.59071300  0.09467600  0.51965500  1
  Au  Au76  1  0.64030500  0.94590200  0.56924600  1
  Au  Au77  1  0.31068200  0.39385600  0.58659500  1
  Au  Au78  1  0.78533800  0.46829900  0.56178100  1
  Au  Au79  1  0.16596800  0.87050300  0.59437900  1
  Au  Au80  1  0.11605700  0.02023400  0.54446900  1
  Au  Au81  1  0.73542700  0.61802900  0.51187100  1
  Au  Au82  1  0.45069700  0.24426600  0.55312500  1
  Au  Au83  1  0.40069700  0.39426600  0.50312500  1
  Au  Au84  1  0.40069700  0.89426600  0.50312500  1
  Au  Au85  1  0.45069700  0.74426600  0.55312500  1
  Au  Au86  1  0.32807200  0.13279900  0.50694700  1
  Au  Au87  1  0.57332300  0.35573400  0.59930300  1
  Au  Au88  1  0.84858700  0.05709100  0.53218300  1
  Au  Au89  1  0.05280800  0.43144200  0.57406700  1
  Au  Au90  1  0.87558500  0.96960300  0.47801300  1
  Au  Au91  1  0.87581000  0.46893000  0.47823700  1
  Au  Au92  1  0.82581000  0.11893000  0.42823700  1
  Au  Au93  1  0.82558500  0.61960300  0.42801300  1
  Au  Au94  1  0.61128000  0.00683900  0.46578400  1
  Au  Au95  1  0.09011500  0.08169300  0.44046600  1
  Au  Au96  1  0.14022500  0.43246200  0.49057600  1
  Au  Au97  1  0.56117000  0.65607000  0.41567400  1
  Au  Au98  1  0.16109000  0.84263100  0.43700400  1
  Au  Au99  1  0.49071300  0.39467600  0.41965500  1
  Au  Au100  1  0.54030500  0.24590200  0.46924600  1
  Au  Au101  1  0.21068200  0.69385600  0.48659500  1
  Au  Au102  1  0.68533800  0.76829900  0.46178100  1
  Au  Au103  1  0.06596800  0.17050300  0.49437900  1
  Au  Au104  1  0.01605700  0.32023400  0.44446900  1
  Au  Au105  1  0.63542700  0.91802900  0.41187100  1
  Au  Au106  1  0.35069700  0.54426600  0.45312500  1
  Au  Au107  1  0.30069700  0.69426600  0.40312500  1
  Au  Au108  1  0.30069700  0.19426600  0.40312500  1
  Au  Au109  1  0.35069700  0.04426600  0.45312500  1
  Au  Au110  1  0.22807200  0.43279900  0.40694700  1
  Au  Au111  1  0.47332300  0.65573400  0.49930300  1
  Au  Au112  1  0.74858700  0.35709100  0.43218300  1
  Au  Au113  1  0.95280800  0.73144200  0.47406700  1
  Au  Au114  1  0.77558500  0.26960300  0.37801300  1
  Au  Au115  1  0.77581000  0.76893000  0.37823700  1
  Au  Au116  1  0.72581000  0.41893000  0.32823700  1
  Au  Au117  1  0.72558500  0.91960300  0.32801300  1
  Au  Au118  1  0.51128000  0.30683900  0.36578400  1
  Au  Au119  1  0.99011500  0.38169300  0.34046600  1
  Au  Au120  1  0.04022500  0.73246200  0.39057600  1
  Au  Au121  1  0.46117000  0.95607000  0.31567400  1
  Au  Au122  1  0.06109000  0.14263100  0.33700400  1
  Au  Au123  1  0.39071300  0.69467600  0.31965500  1
  Au  Au124  1  0.44030500  0.54590200  0.36924600  1
  Au  Au125  1  0.11068200  0.99385600  0.38659500  1
  Au  Au126  1  0.58533800  0.06829900  0.36178100  1
  Au  Au127  1  0.96596800  0.47050300  0.39437900  1
  Au  Au128  1  0.91605700  0.62023400  0.34446900  1
  Au  Au129  1  0.53542700  0.21802900  0.31187100  1
  Au  Au130  1  0.25069700  0.84426600  0.35312500  1
  Au  Au131  1  0.20069700  0.99426600  0.30312500  1
  Au  Au132  1  0.20069700  0.49426600  0.30312500  1
  Au  Au133  1  0.25069700  0.34426600  0.35312500  1
  Au  Au134  1  0.12807200  0.73279900  0.30694700  1
  Au  Au135  1  0.37332300  0.95573400  0.39930300  1
  Au  Au136  1  0.64858700  0.65709100  0.33218300  1
  Au  Au137  1  0.85280800  0.03144200  0.37406700  1
  Au  Au138  1  0.67558500  0.56960300  0.27801300  1
  Au  Au139  1  0.67581000  0.06893000  0.27823700  1
  Au  Au140  1  0.62581000  0.71893000  0.22823700  1
  Au  Au141  1  0.62558500  0.21960300  0.22801300  1
  Au  Au142  1  0.41128000  0.60683900  0.26578400  1
  Au  Au143  1  0.89011500  0.68169300  0.24046600  1
  Au  Au144  1  0.94022500  0.03246200  0.29057600  1
  Au  Au145  1  0.36117000  0.25607000  0.21567400  1
  Au  Au146  1  0.96109000  0.44263100  0.23700400  1
  Au  Au147  1  0.29071300  0.99467600  0.21965500  1
  Au  Au148  1  0.34030500  0.84590200  0.26924600  1
  Au  Au149  1  0.01068200  0.29385600  0.28659500  1
  Au  Au150  1  0.48533800  0.36829900  0.26178100  1
  Au  Au151  1  0.86596800  0.77050300  0.29437900  1
  Au  Au152  1  0.81605700  0.92023400  0.24446900  1
  Au  Au153  1  0.43542700  0.51802900  0.21187100  1
  Au  Au154  1  0.15069700  0.14426600  0.25312500  1
  Au  Au155  1  0.10069700  0.29426600  0.20312500  1
  Au  Au156  1  0.10069700  0.79426600  0.20312500  1
  Au  Au157  1  0.15069700  0.64426600  0.25312500  1
  Au  Au158  1  0.02807200  0.03279900  0.20694700  1
  Au  Au159  1  0.27332300  0.25573400  0.29930300  1
  Au  Au160  1  0.54858700  0.95709100  0.23218300  1
  Au  Au161  1  0.75280800  0.33144200  0.27406700  1
