# generated using pymatgen
data_Mg3Pb
_symmetry_space_group_name_H-M   'P 1'
_cell_length_a   5.23940800
_cell_length_b   6.53025100
_cell_length_c   45.24290600
_cell_angle_alpha   90.00000000
_cell_angle_beta   90.00000000
_cell_angle_gamma   90.00000000
_symmetry_Int_Tables_number   1
_chemical_formula_structural   Mg3Pb
_chemical_formula_sum   'Mg30 Pb10'
_cell_volume   1547.97016352
_cell_formula_units_Z   10
loop_
 _symmetry_equiv_pos_site_id
 _symmetry_equiv_pos_as_xyz
  1  'x, y, z'
loop_
 _atom_site_type_symbol
 _atom_site_label
 _atom_site_symmetry_multiplicity
 _atom_site_fract_x
 _atom_site_fract_y
 _atom_site_fract_z
 _atom_site_occupancy
  Mg  Mg0  1  0.75000000  0.75000000  0.29069400  1
  Mg  Mg1  1  0.75000000  0.50583900  0.22965300  1
  Mg  Mg2  1  0.75000000  0.99416100  0.22965300  1
  Mg  Mg3  1  0.25000000  0.50583900  0.27034700  1
  Mg  Mg4  1  0.25000000  0.99416100  0.27034700  1
  Mg  Mg5  1  0.25000000  0.75000000  0.20930600  1
  Mg  Mg6  1  0.75000000  0.25000000  0.41569400  1
  Mg  Mg7  1  0.75000000  0.00583900  0.35465300  1
  Mg  Mg8  1  0.75000000  0.49416100  0.35465300  1
  Mg  Mg9  1  0.25000000  0.00583900  0.39534700  1
  Mg  Mg10  1  0.25000000  0.49416100  0.39534700  1
  Mg  Mg11  1  0.25000000  0.25000000  0.33430600  1
  Mg  Mg12  1  0.75000000  0.75000000  0.54069400  1
  Mg  Mg13  1  0.75000000  0.50583900  0.47965300  1
  Mg  Mg14  1  0.75000000  0.99416100  0.47965300  1
  Mg  Mg15  1  0.25000000  0.50583900  0.52034700  1
  Mg  Mg16  1  0.25000000  0.99416100  0.52034700  1
  Mg  Mg17  1  0.25000000  0.75000000  0.45930600  1
  Mg  Mg18  1  0.75000000  0.25000000  0.66569400  1
  Mg  Mg19  1  0.75000000  0.00583900  0.60465300  1
  Mg  Mg20  1  0.75000000  0.49416100  0.60465300  1
  Mg  Mg21  1  0.25000000  0.00583900  0.64534700  1
  Mg  Mg22  1  0.25000000  0.49416100  0.64534700  1
  Mg  Mg23  1  0.25000000  0.25000000  0.58430600  1
  Mg  Mg24  1  0.75000000  0.75000000  0.79069400  1
  Mg  Mg25  1  0.75000000  0.50583900  0.72965300  1
  Mg  Mg26  1  0.75000000  0.99416100  0.72965300  1
  Mg  Mg27  1  0.25000000  0.50583900  0.77034700  1
  Mg  Mg28  1  0.25000000  0.99416100  0.77034700  1
  Mg  Mg29  1  0.25000000  0.75000000  0.70930600  1
  Pb  Pb30  1  0.75000000  0.25000000  0.29166700  1
  Pb  Pb31  1  0.25000000  0.25000000  0.20833300  1
  Pb  Pb32  1  0.75000000  0.75000000  0.41666700  1
  Pb  Pb33  1  0.25000000  0.75000000  0.33333300  1
  Pb  Pb34  1  0.75000000  0.25000000  0.54166700  1
  Pb  Pb35  1  0.25000000  0.25000000  0.45833300  1
  Pb  Pb36  1  0.75000000  0.75000000  0.66666700  1
  Pb  Pb37  1  0.25000000  0.75000000  0.58333300  1
  Pb  Pb38  1  0.75000000  0.25000000  0.79166700  1
  Pb  Pb39  1  0.25000000  0.25000000  0.70833300  1
