# generated using pymatgen
data_Mg10Zn23
_symmetry_space_group_name_H-M   'P 1'
_cell_length_a   5.22493414
_cell_length_b   5.22493380
_cell_length_c   42.76792700
_cell_angle_alpha   86.49791894
_cell_angle_beta   86.49791917
_cell_angle_gamma   60.00000073
_symmetry_Int_Tables_number   1
_chemical_formula_structural   Mg10Zn23
_chemical_formula_sum   'Mg10 Zn23'
_cell_volume   1008.61962656
_cell_formula_units_Z   1
loop_
 _symmetry_equiv_pos_site_id
 _symmetry_equiv_pos_as_xyz
  1  'x, y, z'
loop_
 _atom_site_type_symbol
 _atom_site_label
 _atom_site_symmetry_multiplicity
 _atom_site_fract_x
 _atom_site_fract_y
 _atom_site_fract_z
 _atom_site_occupancy
  Mg  Mg0  1  0.31250000  0.90000000  0.26250000  1
  Mg  Mg1  1  0.63750000  0.22500000  0.28750000  1
  Mg  Mg2  1  0.61250000  0.20000000  0.36250000  1
  Mg  Mg3  1  0.93750000  0.52500000  0.38750000  1
  Mg  Mg4  1  0.91250000  0.50000000  0.46250000  1
  Mg  Mg5  1  0.23750000  0.82500000  0.48750000  1
  Mg  Mg6  1  0.21250000  0.80000000  0.56250000  1
  Mg  Mg7  1  0.53750000  0.12500000  0.58750000  1
  Mg  Mg8  1  0.51250000  0.10000000  0.66250000  1
  Mg  Mg9  1  0.83750000  0.42500000  0.68750000  1
  Zn  Zn10  1  0.97500000  0.56250000  0.27500000  1
  Zn  Zn11  1  0.32500000  0.41250000  0.22500000  1
  Zn  Zn12  1  0.82500000  0.41250000  0.22500000  1
  Zn  Zn13  1  0.82500000  0.91250000  0.22500000  1
  Zn  Zn14  1  0.27500000  0.86250000  0.37500000  1
  Zn  Zn15  1  0.62500000  0.71250000  0.32500000  1
  Zn  Zn16  1  0.12500000  0.71250000  0.32500000  1
  Zn  Zn17  1  0.12500000  0.21250000  0.32500000  1
  Zn  Zn18  1  0.57500000  0.16250000  0.47500000  1
  Zn  Zn19  1  0.92500000  0.01250000  0.42500000  1
  Zn  Zn20  1  0.42500000  0.01250000  0.42500000  1
  Zn  Zn21  1  0.42500000  0.51250000  0.42500000  1
  Zn  Zn22  1  0.87500000  0.46250000  0.57500000  1
  Zn  Zn23  1  0.22500000  0.31250000  0.52500000  1
  Zn  Zn24  1  0.72500000  0.31250000  0.52500000  1
  Zn  Zn25  1  0.72500000  0.81250000  0.52500000  1
  Zn  Zn26  1  0.17500000  0.76250000  0.67500000  1
  Zn  Zn27  1  0.52500000  0.61250000  0.62500000  1
  Zn  Zn28  1  0.02500000  0.61250000  0.62500000  1
  Zn  Zn29  1  0.02500000  0.11250000  0.62500000  1
  Zn  Zn30  1  0.82500000  0.91250000  0.72500000  1
  Zn  Zn31  1  0.32500000  0.91250000  0.72500000  1
  Zn  Zn32  1  0.32500000  0.41250000  0.72500000  1
