# generated using pymatgen
data_Mg3Tl
_symmetry_space_group_name_H-M   'P 1'
_cell_length_a   8.28726971
_cell_length_b   8.28726989
_cell_length_c   43.95256900
_cell_angle_alpha   87.35279435
_cell_angle_beta   92.64720570
_cell_angle_gamma   95.18472838
_symmetry_Int_Tables_number   1
_chemical_formula_structural   Mg3Tl
_chemical_formula_sum   'Mg60 Tl20'
_cell_volume   3000.37380995
_cell_formula_units_Z   20
loop_
 _symmetry_equiv_pos_site_id
 _symmetry_equiv_pos_as_xyz
  1  'x, y, z'
loop_
 _atom_site_type_symbol
 _atom_site_label
 _atom_site_symmetry_multiplicity
 _atom_site_fract_x
 _atom_site_fract_y
 _atom_site_fract_z
 _atom_site_occupancy
  Mg  Mg0  1  0.76179100  0.07311300  0.20283100  1
  Mg  Mg1  1  0.26061300  0.57429100  0.20341900  1
  Mg  Mg2  1  0.44634600  0.88384600  0.23437500  1
  Mg  Mg3  1  0.92865400  0.74115400  0.20312500  1
  Mg  Mg4  1  0.11438700  0.05070900  0.23408100  1
  Mg  Mg5  1  0.61320900  0.55188700  0.23466900  1
  Mg  Mg6  1  0.13679100  0.69811300  0.26533100  1
  Mg  Mg7  1  0.63561300  0.19929100  0.26591900  1
  Mg  Mg8  1  0.82134600  0.50884600  0.29687500  1
  Mg  Mg9  1  0.30365400  0.36615400  0.26562500  1
  Mg  Mg10  1  0.48938700  0.67570900  0.29658100  1
  Mg  Mg11  1  0.98820900  0.17688700  0.29716900  1
  Mg  Mg12  1  0.51179100  0.32311300  0.32783100  1
  Mg  Mg13  1  0.01061300  0.82429100  0.32841900  1
  Mg  Mg14  1  0.19634600  0.13384600  0.35937500  1
  Mg  Mg15  1  0.67865400  0.99115400  0.32812500  1
  Mg  Mg16  1  0.86438700  0.30070900  0.35908100  1
  Mg  Mg17  1  0.36320900  0.80188700  0.35966900  1
  Mg  Mg18  1  0.88679100  0.94811300  0.39033100  1
  Mg  Mg19  1  0.38561300  0.44929100  0.39091900  1
  Mg  Mg20  1  0.57134600  0.75884600  0.42187500  1
  Mg  Mg21  1  0.05365400  0.61615400  0.39062500  1
  Mg  Mg22  1  0.23938700  0.92570900  0.42158100  1
  Mg  Mg23  1  0.73820900  0.42688700  0.42216900  1
  Mg  Mg24  1  0.26179100  0.57311300  0.45283100  1
  Mg  Mg25  1  0.76061300  0.07429100  0.45341900  1
  Mg  Mg26  1  0.94634600  0.38384600  0.48437500  1
  Mg  Mg27  1  0.42865400  0.24115400  0.45312500  1
  Mg  Mg28  1  0.61438700  0.55070900  0.48408100  1
  Mg  Mg29  1  0.11320900  0.05188700  0.48466900  1
  Mg  Mg30  1  0.63679100  0.19811300  0.51533100  1
  Mg  Mg31  1  0.13561300  0.69929100  0.51591900  1
  Mg  Mg32  1  0.32134600  0.00884600  0.54687500  1
  Mg  Mg33  1  0.80365400  0.86615400  0.51562500  1
  Mg  Mg34  1  0.98938700  0.17570900  0.54658100  1
  Mg  Mg35  1  0.48820900  0.67688700  0.54716900  1
  Mg  Mg36  1  0.01179100  0.82311300  0.57783100  1
  Mg  Mg37  1  0.51061300  0.32429100  0.57841900  1
  Mg  Mg38  1  0.69634600  0.63384600  0.60937500  1
  Mg  Mg39  1  0.17865400  0.49115400  0.57812500  1
  Mg  Mg40  1  0.36438700  0.80070900  0.60908100  1
  Mg  Mg41  1  0.86320900  0.30188700  0.60966900  1
  Mg  Mg42  1  0.38679100  0.44811300  0.64033100  1
  Mg  Mg43  1  0.88561300  0.94929100  0.64091900  1
  Mg  Mg44  1  0.07134600  0.25884600  0.67187500  1
  Mg  Mg45  1  0.55365400  0.11615400  0.64062500  1
  Mg  Mg46  1  0.73938700  0.42570900  0.67158100  1
  Mg  Mg47  1  0.23820900  0.92688700  0.67216900  1
  Mg  Mg48  1  0.76179100  0.07311300  0.70283100  1
  Mg  Mg49  1  0.26061300  0.57429100  0.70341900  1
  Mg  Mg50  1  0.44634600  0.88384600  0.73437500  1
  Mg  Mg51  1  0.92865400  0.74115400  0.70312500  1
  Mg  Mg52  1  0.11438700  0.05070900  0.73408100  1
  Mg  Mg53  1  0.61320900  0.55188700  0.73466900  1
  Mg  Mg54  1  0.13679100  0.69811300  0.76533100  1
  Mg  Mg55  1  0.63561300  0.19929100  0.76591900  1
  Mg  Mg56  1  0.82134600  0.50884600  0.79687500  1
  Mg  Mg57  1  0.30365400  0.36615400  0.76562500  1
  Mg  Mg58  1  0.48938700  0.67570900  0.79658100  1
  Mg  Mg59  1  0.98820900  0.17688700  0.79716900  1
  Tl  Tl60  1  0.94791700  0.38541700  0.23437500  1
  Tl  Tl61  1  0.42708300  0.23958300  0.20312500  1
  Tl  Tl62  1  0.32291700  0.01041700  0.29687500  1
  Tl  Tl63  1  0.80208300  0.86458300  0.26562500  1
  Tl  Tl64  1  0.69791700  0.63541700  0.35937500  1
  Tl  Tl65  1  0.17708300  0.48958300  0.32812500  1
  Tl  Tl66  1  0.07291700  0.26041700  0.42187500  1
  Tl  Tl67  1  0.55208300  0.11458300  0.39062500  1
  Tl  Tl68  1  0.44791700  0.88541700  0.48437500  1
  Tl  Tl69  1  0.92708300  0.73958300  0.45312500  1
  Tl  Tl70  1  0.82291700  0.51041700  0.54687500  1
  Tl  Tl71  1  0.30208300  0.36458300  0.51562500  1
  Tl  Tl72  1  0.19791700  0.13541700  0.60937500  1
  Tl  Tl73  1  0.67708300  0.98958300  0.57812500  1
  Tl  Tl74  1  0.57291700  0.76041700  0.67187500  1
  Tl  Tl75  1  0.05208300  0.61458300  0.64062500  1
  Tl  Tl76  1  0.94791700  0.38541700  0.73437500  1
  Tl  Tl77  1  0.42708300  0.23958300  0.70312500  1
  Tl  Tl78  1  0.32291700  0.01041700  0.79687500  1
  Tl  Tl79  1  0.80208300  0.86458300  0.76562500  1
