# generated using pymatgen
data_Ce19Mg9
_symmetry_space_group_name_H-M   'P 1'
_cell_length_a   3.15985600
_cell_length_b   19.24522921
_cell_length_c   41.11903400
_cell_angle_alpha   100.94963191
_cell_angle_beta   90.00000000
_cell_angle_gamma   90.00000000
_symmetry_Int_Tables_number   1
_chemical_formula_structural   Ce19Mg9
_chemical_formula_sum   'Ce38 Mg18'
_cell_volume   2455.01356562
_cell_formula_units_Z   2
loop_
 _symmetry_equiv_pos_site_id
 _symmetry_equiv_pos_as_xyz
  1  'x, y, z'
loop_
 _atom_site_type_symbol
 _atom_site_label
 _atom_site_symmetry_multiplicity
 _atom_site_fract_x
 _atom_site_fract_y
 _atom_site_fract_z
 _atom_site_occupancy
  Ce  Ce0  1  0.00000000  0.96975200  0.28705500  1
  Ce  Ce1  1  0.50000000  0.82348400  0.30795000  1
  Ce  Ce2  1  0.00000000  0.84312000  0.23371600  1
  Ce  Ce3  1  0.50000000  0.69685300  0.25461200  1
  Ce  Ce4  1  0.00000000  0.26098400  0.24545000  1
  Ce  Ce5  1  0.50000000  0.40562000  0.29621600  1
  Ce  Ce6  1  1.00000000  0.09475200  0.41205500  1
  Ce  Ce7  1  0.50000000  0.94848400  0.43295000  1
  Ce  Ce8  1  0.00000000  0.96812000  0.35871600  1
  Ce  Ce9  1  0.50000000  0.82185300  0.37961200  1
  Ce  Ce10  1  0.50000000  0.53225200  0.34955500  1
  Ce  Ce11  1  0.00000000  0.38598400  0.37045000  1
  Ce  Ce12  1  0.50000000  0.53062000  0.42121600  1
  Ce  Ce13  1  1.00000000  0.25935300  0.31711200  1
  Ce  Ce14  1  0.00000000  0.21975200  0.53705500  1
  Ce  Ce15  1  0.50000000  0.07348400  0.55795000  1
  Ce  Ce16  1  0.00000000  0.09312000  0.48371600  1
  Ce  Ce17  1  0.50000000  0.94685300  0.50461200  1
  Ce  Ce18  1  0.50000000  0.65725200  0.47455500  1
  Ce  Ce19  1  1.00000000  0.51098400  0.49545000  1
  Ce  Ce20  1  0.50000000  0.65562000  0.54621600  1
  Ce  Ce21  1  0.00000000  0.38435300  0.44211200  1
  Ce  Ce22  1  0.00000000  0.34475200  0.66205500  1
  Ce  Ce23  1  0.50000000  0.19848400  0.68295000  1
  Ce  Ce24  1  0.00000000  0.21812000  0.60871600  1
  Ce  Ce25  1  0.50000000  0.07185300  0.62961200  1
  Ce  Ce26  1  0.50000000  0.78225200  0.59955500  1
  Ce  Ce27  1  0.00000000  0.63598400  0.62045000  1
  Ce  Ce28  1  0.50000000  0.78062000  0.67121600  1
  Ce  Ce29  1  0.00000000  0.50935300  0.56711200  1
  Ce  Ce30  1  0.00000000  0.46975200  0.78705500  1
  Ce  Ce31  1  0.50000000  0.32348400  0.80795000  1
  Ce  Ce32  1  0.00000000  0.34312000  0.73371600  1
  Ce  Ce33  1  0.50000000  0.19685300  0.75461200  1
  Ce  Ce34  1  0.50000000  0.90725200  0.72455500  1
  Ce  Ce35  1  0.00000000  0.76098400  0.74545000  1
  Ce  Ce36  1  0.50000000  0.90562000  0.79621600  1
  Ce  Ce37  1  0.00000000  0.63435300  0.69211200  1
  Mg  Mg38  1  0.50000000  0.11914500  0.26571300  1
  Mg  Mg39  1  0.00000000  0.54746000  0.27595400  1
  Mg  Mg40  1  1.00000000  0.68164500  0.32821300  1
  Mg  Mg41  1  0.50000000  0.10996000  0.33845400  1
  Mg  Mg42  1  0.50000000  0.24414500  0.39071300  1
  Mg  Mg43  1  1.00000000  0.67246000  0.40095400  1
  Mg  Mg44  1  0.00000000  0.80664500  0.45321300  1
  Mg  Mg45  1  0.50000000  0.23496000  0.46345400  1
  Mg  Mg46  1  0.50000000  0.36914500  0.51571300  1
  Mg  Mg47  1  0.00000000  0.79746000  0.52595400  1
  Mg  Mg48  1  0.00000000  0.93164500  0.57821300  1
  Mg  Mg49  1  0.50000000  0.35996000  0.58845400  1
  Mg  Mg50  1  0.50000000  0.49414500  0.64071300  1
  Mg  Mg51  1  0.00000000  0.92246000  0.65095400  1
  Mg  Mg52  1  0.00000000  0.05664500  0.70321300  1
  Mg  Mg53  1  0.50000000  0.48496000  0.71345400  1
  Mg  Mg54  1  0.50000000  0.61914500  0.76571300  1
  Mg  Mg55  1  1.00000000  0.04746000  0.77595400  1
