# generated using pymatgen
data_HoMg5
_symmetry_space_group_name_H-M   'P 1'
_cell_length_a   6.18220920
_cell_length_b   7.17151038
_cell_length_c   45.26682200
_cell_angle_alpha   92.17274786
_cell_angle_beta   93.07705159
_cell_angle_gamma   107.10606248
_symmetry_Int_Tables_number   1
_chemical_formula_structural   HoMg5
_chemical_formula_sum   'Ho8 Mg40'
_cell_volume   1912.35643604
_cell_formula_units_Z   8
loop_
 _symmetry_equiv_pos_site_id
 _symmetry_equiv_pos_as_xyz
  1  'x, y, z'
loop_
 _atom_site_type_symbol
 _atom_site_label
 _atom_site_symmetry_multiplicity
 _atom_site_fract_x
 _atom_site_fract_y
 _atom_site_fract_z
 _atom_site_occupancy
  Ho  Ho0  1  0.30731300  0.53827200  0.23076900  1
  Ho  Ho1  1  0.53808200  0.61519500  0.30769200  1
  Ho  Ho2  1  0.76885100  0.69211800  0.38461500  1
  Ho  Ho3  1  0.99962000  0.76904100  0.46153800  1
  Ho  Ho4  1  0.23038900  0.84596400  0.53846200  1
  Ho  Ho5  1  0.46115900  0.92288700  0.61538500  1
  Ho  Ho6  1  0.69192800  0.99981000  0.69230800  1
  Ho  Ho7  1  0.92269700  0.07673300  0.76923100  1
  Mg  Mg8  1  0.73587800  0.39196400  0.25561400  1
  Mg  Mg9  1  0.88748200  0.16640200  0.20554400  1
  Mg  Mg10  1  0.30731300  0.03827200  0.23076900  1
  Mg  Mg11  1  0.72714300  0.91014200  0.25599400  1
  Mg  Mg12  1  0.87874700  0.68457900  0.20592400  1
  Mg  Mg13  1  0.96664700  0.46888700  0.33253700  1
  Mg  Mg14  1  0.11825100  0.24332500  0.28246800  1
  Mg  Mg15  1  0.53808200  0.11519500  0.30769200  1
  Mg  Mg16  1  0.95791200  0.98706500  0.33291700  1
  Mg  Mg17  1  0.10951600  0.76150200  0.28284700  1
  Mg  Mg18  1  0.19741600  0.54581000  0.40946000  1
  Mg  Mg19  1  0.34902100  0.32024800  0.35939100  1
  Mg  Mg20  1  0.76885100  0.19211800  0.38461500  1
  Mg  Mg21  1  0.18868100  0.06398800  0.40984000  1
  Mg  Mg22  1  0.34028600  0.83842500  0.35977000  1
  Mg  Mg23  1  0.42818600  0.62273300  0.48638300  1
  Mg  Mg24  1  0.57979000  0.39717100  0.43631400  1
  Mg  Mg25  1  0.99962000  0.26904100  0.46153800  1
  Mg  Mg26  1  0.41945100  0.14091100  0.48676300  1
  Mg  Mg27  1  0.57105500  0.91534800  0.43669300  1
  Mg  Mg28  1  0.65895500  0.69965600  0.56330700  1
  Mg  Mg29  1  0.81055900  0.47409400  0.51323700  1
  Mg  Mg30  1  0.23038900  0.34596400  0.53846200  1
  Mg  Mg31  1  0.65022000  0.21783400  0.56368600  1
  Mg  Mg32  1  0.80182400  0.99227100  0.51361700  1
  Mg  Mg33  1  0.88972400  0.77658000  0.64023000  1
  Mg  Mg34  1  0.04132800  0.55101700  0.59016000  1
  Mg  Mg35  1  0.46115900  0.42288700  0.61538500  1
  Mg  Mg36  1  0.88098900  0.29475700  0.64060900  1
  Mg  Mg37  1  0.03259300  0.06919500  0.59054000  1
  Mg  Mg38  1  0.12049300  0.85350300  0.71715300  1
  Mg  Mg39  1  0.27209700  0.62794000  0.66708300  1
  Mg  Mg40  1  0.69192800  0.49981000  0.69230800  1
  Mg  Mg41  1  0.11175800  0.37168000  0.71753200  1
  Mg  Mg42  1  0.26336200  0.14611800  0.66746300  1
  Mg  Mg43  1  0.35126300  0.93042600  0.79407600  1
  Mg  Mg44  1  0.50286700  0.70486300  0.74400600  1
  Mg  Mg45  1  0.92269700  0.57673300  0.76923100  1
  Mg  Mg46  1  0.34252800  0.44860300  0.79445600  1
  Mg  Mg47  1  0.49413200  0.22304100  0.74438600  1
