# generated using pymatgen
data_Mg7Zn31
_symmetry_space_group_name_H-M   'P 1'
_cell_length_a   4.98183600
_cell_length_b   9.38239070
_cell_length_c   50.43080200
_cell_angle_alpha   88.98550828
_cell_angle_beta   90.00000000
_cell_angle_gamma   90.00000000
_symmetry_Int_Tables_number   1
_chemical_formula_structural   Mg7Zn31
_chemical_formula_sum   'Mg14 Zn62'
_cell_volume   2356.84343743
_cell_formula_units_Z   2
loop_
 _symmetry_equiv_pos_site_id
 _symmetry_equiv_pos_as_xyz
  1  'x, y, z'
loop_
 _atom_site_type_symbol
 _atom_site_label
 _atom_site_symmetry_multiplicity
 _atom_site_fract_x
 _atom_site_fract_y
 _atom_site_fract_z
 _atom_site_occupancy
  Mg  Mg0  1  0.50000000  0.36885900  0.17047700  1
  Mg  Mg1  1  0.00000000  0.56078300  0.19063500  1
  Mg  Mg2  1  0.50000000  0.38196000  0.44011300  1
  Mg  Mg3  1  1.00000000  0.54768100  0.25433200  1
  Mg  Mg4  1  0.00000000  0.86885900  0.33714300  1
  Mg  Mg5  1  0.50000000  0.06078300  0.35730100  1
  Mg  Mg6  1  1.00000000  0.88196000  0.27344600  1
  Mg  Mg7  1  0.50000000  0.04768100  0.42099800  1
  Mg  Mg8  1  0.50000000  0.36885900  0.50381000  1
  Mg  Mg9  1  1.00000000  0.56078300  0.52396800  1
  Mg  Mg10  1  1.00000000  0.54768100  0.58766500  1
  Mg  Mg11  1  1.00000000  0.86885900  0.67047700  1
  Mg  Mg12  1  0.50000000  0.06078300  0.69063500  1
  Mg  Mg13  1  1.00000000  0.88196000  0.60678000  1
  Zn  Zn14  1  0.50000000  0.71482100  0.43055600  1
  Zn  Zn15  1  0.50000000  0.06118600  0.25280400  1
  Zn  Zn16  1  0.50000000  0.05812800  0.19392900  1
  Zn  Zn17  1  0.50000000  0.55796500  0.22148200  1
  Zn  Zn18  1  0.00000000  0.37167700  0.47296300  1
  Zn  Zn19  1  0.25265100  0.11130400  0.47328700  1
  Zn  Zn20  1  0.24714400  0.61367100  0.47183600  1
  Zn  Zn21  1  0.00000000  0.86845500  0.44164000  1
  Zn  Zn22  1  1.00000000  0.20404100  0.18132300  1
  Zn  Zn23  1  0.74714400  0.31597000  0.22260900  1
  Zn  Zn24  1  0.75285600  0.61367100  0.47183600  1
  Zn  Zn25  1  0.25285600  0.31597000  0.22260900  1
  Zn  Zn26  1  0.75265100  0.81833700  0.22115700  1
  Zn  Zn27  1  0.00000000  0.87151400  0.50051500  1
  Zn  Zn28  1  0.74734900  0.11130400  0.47328700  1
  Zn  Zn29  1  0.24734900  0.81833700  0.22115700  1
  Zn  Zn30  1  0.00000000  0.21482100  0.43055600  1
  Zn  Zn31  1  0.50000000  0.87449700  0.47042500  1
  Zn  Zn32  1  1.00000000  0.05514400  0.22401900  1
  Zn  Zn33  1  0.50000000  0.72560100  0.17978800  1
  Zn  Zn34  1  1.00000000  0.21482100  0.26388900  1
  Zn  Zn35  1  0.00000000  0.56118600  0.41947100  1
  Zn  Zn36  1  1.00000000  0.55812800  0.36059600  1
  Zn  Zn37  1  0.00000000  0.05796500  0.38814900  1
  Zn  Zn38  1  0.50000000  0.87167700  0.30629600  1
  Zn  Zn39  1  0.75265100  0.61130400  0.30662100  1
  Zn  Zn40  1  0.74714400  0.11367100  0.30516900  1
  Zn  Zn41  1  0.50000000  0.36845500  0.27497300  1
  Zn  Zn42  1  0.50000000  0.70404100  0.34799000  1
  Zn  Zn43  1  0.24714400  0.81597000  0.38927500  1
  Zn  Zn44  1  0.25285600  0.11367100  0.30516900  1
  Zn  Zn45  1  0.75285600  0.81597000  0.38927500  1
  Zn  Zn46  1  0.25265100  0.31833700  0.38782400  1
  Zn  Zn47  1  0.50000000  0.37151400  0.33384800  1
  Zn  Zn48  1  0.24734900  0.61130400  0.30662100  1
  Zn  Zn49  1  0.74734900  0.31833700  0.38782400  1
  Zn  Zn50  1  0.50000000  0.71482100  0.26388900  1
  Zn  Zn51  1  1.00000000  0.37449700  0.30375900  1
  Zn  Zn52  1  0.50000000  0.55514400  0.39068600  1
  Zn  Zn53  1  1.00000000  0.22560100  0.34645400  1
  Zn  Zn54  1  0.50000000  0.06118600  0.58613800  1
  Zn  Zn55  1  0.50000000  0.05812800  0.52726300  1
  Zn  Zn56  1  0.50000000  0.55796500  0.55481500  1
  Zn  Zn57  1  1.00000000  0.20404100  0.51465700  1
  Zn  Zn58  1  0.74714400  0.31597000  0.55594200  1
  Zn  Zn59  1  0.25285600  0.31597000  0.55594200  1
  Zn  Zn60  1  0.75265100  0.81833700  0.55449000  1
  Zn  Zn61  1  0.24734900  0.81833700  0.55449000  1
  Zn  Zn62  1  0.00000000  0.05514400  0.55735300  1
  Zn  Zn63  1  0.50000000  0.72560100  0.51312100  1
  Zn  Zn64  1  0.00000000  0.21482100  0.59722200  1
  Zn  Zn65  1  0.50000000  0.87167700  0.63962900  1
  Zn  Zn66  1  0.75265100  0.61130400  0.63995400  1
  Zn  Zn67  1  0.74714400  0.11367100  0.63850300  1
  Zn  Zn68  1  0.50000000  0.36845500  0.60830700  1
  Zn  Zn69  1  0.50000000  0.70404100  0.68132300  1
  Zn  Zn70  1  0.25285600  0.11367100  0.63850300  1
  Zn  Zn71  1  0.50000000  0.37151400  0.66718200  1
  Zn  Zn72  1  0.24734900  0.61130400  0.63995400  1
  Zn  Zn73  1  0.50000000  0.71482100  0.59722200  1
  Zn  Zn74  1  1.00000000  0.37449700  0.63709200  1
  Zn  Zn75  1  1.00000000  0.22560100  0.67978800  1
