# generated using pymatgen
data_Mg2Zn
_symmetry_space_group_name_H-M   'P 1'
_cell_length_a   4.91773400
_cell_length_b   7.92196460
_cell_length_c   42.58017600
_cell_angle_alpha   90.77495215
_cell_angle_beta   90.00000000
_cell_angle_gamma   90.00000000
_symmetry_Int_Tables_number   1
_chemical_formula_structural   Mg2Zn
_chemical_formula_sum   'Mg36 Zn18'
_cell_volume   1658.69164908
_cell_formula_units_Z   18
loop_
 _symmetry_equiv_pos_site_id
 _symmetry_equiv_pos_as_xyz
  1  'x, y, z'
loop_
 _atom_site_type_symbol
 _atom_site_label
 _atom_site_symmetry_multiplicity
 _atom_site_fract_x
 _atom_site_fract_y
 _atom_site_fract_z
 _atom_site_occupancy
  Mg  Mg0  1  0.75000000  0.67012400  0.77878800  1
  Mg  Mg1  1  0.75000000  0.27702800  0.80126600  1
  Mg  Mg2  1  0.25000000  0.43725800  0.77016300  1
  Mg  Mg3  1  0.25000000  0.04416200  0.79264100  1
  Mg  Mg4  1  0.75000000  0.74155300  0.70735900  1
  Mg  Mg5  1  0.75000000  0.34845600  0.72983700  1
  Mg  Mg6  1  0.25000000  0.50868700  0.69873400  1
  Mg  Mg7  1  0.25000000  0.11559000  0.72121200  1
  Mg  Mg8  1  0.75000000  0.81298100  0.63593100  1
  Mg  Mg9  1  0.75000000  0.41988500  0.65840800  1
  Mg  Mg10  1  0.25000000  0.58011500  0.62730600  1
  Mg  Mg11  1  0.25000000  0.18701900  0.64978400  1
  Mg  Mg12  1  0.75000000  0.88441000  0.56450200  1
  Mg  Mg13  1  0.75000000  0.49131300  0.58698000  1
  Mg  Mg14  1  0.25000000  0.65154400  0.55587700  1
  Mg  Mg15  1  0.25000000  0.25844700  0.57835500  1
  Mg  Mg16  1  0.75000000  0.95583800  0.49307300  1
  Mg  Mg17  1  0.75000000  0.56274200  0.51555100  1
  Mg  Mg18  1  0.25000000  0.72297200  0.48444900  1
  Mg  Mg19  1  0.25000000  0.32987600  0.50692700  1
  Mg  Mg20  1  0.75000000  0.02726700  0.42164500  1
  Mg  Mg21  1  0.75000000  0.63417100  0.44412300  1
  Mg  Mg22  1  0.25000000  0.79440100  0.41302000  1
  Mg  Mg23  1  0.25000000  0.40130500  0.43549800  1
  Mg  Mg24  1  0.75000000  0.09869500  0.35021600  1
  Mg  Mg25  1  0.75000000  0.70559900  0.37269400  1
  Mg  Mg26  1  0.25000000  0.86582900  0.34159200  1
  Mg  Mg27  1  0.25000000  0.47273300  0.36406900  1
  Mg  Mg28  1  0.75000000  0.17012400  0.27878800  1
  Mg  Mg29  1  0.75000000  0.77702800  0.30126600  1
  Mg  Mg30  1  0.25000000  0.93725800  0.27016300  1
  Mg  Mg31  1  0.25000000  0.54416200  0.29264100  1
  Mg  Mg32  1  0.75000000  0.24155300  0.20735900  1
  Mg  Mg33  1  0.75000000  0.84845600  0.22983700  1
  Mg  Mg34  1  0.25000000  0.00868700  0.19873400  1
  Mg  Mg35  1  0.25000000  0.61559000  0.22121200  1
  Zn  Zn36  1  0.75000000  0.00390000  0.75411300  1
  Zn  Zn37  1  0.25000000  0.71038600  0.81731600  1
  Zn  Zn38  1  0.75000000  0.07532800  0.68268400  1
  Zn  Zn39  1  0.25000000  0.78181400  0.74588700  1
  Zn  Zn40  1  0.75000000  0.14675700  0.61125600  1
  Zn  Zn41  1  0.25000000  0.85324300  0.67445900  1
  Zn  Zn42  1  0.75000000  0.21818600  0.53982700  1
  Zn  Zn43  1  0.25000000  0.92467200  0.60303000  1
  Zn  Zn44  1  0.75000000  0.28961400  0.46839800  1
  Zn  Zn45  1  0.25000000  0.99610000  0.53160200  1
  Zn  Zn46  1  0.75000000  0.36104300  0.39697000  1
  Zn  Zn47  1  0.25000000  0.06752900  0.46017300  1
  Zn  Zn48  1  0.75000000  0.43247100  0.32554100  1
  Zn  Zn49  1  0.25000000  0.13895700  0.38874400  1
  Zn  Zn50  1  0.75000000  0.50390000  0.25411300  1
  Zn  Zn51  1  0.25000000  0.21038600  0.31731600  1
  Zn  Zn52  1  0.75000000  0.57532800  0.18268400  1
  Zn  Zn53  1  0.25000000  0.28181400  0.24588700  1
