# generated using pymatgen
data_Mg55Zn94
_symmetry_space_group_name_H-M   'P 1'
_cell_length_a   14.70723629
_cell_length_b   15.05206002
_cell_length_c   44.20851200
_cell_angle_alpha   83.82995566
_cell_angle_beta   98.78068454
_cell_angle_gamma   102.44989049
_symmetry_Int_Tables_number   1
_chemical_formula_structural   Mg55Zn94
_chemical_formula_sum   'Mg110 Zn188'
_cell_volume   9416.24993022
_cell_formula_units_Z   2
loop_
 _symmetry_equiv_pos_site_id
 _symmetry_equiv_pos_as_xyz
  1  'x, y, z'
loop_
 _atom_site_type_symbol
 _atom_site_label
 _atom_site_symmetry_multiplicity
 _atom_site_fract_x
 _atom_site_fract_y
 _atom_site_fract_z
 _atom_site_occupancy
  Mg  Mg0  1  0.10018000  0.10606500  0.26661000  1
  Mg  Mg1  1  0.39784500  0.85143700  0.28376700  1
  Mg  Mg2  1  0.97194700  0.22936200  0.29358900  1
  Mg  Mg3  1  0.32381600  0.17991900  0.28250400  1
  Mg  Mg4  1  0.60215500  0.80878100  0.27441400  1
  Mg  Mg5  1  0.67618400  0.48029900  0.27567700  1
  Mg  Mg6  1  0.74882900  0.15305200  0.27682100  1
  Mg  Mg7  1  0.25117100  0.50716600  0.28136100  1
  Mg  Mg8  1  0.89982000  0.55415300  0.29157200  1
  Mg  Mg9  1  0.02805300  0.43085600  0.26459300  1
  Mg  Mg10  1  0.10018000  0.90606500  0.36661000  1
  Mg  Mg11  1  0.28657500  0.68246200  0.31829700  1
  Mg  Mg12  1  0.64768300  0.10235500  0.33807800  1
  Mg  Mg13  1  0.04358200  0.91097900  0.29671900  1
  Mg  Mg14  1  0.39784500  0.65143700  0.38376700  1
  Mg  Mg15  1  0.97194700  0.02936200  0.39358900  1
  Mg  Mg16  1  0.42345600  0.02746100  0.32114700  1
  Mg  Mg17  1  0.95641800  0.54923800  0.36146300  1
  Mg  Mg18  1  0.32381600  0.97991900  0.38250400  1
  Mg  Mg19  1  0.60215500  0.60878100  0.37441400  1
  Mg  Mg20  1  0.35231700  0.35786200  0.32010400  1
  Mg  Mg21  1  0.67618400  0.28029900  0.37567700  1
  Mg  Mg22  1  0.09508800  0.72086300  0.32690900  1
  Mg  Mg23  1  0.74882900  0.95305200  0.37682100  1
  Mg  Mg24  1  0.25117100  0.30716600  0.38136100  1
  Mg  Mg25  1  0.57654400  0.43275700  0.33703500  1
  Mg  Mg26  1  0.89982000  0.35415300  0.39157200  1
  Mg  Mg27  1  0.02805300  0.23085600  0.36459300  1
  Mg  Mg28  1  0.71342500  0.77775600  0.33988500  1
  Mg  Mg29  1  0.90491200  0.73935500  0.33127200  1
  Mg  Mg30  1  0.10018000  0.70606500  0.46661000  1
  Mg  Mg31  1  0.28657500  0.48246200  0.41829700  1
  Mg  Mg32  1  0.64768300  0.90235500  0.43807800  1
  Mg  Mg33  1  0.04358200  0.71097900  0.39671900  1
  Mg  Mg34  1  0.39784500  0.45143700  0.48376700  1
  Mg  Mg35  1  0.97194700  0.82936200  0.49358900  1
  Mg  Mg36  1  0.42345600  0.82746100  0.42114700  1
  Mg  Mg37  1  0.95641800  0.34923800  0.46146300  1
  Mg  Mg38  1  0.32381600  0.77991900  0.48250400  1
  Mg  Mg39  1  0.60215500  0.40878100  0.47441400  1
  Mg  Mg40  1  0.35231700  0.15786200  0.42010400  1
  Mg  Mg41  1  0.67618400  0.08029900  0.47567700  1
  Mg  Mg42  1  0.09508800  0.52086300  0.42690900  1
  Mg  Mg43  1  0.74882900  0.75305200  0.47682100  1
  Mg  Mg44  1  0.25117100  0.10716600  0.48136100  1
  Mg  Mg45  1  0.57654400  0.23275700  0.43703500  1
  Mg  Mg46  1  0.89982000  0.15415300  0.49157200  1
  Mg  Mg47  1  0.02805300  0.03085600  0.46459300  1
  Mg  Mg48  1  0.71342500  0.57775600  0.43988500  1
  Mg  Mg49  1  0.90491200  0.53935500  0.43127200  1
  Mg  Mg50  1  0.10018000  0.50606500  0.56661000  1
  Mg  Mg51  1  0.28657500  0.28246200  0.51829700  1
  Mg  Mg52  1  0.64768300  0.70235500  0.53807800  1
  Mg  Mg53  1  0.04358200  0.51097900  0.49671900  1
  Mg  Mg54  1  0.39784500  0.25143700  0.58376700  1
  Mg  Mg55  1  0.97194700  0.62936200  0.59358900  1
  Mg  Mg56  1  0.42345600  0.62746100  0.52114700  1
  Mg  Mg57  1  0.95641800  0.14923800  0.56146300  1
  Mg  Mg58  1  0.32381600  0.57991900  0.58250400  1
  Mg  Mg59  1  0.60215500  0.20878100  0.57441400  1
  Mg  Mg60  1  0.35231700  0.95786200  0.52010400  1
  Mg  Mg61  1  0.67618400  0.88029900  0.57567700  1
  Mg  Mg62  1  0.09508800  0.32086300  0.52690900  1
  Mg  Mg63  1  0.74882900  0.55305200  0.57682100  1
  Mg  Mg64  1  0.25117100  0.90716600  0.58136100  1
  Mg  Mg65  1  0.57654400  0.03275700  0.53703500  1
  Mg  Mg66  1  0.89982000  0.95415300  0.59157200  1
  Mg  Mg67  1  0.02805300  0.83085600  0.56459300  1
  Mg  Mg68  1  0.71342500  0.37775600  0.53988500  1
  Mg  Mg69  1  0.90491200  0.33935500  0.53127200  1
  Mg  Mg70  1  0.10018000  0.30606500  0.66661000  1
  Mg  Mg71  1  0.28657500  0.08246200  0.61829700  1
  Mg  Mg72  1  0.64768300  0.50235500  0.63807800  1
  Mg  Mg73  1  0.04358200  0.31097900  0.59671900  1
  Mg  Mg74  1  0.39784500  0.05143700  0.68376700  1
  Mg  Mg75  1  0.97194700  0.42936200  0.69358900  1
  Mg  Mg76  1  0.42345600  0.42746100  0.62114700  1
  Mg  Mg77  1  0.95641800  0.94923800  0.66146300  1
  Mg  Mg78  1  0.32381600  0.37991900  0.68250400  1
  Mg  Mg79  1  0.60215500  0.00878100  0.67441400  1
  Mg  Mg80  1  0.35231700  0.75786200  0.62010400  1
  Mg  Mg81  1  0.67618400  0.68029900  0.67567700  1
  Mg  Mg82  1  0.09508800  0.12086300  0.62690900  1
  Mg  Mg83  1  0.74882900  0.35305200  0.67682100  1
  Mg  Mg84  1  0.25117100  0.70716600  0.68136100  1
  Mg  Mg85  1  0.57654400  0.83275700  0.63703500  1
  Mg  Mg86  1  0.89982000  0.75415300  0.69157200  1
  Mg  Mg87  1  0.02805300  0.63085600  0.66459300  1
  Mg  Mg88  1  0.71342500  0.17775600  0.63988500  1
  Mg  Mg89  1  0.90491200  0.13935500  0.63127200  1
  Mg  Mg90  1  0.10018000  0.10606500  0.76661000  1
  Mg  Mg91  1  0.28657500  0.88246200  0.71829700  1
  Mg  Mg92  1  0.64768300  0.30235500  0.73807800  1
  Mg  Mg93  1  0.04358200  0.11097900  0.69671900  1
  Mg  Mg94  1  0.39784500  0.85143700  0.78376700  1
  Mg  Mg95  1  0.97194700  0.22936200  0.79358900  1
  Mg  Mg96  1  0.42345600  0.22746100  0.72114700  1
  Mg  Mg97  1  0.95641800  0.74923800  0.76146300  1
  Mg  Mg98  1  0.32381600  0.17991900  0.78250400  1
  Mg  Mg99  1  0.60215500  0.80878100  0.77441400  1
  Mg  Mg100  1  0.35231700  0.55786200  0.72010400  1
  Mg  Mg101  1  0.67618400  0.48029900  0.77567700  1
  Mg  Mg102  1  0.09508800  0.92086300  0.72690900  1
  Mg  Mg103  1  0.74882900  0.15305200  0.77682100  1
  Mg  Mg104  1  0.25117100  0.50716600  0.78136100  1
  Mg  Mg105  1  0.57654400  0.63275700  0.73703500  1
  Mg  Mg106  1  0.89982000  0.55415300  0.79157200  1
  Mg  Mg107  1  0.02805300  0.43085600  0.76459300  1
  Mg  Mg108  1  0.71342500  0.97775600  0.73988500  1
  Mg  Mg109  1  0.90491200  0.93935500  0.73127200  1
  Zn  Zn110  1  0.18261300  0.80522500  0.27365400  1
  Zn  Zn111  1  0.42323600  0.65608200  0.27682200  1
  Zn  Zn112  1  0.24953100  0.97914700  0.27489200  1
  Zn  Zn113  1  0.53360100  0.16596700  0.27969100  1
  Zn  Zn114  1  0.81738700  0.85499300  0.28452800  1
  Zn  Zn115  1  0.75046900  0.68107100  0.28329000  1
  Zn  Zn116  1  0.46639900  0.49425100  0.27849100  1
  Zn  Zn117  1  0.57676400  0.00413600  0.28136000  1
  Zn  Zn118  1  0.50000000  0.33010900  0.27909100  1
  Zn  Zn119  1  0.17499800  0.30942000  0.27475100  1
  Zn  Zn120  1  0.90216100  0.02730200  0.28502600  1
  Zn  Zn121  1  0.09783900  0.63291600  0.27315600  1
  Zn  Zn122  1  0.82500200  0.35079800  0.28343100  1
  Zn  Zn123  1  0.40771000  0.83648600  0.35130000  1
  Zn  Zn124  1  0.18261300  0.60522500  0.37365400  1
  Zn  Zn125  1  0.33714800  0.16989400  0.35240400  1
  Zn  Zn126  1  0.75168900  0.57891800  0.33232000  1
  Zn  Zn127  1  0.42323600  0.45608200  0.37682200  1
  Zn  Zn128  1  0.24953100  0.77914700  0.37489200  1
  Zn  Zn129  1  0.50000000  0.23010900  0.32909100  1
  Zn  Zn130  1  0.59229000  0.62373200  0.30688200  1
  Zn  Zn131  1  0.13709400  0.36747000  0.32292600  1
  Zn  Zn132  1  0.57687700  0.90568200  0.33077600  1
  Zn  Zn133  1  0.17552400  0.20917900  0.32411900  1
  Zn  Zn134  1  0.03680400  0.06911500  0.33018200  1
  Zn  Zn135  1  0.53360100  0.96596700  0.37969100  1
  Zn  Zn136  1  0.73237700  0.96283400  0.30831900  1
  Zn  Zn137  1  0.81738700  0.65499300  0.38452800  1
  Zn  Zn138  1  0.86290600  0.09274700  0.33525500  1
  Zn  Zn139  1  0.90034300  0.92647100  0.33676200  1
  Zn  Zn140  1  0.42312300  0.55453600  0.32740600  1
  Zn  Zn141  1  0.75046900  0.48107100  0.38329000  1
  Zn  Zn142  1  0.46639900  0.29425100  0.37849100  1
  Zn  Zn143  1  0.09965700  0.53374700  0.32142000  1
  Zn  Zn144  1  0.57676400  0.80413600  0.38136000  1
  Zn  Zn145  1  0.50000000  0.13010900  0.37909100  1
  Zn  Zn146  1  0.21546200  0.04323100  0.32396700  1
  Zn  Zn147  1  0.17499800  0.10942000  0.37475100  1
  Zn  Zn148  1  0.90216100  0.82730200  0.38502600  1
  Zn  Zn149  1  0.78453800  0.41698600  0.33421500  1
  Zn  Zn150  1  0.09783900  0.43291600  0.37315600  1
  Zn  Zn151  1  0.26762300  0.49738400  0.34986300  1
  Zn  Zn152  1  0.82500200  0.15079800  0.38343100  1
  Zn  Zn153  1  0.24831100  0.88130000  0.32586100  1
  Zn  Zn154  1  0.50000000  0.73010900  0.32909100  1
  Zn  Zn155  1  0.82447600  0.25103900  0.33406300  1
  Zn  Zn156  1  0.96319600  0.39110300  0.32800000  1
  Zn  Zn157  1  0.66285200  0.29032400  0.30577800  1
  Zn  Zn158  1  0.40771000  0.63648600  0.45130000  1
  Zn  Zn159  1  0.18261300  0.40522500  0.47365400  1
  Zn  Zn160  1  0.33714800  0.96989400  0.45240400  1
  Zn  Zn161  1  0.75168900  0.37891800  0.43232000  1
  Zn  Zn162  1  0.42323600  0.25608200  0.47682200  1
  Zn  Zn163  1  0.24953100  0.57914700  0.47489200  1
  Zn  Zn164  1  0.50000000  0.03010900  0.42909100  1
  Zn  Zn165  1  0.59229000  0.42373200  0.40688200  1
  Zn  Zn166  1  0.13709400  0.16747000  0.42292600  1
  Zn  Zn167  1  0.57687700  0.70568200  0.43077600  1
  Zn  Zn168  1  0.17552400  0.00917900  0.42411900  1
  Zn  Zn169  1  0.03680400  0.86911500  0.43018200  1
  Zn  Zn170  1  0.53360100  0.76596700  0.47969100  1
  Zn  Zn171  1  0.73237700  0.76283400  0.40831900  1
  Zn  Zn172  1  0.81738700  0.45499300  0.48452800  1
  Zn  Zn173  1  0.86290600  0.89274700  0.43525500  1
  Zn  Zn174  1  0.90034300  0.72647100  0.43676200  1
  Zn  Zn175  1  0.42312300  0.35453600  0.42740600  1
  Zn  Zn176  1  0.75046900  0.28107100  0.48329000  1
  Zn  Zn177  1  0.46639900  0.09425100  0.47849100  1
  Zn  Zn178  1  0.09965700  0.33374700  0.42142000  1
  Zn  Zn179  1  0.57676400  0.60413600  0.48136000  1
  Zn  Zn180  1  0.50000000  0.93010900  0.47909100  1
  Zn  Zn181  1  0.21546200  0.84323100  0.42396700  1
  Zn  Zn182  1  0.17499800  0.90942000  0.47475100  1
  Zn  Zn183  1  0.90216100  0.62730200  0.48502600  1
  Zn  Zn184  1  0.78453800  0.21698600  0.43421500  1
  Zn  Zn185  1  0.09783900  0.23291600  0.47315600  1
  Zn  Zn186  1  0.26762300  0.29738400  0.44986300  1
  Zn  Zn187  1  0.82500200  0.95079800  0.48343100  1
  Zn  Zn188  1  0.24831100  0.68130000  0.42586100  1
  Zn  Zn189  1  0.50000000  0.53010900  0.42909100  1
  Zn  Zn190  1  0.82447600  0.05103900  0.43406300  1
  Zn  Zn191  1  0.96319600  0.19110300  0.42800000  1
  Zn  Zn192  1  0.66285200  0.09032400  0.40577800  1
  Zn  Zn193  1  0.40771000  0.43648600  0.55130000  1
  Zn  Zn194  1  0.18261300  0.20522500  0.57365400  1
  Zn  Zn195  1  0.33714800  0.76989400  0.55240400  1
  Zn  Zn196  1  0.75168900  0.17891800  0.53232000  1
  Zn  Zn197  1  0.42323600  0.05608200  0.57682200  1
  Zn  Zn198  1  0.24953100  0.37914700  0.57489200  1
  Zn  Zn199  1  0.50000000  0.83010900  0.52909100  1
  Zn  Zn200  1  0.59229000  0.22373200  0.50688200  1
  Zn  Zn201  1  0.13709400  0.96747000  0.52292600  1
  Zn  Zn202  1  0.57687700  0.50568200  0.53077600  1
  Zn  Zn203  1  0.17552400  0.80917900  0.52411900  1
  Zn  Zn204  1  0.03680400  0.66911500  0.53018200  1
  Zn  Zn205  1  0.53360100  0.56596700  0.57969100  1
  Zn  Zn206  1  0.73237700  0.56283400  0.50831900  1
  Zn  Zn207  1  0.81738700  0.25499300  0.58452800  1
  Zn  Zn208  1  0.86290600  0.69274700  0.53525500  1
  Zn  Zn209  1  0.90034300  0.52647100  0.53676200  1
  Zn  Zn210  1  0.42312300  0.15453600  0.52740600  1
  Zn  Zn211  1  0.75046900  0.08107100  0.58329000  1
  Zn  Zn212  1  0.46639900  0.89425100  0.57849100  1
  Zn  Zn213  1  0.09965700  0.13374700  0.52142000  1
  Zn  Zn214  1  0.57676400  0.40413600  0.58136000  1
  Zn  Zn215  1  0.50000000  0.73010900  0.57909100  1
  Zn  Zn216  1  0.21546200  0.64323100  0.52396700  1
  Zn  Zn217  1  0.17499800  0.70942000  0.57475100  1
  Zn  Zn218  1  0.90216100  0.42730200  0.58502600  1
  Zn  Zn219  1  0.78453800  0.01698600  0.53421500  1
  Zn  Zn220  1  0.09783900  0.03291600  0.57315600  1
  Zn  Zn221  1  0.26762300  0.09738400  0.54986300  1
  Zn  Zn222  1  0.82500200  0.75079800  0.58343100  1
  Zn  Zn223  1  0.24831100  0.48130000  0.52586100  1
  Zn  Zn224  1  0.50000000  0.33010900  0.52909100  1
  Zn  Zn225  1  0.82447600  0.85103900  0.53406300  1
  Zn  Zn226  1  0.96319600  0.99110300  0.52800000  1
  Zn  Zn227  1  0.66285200  0.89032400  0.50577800  1
  Zn  Zn228  1  0.40771000  0.23648600  0.65130000  1
  Zn  Zn229  1  0.18261300  0.00522500  0.67365400  1
  Zn  Zn230  1  0.33714800  0.56989400  0.65240400  1
  Zn  Zn231  1  0.75168900  0.97891800  0.63232000  1
  Zn  Zn232  1  0.42323600  0.85608200  0.67682200  1
  Zn  Zn233  1  0.24953100  0.17914700  0.67489200  1
  Zn  Zn234  1  0.50000000  0.63010900  0.62909100  1
  Zn  Zn235  1  0.59229000  0.02373200  0.60688200  1
  Zn  Zn236  1  0.13709400  0.76747000  0.62292600  1
  Zn  Zn237  1  0.57687700  0.30568200  0.63077600  1
  Zn  Zn238  1  0.17552400  0.60917900  0.62411900  1
  Zn  Zn239  1  0.03680400  0.46911500  0.63018200  1
  Zn  Zn240  1  0.53360100  0.36596700  0.67969100  1
  Zn  Zn241  1  0.73237700  0.36283400  0.60831900  1
  Zn  Zn242  1  0.81738700  0.05499300  0.68452800  1
  Zn  Zn243  1  0.86290600  0.49274700  0.63525500  1
  Zn  Zn244  1  0.90034300  0.32647100  0.63676200  1
  Zn  Zn245  1  0.42312300  0.95453600  0.62740600  1
  Zn  Zn246  1  0.75046900  0.88107100  0.68329000  1
  Zn  Zn247  1  0.46639900  0.69425100  0.67849100  1
  Zn  Zn248  1  0.09965700  0.93374700  0.62142000  1
  Zn  Zn249  1  0.57676400  0.20413600  0.68136000  1
  Zn  Zn250  1  0.50000000  0.53010900  0.67909100  1
  Zn  Zn251  1  0.21546200  0.44323100  0.62396700  1
  Zn  Zn252  1  0.17499800  0.50942000  0.67475100  1
  Zn  Zn253  1  0.90216100  0.22730200  0.68502600  1
  Zn  Zn254  1  0.78453800  0.81698600  0.63421500  1
  Zn  Zn255  1  0.09783900  0.83291600  0.67315600  1
  Zn  Zn256  1  0.26762300  0.89738400  0.64986300  1
  Zn  Zn257  1  0.82500200  0.55079800  0.68343100  1
  Zn  Zn258  1  0.24831100  0.28130000  0.62586100  1
  Zn  Zn259  1  0.50000000  0.13010900  0.62909100  1
  Zn  Zn260  1  0.82447600  0.65103900  0.63406300  1
  Zn  Zn261  1  0.96319600  0.79110300  0.62800000  1
  Zn  Zn262  1  0.66285200  0.69032400  0.60577800  1
  Zn  Zn263  1  0.40771000  0.03648600  0.75130000  1
  Zn  Zn264  1  0.18261300  0.80522500  0.77365400  1
  Zn  Zn265  1  0.33714800  0.36989400  0.75240400  1
  Zn  Zn266  1  0.75168900  0.77891800  0.73232000  1
  Zn  Zn267  1  0.42323600  0.65608200  0.77682200  1
  Zn  Zn268  1  0.24953100  0.97914700  0.77489200  1
  Zn  Zn269  1  0.50000000  0.43010900  0.72909100  1
  Zn  Zn270  1  0.59229000  0.82373200  0.70688200  1
  Zn  Zn271  1  0.13709400  0.56747000  0.72292600  1
  Zn  Zn272  1  0.57687700  0.10568200  0.73077600  1
  Zn  Zn273  1  0.17552400  0.40917900  0.72411900  1
  Zn  Zn274  1  0.03680400  0.26911500  0.73018200  1
  Zn  Zn275  1  0.53360100  0.16596700  0.77969100  1
  Zn  Zn276  1  0.73237700  0.16283400  0.70831900  1
  Zn  Zn277  1  0.81738700  0.85499300  0.78452800  1
  Zn  Zn278  1  0.86290600  0.29274700  0.73525500  1
  Zn  Zn279  1  0.90034300  0.12647100  0.73676200  1
  Zn  Zn280  1  0.42312300  0.75453600  0.72740600  1
  Zn  Zn281  1  0.75046900  0.68107100  0.78329000  1
  Zn  Zn282  1  0.46639900  0.49425100  0.77849100  1
  Zn  Zn283  1  0.09965700  0.73374700  0.72142000  1
  Zn  Zn284  1  0.57676400  0.00413600  0.78136000  1
  Zn  Zn285  1  0.50000000  0.33010900  0.77909100  1
  Zn  Zn286  1  0.21546200  0.24323100  0.72396700  1
  Zn  Zn287  1  0.17499800  0.30942000  0.77475100  1
  Zn  Zn288  1  0.90216100  0.02730200  0.78502600  1
  Zn  Zn289  1  0.78453800  0.61698600  0.73421500  1
  Zn  Zn290  1  0.09783900  0.63291600  0.77315600  1
  Zn  Zn291  1  0.26762300  0.69738400  0.74986300  1
  Zn  Zn292  1  0.82500200  0.35079800  0.78343100  1
  Zn  Zn293  1  0.24831100  0.08130000  0.72586100  1
  Zn  Zn294  1  0.50000000  0.93010900  0.72909100  1
  Zn  Zn295  1  0.82447600  0.45103900  0.73406300  1
  Zn  Zn296  1  0.96319600  0.59110300  0.72800000  1
  Zn  Zn297  1  0.66285200  0.49032400  0.70577800  1
