# generated using pymatgen
data_MgPd2
_symmetry_space_group_name_H-M   'P 1'
_cell_length_a   4.19057600
_cell_length_b   9.87844226
_cell_length_c   45.88469700
_cell_angle_alpha   91.77467978
_cell_angle_beta   90.00000000
_cell_angle_gamma   90.00000000
_symmetry_Int_Tables_number   1
_chemical_formula_structural   MgPd2
_chemical_formula_sum   'Mg24 Pd48'
_cell_volume   1898.54848723
_cell_formula_units_Z   24
loop_
 _symmetry_equiv_pos_site_id
 _symmetry_equiv_pos_as_xyz
  1  'x, y, z'
loop_
 _atom_site_type_symbol
 _atom_site_label
 _atom_site_symmetry_multiplicity
 _atom_site_fract_x
 _atom_site_fract_y
 _atom_site_fract_z
 _atom_site_occupancy
  Mg  Mg0  1  0.25000000  0.46937400  0.24296600  1
  Mg  Mg1  1  0.75000000  0.23062600  0.25703400  1
  Mg  Mg2  1  0.25000000  0.83179100  0.22331200  1
  Mg  Mg3  1  0.75000000  0.86820900  0.27668800  1
  Mg  Mg4  1  0.25000000  0.16937400  0.34296600  1
  Mg  Mg5  1  0.75000000  0.93062600  0.35703400  1
  Mg  Mg6  1  0.25000000  0.53179100  0.32331200  1
  Mg  Mg7  1  0.75000000  0.56820900  0.37668800  1
  Mg  Mg8  1  0.25000000  0.86937400  0.44296600  1
  Mg  Mg9  1  0.75000000  0.63062600  0.45703400  1
  Mg  Mg10  1  0.25000000  0.23179100  0.42331200  1
  Mg  Mg11  1  0.75000000  0.26820900  0.47668800  1
  Mg  Mg12  1  0.25000000  0.56937400  0.54296600  1
  Mg  Mg13  1  0.75000000  0.33062600  0.55703400  1
  Mg  Mg14  1  0.25000000  0.93179100  0.52331200  1
  Mg  Mg15  1  0.75000000  0.96820900  0.57668800  1
  Mg  Mg16  1  0.25000000  0.26937400  0.64296600  1
  Mg  Mg17  1  0.75000000  0.03062600  0.65703400  1
  Mg  Mg18  1  0.25000000  0.63179100  0.62331200  1
  Mg  Mg19  1  0.75000000  0.66820900  0.67668800  1
  Mg  Mg20  1  0.25000000  0.96937400  0.74296600  1
  Mg  Mg21  1  0.75000000  0.73062600  0.75703400  1
  Mg  Mg22  1  0.25000000  0.33179100  0.72331200  1
  Mg  Mg23  1  0.75000000  0.36820900  0.77668800  1
  Pd  Pd24  1  0.25000000  0.69683500  0.27684800  1
  Pd  Pd25  1  0.75000000  0.00316500  0.22315200  1
  Pd  Pd26  1  0.25000000  0.29850500  0.29137200  1
  Pd  Pd27  1  0.75000000  0.40149500  0.20862800  1
  Pd  Pd28  1  0.25000000  0.20530100  0.21960400  1
  Pd  Pd29  1  0.75000000  0.49469900  0.28039600  1
  Pd  Pd30  1  0.25000000  0.03554300  0.26678100  1
  Pd  Pd31  1  0.75000000  0.66445700  0.23321900  1
  Pd  Pd32  1  0.25000000  0.39683500  0.37684800  1
  Pd  Pd33  1  0.75000000  0.70316500  0.32315200  1
  Pd  Pd34  1  0.25000000  0.99850500  0.39137200  1
  Pd  Pd35  1  0.75000000  0.10149500  0.30862800  1
  Pd  Pd36  1  0.25000000  0.90530100  0.31960400  1
  Pd  Pd37  1  0.75000000  0.19469900  0.38039600  1
  Pd  Pd38  1  0.25000000  0.73554300  0.36678100  1
  Pd  Pd39  1  0.75000000  0.36445700  0.33321900  1
  Pd  Pd40  1  0.25000000  0.09683500  0.47684800  1
  Pd  Pd41  1  0.75000000  0.40316500  0.42315200  1
  Pd  Pd42  1  0.25000000  0.69850500  0.49137200  1
  Pd  Pd43  1  0.75000000  0.80149500  0.40862800  1
  Pd  Pd44  1  0.25000000  0.60530100  0.41960400  1
  Pd  Pd45  1  0.75000000  0.89469900  0.48039600  1
  Pd  Pd46  1  0.25000000  0.43554300  0.46678100  1
  Pd  Pd47  1  0.75000000  0.06445700  0.43321900  1
  Pd  Pd48  1  0.25000000  0.79683500  0.57684800  1
  Pd  Pd49  1  0.75000000  0.10316500  0.52315200  1
  Pd  Pd50  1  0.25000000  0.39850500  0.59137200  1
  Pd  Pd51  1  0.75000000  0.50149500  0.50862800  1
  Pd  Pd52  1  0.25000000  0.30530100  0.51960400  1
  Pd  Pd53  1  0.75000000  0.59469900  0.58039600  1
  Pd  Pd54  1  0.25000000  0.13554300  0.56678100  1
  Pd  Pd55  1  0.75000000  0.76445700  0.53321900  1
  Pd  Pd56  1  0.25000000  0.49683500  0.67684800  1
  Pd  Pd57  1  0.75000000  0.80316500  0.62315200  1
  Pd  Pd58  1  0.25000000  0.09850500  0.69137200  1
  Pd  Pd59  1  0.75000000  0.20149500  0.60862800  1
  Pd  Pd60  1  0.25000000  0.00530100  0.61960400  1
  Pd  Pd61  1  0.75000000  0.29469900  0.68039600  1
  Pd  Pd62  1  0.25000000  0.83554300  0.66678100  1
  Pd  Pd63  1  0.75000000  0.46445700  0.63321900  1
  Pd  Pd64  1  0.25000000  0.19683500  0.77684800  1
  Pd  Pd65  1  0.75000000  0.50316500  0.72315200  1
  Pd  Pd66  1  0.25000000  0.79850500  0.79137200  1
  Pd  Pd67  1  0.75000000  0.90149500  0.70862800  1
  Pd  Pd68  1  0.25000000  0.70530100  0.71960400  1
  Pd  Pd69  1  0.75000000  0.99469900  0.78039600  1
  Pd  Pd70  1  0.25000000  0.53554300  0.76678100  1
  Pd  Pd71  1  0.75000000  0.16445700  0.73321900  1
