# generated using pymatgen
data_Mg50Zn93
_symmetry_space_group_name_H-M   'P 1'
_cell_length_a   5.07402237
_cell_length_b   17.20699092
_cell_length_c   54.58155700
_cell_angle_alpha   87.89733091
_cell_angle_beta   92.22235669
_cell_angle_gamma   98.42726965
_symmetry_Int_Tables_number   1
_chemical_formula_structural   Mg50Zn93
_chemical_formula_sum   'Mg50 Zn93'
_cell_volume   4708.12472958
_cell_formula_units_Z   1
loop_
 _symmetry_equiv_pos_site_id
 _symmetry_equiv_pos_as_xyz
  1  'x, y, z'
loop_
 _atom_site_type_symbol
 _atom_site_label
 _atom_site_symmetry_multiplicity
 _atom_site_fract_x
 _atom_site_fract_y
 _atom_site_fract_z
 _atom_site_occupancy
  Mg  Mg0  1  0.43552700  0.47752300  0.39016300  1
  Mg  Mg1  1  0.37395000  0.46126900  0.28883800  1
  Mg  Mg2  1  0.09263400  0.86171500  0.30850800  1
  Mg  Mg3  1  0.88713800  0.38961700  0.37450900  1
  Mg  Mg4  1  0.93100800  0.56799700  0.28656700  1
  Mg  Mg5  1  0.66696100  0.07148500  0.25126000  1
  Mg  Mg6  1  0.00898800  0.68367700  0.33160200  1
  Mg  Mg7  1  0.79584500  0.24441800  0.34549100  1
  Mg  Mg8  1  0.51242500  0.65396100  0.36656400  1
  Mg  Mg9  1  0.95197500  0.66603800  0.23343300  1
  Mg  Mg10  1  0.79034800  0.37232000  0.21149200  1
  Mg  Mg11  1  0.17055700  0.98007400  0.35343600  1
  Mg  Mg12  1  0.35502500  0.36862700  0.33826100  1
  Mg  Mg13  1  0.58647500  0.89367600  0.27391500  1
  Mg  Mg14  1  0.29650700  0.34035900  0.24608500  1
  Mg  Mg15  1  0.67399500  0.95035800  0.38839800  1
  Mg  Mg16  1  0.24745600  0.15651200  0.32983700  1
  Mg  Mg17  1  0.21602200  0.16255000  0.26874000  1
  Mg  Mg18  1  0.50903200  0.77276600  0.23116200  1
  Mg  Mg19  1  0.32795700  0.26540800  0.38173900  1
  Mg  Mg20  1  0.23552700  0.87752300  0.59016300  1
  Mg  Mg21  1  0.17395000  0.86126900  0.48883800  1
  Mg  Mg22  1  0.89263400  0.26171500  0.50850800  1
  Mg  Mg23  1  0.68713800  0.78961700  0.57450900  1
  Mg  Mg24  1  0.73100800  0.96799700  0.48656700  1
  Mg  Mg25  1  0.46696100  0.47148500  0.45126000  1
  Mg  Mg26  1  0.80898800  0.08367700  0.53160200  1
  Mg  Mg27  1  0.59584500  0.64441800  0.54549100  1
  Mg  Mg28  1  0.31242500  0.05396100  0.56656400  1
  Mg  Mg29  1  0.75197500  0.06603800  0.43343300  1
  Mg  Mg30  1  0.59034800  0.77232000  0.41149200  1
  Mg  Mg31  1  0.97055700  0.38007400  0.55343600  1
  Mg  Mg32  1  0.15502500  0.76862700  0.53826100  1
  Mg  Mg33  1  0.38647500  0.29367600  0.47391500  1
  Mg  Mg34  1  0.09650700  0.74035900  0.44608500  1
  Mg  Mg35  1  0.47399500  0.35035800  0.58839800  1
  Mg  Mg36  1  0.04745600  0.55651200  0.52983700  1
  Mg  Mg37  1  0.01602200  0.56255000  0.46874000  1
  Mg  Mg38  1  0.30903200  0.17276600  0.43116200  1
  Mg  Mg39  1  0.12795700  0.66540800  0.58173900  1
  Mg  Mg40  1  0.97395000  0.26126900  0.68883800  1
  Mg  Mg41  1  0.69263400  0.66171500  0.70850800  1
  Mg  Mg42  1  0.53100800  0.36799700  0.68656700  1
  Mg  Mg43  1  0.26696100  0.87148500  0.65126000  1
  Mg  Mg44  1  0.55197500  0.46603800  0.63343300  1
  Mg  Mg45  1  0.39034800  0.17232000  0.61149200  1
  Mg  Mg46  1  0.18647500  0.69367600  0.67391500  1
  Mg  Mg47  1  0.89650700  0.14035900  0.64608500  1
  Mg  Mg48  1  0.81602200  0.96255000  0.66874000  1
  Mg  Mg49  1  0.10903200  0.57276600  0.63116200  1
  Zn  Zn50  1  0.46417000  0.62196200  0.30861700  1
  Zn  Zn51  1  0.86655700  0.41228200  0.31632600  1
  Zn  Zn52  1  0.05835700  0.71387100  0.38985300  1
  Zn  Zn53  1  0.49780200  0.11013800  0.38071600  1
  Zn  Zn54  1  0.11772600  0.49953300  0.23964000  1
  Zn  Zn55  1  0.68063700  0.52299200  0.33822200  1
  Zn  Zn56  1  0.84149100  0.81701700  0.36000000  1
  Zn  Zn57  1  0.41881200  0.61207300  0.21138300  1
  Zn  Zn58  1  0.75722600  0.24928700  0.25758800  1
  Zn  Zn59  1  0.25898200  0.73472100  0.28041300  1
  Zn  Zn60  1  0.96392500  0.20998200  0.21872100  1
  Zn  Zn61  1  0.15033300  0.07557500  0.22087700  1
  Zn  Zn62  1  0.54974500  0.77200200  0.32069100  1
  Zn  Zn63  1  0.05083000  0.83291600  0.25176100  1
  Zn  Zn64  1  0.01642600  0.82175300  0.20367400  1
  Zn  Zn65  1  0.12575700  0.98474800  0.26241200  1
  Zn  Zn66  1  0.34422400  0.94190500  0.22227200  1
  Zn  Zn67  1  0.62400000  0.49931400  0.23958700  1
  Zn  Zn68  1  0.00234600  0.11104300  0.38177800  1
  Zn  Zn69  1  0.13323800  0.86203300  0.39930900  1
  Zn  Zn70  1  0.53875900  0.29213000  0.29772800  1
  Zn  Zn71  1  0.76525700  0.73450200  0.28036000  1
  Zn  Zn72  1  0.34149100  0.81701700  0.36000000  1
  Zn  Zn73  1  0.96989600  0.56744500  0.37748300  1
  Zn  Zn74  1  0.46833400  0.21026900  0.21912700  1
  Zn  Zn75  1  0.83039500  0.94193900  0.22138000  1
  Zn  Zn76  1  0.71308700  0.06659000  0.34251700  1
  Zn  Zn77  1  0.05258700  0.29209600  0.29862000  1
  Zn  Zn78  1  0.83215300  0.40111900  0.26823900  1
  Zn  Zn79  1  0.41464800  0.02376600  0.30087300  1
  Zn  Zn80  1  0.18518000  0.52389700  0.33928400  1
  Zn  Zn81  1  0.44149100  0.61701700  0.26000000  1
  Zn  Zn82  1  0.91905700  0.02405300  0.30127900  1
  Zn  Zn83  1  0.73264900  0.15846000  0.29912300  1
  Zn  Zn84  1  0.62462600  0.92016400  0.33014700  1
  Zn  Zn85  1  0.26417000  0.02196200  0.50861700  1
  Zn  Zn86  1  0.66655700  0.81228200  0.51632600  1
  Zn  Zn87  1  0.85835700  0.11387100  0.58985300  1
  Zn  Zn88  1  0.29780200  0.51013800  0.58071600  1
  Zn  Zn89  1  0.91772600  0.89953300  0.43964000  1
  Zn  Zn90  1  0.48063700  0.92299200  0.53822200  1
  Zn  Zn91  1  0.64149100  0.21701700  0.56000000  1
  Zn  Zn92  1  0.21881200  0.01207300  0.41138300  1
  Zn  Zn93  1  0.55722600  0.64928700  0.45758800  1
  Zn  Zn94  1  0.05898200  0.13472100  0.48041300  1
  Zn  Zn95  1  0.76392500  0.60998200  0.41872100  1
  Zn  Zn96  1  0.95033300  0.47557500  0.42087700  1
  Zn  Zn97  1  0.34974500  0.17200200  0.52069100  1
  Zn  Zn98  1  0.85083000  0.23291600  0.45176100  1
  Zn  Zn99  1  0.81642600  0.22175300  0.40367400  1
  Zn  Zn100  1  0.92575700  0.38474800  0.46241200  1
  Zn  Zn101  1  0.14422400  0.34190500  0.42227200  1
  Zn  Zn102  1  0.42400000  0.89931400  0.43958700  1
  Zn  Zn103  1  0.80234600  0.51104300  0.58177800  1
  Zn  Zn104  1  0.93323800  0.26203300  0.59930900  1
  Zn  Zn105  1  0.33875900  0.69213000  0.49772800  1
  Zn  Zn106  1  0.56525700  0.13450200  0.48036000  1
  Zn  Zn107  1  0.14149100  0.21701700  0.56000000  1
  Zn  Zn108  1  0.76989600  0.96744500  0.57748300  1
  Zn  Zn109  1  0.26833400  0.61026900  0.41912700  1
  Zn  Zn110  1  0.63039500  0.34193900  0.42138000  1
  Zn  Zn111  1  0.51308700  0.46659000  0.54251700  1
  Zn  Zn112  1  0.85258700  0.69209600  0.49862000  1
  Zn  Zn113  1  0.63215300  0.80111900  0.46823900  1
  Zn  Zn114  1  0.21464800  0.42376600  0.50087300  1
  Zn  Zn115  1  0.98518000  0.92389700  0.53928400  1
  Zn  Zn116  1  0.24149100  0.01701700  0.46000000  1
  Zn  Zn117  1  0.71905700  0.42405300  0.50127900  1
  Zn  Zn118  1  0.53264900  0.55846000  0.49912300  1
  Zn  Zn119  1  0.42462600  0.32016400  0.53014700  1
  Zn  Zn120  1  0.06417000  0.42196200  0.70861700  1
  Zn  Zn121  1  0.46655700  0.21228200  0.71632600  1
  Zn  Zn122  1  0.71772600  0.29953300  0.63964000  1
  Zn  Zn123  1  0.01881200  0.41207300  0.61138300  1
  Zn  Zn124  1  0.35722600  0.04928700  0.65758800  1
  Zn  Zn125  1  0.85898200  0.53472100  0.68041300  1
  Zn  Zn126  1  0.56392500  0.00998200  0.61872100  1
  Zn  Zn127  1  0.75033300  0.87557500  0.62087700  1
  Zn  Zn128  1  0.65083000  0.63291600  0.65176100  1
  Zn  Zn129  1  0.61642600  0.62175300  0.60367400  1
  Zn  Zn130  1  0.72575700  0.78474800  0.66241200  1
  Zn  Zn131  1  0.94422400  0.74190500  0.62227200  1
  Zn  Zn132  1  0.22400000  0.29931400  0.63958700  1
  Zn  Zn133  1  0.13875900  0.09213000  0.69772800  1
  Zn  Zn134  1  0.36525700  0.53450200  0.68036000  1
  Zn  Zn135  1  0.06833400  0.01026900  0.61912700  1
  Zn  Zn136  1  0.43039500  0.74193900  0.62138000  1
  Zn  Zn137  1  0.65258700  0.09209600  0.69862000  1
  Zn  Zn138  1  0.43215300  0.20111900  0.66823900  1
  Zn  Zn139  1  0.01464800  0.82376600  0.70087300  1
  Zn  Zn140  1  0.04149100  0.41701700  0.66000000  1
  Zn  Zn141  1  0.51905700  0.82405300  0.70127900  1
  Zn  Zn142  1  0.33264900  0.95846000  0.69912300  1
