# generated using pymatgen
data_MgHg2
_symmetry_space_group_name_H-M   'P 1'
_cell_length_a   7.04379400
_cell_length_b   11.62911546
_cell_length_c   45.72192200
_cell_angle_alpha   90.00000000
_cell_angle_beta   90.00000000
_cell_angle_gamma   74.08691761
_symmetry_Int_Tables_number   1
_chemical_formula_structural   MgHg2
_chemical_formula_sum   'Mg32 Hg64'
_cell_volume   3601.70234214
_cell_formula_units_Z   32
loop_
 _symmetry_equiv_pos_site_id
 _symmetry_equiv_pos_as_xyz
  1  'x, y, z'
loop_
 _atom_site_type_symbol
 _atom_site_label
 _atom_site_symmetry_multiplicity
 _atom_site_fract_x
 _atom_site_fract_y
 _atom_site_fract_z
 _atom_site_occupancy
  Mg  Mg0  1  0.24762500  0.48989600  0.21153800  1
  Mg  Mg1  1  0.25237500  0.01010400  0.25000000  1
  Mg  Mg2  1  0.74762500  0.98989600  0.25000000  1
  Mg  Mg3  1  0.75237500  0.51010400  0.21153800  1
  Mg  Mg4  1  0.24762500  0.48989600  0.28846200  1
  Mg  Mg5  1  0.25237500  0.01010400  0.32692300  1
  Mg  Mg6  1  0.74762500  0.98989600  0.32692300  1
  Mg  Mg7  1  0.75237500  0.51010400  0.28846200  1
  Mg  Mg8  1  0.24762500  0.48989600  0.36538500  1
  Mg  Mg9  1  0.25237500  0.01010400  0.40384600  1
  Mg  Mg10  1  0.74762500  0.98989600  0.40384600  1
  Mg  Mg11  1  0.75237500  0.51010400  0.36538500  1
  Mg  Mg12  1  0.24762500  0.48989600  0.44230800  1
  Mg  Mg13  1  0.25237500  0.01010400  0.48076900  1
  Mg  Mg14  1  0.74762500  0.98989600  0.48076900  1
  Mg  Mg15  1  0.75237500  0.51010400  0.44230800  1
  Mg  Mg16  1  0.24762500  0.48989600  0.51923100  1
  Mg  Mg17  1  0.25237500  0.01010400  0.55769200  1
  Mg  Mg18  1  0.74762500  0.98989600  0.55769200  1
  Mg  Mg19  1  0.75237500  0.51010400  0.51923100  1
  Mg  Mg20  1  0.24762500  0.48989600  0.59615400  1
  Mg  Mg21  1  0.25237500  0.01010400  0.63461500  1
  Mg  Mg22  1  0.74762500  0.98989600  0.63461500  1
  Mg  Mg23  1  0.75237500  0.51010400  0.59615400  1
  Mg  Mg24  1  0.24762500  0.48989600  0.67307700  1
  Mg  Mg25  1  0.25237500  0.01010400  0.71153800  1
  Mg  Mg26  1  0.74762500  0.98989600  0.71153800  1
  Mg  Mg27  1  0.75237500  0.51010400  0.67307700  1
  Mg  Mg28  1  0.24762500  0.48989600  0.75000000  1
  Mg  Mg29  1  0.25237500  0.01010400  0.78846200  1
  Mg  Mg30  1  0.74762500  0.98989600  0.78846200  1
  Mg  Mg31  1  0.75237500  0.51010400  0.75000000  1
  Hg  Hg32  1  0.57846100  0.34893300  0.25000000  1
  Hg  Hg33  1  0.92153900  0.15106700  0.21153800  1
  Hg  Hg34  1  0.06161400  0.33927700  0.25000000  1
  Hg  Hg35  1  0.43838600  0.16072300  0.21153800  1
  Hg  Hg36  1  0.07846100  0.84893300  0.21153800  1
  Hg  Hg37  1  0.42153900  0.65106700  0.25000000  1
  Hg  Hg38  1  0.56161400  0.83927700  0.21153800  1
  Hg  Hg39  1  0.93838600  0.66072300  0.25000000  1
  Hg  Hg40  1  0.57846100  0.34893300  0.32692300  1
  Hg  Hg41  1  0.92153900  0.15106700  0.28846200  1
  Hg  Hg42  1  0.06161400  0.33927700  0.32692300  1
  Hg  Hg43  1  0.43838600  0.16072300  0.28846200  1
  Hg  Hg44  1  0.07846100  0.84893300  0.28846200  1
  Hg  Hg45  1  0.42153900  0.65106700  0.32692300  1
  Hg  Hg46  1  0.56161400  0.83927700  0.28846200  1
  Hg  Hg47  1  0.93838600  0.66072300  0.32692300  1
  Hg  Hg48  1  0.57846100  0.34893300  0.40384600  1
  Hg  Hg49  1  0.92153900  0.15106700  0.36538500  1
  Hg  Hg50  1  0.06161400  0.33927700  0.40384600  1
  Hg  Hg51  1  0.43838600  0.16072300  0.36538500  1
  Hg  Hg52  1  0.07846100  0.84893300  0.36538500  1
  Hg  Hg53  1  0.42153900  0.65106700  0.40384600  1
  Hg  Hg54  1  0.56161400  0.83927700  0.36538500  1
  Hg  Hg55  1  0.93838600  0.66072300  0.40384600  1
  Hg  Hg56  1  0.57846100  0.34893300  0.48076900  1
  Hg  Hg57  1  0.92153900  0.15106700  0.44230800  1
  Hg  Hg58  1  0.06161400  0.33927700  0.48076900  1
  Hg  Hg59  1  0.43838600  0.16072300  0.44230800  1
  Hg  Hg60  1  0.07846100  0.84893300  0.44230800  1
  Hg  Hg61  1  0.42153900  0.65106700  0.48076900  1
  Hg  Hg62  1  0.56161400  0.83927700  0.44230800  1
  Hg  Hg63  1  0.93838600  0.66072300  0.48076900  1
  Hg  Hg64  1  0.57846100  0.34893300  0.55769200  1
  Hg  Hg65  1  0.92153900  0.15106700  0.51923100  1
  Hg  Hg66  1  0.06161400  0.33927700  0.55769200  1
  Hg  Hg67  1  0.43838600  0.16072300  0.51923100  1
  Hg  Hg68  1  0.07846100  0.84893300  0.51923100  1
  Hg  Hg69  1  0.42153900  0.65106700  0.55769200  1
  Hg  Hg70  1  0.56161400  0.83927700  0.51923100  1
  Hg  Hg71  1  0.93838600  0.66072300  0.55769200  1
  Hg  Hg72  1  0.57846100  0.34893300  0.63461500  1
  Hg  Hg73  1  0.92153900  0.15106700  0.59615400  1
  Hg  Hg74  1  0.06161400  0.33927700  0.63461500  1
  Hg  Hg75  1  0.43838600  0.16072300  0.59615400  1
  Hg  Hg76  1  0.07846100  0.84893300  0.59615400  1
  Hg  Hg77  1  0.42153900  0.65106700  0.63461500  1
  Hg  Hg78  1  0.56161400  0.83927700  0.59615400  1
  Hg  Hg79  1  0.93838600  0.66072300  0.63461500  1
  Hg  Hg80  1  0.57846100  0.34893300  0.71153800  1
  Hg  Hg81  1  0.92153900  0.15106700  0.67307700  1
  Hg  Hg82  1  0.06161400  0.33927700  0.71153800  1
  Hg  Hg83  1  0.43838600  0.16072300  0.67307700  1
  Hg  Hg84  1  0.07846100  0.84893300  0.67307700  1
  Hg  Hg85  1  0.42153900  0.65106700  0.71153800  1
  Hg  Hg86  1  0.56161400  0.83927700  0.67307700  1
  Hg  Hg87  1  0.93838600  0.66072300  0.71153800  1
  Hg  Hg88  1  0.57846100  0.34893300  0.78846200  1
  Hg  Hg89  1  0.92153900  0.15106700  0.75000000  1
  Hg  Hg90  1  0.06161400  0.33927700  0.78846200  1
  Hg  Hg91  1  0.43838600  0.16072300  0.75000000  1
  Hg  Hg92  1  0.07846100  0.84893300  0.75000000  1
  Hg  Hg93  1  0.42153900  0.65106700  0.78846200  1
  Hg  Hg94  1  0.56161400  0.83927700  0.75000000  1
  Hg  Hg95  1  0.93838600  0.66072300  0.78846200  1
