# generated using pymatgen
data_Ho20Mg9
_symmetry_space_group_name_H-M   'P 1'
_cell_length_a   3.67361200
_cell_length_b   17.91934624
_cell_length_c   41.80471200
_cell_angle_alpha   96.38806847
_cell_angle_beta   90.00000000
_cell_angle_gamma   90.00000000
_symmetry_Int_Tables_number   1
_chemical_formula_structural   Ho20Mg9
_chemical_formula_sum   'Ho40 Mg18'
_cell_volume   2734.86434684
_cell_formula_units_Z   2
loop_
 _symmetry_equiv_pos_site_id
 _symmetry_equiv_pos_as_xyz
  1  'x, y, z'
loop_
 _atom_site_type_symbol
 _atom_site_label
 _atom_site_symmetry_multiplicity
 _atom_site_fract_x
 _atom_site_fract_y
 _atom_site_fract_z
 _atom_site_occupancy
  Ho  Ho0  1  1.00000000  0.99109200  0.27203900  1
  Ho  Ho1  1  0.50000000  0.83386200  0.29450000  1
  Ho  Ho2  1  0.50000000  0.65380300  0.24879400  1
  Ho  Ho3  1  0.00000000  0.81103300  0.22633300  1
  Ho  Ho4  1  0.50000000  0.42859200  0.20953900  1
  Ho  Ho5  1  0.00000000  0.27136200  0.23200000  1
  Ho  Ho6  1  0.00000000  0.21630300  0.31129400  1
  Ho  Ho7  1  0.50000000  0.37353300  0.28883300  1
  Ho  Ho8  1  0.00000000  0.11609200  0.39703900  1
  Ho  Ho9  1  0.50000000  0.95886200  0.41950000  1
  Ho  Ho10  1  0.50000000  0.77880300  0.37379400  1
  Ho  Ho11  1  0.00000000  0.93603300  0.35133300  1
  Ho  Ho12  1  0.50000000  0.55359200  0.33453900  1
  Ho  Ho13  1  0.00000000  0.39636200  0.35700000  1
  Ho  Ho14  1  0.00000000  0.34130300  0.43629400  1
  Ho  Ho15  1  0.50000000  0.49853300  0.41383300  1
  Ho  Ho16  1  1.00000000  0.24109200  0.52203900  1
  Ho  Ho17  1  0.50000000  0.08386200  0.54450000  1
  Ho  Ho18  1  0.50000000  0.90380300  0.49879400  1
  Ho  Ho19  1  0.00000000  0.06103300  0.47633300  1
  Ho  Ho20  1  0.50000000  0.67859200  0.45953900  1
  Ho  Ho21  1  0.00000000  0.52136200  0.48200000  1
  Ho  Ho22  1  0.00000000  0.46630300  0.56129400  1
  Ho  Ho23  1  0.50000000  0.62353300  0.53883300  1
  Ho  Ho24  1  0.00000000  0.36609200  0.64703900  1
  Ho  Ho25  1  0.50000000  0.20886200  0.66950000  1
  Ho  Ho26  1  0.50000000  0.02880300  0.62379400  1
  Ho  Ho27  1  0.00000000  0.18603300  0.60133300  1
  Ho  Ho28  1  0.50000000  0.80359200  0.58453900  1
  Ho  Ho29  1  0.00000000  0.64636200  0.60700000  1
  Ho  Ho30  1  0.00000000  0.59130300  0.68629400  1
  Ho  Ho31  1  0.50000000  0.74853300  0.66383300  1
  Ho  Ho32  1  0.00000000  0.49109200  0.77203900  1
  Ho  Ho33  1  0.50000000  0.33386200  0.79450000  1
  Ho  Ho34  1  0.50000000  0.15380300  0.74879400  1
  Ho  Ho35  1  0.00000000  0.31103300  0.72633300  1
  Ho  Ho36  1  0.50000000  0.92859200  0.70953900  1
  Ho  Ho37  1  0.00000000  0.77136200  0.73200000  1
  Ho  Ho38  1  0.00000000  0.71630300  0.81129400  1
  Ho  Ho39  1  0.50000000  0.87353300  0.78883300  1
  Mg  Mg40  1  0.50000000  0.13035600  0.25214400  1
  Mg  Mg41  1  0.00000000  0.51453900  0.26868900  1
  Mg  Mg42  1  0.00000000  0.69285600  0.31464400  1
  Mg  Mg43  1  0.50000000  0.07703900  0.33118900  1
  Mg  Mg44  1  0.50000000  0.25535600  0.37714400  1
  Mg  Mg45  1  0.00000000  0.63953900  0.39368900  1
  Mg  Mg46  1  0.00000000  0.81785600  0.43964400  1
  Mg  Mg47  1  0.50000000  0.20203900  0.45618900  1
  Mg  Mg48  1  0.50000000  0.38035600  0.50214400  1
  Mg  Mg49  1  0.00000000  0.76453900  0.51868900  1
  Mg  Mg50  1  0.00000000  0.94285600  0.56464400  1
  Mg  Mg51  1  0.50000000  0.32703900  0.58118900  1
  Mg  Mg52  1  0.50000000  0.50535600  0.62714400  1
  Mg  Mg53  1  0.00000000  0.88953900  0.64368900  1
  Mg  Mg54  1  0.00000000  0.06785600  0.68964400  1
  Mg  Mg55  1  0.50000000  0.45203900  0.70618900  1
  Mg  Mg56  1  0.50000000  0.63035600  0.75214400  1
  Mg  Mg57  1  0.00000000  0.01453900  0.76868900  1
