# generated using pymatgen
data_Mg11Au32
_symmetry_space_group_name_H-M   'P 1'
_cell_length_a   10.43041218
_cell_length_b   11.29953425
_cell_length_c   49.40543900
_cell_angle_alpha   85.63582371
_cell_angle_beta   88.14566253
_cell_angle_gamma   98.74753851
_symmetry_Int_Tables_number   1
_chemical_formula_structural   Mg11Au32
_chemical_formula_sum   'Mg44 Au128'
_cell_volume   5732.74310784
_cell_formula_units_Z   4
loop_
 _symmetry_equiv_pos_site_id
 _symmetry_equiv_pos_as_xyz
  1  'x, y, z'
loop_
 _atom_site_type_symbol
 _atom_site_label
 _atom_site_symmetry_multiplicity
 _atom_site_fract_x
 _atom_site_fract_y
 _atom_site_fract_z
 _atom_site_occupancy
  Mg  Mg0  1  0.41694900  0.59219500  0.76878400  1
  Mg  Mg1  1  0.94642500  0.51899400  0.79371600  1
  Mg  Mg2  1  0.89626600  0.16787700  0.74355700  1
  Mg  Mg3  1  0.36710800  0.24331200  0.71894300  1
  Mg  Mg4  1  0.03589200  0.51941600  0.70997600  1
  Mg  Mg5  1  0.22748200  0.89177300  0.75252400  1
  Mg  Mg6  1  0.60614500  0.29366700  0.78522600  1
  Mg  Mg7  1  0.75722900  0.81752200  0.77727400  1
  Mg  Mg8  1  0.31694900  0.89219500  0.66878400  1
  Mg  Mg9  1  0.84642500  0.81899400  0.69371600  1
  Mg  Mg10  1  0.79626600  0.46787700  0.64355700  1
  Mg  Mg11  1  0.26710800  0.54331200  0.61894300  1
  Mg  Mg12  1  0.93589200  0.81941600  0.60997600  1
  Mg  Mg13  1  0.12748200  0.19177300  0.65252400  1
  Mg  Mg14  1  0.50614500  0.59366700  0.68522600  1
  Mg  Mg15  1  0.65722900  0.11752200  0.67727400  1
  Mg  Mg16  1  0.21694900  0.19219500  0.56878400  1
  Mg  Mg17  1  0.74642500  0.11899400  0.59371600  1
  Mg  Mg18  1  0.69626600  0.76787700  0.54355700  1
  Mg  Mg19  1  0.16710800  0.84331200  0.51894300  1
  Mg  Mg20  1  0.83589200  0.11941600  0.50997600  1
  Mg  Mg21  1  0.02748200  0.49177300  0.55252400  1
  Mg  Mg22  1  0.40614500  0.89366700  0.58522600  1
  Mg  Mg23  1  0.55722900  0.41752200  0.57727400  1
  Mg  Mg24  1  0.11694900  0.49219500  0.46878400  1
  Mg  Mg25  1  0.64642500  0.41899400  0.49371600  1
  Mg  Mg26  1  0.59626600  0.06787700  0.44355700  1
  Mg  Mg27  1  0.06710800  0.14331200  0.41894300  1
  Mg  Mg28  1  0.73589200  0.41941600  0.40997600  1
  Mg  Mg29  1  0.92748200  0.79177300  0.45252400  1
  Mg  Mg30  1  0.30614500  0.19366700  0.48522600  1
  Mg  Mg31  1  0.45722900  0.71752200  0.47727400  1
  Mg  Mg32  1  0.01694900  0.79219500  0.36878400  1
  Mg  Mg33  1  0.54642500  0.71899400  0.39371600  1
  Mg  Mg34  1  0.49626600  0.36787700  0.34355700  1
  Mg  Mg35  1  0.96710800  0.44331200  0.31894300  1
  Mg  Mg36  1  0.63589200  0.71941600  0.30997600  1
  Mg  Mg37  1  0.82748200  0.09177300  0.35252400  1
  Mg  Mg38  1  0.20614500  0.49366700  0.38522600  1
  Mg  Mg39  1  0.35722900  0.01752200  0.37727400  1
  Mg  Mg40  1  0.91694900  0.09219500  0.26878400  1
  Mg  Mg41  1  0.44642500  0.01899400  0.29371600  1
  Mg  Mg42  1  0.10614500  0.79366700  0.28522600  1
  Mg  Mg43  1  0.25722900  0.31752200  0.27727400  1
  Au  Au44  1  0.10657500  0.28093100  0.70613800  1
  Au  Au45  1  0.10679900  0.78025800  0.70636200  1
  Au  Au46  1  0.15679900  0.13025800  0.75636200  1
  Au  Au47  1  0.15657500  0.63093100  0.75613800  1
  Au  Au48  1  0.94227000  0.01816800  0.79390900  1
  Au  Au49  1  0.42110400  0.09302100  0.76859100  1
  Au  Au50  1  0.37121400  0.74379000  0.71870100  1
  Au  Au51  1  0.89216000  0.66739900  0.74379900  1
  Au  Au52  1  0.49208000  0.85395900  0.76512900  1
  Au  Au53  1  0.82170300  0.40600400  0.74778000  1
  Au  Au54  1  0.87129400  0.25723000  0.79737100  1
  Au  Au55  1  0.44167100  0.00518400  0.71472000  1
  Au  Au56  1  0.01632700  0.77962700  0.78990600  1
  Au  Au57  1  0.29695700  0.48183100  0.72250400  1
  Au  Au58  1  0.34704700  0.33156200  0.77259400  1
  Au  Au59  1  0.96641700  0.92935700  0.73999600  1
  Au  Au60  1  0.68168700  0.55559400  0.78125000  1
  Au  Au61  1  0.63168700  0.70559400  0.73125000  1
  Au  Au62  1  0.63168700  0.20559400  0.73125000  1
  Au  Au63  1  0.68168700  0.05559400  0.78125000  1
  Au  Au64  1  0.55906100  0.44412700  0.73507200  1
  Au  Au65  1  0.70431300  0.96706200  0.72742800  1
  Au  Au66  1  0.07957600  0.36841900  0.76030800  1
  Au  Au67  1  0.18379800  0.04277000  0.70219200  1
  Au  Au68  1  0.00657500  0.58093100  0.60613800  1
  Au  Au69  1  0.00679900  0.08025800  0.60636200  1
  Au  Au70  1  0.05679900  0.43025800  0.65636200  1
  Au  Au71  1  0.05657500  0.93093100  0.65613800  1
  Au  Au72  1  0.84227000  0.31816800  0.69390900  1
  Au  Au73  1  0.32110400  0.39302100  0.66859100  1
  Au  Au74  1  0.27121400  0.04379000  0.61870100  1
  Au  Au75  1  0.79216000  0.96739900  0.64379900  1
  Au  Au76  1  0.39208000  0.15395900  0.66512900  1
  Au  Au77  1  0.72170300  0.70600400  0.64778000  1
  Au  Au78  1  0.77129400  0.55723000  0.69737100  1
  Au  Au79  1  0.34167100  0.30518400  0.61472000  1
  Au  Au80  1  0.91632700  0.07962700  0.68990600  1
  Au  Au81  1  0.19695700  0.78183100  0.62250400  1
  Au  Au82  1  0.24704700  0.63156200  0.67259400  1
  Au  Au83  1  0.86641700  0.22935700  0.63999600  1
  Au  Au84  1  0.58168700  0.85559400  0.68125000  1
  Au  Au85  1  0.53168700  0.00559400  0.63125000  1
  Au  Au86  1  0.53168700  0.50559400  0.63125000  1
  Au  Au87  1  0.58168700  0.35559400  0.68125000  1
  Au  Au88  1  0.45906100  0.74412700  0.63507200  1
  Au  Au89  1  0.60431300  0.26706200  0.62742800  1
  Au  Au90  1  0.97957600  0.66841900  0.66030800  1
  Au  Au91  1  0.08379800  0.34277000  0.60219200  1
  Au  Au92  1  0.90657500  0.88093100  0.50613800  1
  Au  Au93  1  0.90679900  0.38025800  0.50636200  1
  Au  Au94  1  0.95679900  0.73025800  0.55636200  1
  Au  Au95  1  0.95657500  0.23093100  0.55613800  1
  Au  Au96  1  0.74227000  0.61816800  0.59390900  1
  Au  Au97  1  0.22110400  0.69302100  0.56859100  1
  Au  Au98  1  0.17121400  0.34379000  0.51870100  1
  Au  Au99  1  0.69216000  0.26739900  0.54379900  1
  Au  Au100  1  0.29208000  0.45395900  0.56512900  1
  Au  Au101  1  0.62170300  0.00600400  0.54778000  1
  Au  Au102  1  0.67129400  0.85723000  0.59737100  1
  Au  Au103  1  0.24167100  0.60518400  0.51472000  1
  Au  Au104  1  0.81632700  0.37962700  0.58990600  1
  Au  Au105  1  0.09695700  0.08183100  0.52250400  1
  Au  Au106  1  0.14704700  0.93156200  0.57259400  1
  Au  Au107  1  0.76641700  0.52935700  0.53999600  1
  Au  Au108  1  0.48168700  0.15559400  0.58125000  1
  Au  Au109  1  0.43168700  0.30559400  0.53125000  1
  Au  Au110  1  0.43168700  0.80559400  0.53125000  1
  Au  Au111  1  0.48168700  0.65559400  0.58125000  1
  Au  Au112  1  0.35906100  0.04412700  0.53507200  1
  Au  Au113  1  0.50431300  0.56706200  0.52742800  1
  Au  Au114  1  0.87957600  0.96841900  0.56030800  1
  Au  Au115  1  0.98379800  0.64277000  0.50219200  1
  Au  Au116  1  0.80657500  0.18093100  0.40613800  1
  Au  Au117  1  0.80679900  0.68025800  0.40636200  1
  Au  Au118  1  0.85679900  0.03025800  0.45636200  1
  Au  Au119  1  0.85657500  0.53093100  0.45613800  1
  Au  Au120  1  0.64227000  0.91816800  0.49390900  1
  Au  Au121  1  0.12110400  0.99302100  0.46859100  1
  Au  Au122  1  0.07121400  0.64379000  0.41870100  1
  Au  Au123  1  0.59216000  0.56739900  0.44379900  1
  Au  Au124  1  0.19208000  0.75395900  0.46512900  1
  Au  Au125  1  0.52170300  0.30600400  0.44778000  1
  Au  Au126  1  0.57129400  0.15723000  0.49737100  1
  Au  Au127  1  0.14167100  0.90518400  0.41472000  1
  Au  Au128  1  0.71632700  0.67962700  0.48990600  1
  Au  Au129  1  0.99695700  0.38183100  0.42250400  1
  Au  Au130  1  0.04704700  0.23156200  0.47259400  1
  Au  Au131  1  0.66641700  0.82935700  0.43999600  1
  Au  Au132  1  0.38168700  0.45559400  0.48125000  1
  Au  Au133  1  0.33168700  0.60559400  0.43125000  1
  Au  Au134  1  0.33168700  0.10559400  0.43125000  1
  Au  Au135  1  0.38168700  0.95559400  0.48125000  1
  Au  Au136  1  0.25906100  0.34412700  0.43507200  1
  Au  Au137  1  0.40431300  0.86706200  0.42742800  1
  Au  Au138  1  0.77957600  0.26841900  0.46030800  1
  Au  Au139  1  0.88379800  0.94277000  0.40219200  1
  Au  Au140  1  0.70657500  0.48093100  0.30613800  1
  Au  Au141  1  0.70679900  0.98025800  0.30636200  1
  Au  Au142  1  0.75679900  0.33025800  0.35636200  1
  Au  Au143  1  0.75657500  0.83093100  0.35613800  1
  Au  Au144  1  0.54227000  0.21816800  0.39390900  1
  Au  Au145  1  0.02110400  0.29302100  0.36859100  1
  Au  Au146  1  0.97121400  0.94379000  0.31870100  1
  Au  Au147  1  0.49216000  0.86739900  0.34379900  1
  Au  Au148  1  0.09208000  0.05395900  0.36512900  1
  Au  Au149  1  0.42170300  0.60600400  0.34778000  1
  Au  Au150  1  0.47129400  0.45723000  0.39737100  1
  Au  Au151  1  0.04167100  0.20518400  0.31472000  1
  Au  Au152  1  0.61632700  0.97962700  0.38990600  1
  Au  Au153  1  0.89695700  0.68183100  0.32250400  1
  Au  Au154  1  0.94704700  0.53156200  0.37259400  1
  Au  Au155  1  0.56641700  0.12935700  0.33999600  1
  Au  Au156  1  0.28168700  0.75559400  0.38125000  1
  Au  Au157  1  0.23168700  0.90559400  0.33125000  1
  Au  Au158  1  0.23168700  0.40559400  0.33125000  1
  Au  Au159  1  0.28168700  0.25559400  0.38125000  1
  Au  Au160  1  0.15906100  0.64412700  0.33507200  1
  Au  Au161  1  0.30431300  0.16706200  0.32742800  1
  Au  Au162  1  0.67957600  0.56841900  0.36030800  1
  Au  Au163  1  0.78379800  0.24277000  0.30219200  1
  Au  Au164  1  0.44227000  0.51816800  0.29390900  1
  Au  Au165  1  0.92110400  0.59302100  0.26859100  1
  Au  Au166  1  0.99208000  0.35395900  0.26512900  1
  Au  Au167  1  0.37129400  0.75723000  0.29737100  1
  Au  Au168  1  0.51632700  0.27962700  0.28990600  1
  Au  Au169  1  0.84704700  0.83156200  0.27259400  1
  Au  Au170  1  0.18168700  0.05559400  0.28125000  1
  Au  Au171  1  0.18168700  0.55559400  0.28125000  1
