# generated using pymatgen
data_Mg12B83
_symmetry_space_group_name_H-M   'P 1'
_cell_length_a   10.07244113
_cell_length_b   12.05234828
_cell_length_c   43.84258900
_cell_angle_alpha   85.56912893
_cell_angle_beta   87.53461614
_cell_angle_gamma   72.91219278
_symmetry_Int_Tables_number   1
_chemical_formula_structural   Mg12B83
_chemical_formula_sum   'Mg48 B332'
_cell_volume   5071.03078932
_cell_formula_units_Z   4
loop_
 _symmetry_equiv_pos_site_id
 _symmetry_equiv_pos_as_xyz
  1  'x, y, z'
loop_
 _atom_site_type_symbol
 _atom_site_label
 _atom_site_symmetry_multiplicity
 _atom_site_fract_x
 _atom_site_fract_y
 _atom_site_fract_z
 _atom_site_occupancy
  Mg  Mg0  1  0.00360700  0.58573800  0.27812500  1
  Mg  Mg1  1  0.15360700  0.68573800  0.22812500  1
  Mg  Mg2  1  0.15886400  0.11280700  0.26459000  1
  Mg  Mg3  1  0.49834900  0.65866900  0.24166000  1
  Mg  Mg4  1  0.65360700  0.18573800  0.22812500  1
  Mg  Mg5  1  0.50360700  0.08573800  0.27812500  1
  Mg  Mg6  1  0.80886400  0.71280700  0.21459000  1
  Mg  Mg7  1  0.84834900  0.05866900  0.29166000  1
  Mg  Mg8  1  0.70360700  0.38573800  0.37812500  1
  Mg  Mg9  1  0.85360700  0.48573800  0.32812500  1
  Mg  Mg10  1  0.85886400  0.91280700  0.36459000  1
  Mg  Mg11  1  0.19834900  0.45866900  0.34166000  1
  Mg  Mg12  1  0.35360700  0.98573800  0.32812500  1
  Mg  Mg13  1  0.20360700  0.88573800  0.37812500  1
  Mg  Mg14  1  0.50886400  0.51280700  0.31459000  1
  Mg  Mg15  1  0.54834900  0.85866900  0.39166000  1
  Mg  Mg16  1  0.40360700  0.18573800  0.47812500  1
  Mg  Mg17  1  0.55360700  0.28573800  0.42812500  1
  Mg  Mg18  1  0.55886400  0.71280700  0.46459000  1
  Mg  Mg19  1  0.89834900  0.25866900  0.44166000  1
  Mg  Mg20  1  0.05360700  0.78573800  0.42812500  1
  Mg  Mg21  1  0.90360700  0.68573800  0.47812500  1
  Mg  Mg22  1  0.20886400  0.31280700  0.41459000  1
  Mg  Mg23  1  0.24834900  0.65866900  0.49166000  1
  Mg  Mg24  1  0.10360700  0.98573800  0.57812500  1
  Mg  Mg25  1  0.25360700  0.08573800  0.52812500  1
  Mg  Mg26  1  0.25886400  0.51280700  0.56459000  1
  Mg  Mg27  1  0.59834900  0.05866900  0.54166000  1
  Mg  Mg28  1  0.75360700  0.58573800  0.52812500  1
  Mg  Mg29  1  0.60360700  0.48573800  0.57812500  1
  Mg  Mg30  1  0.90886400  0.11280700  0.51459000  1
  Mg  Mg31  1  0.94834900  0.45866900  0.59166000  1
  Mg  Mg32  1  0.80360700  0.78573800  0.67812500  1
  Mg  Mg33  1  0.95360700  0.88573800  0.62812500  1
  Mg  Mg34  1  0.95886400  0.31280700  0.66459000  1
  Mg  Mg35  1  0.29834900  0.85866900  0.64166000  1
  Mg  Mg36  1  0.45360700  0.38573800  0.62812500  1
  Mg  Mg37  1  0.30360700  0.28573800  0.67812500  1
  Mg  Mg38  1  0.60886400  0.91280700  0.61459000  1
  Mg  Mg39  1  0.64834900  0.25866900  0.69166000  1
  Mg  Mg40  1  0.50360700  0.58573800  0.77812500  1
  Mg  Mg41  1  0.65360700  0.68573800  0.72812500  1
  Mg  Mg42  1  0.65886400  0.11280700  0.76459000  1
  Mg  Mg43  1  0.99834900  0.65866900  0.74166000  1
  Mg  Mg44  1  0.15360700  0.18573800  0.72812500  1
  Mg  Mg45  1  0.00360700  0.08573800  0.77812500  1
  Mg  Mg46  1  0.30886400  0.71280700  0.71459000  1
  Mg  Mg47  1  0.34834900  0.05866900  0.79166000  1
  B  B48  1  0.36713800  0.97508700  0.27870100  1
  B  B49  1  0.26054500  0.88838300  0.29071900  1
  B  B50  1  0.41257800  0.98973900  0.24004200  1
  B  B51  1  0.07985700  0.75516900  0.27726100  1
  B  B52  1  0.41169700  0.12352100  0.21730000  1
  B  B53  1  0.09178900  0.90044900  0.27759200  1
  B  B54  1  0.12673500  0.88463200  0.21252900  1
  B  B55  1  0.36137700  0.25770900  0.23407300  1
  B  B56  1  0.45724500  0.36384800  0.22515300  1
  B  B57  1  0.30927900  0.26520400  0.27447500  1
  B  B58  1  0.12057300  0.03508200  0.21027500  1
  B  B59  1  0.02723800  0.97285900  0.24138700  1
  B  B60  1  0.62997600  0.79861700  0.26486300  1
  B  B61  1  0.53664100  0.73639300  0.29597500  1
  B  B62  1  0.34793500  0.50627200  0.23177500  1
  B  B63  1  0.19996800  0.40762700  0.28109700  1
  B  B64  1  0.29583700  0.51376700  0.27217700  1
  B  B65  1  0.53047900  0.88684400  0.29372100  1
  B  B66  1  0.56542500  0.87102700  0.22865800  1
  B  B67  1  0.24551600  0.64795500  0.28895000  1
  B  B68  1  0.57735700  0.01630700  0.22898900  1
  B  B69  1  0.24463500  0.78173700  0.26620800  1
  B  B70  1  0.39666900  0.88309300  0.21553100  1
  B  B71  1  0.29007500  0.79638900  0.22754900  1
  B  B72  1  0.01713800  0.57508700  0.22870100  1
  B  B73  1  0.91054500  0.48838300  0.24071900  1
  B  B74  1  0.76257800  0.38973900  0.29004200  1
  B  B75  1  0.72985700  0.35516900  0.22726100  1
  B  B76  1  0.76169700  0.52352100  0.26730000  1
  B  B77  1  0.74178900  0.50044900  0.22759200  1
  B  B78  1  0.64845400  0.43822600  0.25870400  1
  B  B79  1  0.47673500  0.28463200  0.26252900  1
  B  B80  1  0.95143900  0.75028400  0.25060100  1
  B  B81  1  0.71137700  0.65770900  0.28407300  1
  B  B82  1  0.80724500  0.76384800  0.27515300  1
  B  B83  1  0.95927900  0.86520400  0.22447500  1
  B  B84  1  0.47057300  0.43508200  0.26027500  1
  B  B85  1  0.37723800  0.37285900  0.29138700  1
  B  B86  1  0.27997600  0.39861700  0.21486300  1
  B  B87  1  0.18664100  0.33639300  0.24597500  1
  B  B88  1  0.69793500  0.90627200  0.28177500  1
  B  B89  1  0.84996800  0.00762700  0.23109700  1
  B  B90  1  0.94583700  0.11376700  0.22217700  1
  B  B91  1  0.70577400  0.02119100  0.25564900  1
  B  B92  1  0.18047900  0.48684400  0.24372100  1
  B  B93  1  0.00876000  0.33325000  0.24754600  1
  B  B94  1  0.91542500  0.27102700  0.27865800  1
  B  B95  1  0.89551600  0.24795500  0.23895000  1
  B  B96  1  0.92735700  0.41630700  0.27898900  1
  B  B97  1  0.89463500  0.38173700  0.21620800  1
  B  B98  1  0.74666900  0.28309300  0.26553100  1
  B  B99  1  0.64007500  0.19638900  0.27754900  1
  B  B100  1  0.06713800  0.77508700  0.37870100  1
  B  B101  1  0.96054500  0.68838300  0.39071900  1
  B  B102  1  0.11257800  0.78973900  0.34004200  1
  B  B103  1  0.77985700  0.55516900  0.37726100  1
  B  B104  1  0.11169700  0.92352100  0.31730000  1
  B  B105  1  0.79178900  0.70044900  0.37759200  1
  B  B106  1  0.99845400  0.83822600  0.30870400  1
  B  B107  1  0.82673500  0.68463200  0.31252900  1
  B  B108  1  0.30143900  0.15028400  0.30060100  1
  B  B109  1  0.06137700  0.05770900  0.33407300  1
  B  B110  1  0.15724500  0.16384800  0.32515300  1
  B  B111  1  0.00927900  0.06520400  0.37447500  1
  B  B112  1  0.82057300  0.83508200  0.31027500  1
  B  B113  1  0.72723800  0.77285900  0.34138700  1
  B  B114  1  0.32997600  0.59861700  0.36486300  1
  B  B115  1  0.23664100  0.53639300  0.39597500  1
  B  B116  1  0.04793500  0.30627200  0.33177500  1
  B  B117  1  0.89996800  0.20762700  0.38109700  1
  B  B118  1  0.99583700  0.31376700  0.37217700  1
  B  B119  1  0.05577400  0.42119100  0.30564900  1
  B  B120  1  0.23047900  0.68684400  0.39372100  1
  B  B121  1  0.35876000  0.73325000  0.29754600  1
  B  B122  1  0.26542500  0.67102700  0.32865800  1
  B  B123  1  0.94551600  0.44795500  0.38895000  1
  B  B124  1  0.27735700  0.81630700  0.32898900  1
  B  B125  1  0.94463500  0.58173700  0.36620800  1
  B  B126  1  0.09666900  0.68309300  0.31553100  1
  B  B127  1  0.99007500  0.59638900  0.32754900  1
  B  B128  1  0.71713800  0.37508700  0.32870100  1
  B  B129  1  0.61054500  0.28838300  0.34071900  1
  B  B130  1  0.46257800  0.18973900  0.39004200  1
  B  B131  1  0.42985700  0.15516900  0.32726100  1
  B  B132  1  0.46169700  0.32352100  0.36730000  1
  B  B133  1  0.44178900  0.30044900  0.32759200  1
  B  B134  1  0.34845400  0.23822600  0.35870400  1
  B  B135  1  0.17673500  0.08463200  0.36252900  1
  B  B136  1  0.65143900  0.55028400  0.35060100  1
  B  B137  1  0.41137700  0.45770900  0.38407300  1
  B  B138  1  0.50724500  0.56384800  0.37515300  1
  B  B139  1  0.65927900  0.66520400  0.32447500  1
  B  B140  1  0.17057300  0.23508200  0.36027500  1
  B  B141  1  0.07723800  0.17285900  0.39138700  1
  B  B142  1  0.97997600  0.19861700  0.31486300  1
  B  B143  1  0.88664100  0.13639300  0.34597500  1
  B  B144  1  0.39793500  0.70627200  0.38177500  1
  B  B145  1  0.54996800  0.80762700  0.33109700  1
  B  B146  1  0.64583700  0.91376700  0.32217700  1
  B  B147  1  0.40577400  0.82119100  0.35564900  1
  B  B148  1  0.88047900  0.28684400  0.34372100  1
  B  B149  1  0.70876000  0.13325000  0.34754600  1
  B  B150  1  0.61542500  0.07102700  0.37865800  1
  B  B151  1  0.59551600  0.04795500  0.33895000  1
  B  B152  1  0.62735700  0.21630700  0.37898900  1
  B  B153  1  0.59463500  0.18173700  0.31620800  1
  B  B154  1  0.44666900  0.08309300  0.36553100  1
  B  B155  1  0.34007500  0.99638900  0.37754900  1
  B  B156  1  0.76713800  0.57508700  0.47870100  1
  B  B157  1  0.66054500  0.48838300  0.49071900  1
  B  B158  1  0.81257800  0.58973900  0.44004200  1
  B  B159  1  0.47985700  0.35516900  0.47726100  1
  B  B160  1  0.81169700  0.72352100  0.41730000  1
  B  B161  1  0.49178900  0.50044900  0.47759200  1
  B  B162  1  0.69845400  0.63822600  0.40870400  1
  B  B163  1  0.52673500  0.48463200  0.41252900  1
  B  B164  1  0.00143900  0.95028400  0.40060100  1
  B  B165  1  0.76137700  0.85770900  0.43407300  1
  B  B166  1  0.85724500  0.96384800  0.42515300  1
  B  B167  1  0.70927900  0.86520400  0.47447500  1
  B  B168  1  0.52057300  0.63508200  0.41027500  1
  B  B169  1  0.42723800  0.57285900  0.44138700  1
  B  B170  1  0.02997600  0.39861700  0.46486300  1
  B  B171  1  0.93664100  0.33639300  0.49597500  1
  B  B172  1  0.74793500  0.10627200  0.43177500  1
  B  B173  1  0.59996800  0.00762700  0.48109700  1
  B  B174  1  0.69583700  0.11376700  0.47217700  1
  B  B175  1  0.75577400  0.22119100  0.40564900  1
  B  B176  1  0.93047900  0.48684400  0.49372100  1
  B  B177  1  0.05876000  0.53325000  0.39754600  1
  B  B178  1  0.96542500  0.47102700  0.42865800  1
  B  B179  1  0.64551600  0.24795500  0.48895000  1
  B  B180  1  0.97735700  0.61630700  0.42898900  1
  B  B181  1  0.64463500  0.38173700  0.46620800  1
  B  B182  1  0.79666900  0.48309300  0.41553100  1
  B  B183  1  0.69007500  0.39638900  0.42754900  1
  B  B184  1  0.41713800  0.17508700  0.42870100  1
  B  B185  1  0.31054500  0.08838300  0.44071900  1
  B  B186  1  0.16257800  0.98973900  0.49004200  1
  B  B187  1  0.12985700  0.95516900  0.42726100  1
  B  B188  1  0.16169700  0.12352100  0.46730000  1
  B  B189  1  0.14178900  0.10044900  0.42759200  1
  B  B190  1  0.04845400  0.03822600  0.45870400  1
  B  B191  1  0.87673500  0.88463200  0.46252900  1
  B  B192  1  0.35143900  0.35028400  0.45060100  1
  B  B193  1  0.11137700  0.25770900  0.48407300  1
  B  B194  1  0.20724500  0.36384800  0.47515300  1
  B  B195  1  0.35927900  0.46520400  0.42447500  1
  B  B196  1  0.87057300  0.03508200  0.46027500  1
  B  B197  1  0.77723800  0.97285900  0.49138700  1
  B  B198  1  0.67997600  0.99861700  0.41486300  1
  B  B199  1  0.58664100  0.93639300  0.44597500  1
  B  B200  1  0.09793500  0.50627200  0.48177500  1
  B  B201  1  0.24996800  0.60762700  0.43109700  1
  B  B202  1  0.34583700  0.71376700  0.42217700  1
  B  B203  1  0.10577400  0.62119100  0.45564900  1
  B  B204  1  0.58047900  0.08684400  0.44372100  1
  B  B205  1  0.40876000  0.93325000  0.44754600  1
  B  B206  1  0.31542500  0.87102700  0.47865800  1
  B  B207  1  0.29551600  0.84795500  0.43895000  1
  B  B208  1  0.32735700  0.01630700  0.47898900  1
  B  B209  1  0.29463500  0.98173700  0.41620800  1
  B  B210  1  0.14666900  0.88309300  0.46553100  1
  B  B211  1  0.04007500  0.79638900  0.47754900  1
  B  B212  1  0.46713800  0.37508700  0.57870100  1
  B  B213  1  0.36054500  0.28838300  0.59071900  1
  B  B214  1  0.51257800  0.38973900  0.54004200  1
  B  B215  1  0.17985700  0.15516900  0.57726100  1
  B  B216  1  0.51169700  0.52352100  0.51730000  1
  B  B217  1  0.19178900  0.30044900  0.57759200  1
  B  B218  1  0.39845400  0.43822600  0.50870400  1
  B  B219  1  0.22673500  0.28463200  0.51252900  1
  B  B220  1  0.70143900  0.75028400  0.50060100  1
  B  B221  1  0.46137700  0.65770900  0.53407300  1
  B  B222  1  0.55724500  0.76384800  0.52515300  1
  B  B223  1  0.40927900  0.66520400  0.57447500  1
  B  B224  1  0.22057300  0.43508200  0.51027500  1
  B  B225  1  0.12723800  0.37285900  0.54138700  1
  B  B226  1  0.72997600  0.19861700  0.56486300  1
  B  B227  1  0.63664100  0.13639300  0.59597500  1
  B  B228  1  0.44793500  0.90627200  0.53177500  1
  B  B229  1  0.29996800  0.80762700  0.58109700  1
  B  B230  1  0.39583700  0.91376700  0.57217700  1
  B  B231  1  0.45577400  0.02119100  0.50564900  1
  B  B232  1  0.63047900  0.28684400  0.59372100  1
  B  B233  1  0.75876000  0.33325000  0.49754600  1
  B  B234  1  0.66542500  0.27102700  0.52865800  1
  B  B235  1  0.34551600  0.04795500  0.58895000  1
  B  B236  1  0.67735700  0.41630700  0.52898900  1
  B  B237  1  0.34463500  0.18173700  0.56620800  1
  B  B238  1  0.49666900  0.28309300  0.51553100  1
  B  B239  1  0.39007500  0.19638900  0.52754900  1
  B  B240  1  0.11713800  0.97508700  0.52870100  1
  B  B241  1  0.01054500  0.88838300  0.54071900  1
  B  B242  1  0.86257800  0.78973900  0.59004200  1
  B  B243  1  0.82985700  0.75516900  0.52726100  1
  B  B244  1  0.86169700  0.92352100  0.56730000  1
  B  B245  1  0.84178900  0.90044900  0.52759200  1
  B  B246  1  0.74845400  0.83822600  0.55870400  1
  B  B247  1  0.57673500  0.68463200  0.56252900  1
  B  B248  1  0.05143900  0.15028400  0.55060100  1
  B  B249  1  0.81137700  0.05770900  0.58407300  1
  B  B250  1  0.90724500  0.16384800  0.57515300  1
  B  B251  1  0.05927900  0.26520400  0.52447500  1
  B  B252  1  0.57057300  0.83508200  0.56027500  1
  B  B253  1  0.47723800  0.77285900  0.59138700  1
  B  B254  1  0.37997600  0.79861700  0.51486300  1
  B  B255  1  0.28664100  0.73639300  0.54597500  1
  B  B256  1  0.79793500  0.30627200  0.58177500  1
  B  B257  1  0.94996800  0.40762700  0.53109700  1
  B  B258  1  0.04583700  0.51376700  0.52217700  1
  B  B259  1  0.80577400  0.42119100  0.55564900  1
  B  B260  1  0.28047900  0.88684400  0.54372100  1
  B  B261  1  0.10876000  0.73325000  0.54754600  1
  B  B262  1  0.01542500  0.67102700  0.57865800  1
  B  B263  1  0.99551600  0.64795500  0.53895000  1
  B  B264  1  0.02735700  0.81630700  0.57898900  1
  B  B265  1  0.99463500  0.78173700  0.51620800  1
  B  B266  1  0.84666900  0.68309300  0.56553100  1
  B  B267  1  0.74007500  0.59638900  0.57754900  1
  B  B268  1  0.16713800  0.17508700  0.67870100  1
  B  B269  1  0.06054500  0.08838300  0.69071900  1
  B  B270  1  0.21257800  0.18973900  0.64004200  1
  B  B271  1  0.87985700  0.95516900  0.67726100  1
  B  B272  1  0.21169700  0.32352100  0.61730000  1
  B  B273  1  0.89178900  0.10044900  0.67759200  1
  B  B274  1  0.09845400  0.23822600  0.60870400  1
  B  B275  1  0.92673500  0.08463200  0.61252900  1
  B  B276  1  0.40143900  0.55028400  0.60060100  1
  B  B277  1  0.16137700  0.45770900  0.63407300  1
  B  B278  1  0.25724500  0.56384800  0.62515300  1
  B  B279  1  0.10927900  0.46520400  0.67447500  1
  B  B280  1  0.92057300  0.23508200  0.61027500  1
  B  B281  1  0.82723800  0.17285900  0.64138700  1
  B  B282  1  0.42997600  0.99861700  0.66486300  1
  B  B283  1  0.33664100  0.93639300  0.69597500  1
  B  B284  1  0.14793500  0.70627200  0.63177500  1
  B  B285  1  0.99996800  0.60762700  0.68109700  1
  B  B286  1  0.09583700  0.71376700  0.67217700  1
  B  B287  1  0.15577400  0.82119100  0.60564900  1
  B  B288  1  0.33047900  0.08684400  0.69372100  1
  B  B289  1  0.45876000  0.13325000  0.59754600  1
  B  B290  1  0.36542500  0.07102700  0.62865800  1
  B  B291  1  0.04551600  0.84795500  0.68895000  1
  B  B292  1  0.37735700  0.21630700  0.62898900  1
  B  B293  1  0.04463500  0.98173700  0.66620800  1
  B  B294  1  0.19666900  0.08309300  0.61553100  1
  B  B295  1  0.09007500  0.99638900  0.62754900  1
  B  B296  1  0.81713800  0.77508700  0.62870100  1
  B  B297  1  0.71054500  0.68838300  0.64071900  1
  B  B298  1  0.56257800  0.58973900  0.69004200  1
  B  B299  1  0.52985700  0.55516900  0.62726100  1
  B  B300  1  0.56169700  0.72352100  0.66730000  1
  B  B301  1  0.54178900  0.70044900  0.62759200  1
  B  B302  1  0.44845400  0.63822600  0.65870400  1
  B  B303  1  0.27673500  0.48463200  0.66252900  1
  B  B304  1  0.75143900  0.95028400  0.65060100  1
  B  B305  1  0.51137700  0.85770900  0.68407300  1
  B  B306  1  0.60724500  0.96384800  0.67515300  1
  B  B307  1  0.75927900  0.06520400  0.62447500  1
  B  B308  1  0.27057300  0.63508200  0.66027500  1
  B  B309  1  0.17723800  0.57285900  0.69138700  1
  B  B310  1  0.07997600  0.59861700  0.61486300  1
  B  B311  1  0.98664100  0.53639300  0.64597500  1
  B  B312  1  0.49793500  0.10627200  0.68177500  1
  B  B313  1  0.64996800  0.20762700  0.63109700  1
  B  B314  1  0.74583700  0.31376700  0.62217700  1
  B  B315  1  0.50577400  0.22119100  0.65564900  1
  B  B316  1  0.98047900  0.68684400  0.64372100  1
  B  B317  1  0.80876000  0.53325000  0.64754600  1
  B  B318  1  0.71542500  0.47102700  0.67865800  1
  B  B319  1  0.69551600  0.44795500  0.63895000  1
  B  B320  1  0.72735700  0.61630700  0.67898900  1
  B  B321  1  0.69463500  0.58173700  0.61620800  1
  B  B322  1  0.54666900  0.48309300  0.66553100  1
  B  B323  1  0.44007500  0.39638900  0.67754900  1
  B  B324  1  0.86713800  0.97508700  0.77870100  1
  B  B325  1  0.76054500  0.88838300  0.79071900  1
  B  B326  1  0.91257800  0.98973900  0.74004200  1
  B  B327  1  0.57985700  0.75516900  0.77726100  1
  B  B328  1  0.91169700  0.12352100  0.71730000  1
  B  B329  1  0.59178900  0.90044900  0.77759200  1
  B  B330  1  0.79845400  0.03822600  0.70870400  1
  B  B331  1  0.62673500  0.88463200  0.71252900  1
  B  B332  1  0.10143900  0.35028400  0.70060100  1
  B  B333  1  0.86137700  0.25770900  0.73407300  1
  B  B334  1  0.95724500  0.36384800  0.72515300  1
  B  B335  1  0.80927900  0.26520400  0.77447500  1
  B  B336  1  0.62057300  0.03508200  0.71027500  1
  B  B337  1  0.52723800  0.97285900  0.74138700  1
  B  B338  1  0.12997600  0.79861700  0.76486300  1
  B  B339  1  0.03664100  0.73639300  0.79597500  1
  B  B340  1  0.84793500  0.50627200  0.73177500  1
  B  B341  1  0.69996800  0.40762700  0.78109700  1
  B  B342  1  0.79583700  0.51376700  0.77217700  1
  B  B343  1  0.85577400  0.62119100  0.70564900  1
  B  B344  1  0.03047900  0.88684400  0.79372100  1
  B  B345  1  0.15876000  0.93325000  0.69754600  1
  B  B346  1  0.06542500  0.87102700  0.72865800  1
  B  B347  1  0.74551600  0.64795500  0.78895000  1
  B  B348  1  0.07735700  0.01630700  0.72898900  1
  B  B349  1  0.74463500  0.78173700  0.76620800  1
  B  B350  1  0.89666900  0.88309300  0.71553100  1
  B  B351  1  0.79007500  0.79638900  0.72754900  1
  B  B352  1  0.51713800  0.57508700  0.72870100  1
  B  B353  1  0.41054500  0.48838300  0.74071900  1
  B  B354  1  0.26257800  0.38973900  0.79004200  1
  B  B355  1  0.22985700  0.35516900  0.72726100  1
  B  B356  1  0.26169700  0.52352100  0.76730000  1
  B  B357  1  0.24178900  0.50044900  0.72759200  1
  B  B358  1  0.14845400  0.43822600  0.75870400  1
  B  B359  1  0.97673500  0.28463200  0.76252900  1
  B  B360  1  0.45143900  0.75028400  0.75060100  1
  B  B361  1  0.21137700  0.65770900  0.78407300  1
  B  B362  1  0.30724500  0.76384800  0.77515300  1
  B  B363  1  0.45927900  0.86520400  0.72447500  1
  B  B364  1  0.97057300  0.43508200  0.76027500  1
  B  B365  1  0.87723800  0.37285900  0.79138700  1
  B  B366  1  0.77997600  0.39861700  0.71486300  1
  B  B367  1  0.68664100  0.33639300  0.74597500  1
  B  B368  1  0.19793500  0.90627200  0.78177500  1
  B  B369  1  0.34996800  0.00762700  0.73109700  1
  B  B370  1  0.44583700  0.11376700  0.72217700  1
  B  B371  1  0.20577400  0.02119100  0.75564900  1
  B  B372  1  0.68047900  0.48684400  0.74372100  1
  B  B373  1  0.50876000  0.33325000  0.74754600  1
  B  B374  1  0.41542500  0.27102700  0.77865800  1
  B  B375  1  0.39551600  0.24795500  0.73895000  1
  B  B376  1  0.42735700  0.41630700  0.77898900  1
  B  B377  1  0.39463500  0.38173700  0.71620800  1
  B  B378  1  0.24666900  0.28309300  0.76553100  1
  B  B379  1  0.14007500  0.19638900  0.77754900  1
