# generated using pymatgen
data_MgHg3
_symmetry_space_group_name_H-M   'P 1'
_cell_length_a   8.57724509
_cell_length_b   10.62223227
_cell_length_c   43.34156100
_cell_angle_alpha   94.27347142
_cell_angle_beta   95.67867376
_cell_angle_gamma   66.18779536
_symmetry_Int_Tables_number   1
_chemical_formula_structural   MgHg3
_chemical_formula_sum   'Mg22 Hg66'
_cell_volume   3592.35667264
_cell_formula_units_Z   22
loop_
 _symmetry_equiv_pos_site_id
 _symmetry_equiv_pos_as_xyz
  1  'x, y, z'
loop_
 _atom_site_type_symbol
 _atom_site_label
 _atom_site_symmetry_multiplicity
 _atom_site_fract_x
 _atom_site_fract_y
 _atom_site_fract_z
 _atom_site_occupancy
  Mg  Mg0  1  0.00000000  0.70833300  0.23611100  1
  Mg  Mg1  1  0.55555600  0.23611100  0.20833300  1
  Mg  Mg2  1  0.55555600  0.65277800  0.29166700  1
  Mg  Mg3  1  0.11111100  0.18055600  0.26388900  1
  Mg  Mg4  1  0.11111100  0.59722200  0.34722200  1
  Mg  Mg5  1  0.66666700  0.12500000  0.31944400  1
  Mg  Mg6  1  0.66666700  0.54166700  0.40277800  1
  Mg  Mg7  1  0.22222200  0.06944400  0.37500000  1
  Mg  Mg8  1  0.22222200  0.48611100  0.45833300  1
  Mg  Mg9  1  0.77777800  0.01388900  0.43055600  1
  Mg  Mg10  1  0.77777800  0.43055600  0.51388900  1
  Mg  Mg11  1  0.33333300  0.95833300  0.48611100  1
  Mg  Mg12  1  0.33333300  0.37500000  0.56944400  1
  Mg  Mg13  1  0.88888900  0.90277800  0.54166700  1
  Mg  Mg14  1  0.88888900  0.31944400  0.62500000  1
  Mg  Mg15  1  0.44444400  0.84722200  0.59722200  1
  Mg  Mg16  1  0.44444400  0.26388900  0.68055600  1
  Mg  Mg17  1  1.00000000  0.79166700  0.65277800  1
  Mg  Mg18  1  0.00000000  0.20833300  0.73611100  1
  Mg  Mg19  1  0.55555600  0.73611100  0.70833300  1
  Mg  Mg20  1  0.55555600  0.15277800  0.79166700  1
  Mg  Mg21  1  0.11111100  0.68055600  0.76388900  1
  Hg  Hg22  1  0.30080700  0.06911900  0.19851000  1
  Hg  Hg23  1  0.25474900  0.87532500  0.24593400  1
  Hg  Hg24  1  0.41191800  0.54134100  0.22628800  1
  Hg  Hg25  1  0.14363800  0.40310300  0.21815600  1
  Hg  Hg26  1  0.66666700  0.70833300  0.23611100  1
  Hg  Hg27  1  0.88888900  0.23611100  0.20833300  1
  Hg  Hg28  1  0.85636200  0.01356400  0.25406600  1
  Hg  Hg29  1  0.81030400  0.81977000  0.30149000  1
  Hg  Hg30  1  0.96747300  0.48578600  0.28184400  1
  Hg  Hg31  1  0.69919300  0.34754700  0.27371200  1
  Hg  Hg32  1  0.22222200  0.65277800  0.29166700  1
  Hg  Hg33  1  0.44444400  0.18055600  0.26388900  1
  Hg  Hg34  1  0.41191800  0.95800800  0.30962100  1
  Hg  Hg35  1  0.36586000  0.76421400  0.35704500  1
  Hg  Hg36  1  0.52302900  0.43023000  0.33739900  1
  Hg  Hg37  1  0.25474900  0.29199200  0.32926700  1
  Hg  Hg38  1  0.77777800  0.59722200  0.34722200  1
  Hg  Hg39  1  0.00000000  0.12500000  0.31944400  1
  Hg  Hg40  1  0.96747300  0.90245300  0.36517700  1
  Hg  Hg41  1  0.92141600  0.70865900  0.41260100  1
  Hg  Hg42  1  0.07858400  0.37467500  0.39295500  1
  Hg  Hg43  1  0.81030400  0.23643600  0.38482300  1
  Hg  Hg44  1  0.33333300  0.54166700  0.40277800  1
  Hg  Hg45  1  0.55555600  0.06944400  0.37500000  1
  Hg  Hg46  1  0.52302900  0.84689700  0.42073300  1
  Hg  Hg47  1  0.47697100  0.65310300  0.46815600  1
  Hg  Hg48  1  0.63414000  0.31911900  0.44851000  1
  Hg  Hg49  1  0.36586000  0.18088100  0.44037900  1
  Hg  Hg50  1  0.88888900  0.48611100  0.45833300  1
  Hg  Hg51  1  0.11111100  0.01388900  0.43055600  1
  Hg  Hg52  1  0.07858400  0.79134100  0.47628800  1
  Hg  Hg53  1  0.03252700  0.59754700  0.52371200  1
  Hg  Hg54  1  0.18969600  0.26356400  0.50406600  1
  Hg  Hg55  1  0.92141600  0.12532500  0.49593400  1
  Hg  Hg56  1  0.44444400  0.43055600  0.51388900  1
  Hg  Hg57  1  0.66666700  0.95833300  0.48611100  1
  Hg  Hg58  1  0.63414000  0.73578600  0.53184400  1
  Hg  Hg59  1  0.58808200  0.54199200  0.57926700  1
  Hg  Hg60  1  0.74525100  0.20800800  0.55962100  1
  Hg  Hg61  1  0.47697100  0.06977000  0.55149000  1
  Hg  Hg62  1  1.00000000  0.37500000  0.56944400  1
  Hg  Hg63  1  0.22222200  0.90277800  0.54166700  1
  Hg  Hg64  1  0.18969600  0.68023000  0.58739900  1
  Hg  Hg65  1  0.14363800  0.48643600  0.63482300  1
  Hg  Hg66  1  0.30080700  0.15245300  0.61517700  1
  Hg  Hg67  1  0.03252700  0.01421400  0.60704500  1
  Hg  Hg68  1  0.55555600  0.31944400  0.62500000  1
  Hg  Hg69  1  0.77777800  0.84722200  0.59722200  1
  Hg  Hg70  1  0.74525100  0.62467500  0.64295500  1
  Hg  Hg71  1  0.69919300  0.43088100  0.69037900  1
  Hg  Hg72  1  0.85636200  0.09689700  0.67073300  1
  Hg  Hg73  1  0.58808200  0.95865900  0.66260100  1
  Hg  Hg74  1  0.11111100  0.26388900  0.68055600  1
  Hg  Hg75  1  0.33333300  0.79166700  0.65277800  1
  Hg  Hg76  1  0.30080700  0.56911900  0.69851000  1
  Hg  Hg77  1  0.25474900  0.37532500  0.74593400  1
  Hg  Hg78  1  0.41191800  0.04134100  0.72628800  1
  Hg  Hg79  1  0.14363800  0.90310300  0.71815600  1
  Hg  Hg80  1  0.66666700  0.20833300  0.73611100  1
  Hg  Hg81  1  0.88888900  0.73611100  0.70833300  1
  Hg  Hg82  1  0.85636200  0.51356400  0.75406600  1
  Hg  Hg83  1  0.81030400  0.31977000  0.80149000  1
  Hg  Hg84  1  0.96747300  0.98578600  0.78184400  1
  Hg  Hg85  1  0.69919300  0.84754700  0.77371200  1
  Hg  Hg86  1  0.22222200  0.15277800  0.79166700  1
  Hg  Hg87  1  0.44444400  0.68055600  0.76388900  1
