# generated using pymatgen
data_Mg19Ir29
_symmetry_space_group_name_H-M   'P 1'
_cell_length_a   5.24707500
_cell_length_b   21.51305055
_cell_length_c   52.37228200
_cell_angle_alpha   80.49835411
_cell_angle_beta   90.00000000
_cell_angle_gamma   90.00000000
_symmetry_Int_Tables_number   1
_chemical_formula_structural   Mg19Ir29
_chemical_formula_sum   'Mg76 Ir116'
_cell_volume   5830.70907253
_cell_formula_units_Z   4
loop_
 _symmetry_equiv_pos_site_id
 _symmetry_equiv_pos_as_xyz
  1  'x, y, z'
loop_
 _atom_site_type_symbol
 _atom_site_label
 _atom_site_symmetry_multiplicity
 _atom_site_fract_x
 _atom_site_fract_y
 _atom_site_fract_z
 _atom_site_occupancy
  Mg  Mg0  1  0.50000000  0.91799700  0.35217200  1
  Mg  Mg1  1  0.00000000  0.74766800  0.24211400  1
  Mg  Mg2  1  0.00000000  0.68199000  0.34173300  1
  Mg  Mg3  1  0.50000000  0.98367600  0.25255300  1
  Mg  Mg4  1  0.50000000  0.87569700  0.29924700  1
  Mg  Mg5  1  0.00000000  0.78996800  0.29503800  1
  Mg  Mg6  1  0.50000000  0.05164500  0.34365500  1
  Mg  Mg7  1  0.00000000  0.61402100  0.25063000  1
  Mg  Mg8  1  0.00000000  0.34656900  0.28074300  1
  Mg  Mg9  1  0.50000000  0.31909700  0.31354300  1
  Mg  Mg10  1  0.50000000  0.11056100  0.27030400  1
  Mg  Mg11  1  0.00000000  0.55510400  0.32398200  1
  Mg  Mg12  1  0.00000000  0.48021600  0.27222700  1
  Mg  Mg13  1  0.50000000  0.18544900  0.32205900  1
  Mg  Mg14  1  0.00000000  0.11065400  0.30393200  1
  Mg  Mg15  1  0.50000000  0.55501100  0.29035300  1
  Mg  Mg16  1  0.50000000  0.06085400  0.49502900  1
  Mg  Mg17  1  0.00000000  0.89052500  0.38497100  1
  Mg  Mg18  1  0.00000000  0.82484700  0.48459000  1
  Mg  Mg19  1  0.50000000  0.12653300  0.39541000  1
  Mg  Mg20  1  0.50000000  0.01855400  0.44210500  1
  Mg  Mg21  1  1.00000000  0.93282500  0.43789500  1
  Mg  Mg22  1  0.50000000  0.19450200  0.48651300  1
  Mg  Mg23  1  0.00000000  0.75687800  0.39348700  1
  Mg  Mg24  1  0.50000000  0.68208300  0.37536100  1
  Mg  Mg25  1  1.00000000  0.12644000  0.36178200  1
  Mg  Mg26  1  0.00000000  0.48942600  0.42360000  1
  Mg  Mg27  1  0.50000000  0.46195400  0.45640000  1
  Mg  Mg28  1  0.50000000  0.25341800  0.41316100  1
  Mg  Mg29  1  1.00000000  0.69796100  0.46683900  1
  Mg  Mg30  1  0.00000000  0.44712600  0.37067600  1
  Mg  Mg31  1  0.50000000  0.36139700  0.36646700  1
  Mg  Mg32  1  0.00000000  0.62307300  0.41508400  1
  Mg  Mg33  1  0.50000000  0.32830600  0.46491600  1
  Mg  Mg34  1  0.00000000  0.25351100  0.44678900  1
  Mg  Mg35  1  0.50000000  0.69786900  0.43321100  1
  Mg  Mg36  1  0.50000000  0.20371100  0.63788600  1
  Mg  Mg37  1  0.00000000  0.03338300  0.52782800  1
  Mg  Mg38  1  1.00000000  0.96770400  0.62744700  1
  Mg  Mg39  1  0.50000000  0.26939000  0.53826700  1
  Mg  Mg40  1  0.50000000  0.16141200  0.58496200  1
  Mg  Mg41  1  0.00000000  0.07568200  0.58075300  1
  Mg  Mg42  1  0.50000000  0.33735900  0.62937000  1
  Mg  Mg43  1  0.00000000  0.89973500  0.53634500  1
  Mg  Mg44  1  0.50000000  0.82494000  0.51821800  1
  Mg  Mg45  1  0.00000000  0.26929700  0.50463900  1
  Mg  Mg46  1  0.00000000  0.63228300  0.56645700  1
  Mg  Mg47  1  0.50000000  0.60481100  0.59925700  1
  Mg  Mg48  1  0.50000000  0.39627500  0.55601800  1
  Mg  Mg49  1  0.00000000  0.84081900  0.60969600  1
  Mg  Mg50  1  0.00000000  0.58998300  0.51353300  1
  Mg  Mg51  1  0.50000000  0.50425400  0.50932400  1
  Mg  Mg52  1  0.00000000  0.76593100  0.55794100  1
  Mg  Mg53  1  0.50000000  0.47116300  0.60777300  1
  Mg  Mg54  1  0.00000000  0.39636800  0.58964700  1
  Mg  Mg55  1  0.50000000  0.84072600  0.57606800  1
  Mg  Mg56  1  0.50000000  0.34656900  0.78074300  1
  Mg  Mg57  1  1.00000000  0.17624000  0.67068500  1
  Mg  Mg58  1  1.00000000  0.11056100  0.77030400  1
  Mg  Mg59  1  0.50000000  0.41224700  0.68112400  1
  Mg  Mg60  1  0.50000000  0.30426900  0.72781900  1
  Mg  Mg61  1  0.00000000  0.21854000  0.72361000  1
  Mg  Mg62  1  0.50000000  0.48021600  0.77222700  1
  Mg  Mg63  1  0.00000000  0.04259200  0.67920200  1
  Mg  Mg64  1  0.50000000  0.96779700  0.66107500  1
  Mg  Mg65  1  0.00000000  0.41215400  0.64749600  1
  Mg  Mg66  1  1.00000000  0.77514000  0.70931500  1
  Mg  Mg67  1  0.50000000  0.74766800  0.74211400  1
  Mg  Mg68  1  0.50000000  0.53913300  0.69887600  1
  Mg  Mg69  1  0.00000000  0.98367600  0.75255300  1
  Mg  Mg70  1  1.00000000  0.73284000  0.65639000  1
  Mg  Mg71  1  0.50000000  0.64711100  0.65218100  1
  Mg  Mg72  1  0.00000000  0.90878800  0.70079800  1
  Mg  Mg73  1  0.50000000  0.61402100  0.75063000  1
  Mg  Mg74  1  0.00000000  0.53922500  0.73250400  1
  Mg  Mg75  1  0.50000000  0.98358300  0.71892500  1
  Ir  Ir76  1  0.00000000  0.00211100  0.34754300  1
  Ir  Ir77  1  0.50000000  0.66355400  0.24674300  1
  Ir  Ir78  1  0.24951300  0.80113800  0.34750400  1
  Ir  Ir79  1  0.25048700  0.86452800  0.24678200  1
  Ir  Ir80  1  0.74951300  0.86452800  0.24678200  1
  Ir  Ir81  1  0.75048700  0.80113800  0.34750400  1
  Ir  Ir82  1  0.00000000  0.04711800  0.26142900  1
  Ir  Ir83  1  0.50000000  0.76894100  0.26728800  1
  Ir  Ir84  1  0.00000000  0.89672400  0.32699800  1
  Ir  Ir85  1  0.50000000  0.73970200  0.31818400  1
  Ir  Ir86  1  1.00000000  0.92596300  0.27610200  1
  Ir  Ir87  1  0.26606200  0.99847400  0.30355200  1
  Ir  Ir88  1  0.23393800  0.66719200  0.29073400  1
  Ir  Ir89  1  0.76606200  0.66719200  0.29073400  1
  Ir  Ir90  1  0.73393800  0.99847400  0.30355200  1
  Ir  Ir91  1  0.50000000  0.43068300  0.27611400  1
  Ir  Ir92  1  0.00000000  0.23498300  0.31817100  1
  Ir  Ir93  1  0.74951300  0.22970900  0.27607500  1
  Ir  Ir94  1  0.75048700  0.43595600  0.31821000  1
  Ir  Ir95  1  0.24951300  0.43595600  0.31821000  1
  Ir  Ir96  1  0.25048700  0.22970900  0.27607500  1
  Ir  Ir97  1  0.50000000  0.61854700  0.33285700  1
  Ir  Ir98  1  0.00000000  0.34037000  0.33871600  1
  Ir  Ir99  1  0.50000000  0.32529600  0.25557000  1
  Ir  Ir100  1  0.00000000  0.16827400  0.24675500  1
  Ir  Ir101  1  0.50000000  0.49739200  0.34753000  1
  Ir  Ir102  1  0.00000000  0.14496800  0.49040000  1
  Ir  Ir103  1  0.50000000  0.80641100  0.38960000  1
  Ir  Ir104  1  0.24951300  0.94399500  0.49036100  1
  Ir  Ir105  1  0.25048700  0.00738500  0.38963900  1
  Ir  Ir106  1  0.74951300  0.00738500  0.38963900  1
  Ir  Ir107  1  0.75048700  0.94399500  0.49036100  1
  Ir  Ir108  1  0.00000000  0.18997600  0.40428600  1
  Ir  Ir109  1  0.50000000  0.91179800  0.41014500  1
  Ir  Ir110  1  0.00000000  0.03958100  0.46985500  1
  Ir  Ir111  1  0.50000000  0.88255900  0.46104100  1
  Ir  Ir112  1  0.00000000  0.06882100  0.41895900  1
  Ir  Ir113  1  0.26606200  0.14133100  0.44640900  1
  Ir  Ir114  1  0.23393800  0.81004900  0.43359100  1
  Ir  Ir115  1  0.76606200  0.81004900  0.43359100  1
  Ir  Ir116  1  0.73393800  0.14133100  0.44640900  1
  Ir  Ir117  1  0.50000000  0.57354000  0.41897200  1
  Ir  Ir118  1  1.00000000  0.37784000  0.46102800  1
  Ir  Ir119  1  0.74951300  0.37256600  0.41893300  1
  Ir  Ir120  1  0.75048700  0.57881400  0.46106700  1
  Ir  Ir121  1  0.24951300  0.57881400  0.46106700  1
  Ir  Ir122  1  0.25048700  0.37256600  0.41893300  1
  Ir  Ir123  1  0.50000000  0.76140400  0.47571400  1
  Ir  Ir124  1  0.00000000  0.48322700  0.48157300  1
  Ir  Ir125  1  0.50000000  0.46815300  0.39842700  1
  Ir  Ir126  1  0.00000000  0.31113100  0.38961200  1
  Ir  Ir127  1  0.50000000  0.64024900  0.49038800  1
  Ir  Ir128  1  0.76606200  0.56990200  0.37498000  1
  Ir  Ir129  1  0.73393800  0.23862000  0.36216300  1
  Ir  Ir130  1  0.26606200  0.23862000  0.36216300  1
  Ir  Ir131  1  0.23393800  0.56990200  0.37498000  1
  Ir  Ir132  1  0.00000000  0.28782600  0.63325700  1
  Ir  Ir133  1  0.50000000  0.94926800  0.53245700  1
  Ir  Ir134  1  0.24951300  0.08685200  0.63321800  1
  Ir  Ir135  1  0.25048700  0.15024200  0.53249600  1
  Ir  Ir136  1  0.74951300  0.15024200  0.53249600  1
  Ir  Ir137  1  0.75048700  0.08685200  0.63321800  1
  Ir  Ir138  1  0.00000000  0.33283300  0.54714300  1
  Ir  Ir139  1  0.50000000  0.05465500  0.55300200  1
  Ir  Ir140  1  0.00000000  0.18243900  0.61271200  1
  Ir  Ir141  1  0.50000000  0.02541600  0.60389800  1
  Ir  Ir142  1  0.00000000  0.21167800  0.56181600  1
  Ir  Ir143  1  0.26606200  0.28418800  0.58926600  1
  Ir  Ir144  1  0.23393800  0.95290600  0.57644800  1
  Ir  Ir145  1  0.76606200  0.95290600  0.57644800  1
  Ir  Ir146  1  0.73393800  0.28418800  0.58926600  1
  Ir  Ir147  1  0.50000000  0.71639700  0.56182900  1
  Ir  Ir148  1  0.00000000  0.52069700  0.60388600  1
  Ir  Ir149  1  0.74951300  0.51542300  0.56179000  1
  Ir  Ir150  1  0.75048700  0.72167100  0.60392500  1
  Ir  Ir151  1  0.24951300  0.72167100  0.60392500  1
  Ir  Ir152  1  0.25048700  0.51542300  0.56179000  1
  Ir  Ir153  1  0.50000000  0.90426100  0.61857100  1
  Ir  Ir154  1  0.00000000  0.62608400  0.62443000  1
  Ir  Ir155  1  0.50000000  0.61101000  0.54128400  1
  Ir  Ir156  1  0.00000000  0.45398800  0.53247000  1
  Ir  Ir157  1  0.50000000  0.78310600  0.63324500  1
  Ir  Ir158  1  0.76606200  0.71276000  0.51783700  1
  Ir  Ir159  1  0.73393800  0.38147700  0.50502000  1
  Ir  Ir160  1  0.26606200  0.38147700  0.50502000  1
  Ir  Ir161  1  0.23393800  0.71276000  0.51783700  1
  Ir  Ir162  1  0.00000000  0.43068300  0.77611400  1
  Ir  Ir163  1  0.50000000  0.09212600  0.67531400  1
  Ir  Ir164  1  0.24951300  0.22970900  0.77607500  1
  Ir  Ir165  1  0.25048700  0.29309900  0.67535300  1
  Ir  Ir166  1  0.74951300  0.29309900  0.67535300  1
  Ir  Ir167  1  0.75048700  0.22970900  0.77607500  1
  Ir  Ir168  1  0.00000000  0.47569000  0.69000000  1
  Ir  Ir169  1  0.50000000  0.19751300  0.69585900  1
  Ir  Ir170  1  0.00000000  0.32529600  0.75557000  1
  Ir  Ir171  1  0.50000000  0.16827400  0.74675500  1
  Ir  Ir172  1  0.00000000  0.35453500  0.70467300  1
  Ir  Ir173  1  0.26606200  0.42704500  0.73212300  1
  Ir  Ir174  1  0.23393800  0.09576300  0.71930600  1
  Ir  Ir175  1  0.76606200  0.09576300  0.71930600  1
  Ir  Ir176  1  0.73393800  0.42704500  0.73212300  1
  Ir  Ir177  1  0.50000000  0.85925400  0.70468600  1
  Ir  Ir178  1  0.00000000  0.66355400  0.74674300  1
  Ir  Ir179  1  0.74951300  0.65828000  0.70464700  1
  Ir  Ir180  1  0.75048700  0.86452800  0.74678200  1
  Ir  Ir181  1  0.24951300  0.86452800  0.74678200  1
  Ir  Ir182  1  0.25048700  0.65828000  0.70464700  1
  Ir  Ir183  1  0.50000000  0.04711800  0.76142900  1
  Ir  Ir184  1  0.00000000  0.76894100  0.76728800  1
  Ir  Ir185  1  0.50000000  0.75386700  0.68414100  1
  Ir  Ir186  1  0.00000000  0.59684500  0.67532700  1
  Ir  Ir187  1  0.50000000  0.92596300  0.77610200  1
  Ir  Ir188  1  0.76606200  0.85561700  0.66069400  1
  Ir  Ir189  1  0.73393800  0.52433500  0.64787700  1
  Ir  Ir190  1  0.26606200  0.52433500  0.64787700  1
  Ir  Ir191  1  0.23393800  0.85561700  0.66069400  1
