# generated using pymatgen
data_Mg7Sn3
_symmetry_space_group_name_H-M   'P 1'
_cell_length_a   4.82196007
_cell_length_b   4.82196059
_cell_length_c   43.39764300
_cell_angle_alpha   86.81525788
_cell_angle_beta   86.81525754
_cell_angle_gamma   59.99999913
_symmetry_Int_Tables_number   1
_chemical_formula_structural   Mg7Sn3
_chemical_formula_sum   'Mg14 Sn6'
_cell_volume   872.06444564
_cell_formula_units_Z   2
loop_
 _symmetry_equiv_pos_site_id
 _symmetry_equiv_pos_as_xyz
  1  'x, y, z'
loop_
 _atom_site_type_symbol
 _atom_site_label
 _atom_site_symmetry_multiplicity
 _atom_site_fract_x
 _atom_site_fract_y
 _atom_site_fract_z
 _atom_site_occupancy
  Mg  Mg0  1  0.28030300  0.28030300  0.76515200  1
  Mg  Mg1  1  0.59848500  0.59848500  0.81060600  1
  Mg  Mg2  1  0.64393900  0.64393900  0.67424200  1
  Mg  Mg3  1  0.96212100  0.96212100  0.71969700  1
  Mg  Mg4  1  0.00757600  0.00757600  0.58333300  1
  Mg  Mg5  1  0.32575800  0.32575800  0.62878800  1
  Mg  Mg6  1  0.37121200  0.37121200  0.49242400  1
  Mg  Mg7  1  0.68939400  0.68939400  0.53787900  1
  Mg  Mg8  1  0.73484800  0.73484800  0.40151500  1
  Mg  Mg9  1  0.05303000  0.05303000  0.44697000  1
  Mg  Mg10  1  0.09848500  0.09848500  0.31060600  1
  Mg  Mg11  1  0.41666700  0.41666700  0.35606100  1
  Mg  Mg12  1  0.46212100  0.46212100  0.21969700  1
  Mg  Mg13  1  0.78030300  0.78030300  0.26515200  1
  Sn  Sn14  1  0.62121200  0.62121200  0.74242400  1
  Sn  Sn15  1  0.98484800  0.98484800  0.65151500  1
  Sn  Sn16  1  0.34848500  0.34848500  0.56060600  1
  Sn  Sn17  1  0.71212100  0.71212100  0.46969700  1
  Sn  Sn18  1  0.07575800  0.07575800  0.37878800  1
  Sn  Sn19  1  0.43939400  0.43939400  0.28787900  1
