# generated using pymatgen
data_MgGa
_symmetry_space_group_name_H-M   'P 1'
_cell_length_a   5.53544100
_cell_length_b   8.03816804
_cell_length_c   45.27987700
_cell_angle_alpha   90.00000000
_cell_angle_beta   90.00000000
_cell_angle_gamma   110.14043569
_symmetry_Int_Tables_number   1
_chemical_formula_structural   MgGa
_chemical_formula_sum   'Mg30 Ga30'
_cell_volume   1891.52220127
_cell_formula_units_Z   30
loop_
 _symmetry_equiv_pos_site_id
 _symmetry_equiv_pos_as_xyz
  1  'x, y, z'
loop_
 _atom_site_type_symbol
 _atom_site_label
 _atom_site_symmetry_multiplicity
 _atom_site_fract_x
 _atom_site_fract_y
 _atom_site_fract_z
 _atom_site_occupancy
  Mg  Mg0  1  0.20121900  0.93815700  0.67759900  1
  Mg  Mg1  1  0.80965400  0.08358700  0.72164000  1
  Mg  Mg2  1  0.40605700  0.34783500  0.69740100  1
  Mg  Mg3  1  0.23693900  0.43815700  0.76093200  1
  Mg  Mg4  1  0.83334200  0.70240400  0.73669400  1
  Mg  Mg5  1  0.44177700  0.84783500  0.78073500  1
  Mg  Mg6  1  0.70121900  0.93815700  0.51093200  1
  Mg  Mg7  1  0.30965400  0.08358700  0.55497300  1
  Mg  Mg8  1  0.86906200  0.20240400  0.65336000  1
  Mg  Mg9  1  0.90605700  0.34783500  0.53073500  1
  Mg  Mg10  1  0.73693900  0.43815700  0.59426500  1
  Mg  Mg11  1  0.27393400  0.58358700  0.63830600  1
  Mg  Mg12  1  0.33334200  0.70240400  0.57002700  1
  Mg  Mg13  1  0.94177700  0.84783500  0.61406800  1
  Mg  Mg14  1  0.20121900  0.93815700  0.34426500  1
  Mg  Mg15  1  0.80965400  0.08358700  0.38830600  1
  Mg  Mg16  1  0.36906200  0.20240400  0.48669400  1
  Mg  Mg17  1  0.40605700  0.34783500  0.36406800  1
  Mg  Mg18  1  0.23693900  0.43815700  0.42759900  1
  Mg  Mg19  1  0.77393400  0.58358700  0.47164000  1
  Mg  Mg20  1  0.83334200  0.70240400  0.40336000  1
  Mg  Mg21  1  0.44177700  0.84783500  0.44740100  1
  Mg  Mg22  1  0.70121900  0.93815700  0.17759900  1
  Mg  Mg23  1  0.30965400  0.08358700  0.22164000  1
  Mg  Mg24  1  0.86906200  0.20240400  0.32002700  1
  Mg  Mg25  1  0.90605700  0.34783500  0.19740100  1
  Mg  Mg26  1  0.73693900  0.43815700  0.26093200  1
  Mg  Mg27  1  0.27393400  0.58358700  0.30497300  1
  Mg  Mg28  1  0.33334200  0.70240400  0.23669400  1
  Mg  Mg29  1  0.94177700  0.84783500  0.28073500  1
  Ga  Ga30  1  0.98017500  0.94874100  0.78612300  1
  Ga  Ga31  1  0.28143400  0.05125900  0.73845700  1
  Ga  Ga32  1  0.67443000  0.33725100  0.75554400  1
  Ga  Ga33  1  0.96856600  0.44874100  0.70278900  1
  Ga  Ga34  1  0.36156200  0.73473300  0.71987600  1
  Ga  Ga35  1  0.66282100  0.83725100  0.67221100  1
  Ga  Ga36  1  0.48017500  0.94874100  0.61945600  1
  Ga  Ga37  1  0.78143400  0.05125900  0.57179100  1
  Ga  Ga38  1  0.37317100  0.23473300  0.63654300  1
  Ga  Ga39  1  0.17443000  0.33725100  0.58887700  1
  Ga  Ga40  1  0.46856600  0.44874100  0.53612300  1
  Ga  Ga41  1  0.76982500  0.55125900  0.65512400  1
  Ga  Ga42  1  0.86156200  0.73473300  0.55320900  1
  Ga  Ga43  1  0.16282100  0.83725100  0.50554400  1
  Ga  Ga44  1  0.98017500  0.94874100  0.45278900  1
  Ga  Ga45  1  0.28143400  0.05125900  0.40512400  1
  Ga  Ga46  1  0.87317100  0.23473300  0.46987600  1
  Ga  Ga47  1  0.67443000  0.33725100  0.42221100  1
  Ga  Ga48  1  0.96856600  0.44874100  0.36945600  1
  Ga  Ga49  1  0.26982500  0.55125900  0.48845700  1
  Ga  Ga50  1  0.36156200  0.73473300  0.38654300  1
  Ga  Ga51  1  0.66282100  0.83725100  0.33887700  1
  Ga  Ga52  1  0.48017500  0.94874100  0.28612300  1
  Ga  Ga53  1  0.78143400  0.05125900  0.23845700  1
  Ga  Ga54  1  0.37317100  0.23473300  0.30320900  1
  Ga  Ga55  1  0.17443000  0.33725100  0.25554400  1
  Ga  Ga56  1  0.46856600  0.44874100  0.20278900  1
  Ga  Ga57  1  0.76982500  0.55125900  0.32179100  1
  Ga  Ga58  1  0.86156200  0.73473300  0.21987600  1
  Ga  Ga59  1  0.16282100  0.83725100  0.17221100  1
