# generated using pymatgen
data_Tm21Mg8
_symmetry_space_group_name_H-M   'P 1'
_cell_length_a   3.51094100
_cell_length_b   9.91504465
_cell_length_c   42.84223900
_cell_angle_alpha   85.08843848
_cell_angle_beta   90.00000000
_cell_angle_gamma   90.00000000
_symmetry_Int_Tables_number   1
_chemical_formula_structural   Tm21Mg8
_chemical_formula_sum   'Tm21 Mg8'
_cell_volume   1485.91072777
_cell_formula_units_Z   1
loop_
 _symmetry_equiv_pos_site_id
 _symmetry_equiv_pos_as_xyz
  1  'x, y, z'
loop_
 _atom_site_type_symbol
 _atom_site_label
 _atom_site_symmetry_multiplicity
 _atom_site_fract_x
 _atom_site_fract_y
 _atom_site_fract_z
 _atom_site_occupancy
  Tm  Tm0  1  0.50000000  0.58416100  0.27944900  1
  Tm  Tm1  1  1.00000000  0.28906500  0.29807700  1
  Tm  Tm2  1  0.50000000  0.99396800  0.31670400  1
  Tm  Tm3  1  0.50000000  0.43031500  0.35637200  1
  Tm  Tm4  1  0.00000000  0.13521900  0.37500000  1
  Tm  Tm5  1  0.50000000  0.84012200  0.39362800  1
  Tm  Tm6  1  0.50000000  0.27646900  0.43329600  1
  Tm  Tm7  1  0.00000000  0.98137200  0.45192300  1
  Tm  Tm8  1  0.50000000  0.68627600  0.47055100  1
  Tm  Tm9  1  0.50000000  0.12262300  0.51021900  1
  Tm  Tm10  1  0.00000000  0.82752600  0.52884600  1
  Tm  Tm11  1  0.50000000  0.53243000  0.54747400  1
  Tm  Tm12  1  0.50000000  0.96877700  0.58714200  1
  Tm  Tm13  1  0.00000000  0.67368000  0.60576900  1
  Tm  Tm14  1  0.50000000  0.37858300  0.62439700  1
  Tm  Tm15  1  0.50000000  0.81493100  0.66406500  1
  Tm  Tm16  1  0.00000000  0.51983400  0.68269200  1
  Tm  Tm17  1  0.50000000  0.22473700  0.70132000  1
  Tm  Tm18  1  0.50000000  0.66108500  0.74098800  1
  Tm  Tm19  1  0.00000000  0.36598800  0.75961500  1
  Tm  Tm20  1  0.50000000  0.07089100  0.77824300  1
  Mg  Mg21  1  0.00000000  0.86598800  0.25961500  1
  Mg  Mg22  1  0.00000000  0.71214200  0.33653800  1
  Mg  Mg23  1  0.00000000  0.55829600  0.41346200  1
  Mg  Mg24  1  0.00000000  0.40444900  0.49038500  1
  Mg  Mg25  1  0.00000000  0.25060300  0.56730800  1
  Mg  Mg26  1  0.00000000  0.09675700  0.64423100  1
  Mg  Mg27  1  0.00000000  0.94291100  0.72115400  1
  Mg  Mg28  1  0.00000000  0.78906500  0.79807700  1
