# generated using pymatgen
data_La2Mg
_symmetry_space_group_name_H-M   'P 1'
_cell_length_a   4.03112400
_cell_length_b   12.19947256
_cell_length_c   44.04818800
_cell_angle_alpha   90.00000000
_cell_angle_beta   90.00000000
_cell_angle_gamma   90.29027797
_symmetry_Int_Tables_number   1
_chemical_formula_structural   La2Mg
_chemical_formula_sum   'La28 Mg14'
_cell_volume   2166.15578162
_cell_formula_units_Z   14
loop_
 _symmetry_equiv_pos_site_id
 _symmetry_equiv_pos_as_xyz
  1  'x, y, z'
loop_
 _atom_site_type_symbol
 _atom_site_label
 _atom_site_symmetry_multiplicity
 _atom_site_fract_x
 _atom_site_fract_y
 _atom_site_fract_z
 _atom_site_occupancy
  La  La0  1  0.49662500  0.34539900  0.20454500  1
  La  La1  1  0.00337500  0.15460100  0.25000000  1
  La  La2  1  0.99662500  0.84539900  0.25000000  1
  La  La3  1  0.50337500  0.65460100  0.20454500  1
  La  La4  1  0.49662500  0.34539900  0.29545500  1
  La  La5  1  0.00337500  0.15460100  0.34090900  1
  La  La6  1  0.99662500  0.84539900  0.34090900  1
  La  La7  1  0.50337500  0.65460100  0.29545500  1
  La  La8  1  0.49662500  0.34539900  0.38636400  1
  La  La9  1  0.00337500  0.15460100  0.43181800  1
  La  La10  1  0.99662500  0.84539900  0.43181800  1
  La  La11  1  0.50337500  0.65460100  0.38636400  1
  La  La12  1  0.49662500  0.34539900  0.47727300  1
  La  La13  1  0.00337500  0.15460100  0.52272700  1
  La  La14  1  0.99662500  0.84539900  0.52272700  1
  La  La15  1  0.50337500  0.65460100  0.47727300  1
  La  La16  1  0.49662500  0.34539900  0.56818200  1
  La  La17  1  0.00337500  0.15460100  0.61363600  1
  La  La18  1  0.99662500  0.84539900  0.61363600  1
  La  La19  1  0.50337500  0.65460100  0.56818200  1
  La  La20  1  0.49662500  0.34539900  0.65909100  1
  La  La21  1  0.00337500  0.15460100  0.70454500  1
  La  La22  1  0.99662500  0.84539900  0.70454500  1
  La  La23  1  0.50337500  0.65460100  0.65909100  1
  La  La24  1  0.49662500  0.34539900  0.75000000  1
  La  La25  1  0.00337500  0.15460100  0.79545500  1
  La  La26  1  0.99662500  0.84539900  0.79545500  1
  La  La27  1  0.50337500  0.65460100  0.75000000  1
  Mg  Mg28  1  1.00000000  0.50000000  0.25000000  1
  Mg  Mg29  1  0.50000000  0.00000000  0.20454500  1
  Mg  Mg30  1  1.00000000  0.50000000  0.34090900  1
  Mg  Mg31  1  0.50000000  0.00000000  0.29545500  1
  Mg  Mg32  1  1.00000000  0.50000000  0.43181800  1
  Mg  Mg33  1  0.50000000  0.00000000  0.38636400  1
  Mg  Mg34  1  1.00000000  0.50000000  0.52272700  1
  Mg  Mg35  1  0.50000000  0.00000000  0.47727300  1
  Mg  Mg36  1  1.00000000  0.50000000  0.61363600  1
  Mg  Mg37  1  0.50000000  0.00000000  0.56818200  1
  Mg  Mg38  1  1.00000000  0.50000000  0.70454500  1
  Mg  Mg39  1  0.50000000  0.00000000  0.65909100  1
  Mg  Mg40  1  1.00000000  0.50000000  0.79545500  1
  Mg  Mg41  1  0.50000000  0.00000000  0.75000000  1
