# generated using pymatgen
data_MgPd3
_symmetry_space_group_name_H-M   'P 1'
_cell_length_a   3.99223900
_cell_length_b   15.77655700
_cell_length_c   43.91463400
_cell_angle_alpha   90.00000000
_cell_angle_beta   90.00000000
_cell_angle_gamma   90.00000000
_symmetry_Int_Tables_number   1
_chemical_formula_structural   MgPd3
_chemical_formula_sum   'Mg28 Pd84'
_cell_volume   2765.90991632
_cell_formula_units_Z   28
loop_
 _symmetry_equiv_pos_site_id
 _symmetry_equiv_pos_as_xyz
  1  'x, y, z'
loop_
 _atom_site_type_symbol
 _atom_site_label
 _atom_site_symmetry_multiplicity
 _atom_site_fract_x
 _atom_site_fract_y
 _atom_site_fract_z
 _atom_site_occupancy
  Mg  Mg0  1  0.50000000  0.37629100  0.20454500  1
  Mg  Mg1  1  0.00000000  0.12370900  0.25000000  1
  Mg  Mg2  1  0.00000000  0.87629100  0.25000000  1
  Mg  Mg3  1  0.50000000  0.62370900  0.20454500  1
  Mg  Mg4  1  0.50000000  0.37629100  0.29545500  1
  Mg  Mg5  1  0.00000000  0.12370900  0.34090900  1
  Mg  Mg6  1  0.00000000  0.87629100  0.34090900  1
  Mg  Mg7  1  0.50000000  0.62370900  0.29545500  1
  Mg  Mg8  1  0.50000000  0.37629100  0.38636400  1
  Mg  Mg9  1  0.00000000  0.12370900  0.43181800  1
  Mg  Mg10  1  0.00000000  0.87629100  0.43181800  1
  Mg  Mg11  1  0.50000000  0.62370900  0.38636400  1
  Mg  Mg12  1  0.50000000  0.37629100  0.47727300  1
  Mg  Mg13  1  0.00000000  0.12370900  0.52272700  1
  Mg  Mg14  1  0.00000000  0.87629100  0.52272700  1
  Mg  Mg15  1  0.50000000  0.62370900  0.47727300  1
  Mg  Mg16  1  0.50000000  0.37629100  0.56818200  1
  Mg  Mg17  1  0.00000000  0.12370900  0.61363600  1
  Mg  Mg18  1  0.00000000  0.87629100  0.61363600  1
  Mg  Mg19  1  0.50000000  0.62370900  0.56818200  1
  Mg  Mg20  1  0.50000000  0.37629100  0.65909100  1
  Mg  Mg21  1  0.00000000  0.12370900  0.70454500  1
  Mg  Mg22  1  0.00000000  0.87629100  0.70454500  1
  Mg  Mg23  1  0.50000000  0.62370900  0.65909100  1
  Mg  Mg24  1  0.50000000  0.37629100  0.75000000  1
  Mg  Mg25  1  0.00000000  0.12370900  0.79545500  1
  Mg  Mg26  1  0.00000000  0.87629100  0.79545500  1
  Mg  Mg27  1  0.50000000  0.62370900  0.75000000  1
  Pd  Pd28  1  0.50000000  0.00000000  0.25000000  1
  Pd  Pd29  1  0.00000000  0.00000000  0.20454500  1
  Pd  Pd30  1  0.00000000  0.25000000  0.20454500  1
  Pd  Pd31  1  0.50000000  0.25000000  0.25000000  1
  Pd  Pd32  1  0.50000000  0.12476300  0.20454500  1
  Pd  Pd33  1  0.00000000  0.37523700  0.25000000  1
  Pd  Pd34  1  0.00000000  0.50000000  0.20454500  1
  Pd  Pd35  1  0.50000000  0.50000000  0.25000000  1
  Pd  Pd36  1  0.50000000  0.75000000  0.25000000  1
  Pd  Pd37  1  0.00000000  0.75000000  0.20454500  1
  Pd  Pd38  1  0.00000000  0.62476300  0.25000000  1
  Pd  Pd39  1  0.50000000  0.87523700  0.20454500  1
  Pd  Pd40  1  0.50000000  0.00000000  0.34090900  1
  Pd  Pd41  1  0.00000000  0.00000000  0.29545500  1
  Pd  Pd42  1  0.00000000  0.25000000  0.29545500  1
  Pd  Pd43  1  0.50000000  0.25000000  0.34090900  1
  Pd  Pd44  1  0.50000000  0.12476300  0.29545500  1
  Pd  Pd45  1  0.00000000  0.37523700  0.34090900  1
  Pd  Pd46  1  0.00000000  0.50000000  0.29545500  1
  Pd  Pd47  1  0.50000000  0.50000000  0.34090900  1
  Pd  Pd48  1  0.50000000  0.75000000  0.34090900  1
  Pd  Pd49  1  0.00000000  0.75000000  0.29545500  1
  Pd  Pd50  1  0.00000000  0.62476300  0.34090900  1
  Pd  Pd51  1  0.50000000  0.87523700  0.29545500  1
  Pd  Pd52  1  0.50000000  0.00000000  0.43181800  1
  Pd  Pd53  1  0.00000000  0.00000000  0.38636400  1
  Pd  Pd54  1  0.00000000  0.25000000  0.38636400  1
  Pd  Pd55  1  0.50000000  0.25000000  0.43181800  1
  Pd  Pd56  1  0.50000000  0.12476300  0.38636400  1
  Pd  Pd57  1  0.00000000  0.37523700  0.43181800  1
  Pd  Pd58  1  0.00000000  0.50000000  0.38636400  1
  Pd  Pd59  1  0.50000000  0.50000000  0.43181800  1
  Pd  Pd60  1  0.50000000  0.75000000  0.43181800  1
  Pd  Pd61  1  0.00000000  0.75000000  0.38636400  1
  Pd  Pd62  1  0.00000000  0.62476300  0.43181800  1
  Pd  Pd63  1  0.50000000  0.87523700  0.38636400  1
  Pd  Pd64  1  0.50000000  0.00000000  0.52272700  1
  Pd  Pd65  1  0.00000000  0.00000000  0.47727300  1
  Pd  Pd66  1  0.00000000  0.25000000  0.47727300  1
  Pd  Pd67  1  0.50000000  0.25000000  0.52272700  1
  Pd  Pd68  1  0.50000000  0.12476300  0.47727300  1
  Pd  Pd69  1  0.00000000  0.37523700  0.52272700  1
  Pd  Pd70  1  0.00000000  0.50000000  0.47727300  1
  Pd  Pd71  1  0.50000000  0.50000000  0.52272700  1
  Pd  Pd72  1  0.50000000  0.75000000  0.52272700  1
  Pd  Pd73  1  0.00000000  0.75000000  0.47727300  1
  Pd  Pd74  1  0.00000000  0.62476300  0.52272700  1
  Pd  Pd75  1  0.50000000  0.87523700  0.47727300  1
  Pd  Pd76  1  0.50000000  0.00000000  0.61363600  1
  Pd  Pd77  1  0.00000000  0.00000000  0.56818200  1
  Pd  Pd78  1  0.00000000  0.25000000  0.56818200  1
  Pd  Pd79  1  0.50000000  0.25000000  0.61363600  1
  Pd  Pd80  1  0.50000000  0.12476300  0.56818200  1
  Pd  Pd81  1  0.00000000  0.37523700  0.61363600  1
  Pd  Pd82  1  0.00000000  0.50000000  0.56818200  1
  Pd  Pd83  1  0.50000000  0.50000000  0.61363600  1
  Pd  Pd84  1  0.50000000  0.75000000  0.61363600  1
  Pd  Pd85  1  0.00000000  0.75000000  0.56818200  1
  Pd  Pd86  1  0.00000000  0.62476300  0.61363600  1
  Pd  Pd87  1  0.50000000  0.87523700  0.56818200  1
  Pd  Pd88  1  0.50000000  0.00000000  0.70454500  1
  Pd  Pd89  1  0.00000000  0.00000000  0.65909100  1
  Pd  Pd90  1  0.00000000  0.25000000  0.65909100  1
  Pd  Pd91  1  0.50000000  0.25000000  0.70454500  1
  Pd  Pd92  1  0.50000000  0.12476300  0.65909100  1
  Pd  Pd93  1  0.00000000  0.37523700  0.70454500  1
  Pd  Pd94  1  0.00000000  0.50000000  0.65909100  1
  Pd  Pd95  1  0.50000000  0.50000000  0.70454500  1
  Pd  Pd96  1  0.50000000  0.75000000  0.70454500  1
  Pd  Pd97  1  0.00000000  0.75000000  0.65909100  1
  Pd  Pd98  1  0.00000000  0.62476300  0.70454500  1
  Pd  Pd99  1  0.50000000  0.87523700  0.65909100  1
  Pd  Pd100  1  0.50000000  0.00000000  0.79545500  1
  Pd  Pd101  1  0.00000000  0.00000000  0.75000000  1
  Pd  Pd102  1  0.00000000  0.25000000  0.75000000  1
  Pd  Pd103  1  0.50000000  0.25000000  0.79545500  1
  Pd  Pd104  1  0.50000000  0.12476300  0.75000000  1
  Pd  Pd105  1  0.00000000  0.37523700  0.79545500  1
  Pd  Pd106  1  0.00000000  0.50000000  0.75000000  1
  Pd  Pd107  1  0.50000000  0.50000000  0.79545500  1
  Pd  Pd108  1  0.50000000  0.75000000  0.79545500  1
  Pd  Pd109  1  0.00000000  0.75000000  0.75000000  1
  Pd  Pd110  1  0.00000000  0.62476300  0.79545500  1
  Pd  Pd111  1  0.50000000  0.87523700  0.75000000  1
