# generated using pymatgen
data_CeMg
_symmetry_space_group_name_H-M   'P 1'
_cell_length_a   3.48032000
_cell_length_b   14.23446182
_cell_length_c   42.27697200
_cell_angle_alpha   93.36093517
_cell_angle_beta   90.00000000
_cell_angle_gamma   90.00000000
_symmetry_Int_Tables_number   1
_chemical_formula_structural   CeMg
_chemical_formula_sum   'Ce24 Mg24'
_cell_volume   2090.81923894
_cell_formula_units_Z   24
loop_
 _symmetry_equiv_pos_site_id
 _symmetry_equiv_pos_as_xyz
  1  'x, y, z'
loop_
 _atom_site_type_symbol
 _atom_site_label
 _atom_site_symmetry_multiplicity
 _atom_site_fract_x
 _atom_site_fract_y
 _atom_site_fract_z
 _atom_site_occupancy
  Ce  Ce0  1  0.50000000  0.60500700  0.28335400  1
  Ce  Ce1  1  0.00000000  0.19499300  0.21664600  1
  Ce  Ce2  1  0.00000000  0.95500700  0.23335400  1
  Ce  Ce3  1  0.50000000  0.84499300  0.26664600  1
  Ce  Ce4  1  0.50000000  0.90500700  0.38335400  1
  Ce  Ce5  1  1.00000000  0.49499300  0.31664600  1
  Ce  Ce6  1  1.00000000  0.25500700  0.33335400  1
  Ce  Ce7  1  0.50000000  0.14499300  0.36664600  1
  Ce  Ce8  1  0.50000000  0.20500700  0.48335400  1
  Ce  Ce9  1  1.00000000  0.79499300  0.41664600  1
  Ce  Ce10  1  1.00000000  0.55500700  0.43335400  1
  Ce  Ce11  1  0.50000000  0.44499300  0.46664600  1
  Ce  Ce12  1  0.50000000  0.50500700  0.58335400  1
  Ce  Ce13  1  0.00000000  0.09499300  0.51664600  1
  Ce  Ce14  1  0.00000000  0.85500700  0.53335400  1
  Ce  Ce15  1  0.50000000  0.74499300  0.56664600  1
  Ce  Ce16  1  0.50000000  0.80500700  0.68335400  1
  Ce  Ce17  1  0.00000000  0.39499300  0.61664600  1
  Ce  Ce18  1  0.00000000  0.15500700  0.63335400  1
  Ce  Ce19  1  0.50000000  0.04499300  0.66664600  1
  Ce  Ce20  1  0.50000000  0.10500700  0.78335400  1
  Ce  Ce21  1  0.00000000  0.69499300  0.71664600  1
  Ce  Ce22  1  0.00000000  0.45500700  0.73335400  1
  Ce  Ce23  1  0.50000000  0.34499300  0.76664600  1
  Mg  Mg24  1  0.50000000  0.33696700  0.26950900  1
  Mg  Mg25  1  0.00000000  0.46303300  0.23049100  1
  Mg  Mg26  1  0.00000000  0.68696700  0.21950900  1
  Mg  Mg27  1  0.50000000  0.11303300  0.28049100  1
  Mg  Mg28  1  0.50000000  0.63696700  0.36950900  1
  Mg  Mg29  1  1.00000000  0.76303300  0.33049100  1
  Mg  Mg30  1  1.00000000  0.98696700  0.31950900  1
  Mg  Mg31  1  0.50000000  0.41303300  0.38049100  1
  Mg  Mg32  1  0.50000000  0.93696700  0.46950900  1
  Mg  Mg33  1  0.00000000  0.06303300  0.43049100  1
  Mg  Mg34  1  0.00000000  0.28696700  0.41950900  1
  Mg  Mg35  1  0.50000000  0.71303300  0.48049100  1
  Mg  Mg36  1  0.50000000  0.23696700  0.56950900  1
  Mg  Mg37  1  0.00000000  0.36303300  0.53049100  1
  Mg  Mg38  1  1.00000000  0.58696700  0.51950900  1
  Mg  Mg39  1  0.50000000  0.01303300  0.58049100  1
  Mg  Mg40  1  0.50000000  0.53696700  0.66950900  1
  Mg  Mg41  1  0.00000000  0.66303300  0.63049100  1
  Mg  Mg42  1  1.00000000  0.88696700  0.61950900  1
  Mg  Mg43  1  0.50000000  0.31303300  0.68049100  1
  Mg  Mg44  1  0.50000000  0.83696700  0.76950900  1
  Mg  Mg45  1  1.00000000  0.96303300  0.73049100  1
  Mg  Mg46  1  1.00000000  0.18696700  0.71950900  1
  Mg  Mg47  1  0.50000000  0.61303300  0.78049100  1
