# generated using pymatgen
data_Ce20Mg9
_symmetry_space_group_name_H-M   'P 1'
_cell_length_a   3.15985600
_cell_length_b   19.24522921
_cell_length_c   41.11903400
_cell_angle_alpha   100.94963191
_cell_angle_beta   90.00000000
_cell_angle_gamma   90.00000000
_symmetry_Int_Tables_number   1
_chemical_formula_structural   Ce20Mg9
_chemical_formula_sum   'Ce40 Mg18'
_cell_volume   2455.01356562
_cell_formula_units_Z   2
loop_
 _symmetry_equiv_pos_site_id
 _symmetry_equiv_pos_as_xyz
  1  'x, y, z'
loop_
 _atom_site_type_symbol
 _atom_site_label
 _atom_site_symmetry_multiplicity
 _atom_site_fract_x
 _atom_site_fract_y
 _atom_site_fract_z
 _atom_site_occupancy
  Ce  Ce0  1  0.00000000  0.95962000  0.27663800  1
  Ce  Ce1  1  0.50000000  0.81335300  0.29753400  1
  Ce  Ce2  1  0.00000000  0.83298900  0.22330000  1
  Ce  Ce3  1  0.50000000  0.68672100  0.24419500  1
  Ce  Ce4  1  0.50000000  0.39712000  0.21413800  1
  Ce  Ce5  1  1.00000000  0.25085300  0.23503400  1
  Ce  Ce6  1  0.50000000  0.39548900  0.28580000  1
  Ce  Ce7  1  0.00000000  0.24922100  0.30669500  1
  Ce  Ce8  1  0.00000000  0.08462000  0.40163800  1
  Ce  Ce9  1  0.50000000  0.93835300  0.42253400  1
  Ce  Ce10  1  0.00000000  0.95798900  0.34830000  1
  Ce  Ce11  1  0.50000000  0.81172100  0.36919500  1
  Ce  Ce12  1  0.50000000  0.52212000  0.33913800  1
  Ce  Ce13  1  0.00000000  0.37585300  0.36003400  1
  Ce  Ce14  1  0.50000000  0.52048900  0.41080000  1
  Ce  Ce15  1  0.00000000  0.37422100  0.43169500  1
  Ce  Ce16  1  0.00000000  0.20962000  0.52663800  1
  Ce  Ce17  1  0.50000000  0.06335300  0.54753400  1
  Ce  Ce18  1  1.00000000  0.08298900  0.47330000  1
  Ce  Ce19  1  0.50000000  0.93672100  0.49419500  1
  Ce  Ce20  1  0.50000000  0.64712000  0.46413800  1
  Ce  Ce21  1  0.00000000  0.50085300  0.48503400  1
  Ce  Ce22  1  0.50000000  0.64548900  0.53580000  1
  Ce  Ce23  1  1.00000000  0.49922100  0.55669500  1
  Ce  Ce24  1  0.00000000  0.33462000  0.65163800  1
  Ce  Ce25  1  0.50000000  0.18835300  0.67253400  1
  Ce  Ce26  1  0.00000000  0.20798900  0.59830000  1
  Ce  Ce27  1  0.50000000  0.06172100  0.61919500  1
  Ce  Ce28  1  0.50000000  0.77212000  0.58913800  1
  Ce  Ce29  1  0.00000000  0.62585300  0.61003400  1
  Ce  Ce30  1  0.50000000  0.77048900  0.66080000  1
  Ce  Ce31  1  0.00000000  0.62422100  0.68169500  1
  Ce  Ce32  1  1.00000000  0.45962000  0.77663800  1
  Ce  Ce33  1  0.50000000  0.31335300  0.79753400  1
  Ce  Ce34  1  0.00000000  0.33298900  0.72330000  1
  Ce  Ce35  1  0.50000000  0.18672100  0.74419500  1
  Ce  Ce36  1  0.50000000  0.89712000  0.71413800  1
  Ce  Ce37  1  0.00000000  0.75085300  0.73503400  1
  Ce  Ce38  1  0.50000000  0.89548900  0.78580000  1
  Ce  Ce39  1  0.00000000  0.74922100  0.80669500  1
  Mg  Mg40  1  0.50000000  0.10901400  0.25529600  1
  Mg  Mg41  1  0.00000000  0.53732800  0.26553700  1
  Mg  Mg42  1  0.00000000  0.67151400  0.31779600  1
  Mg  Mg43  1  0.50000000  0.09982800  0.32803700  1
  Mg  Mg44  1  0.50000000  0.23401400  0.38029600  1
  Mg  Mg45  1  0.00000000  0.66232800  0.39053700  1
  Mg  Mg46  1  0.00000000  0.79651400  0.44279600  1
  Mg  Mg47  1  0.50000000  0.22482800  0.45303700  1
  Mg  Mg48  1  0.50000000  0.35901400  0.50529600  1
  Mg  Mg49  1  0.00000000  0.78732800  0.51553700  1
  Mg  Mg50  1  1.00000000  0.92151400  0.56779600  1
  Mg  Mg51  1  0.50000000  0.34982800  0.57803700  1
  Mg  Mg52  1  0.50000000  0.48401400  0.63029600  1
  Mg  Mg53  1  0.00000000  0.91232800  0.64053700  1
  Mg  Mg54  1  1.00000000  0.04651400  0.69279600  1
  Mg  Mg55  1  0.50000000  0.47482800  0.70303700  1
  Mg  Mg56  1  0.50000000  0.60901400  0.75529600  1
  Mg  Mg57  1  1.00000000  0.03732800  0.76553700  1
