# generated using pymatgen
data_Mg10Ir17
_symmetry_space_group_name_H-M   'P 1'
_cell_length_a   5.21013600
_cell_length_b   5.21013588
_cell_length_c   42.29076800
_cell_angle_alpha   90.00000000
_cell_angle_beta   90.00000000
_cell_angle_gamma   120.00000073
_symmetry_Int_Tables_number   1
_chemical_formula_structural   Mg10Ir17
_chemical_formula_sum   'Mg10 Ir17'
_cell_volume   994.20126302
_cell_formula_units_Z   1
loop_
 _symmetry_equiv_pos_site_id
 _symmetry_equiv_pos_as_xyz
  1  'x, y, z'
loop_
 _atom_site_type_symbol
 _atom_site_label
 _atom_site_symmetry_multiplicity
 _atom_site_fract_x
 _atom_site_fract_y
 _atom_site_fract_z
 _atom_site_occupancy
  Mg  Mg0  1  0.33333300  0.66666700  0.38880800  1
  Mg  Mg1  1  0.66666700  0.33333300  0.36119200  1
  Mg  Mg2  1  0.66666700  0.33333300  0.48880800  1
  Mg  Mg3  1  0.33333300  0.66666700  0.58880800  1
  Mg  Mg4  1  0.33333300  0.66666700  0.46119200  1
  Mg  Mg5  1  0.66666700  0.33333300  0.56119200  1
  Mg  Mg6  1  0.66666700  0.33333300  0.68880800  1
  Mg  Mg7  1  0.33333300  0.66666700  0.78880800  1
  Mg  Mg8  1  0.33333300  0.66666700  0.66119200  1
  Mg  Mg9  1  0.66666700  0.33333300  0.76119200  1
  Ir  Ir10  1  0.00000000  0.00000000  0.37500000  1
  Ir  Ir11  1  0.00000000  0.00000000  0.47500000  1
  Ir  Ir12  1  0.00000000  0.00000000  0.57500000  1
  Ir  Ir13  1  0.65646500  0.82823200  0.52500000  1
  Ir  Ir14  1  0.82823200  0.65646500  0.42500000  1
  Ir  Ir15  1  0.82823200  0.17176800  0.42500000  1
  Ir  Ir16  1  0.17176800  0.82823200  0.52500000  1
  Ir  Ir17  1  0.17176800  0.34353500  0.52500000  1
  Ir  Ir18  1  0.34353500  0.17176800  0.42500000  1
  Ir  Ir19  1  0.00000000  0.00000000  0.67500000  1
  Ir  Ir20  1  0.00000000  0.00000000  0.77500000  1
  Ir  Ir21  1  0.65646500  0.82823200  0.72500000  1
  Ir  Ir22  1  0.82823200  0.65646500  0.62500000  1
  Ir  Ir23  1  0.82823200  0.17176800  0.62500000  1
  Ir  Ir24  1  0.17176800  0.82823200  0.72500000  1
  Ir  Ir25  1  0.17176800  0.34353500  0.72500000  1
  Ir  Ir26  1  0.34353500  0.17176800  0.62500000  1
