# generated using pymatgen
data_Ho7Mg39
_symmetry_space_group_name_H-M   'P 1'
_cell_length_a   6.18220920
_cell_length_b   7.17151038
_cell_length_c   45.26682200
_cell_angle_alpha   92.17274786
_cell_angle_beta   93.07705159
_cell_angle_gamma   107.10606248
_symmetry_Int_Tables_number   1
_chemical_formula_structural   Ho7Mg39
_chemical_formula_sum   'Ho7 Mg39'
_cell_volume   1912.35643604
_cell_formula_units_Z   1
loop_
 _symmetry_equiv_pos_site_id
 _symmetry_equiv_pos_as_xyz
  1  'x, y, z'
loop_
 _atom_site_type_symbol
 _atom_site_label
 _atom_site_symmetry_multiplicity
 _atom_site_fract_x
 _atom_site_fract_y
 _atom_site_fract_z
 _atom_site_occupancy
  Ho  Ho0  1  0.46074200  0.58934600  0.28205100  1
  Ho  Ho1  1  0.69151200  0.66626900  0.35897400  1
  Ho  Ho2  1  0.92228100  0.74319200  0.43589700  1
  Ho  Ho3  1  0.15305000  0.82011500  0.51282100  1
  Ho  Ho4  1  0.38381900  0.89703800  0.58974400  1
  Ho  Ho5  1  0.61458900  0.97396100  0.66666700  1
  Ho  Ho6  1  0.84535800  0.05088400  0.74359000  1
  Mg  Mg7  1  0.65853900  0.36611500  0.22997300  1
  Mg  Mg8  1  0.04091200  0.21747500  0.25682700  1
  Mg  Mg9  1  0.64980400  0.88429300  0.23035300  1
  Mg  Mg10  1  0.03217700  0.73565300  0.25720600  1
  Mg  Mg11  1  0.88930800  0.44303800  0.30689600  1
  Mg  Mg12  1  0.27168100  0.29439900  0.33375000  1
  Mg  Mg13  1  0.46074200  0.08934600  0.28205100  1
  Mg  Mg14  1  0.88057300  0.96121600  0.30727600  1
  Mg  Mg15  1  0.26294600  0.81257600  0.33412900  1
  Mg  Mg16  1  0.12007700  0.51996100  0.38381900  1
  Mg  Mg17  1  0.50245000  0.37132200  0.41067300  1
  Mg  Mg18  1  0.69151200  0.16626900  0.35897400  1
  Mg  Mg19  1  0.11134200  0.03813900  0.38419900  1
  Mg  Mg20  1  0.49371500  0.88949900  0.41105200  1
  Mg  Mg21  1  0.35084600  0.59688400  0.46074200  1
  Mg  Mg22  1  0.73322000  0.44824500  0.48759600  1
  Mg  Mg23  1  0.92228100  0.24319200  0.43589700  1
  Mg  Mg24  1  0.34211100  0.11506200  0.46112200  1
  Mg  Mg25  1  0.72448500  0.96642200  0.48797600  1
  Mg  Mg26  1  0.58161600  0.67380700  0.53766500  1
  Mg  Mg27  1  0.96398900  0.52516800  0.56451900  1
  Mg  Mg28  1  0.15305000  0.32011500  0.51282100  1
  Mg  Mg29  1  0.57288100  0.19198500  0.53804500  1
  Mg  Mg30  1  0.95525400  0.04334500  0.56489900  1
  Mg  Mg31  1  0.81238500  0.75073000  0.61458900  1
  Mg  Mg32  1  0.19475800  0.60209100  0.64144200  1
  Mg  Mg33  1  0.38381900  0.39703800  0.58974400  1
  Mg  Mg34  1  0.80365000  0.26890800  0.61496800  1
  Mg  Mg35  1  0.18602300  0.12026800  0.64182200  1
  Mg  Mg36  1  0.04315400  0.82765300  0.69151200  1
  Mg  Mg37  1  0.42552700  0.67901400  0.71836500  1
  Mg  Mg38  1  0.61458900  0.47396100  0.66666700  1
  Mg  Mg39  1  0.03441900  0.34583100  0.69189100  1
  Mg  Mg40  1  0.41679200  0.19719100  0.71874500  1
  Mg  Mg41  1  0.27392300  0.90457700  0.76843500  1
  Mg  Mg42  1  0.65629700  0.75593700  0.79528800  1
  Mg  Mg43  1  0.84535800  0.55088400  0.74359000  1
  Mg  Mg44  1  0.26518800  0.42275400  0.76881500  1
  Mg  Mg45  1  0.64756200  0.27411500  0.79566800  1
