# generated using pymatgen
data_CeMg
_symmetry_space_group_name_H-M   'P 1'
_cell_length_a   3.48032000
_cell_length_b   10.46698345
_cell_length_c   45.97217700
_cell_angle_alpha   92.82824281
_cell_angle_beta   90.00000000
_cell_angle_gamma   90.00000000
_symmetry_Int_Tables_number   1
_chemical_formula_structural   CeMg
_chemical_formula_sum   'Ce20 Mg20'
_cell_volume   1672.65535080
_cell_formula_units_Z   20
loop_
 _symmetry_equiv_pos_site_id
 _symmetry_equiv_pos_as_xyz
  1  'x, y, z'
loop_
 _atom_site_type_symbol
 _atom_site_label
 _atom_site_symmetry_multiplicity
 _atom_site_fract_x
 _atom_site_fract_y
 _atom_site_fract_z
 _atom_site_occupancy
  Ce  Ce0  1  0.50000000  0.38076700  0.21332100  1
  Ce  Ce1  1  0.00000000  0.18173300  0.22417900  1
  Ce  Ce2  1  1.00000000  0.94326700  0.27582100  1
  Ce  Ce3  1  0.50000000  0.74423300  0.28667900  1
  Ce  Ce4  1  0.50000000  0.50576700  0.33832100  1
  Ce  Ce5  1  0.00000000  0.30673300  0.34917900  1
  Ce  Ce6  1  0.00000000  0.06826700  0.40082100  1
  Ce  Ce7  1  0.50000000  0.86923300  0.41167900  1
  Ce  Ce8  1  0.50000000  0.63076700  0.46332100  1
  Ce  Ce9  1  1.00000000  0.43173300  0.47417900  1
  Ce  Ce10  1  0.00000000  0.19326700  0.52582100  1
  Ce  Ce11  1  0.50000000  0.99423300  0.53667900  1
  Ce  Ce12  1  0.50000000  0.75576700  0.58832100  1
  Ce  Ce13  1  0.00000000  0.55673300  0.59917900  1
  Ce  Ce14  1  0.00000000  0.31826700  0.65082100  1
  Ce  Ce15  1  0.50000000  0.11923300  0.66167900  1
  Ce  Ce16  1  0.50000000  0.88076700  0.71332100  1
  Ce  Ce17  1  0.00000000  0.68173300  0.72417900  1
  Ce  Ce18  1  1.00000000  0.44326700  0.77582100  1
  Ce  Ce19  1  0.50000000  0.24423300  0.78667900  1
  Mg  Mg20  1  0.50000000  0.22819400  0.28725400  1
  Mg  Mg21  1  1.00000000  0.45930600  0.27524600  1
  Mg  Mg22  1  1.00000000  0.66569400  0.22475400  1
  Mg  Mg23  1  0.50000000  0.89680600  0.21274600  1
  Mg  Mg24  1  0.50000000  0.35319400  0.41225400  1
  Mg  Mg25  1  1.00000000  0.58430600  0.40024600  1
  Mg  Mg26  1  1.00000000  0.79069400  0.34975400  1
  Mg  Mg27  1  0.50000000  0.02180600  0.33774600  1
  Mg  Mg28  1  0.50000000  0.47819400  0.53725400  1
  Mg  Mg29  1  0.00000000  0.70930600  0.52524600  1
  Mg  Mg30  1  0.00000000  0.91569400  0.47475400  1
  Mg  Mg31  1  0.50000000  0.14680600  0.46274600  1
  Mg  Mg32  1  0.50000000  0.60319400  0.66225400  1
  Mg  Mg33  1  1.00000000  0.83430600  0.65024600  1
  Mg  Mg34  1  0.00000000  0.04069400  0.59975400  1
  Mg  Mg35  1  0.50000000  0.27180600  0.58774600  1
  Mg  Mg36  1  0.50000000  0.72819400  0.78725400  1
  Mg  Mg37  1  0.00000000  0.95930600  0.77524600  1
  Mg  Mg38  1  0.00000000  0.16569400  0.72475400  1
  Mg  Mg39  1  0.50000000  0.39680600  0.71274600  1
