# generated using pymatgen
data_Mg21Ga8
_symmetry_space_group_name_H-M   'P 1'
_cell_length_a   6.11035770
_cell_length_b   8.32987912
_cell_length_c   49.12638700
_cell_angle_alpha   87.82435891
_cell_angle_beta   86.43446658
_cell_angle_gamma   68.48323149
_symmetry_Int_Tables_number   1
_chemical_formula_structural   Mg21Ga8
_chemical_formula_sum   'Mg42 Ga16'
_cell_volume   2321.39293914
_cell_formula_units_Z   2
loop_
 _symmetry_equiv_pos_site_id
 _symmetry_equiv_pos_as_xyz
  1  'x, y, z'
loop_
 _atom_site_type_symbol
 _atom_site_label
 _atom_site_symmetry_multiplicity
 _atom_site_fract_x
 _atom_site_fract_y
 _atom_site_fract_z
 _atom_site_occupancy
  Mg  Mg0  1  0.48287200  0.83782700  0.69642900  1
  Mg  Mg1  1  0.98287200  0.83782700  0.69642900  1
  Mg  Mg2  1  0.88102700  0.57425400  0.66369200  1
  Mg  Mg3  1  0.83471800  0.72639900  0.60416500  1
  Mg  Mg4  1  0.25700400  0.84297000  0.64302200  1
  Mg  Mg5  1  0.45874100  0.45768300  0.62483500  1
  Mg  Mg6  1  0.73287200  0.46282700  0.57142900  1
  Mg  Mg7  1  0.23287200  0.46282700  0.57142900  1
  Mg  Mg8  1  0.90888800  0.08145900  0.60076500  1
  Mg  Mg9  1  0.30685700  0.21919400  0.66709300  1
  Mg  Mg10  1  0.80685700  0.21919400  0.66709300  1
  Mg  Mg11  1  0.40888800  0.08145900  0.60076500  1
  Mg  Mg12  1  0.13102700  0.19925400  0.53869200  1
  Mg  Mg13  1  0.08471800  0.35139900  0.47916500  1
  Mg  Mg14  1  0.50700400  0.46797000  0.51802200  1
  Mg  Mg15  1  0.70874100  0.08268300  0.49983500  1
  Mg  Mg16  1  0.98287200  0.08782700  0.44642900  1
  Mg  Mg17  1  0.48287200  0.08782700  0.44642900  1
  Mg  Mg18  1  0.15888800  0.70645900  0.47576500  1
  Mg  Mg19  1  0.55685700  0.84419400  0.54209300  1
  Mg  Mg20  1  0.05685700  0.84419400  0.54209300  1
  Mg  Mg21  1  0.65888800  0.70645900  0.47576500  1
  Mg  Mg22  1  0.38102700  0.82425400  0.41369200  1
  Mg  Mg23  1  0.33471800  0.97639900  0.35416500  1
  Mg  Mg24  1  0.75700400  0.09297000  0.39302200  1
  Mg  Mg25  1  0.95874100  0.70768300  0.37483500  1
  Mg  Mg26  1  0.23287200  0.71282700  0.32142900  1
  Mg  Mg27  1  0.73287200  0.71282700  0.32142900  1
  Mg  Mg28  1  0.40888800  0.33145900  0.35076500  1
  Mg  Mg29  1  0.80685700  0.46919400  0.41709300  1
  Mg  Mg30  1  0.30685700  0.46919400  0.41709300  1
  Mg  Mg31  1  0.90888800  0.33145900  0.35076500  1
  Mg  Mg32  1  0.63102700  0.44925400  0.28869200  1
  Mg  Mg33  1  0.58471800  0.60139900  0.22916500  1
  Mg  Mg34  1  0.00700400  0.71797000  0.26802200  1
  Mg  Mg35  1  0.20874100  0.33268300  0.24983500  1
  Mg  Mg36  1  0.48287200  0.33782700  0.19642900  1
  Mg  Mg37  1  0.98287200  0.33782700  0.19642900  1
  Mg  Mg38  1  0.65888800  0.95645900  0.22576500  1
  Mg  Mg39  1  0.05685700  0.09419400  0.29209300  1
  Mg  Mg40  1  0.55685700  0.09419400  0.29209300  1
  Mg  Mg41  1  0.15888800  0.95645900  0.22576500  1
  Ga  Ga42  1  0.00982400  0.36119300  0.61915900  1
  Ga  Ga43  1  0.70592100  0.93946100  0.64869800  1
  Ga  Ga44  1  0.32620400  0.75903600  0.58855600  1
  Ga  Ga45  1  0.38954100  0.54161700  0.67930100  1
  Ga  Ga46  1  0.25982400  0.98619300  0.49415900  1
  Ga  Ga47  1  0.95592100  0.56446100  0.52369800  1
  Ga  Ga48  1  0.57620400  0.38403600  0.46355600  1
  Ga  Ga49  1  0.63954100  0.16661700  0.55430100  1
  Ga  Ga50  1  0.50982400  0.61119300  0.36915900  1
  Ga  Ga51  1  0.20592100  0.18946100  0.39869800  1
  Ga  Ga52  1  0.82620400  0.00903600  0.33855600  1
  Ga  Ga53  1  0.88954100  0.79161700  0.42930100  1
  Ga  Ga54  1  0.75982400  0.23619300  0.24415900  1
  Ga  Ga55  1  0.45592100  0.81446100  0.27369800  1
  Ga  Ga56  1  0.07620400  0.63403600  0.21355600  1
  Ga  Ga57  1  0.13954100  0.41661700  0.30430100  1
