# generated using pymatgen
data_Ho6Mg17
_symmetry_space_group_name_H-M   'P 1'
_cell_length_a   5.16867406
_cell_length_b   5.16867408
_cell_length_c   42.30742300
_cell_angle_alpha   86.49792323
_cell_angle_beta   86.49792322
_cell_angle_gamma   59.99999897
_symmetry_Int_Tables_number   1
_chemical_formula_structural   Ho6Mg17
_chemical_formula_sum   'Ho6 Mg17'
_cell_volume   976.38806618
_cell_formula_units_Z   1
loop_
 _symmetry_equiv_pos_site_id
 _symmetry_equiv_pos_as_xyz
  1  'x, y, z'
loop_
 _atom_site_type_symbol
 _atom_site_label
 _atom_site_symmetry_multiplicity
 _atom_site_fract_x
 _atom_site_fract_y
 _atom_site_fract_z
 _atom_site_occupancy
  Ho  Ho0  1  0.76250000  0.36250000  0.26250000  1
  Ho  Ho1  1  0.06250000  0.66250000  0.36250000  1
  Ho  Ho2  1  0.36250000  0.96250000  0.46250000  1
  Ho  Ho3  1  0.66250000  0.26250000  0.56250000  1
  Ho  Ho4  1  0.96250000  0.56250000  0.66250000  1
  Ho  Ho5  1  0.26250000  0.86250000  0.76250000  1
  Mg  Mg6  1  0.43750000  0.03750000  0.23750000  1
  Mg  Mg7  1  0.08750000  0.68750000  0.28750000  1
  Mg  Mg8  1  0.73750000  0.33750000  0.33750000  1
  Mg  Mg9  1  0.41250000  0.01250000  0.31250000  1
  Mg  Mg10  1  0.38750000  0.98750000  0.38750000  1
  Mg  Mg11  1  0.03750000  0.63750000  0.43750000  1
  Mg  Mg12  1  0.71250000  0.31250000  0.41250000  1
  Mg  Mg13  1  0.68750000  0.28750000  0.48750000  1
  Mg  Mg14  1  0.33750000  0.93750000  0.53750000  1
  Mg  Mg15  1  0.01250000  0.61250000  0.51250000  1
  Mg  Mg16  1  0.98750000  0.58750000  0.58750000  1
  Mg  Mg17  1  0.63750000  0.23750000  0.63750000  1
  Mg  Mg18  1  0.31250000  0.91250000  0.61250000  1
  Mg  Mg19  1  0.28750000  0.88750000  0.68750000  1
  Mg  Mg20  1  0.93750000  0.53750000  0.73750000  1
  Mg  Mg21  1  0.61250000  0.21250000  0.71250000  1
  Mg  Mg22  1  0.58750000  0.18750000  0.78750000  1
