# generated using pymatgen
data_Mg22In9
_symmetry_space_group_name_H-M   'P 1'
_cell_length_a   7.10486100
_cell_length_b   8.73688538
_cell_length_c   46.55831200
_cell_angle_alpha   94.50846536
_cell_angle_beta   90.00000000
_cell_angle_gamma   113.99151935
_symmetry_Int_Tables_number   1
_chemical_formula_structural   Mg22In9
_chemical_formula_sum   'Mg44 In18'
_cell_volume   2630.59955503
_cell_formula_units_Z   2
loop_
 _symmetry_equiv_pos_site_id
 _symmetry_equiv_pos_as_xyz
  1  'x, y, z'
loop_
 _atom_site_type_symbol
 _atom_site_label
 _atom_site_symmetry_multiplicity
 _atom_site_fract_x
 _atom_site_fract_y
 _atom_site_fract_z
 _atom_site_occupancy
  Mg  Mg0  1  0.19272800  0.05461200  0.70365100  1
  Mg  Mg1  1  0.01076700  0.35237900  0.72492000  1
  Mg  Mg2  1  0.83999500  0.67998900  0.71260700  1
  Mg  Mg3  1  0.36350100  0.72700100  0.71596500  1
  Mg  Mg4  1  0.31772800  0.30461200  0.57865100  1
  Mg  Mg5  1  0.13576700  0.60237900  0.59992000  1
  Mg  Mg6  1  0.40411200  0.47737900  0.66242000  1
  Mg  Mg7  1  0.92438400  0.17961200  0.64115100  1
  Mg  Mg8  1  0.63299800  0.26599500  0.68303600  1
  Mg  Mg9  1  0.69549800  0.39099500  0.62053600  1
  Mg  Mg10  1  0.96499500  0.92998900  0.58760700  1
  Mg  Mg11  1  0.42600100  0.85200100  0.65346500  1
  Mg  Mg12  1  0.48850100  0.97700100  0.59096500  1
  Mg  Mg13  1  0.90249500  0.80498900  0.65010700  1
  Mg  Mg14  1  0.44272800  0.55461200  0.45365100  1
  Mg  Mg15  1  0.26076700  0.85237900  0.47492000  1
  Mg  Mg16  1  0.52911200  0.72737900  0.53742000  1
  Mg  Mg17  1  0.04938400  0.42961200  0.51615100  1
  Mg  Mg18  1  0.75799800  0.51599500  0.55803600  1
  Mg  Mg19  1  0.82049800  0.64099500  0.49553600  1
  Mg  Mg20  1  0.08999500  0.17998900  0.46260700  1
  Mg  Mg21  1  0.55100100  0.10200100  0.52846500  1
  Mg  Mg22  1  0.61350100  0.22700100  0.46596500  1
  Mg  Mg23  1  0.02749500  0.05498900  0.52510700  1
  Mg  Mg24  1  0.56772800  0.80461200  0.32865100  1
  Mg  Mg25  1  0.38576700  0.10237900  0.34992000  1
  Mg  Mg26  1  0.65411200  0.97737900  0.41242000  1
  Mg  Mg27  1  0.17438400  0.67961200  0.39115100  1
  Mg  Mg28  1  0.88299800  0.76599500  0.43303600  1
  Mg  Mg29  1  0.94549800  0.89099500  0.37053600  1
  Mg  Mg30  1  0.21499500  0.42998900  0.33760700  1
  Mg  Mg31  1  0.67600100  0.35200100  0.40346500  1
  Mg  Mg32  1  0.73850100  0.47700100  0.34096500  1
  Mg  Mg33  1  0.15249500  0.30498900  0.40010700  1
  Mg  Mg34  1  0.69272800  0.05461200  0.20365100  1
  Mg  Mg35  1  0.51076700  0.35237900  0.22492000  1
  Mg  Mg36  1  0.77911200  0.22737900  0.28742000  1
  Mg  Mg37  1  0.29938400  0.92961200  0.26615100  1
  Mg  Mg38  1  0.00799800  0.01599500  0.30803600  1
  Mg  Mg39  1  0.07049800  0.14099500  0.24553600  1
  Mg  Mg40  1  0.33999500  0.67998900  0.21260700  1
  Mg  Mg41  1  0.80100100  0.60200100  0.27846500  1
  Mg  Mg42  1  0.86350100  0.72700100  0.21596500  1
  Mg  Mg43  1  0.27749500  0.55498900  0.27510700  1
  In  In44  1  0.75613700  0.98993000  0.69903100  1
  In  In45  1  0.44735800  0.41706100  0.72954000  1
  In  In46  1  0.88113700  0.23993000  0.57403100  1
  In  In47  1  0.57235800  0.66706100  0.60454000  1
  In  In48  1  0.03220300  0.54206100  0.66704000  1
  In  In49  1  0.29629300  0.11493000  0.63653100  1
  In  In50  1  0.00613700  0.48993000  0.44903100  1
  In  In51  1  0.69735800  0.91706100  0.47954000  1
  In  In52  1  0.15720300  0.79206100  0.54204000  1
  In  In53  1  0.42129300  0.36493000  0.51153100  1
  In  In54  1  0.13113700  0.73993000  0.32403100  1
  In  In55  1  0.82235800  0.16706100  0.35454000  1
  In  In56  1  0.28220300  0.04206100  0.41704000  1
  In  In57  1  0.54629300  0.61493000  0.38653100  1
  In  In58  1  0.25613700  0.98993000  0.19903100  1
  In  In59  1  0.94735800  0.41706100  0.22954000  1
  In  In60  1  0.40720300  0.29206100  0.29204000  1
  In  In61  1  0.67129300  0.86493000  0.26153100  1
