# generated using pymatgen
data_Mg4Te9
_symmetry_space_group_name_H-M   'P 1'
_cell_length_a   10.05447285
_cell_length_b   10.05447185
_cell_length_c   45.52356000
_cell_angle_alpha   83.65980636
_cell_angle_beta   83.65980700
_cell_angle_gamma   59.99999954
_symmetry_Int_Tables_number   1
_chemical_formula_structural   Mg4Te9
_chemical_formula_sum   'Mg24 Te54'
_cell_volume   3952.98842470
_cell_formula_units_Z   6
loop_
 _symmetry_equiv_pos_site_id
 _symmetry_equiv_pos_as_xyz
  1  'x, y, z'
loop_
 _atom_site_type_symbol
 _atom_site_label
 _atom_site_symmetry_multiplicity
 _atom_site_fract_x
 _atom_site_fract_y
 _atom_site_fract_z
 _atom_site_occupancy
  Mg  Mg0  1  0.73575300  0.73575300  0.25000000  1
  Mg  Mg1  1  0.73575300  0.23575300  0.25000000  1
  Mg  Mg2  1  0.23575300  0.73575300  0.25000000  1
  Mg  Mg3  1  0.23575300  0.23575300  0.25000000  1
  Mg  Mg4  1  0.37211600  0.37211600  0.34090900  1
  Mg  Mg5  1  0.37211600  0.87211600  0.34090900  1
  Mg  Mg6  1  0.87211600  0.37211600  0.34090900  1
  Mg  Mg7  1  0.87211600  0.87211600  0.34090900  1
  Mg  Mg8  1  0.00848000  0.00848000  0.43181800  1
  Mg  Mg9  1  0.00848000  0.50848000  0.43181800  1
  Mg  Mg10  1  0.50848000  0.00848000  0.43181800  1
  Mg  Mg11  1  0.50848000  0.50848000  0.43181800  1
  Mg  Mg12  1  0.64484400  0.64484400  0.52272700  1
  Mg  Mg13  1  0.64484400  0.14484400  0.52272700  1
  Mg  Mg14  1  0.14484400  0.64484400  0.52272700  1
  Mg  Mg15  1  0.14484400  0.14484400  0.52272700  1
  Mg  Mg16  1  0.28120700  0.28120700  0.61363600  1
  Mg  Mg17  1  0.28120700  0.78120700  0.61363600  1
  Mg  Mg18  1  0.78120700  0.28120700  0.61363600  1
  Mg  Mg19  1  0.78120700  0.78120700  0.61363600  1
  Mg  Mg20  1  0.91757100  0.91757100  0.70454500  1
  Mg  Mg21  1  0.91757100  0.41757100  0.70454500  1
  Mg  Mg22  1  0.41757100  0.91757100  0.70454500  1
  Mg  Mg23  1  0.41757100  0.41757100  0.70454500  1
  Te  Te24  1  0.06423800  0.06423800  0.26454400  1
  Te  Te25  1  0.48969600  0.76301700  0.21484900  1
  Te  Te26  1  0.98969600  0.48969600  0.21484900  1
  Te  Te27  1  0.76301700  0.98969600  0.21484900  1
  Te  Te28  1  0.40726700  0.40726700  0.23545600  1
  Te  Te29  1  0.34544600  0.07212500  0.19424200  1
  Te  Te30  1  0.84544600  0.34544600  0.19424200  1
  Te  Te31  1  0.07212500  0.84544600  0.19424200  1
  Te  Te32  1  0.70060200  0.70060200  0.35545300  1
  Te  Te33  1  0.12606000  0.39938000  0.30575800  1
  Te  Te34  1  0.62606000  0.12606000  0.30575800  1
  Te  Te35  1  0.39938000  0.62606000  0.30575800  1
  Te  Te36  1  0.04363100  0.04363100  0.32636500  1
  Te  Te37  1  0.98180900  0.70848900  0.28515100  1
  Te  Te38  1  0.48180900  0.98180900  0.28515100  1
  Te  Te39  1  0.70848900  0.48180900  0.28515100  1
  Te  Te40  1  0.33696600  0.33696600  0.44636200  1
  Te  Te41  1  0.76242400  0.03574400  0.39666700  1
  Te  Te42  1  0.26242400  0.76242400  0.39666700  1
  Te  Te43  1  0.03574400  0.26242400  0.39666700  1
  Te  Te44  1  0.67999500  0.67999500  0.41727500  1
  Te  Te45  1  0.61817300  0.34485300  0.37606000  1
  Te  Te46  1  0.11817300  0.61817300  0.37606000  1
  Te  Te47  1  0.34485300  0.11817300  0.37606000  1
  Te  Te48  1  0.97332900  0.97332900  0.53727100  1
  Te  Te49  1  0.39878700  0.67210700  0.48757600  1
  Te  Te50  1  0.89878700  0.39878700  0.48757600  1
  Te  Te51  1  0.67210700  0.89878700  0.48757600  1
  Te  Te52  1  0.31635800  0.31635800  0.50818400  1
  Te  Te53  1  0.25453600  0.98121600  0.46696900  1
  Te  Te54  1  0.75453600  0.25453600  0.46696900  1
  Te  Te55  1  0.98121600  0.75453600  0.46696900  1
  Te  Te56  1  0.60969300  0.60969300  0.62818000  1
  Te  Te57  1  0.03515100  0.30847100  0.57848500  1
  Te  Te58  1  0.53515100  0.03515100  0.57848500  1
  Te  Te59  1  0.30847100  0.53515100  0.57848500  1
  Te  Te60  1  0.95272200  0.95272200  0.59909300  1
  Te  Te61  1  0.89090000  0.61758000  0.55787800  1
  Te  Te62  1  0.39090000  0.89090000  0.55787800  1
  Te  Te63  1  0.61758000  0.39090000  0.55787800  1
  Te  Te64  1  0.24605600  0.24605600  0.71908900  1
  Te  Te65  1  0.67151500  0.94483500  0.66939500  1
  Te  Te66  1  0.17151500  0.67151500  0.66939500  1
  Te  Te67  1  0.94483500  0.17151500  0.66939500  1
  Te  Te68  1  0.58908600  0.58908600  0.69000200  1
  Te  Te69  1  0.52726400  0.25394400  0.64878700  1
  Te  Te70  1  0.02726400  0.52726400  0.64878700  1
  Te  Te71  1  0.25394400  0.02726400  0.64878700  1
  Te  Te72  1  0.30787800  0.58119800  0.76030400  1
  Te  Te73  1  0.80787800  0.30787800  0.76030400  1
  Te  Te74  1  0.58119800  0.80787800  0.76030400  1
  Te  Te75  1  0.16362700  0.89030700  0.73969600  1
  Te  Te76  1  0.66362700  0.16362700  0.73969600  1
  Te  Te77  1  0.89030700  0.66362700  0.73969600  1
