# generated using pymatgen
data_Mg15Ni14
_symmetry_space_group_name_H-M   'P 1'
_cell_length_a   4.30664000
_cell_length_b   4.30664031
_cell_length_c   42.19628200
_cell_angle_alpha   90.00000000
_cell_angle_beta   90.00000000
_cell_angle_gamma   60.00000236
_symmetry_Int_Tables_number   1
_chemical_formula_structural   Mg15Ni14
_chemical_formula_sum   'Mg15 Ni14'
_cell_volume   677.76946453
_cell_formula_units_Z   1
loop_
 _symmetry_equiv_pos_site_id
 _symmetry_equiv_pos_as_xyz
  1  'x, y, z'
loop_
 _atom_site_type_symbol
 _atom_site_label
 _atom_site_symmetry_multiplicity
 _atom_site_fract_x
 _atom_site_fract_y
 _atom_site_fract_z
 _atom_site_occupancy
  Mg  Mg0  1  0.75000000  0.75000000  0.21875000  1
  Mg  Mg1  1  0.41666700  0.41666700  0.26041700  1
  Mg  Mg2  1  0.08333300  0.08333300  0.30208300  1
  Mg  Mg3  1  0.75000000  0.75000000  0.34375000  1
  Mg  Mg4  1  0.41666700  0.41666700  0.38541700  1
  Mg  Mg5  1  0.08333300  0.08333300  0.42708300  1
  Mg  Mg6  1  0.75000000  0.75000000  0.46875000  1
  Mg  Mg7  1  0.41666700  0.41666700  0.51041700  1
  Mg  Mg8  1  0.08333300  0.08333300  0.55208300  1
  Mg  Mg9  1  0.75000000  0.75000000  0.59375000  1
  Mg  Mg10  1  0.41666700  0.41666700  0.63541700  1
  Mg  Mg11  1  0.08333300  0.08333300  0.67708300  1
  Mg  Mg12  1  0.75000000  0.75000000  0.71875000  1
  Mg  Mg13  1  0.41666700  0.41666700  0.76041700  1
  Mg  Mg14  1  0.08333300  0.08333300  0.80208300  1
  Ni  Ni15  1  0.08333300  0.08333300  0.23958300  1
  Ni  Ni16  1  0.75000000  0.75000000  0.28125000  1
  Ni  Ni17  1  0.41666700  0.41666700  0.32291700  1
  Ni  Ni18  1  0.08333300  0.08333300  0.36458300  1
  Ni  Ni19  1  0.75000000  0.75000000  0.40625000  1
  Ni  Ni20  1  0.41666700  0.41666700  0.44791700  1
  Ni  Ni21  1  0.08333300  0.08333300  0.48958300  1
  Ni  Ni22  1  0.75000000  0.75000000  0.53125000  1
  Ni  Ni23  1  0.41666700  0.41666700  0.57291700  1
  Ni  Ni24  1  0.08333300  0.08333300  0.61458300  1
  Ni  Ni25  1  0.75000000  0.75000000  0.65625000  1
  Ni  Ni26  1  0.41666700  0.41666700  0.69791700  1
  Ni  Ni27  1  0.08333300  0.08333300  0.73958300  1
  Ni  Ni28  1  0.75000000  0.75000000  0.78125000  1
