# generated using pymatgen
data_Ca13Mg5
_symmetry_space_group_name_H-M   'P 1'
_cell_length_a   5.27812800
_cell_length_b   5.27812800
_cell_length_c   42.22502100
_cell_angle_alpha   90.00000000
_cell_angle_beta   90.00000000
_cell_angle_gamma   90.00000000
_symmetry_Int_Tables_number   1
_chemical_formula_structural   Ca13Mg5
_chemical_formula_sum   'Ca13 Mg5'
_cell_volume   1176.33145569
_cell_formula_units_Z   1
loop_
 _symmetry_equiv_pos_site_id
 _symmetry_equiv_pos_as_xyz
  1  'x, y, z'
loop_
 _atom_site_type_symbol
 _atom_site_label
 _atom_site_symmetry_multiplicity
 _atom_site_fract_x
 _atom_site_fract_y
 _atom_site_fract_z
 _atom_site_occupancy
  Ca  Ca0  1  0.50000000  0.50000000  0.28125000  1
  Ca  Ca1  1  0.50000000  0.00000000  0.34375000  1
  Ca  Ca2  1  0.00000000  0.50000000  0.34375000  1
  Ca  Ca3  1  0.50000000  0.50000000  0.40625000  1
  Ca  Ca4  1  0.50000000  0.00000000  0.46875000  1
  Ca  Ca5  1  0.00000000  0.50000000  0.46875000  1
  Ca  Ca6  1  0.50000000  0.50000000  0.53125000  1
  Ca  Ca7  1  0.50000000  0.00000000  0.59375000  1
  Ca  Ca8  1  0.00000000  0.50000000  0.59375000  1
  Ca  Ca9  1  0.50000000  0.50000000  0.65625000  1
  Ca  Ca10  1  0.50000000  0.00000000  0.71875000  1
  Ca  Ca11  1  0.00000000  0.50000000  0.71875000  1
  Ca  Ca12  1  0.50000000  0.50000000  0.78125000  1
  Mg  Mg13  1  0.00000000  0.00000000  0.28125000  1
  Mg  Mg14  1  0.00000000  0.00000000  0.40625000  1
  Mg  Mg15  1  0.00000000  0.00000000  0.53125000  1
  Mg  Mg16  1  0.00000000  0.00000000  0.65625000  1
  Mg  Mg17  1  0.00000000  0.00000000  0.78125000  1
