# generated using pymatgen
data_Ce19Mg10
_symmetry_space_group_name_H-M   'P 1'
_cell_length_a   6.12314821
_cell_length_b   9.39222206
_cell_length_c   42.96888300
_cell_angle_alpha   94.02189718
_cell_angle_beta   91.04336207
_cell_angle_gamma   94.98002187
_symmetry_Int_Tables_number   1
_chemical_formula_structural   Ce19Mg10
_chemical_formula_sum   'Ce38 Mg20'
_cell_volume   2455.01380564
_cell_formula_units_Z   2
loop_
 _symmetry_equiv_pos_site_id
 _symmetry_equiv_pos_as_xyz
  1  'x, y, z'
loop_
 _atom_site_type_symbol
 _atom_site_label
 _atom_site_symmetry_multiplicity
 _atom_site_fract_x
 _atom_site_fract_y
 _atom_site_fract_z
 _atom_site_occupancy
  Ce  Ce0  1  0.05270600  0.49622500  0.23668100  1
  Ce  Ce1  1  0.61282000  0.96210800  0.22165200  1
  Ce  Ce2  1  0.80270600  0.55872500  0.29918100  1
  Ce  Ce3  1  0.96949600  0.85135300  0.25748300  1
  Ce  Ce4  1  0.44602900  0.66948000  0.26335000  1
  Ce  Ce5  1  0.36282000  0.02460800  0.28415200  1
  Ce  Ce6  1  0.55270600  0.62122500  0.36168100  1
  Ce  Ce7  1  0.71949600  0.91385300  0.31998300  1
  Ce  Ce8  1  0.19602900  0.73198000  0.32585000  1
  Ce  Ce9  1  0.11282000  0.08710800  0.34665200  1
  Ce  Ce10  1  0.30270600  0.68372500  0.42418100  1
  Ce  Ce11  1  0.46949600  0.97635300  0.38248300  1
  Ce  Ce12  1  0.94602900  0.79448000  0.38835000  1
  Ce  Ce13  1  0.86282000  0.14960800  0.40915200  1
  Ce  Ce14  1  0.05270600  0.74622500  0.48668100  1
  Ce  Ce15  1  0.21949600  0.03885300  0.44498300  1
  Ce  Ce16  1  0.69602900  0.85698000  0.45085000  1
  Ce  Ce17  1  0.61282000  0.21210800  0.47165200  1
  Ce  Ce18  1  0.80270600  0.80872500  0.54918100  1
  Ce  Ce19  1  0.96949600  0.10135300  0.50748300  1
  Ce  Ce20  1  0.44602900  0.91948000  0.51335000  1
  Ce  Ce21  1  0.36282000  0.27460800  0.53415200  1
  Ce  Ce22  1  0.55270600  0.87122500  0.61168100  1
  Ce  Ce23  1  0.71949600  0.16385300  0.56998300  1
  Ce  Ce24  1  0.19602900  0.98198000  0.57585000  1
  Ce  Ce25  1  0.11282000  0.33710800  0.59665200  1
  Ce  Ce26  1  0.30270600  0.93372500  0.67418100  1
  Ce  Ce27  1  0.46949600  0.22635300  0.63248300  1
  Ce  Ce28  1  0.94602900  0.04448000  0.63835000  1
  Ce  Ce29  1  0.86282000  0.39960800  0.65915200  1
  Ce  Ce30  1  0.05270600  0.99622500  0.73668100  1
  Ce  Ce31  1  0.21949600  0.28885300  0.69498300  1
  Ce  Ce32  1  0.69602900  0.10698000  0.70085000  1
  Ce  Ce33  1  0.61282000  0.46210800  0.72165200  1
  Ce  Ce34  1  0.80270600  0.05872500  0.79918100  1
  Ce  Ce35  1  0.96949600  0.35135300  0.75748300  1
  Ce  Ce36  1  0.44602900  0.16948000  0.76335000  1
  Ce  Ce37  1  0.36282000  0.52460800  0.78415200  1
  Mg  Mg38  1  0.13502200  0.13417600  0.21610200  1
  Mg  Mg39  1  0.53050400  0.32415700  0.24223100  1
  Mg  Mg40  1  0.88502200  0.19667600  0.27860200  1
  Mg  Mg41  1  0.28050400  0.38665700  0.30473100  1
  Mg  Mg42  1  0.63502200  0.25917600  0.34110200  1
  Mg  Mg43  1  0.03050400  0.44915700  0.36723100  1
  Mg  Mg44  1  0.38502200  0.32167600  0.40360200  1
  Mg  Mg45  1  0.78050400  0.51165700  0.42973100  1
  Mg  Mg46  1  0.13502200  0.38417600  0.46610200  1
  Mg  Mg47  1  0.53050400  0.57415700  0.49223100  1
  Mg  Mg48  1  0.88502200  0.44667600  0.52860200  1
  Mg  Mg49  1  0.28050400  0.63665700  0.55473100  1
  Mg  Mg50  1  0.63502200  0.50917600  0.59110200  1
  Mg  Mg51  1  0.03050400  0.69915700  0.61723100  1
  Mg  Mg52  1  0.38502200  0.57167600  0.65360200  1
  Mg  Mg53  1  0.78050400  0.76165700  0.67973100  1
  Mg  Mg54  1  0.13502200  0.63417600  0.71610200  1
  Mg  Mg55  1  0.53050400  0.82415700  0.74223100  1
  Mg  Mg56  1  0.88502200  0.69667600  0.77860200  1
  Mg  Mg57  1  0.28050400  0.88665700  0.80473100  1
