# generated using pymatgen
data_Mg23Zn117
_symmetry_space_group_name_H-M   'P 1'
_cell_length_a   10.62299173
_cell_length_b   17.53293388
_cell_length_c   43.15075500
_cell_angle_alpha   81.29988746
_cell_angle_beta   89.35999185
_cell_angle_gamma   81.47469625
_symmetry_Int_Tables_number   1
_chemical_formula_structural   Mg23Zn117
_chemical_formula_sum   'Mg46 Zn234'
_cell_volume   7856.14450224
_cell_formula_units_Z   2
loop_
 _symmetry_equiv_pos_site_id
 _symmetry_equiv_pos_as_xyz
  1  'x, y, z'
loop_
 _atom_site_type_symbol
 _atom_site_label
 _atom_site_symmetry_multiplicity
 _atom_site_fract_x
 _atom_site_fract_y
 _atom_site_fract_z
 _atom_site_occupancy
  Mg  Mg0  1  0.65821700  0.68636500  0.30428700  1
  Mg  Mg1  1  0.61677300  0.70113100  0.22904700  1
  Mg  Mg2  1  0.80951800  0.95965700  0.22208500  1
  Mg  Mg3  1  0.66547300  0.52783800  0.21124800  1
  Mg  Mg4  1  0.25821700  0.23636500  0.25428700  1
  Mg  Mg5  1  0.01677300  0.15113100  0.27904700  1
  Mg  Mg6  1  0.20951800  0.40965700  0.27208500  1
  Mg  Mg7  1  0.06547300  0.97783800  0.26124800  1
  Mg  Mg8  1  0.45821700  0.58636500  0.40428700  1
  Mg  Mg9  1  0.41677300  0.60113100  0.32904700  1
  Mg  Mg10  1  0.60951800  0.85965700  0.32208500  1
  Mg  Mg11  1  0.46547300  0.42783800  0.31124800  1
  Mg  Mg12  1  0.05821700  0.13636500  0.35428700  1
  Mg  Mg13  1  0.81677300  0.05113100  0.37904700  1
  Mg  Mg14  1  0.00951800  0.30965700  0.37208500  1
  Mg  Mg15  1  0.86547300  0.87783800  0.36124800  1
  Mg  Mg16  1  0.25821700  0.48636500  0.50428700  1
  Mg  Mg17  1  0.21677300  0.50113100  0.42904700  1
  Mg  Mg18  1  0.40951800  0.75965700  0.42208500  1
  Mg  Mg19  1  0.26547300  0.32783800  0.41124800  1
  Mg  Mg20  1  0.85821700  0.03636500  0.45428700  1
  Mg  Mg21  1  0.61677300  0.95113100  0.47904700  1
  Mg  Mg22  1  0.80951800  0.20965700  0.47208500  1
  Mg  Mg23  1  0.66547300  0.77783800  0.46124800  1
  Mg  Mg24  1  0.05821700  0.38636500  0.60428700  1
  Mg  Mg25  1  0.01677300  0.40113100  0.52904700  1
  Mg  Mg26  1  0.20951800  0.65965700  0.52208500  1
  Mg  Mg27  1  0.06547300  0.22783800  0.51124800  1
  Mg  Mg28  1  0.65821700  0.93636500  0.55428700  1
  Mg  Mg29  1  0.41677300  0.85113100  0.57904700  1
  Mg  Mg30  1  0.60951800  0.10965700  0.57208500  1
  Mg  Mg31  1  0.46547300  0.67783800  0.56124800  1
  Mg  Mg32  1  0.85821700  0.28636500  0.70428700  1
  Mg  Mg33  1  0.81677300  0.30113100  0.62904700  1
  Mg  Mg34  1  0.00951800  0.55965700  0.62208500  1
  Mg  Mg35  1  0.86547300  0.12783800  0.61124800  1
  Mg  Mg36  1  0.45821700  0.83636500  0.65428700  1
  Mg  Mg37  1  0.21677300  0.75113100  0.67904700  1
  Mg  Mg38  1  0.40951800  0.00965700  0.67208500  1
  Mg  Mg39  1  0.26547300  0.57783800  0.66124800  1
  Mg  Mg40  1  0.61677300  0.20113100  0.72904700  1
  Mg  Mg41  1  0.80951800  0.45965700  0.72208500  1
  Mg  Mg42  1  0.66547300  0.02783800  0.71124800  1
  Mg  Mg43  1  0.25821700  0.73636500  0.75428700  1
  Mg  Mg44  1  0.20951800  0.90965700  0.77208500  1
  Mg  Mg45  1  0.06547300  0.47783800  0.76124800  1
  Zn  Zn46  1  0.33749500  0.91874800  0.29166700  1
  Zn  Zn47  1  0.95375200  0.43331300  0.31035500  1
  Zn  Zn48  1  0.12087400  0.69196900  0.22832400  1
  Zn  Zn49  1  0.53753600  0.56756100  0.27007400  1
  Zn  Zn50  1  0.73745500  0.81993400  0.26325900  1
  Zn  Zn51  1  0.99647800  0.81828500  0.26393400  1
  Zn  Zn52  1  0.59261200  0.87189000  0.21468300  1
  Zn  Zn53  1  0.32123900  0.95418300  0.22297800  1
  Zn  Zn54  1  0.89658000  0.69059600  0.26751400  1
  Zn  Zn55  1  0.78123600  0.56503400  0.26922100  1
  Zn  Zn56  1  0.49375400  0.82246100  0.26411200  1
  Zn  Zn57  1  0.88237900  0.61560500  0.21865000  1
  Zn  Zn58  1  0.37957300  0.61974100  0.21887000  1
  Zn  Zn59  1  0.15411600  0.69552600  0.30501000  1
  Zn  Zn60  1  0.09541800  0.86775500  0.21446400  1
  Zn  Zn61  1  0.27851300  0.56921000  0.26940000  1
  Zn  Zn62  1  0.83749500  0.91874800  0.29166700  1
  Zn  Zn63  1  0.23367600  0.82706700  0.26373800  1
  Zn  Zn64  1  0.04131500  0.56042800  0.26959500  1
  Zn  Zn65  1  0.37841100  0.69689900  0.26581900  1
  Zn  Zn66  1  0.93749500  0.46874800  0.24166700  1
  Zn  Zn67  1  0.55375200  0.98331300  0.26035500  1
  Zn  Zn68  1  0.52087400  0.14196900  0.27832400  1
  Zn  Zn69  1  0.13753600  0.11756100  0.22007400  1
  Zn  Zn70  1  0.33745500  0.36993400  0.21325900  1
  Zn  Zn71  1  0.59647800  0.36828500  0.21393400  1
  Zn  Zn72  1  0.99261200  0.32189000  0.26468300  1
  Zn  Zn73  1  0.72123900  0.40418300  0.27297800  1
  Zn  Zn74  1  0.49658000  0.24059600  0.21751400  1
  Zn  Zn75  1  0.38123600  0.11503400  0.21922100  1
  Zn  Zn76  1  0.09375400  0.37246100  0.21411200  1
  Zn  Zn77  1  0.28237900  0.06560500  0.26865000  1
  Zn  Zn78  1  0.77957300  0.06974100  0.26887000  1
  Zn  Zn79  1  0.75411600  0.24552600  0.25501000  1
  Zn  Zn80  1  0.49541800  0.31775500  0.26446400  1
  Zn  Zn81  1  0.87851300  0.11921000  0.21940000  1
  Zn  Zn82  1  0.43749500  0.46874800  0.24166700  1
  Zn  Zn83  1  0.83367600  0.37706700  0.21373800  1
  Zn  Zn84  1  0.64131500  0.11042800  0.21959500  1
  Zn  Zn85  1  0.97841100  0.24689900  0.21581900  1
  Zn  Zn86  1  0.13749500  0.81874800  0.39166700  1
  Zn  Zn87  1  0.75375200  0.33331300  0.41035500  1
  Zn  Zn88  1  0.92087400  0.59196900  0.32832400  1
  Zn  Zn89  1  0.33753600  0.46756100  0.37007400  1
  Zn  Zn90  1  0.53745500  0.71993400  0.36325900  1
  Zn  Zn91  1  0.79647800  0.71828500  0.36393400  1
  Zn  Zn92  1  0.39261200  0.77189000  0.31468300  1
  Zn  Zn93  1  0.12123900  0.85418300  0.32297800  1
  Zn  Zn94  1  0.69658000  0.59059600  0.36751400  1
  Zn  Zn95  1  0.58123600  0.46503400  0.36922100  1
  Zn  Zn96  1  0.29375400  0.72246100  0.36411200  1
  Zn  Zn97  1  0.68237900  0.51560500  0.31865000  1
  Zn  Zn98  1  0.17957300  0.51974100  0.31887000  1
  Zn  Zn99  1  0.95411600  0.59552600  0.40501000  1
  Zn  Zn100  1  0.89541800  0.76775500  0.31446400  1
  Zn  Zn101  1  0.07851300  0.46921000  0.36940000  1
  Zn  Zn102  1  0.63749500  0.81874800  0.39166700  1
  Zn  Zn103  1  0.03367600  0.72706700  0.36373800  1
  Zn  Zn104  1  0.84131500  0.46042800  0.36959500  1
  Zn  Zn105  1  0.17841100  0.59689900  0.36581900  1
  Zn  Zn106  1  0.73749500  0.36874800  0.34166700  1
  Zn  Zn107  1  0.35375200  0.88331300  0.36035500  1
  Zn  Zn108  1  0.32087400  0.04196900  0.37832400  1
  Zn  Zn109  1  0.93753600  0.01756100  0.32007400  1
  Zn  Zn110  1  0.13745500  0.26993400  0.31325900  1
  Zn  Zn111  1  0.39647800  0.26828500  0.31393400  1
  Zn  Zn112  1  0.79261200  0.22189000  0.36468300  1
  Zn  Zn113  1  0.52123900  0.30418300  0.37297800  1
  Zn  Zn114  1  0.29658000  0.14059600  0.31751400  1
  Zn  Zn115  1  0.18123600  0.01503400  0.31922100  1
  Zn  Zn116  1  0.89375400  0.27246100  0.31411200  1
  Zn  Zn117  1  0.08237900  0.96560500  0.36865000  1
  Zn  Zn118  1  0.57957300  0.96974100  0.36887000  1
  Zn  Zn119  1  0.55411600  0.14552600  0.35501000  1
  Zn  Zn120  1  0.29541800  0.21775500  0.36446400  1
  Zn  Zn121  1  0.67851300  0.01921000  0.31940000  1
  Zn  Zn122  1  0.23749500  0.36874800  0.34166700  1
  Zn  Zn123  1  0.63367600  0.27706700  0.31373800  1
  Zn  Zn124  1  0.44131500  0.01042800  0.31959500  1
  Zn  Zn125  1  0.77841100  0.14689900  0.31581900  1
  Zn  Zn126  1  0.93749500  0.71874800  0.49166700  1
  Zn  Zn127  1  0.55375200  0.23331300  0.51035500  1
  Zn  Zn128  1  0.72087400  0.49196900  0.42832400  1
  Zn  Zn129  1  0.13753600  0.36756100  0.47007400  1
  Zn  Zn130  1  0.33745500  0.61993400  0.46325900  1
  Zn  Zn131  1  0.59647800  0.61828500  0.46393400  1
  Zn  Zn132  1  0.19261200  0.67189000  0.41468300  1
  Zn  Zn133  1  0.92123900  0.75418300  0.42297800  1
  Zn  Zn134  1  0.49658000  0.49059600  0.46751400  1
  Zn  Zn135  1  0.38123600  0.36503400  0.46922100  1
  Zn  Zn136  1  0.09375400  0.62246100  0.46411200  1
  Zn  Zn137  1  0.48237900  0.41560500  0.41865000  1
  Zn  Zn138  1  0.97957300  0.41974100  0.41887000  1
  Zn  Zn139  1  0.75411600  0.49552600  0.50501000  1
  Zn  Zn140  1  0.69541800  0.66775500  0.41446400  1
  Zn  Zn141  1  0.87851300  0.36921000  0.46940000  1
  Zn  Zn142  1  0.43749500  0.71874800  0.49166700  1
  Zn  Zn143  1  0.83367600  0.62706700  0.46373800  1
  Zn  Zn144  1  0.64131500  0.36042800  0.46959500  1
  Zn  Zn145  1  0.97841100  0.49689900  0.46581900  1
  Zn  Zn146  1  0.53749500  0.26874800  0.44166700  1
  Zn  Zn147  1  0.15375200  0.78331300  0.46035500  1
  Zn  Zn148  1  0.12087400  0.94196900  0.47832400  1
  Zn  Zn149  1  0.73753600  0.91756100  0.42007400  1
  Zn  Zn150  1  0.93745500  0.16993400  0.41325900  1
  Zn  Zn151  1  0.19647800  0.16828500  0.41393400  1
  Zn  Zn152  1  0.59261200  0.12189000  0.46468300  1
  Zn  Zn153  1  0.32123900  0.20418300  0.47297800  1
  Zn  Zn154  1  0.09658000  0.04059600  0.41751400  1
  Zn  Zn155  1  0.98123600  0.91503400  0.41922100  1
  Zn  Zn156  1  0.69375400  0.17246100  0.41411200  1
  Zn  Zn157  1  0.88237900  0.86560500  0.46865000  1
  Zn  Zn158  1  0.37957300  0.86974100  0.46887000  1
  Zn  Zn159  1  0.35411600  0.04552600  0.45501000  1
  Zn  Zn160  1  0.09541800  0.11775500  0.46446400  1
  Zn  Zn161  1  0.47851300  0.91921000  0.41940000  1
  Zn  Zn162  1  0.03749500  0.26874800  0.44166700  1
  Zn  Zn163  1  0.43367600  0.17706700  0.41373800  1
  Zn  Zn164  1  0.24131500  0.91042800  0.41959500  1
  Zn  Zn165  1  0.57841100  0.04689900  0.41581900  1
  Zn  Zn166  1  0.73749500  0.61874800  0.59166700  1
  Zn  Zn167  1  0.35375200  0.13331300  0.61035500  1
  Zn  Zn168  1  0.52087400  0.39196900  0.52832400  1
  Zn  Zn169  1  0.93753600  0.26756100  0.57007400  1
  Zn  Zn170  1  0.13745500  0.51993400  0.56325900  1
  Zn  Zn171  1  0.39647800  0.51828500  0.56393400  1
  Zn  Zn172  1  0.99261200  0.57189000  0.51468300  1
  Zn  Zn173  1  0.72123900  0.65418300  0.52297800  1
  Zn  Zn174  1  0.29658000  0.39059600  0.56751400  1
  Zn  Zn175  1  0.18123600  0.26503400  0.56922100  1
  Zn  Zn176  1  0.89375400  0.52246100  0.56411200  1
  Zn  Zn177  1  0.28237900  0.31560500  0.51865000  1
  Zn  Zn178  1  0.77957300  0.31974100  0.51887000  1
  Zn  Zn179  1  0.55411600  0.39552600  0.60501000  1
  Zn  Zn180  1  0.49541800  0.56775500  0.51446400  1
  Zn  Zn181  1  0.67851300  0.26921000  0.56940000  1
  Zn  Zn182  1  0.23749500  0.61874800  0.59166700  1
  Zn  Zn183  1  0.63367600  0.52706700  0.56373800  1
  Zn  Zn184  1  0.44131500  0.26042800  0.56959500  1
  Zn  Zn185  1  0.77841100  0.39689900  0.56581900  1
  Zn  Zn186  1  0.33749500  0.16874800  0.54166700  1
  Zn  Zn187  1  0.95375200  0.68331300  0.56035500  1
  Zn  Zn188  1  0.92087400  0.84196900  0.57832400  1
  Zn  Zn189  1  0.53753600  0.81756100  0.52007400  1
  Zn  Zn190  1  0.73745500  0.06993400  0.51325900  1
  Zn  Zn191  1  0.99647800  0.06828500  0.51393400  1
  Zn  Zn192  1  0.39261200  0.02189000  0.56468300  1
  Zn  Zn193  1  0.12123900  0.10418300  0.57297800  1
  Zn  Zn194  1  0.89658000  0.94059600  0.51751400  1
  Zn  Zn195  1  0.78123600  0.81503400  0.51922100  1
  Zn  Zn196  1  0.49375400  0.07246100  0.51411200  1
  Zn  Zn197  1  0.68237900  0.76560500  0.56865000  1
  Zn  Zn198  1  0.17957300  0.76974100  0.56887000  1
  Zn  Zn199  1  0.15411600  0.94552600  0.55501000  1
  Zn  Zn200  1  0.89541800  0.01775500  0.56446400  1
  Zn  Zn201  1  0.27851300  0.81921000  0.51940000  1
  Zn  Zn202  1  0.83749500  0.16874800  0.54166700  1
  Zn  Zn203  1  0.23367600  0.07706700  0.51373800  1
  Zn  Zn204  1  0.04131500  0.81042800  0.51959500  1
  Zn  Zn205  1  0.37841100  0.94689900  0.51581900  1
  Zn  Zn206  1  0.53749500  0.51874800  0.69166700  1
  Zn  Zn207  1  0.15375200  0.03331300  0.71035500  1
  Zn  Zn208  1  0.32087400  0.29196900  0.62832400  1
  Zn  Zn209  1  0.73753600  0.16756100  0.67007400  1
  Zn  Zn210  1  0.93745500  0.41993400  0.66325900  1
  Zn  Zn211  1  0.19647800  0.41828500  0.66393400  1
  Zn  Zn212  1  0.79261200  0.47189000  0.61468300  1
  Zn  Zn213  1  0.52123900  0.55418300  0.62297800  1
  Zn  Zn214  1  0.09658000  0.29059600  0.66751400  1
  Zn  Zn215  1  0.98123600  0.16503400  0.66922100  1
  Zn  Zn216  1  0.69375400  0.42246100  0.66411200  1
  Zn  Zn217  1  0.08237900  0.21560500  0.61865000  1
  Zn  Zn218  1  0.57957300  0.21974100  0.61887000  1
  Zn  Zn219  1  0.35411600  0.29552600  0.70501000  1
  Zn  Zn220  1  0.29541800  0.46775500  0.61446400  1
  Zn  Zn221  1  0.47851300  0.16921000  0.66940000  1
  Zn  Zn222  1  0.03749500  0.51874800  0.69166700  1
  Zn  Zn223  1  0.43367600  0.42706700  0.66373800  1
  Zn  Zn224  1  0.24131500  0.16042800  0.66959500  1
  Zn  Zn225  1  0.57841100  0.29689900  0.66581900  1
  Zn  Zn226  1  0.13749500  0.06874800  0.64166700  1
  Zn  Zn227  1  0.75375200  0.58331300  0.66035500  1
  Zn  Zn228  1  0.72087400  0.74196900  0.67832400  1
  Zn  Zn229  1  0.33753600  0.71756100  0.62007400  1
  Zn  Zn230  1  0.53745500  0.96993400  0.61325900  1
  Zn  Zn231  1  0.79647800  0.96828500  0.61393400  1
  Zn  Zn232  1  0.19261200  0.92189000  0.66468300  1
  Zn  Zn233  1  0.92123900  0.00418300  0.67297800  1
  Zn  Zn234  1  0.69658000  0.84059600  0.61751400  1
  Zn  Zn235  1  0.58123600  0.71503400  0.61922100  1
  Zn  Zn236  1  0.29375400  0.97246100  0.61411200  1
  Zn  Zn237  1  0.48237900  0.66560500  0.66865000  1
  Zn  Zn238  1  0.97957300  0.66974100  0.66887000  1
  Zn  Zn239  1  0.95411600  0.84552600  0.65501000  1
  Zn  Zn240  1  0.69541800  0.91775500  0.66446400  1
  Zn  Zn241  1  0.07851300  0.71921000  0.61940000  1
  Zn  Zn242  1  0.63749500  0.06874800  0.64166700  1
  Zn  Zn243  1  0.03367600  0.97706700  0.61373800  1
  Zn  Zn244  1  0.84131500  0.71042800  0.61959500  1
  Zn  Zn245  1  0.17841100  0.84689900  0.61581900  1
  Zn  Zn246  1  0.12087400  0.19196900  0.72832400  1
  Zn  Zn247  1  0.53753600  0.06756100  0.77007400  1
  Zn  Zn248  1  0.73745500  0.31993400  0.76325900  1
  Zn  Zn249  1  0.99647800  0.31828500  0.76393400  1
  Zn  Zn250  1  0.59261200  0.37189000  0.71468300  1
  Zn  Zn251  1  0.32123900  0.45418300  0.72297800  1
  Zn  Zn252  1  0.89658000  0.19059600  0.76751400  1
  Zn  Zn253  1  0.78123600  0.06503400  0.76922100  1
  Zn  Zn254  1  0.49375400  0.32246100  0.76411200  1
  Zn  Zn255  1  0.88237900  0.11560500  0.71865000  1
  Zn  Zn256  1  0.37957300  0.11974100  0.71887000  1
  Zn  Zn257  1  0.09541800  0.36775500  0.71446400  1
  Zn  Zn258  1  0.27851300  0.06921000  0.76940000  1
  Zn  Zn259  1  0.23367600  0.32706700  0.76373800  1
  Zn  Zn260  1  0.04131500  0.06042800  0.76959500  1
  Zn  Zn261  1  0.37841100  0.19689900  0.76581900  1
  Zn  Zn262  1  0.93749500  0.96874800  0.74166700  1
  Zn  Zn263  1  0.55375200  0.48331300  0.76035500  1
  Zn  Zn264  1  0.13753600  0.61756100  0.72007400  1
  Zn  Zn265  1  0.33745500  0.86993400  0.71325900  1
  Zn  Zn266  1  0.59647800  0.86828500  0.71393400  1
  Zn  Zn267  1  0.99261200  0.82189000  0.76468300  1
  Zn  Zn268  1  0.49658000  0.74059600  0.71751400  1
  Zn  Zn269  1  0.38123600  0.61503400  0.71922100  1
  Zn  Zn270  1  0.09375400  0.87246100  0.71411200  1
  Zn  Zn271  1  0.28237900  0.56560500  0.76865000  1
  Zn  Zn272  1  0.77957300  0.56974100  0.76887000  1
  Zn  Zn273  1  0.75411600  0.74552600  0.75501000  1
  Zn  Zn274  1  0.49541800  0.81775500  0.76446400  1
  Zn  Zn275  1  0.87851300  0.61921000  0.71940000  1
  Zn  Zn276  1  0.43749500  0.96874800  0.74166700  1
  Zn  Zn277  1  0.83367600  0.87706700  0.71373800  1
  Zn  Zn278  1  0.64131500  0.61042800  0.71959500  1
  Zn  Zn279  1  0.97841100  0.74689900  0.71581900  1
