# generated using pymatgen
data_Y3Mg
_symmetry_space_group_name_H-M   'P 1'
_cell_length_a   6.70208063
_cell_length_b   12.11301270
_cell_length_c   42.48269200
_cell_angle_alpha   90.00569977
_cell_angle_beta   92.24183417
_cell_angle_gamma   79.58374478
_symmetry_Int_Tables_number   1
_chemical_formula_structural   Y3Mg
_chemical_formula_sum   'Y54 Mg18'
_cell_volume   3389.32864690
_cell_formula_units_Z   18
loop_
 _symmetry_equiv_pos_site_id
 _symmetry_equiv_pos_as_xyz
  1  'x, y, z'
loop_
 _atom_site_type_symbol
 _atom_site_label
 _atom_site_symmetry_multiplicity
 _atom_site_fract_x
 _atom_site_fract_y
 _atom_site_fract_z
 _atom_site_occupancy
  Y  Y0  1  0.28571400  0.94642900  0.23214300  1
  Y  Y1  1  0.86397300  0.19208800  0.21257800  1
  Y  Y2  1  0.35031300  0.23648400  0.21599300  1
  Y  Y3  1  0.92857100  0.48214300  0.19642900  1
  Y  Y4  1  0.22111600  0.65637300  0.24829200  1
  Y  Y5  1  0.99317000  0.77219800  0.18027900  1
  Y  Y6  1  0.00000000  0.87500000  0.30357100  1
  Y  Y7  1  0.57825900  0.12065900  0.28400700  1
  Y  Y8  1  0.06459800  0.16505500  0.28742200  1
  Y  Y9  1  0.64285700  0.41071400  0.26785700  1
  Y  Y10  1  0.93540200  0.58494500  0.31972100  1
  Y  Y11  1  0.70745600  0.70077000  0.25170800  1
  Y  Y12  1  0.71428600  0.80357100  0.37500000  1
  Y  Y13  1  0.29254400  0.04923000  0.35543500  1
  Y  Y14  1  0.77888400  0.09362700  0.35885000  1
  Y  Y15  1  0.35714300  0.33928600  0.33928600  1
  Y  Y16  1  0.64968700  0.51351600  0.39115000  1
  Y  Y17  1  0.42174100  0.62934100  0.32313600  1
  Y  Y18  1  0.42857100  0.73214300  0.44642900  1
  Y  Y19  1  0.00683000  0.97780200  0.42686400  1
  Y  Y20  1  0.49317000  0.02219800  0.43027900  1
  Y  Y21  1  0.07142900  0.26785700  0.41071400  1
  Y  Y22  1  0.36397300  0.44208800  0.46257800  1
  Y  Y23  1  0.13602700  0.55791200  0.39456500  1
  Y  Y24  1  0.14285700  0.66071400  0.51785700  1
  Y  Y25  1  0.72111600  0.90637300  0.49829200  1
  Y  Y26  1  0.20745600  0.95077000  0.50170800  1
  Y  Y27  1  0.78571400  0.19642900  0.48214300  1
  Y  Y28  1  0.07825900  0.37065900  0.53400700  1
  Y  Y29  1  0.85031300  0.48648400  0.46599300  1
  Y  Y30  1  0.85714300  0.58928600  0.58928600  1
  Y  Y31  1  0.43540200  0.83494500  0.56972100  1
  Y  Y32  1  0.92174100  0.87934100  0.57313600  1
  Y  Y33  1  0.50000000  0.12500000  0.55357100  1
  Y  Y34  1  0.79254400  0.29923000  0.60543500  1
  Y  Y35  1  0.56459800  0.41505500  0.53742200  1
  Y  Y36  1  0.57142900  0.51785700  0.66071400  1
  Y  Y37  1  0.14968700  0.76351600  0.64115000  1
  Y  Y38  1  0.63602700  0.80791200  0.64456500  1
  Y  Y39  1  0.21428600  0.05357100  0.62500000  1
  Y  Y40  1  0.50683000  0.22780200  0.67686400  1
  Y  Y41  1  0.27888400  0.34362700  0.60885000  1
  Y  Y42  1  0.28571400  0.44642900  0.73214300  1
  Y  Y43  1  0.86397300  0.69208800  0.71257800  1
  Y  Y44  1  0.35031300  0.73648400  0.71599300  1
  Y  Y45  1  0.92857100  0.98214300  0.69642900  1
  Y  Y46  1  0.22111600  0.15637300  0.74829200  1
  Y  Y47  1  0.99317000  0.27219800  0.68027900  1
  Y  Y48  1  1.00000000  0.37500000  0.80357100  1
  Y  Y49  1  0.57825900  0.62065900  0.78400700  1
  Y  Y50  1  0.06459800  0.66505500  0.78742200  1
  Y  Y51  1  0.64285700  0.91071400  0.76785700  1
  Y  Y52  1  0.93540200  0.08494500  0.81972100  1
  Y  Y53  1  0.70745600  0.20077000  0.75170800  1
  Mg  Mg54  1  0.78571400  0.94642900  0.23214300  1
  Mg  Mg55  1  0.42857100  0.48214300  0.19642900  1
  Mg  Mg56  1  0.50000000  0.87500000  0.30357100  1
  Mg  Mg57  1  0.14285700  0.41071400  0.26785700  1
  Mg  Mg58  1  0.21428600  0.80357100  0.37500000  1
  Mg  Mg59  1  0.85714300  0.33928600  0.33928600  1
  Mg  Mg60  1  0.92857100  0.73214300  0.44642900  1
  Mg  Mg61  1  0.57142900  0.26785700  0.41071400  1
  Mg  Mg62  1  0.64285700  0.66071400  0.51785700  1
  Mg  Mg63  1  0.28571400  0.19642900  0.48214300  1
  Mg  Mg64  1  0.35714300  0.58928600  0.58928600  1
  Mg  Mg65  1  0.00000000  0.12500000  0.55357100  1
  Mg  Mg66  1  0.07142900  0.51785700  0.66071400  1
  Mg  Mg67  1  0.71428600  0.05357100  0.62500000  1
  Mg  Mg68  1  0.78571400  0.44642900  0.73214300  1
  Mg  Mg69  1  0.42857100  0.98214300  0.69642900  1
  Mg  Mg70  1  0.50000000  0.37500000  0.80357100  1
  Mg  Mg71  1  0.14285700  0.91071400  0.76785700  1
