# generated using pymatgen
data_Y23Mg7
_symmetry_space_group_name_H-M   'P 1'
_cell_length_a   6.65141580
_cell_length_b   6.65141578
_cell_length_c   40.89904200
_cell_angle_alpha   91.17297408
_cell_angle_beta   91.17297408
_cell_angle_gamma   119.49541656
_symmetry_Int_Tables_number   1
_chemical_formula_structural   Y23Mg7
_chemical_formula_sum   'Y23 Mg7'
_cell_volume   1573.61671153
_cell_formula_units_Z   1
loop_
 _symmetry_equiv_pos_site_id
 _symmetry_equiv_pos_as_xyz
  1  'x, y, z'
loop_
 _atom_site_type_symbol
 _atom_site_label
 _atom_site_symmetry_multiplicity
 _atom_site_fract_x
 _atom_site_fract_y
 _atom_site_fract_z
 _atom_site_occupancy
  Y  Y0  1  0.73076900  0.73076900  0.75000000  1
  Y  Y1  1  0.85082900  0.30301700  0.78846200  1
  Y  Y2  1  0.30301700  0.85082900  0.78846200  1
  Y  Y3  1  0.03846200  0.03846200  0.67307700  1
  Y  Y4  1  0.15852100  0.61071000  0.71153800  1
  Y  Y5  1  0.61071000  0.15852100  0.71153800  1
  Y  Y6  1  0.34615400  0.34615400  0.59615400  1
  Y  Y7  1  0.46621300  0.91840200  0.63461500  1
  Y  Y8  1  0.91840200  0.46621300  0.63461500  1
  Y  Y9  1  0.65384600  0.65384600  0.51923100  1
  Y  Y10  1  0.77390600  0.22609400  0.55769200  1
  Y  Y11  1  0.22609400  0.77390600  0.55769200  1
  Y  Y12  1  0.96153800  0.96153800  0.44230800  1
  Y  Y13  1  0.08159800  0.53378700  0.48076900  1
  Y  Y14  1  0.53378700  0.08159800  0.48076900  1
  Y  Y15  1  0.26923100  0.26923100  0.36538500  1
  Y  Y16  1  0.38929000  0.84147900  0.40384600  1
  Y  Y17  1  0.84147900  0.38929000  0.40384600  1
  Y  Y18  1  0.57692300  0.57692300  0.28846200  1
  Y  Y19  1  0.69698300  0.14917100  0.32692300  1
  Y  Y20  1  0.14917100  0.69698300  0.32692300  1
  Y  Y21  1  0.00467500  0.45686400  0.25000000  1
  Y  Y22  1  0.45686400  0.00467500  0.25000000  1
  Mg  Mg23  1  0.23076900  0.23076900  0.75000000  1
  Mg  Mg24  1  0.53846200  0.53846200  0.67307700  1
  Mg  Mg25  1  0.84615400  0.84615400  0.59615400  1
  Mg  Mg26  1  0.15384600  0.15384600  0.51923100  1
  Mg  Mg27  1  0.46153800  0.46153800  0.44230800  1
  Mg  Mg28  1  0.76923100  0.76923100  0.36538500  1
  Mg  Mg29  1  0.07692300  0.07692300  0.28846200  1
