# generated using pymatgen
data_Mg3Se7
_symmetry_space_group_name_H-M   'P 1'
_cell_length_a   9.22042958
_cell_length_b   9.22042937
_cell_length_c   41.74727100
_cell_angle_alpha   83.65980880
_cell_angle_beta   83.65980894
_cell_angle_gamma   60.00000207
_symmetry_Int_Tables_number   1
_chemical_formula_structural   Mg3Se7
_chemical_formula_sum   'Mg24 Se56'
_cell_volume   3048.60503768
_cell_formula_units_Z   8
loop_
 _symmetry_equiv_pos_site_id
 _symmetry_equiv_pos_as_xyz
  1  'x, y, z'
loop_
 _atom_site_type_symbol
 _atom_site_label
 _atom_site_symmetry_multiplicity
 _atom_site_fract_x
 _atom_site_fract_y
 _atom_site_fract_z
 _atom_site_occupancy
  Mg  Mg0  1  0.16918800  0.66918800  0.25757600  1
  Mg  Mg1  1  0.66918800  0.16918800  0.25757600  1
  Mg  Mg2  1  0.16918800  0.16918800  0.25757600  1
  Mg  Mg3  1  0.66918800  0.66918800  0.25757600  1
  Mg  Mg4  1  0.80555100  0.30555100  0.34848500  1
  Mg  Mg5  1  0.30555100  0.80555100  0.34848500  1
  Mg  Mg6  1  0.80555100  0.80555100  0.34848500  1
  Mg  Mg7  1  0.30555100  0.30555100  0.34848500  1
  Mg  Mg8  1  0.44191500  0.94191500  0.43939400  1
  Mg  Mg9  1  0.94191500  0.44191500  0.43939400  1
  Mg  Mg10  1  0.44191500  0.44191500  0.43939400  1
  Mg  Mg11  1  0.94191500  0.94191500  0.43939400  1
  Mg  Mg12  1  0.07827900  0.57827900  0.53030300  1
  Mg  Mg13  1  0.57827900  0.07827900  0.53030300  1
  Mg  Mg14  1  0.07827900  0.07827900  0.53030300  1
  Mg  Mg15  1  0.57827900  0.57827900  0.53030300  1
  Mg  Mg16  1  0.71464200  0.21464200  0.62121200  1
  Mg  Mg17  1  0.21464200  0.71464200  0.62121200  1
  Mg  Mg18  1  0.71464200  0.71464200  0.62121200  1
  Mg  Mg19  1  0.21464200  0.21464200  0.62121200  1
  Mg  Mg20  1  0.35100600  0.85100600  0.71212100  1
  Mg  Mg21  1  0.85100600  0.35100600  0.71212100  1
  Mg  Mg22  1  0.35100600  0.35100600  0.71212100  1
  Mg  Mg23  1  0.85100600  0.85100600  0.71212100  1
  Se  Se24  1  0.78324000  0.28324000  0.20244000  1
  Se  Se25  1  0.28324000  0.99621800  0.20244000  1
  Se  Se26  1  0.99621800  0.78324000  0.20244000  1
  Se  Se27  1  0.34132500  0.34132500  0.24116400  1
  Se  Se28  1  0.91877200  0.41877200  0.22180200  1
  Se  Se29  1  0.41877200  0.70579400  0.22180200  1
  Se  Se30  1  0.70579400  0.91877200  0.22180200  1
  Se  Se31  1  0.36068700  0.36068700  0.18307900  1
  Se  Se32  1  0.41960400  0.91960400  0.29334900  1
  Se  Se33  1  0.91960400  0.63258200  0.29334900  1
  Se  Se34  1  0.63258200  0.41960400  0.29334900  1
  Se  Se35  1  0.97768900  0.97768900  0.33207300  1
  Se  Se36  1  0.55513500  0.05513500  0.31271100  1
  Se  Se37  1  0.05513500  0.34215700  0.31271100  1
  Se  Se38  1  0.34215700  0.55513500  0.31271100  1
  Se  Se39  1  0.99705000  0.99705000  0.27398800  1
  Se  Se40  1  0.05596800  0.55596800  0.38425900  1
  Se  Se41  1  0.55596800  0.26894600  0.38425900  1
  Se  Se42  1  0.26894600  0.05596800  0.38425900  1
  Se  Se43  1  0.61405200  0.61405200  0.42298200  1
  Se  Se44  1  0.19149900  0.69149900  0.40362000  1
  Se  Se45  1  0.69149900  0.97852100  0.40362000  1
  Se  Se46  1  0.97852100  0.19149900  0.40362000  1
  Se  Se47  1  0.63341400  0.63341400  0.36489700  1
  Se  Se48  1  0.69233100  0.19233100  0.47516800  1
  Se  Se49  1  0.19233100  0.90530900  0.47516800  1
  Se  Se50  1  0.90530900  0.69233100  0.47516800  1
  Se  Se51  1  0.25041600  0.25041600  0.51389100  1
  Se  Se52  1  0.82786300  0.32786300  0.49452900  1
  Se  Se53  1  0.32786300  0.61488500  0.49452900  1
  Se  Se54  1  0.61488500  0.82786300  0.49452900  1
  Se  Se55  1  0.26977800  0.26977800  0.45580600  1
  Se  Se56  1  0.32869500  0.82869500  0.56607700  1
  Se  Se57  1  0.82869500  0.54167300  0.56607700  1
  Se  Se58  1  0.54167300  0.32869500  0.56607700  1
  Se  Se59  1  0.88678000  0.88678000  0.60480000  1
  Se  Se60  1  0.46422600  0.96422600  0.58543800  1
  Se  Se61  1  0.96422600  0.25124800  0.58543800  1
  Se  Se62  1  0.25124800  0.46422600  0.58543800  1
  Se  Se63  1  0.90614100  0.90614100  0.54671500  1
  Se  Se64  1  0.96505800  0.46505800  0.65698600  1
  Se  Se65  1  0.46505800  0.17803600  0.65698600  1
  Se  Se66  1  0.17803600  0.96505800  0.65698600  1
  Se  Se67  1  0.52314300  0.52314300  0.69570900  1
  Se  Se68  1  0.10059000  0.60059000  0.67634700  1
  Se  Se69  1  0.60059000  0.88761200  0.67634700  1
  Se  Se70  1  0.88761200  0.10059000  0.67634700  1
  Se  Se71  1  0.54250500  0.54250500  0.63762400  1
  Se  Se72  1  0.60142200  0.10142200  0.74789500  1
  Se  Se73  1  0.10142200  0.81440000  0.74789500  1
  Se  Se74  1  0.81440000  0.60142200  0.74789500  1
  Se  Se75  1  0.15950700  0.15950700  0.78661800  1
  Se  Se76  1  0.73695400  0.23695400  0.76725700  1
  Se  Se77  1  0.23695400  0.52397600  0.76725700  1
  Se  Se78  1  0.52397600  0.73695400  0.76725700  1
  Se  Se79  1  0.17886900  0.17886900  0.72853300  1
