# generated using pymatgen
data_CaMg3
_symmetry_space_group_name_H-M   'P 1'
_cell_length_a   6.85063189
_cell_length_b   8.66046516
_cell_length_c   43.61539000
_cell_angle_alpha   92.92720358
_cell_angle_beta   94.50433414
_cell_angle_gamma   66.70210760
_symmetry_Int_Tables_number   1
_chemical_formula_structural   CaMg3
_chemical_formula_sum   'Ca14 Mg42'
_cell_volume   2368.78240900
_cell_formula_units_Z   14
loop_
 _symmetry_equiv_pos_site_id
 _symmetry_equiv_pos_as_xyz
  1  'x, y, z'
loop_
 _atom_site_type_symbol
 _atom_site_label
 _atom_site_symmetry_multiplicity
 _atom_site_fract_x
 _atom_site_fract_y
 _atom_site_fract_z
 _atom_site_occupancy
  Ca  Ca0  1  0.16666700  0.75000000  0.26515200  1
  Ca  Ca1  1  0.65151500  0.70454500  0.18939400  1
  Ca  Ca2  1  0.98484800  0.20454500  0.35606100  1
  Ca  Ca3  1  0.46969700  0.15909100  0.28030300  1
  Ca  Ca4  1  0.80303000  0.65909100  0.44697000  1
  Ca  Ca5  1  0.28787900  0.61363600  0.37121200  1
  Ca  Ca6  1  0.62121200  0.11363600  0.53787900  1
  Ca  Ca7  1  0.10606100  0.06818200  0.46212100  1
  Ca  Ca8  1  0.43939400  0.56818200  0.62878800  1
  Ca  Ca9  1  0.92424200  0.52272700  0.55303000  1
  Ca  Ca10  1  0.25757600  0.02272700  0.71969700  1
  Ca  Ca11  1  0.74242400  0.97727300  0.64393900  1
  Ca  Ca12  1  0.07575800  0.47727300  0.81060600  1
  Ca  Ca13  1  0.56060600  0.43181800  0.73484800  1
  Mg  Mg14  1  0.24661900  0.02601400  0.21914900  1
  Mg  Mg15  1  0.67050200  0.74342600  0.26624700  1
  Mg  Mg16  1  0.76469800  0.02601400  0.21914900  1
  Mg  Mg17  1  0.05348400  0.42853100  0.23539600  1
  Mg  Mg18  1  0.57156300  0.42853100  0.23539600  1
  Mg  Mg19  1  0.14768000  0.71112000  0.18829800  1
  Mg  Mg20  1  0.06480000  0.48056000  0.31005800  1
  Mg  Mg21  1  0.48868300  0.19797100  0.35715600  1
  Mg  Mg22  1  0.58288000  0.48056000  0.31005800  1
  Mg  Mg23  1  0.87166600  0.88307700  0.32630500  1
  Mg  Mg24  1  0.38974500  0.88307700  0.32630500  1
  Mg  Mg25  1  0.96586200  0.16566500  0.27920700  1
  Mg  Mg26  1  0.88298200  0.93510500  0.40096700  1
  Mg  Mg27  1  0.30686500  0.65251700  0.44806500  1
  Mg  Mg28  1  0.40106100  0.93510500  0.40096700  1
  Mg  Mg29  1  0.68984800  0.33762200  0.41721500  1
  Mg  Mg30  1  0.20792700  0.33762200  0.41721500  1
  Mg  Mg31  1  0.78404400  0.62021100  0.37011600  1
  Mg  Mg32  1  0.70116400  0.38965100  0.49187600  1
  Mg  Mg33  1  0.12504700  0.10706200  0.53897400  1
  Mg  Mg34  1  0.21924300  0.38965100  0.49187600  1
  Mg  Mg35  1  0.50802900  0.79216700  0.50812400  1
  Mg  Mg36  1  0.02610900  0.79216700  0.50812400  1
  Mg  Mg37  1  0.60222600  0.07475600  0.46102600  1
  Mg  Mg38  1  0.51934600  0.84419600  0.58278500  1
  Mg  Mg39  1  0.94322900  0.56160800  0.62988400  1
  Mg  Mg40  1  0.03742500  0.84419600  0.58278500  1
  Mg  Mg41  1  0.32621100  0.24671300  0.59903300  1
  Mg  Mg42  1  0.84429000  0.24671300  0.59903300  1
  Mg  Mg43  1  0.42040700  0.52930200  0.55193500  1
  Mg  Mg44  1  0.33752800  0.29874200  0.67369500  1
  Mg  Mg45  1  0.76141100  0.01615300  0.72079300  1
  Mg  Mg46  1  0.85560700  0.29874200  0.67369500  1
  Mg  Mg47  1  0.14439300  0.70125800  0.68994200  1
  Mg  Mg48  1  0.66247200  0.70125800  0.68994200  1
  Mg  Mg49  1  0.23858900  0.98384700  0.64284400  1
  Mg  Mg50  1  0.15571000  0.75328700  0.76460400  1
  Mg  Mg51  1  0.57959300  0.47069800  0.81170200  1
  Mg  Mg52  1  0.67378900  0.75328700  0.76460400  1
  Mg  Mg53  1  0.96257500  0.15580400  0.78085100  1
  Mg  Mg54  1  0.48065400  0.15580400  0.78085100  1
  Mg  Mg55  1  0.05677100  0.43839200  0.73375300  1
