# generated using pymatgen
data_Mg9Hg4
_symmetry_space_group_name_H-M   'P 1'
_cell_length_a   4.75496500
_cell_length_b   6.40514000
_cell_length_c   43.06560200
_cell_angle_alpha   90.00000000
_cell_angle_beta   90.00000000
_cell_angle_gamma   90.00000000
_symmetry_Int_Tables_number   1
_chemical_formula_structural   Mg9Hg4
_chemical_formula_sum   'Mg18 Hg8'
_cell_volume   1311.61529908
_cell_formula_units_Z   2
loop_
 _symmetry_equiv_pos_site_id
 _symmetry_equiv_pos_as_xyz
  1  'x, y, z'
loop_
 _atom_site_type_symbol
 _atom_site_label
 _atom_site_symmetry_multiplicity
 _atom_site_fract_x
 _atom_site_fract_y
 _atom_site_fract_z
 _atom_site_occupancy
  Mg  Mg0  1  0.75000000  0.17749800  0.39572900  1
  Mg  Mg1  1  0.25000000  0.82250200  0.37093700  1
  Mg  Mg2  1  0.25000000  0.46739600  0.42562500  1
  Mg  Mg3  1  0.75000000  0.53260400  0.54104200  1
  Mg  Mg4  1  0.25000000  0.96739600  0.44104200  1
  Mg  Mg5  1  0.75000000  0.03260400  0.52562500  1
  Mg  Mg6  1  0.75000000  0.67749800  0.47093700  1
  Mg  Mg7  1  0.25000000  0.32250200  0.49572900  1
  Mg  Mg8  1  0.75000000  0.17749800  0.59572900  1
  Mg  Mg9  1  0.25000000  0.82250200  0.57093700  1
  Mg  Mg10  1  0.25000000  0.46739600  0.62562500  1
  Mg  Mg11  1  0.75000000  0.53260400  0.74104200  1
  Mg  Mg12  1  0.25000000  0.96739600  0.64104200  1
  Mg  Mg13  1  0.75000000  0.03260400  0.72562500  1
  Mg  Mg14  1  0.75000000  0.67749800  0.67093700  1
  Mg  Mg15  1  0.25000000  0.32250200  0.69572900  1
  Mg  Mg16  1  0.75000000  0.17749800  0.79572900  1
  Mg  Mg17  1  0.25000000  0.82250200  0.77093700  1
  Hg  Hg18  1  0.25000000  0.27973800  0.56164100  1
  Hg  Hg19  1  0.75000000  0.72026200  0.40502600  1
  Hg  Hg20  1  0.25000000  0.77973800  0.50502600  1
  Hg  Hg21  1  0.75000000  0.22026200  0.46164100  1
  Hg  Hg22  1  0.25000000  0.27973800  0.76164100  1
  Hg  Hg23  1  0.75000000  0.72026200  0.60502600  1
  Hg  Hg24  1  0.25000000  0.77973800  0.70502600  1
  Hg  Hg25  1  0.75000000  0.22026200  0.66164100  1
