# generated using pymatgen
data_Pm2Mg
_symmetry_space_group_name_H-M   'P 1'
_cell_length_a   5.62611600
_cell_length_b   8.90561749
_cell_length_c   44.75229100
_cell_angle_alpha   91.16740536
_cell_angle_beta   90.00000000
_cell_angle_gamma   90.00000000
_symmetry_Int_Tables_number   1
_chemical_formula_structural   Pm2Mg
_chemical_formula_sum   'Pm28 Mg14'
_cell_volume   2241.80503062
_cell_formula_units_Z   14
loop_
 _symmetry_equiv_pos_site_id
 _symmetry_equiv_pos_as_xyz
  1  'x, y, z'
loop_
 _atom_site_type_symbol
 _atom_site_label
 _atom_site_symmetry_multiplicity
 _atom_site_fract_x
 _atom_site_fract_y
 _atom_site_fract_z
 _atom_site_occupancy
  Pm  Pm0  1  0.75000000  0.66431000  0.74265100  1
  Pm  Pm1  1  0.75000000  0.27400800  0.76916000  1
  Pm  Pm2  1  0.25000000  0.00235600  0.75734900  1
  Pm  Pm3  1  0.25000000  0.39265800  0.73084000  1
  Pm  Pm4  1  0.75000000  0.74764400  0.65931800  1
  Pm  Pm5  1  0.75000000  0.35734200  0.68582600  1
  Pm  Pm6  1  0.25000000  0.08569000  0.67401500  1
  Pm  Pm7  1  0.25000000  0.47599200  0.64750700  1
  Pm  Pm8  1  0.75000000  0.83097700  0.57598500  1
  Pm  Pm9  1  0.75000000  0.44067500  0.60249300  1
  Pm  Pm10  1  0.25000000  0.16902300  0.59068200  1
  Pm  Pm11  1  0.25000000  0.55932500  0.56417400  1
  Pm  Pm12  1  0.75000000  0.91431000  0.49265100  1
  Pm  Pm13  1  0.75000000  0.52400800  0.51916000  1
  Pm  Pm14  1  0.25000000  0.25235600  0.50734900  1
  Pm  Pm15  1  0.25000000  0.64265800  0.48084000  1
  Pm  Pm16  1  0.75000000  0.99764400  0.40931800  1
  Pm  Pm17  1  0.75000000  0.60734200  0.43582600  1
  Pm  Pm18  1  0.25000000  0.33569000  0.42401500  1
  Pm  Pm19  1  0.25000000  0.72599200  0.39750700  1
  Pm  Pm20  1  0.75000000  0.08097700  0.32598500  1
  Pm  Pm21  1  0.75000000  0.69067500  0.35249300  1
  Pm  Pm22  1  0.25000000  0.41902300  0.34068200  1
  Pm  Pm23  1  0.25000000  0.80932500  0.31417400  1
  Pm  Pm24  1  0.75000000  0.16431000  0.24265100  1
  Pm  Pm25  1  0.75000000  0.77400800  0.26916000  1
  Pm  Pm26  1  0.25000000  0.50235600  0.25734900  1
  Pm  Pm27  1  0.25000000  0.89265800  0.23084000  1
  Mg  Mg28  1  0.75000000  0.00762800  0.71410000  1
  Mg  Mg29  1  0.25000000  0.65903900  0.78590000  1
  Mg  Mg30  1  0.75000000  0.09096100  0.63076600  1
  Mg  Mg31  1  0.25000000  0.74237200  0.70256700  1
  Mg  Mg32  1  0.75000000  0.17429500  0.54743300  1
  Mg  Mg33  1  0.25000000  0.82570500  0.61923400  1
  Mg  Mg34  1  0.75000000  0.25762800  0.46410000  1
  Mg  Mg35  1  0.25000000  0.90903900  0.53590000  1
  Mg  Mg36  1  0.75000000  0.34096100  0.38076600  1
  Mg  Mg37  1  0.25000000  0.99237200  0.45256700  1
  Mg  Mg38  1  0.75000000  0.42429500  0.29743300  1
  Mg  Mg39  1  0.25000000  0.07570500  0.36923400  1
  Mg  Mg40  1  0.75000000  0.50762800  0.21410000  1
  Mg  Mg41  1  0.25000000  0.15903900  0.28590000  1
