# generated using pymatgen
data_Sm13Mg7
_symmetry_space_group_name_H-M   'P 1'
_cell_length_a   5.59581600
_cell_length_b   8.88868630
_cell_length_c   44.45033100
_cell_angle_alpha   91.04568330
_cell_angle_beta   90.00000000
_cell_angle_gamma   90.00000000
_symmetry_Int_Tables_number   1
_chemical_formula_structural   Sm13Mg7
_chemical_formula_sum   'Sm26 Mg14'
_cell_volume   2210.56694663
_cell_formula_units_Z   2
loop_
 _symmetry_equiv_pos_site_id
 _symmetry_equiv_pos_as_xyz
  1  'x, y, z'
loop_
 _atom_site_type_symbol
 _atom_site_label
 _atom_site_symmetry_multiplicity
 _atom_site_fract_x
 _atom_site_fract_y
 _atom_site_fract_z
 _atom_site_occupancy
  Sm  Sm0  1  0.75000000  0.69144600  0.71478900  1
  Sm  Sm1  1  0.75000000  0.30039300  0.74126500  1
  Sm  Sm2  1  0.25000000  0.03338000  0.72965600  1
  Sm  Sm3  1  0.25000000  0.34109900  0.78651300  1
  Sm  Sm4  1  0.75000000  0.77478000  0.63145600  1
  Sm  Sm5  1  0.75000000  0.38372700  0.65793200  1
  Sm  Sm6  1  0.25000000  0.11671300  0.64632200  1
  Sm  Sm7  1  0.25000000  0.42443200  0.70318000  1
  Sm  Sm8  1  0.75000000  0.85811300  0.54812200  1
  Sm  Sm9  1  0.75000000  0.46706000  0.57459800  1
  Sm  Sm10  1  0.25000000  0.20004600  0.56298900  1
  Sm  Sm11  1  0.25000000  0.50776600  0.61984600  1
  Sm  Sm12  1  0.75000000  0.94144600  0.46478900  1
  Sm  Sm13  1  0.75000000  0.55039300  0.49126500  1
  Sm  Sm14  1  0.25000000  0.28338000  0.47965600  1
  Sm  Sm15  1  0.25000000  0.59109900  0.53651300  1
  Sm  Sm16  1  0.75000000  0.02478000  0.38145600  1
  Sm  Sm17  1  0.75000000  0.63372700  0.40793200  1
  Sm  Sm18  1  0.25000000  0.36671300  0.39632200  1
  Sm  Sm19  1  0.25000000  0.67443200  0.45318000  1
  Sm  Sm20  1  0.75000000  0.10811300  0.29812200  1
  Sm  Sm21  1  0.75000000  0.71706000  0.32459800  1
  Sm  Sm22  1  0.25000000  0.45004600  0.31298900  1
  Sm  Sm23  1  0.25000000  0.75776600  0.36984600  1
  Sm  Sm24  1  0.75000000  0.80039300  0.24126500  1
  Sm  Sm25  1  0.25000000  0.84109900  0.28651300  1
  Mg  Mg26  1  0.75000000  0.95155100  0.76957600  1
  Mg  Mg27  1  0.25000000  0.68994200  0.75820200  1
  Mg  Mg28  1  0.75000000  0.03488400  0.68624300  1
  Mg  Mg29  1  0.25000000  0.77327500  0.67486800  1
  Mg  Mg30  1  0.75000000  0.11821800  0.60290900  1
  Mg  Mg31  1  0.25000000  0.85660800  0.59153500  1
  Mg  Mg32  1  0.75000000  0.20155100  0.51957600  1
  Mg  Mg33  1  0.25000000  0.93994200  0.50820200  1
  Mg  Mg34  1  0.75000000  0.28488400  0.43624300  1
  Mg  Mg35  1  0.25000000  0.02327500  0.42486800  1
  Mg  Mg36  1  0.75000000  0.36821800  0.35290900  1
  Mg  Mg37  1  0.25000000  0.10660800  0.34153500  1
  Mg  Mg38  1  0.75000000  0.45155100  0.26957600  1
  Mg  Mg39  1  0.25000000  0.18994200  0.25820200  1
