# generated using pymatgen
data_Mg78Ir109
_symmetry_space_group_name_H-M   'P 1'
_cell_length_a   5.24707500
_cell_length_b   19.59900374
_cell_length_c   48.70839900
_cell_angle_alpha   93.84872638
_cell_angle_beta   90.00000000
_cell_angle_gamma   90.00000000
_symmetry_Int_Tables_number   1
_chemical_formula_structural   Mg78Ir109
_chemical_formula_sum   'Mg78 Ir109'
_cell_volume   4997.75050797
_cell_formula_units_Z   1
loop_
 _symmetry_equiv_pos_site_id
 _symmetry_equiv_pos_as_xyz
  1  'x, y, z'
loop_
 _atom_site_type_symbol
 _atom_site_label
 _atom_site_symmetry_multiplicity
 _atom_site_fract_x
 _atom_site_fract_y
 _atom_site_fract_z
 _atom_site_occupancy
  Mg  Mg0  1  0.50000000  0.80736800  0.19575400  1
  Mg  Mg1  1  1.00000000  0.72892100  0.17757900  1
  Mg  Mg2  1  0.00000000  0.66916800  0.28312300  1
  Mg  Mg3  1  0.50000000  0.03378800  0.25687700  1
  Mg  Mg4  1  0.50000000  0.87619600  0.25395800  1
  Mg  Mg5  1  0.00000000  0.82676000  0.28604200  1
  Mg  Mg6  1  0.50000000  0.07874600  0.32496900  1
  Mg  Mg7  1  0.00000000  0.62420900  0.21503100  1
  Mg  Mg8  1  0.50000000  0.60757800  0.25506800  1
  Mg  Mg9  1  0.00000000  0.09537700  0.28493200  1
  Mg  Mg10  1  0.00000000  0.39070100  0.27908800  1
  Mg  Mg11  1  0.50000000  0.31225400  0.26091200  1
  Mg  Mg12  1  0.50000000  0.08583400  0.19978900  1
  Mg  Mg13  1  1.00000000  0.45045400  0.17354400  1
  Mg  Mg14  1  0.00000000  0.29286200  0.17062500  1
  Mg  Mg15  1  0.50000000  0.24342600  0.20270900  1
  Mg  Mg16  1  0.00000000  0.49541300  0.24163600  1
  Mg  Mg17  1  0.50000000  0.20754200  0.29836400  1
  Mg  Mg18  1  0.00000000  0.02424500  0.17173500  1
  Mg  Mg19  1  0.50000000  0.51204400  0.20159800  1
  Mg  Mg20  1  0.50000000  0.97403400  0.36242100  1
  Mg  Mg21  1  0.00000000  0.89558800  0.34424600  1
  Mg  Mg22  1  0.00000000  0.83583400  0.44978900  1
  Mg  Mg23  1  0.50000000  0.20045400  0.42354400  1
  Mg  Mg24  1  0.50000000  0.04286200  0.42062500  1
  Mg  Mg25  1  0.00000000  0.99342600  0.45270900  1
  Mg  Mg26  1  0.50000000  0.24541300  0.49163600  1
  Mg  Mg27  1  0.00000000  0.79087600  0.38169800  1
  Mg  Mg28  1  0.50000000  0.77424500  0.42173500  1
  Mg  Mg29  1  0.00000000  0.26204400  0.45159800  1
  Mg  Mg30  1  0.00000000  0.55736800  0.44575400  1
  Mg  Mg31  1  0.50000000  0.47892100  0.42757900  1
  Mg  Mg32  1  0.50000000  0.25250100  0.36645600  1
  Mg  Mg33  1  0.00000000  0.61712100  0.34021100  1
  Mg  Mg34  1  1.00000000  0.45952900  0.33729100  1
  Mg  Mg35  1  0.50000000  0.41009300  0.36937500  1
  Mg  Mg36  1  0.00000000  0.66207900  0.40830200  1
  Mg  Mg37  1  0.50000000  0.37420900  0.46503100  1
  Mg  Mg38  1  1.00000000  0.19091100  0.33840200  1
  Mg  Mg39  1  0.50000000  0.67871100  0.36826500  1
  Mg  Mg40  1  0.50000000  0.14070100  0.52908800  1
  Mg  Mg41  1  0.00000000  0.06225400  0.51091200  1
  Mg  Mg42  1  0.00000000  0.00250100  0.61645600  1
  Mg  Mg43  1  0.50000000  0.36712100  0.59021100  1
  Mg  Mg44  1  0.50000000  0.20952900  0.58729100  1
  Mg  Mg45  1  1.00000000  0.16009300  0.61937500  1
  Mg  Mg46  1  0.50000000  0.41207900  0.65830200  1
  Mg  Mg47  1  0.00000000  0.95754200  0.54836400  1
  Mg  Mg48  1  0.50000000  0.94091100  0.58840200  1
  Mg  Mg49  1  1.00000000  0.42871100  0.61826500  1
  Mg  Mg50  1  0.00000000  0.72403400  0.61242100  1
  Mg  Mg51  1  0.50000000  0.64558800  0.59424600  1
  Mg  Mg52  1  0.50000000  0.41916800  0.53312300  1
  Mg  Mg53  1  1.00000000  0.78378800  0.50687700  1
  Mg  Mg54  1  1.00000000  0.62619600  0.50395800  1
  Mg  Mg55  1  0.50000000  0.57676000  0.53604200  1
  Mg  Mg56  1  0.00000000  0.82874600  0.57496900  1
  Mg  Mg57  1  0.50000000  0.54087600  0.63169800  1
  Mg  Mg58  1  1.00000000  0.35757800  0.50506800  1
  Mg  Mg59  1  0.50000000  0.84537700  0.53493200  1
  Mg  Mg60  1  0.50000000  0.30736800  0.69575400  1
  Mg  Mg61  1  0.00000000  0.22892100  0.67757900  1
  Mg  Mg62  1  1.00000000  0.16916800  0.78312300  1
  Mg  Mg63  1  0.50000000  0.53378800  0.75687700  1
  Mg  Mg64  1  0.50000000  0.37619600  0.75395800  1
  Mg  Mg65  1  0.00000000  0.32676000  0.78604200  1
  Mg  Mg66  1  0.00000000  0.12420900  0.71503100  1
  Mg  Mg67  1  0.50000000  0.10757800  0.75506800  1
  Mg  Mg68  1  0.00000000  0.59537700  0.78493200  1
  Mg  Mg69  1  0.00000000  0.89070100  0.77908800  1
  Mg  Mg70  1  0.50000000  0.81225400  0.76091200  1
  Mg  Mg71  1  0.50000000  0.58583400  0.69978900  1
  Mg  Mg72  1  0.00000000  0.95045400  0.67354400  1
  Mg  Mg73  1  1.00000000  0.79286200  0.67062500  1
  Mg  Mg74  1  0.50000000  0.74342600  0.70270900  1
  Mg  Mg75  1  0.00000000  0.99541300  0.74163600  1
  Mg  Mg76  1  1.00000000  0.52424500  0.67173500  1
  Mg  Mg77  1  0.50000000  0.01204400  0.70159800  1
  Ir  Ir78  1  1.00000000  0.87193000  0.17157400  1
  Ir  Ir79  1  0.50000000  0.66435900  0.20176000  1
  Ir  Ir80  1  0.75048700  0.73801900  0.23859700  1
  Ir  Ir81  1  0.74951300  0.96493700  0.30140300  1
  Ir  Ir82  1  0.25048700  0.96493700  0.30140300  1
  Ir  Ir83  1  0.24951300  0.73801900  0.23859700  1
  Ir  Ir84  1  1.00000000  0.05981100  0.22833300  1
  Ir  Ir85  1  0.50000000  0.86361800  0.31617700  1
  Ir  Ir86  1  1.00000000  0.83933700  0.22382300  1
  Ir  Ir87  1  0.50000000  0.75081500  0.28350900  1
  Ir  Ir88  1  1.00000000  0.95214000  0.25649100  1
  Ir  Ir89  1  0.73393800  0.95015600  0.20944600  1
  Ir  Ir90  1  0.76606200  0.75279900  0.33055400  1
  Ir  Ir91  1  0.23393800  0.75279900  0.33055400  1
  Ir  Ir92  1  0.26606200  0.95015600  0.20944600  1
  Ir  Ir93  1  0.50000000  0.45526300  0.25490700  1
  Ir  Ir94  1  1.00000000  0.24769200  0.28509300  1
  Ir  Ir95  1  0.25048700  0.32135200  0.32193100  1
  Ir  Ir96  1  0.24951300  0.38160300  0.21806900  1
  Ir  Ir97  1  0.75048700  0.38160300  0.21806900  1
  Ir  Ir98  1  0.74951300  0.32135200  0.32193100  1
  Ir  Ir99  1  0.50000000  0.64314400  0.31166700  1
  Ir  Ir100  1  1.00000000  0.28028500  0.23284300  1
  Ir  Ir101  1  0.50000000  0.42267100  0.30715700  1
  Ir  Ir102  1  0.00000000  0.16748200  0.20017600  1
  Ir  Ir103  1  0.50000000  0.36880600  0.17315700  1
  Ir  Ir104  1  0.23393800  0.53348900  0.29277900  1
  Ir  Ir105  1  0.26606200  0.16946600  0.24722100  1
  Ir  Ir106  1  0.73393800  0.16946600  0.24722100  1
  Ir  Ir107  1  0.76606200  0.53348900  0.29277900  1
  Ir  Ir108  1  0.00000000  0.03859600  0.33824000  1
  Ir  Ir109  1  0.50000000  0.83102500  0.36842600  1
  Ir  Ir110  1  0.75048700  0.90468500  0.40526400  1
  Ir  Ir111  1  0.74951300  0.13160300  0.46806900  1
  Ir  Ir112  1  0.25048700  0.13160300  0.46806900  1
  Ir  Ir113  1  0.24951300  0.90468500  0.40526400  1
  Ir  Ir114  1  1.00000000  0.22647800  0.39500000  1
  Ir  Ir115  1  0.50000000  0.03028500  0.48284300  1
  Ir  Ir116  1  0.00000000  0.00600400  0.39049000  1
  Ir  Ir117  1  0.50000000  0.91748200  0.45017600  1
  Ir  Ir118  1  1.00000000  0.11880600  0.42315700  1
  Ir  Ir119  1  0.73393800  0.11682200  0.37611200  1
  Ir  Ir120  1  0.76606200  0.91946600  0.49722100  1
  Ir  Ir121  1  0.23393800  0.91946600  0.49722100  1
  Ir  Ir122  1  0.26606200  0.11682200  0.37611200  1
  Ir  Ir123  1  0.50000000  0.62193000  0.42157400  1
  Ir  Ir124  1  0.00000000  0.41435900  0.45176000  1
  Ir  Ir125  1  0.25048700  0.48801900  0.48859700  1
  Ir  Ir126  1  0.24951300  0.54827000  0.38473600  1
  Ir  Ir127  1  0.75048700  0.54827000  0.38473600  1
  Ir  Ir128  1  0.74951300  0.48801900  0.48859700  1
  Ir  Ir129  1  0.50000000  0.80981100  0.47833300  1
  Ir  Ir130  1  1.00000000  0.44695100  0.39951000  1
  Ir  Ir131  1  0.50000000  0.58933700  0.47382300  1
  Ir  Ir132  1  1.00000000  0.33414900  0.36684300  1
  Ir  Ir133  1  0.50000000  0.53547300  0.33982400  1
  Ir  Ir134  1  0.23393800  0.70015600  0.45944600  1
  Ir  Ir135  1  0.26606200  0.33613300  0.41388800  1
  Ir  Ir136  1  0.73393800  0.33613300  0.41388800  1
  Ir  Ir137  1  0.76606200  0.70015600  0.45944600  1
  Ir  Ir138  1  0.00000000  0.20526300  0.50490700  1
  Ir  Ir139  1  0.50000000  0.99769200  0.53509300  1
  Ir  Ir140  1  0.75048700  0.07135200  0.57193100  1
  Ir  Ir141  1  0.74951300  0.29827000  0.63473600  1
  Ir  Ir142  1  0.25048700  0.29827000  0.63473600  1
  Ir  Ir143  1  0.24951300  0.07135200  0.57193100  1
  Ir  Ir144  1  1.00000000  0.39314400  0.56166700  1
  Ir  Ir145  1  0.50000000  0.19695100  0.64951000  1
  Ir  Ir146  1  0.00000000  0.17267100  0.55715700  1
  Ir  Ir147  1  0.50000000  0.08414900  0.61684300  1
  Ir  Ir148  1  0.00000000  0.28547300  0.58982400  1
  Ir  Ir149  1  0.73393800  0.28348900  0.54277900  1
  Ir  Ir150  1  0.76606200  0.08613300  0.66388800  1
  Ir  Ir151  1  0.23393800  0.08613300  0.66388800  1
  Ir  Ir152  1  0.26606200  0.28348900  0.54277900  1
  Ir  Ir153  1  0.50000000  0.78859600  0.58824000  1
  Ir  Ir154  1  1.00000000  0.58102500  0.61842600  1
  Ir  Ir155  1  0.25048700  0.65468500  0.65526400  1
  Ir  Ir156  1  0.24951300  0.71493700  0.55140300  1
  Ir  Ir157  1  0.75048700  0.71493700  0.55140300  1
  Ir  Ir158  1  0.74951300  0.65468500  0.65526400  1
  Ir  Ir159  1  0.50000000  0.97647800  0.64500000  1
  Ir  Ir160  1  0.00000000  0.61361800  0.56617700  1
  Ir  Ir161  1  0.50000000  0.75600400  0.64049000  1
  Ir  Ir162  1  1.00000000  0.50081500  0.53350900  1
  Ir  Ir163  1  0.50000000  0.70214000  0.50649100  1
  Ir  Ir164  1  0.23393800  0.86682200  0.62611200  1
  Ir  Ir165  1  0.26606200  0.50279900  0.58055400  1
  Ir  Ir166  1  0.73393800  0.50279900  0.58055400  1
  Ir  Ir167  1  0.76606200  0.86682200  0.62611200  1
  Ir  Ir168  1  0.00000000  0.37193000  0.67157400  1
  Ir  Ir169  1  0.50000000  0.16435900  0.70176000  1
  Ir  Ir170  1  0.75048700  0.23801900  0.73859700  1
  Ir  Ir171  1  0.24951300  0.23801900  0.73859700  1
  Ir  Ir172  1  1.00000000  0.55981100  0.72833300  1
  Ir  Ir173  1  0.00000000  0.33933700  0.72382300  1
  Ir  Ir174  1  0.50000000  0.25081500  0.78350900  1
  Ir  Ir175  1  1.00000000  0.45214000  0.75649100  1
  Ir  Ir176  1  0.73393800  0.45015600  0.70944600  1
  Ir  Ir177  1  0.26606200  0.45015600  0.70944600  1
  Ir  Ir178  1  0.50000000  0.95526300  0.75490700  1
  Ir  Ir179  1  0.00000000  0.74769200  0.78509300  1
  Ir  Ir180  1  0.24951300  0.88160300  0.71806900  1
  Ir  Ir181  1  0.75048700  0.88160300  0.71806900  1
  Ir  Ir182  1  0.00000000  0.78028500  0.73284300  1
  Ir  Ir183  1  0.00000000  0.66748200  0.70017600  1
  Ir  Ir184  1  0.50000000  0.86880600  0.67315700  1
  Ir  Ir185  1  0.26606200  0.66946600  0.74722100  1
  Ir  Ir186  1  0.73393800  0.66946600  0.74722100  1
