# generated using pymatgen
data_Sr8Mg65
_symmetry_space_group_name_H-M   'P 1'
_cell_length_a   14.66206661
_cell_length_b   14.66206704
_cell_length_c   46.99963900
_cell_angle_alpha   88.35894800
_cell_angle_beta   91.64105205
_cell_angle_gamma   102.44927812
_symmetry_Int_Tables_number   1
_chemical_formula_structural   Sr8Mg65
_chemical_formula_sum   'Sr24 Mg195'
_cell_volume   9859.57673261
_cell_formula_units_Z   3
loop_
 _symmetry_equiv_pos_site_id
 _symmetry_equiv_pos_as_xyz
  1  'x, y, z'
loop_
 _atom_site_type_symbol
 _atom_site_label
 _atom_site_symmetry_multiplicity
 _atom_site_fract_x
 _atom_site_fract_y
 _atom_site_fract_z
 _atom_site_occupancy
  Sr  Sr0  1  0.75256500  0.58076800  0.21315800  1
  Sr  Sr1  1  0.61923200  0.04743500  0.26315800  1
  Sr  Sr2  1  0.28589900  0.71410100  0.26315800  1
  Sr  Sr3  1  0.08589900  0.91410100  0.21315800  1
  Sr  Sr4  1  0.15256500  0.18076800  0.31315800  1
  Sr  Sr5  1  0.01923200  0.64743500  0.36315800  1
  Sr  Sr6  1  0.68589900  0.31410100  0.36315800  1
  Sr  Sr7  1  0.48589900  0.51410100  0.31315800  1
  Sr  Sr8  1  0.55256500  0.78076800  0.41315800  1
  Sr  Sr9  1  0.41923200  0.24743500  0.46315800  1
  Sr  Sr10  1  0.08589900  0.91410100  0.46315800  1
  Sr  Sr11  1  0.88589900  0.11410100  0.41315800  1
  Sr  Sr12  1  0.95256500  0.38076800  0.51315800  1
  Sr  Sr13  1  0.81923200  0.84743500  0.56315800  1
  Sr  Sr14  1  0.48589900  0.51410100  0.56315800  1
  Sr  Sr15  1  0.28589900  0.71410100  0.51315800  1
  Sr  Sr16  1  0.35256500  0.98076800  0.61315800  1
  Sr  Sr17  1  0.21923200  0.44743500  0.66315800  1
  Sr  Sr18  1  0.88589900  0.11410100  0.66315800  1
  Sr  Sr19  1  0.68589900  0.31410100  0.61315800  1
  Sr  Sr20  1  0.75256500  0.58076800  0.71315800  1
  Sr  Sr21  1  0.61923200  0.04743500  0.76315800  1
  Sr  Sr22  1  0.28589900  0.71410100  0.76315800  1
  Sr  Sr23  1  0.08589900  0.91410100  0.71315800  1
  Mg  Mg24  1  0.06279900  0.77254800  0.28971000  1
  Mg  Mg25  1  0.35917500  0.97013200  0.24031400  1
  Mg  Mg26  1  0.56159100  0.27375600  0.29091800  1
  Mg  Mg27  1  0.02745200  0.13720100  0.23971000  1
  Mg  Mg28  1  0.35847300  0.30819400  0.19796800  1
  Mg  Mg29  1  0.89180600  0.44152700  0.24796800  1
  Mg  Mg30  1  0.01332400  0.32000900  0.27834800  1
  Mg  Mg31  1  0.47999100  0.18667600  0.22834800  1
  Mg  Mg32  1  0.18589900  0.31410100  0.23815800  1
  Mg  Mg33  1  0.88589900  0.61410100  0.28815800  1
  Mg  Mg34  1  0.68589900  0.31410100  0.23815800  1
  Mg  Mg35  1  0.88589900  0.11410100  0.28815800  1
  Mg  Mg36  1  0.68589900  0.81410100  0.23815800  1
  Mg  Mg37  1  0.38589900  0.11410100  0.28815800  1
  Mg  Mg38  1  0.36190500  0.30959300  0.27290100  1
  Mg  Mg39  1  0.67398300  0.96047900  0.19230500  1
  Mg  Mg40  1  0.37382000  0.66321500  0.19375400  1
  Mg  Mg41  1  0.99797700  0.96498800  0.28256200  1
  Mg  Mg42  1  0.69781400  0.66772300  0.28401100  1
  Mg  Mg43  1  0.13227700  0.50218600  0.23401100  1
  Mg  Mg44  1  0.49040700  0.83809500  0.22290100  1
  Mg  Mg45  1  0.00989300  0.31861000  0.20341500  1
  Mg  Mg46  1  0.83501200  0.20202300  0.23256200  1
  Mg  Mg47  1  0.53678500  0.42618000  0.24375400  1
  Mg  Mg48  1  0.23952100  0.12601700  0.24230500  1
  Mg  Mg49  1  0.88139000  0.79010700  0.25341500  1
  Mg  Mg50  1  0.34434600  0.49100100  0.23660600  1
  Mg  Mg51  1  0.01262300  0.65807000  0.23600200  1
  Mg  Mg52  1  0.70899900  0.45565400  0.28660600  1
  Mg  Mg53  1  0.84555400  0.98979300  0.23539800  1
  Mg  Mg54  1  0.54193000  0.78737700  0.28600200  1
  Mg  Mg55  1  0.22986800  0.44082500  0.29031400  1
  Mg  Mg56  1  0.52624400  0.63840900  0.24091800  1
  Mg  Mg57  1  0.21020700  0.95444600  0.28539800  1
  Mg  Mg58  1  0.46279900  0.37254800  0.38971000  1
  Mg  Mg59  1  0.75917500  0.57013200  0.34031400  1
  Mg  Mg60  1  0.96159100  0.87375600  0.39091800  1
  Mg  Mg61  1  0.42745200  0.73720100  0.33971000  1
  Mg  Mg62  1  0.75847300  0.90819400  0.29796800  1
  Mg  Mg63  1  0.29180600  0.04152700  0.34796800  1
  Mg  Mg64  1  0.41332400  0.92000900  0.37834800  1
  Mg  Mg65  1  0.87999100  0.78667600  0.32834800  1
  Mg  Mg66  1  0.58589900  0.91410100  0.33815800  1
  Mg  Mg67  1  0.28589900  0.21410100  0.38815800  1
  Mg  Mg68  1  0.08589900  0.91410100  0.33815800  1
  Mg  Mg69  1  0.28589900  0.71410100  0.38815800  1
  Mg  Mg70  1  0.08589900  0.41410100  0.33815800  1
  Mg  Mg71  1  0.78589900  0.71410100  0.38815800  1
  Mg  Mg72  1  0.76190500  0.90959300  0.37290100  1
  Mg  Mg73  1  0.07398300  0.56047900  0.29230500  1
  Mg  Mg74  1  0.77382000  0.26321500  0.29375400  1
  Mg  Mg75  1  0.39797700  0.56498800  0.38256200  1
  Mg  Mg76  1  0.09781400  0.26772300  0.38401100  1
  Mg  Mg77  1  0.53227700  0.10218600  0.33401100  1
  Mg  Mg78  1  0.89040700  0.43809500  0.32290100  1
  Mg  Mg79  1  0.40989300  0.91861000  0.30341500  1
  Mg  Mg80  1  0.23501200  0.80202300  0.33256200  1
  Mg  Mg81  1  0.93678500  0.02618000  0.34375400  1
  Mg  Mg82  1  0.63952100  0.72601700  0.34230500  1
  Mg  Mg83  1  0.28139000  0.39010700  0.35341500  1
  Mg  Mg84  1  0.74434600  0.09100100  0.33660600  1
  Mg  Mg85  1  0.41262300  0.25807000  0.33600200  1
  Mg  Mg86  1  0.10899900  0.05565400  0.38660600  1
  Mg  Mg87  1  0.24555400  0.58979300  0.33539800  1
  Mg  Mg88  1  0.94193000  0.38737700  0.38600200  1
  Mg  Mg89  1  0.62986800  0.04082500  0.39031400  1
  Mg  Mg90  1  0.92624400  0.23840900  0.34091800  1
  Mg  Mg91  1  0.61020700  0.55444600  0.38539800  1
  Mg  Mg92  1  0.86279900  0.97254800  0.48971000  1
  Mg  Mg93  1  0.15917500  0.17013200  0.44031400  1
  Mg  Mg94  1  0.36159100  0.47375600  0.49091800  1
  Mg  Mg95  1  0.82745200  0.33720100  0.43971000  1
  Mg  Mg96  1  0.15847300  0.50819400  0.39796800  1
  Mg  Mg97  1  0.69180600  0.64152700  0.44796800  1
  Mg  Mg98  1  0.81332400  0.52000900  0.47834800  1
  Mg  Mg99  1  0.27999100  0.38667600  0.42834800  1
  Mg  Mg100  1  0.98589900  0.51410100  0.43815800  1
  Mg  Mg101  1  0.68589900  0.81410100  0.48815800  1
  Mg  Mg102  1  0.48589900  0.51410100  0.43815800  1
  Mg  Mg103  1  0.68589900  0.31410100  0.48815800  1
  Mg  Mg104  1  0.48589900  0.01410100  0.43815800  1
  Mg  Mg105  1  0.18589900  0.31410100  0.48815800  1
  Mg  Mg106  1  0.16190500  0.50959300  0.47290100  1
  Mg  Mg107  1  0.47398300  0.16047900  0.39230500  1
  Mg  Mg108  1  0.17382000  0.86321500  0.39375400  1
  Mg  Mg109  1  0.79797700  0.16498800  0.48256200  1
  Mg  Mg110  1  0.49781400  0.86772300  0.48401100  1
  Mg  Mg111  1  0.93227700  0.70218600  0.43401100  1
  Mg  Mg112  1  0.29040700  0.03809500  0.42290100  1
  Mg  Mg113  1  0.80989300  0.51861000  0.40341500  1
  Mg  Mg114  1  0.63501200  0.40202300  0.43256200  1
  Mg  Mg115  1  0.33678500  0.62618000  0.44375400  1
  Mg  Mg116  1  0.03952100  0.32601700  0.44230500  1
  Mg  Mg117  1  0.68139000  0.99010700  0.45341500  1
  Mg  Mg118  1  0.14434600  0.69100100  0.43660600  1
  Mg  Mg119  1  0.81262300  0.85807000  0.43600200  1
  Mg  Mg120  1  0.50899900  0.65565400  0.48660600  1
  Mg  Mg121  1  0.64555400  0.18979300  0.43539800  1
  Mg  Mg122  1  0.34193000  0.98737700  0.48600200  1
  Mg  Mg123  1  0.02986800  0.64082500  0.49031400  1
  Mg  Mg124  1  0.32624400  0.83840900  0.44091800  1
  Mg  Mg125  1  0.01020700  0.15444600  0.48539800  1
  Mg  Mg126  1  0.26279900  0.57254800  0.58971000  1
  Mg  Mg127  1  0.55917500  0.77013200  0.54031400  1
  Mg  Mg128  1  0.76159100  0.07375600  0.59091800  1
  Mg  Mg129  1  0.22745200  0.93720100  0.53971000  1
  Mg  Mg130  1  0.55847300  0.10819400  0.49796800  1
  Mg  Mg131  1  0.09180600  0.24152700  0.54796800  1
  Mg  Mg132  1  0.21332400  0.12000900  0.57834800  1
  Mg  Mg133  1  0.67999100  0.98667600  0.52834800  1
  Mg  Mg134  1  0.38589900  0.11410100  0.53815800  1
  Mg  Mg135  1  0.08589900  0.41410100  0.58815800  1
  Mg  Mg136  1  0.88589900  0.11410100  0.53815800  1
  Mg  Mg137  1  0.08589900  0.91410100  0.58815800  1
  Mg  Mg138  1  0.88589900  0.61410100  0.53815800  1
  Mg  Mg139  1  0.58589900  0.91410100  0.58815800  1
  Mg  Mg140  1  0.56190500  0.10959300  0.57290100  1
  Mg  Mg141  1  0.87398300  0.76047900  0.49230500  1
  Mg  Mg142  1  0.57382000  0.46321500  0.49375400  1
  Mg  Mg143  1  0.19797700  0.76498800  0.58256200  1
  Mg  Mg144  1  0.89781400  0.46772300  0.58401100  1
  Mg  Mg145  1  0.33227700  0.30218600  0.53401100  1
  Mg  Mg146  1  0.69040700  0.63809500  0.52290100  1
  Mg  Mg147  1  0.20989300  0.11861000  0.50341500  1
  Mg  Mg148  1  0.03501200  0.00202300  0.53256200  1
  Mg  Mg149  1  0.73678500  0.22618000  0.54375400  1
  Mg  Mg150  1  0.43952100  0.92601700  0.54230500  1
  Mg  Mg151  1  0.08139000  0.59010700  0.55341500  1
  Mg  Mg152  1  0.54434600  0.29100100  0.53660600  1
  Mg  Mg153  1  0.21262300  0.45807000  0.53600200  1
  Mg  Mg154  1  0.90899900  0.25565400  0.58660600  1
  Mg  Mg155  1  0.04555400  0.78979300  0.53539800  1
  Mg  Mg156  1  0.74193000  0.58737700  0.58600200  1
  Mg  Mg157  1  0.42986800  0.24082500  0.59031400  1
  Mg  Mg158  1  0.72624400  0.43840900  0.54091800  1
  Mg  Mg159  1  0.41020700  0.75444600  0.58539800  1
  Mg  Mg160  1  0.66279900  0.17254800  0.68971000  1
  Mg  Mg161  1  0.95917500  0.37013200  0.64031400  1
  Mg  Mg162  1  0.16159100  0.67375600  0.69091800  1
  Mg  Mg163  1  0.62745200  0.53720100  0.63971000  1
  Mg  Mg164  1  0.95847300  0.70819400  0.59796800  1
  Mg  Mg165  1  0.49180600  0.84152700  0.64796800  1
  Mg  Mg166  1  0.61332400  0.72000900  0.67834800  1
  Mg  Mg167  1  0.07999100  0.58667600  0.62834800  1
  Mg  Mg168  1  0.78589900  0.71410100  0.63815800  1
  Mg  Mg169  1  0.48589900  0.01410100  0.68815800  1
  Mg  Mg170  1  0.28589900  0.71410100  0.63815800  1
  Mg  Mg171  1  0.48589900  0.51410100  0.68815800  1
  Mg  Mg172  1  0.28589900  0.21410100  0.63815800  1
  Mg  Mg173  1  0.98589900  0.51410100  0.68815800  1
  Mg  Mg174  1  0.96190500  0.70959300  0.67290100  1
  Mg  Mg175  1  0.27398300  0.36047900  0.59230500  1
  Mg  Mg176  1  0.97382000  0.06321500  0.59375400  1
  Mg  Mg177  1  0.59797700  0.36498800  0.68256200  1
  Mg  Mg178  1  0.29781400  0.06772300  0.68401100  1
  Mg  Mg179  1  0.73227700  0.90218600  0.63401100  1
  Mg  Mg180  1  0.09040700  0.23809500  0.62290100  1
  Mg  Mg181  1  0.60989300  0.71861000  0.60341500  1
  Mg  Mg182  1  0.43501200  0.60202300  0.63256200  1
  Mg  Mg183  1  0.13678500  0.82618000  0.64375400  1
  Mg  Mg184  1  0.83952100  0.52601700  0.64230500  1
  Mg  Mg185  1  0.48139000  0.19010700  0.65341500  1
  Mg  Mg186  1  0.94434600  0.89100100  0.63660600  1
  Mg  Mg187  1  0.61262300  0.05807000  0.63600200  1
  Mg  Mg188  1  0.30899900  0.85565400  0.68660600  1
  Mg  Mg189  1  0.44555400  0.38979300  0.63539800  1
  Mg  Mg190  1  0.14193000  0.18737700  0.68600200  1
  Mg  Mg191  1  0.82986800  0.84082500  0.69031400  1
  Mg  Mg192  1  0.12624400  0.03840900  0.64091800  1
  Mg  Mg193  1  0.81020700  0.35444600  0.68539800  1
  Mg  Mg194  1  0.35917500  0.97013200  0.74031400  1
  Mg  Mg195  1  0.02745200  0.13720100  0.73971000  1
  Mg  Mg196  1  0.35847300  0.30819400  0.69796800  1
  Mg  Mg197  1  0.89180600  0.44152700  0.74796800  1
  Mg  Mg198  1  0.01332400  0.32000900  0.77834800  1
  Mg  Mg199  1  0.47999100  0.18667600  0.72834800  1
  Mg  Mg200  1  0.18589900  0.31410100  0.73815800  1
  Mg  Mg201  1  0.68589900  0.31410100  0.73815800  1
  Mg  Mg202  1  0.68589900  0.81410100  0.73815800  1
  Mg  Mg203  1  0.36190500  0.30959300  0.77290100  1
  Mg  Mg204  1  0.67398300  0.96047900  0.69230500  1
  Mg  Mg205  1  0.37382000  0.66321500  0.69375400  1
  Mg  Mg206  1  0.99797700  0.96498800  0.78256200  1
  Mg  Mg207  1  0.69781400  0.66772300  0.78401100  1
  Mg  Mg208  1  0.13227700  0.50218600  0.73401100  1
  Mg  Mg209  1  0.49040700  0.83809500  0.72290100  1
  Mg  Mg210  1  0.00989300  0.31861000  0.70341500  1
  Mg  Mg211  1  0.83501200  0.20202300  0.73256200  1
  Mg  Mg212  1  0.53678500  0.42618000  0.74375400  1
  Mg  Mg213  1  0.23952100  0.12601700  0.74230500  1
  Mg  Mg214  1  0.88139000  0.79010700  0.75341500  1
  Mg  Mg215  1  0.34434600  0.49100100  0.73660600  1
  Mg  Mg216  1  0.01262300  0.65807000  0.73600200  1
  Mg  Mg217  1  0.84555400  0.98979300  0.73539800  1
  Mg  Mg218  1  0.52624400  0.63840900  0.74091800  1
