# generated using pymatgen
data_Mg45Au23
_symmetry_space_group_name_H-M   'P 1'
_cell_length_a   4.38771400
_cell_length_b   20.77822484
_cell_length_c   46.87993600
_cell_angle_alpha   90.57431790
_cell_angle_beta   90.00000000
_cell_angle_gamma   90.00000000
_symmetry_Int_Tables_number   1
_chemical_formula_structural   Mg45Au23
_chemical_formula_sum   'Mg90 Au46'
_cell_volume   4273.77785998
_cell_formula_units_Z   2
loop_
 _symmetry_equiv_pos_site_id
 _symmetry_equiv_pos_as_xyz
  1  'x, y, z'
loop_
 _atom_site_type_symbol
 _atom_site_label
 _atom_site_symmetry_multiplicity
 _atom_site_fract_x
 _atom_site_fract_y
 _atom_site_fract_z
 _atom_site_occupancy
  Mg  Mg0  1  0.75000000  0.05137900  0.16607800  1
  Mg  Mg1  1  0.75000000  0.40198900  0.31546900  1
  Mg  Mg2  1  0.25000000  0.80906800  0.29688500  1
  Mg  Mg3  1  0.25000000  0.29179100  0.31416100  1
  Mg  Mg4  1  0.75000000  0.32801900  0.22144800  1
  Mg  Mg5  1  0.75000000  0.84536400  0.20410300  1
  Mg  Mg6  1  0.25000000  0.53242800  0.24151500  1
  Mg  Mg7  1  0.25000000  0.01508300  0.25886000  1
  Mg  Mg8  1  0.75000000  0.60681100  0.27819700  1
  Mg  Mg9  1  0.75000000  0.12580800  0.25920000  1
  Mg  Mg10  1  0.25000000  0.25363600  0.18476600  1
  Mg  Mg11  1  0.25000000  0.73463900  0.20376300  1
  Mg  Mg12  1  0.75000000  0.02878300  0.31159600  1
  Mg  Mg13  1  0.75000000  0.62945500  0.21092500  1
  Mg  Mg14  1  0.25000000  0.66499700  0.31803300  1
  Mg  Mg15  1  0.25000000  0.23099200  0.25203800  1
  Mg  Mg16  1  0.75000000  0.47267900  0.20182900  1
  Mg  Mg17  1  0.75000000  0.90910600  0.26540200  1
  Mg  Mg18  1  0.25000000  0.38776800  0.26113400  1
  Mg  Mg19  1  0.25000000  0.95134100  0.19756100  1
  Mg  Mg20  1  0.75000000  0.75130000  0.25732300  1
  Mg  Mg21  1  0.75000000  0.18734400  0.32127900  1
  Mg  Mg22  1  0.25000000  0.10914700  0.20564000  1
  Mg  Mg23  1  0.25000000  0.50643600  0.30835100  1
  Mg  Mg24  1  0.75000000  0.88471300  0.33274500  1
  Mg  Mg25  1  0.75000000  0.23532200  0.48213600  1
  Mg  Mg26  1  0.25000000  0.64240100  0.46355100  1
  Mg  Mg27  1  0.25000000  0.12512500  0.48082700  1
  Mg  Mg28  1  0.75000000  0.16135200  0.38811400  1
  Mg  Mg29  1  0.75000000  0.67869700  0.37076900  1
  Mg  Mg30  1  0.25000000  0.36576100  0.40818200  1
  Mg  Mg31  1  0.25000000  0.84841600  0.42552700  1
  Mg  Mg32  1  0.75000000  0.44014400  0.44486400  1
  Mg  Mg33  1  0.75000000  0.95914100  0.42586700  1
  Mg  Mg34  1  0.25000000  0.08696900  0.35143200  1
  Mg  Mg35  1  0.25000000  0.56797200  0.37042900  1
  Mg  Mg36  1  0.75000000  0.86211600  0.47826300  1
  Mg  Mg37  1  0.75000000  0.46278800  0.37759100  1
  Mg  Mg38  1  0.25000000  0.49833100  0.48470000  1
  Mg  Mg39  1  0.25000000  0.06432600  0.41870500  1
  Mg  Mg40  1  0.75000000  0.30601200  0.36849600  1
  Mg  Mg41  1  0.75000000  0.74243900  0.43206800  1
  Mg  Mg42  1  0.25000000  0.22110200  0.42780100  1
  Mg  Mg43  1  0.25000000  0.78467400  0.36422800  1
  Mg  Mg44  1  0.75000000  0.58463300  0.42399000  1
  Mg  Mg45  1  0.75000000  0.02067800  0.48794600  1
  Mg  Mg46  1  0.25000000  0.94248000  0.37230600  1
  Mg  Mg47  1  0.25000000  0.33976900  0.47501700  1
  Mg  Mg48  1  0.75000000  0.71804600  0.49941200  1
  Mg  Mg49  1  0.75000000  0.06865600  0.64880200  1
  Mg  Mg50  1  0.25000000  0.47573400  0.63021800  1
  Mg  Mg51  1  0.25000000  0.95845800  0.64749400  1
  Mg  Mg52  1  0.75000000  0.99468600  0.55478100  1
  Mg  Mg53  1  0.75000000  0.51203100  0.53743600  1
  Mg  Mg54  1  0.25000000  0.19909400  0.57484900  1
  Mg  Mg55  1  0.25000000  0.68175000  0.59219400  1
  Mg  Mg56  1  0.75000000  0.27347800  0.61153100  1
  Mg  Mg57  1  0.75000000  0.79247500  0.59253400  1
  Mg  Mg58  1  0.25000000  0.92030200  0.51809900  1
  Mg  Mg59  1  0.25000000  0.40130500  0.53709600  1
  Mg  Mg60  1  0.75000000  0.69545000  0.64493000  1
  Mg  Mg61  1  0.75000000  0.29612100  0.54425800  1
  Mg  Mg62  1  0.25000000  0.33166400  0.65136700  1
  Mg  Mg63  1  0.25000000  0.89765900  0.58537200  1
  Mg  Mg64  1  0.75000000  0.13934500  0.53516200  1
  Mg  Mg65  1  0.75000000  0.57577200  0.59873500  1
  Mg  Mg66  1  0.25000000  0.05443500  0.59446700  1
  Mg  Mg67  1  0.25000000  0.61800800  0.53089500  1
  Mg  Mg68  1  0.75000000  0.41796700  0.59065700  1
  Mg  Mg69  1  0.75000000  0.85401100  0.65461200  1
  Mg  Mg70  1  0.25000000  0.77581300  0.53897300  1
  Mg  Mg71  1  0.25000000  0.17310200  0.64168400  1
  Mg  Mg72  1  0.75000000  0.55137900  0.66607800  1
  Mg  Mg73  1  0.25000000  0.30906800  0.79688500  1
  Mg  Mg74  1  0.75000000  0.82801900  0.72144800  1
  Mg  Mg75  1  0.75000000  0.34536400  0.70410300  1
  Mg  Mg76  1  0.25000000  0.03242800  0.74151500  1
  Mg  Mg77  1  0.25000000  0.51508300  0.75886000  1
  Mg  Mg78  1  0.75000000  0.10681100  0.77819700  1
  Mg  Mg79  1  0.75000000  0.62580800  0.75920000  1
  Mg  Mg80  1  0.25000000  0.75363600  0.68476600  1
  Mg  Mg81  1  0.25000000  0.23463900  0.70376300  1
  Mg  Mg82  1  0.75000000  0.12945500  0.71092500  1
  Mg  Mg83  1  0.25000000  0.73099200  0.75203800  1
  Mg  Mg84  1  0.75000000  0.97267900  0.70182900  1
  Mg  Mg85  1  0.75000000  0.40910600  0.76540200  1
  Mg  Mg86  1  0.25000000  0.88776800  0.76113400  1
  Mg  Mg87  1  0.25000000  0.45134100  0.69756100  1
  Mg  Mg88  1  0.75000000  0.25130000  0.75732300  1
  Mg  Mg89  1  0.25000000  0.60914700  0.70564000  1
  Au  Au90  1  0.75000000  0.75196400  0.32213200  1
  Au  Au91  1  0.75000000  0.29580200  0.27829400  1
  Au  Au92  1  0.25000000  0.94181600  0.30749700  1
  Au  Au93  1  0.25000000  0.56464500  0.18466900  1
  Au  Au94  1  0.75000000  0.47500500  0.26661100  1
  Au  Au95  1  0.75000000  0.01862700  0.22298900  1
  Au  Au96  1  0.25000000  0.38544200  0.19635200  1
  Au  Au97  1  0.25000000  0.84181900  0.23997400  1
  Au  Au98  1  0.75000000  0.19618800  0.20977000  1
  Au  Au99  1  0.75000000  0.73801300  0.16794400  1
  Au  Au100  1  0.25000000  0.66425900  0.25319300  1
  Au  Au101  1  0.25000000  0.12243300  0.29501900  1
  Au  Au102  1  0.75000000  0.58529700  0.48879900  1
  Au  Au103  1  0.75000000  0.12913500  0.44496100  1
  Au  Au104  1  0.25000000  0.77514900  0.47416400  1
  Au  Au105  1  0.25000000  0.39797800  0.35133500  1
  Au  Au106  1  0.75000000  0.30833900  0.43327800  1
  Au  Au107  1  0.75000000  0.85196100  0.38965600  1
  Au  Au108  1  0.25000000  0.21877500  0.36301800  1
  Au  Au109  1  0.25000000  0.67515300  0.40664100  1
  Au  Au110  1  0.75000000  0.02952100  0.37643600  1
  Au  Au111  1  0.75000000  0.57134700  0.33461100  1
  Au  Au112  1  0.25000000  0.49759300  0.41986000  1
  Au  Au113  1  0.25000000  0.95576700  0.46168600  1
  Au  Au114  1  0.75000000  0.41863100  0.65546600  1
  Au  Au115  1  0.75000000  0.96246900  0.61162800  1
  Au  Au116  1  0.25000000  0.60848300  0.64083100  1
  Au  Au117  1  0.25000000  0.23131100  0.51800200  1
  Au  Au118  1  0.75000000  0.14167200  0.59994400  1
  Au  Au119  1  0.75000000  0.68529400  0.55632200  1
  Au  Au120  1  0.25000000  0.05210800  0.52968500  1
  Au  Au121  1  0.25000000  0.50848600  0.57330700  1
  Au  Au122  1  0.75000000  0.86285400  0.54310300  1
  Au  Au123  1  0.75000000  0.40468000  0.50127700  1
  Au  Au124  1  0.25000000  0.33092600  0.58652700  1
  Au  Au125  1  0.25000000  0.78910000  0.62835200  1
  Au  Au126  1  0.75000000  0.79580200  0.77829400  1
  Au  Au127  1  0.25000000  0.06464500  0.68466900  1
  Au  Au128  1  0.75000000  0.97500500  0.76661100  1
  Au  Au129  1  0.75000000  0.51862700  0.72298900  1
  Au  Au130  1  0.25000000  0.88544200  0.69635200  1
  Au  Au131  1  0.25000000  0.34181900  0.73997400  1
  Au  Au132  1  0.75000000  0.69618800  0.70977000  1
  Au  Au133  1  0.75000000  0.23801300  0.66794400  1
  Au  Au134  1  0.25000000  0.16425900  0.75319300  1
  Au  Au135  1  0.25000000  0.62243300  0.79501900  1
