# generated using pymatgen
data_Mg18As11
_symmetry_space_group_name_H-M   'P 1'
_cell_length_a   12.47509700
_cell_length_b   12.47509700
_cell_length_c   62.37548700
_cell_angle_alpha   90.00000000
_cell_angle_beta   90.00000000
_cell_angle_gamma   90.00000000
_symmetry_Int_Tables_number   1
_chemical_formula_structural   Mg18As11
_chemical_formula_sum   'Mg144 As88'
_cell_volume   9707.37510768
_cell_formula_units_Z   8
loop_
 _symmetry_equiv_pos_site_id
 _symmetry_equiv_pos_as_xyz
  1  'x, y, z'
loop_
 _atom_site_type_symbol
 _atom_site_label
 _atom_site_symmetry_multiplicity
 _atom_site_fract_x
 _atom_site_fract_y
 _atom_site_fract_z
 _atom_site_occupancy
  Mg  Mg0  1  0.87074000  0.39487400  0.26283900  1
  Mg  Mg1  1  0.87074000  0.60512600  0.21716100  1
  Mg  Mg2  1  0.12926000  0.89487400  0.21716100  1
  Mg  Mg3  1  0.13580500  0.87074000  0.31102500  1
  Mg  Mg4  1  0.89487400  0.86419500  0.26414800  1
  Mg  Mg5  1  0.10512600  0.36419500  0.21585200  1
  Mg  Mg6  1  0.86419500  0.62926000  0.31102500  1
  Mg  Mg7  1  0.10512600  0.63580500  0.26414800  1
  Mg  Mg8  1  0.63580500  0.62926000  0.26897500  1
  Mg  Mg9  1  0.89487400  0.13580500  0.21585200  1
  Mg  Mg10  1  0.36419500  0.87074000  0.26897500  1
  Mg  Mg11  1  0.12926000  0.10512600  0.26283900  1
  Mg  Mg12  1  0.62926000  0.10512600  0.21716100  1
  Mg  Mg13  1  0.62926000  0.89487400  0.26283900  1
  Mg  Mg14  1  0.37074000  0.60512600  0.26283900  1
  Mg  Mg15  1  0.36419500  0.62926000  0.36897500  1
  Mg  Mg16  1  0.37074000  0.39487400  0.21716100  1
  Mg  Mg17  1  0.13580500  0.62926000  0.21102500  1
  Mg  Mg18  1  0.60512600  0.36419500  0.26414800  1
  Mg  Mg19  1  0.86419500  0.87074000  0.21102500  1
  Mg  Mg20  1  0.39487400  0.86419500  0.21585200  1
  Mg  Mg21  1  0.63580500  0.87074000  0.36897500  1
  Mg  Mg22  1  0.39487400  0.13580500  0.26414800  1
  Mg  Mg23  1  0.60512600  0.63580500  0.21585200  1
  Mg  Mg24  1  0.37074000  0.89487400  0.36283900  1
  Mg  Mg25  1  0.37074000  0.10512600  0.31716100  1
  Mg  Mg26  1  0.62926000  0.39487400  0.31716100  1
  Mg  Mg27  1  0.63580500  0.37074000  0.21102500  1
  Mg  Mg28  1  0.39487400  0.36419500  0.36414800  1
  Mg  Mg29  1  0.60512600  0.86419500  0.31585200  1
  Mg  Mg30  1  0.36419500  0.12926000  0.21102500  1
  Mg  Mg31  1  0.60512600  0.13580500  0.36414800  1
  Mg  Mg32  1  0.13580500  0.12926000  0.36897500  1
  Mg  Mg33  1  0.39487400  0.63580500  0.31585200  1
  Mg  Mg34  1  0.86419500  0.37074000  0.36897500  1
  Mg  Mg35  1  0.62926000  0.60512600  0.36283900  1
  Mg  Mg36  1  0.12926000  0.60512600  0.31716100  1
  Mg  Mg37  1  0.12926000  0.39487400  0.36283900  1
  Mg  Mg38  1  0.87074000  0.10512600  0.36283900  1
  Mg  Mg39  1  0.86419500  0.12926000  0.26897500  1
  Mg  Mg40  1  0.87074000  0.89487400  0.31716100  1
  Mg  Mg41  1  0.63580500  0.12926000  0.31102500  1
  Mg  Mg42  1  0.10512600  0.86419500  0.36414800  1
  Mg  Mg43  1  0.36419500  0.37074000  0.31102500  1
  Mg  Mg44  1  0.89487400  0.36419500  0.31585200  1
  Mg  Mg45  1  0.13580500  0.37074000  0.26897500  1
  Mg  Mg46  1  0.89487400  0.63580500  0.36414800  1
  Mg  Mg47  1  0.10512600  0.13580500  0.31585200  1
  Mg  Mg48  1  0.87074000  0.39487400  0.46283900  1
  Mg  Mg49  1  0.87074000  0.60512600  0.41716100  1
  Mg  Mg50  1  0.12926000  0.89487400  0.41716100  1
  Mg  Mg51  1  0.13580500  0.87074000  0.51102500  1
  Mg  Mg52  1  0.89487400  0.86419500  0.46414800  1
  Mg  Mg53  1  0.10512600  0.36419500  0.41585200  1
  Mg  Mg54  1  0.86419500  0.62926000  0.51102500  1
  Mg  Mg55  1  0.10512600  0.63580500  0.46414800  1
  Mg  Mg56  1  0.63580500  0.62926000  0.46897500  1
  Mg  Mg57  1  0.89487400  0.13580500  0.41585200  1
  Mg  Mg58  1  0.36419500  0.87074000  0.46897500  1
  Mg  Mg59  1  0.12926000  0.10512600  0.46283900  1
  Mg  Mg60  1  0.62926000  0.10512600  0.41716100  1
  Mg  Mg61  1  0.62926000  0.89487400  0.46283900  1
  Mg  Mg62  1  0.37074000  0.60512600  0.46283900  1
  Mg  Mg63  1  0.36419500  0.62926000  0.56897500  1
  Mg  Mg64  1  0.37074000  0.39487400  0.41716100  1
  Mg  Mg65  1  0.13580500  0.62926000  0.41102500  1
  Mg  Mg66  1  0.60512600  0.36419500  0.46414800  1
  Mg  Mg67  1  0.86419500  0.87074000  0.41102500  1
  Mg  Mg68  1  0.39487400  0.86419500  0.41585200  1
  Mg  Mg69  1  0.63580500  0.87074000  0.56897500  1
  Mg  Mg70  1  0.39487400  0.13580500  0.46414800  1
  Mg  Mg71  1  0.60512600  0.63580500  0.41585200  1
  Mg  Mg72  1  0.37074000  0.89487400  0.56283900  1
  Mg  Mg73  1  0.37074000  0.10512600  0.51716100  1
  Mg  Mg74  1  0.62926000  0.39487400  0.51716100  1
  Mg  Mg75  1  0.63580500  0.37074000  0.41102500  1
  Mg  Mg76  1  0.39487400  0.36419500  0.56414800  1
  Mg  Mg77  1  0.60512600  0.86419500  0.51585200  1
  Mg  Mg78  1  0.36419500  0.12926000  0.41102500  1
  Mg  Mg79  1  0.60512600  0.13580500  0.56414800  1
  Mg  Mg80  1  0.13580500  0.12926000  0.56897500  1
  Mg  Mg81  1  0.39487400  0.63580500  0.51585200  1
  Mg  Mg82  1  0.86419500  0.37074000  0.56897500  1
  Mg  Mg83  1  0.62926000  0.60512600  0.56283900  1
  Mg  Mg84  1  0.12926000  0.60512600  0.51716100  1
  Mg  Mg85  1  0.12926000  0.39487400  0.56283900  1
  Mg  Mg86  1  0.87074000  0.10512600  0.56283900  1
  Mg  Mg87  1  0.86419500  0.12926000  0.46897500  1
  Mg  Mg88  1  0.87074000  0.89487400  0.51716100  1
  Mg  Mg89  1  0.63580500  0.12926000  0.51102500  1
  Mg  Mg90  1  0.10512600  0.86419500  0.56414800  1
  Mg  Mg91  1  0.36419500  0.37074000  0.51102500  1
  Mg  Mg92  1  0.89487400  0.36419500  0.51585200  1
  Mg  Mg93  1  0.13580500  0.37074000  0.46897500  1
  Mg  Mg94  1  0.89487400  0.63580500  0.56414800  1
  Mg  Mg95  1  0.10512600  0.13580500  0.51585200  1
  Mg  Mg96  1  0.87074000  0.39487400  0.66283900  1
  Mg  Mg97  1  0.87074000  0.60512600  0.61716100  1
  Mg  Mg98  1  0.12926000  0.89487400  0.61716100  1
  Mg  Mg99  1  0.13580500  0.87074000  0.71102500  1
  Mg  Mg100  1  0.89487400  0.86419500  0.66414800  1
  Mg  Mg101  1  0.10512600  0.36419500  0.61585200  1
  Mg  Mg102  1  0.86419500  0.62926000  0.71102500  1
  Mg  Mg103  1  0.10512600  0.63580500  0.66414800  1
  Mg  Mg104  1  0.63580500  0.62926000  0.66897500  1
  Mg  Mg105  1  0.89487400  0.13580500  0.61585200  1
  Mg  Mg106  1  0.36419500  0.87074000  0.66897500  1
  Mg  Mg107  1  0.12926000  0.10512600  0.66283900  1
  Mg  Mg108  1  0.62926000  0.10512600  0.61716100  1
  Mg  Mg109  1  0.62926000  0.89487400  0.66283900  1
  Mg  Mg110  1  0.37074000  0.60512600  0.66283900  1
  Mg  Mg111  1  0.36419500  0.62926000  0.76897500  1
  Mg  Mg112  1  0.37074000  0.39487400  0.61716100  1
  Mg  Mg113  1  0.13580500  0.62926000  0.61102500  1
  Mg  Mg114  1  0.60512600  0.36419500  0.66414800  1
  Mg  Mg115  1  0.86419500  0.87074000  0.61102500  1
  Mg  Mg116  1  0.39487400  0.86419500  0.61585200  1
  Mg  Mg117  1  0.63580500  0.87074000  0.76897500  1
  Mg  Mg118  1  0.39487400  0.13580500  0.66414800  1
  Mg  Mg119  1  0.60512600  0.63580500  0.61585200  1
  Mg  Mg120  1  0.37074000  0.89487400  0.76283900  1
  Mg  Mg121  1  0.37074000  0.10512600  0.71716100  1
  Mg  Mg122  1  0.62926000  0.39487400  0.71716100  1
  Mg  Mg123  1  0.63580500  0.37074000  0.61102500  1
  Mg  Mg124  1  0.39487400  0.36419500  0.76414800  1
  Mg  Mg125  1  0.60512600  0.86419500  0.71585200  1
  Mg  Mg126  1  0.36419500  0.12926000  0.61102500  1
  Mg  Mg127  1  0.60512600  0.13580500  0.76414800  1
  Mg  Mg128  1  0.13580500  0.12926000  0.76897500  1
  Mg  Mg129  1  0.39487400  0.63580500  0.71585200  1
  Mg  Mg130  1  0.86419500  0.37074000  0.76897500  1
  Mg  Mg131  1  0.62926000  0.60512600  0.76283900  1
  Mg  Mg132  1  0.12926000  0.60512600  0.71716100  1
  Mg  Mg133  1  0.12926000  0.39487400  0.76283900  1
  Mg  Mg134  1  0.87074000  0.10512600  0.76283900  1
  Mg  Mg135  1  0.86419500  0.12926000  0.66897500  1
  Mg  Mg136  1  0.87074000  0.89487400  0.71716100  1
  Mg  Mg137  1  0.63580500  0.12926000  0.71102500  1
  Mg  Mg138  1  0.10512600  0.86419500  0.76414800  1
  Mg  Mg139  1  0.36419500  0.37074000  0.71102500  1
  Mg  Mg140  1  0.89487400  0.36419500  0.71585200  1
  Mg  Mg141  1  0.13580500  0.37074000  0.66897500  1
  Mg  Mg142  1  0.89487400  0.63580500  0.76414800  1
  Mg  Mg143  1  0.10512600  0.13580500  0.71585200  1
  As  As144  1  1.00000000  0.75000000  0.33558100  1
  As  As145  1  0.25000000  0.77209400  0.39000000  1
  As  As146  1  0.22790600  0.50000000  0.24000000  1
  As  As147  1  0.25000000  0.22790600  0.29000000  1
  As  As148  1  0.27209400  0.50000000  0.34000000  1
  As  As149  1  0.50000000  0.75000000  0.24441900  1
  As  As150  1  0.50000000  0.75000000  0.34441900  1
  As  As151  1  0.25000000  0.72790600  0.29000000  1
  As  As152  1  0.27209400  0.00000000  0.24000000  1
  As  As153  1  0.25000000  0.27209400  0.39000000  1
  As  As154  1  0.22790600  0.00000000  0.34000000  1
  As  As155  1  1.00000000  0.75000000  0.23558100  1
  As  As156  1  0.50000000  0.00000000  0.39000000  1
  As  As157  1  0.00000000  0.00000000  0.39000000  1
  As  As158  1  0.00000000  0.50000000  0.39000000  1
  As  As159  1  0.00000000  0.00000000  0.29000000  1
  As  As160  1  0.50000000  0.25000000  0.23558100  1
  As  As161  1  0.75000000  0.27209400  0.29000000  1
  As  As162  1  0.72790600  0.00000000  0.34000000  1
  As  As163  1  0.75000000  0.72790600  0.39000000  1
  As  As164  1  0.77209400  0.00000000  0.24000000  1
  As  As165  1  0.00000000  0.25000000  0.34441900  1
  As  As166  1  1.00000000  0.25000000  0.24441900  1
  As  As167  1  0.75000000  0.22790600  0.39000000  1
  As  As168  1  0.77209400  0.50000000  0.34000000  1
  As  As169  1  0.75000000  0.77209400  0.29000000  1
  As  As170  1  0.72790600  0.50000000  0.24000000  1
  As  As171  1  0.50000000  0.25000000  0.33558100  1
  As  As172  1  1.00000000  0.50000000  0.29000000  1
  As  As173  1  0.50000000  0.50000000  0.29000000  1
  As  As174  1  0.50000000  0.00000000  0.29000000  1
  As  As175  1  0.50000000  0.50000000  0.39000000  1
  As  As176  1  0.00000000  0.75000000  0.53558100  1
  As  As177  1  0.25000000  0.77209400  0.59000000  1
  As  As178  1  0.22790600  0.50000000  0.44000000  1
  As  As179  1  0.25000000  0.22790600  0.49000000  1
  As  As180  1  0.27209400  0.50000000  0.54000000  1
  As  As181  1  0.50000000  0.75000000  0.44441900  1
  As  As182  1  0.50000000  0.75000000  0.54441900  1
  As  As183  1  0.25000000  0.72790600  0.49000000  1
  As  As184  1  0.27209400  0.00000000  0.44000000  1
  As  As185  1  0.25000000  0.27209400  0.59000000  1
  As  As186  1  0.22790600  0.00000000  0.54000000  1
  As  As187  1  0.00000000  0.75000000  0.43558100  1
  As  As188  1  0.50000000  0.00000000  0.59000000  1
  As  As189  1  0.00000000  0.00000000  0.59000000  1
  As  As190  1  0.00000000  0.50000000  0.59000000  1
  As  As191  1  0.00000000  0.00000000  0.49000000  1
  As  As192  1  0.50000000  0.25000000  0.43558100  1
  As  As193  1  0.75000000  0.27209400  0.49000000  1
  As  As194  1  0.72790600  0.00000000  0.54000000  1
  As  As195  1  0.75000000  0.72790600  0.59000000  1
  As  As196  1  0.77209400  0.00000000  0.44000000  1
  As  As197  1  0.00000000  0.25000000  0.54441900  1
  As  As198  1  1.00000000  0.25000000  0.44441900  1
  As  As199  1  0.75000000  0.22790600  0.59000000  1
  As  As200  1  0.77209400  0.50000000  0.54000000  1
  As  As201  1  0.75000000  0.77209400  0.49000000  1
  As  As202  1  0.72790600  0.50000000  0.44000000  1
  As  As203  1  0.50000000  0.25000000  0.53558100  1
  As  As204  1  1.00000000  0.50000000  0.49000000  1
  As  As205  1  0.50000000  0.50000000  0.49000000  1
  As  As206  1  0.50000000  0.00000000  0.49000000  1
  As  As207  1  0.50000000  0.50000000  0.59000000  1
  As  As208  1  0.00000000  0.75000000  0.73558100  1
  As  As209  1  0.22790600  0.50000000  0.64000000  1
  As  As210  1  0.25000000  0.22790600  0.69000000  1
  As  As211  1  0.27209400  0.50000000  0.74000000  1
  As  As212  1  0.50000000  0.75000000  0.64441900  1
  As  As213  1  0.50000000  0.75000000  0.74441900  1
  As  As214  1  0.25000000  0.72790600  0.69000000  1
  As  As215  1  0.27209400  0.00000000  0.64000000  1
  As  As216  1  0.22790600  0.00000000  0.74000000  1
  As  As217  1  0.00000000  0.75000000  0.63558100  1
  As  As218  1  0.00000000  0.00000000  0.69000000  1
  As  As219  1  0.50000000  0.25000000  0.63558100  1
  As  As220  1  0.75000000  0.27209400  0.69000000  1
  As  As221  1  0.72790600  0.00000000  0.74000000  1
  As  As222  1  0.77209400  0.00000000  0.64000000  1
  As  As223  1  0.00000000  0.25000000  0.74441900  1
  As  As224  1  1.00000000  0.25000000  0.64441900  1
  As  As225  1  0.77209400  0.50000000  0.74000000  1
  As  As226  1  0.75000000  0.77209400  0.69000000  1
  As  As227  1  0.72790600  0.50000000  0.64000000  1
  As  As228  1  0.50000000  0.25000000  0.73558100  1
  As  As229  1  1.00000000  0.50000000  0.69000000  1
  As  As230  1  0.50000000  0.50000000  0.69000000  1
  As  As231  1  0.50000000  0.00000000  0.69000000  1
