# generated using pymatgen
data_Mg17Ir23
_symmetry_space_group_name_H-M   'P 1'
_cell_length_a   5.24707500
_cell_length_b   8.54477426
_cell_length_c   55.75889500
_cell_angle_alpha   88.31672616
_cell_angle_beta   90.00000000
_cell_angle_gamma   90.00000000
_symmetry_Int_Tables_number   1
_chemical_formula_structural   Mg17Ir23
_chemical_formula_sum   'Mg34 Ir46'
_cell_volume   2498.87525280
_cell_formula_units_Z   2
loop_
 _symmetry_equiv_pos_site_id
 _symmetry_equiv_pos_as_xyz
  1  'x, y, z'
loop_
 _atom_site_type_symbol
 _atom_site_label
 _atom_site_symmetry_multiplicity
 _atom_site_fract_x
 _atom_site_fract_y
 _atom_site_fract_z
 _atom_site_occupancy
  Mg  Mg0  1  0.00000000  0.49026300  0.29847800  1
  Mg  Mg1  1  0.50000000  0.05382600  0.50152200  1
  Mg  Mg2  1  0.50000000  0.68094600  0.30965600  1
  Mg  Mg3  1  1.00000000  0.86314300  0.49034400  1
  Mg  Mg4  1  0.00000000  0.69742800  0.38995500  1
  Mg  Mg5  1  0.50000000  0.84666200  0.41004500  1
  Mg  Mg6  1  0.50000000  0.32359600  0.46514400  1
  Mg  Mg7  1  0.00000000  0.22049300  0.33485600  1
  Mg  Mg8  1  0.00000000  0.34112300  0.38641300  1
  Mg  Mg9  1  0.50000000  0.20296600  0.41358700  1
  Mg  Mg10  1  0.00000000  0.82736500  0.34256700  1
  Mg  Mg11  1  0.50000000  0.71672400  0.45743300  1
  Mg  Mg12  1  0.00000000  0.51428000  0.47632300  1
  Mg  Mg13  1  0.50000000  0.02981000  0.32367700  1
  Mg  Mg14  1  0.50000000  0.53076100  0.55662100  1
  Mg  Mg15  1  0.00000000  0.67999500  0.57671200  1
  Mg  Mg16  1  0.00000000  0.15693000  0.63181100  1
  Mg  Mg17  1  0.50000000  0.72049300  0.83485600  1
  Mg  Mg18  1  0.50000000  0.17445700  0.55308000  1
  Mg  Mg19  1  0.00000000  0.03629900  0.58025300  1
  Mg  Mg20  1  0.50000000  0.66069800  0.50923300  1
  Mg  Mg21  1  0.00000000  0.55005800  0.62410000  1
  Mg  Mg22  1  0.50000000  0.34761300  0.64298900  1
  Mg  Mg23  1  1.00000000  0.52981000  0.82367700  1
  Mg  Mg24  1  0.00000000  0.36409400  0.72328800  1
  Mg  Mg25  1  0.50000000  0.51332800  0.74337900  1
  Mg  Mg26  1  0.50000000  0.99026300  0.79847800  1
  Mg  Mg27  1  0.00000000  0.88716000  0.66818900  1
  Mg  Mg28  1  0.00000000  0.00779000  0.71974700  1
  Mg  Mg29  1  0.50000000  0.86963300  0.74692000  1
  Mg  Mg30  1  0.00000000  0.49403200  0.67590000  1
  Mg  Mg31  1  0.50000000  0.38339100  0.79076700  1
  Mg  Mg32  1  0.00000000  0.18094600  0.80965600  1
  Mg  Mg33  1  0.50000000  0.69647600  0.65701100  1
  Ir  Ir34  1  0.00000000  0.18871100  0.48333300  1
  Ir  Ir35  1  0.50000000  0.78335000  0.36037400  1
  Ir  Ir36  1  0.00000000  0.76073900  0.43962600  1
  Ir  Ir37  1  0.74951300  0.51516500  0.42735200  1
  Ir  Ir38  1  0.75048700  0.02892500  0.37264800  1
  Ir  Ir39  1  0.24951300  0.02892500  0.37264800  1
  Ir  Ir40  1  0.25048700  0.51516500  0.42735200  1
  Ir  Ir41  1  0.50000000  0.35537800  0.31666700  1
  Ir  Ir42  1  0.00000000  0.01767600  0.41134500  1
  Ir  Ir43  1  0.50000000  0.52641300  0.38865500  1
  Ir  Ir44  1  1.00000000  0.26710200  0.43805700  1
  Ir  Ir45  1  0.50000000  0.27698700  0.36194300  1
  Ir  Ir46  1  0.76606200  0.52921500  0.34692300  1
  Ir  Ir47  1  0.73393800  0.01487400  0.45307700  1
  Ir  Ir48  1  0.26606200  0.01487400  0.45307700  1
  Ir  Ir49  1  0.23393800  0.52921500  0.34692300  1
  Ir  Ir50  1  0.00000000  0.61668300  0.52704100  1
  Ir  Ir51  1  0.50000000  0.59407200  0.60629300  1
  Ir  Ir52  1  0.24951300  0.34849800  0.59401900  1
  Ir  Ir53  1  0.25048700  0.86225800  0.53931500  1
  Ir  Ir54  1  0.74951300  0.86225800  0.53931500  1
  Ir  Ir55  1  0.75048700  0.34849800  0.59401900  1
  Ir  Ir56  1  1.00000000  0.85537800  0.81666700  1
  Ir  Ir57  1  0.50000000  0.85101000  0.57801200  1
  Ir  Ir58  1  0.00000000  0.35974600  0.55532100  1
  Ir  Ir59  1  0.50000000  0.10043600  0.60472400  1
  Ir  Ir60  1  1.00000000  0.11032000  0.52860900  1
  Ir  Ir61  1  0.26606200  0.36254800  0.51358900  1
  Ir  Ir62  1  0.23393800  0.84820800  0.61974400  1
  Ir  Ir63  1  0.76606200  0.84820800  0.61974400  1
  Ir  Ir64  1  0.73393800  0.36254800  0.51358900  1
  Ir  Ir65  1  0.50000000  0.45001700  0.69370700  1
  Ir  Ir66  1  1.00000000  0.42740600  0.77295900  1
  Ir  Ir67  1  0.74951300  0.18183100  0.76068500  1
  Ir  Ir68  1  0.75048700  0.69559100  0.70598100  1
  Ir  Ir69  1  0.24951300  0.69559100  0.70598100  1
  Ir  Ir70  1  0.25048700  0.18183100  0.76068500  1
  Ir  Ir71  1  0.50000000  0.02204500  0.65000000  1
  Ir  Ir72  1  0.00000000  0.68434300  0.74467900  1
  Ir  Ir73  1  0.50000000  0.19308000  0.72198800  1
  Ir  Ir74  1  0.00000000  0.93376900  0.77139100  1
  Ir  Ir75  1  0.50000000  0.94365300  0.69527600  1
  Ir  Ir76  1  0.76606200  0.19588200  0.68025600  1
  Ir  Ir77  1  0.73393800  0.68154100  0.78641100  1
  Ir  Ir78  1  0.26606200  0.68154100  0.78641100  1
  Ir  Ir79  1  0.23393800  0.19588200  0.68025600  1
