# generated using pymatgen
data_MgP5
_symmetry_space_group_name_H-M   'P 1'
_cell_length_a   5.12288200
_cell_length_b   7.59593174
_cell_length_c   41.09478400
_cell_angle_alpha   88.07320358
_cell_angle_beta   90.00000000
_cell_angle_gamma   90.00000000
_symmetry_Int_Tables_number   1
_chemical_formula_structural   MgP5
_chemical_formula_sum   'Mg8 P40'
_cell_volume   1598.21973233
_cell_formula_units_Z   8
loop_
 _symmetry_equiv_pos_site_id
 _symmetry_equiv_pos_as_xyz
  1  'x, y, z'
loop_
 _atom_site_type_symbol
 _atom_site_label
 _atom_site_symmetry_multiplicity
 _atom_site_fract_x
 _atom_site_fract_y
 _atom_site_fract_z
 _atom_site_occupancy
  Mg  Mg0  1  0.00000000  0.89081000  0.30000000  1
  Mg  Mg1  1  0.50000000  0.39081000  0.30000000  1
  Mg  Mg2  1  0.00000000  0.76581000  0.42500000  1
  Mg  Mg3  1  0.50000000  0.26581000  0.42500000  1
  Mg  Mg4  1  0.00000000  0.64081000  0.55000000  1
  Mg  Mg5  1  0.50000000  0.14081000  0.55000000  1
  Mg  Mg6  1  0.00000000  0.51581000  0.67500000  1
  Mg  Mg7  1  0.50000000  0.01581000  0.67500000  1
  P  P8  1  0.29223200  0.23786900  0.20661900  1
  P  P9  1  0.79223200  0.16875000  0.26838100  1
  P  P10  1  0.70776800  0.66875000  0.26838100  1
  P  P11  1  0.20776800  0.73786900  0.20661900  1
  P  P12  1  0.89159400  0.56573800  0.22461100  1
  P  P13  1  0.39159400  0.84088100  0.25038900  1
  P  P14  1  0.10840600  0.34088100  0.25038900  1
  P  P15  1  0.60840600  0.06573800  0.22461100  1
  P  P16  1  0.29223200  0.11286900  0.33161900  1
  P  P17  1  0.79223200  0.04375000  0.39338100  1
  P  P18  1  0.70776800  0.54375000  0.39338100  1
  P  P19  1  0.20776800  0.61286900  0.33161900  1
  P  P20  1  0.89159400  0.44073800  0.34961100  1
  P  P21  1  0.39159400  0.71588100  0.37538900  1
  P  P22  1  0.10840600  0.21588100  0.37538900  1
  P  P23  1  0.60840600  0.94073800  0.34961100  1
  P  P24  1  0.29223200  0.98786900  0.45661900  1
  P  P25  1  0.79223200  0.91875000  0.51838100  1
  P  P26  1  0.70776800  0.41875000  0.51838100  1
  P  P27  1  0.20776800  0.48786900  0.45661900  1
  P  P28  1  0.89159400  0.31573800  0.47461100  1
  P  P29  1  0.39159400  0.59088100  0.50038900  1
  P  P30  1  0.10840600  0.09088100  0.50038900  1
  P  P31  1  0.60840600  0.81573800  0.47461100  1
  P  P32  1  0.29223200  0.86286900  0.58161900  1
  P  P33  1  0.79223200  0.79375000  0.64338100  1
  P  P34  1  0.70776800  0.29375000  0.64338100  1
  P  P35  1  0.20776800  0.36286900  0.58161900  1
  P  P36  1  0.89159400  0.19073800  0.59961100  1
  P  P37  1  0.39159400  0.46588100  0.62538900  1
  P  P38  1  0.10840600  0.96588100  0.62538900  1
  P  P39  1  0.60840600  0.69073800  0.59961100  1
  P  P40  1  0.29223200  0.73786900  0.70661900  1
  P  P41  1  0.79223200  0.66875000  0.76838100  1
  P  P42  1  0.70776800  0.16875000  0.76838100  1
  P  P43  1  0.20776800  0.23786900  0.70661900  1
  P  P44  1  0.89159400  0.06573800  0.72461100  1
  P  P45  1  0.39159400  0.34088100  0.75038900  1
  P  P46  1  0.10840600  0.84088100  0.75038900  1
  P  P47  1  0.60840600  0.56573800  0.72461100  1
