# generated using pymatgen
data_Mg3Pb
_symmetry_space_group_name_H-M   'P 1'
_cell_length_a   6.53025067
_cell_length_b   8.37231008
_cell_length_c   42.40860600
_cell_angle_alpha   90.94701037
_cell_angle_beta   94.41568601
_cell_angle_gamma   67.04605902
_symmetry_Int_Tables_number   1
_chemical_formula_structural   Mg3Pb
_chemical_formula_sum   'Mg42 Pb14'
_cell_volume   2128.45900269
_cell_formula_units_Z   14
loop_
 _symmetry_equiv_pos_site_id
 _symmetry_equiv_pos_as_xyz
  1  'x, y, z'
loop_
 _atom_site_type_symbol
 _atom_site_label
 _atom_site_symmetry_multiplicity
 _atom_site_fract_x
 _atom_site_fract_y
 _atom_site_fract_z
 _atom_site_occupancy
  Mg  Mg0  1  0.05812900  0.93606500  0.23414100  1
  Mg  Mg1  1  0.65859200  0.20242200  0.18974800  1
  Mg  Mg2  1  0.14691500  0.20242200  0.18974800  1
  Mg  Mg3  1  0.67126700  0.25212300  0.26479800  1
  Mg  Mg4  1  0.15958900  0.25212300  0.26479800  1
  Mg  Mg5  1  0.76005300  0.51848100  0.22040500  1
  Mg  Mg6  1  0.87631100  0.39061000  0.32505000  1
  Mg  Mg7  1  0.47677400  0.65696800  0.28065700  1
  Mg  Mg8  1  0.96509700  0.65696800  0.28065700  1
  Mg  Mg9  1  0.48944900  0.70666900  0.35570700  1
  Mg  Mg10  1  0.97777100  0.70666900  0.35570700  1
  Mg  Mg11  1  0.57823500  0.97302600  0.31131400  1
  Mg  Mg12  1  0.69449300  0.84515500  0.41595900  1
  Mg  Mg13  1  0.29495600  0.11151300  0.37156600  1
  Mg  Mg14  1  0.78327900  0.11151300  0.37156600  1
  Mg  Mg15  1  0.30763100  0.16121400  0.44661600  1
  Mg  Mg16  1  0.79595300  0.16121400  0.44661600  1
  Mg  Mg17  1  0.39641600  0.42757200  0.40222300  1
  Mg  Mg18  1  0.51267400  0.29970100  0.50686800  1
  Mg  Mg19  1  0.11313800  0.56605900  0.46247500  1
  Mg  Mg20  1  0.60146000  0.56605900  0.46247500  1
  Mg  Mg21  1  0.12581200  0.61576000  0.53752500  1
  Mg  Mg22  1  0.61413500  0.61576000  0.53752500  1
  Mg  Mg23  1  0.21459800  0.88211700  0.49313200  1
  Mg  Mg24  1  0.33085600  0.75424600  0.59777700  1
  Mg  Mg25  1  0.93132000  0.02060400  0.55338400  1
  Mg  Mg26  1  0.41964200  0.02060400  0.55338400  1
  Mg  Mg27  1  0.94399400  0.07030500  0.62843400  1
  Mg  Mg28  1  0.43231700  0.07030500  0.62843400  1
  Mg  Mg29  1  0.03278000  0.33666300  0.58404100  1
  Mg  Mg30  1  0.14903800  0.20879200  0.68868600  1
  Mg  Mg31  1  0.74950200  0.47515000  0.64429300  1
  Mg  Mg32  1  0.23782400  0.47515000  0.64429300  1
  Mg  Mg33  1  0.76217600  0.52485000  0.71934300  1
  Mg  Mg34  1  0.25049800  0.52485000  0.71934300  1
  Mg  Mg35  1  0.85096200  0.79120800  0.67495000  1
  Mg  Mg36  1  0.96722000  0.66333700  0.77959500  1
  Mg  Mg37  1  0.56768300  0.92969500  0.73520200  1
  Mg  Mg38  1  0.05600600  0.92969500  0.73520200  1
  Mg  Mg39  1  0.58035800  0.97939600  0.81025200  1
  Mg  Mg40  1  0.06868000  0.97939600  0.81025200  1
  Mg  Mg41  1  0.66914400  0.24575400  0.76585900  1
  Pb  Pb42  1  0.56060600  0.93181800  0.23484800  1
  Pb  Pb43  1  0.25757600  0.52272700  0.21969700  1
  Pb  Pb44  1  0.37878800  0.38636400  0.32575800  1
  Pb  Pb45  1  0.07575800  0.97727300  0.31060600  1
  Pb  Pb46  1  0.19697000  0.84090900  0.41666700  1
  Pb  Pb47  1  0.89393900  0.43181800  0.40151500  1
  Pb  Pb48  1  0.01515200  0.29545500  0.50757600  1
  Pb  Pb49  1  0.71212100  0.88636400  0.49242400  1
  Pb  Pb50  1  0.83333300  0.75000000  0.59848500  1
  Pb  Pb51  1  0.53030300  0.34090900  0.58333300  1
  Pb  Pb52  1  0.65151500  0.20454500  0.68939400  1
  Pb  Pb53  1  0.34848500  0.79545500  0.67424200  1
  Pb  Pb54  1  0.46969700  0.65909100  0.78030300  1
  Pb  Pb55  1  0.16666700  0.25000000  0.76515200  1
