# generated using pymatgen
data_Mg25Ir39
_symmetry_space_group_name_H-M   'P 1'
_cell_length_a   9.72091470
_cell_length_b   10.02721169
_cell_length_c   42.99921300
_cell_angle_alpha   94.02267208
_cell_angle_beta   94.30460560
_cell_angle_gamma   92.31047724
_symmetry_Int_Tables_number   1
_chemical_formula_structural   Mg25Ir39
_chemical_formula_sum   'Mg50 Ir78'
_cell_volume   4164.79203527
_cell_formula_units_Z   2
loop_
 _symmetry_equiv_pos_site_id
 _symmetry_equiv_pos_as_xyz
  1  'x, y, z'
loop_
 _atom_site_type_symbol
 _atom_site_label
 _atom_site_symmetry_multiplicity
 _atom_site_fract_x
 _atom_site_fract_y
 _atom_site_fract_z
 _atom_site_occupancy
  Mg  Mg0  1  0.62177000  0.14088100  0.21952000  1
  Mg  Mg1  1  0.66935300  0.19043500  0.29248000  1
  Mg  Mg2  1  0.03021400  0.56760100  0.26221300  1
  Mg  Mg3  1  0.26090900  0.76371500  0.24978700  1
  Mg  Mg4  1  0.53756800  0.68958600  0.28247300  1
  Mg  Mg5  1  0.75355500  0.64173000  0.22952700  1
  Mg  Mg6  1  0.34340300  0.04044700  0.21355900  1
  Mg  Mg7  1  0.94771900  0.29086900  0.29844100  1
  Mg  Mg8  1  0.12374500  0.28635800  0.23575300  1
  Mg  Mg9  1  0.16737800  0.04495800  0.27624700  1
  Mg  Mg10  1  0.52177000  0.44088100  0.31952000  1
  Mg  Mg11  1  0.56935300  0.49043500  0.39248000  1
  Mg  Mg12  1  0.93021400  0.86760100  0.36221300  1
  Mg  Mg13  1  0.16090900  0.06371500  0.34978700  1
  Mg  Mg14  1  0.43756800  0.98958600  0.38247300  1
  Mg  Mg15  1  0.65355500  0.94173000  0.32952700  1
  Mg  Mg16  1  0.24340300  0.34044700  0.31355900  1
  Mg  Mg17  1  0.84771900  0.59086900  0.39844100  1
  Mg  Mg18  1  0.02374500  0.58635800  0.33575300  1
  Mg  Mg19  1  0.06737800  0.34495800  0.37624700  1
  Mg  Mg20  1  0.42177000  0.74088100  0.41952000  1
  Mg  Mg21  1  0.46935300  0.79043500  0.49248000  1
  Mg  Mg22  1  0.83021400  0.16760100  0.46221300  1
  Mg  Mg23  1  0.06090900  0.36371500  0.44978700  1
  Mg  Mg24  1  0.33756800  0.28958600  0.48247300  1
  Mg  Mg25  1  0.55355500  0.24173000  0.42952700  1
  Mg  Mg26  1  0.14340300  0.64044700  0.41355900  1
  Mg  Mg27  1  0.74771900  0.89086900  0.49844100  1
  Mg  Mg28  1  0.92374500  0.88635800  0.43575300  1
  Mg  Mg29  1  0.96737800  0.64495800  0.47624700  1
  Mg  Mg30  1  0.32177000  0.04088100  0.51952000  1
  Mg  Mg31  1  0.36935300  0.09043500  0.59248000  1
  Mg  Mg32  1  0.73021400  0.46760100  0.56221300  1
  Mg  Mg33  1  0.96090900  0.66371500  0.54978700  1
  Mg  Mg34  1  0.23756800  0.58958600  0.58247300  1
  Mg  Mg35  1  0.45355500  0.54173000  0.52952700  1
  Mg  Mg36  1  0.04340300  0.94044700  0.51355900  1
  Mg  Mg37  1  0.64771900  0.19086900  0.59844100  1
  Mg  Mg38  1  0.82374500  0.18635800  0.53575300  1
  Mg  Mg39  1  0.86737800  0.94495800  0.57624700  1
  Mg  Mg40  1  0.22177000  0.34088100  0.61952000  1
  Mg  Mg41  1  0.26935300  0.39043500  0.69248000  1
  Mg  Mg42  1  0.63021400  0.76760100  0.66221300  1
  Mg  Mg43  1  0.86090900  0.96371500  0.64978700  1
  Mg  Mg44  1  0.13756800  0.88958600  0.68247300  1
  Mg  Mg45  1  0.35355500  0.84173000  0.62952700  1
  Mg  Mg46  1  0.94340300  0.24044700  0.61355900  1
  Mg  Mg47  1  0.54771900  0.49086900  0.69844100  1
  Mg  Mg48  1  0.72374500  0.48635800  0.63575300  1
  Mg  Mg49  1  0.76737800  0.24495800  0.67624700  1
  Ir  Ir50  1  0.39752400  0.22481900  0.26628000  1
  Ir  Ir51  1  0.89359800  0.10649700  0.24572000  1
  Ir  Ir52  1  0.77447000  0.50079800  0.29120400  1
  Ir  Ir53  1  0.51665300  0.83051800  0.22079600  1
  Ir  Ir54  1  0.46675000  0.98022500  0.27069800  1
  Ir  Ir55  1  0.82437200  0.35109100  0.24130200  1
  Ir  Ir56  1  0.19556100  0.51565800  0.20600000  1
  Ir  Ir57  1  0.70953300  0.92098500  0.26010100  1
  Ir  Ir58  1  0.58159000  0.41033100  0.25189900  1
  Ir  Ir59  1  0.83417600  0.75172900  0.29572900  1
  Ir  Ir60  1  0.45694700  0.57958700  0.21627100  1
  Ir  Ir61  1  0.32100400  0.47984200  0.26209200  1
  Ir  Ir62  1  0.97011800  0.85147400  0.24990800  1
  Ir  Ir63  1  0.01690600  0.71111100  0.20312000  1
  Ir  Ir64  1  0.37421700  0.32020500  0.20888000  1
  Ir  Ir65  1  0.29752400  0.52481900  0.36628000  1
  Ir  Ir66  1  0.79359800  0.40649700  0.34572000  1
  Ir  Ir67  1  0.67447000  0.80079800  0.39120400  1
  Ir  Ir68  1  0.41665300  0.13051800  0.32079600  1
  Ir  Ir69  1  0.36675000  0.28022500  0.37069800  1
  Ir  Ir70  1  0.72437200  0.65109100  0.34130200  1
  Ir  Ir71  1  0.09556100  0.81565800  0.30600000  1
  Ir  Ir72  1  0.60953300  0.22098500  0.36010100  1
  Ir  Ir73  1  0.48159000  0.71033100  0.35189900  1
  Ir  Ir74  1  0.73417600  0.05172900  0.39572900  1
  Ir  Ir75  1  0.35694700  0.87958700  0.31627100  1
  Ir  Ir76  1  0.22100400  0.77984200  0.36209200  1
  Ir  Ir77  1  0.87011800  0.15147400  0.34990800  1
  Ir  Ir78  1  0.91690600  0.01111100  0.30312000  1
  Ir  Ir79  1  0.27421700  0.62020500  0.30888000  1
  Ir  Ir80  1  0.19752400  0.82481900  0.46628000  1
  Ir  Ir81  1  0.69359800  0.70649700  0.44572000  1
  Ir  Ir82  1  0.57447000  0.10079800  0.49120400  1
  Ir  Ir83  1  0.31665300  0.43051800  0.42079600  1
  Ir  Ir84  1  0.26675000  0.58022500  0.47069800  1
  Ir  Ir85  1  0.62437200  0.95109100  0.44130200  1
  Ir  Ir86  1  0.99556100  0.11565800  0.40600000  1
  Ir  Ir87  1  0.50953300  0.52098500  0.46010100  1
  Ir  Ir88  1  0.38159000  0.01033100  0.45189900  1
  Ir  Ir89  1  0.63417600  0.35172900  0.49572900  1
  Ir  Ir90  1  0.25694700  0.17958700  0.41627100  1
  Ir  Ir91  1  0.12100400  0.07984200  0.46209200  1
  Ir  Ir92  1  0.77011800  0.45147400  0.44990800  1
  Ir  Ir93  1  0.81690600  0.31111100  0.40312000  1
  Ir  Ir94  1  0.17421700  0.92020500  0.40888000  1
  Ir  Ir95  1  0.09752400  0.12481900  0.56628000  1
  Ir  Ir96  1  0.59359800  0.00649700  0.54572000  1
  Ir  Ir97  1  0.47447000  0.40079800  0.59120400  1
  Ir  Ir98  1  0.21665300  0.73051800  0.52079600  1
  Ir  Ir99  1  0.16675000  0.88022500  0.57069800  1
  Ir  Ir100  1  0.52437200  0.25109100  0.54130200  1
  Ir  Ir101  1  0.89556100  0.41565800  0.50600000  1
  Ir  Ir102  1  0.40953300  0.82098500  0.56010100  1
  Ir  Ir103  1  0.28159000  0.31033100  0.55189900  1
  Ir  Ir104  1  0.53417600  0.65172900  0.59572900  1
  Ir  Ir105  1  0.15694700  0.47958700  0.51627100  1
  Ir  Ir106  1  0.02100400  0.37984200  0.56209200  1
  Ir  Ir107  1  0.67011800  0.75147400  0.54990800  1
  Ir  Ir108  1  0.71690600  0.61111100  0.50312000  1
  Ir  Ir109  1  0.07421700  0.22020500  0.50888000  1
  Ir  Ir110  1  0.99752400  0.42481900  0.66628000  1
  Ir  Ir111  1  0.49359800  0.30649700  0.64572000  1
  Ir  Ir112  1  0.37447000  0.70079800  0.69120400  1
  Ir  Ir113  1  0.11665300  0.03051800  0.62079600  1
  Ir  Ir114  1  0.06675000  0.18022500  0.67069800  1
  Ir  Ir115  1  0.42437200  0.55109100  0.64130200  1
  Ir  Ir116  1  0.79556100  0.71565800  0.60600000  1
  Ir  Ir117  1  0.30953300  0.12098500  0.66010100  1
  Ir  Ir118  1  0.18159000  0.61033100  0.65189900  1
  Ir  Ir119  1  0.43417600  0.95172900  0.69572900  1
  Ir  Ir120  1  0.05694700  0.77958700  0.61627100  1
  Ir  Ir121  1  0.92100400  0.67984200  0.66209200  1
  Ir  Ir122  1  0.57011800  0.05147400  0.64990800  1
  Ir  Ir123  1  0.61690600  0.91111100  0.60312000  1
  Ir  Ir124  1  0.97421700  0.52020500  0.60888000  1
  Ir  Ir125  1  0.69556100  0.01565800  0.70600000  1
  Ir  Ir126  1  0.51690600  0.21111100  0.70312000  1
  Ir  Ir127  1  0.87421700  0.82020500  0.70888000  1
