# generated using pymatgen
data_Sr4Mg35
_symmetry_space_group_name_H-M   'P 1'
_cell_length_a   10.60291300
_cell_length_b   14.66206680
_cell_length_c   47.66603800
_cell_angle_alpha   92.42755603
_cell_angle_beta   90.00000000
_cell_angle_gamma   68.80296164
_symmetry_Int_Tables_number   1
_chemical_formula_structural   Sr4Mg35
_chemical_formula_sum   'Sr12 Mg105'
_cell_volume   6901.70350145
_cell_formula_units_Z   3
loop_
 _symmetry_equiv_pos_site_id
 _symmetry_equiv_pos_as_xyz
  1  'x, y, z'
loop_
 _atom_site_type_symbol
 _atom_site_label
 _atom_site_symmetry_multiplicity
 _atom_site_fract_x
 _atom_site_fract_y
 _atom_site_fract_z
 _atom_site_occupancy
  Sr  Sr0  1  0.48878500  0.02242900  0.30325800  1
  Sr  Sr1  1  0.20307100  0.59385800  0.27944900  1
  Sr  Sr2  1  0.77450000  0.45100100  0.32706800  1
  Sr  Sr3  1  0.91735700  0.16528600  0.25563900  1
  Sr  Sr4  1  0.20307100  0.59385800  0.44611500  1
  Sr  Sr5  1  0.91735700  0.16528600  0.42230600  1
  Sr  Sr6  1  0.48878500  0.02242900  0.46992500  1
  Sr  Sr7  1  0.63164300  0.73671500  0.39849600  1
  Sr  Sr8  1  0.91735700  0.16528600  0.58897200  1
  Sr  Sr9  1  0.63164300  0.73671500  0.56516300  1
  Sr  Sr10  1  0.20307100  0.59385800  0.61278200  1
  Sr  Sr11  1  0.34592800  0.30814400  0.54135300  1
  Mg  Mg12  1  0.91033500  0.17933000  0.34147700  1
  Mg  Mg13  1  0.05146600  0.39102700  0.27091100  1
  Mg  Mg14  1  0.55750600  0.39102700  0.27091100  1
  Mg  Mg15  1  0.26488900  0.96418100  0.24652600  1
  Mg  Mg16  1  0.10361300  0.79277400  0.32917800  1
  Mg  Mg17  1  0.38932800  0.22134500  0.35298700  1
  Mg  Mg18  1  0.58824300  0.82351400  0.25352900  1
  Mg  Mg19  1  0.30252900  0.39494200  0.22972000  1
  Mg  Mg20  1  0.48878500  0.02242900  0.21992500  1
  Mg  Mg21  1  0.98878500  0.52242900  0.21992500  1
  Mg  Mg22  1  0.48878500  0.52242900  0.21992500  1
  Mg  Mg23  1  0.34592800  0.80814400  0.29135300  1
  Mg  Mg24  1  0.84592800  0.80814400  0.29135300  1
  Mg  Mg25  1  0.34592800  0.30814400  0.29135300  1
  Mg  Mg26  1  0.56240100  0.18115800  0.25034800  1
  Mg  Mg27  1  0.92932100  0.73878500  0.23113900  1
  Mg  Mg28  1  0.55043600  0.60765900  0.27484800  1
  Mg  Mg29  1  0.14142000  0.00862800  0.30785900  1
  Mg  Mg30  1  0.76253500  0.87750200  0.35156700  1
  Mg  Mg31  1  0.43541600  0.43512900  0.33235800  1
  Mg  Mg32  1  0.84190400  0.60765900  0.27484800  1
  Mg  Mg33  1  0.12945500  0.43512900  0.33235800  1
  Mg  Mg34  1  0.33189300  0.73878500  0.23113900  1
  Mg  Mg35  1  0.35996300  0.87750200  0.35156700  1
  Mg  Mg36  1  0.25644100  0.18115800  0.25034800  1
  Mg  Mg37  1  0.84995200  0.00862800  0.30785900  1
  Mg  Mg38  1  0.42696700  0.65210600  0.33618100  1
  Mg  Mg39  1  0.64039000  0.22526000  0.31179600  1
  Mg  Mg40  1  0.78152100  0.43695700  0.24123000  1
  Mg  Mg41  1  0.06551000  0.86898000  0.26388900  1
  Mg  Mg42  1  0.92092700  0.65210600  0.33618100  1
  Mg  Mg43  1  0.77092900  0.96418100  0.24652600  1
  Mg  Mg44  1  0.62634600  0.74730700  0.31881800  1
  Mg  Mg45  1  0.13435000  0.22526000  0.31179600  1
  Mg  Mg46  1  0.62462100  0.75075900  0.48433400  1
  Mg  Mg47  1  0.76575200  0.96245600  0.41376800  1
  Mg  Mg48  1  0.27179200  0.96245600  0.41376800  1
  Mg  Mg49  1  0.97917500  0.53561000  0.38938300  1
  Mg  Mg50  1  0.81789900  0.36420200  0.47203500  1
  Mg  Mg51  1  0.10361300  0.79277400  0.49584400  1
  Mg  Mg52  1  0.30252900  0.39494200  0.39638600  1
  Mg  Mg53  1  0.01681500  0.96637100  0.37257700  1
  Mg  Mg54  1  0.20307100  0.59385800  0.36278200  1
  Mg  Mg55  1  0.70307100  0.09385800  0.36278200  1
  Mg  Mg56  1  0.20307100  0.09385800  0.36278200  1
  Mg  Mg57  1  0.06021400  0.37957200  0.43421100  1
  Mg  Mg58  1  0.56021400  0.37957200  0.43421100  1
  Mg  Mg59  1  0.06021400  0.87957200  0.43421100  1
  Mg  Mg60  1  0.27668700  0.75258700  0.39320600  1
  Mg  Mg61  1  0.64360700  0.31021400  0.37399700  1
  Mg  Mg62  1  0.26472200  0.17908800  0.41770500  1
  Mg  Mg63  1  0.85570600  0.58005600  0.45071600  1
  Mg  Mg64  1  0.47682100  0.44893000  0.49442400  1
  Mg  Mg65  1  0.14970200  0.00655700  0.47521500  1
  Mg  Mg66  1  0.55619000  0.17908800  0.41770500  1
  Mg  Mg67  1  0.84374100  0.00655700  0.47521500  1
  Mg  Mg68  1  0.04617900  0.31021400  0.37399700  1
  Mg  Mg69  1  0.07424900  0.44893000  0.49442400  1
  Mg  Mg70  1  0.97072600  0.75258700  0.39320600  1
  Mg  Mg71  1  0.56423800  0.58005600  0.45071600  1
  Mg  Mg72  1  0.14125300  0.22353400  0.47903800  1
  Mg  Mg73  1  0.35467600  0.79668900  0.45465300  1
  Mg  Mg74  1  0.49580700  0.00838600  0.38408700  1
  Mg  Mg75  1  0.77979600  0.44040900  0.40674600  1
  Mg  Mg76  1  0.63521300  0.22353400  0.47903800  1
  Mg  Mg77  1  0.48521500  0.53561000  0.38938300  1
  Mg  Mg78  1  0.34063200  0.31873600  0.46167500  1
  Mg  Mg79  1  0.84863600  0.79668900  0.45465300  1
  Mg  Mg80  1  0.33890600  0.32218700  0.62719100  1
  Mg  Mg81  1  0.48003800  0.53388400  0.55662500  1
  Mg  Mg82  1  0.98607800  0.53388400  0.55662500  1
  Mg  Mg83  1  0.69346100  0.10703900  0.53224000  1
  Mg  Mg84  1  0.53218500  0.93563100  0.61489200  1
  Mg  Mg85  1  0.81789900  0.36420200  0.63870100  1
  Mg  Mg86  1  0.01681500  0.96637100  0.53924400  1
  Mg  Mg87  1  0.73110000  0.53779900  0.51543400  1
  Mg  Mg88  1  0.91735700  0.16528600  0.50563900  1
  Mg  Mg89  1  0.41735700  0.66528600  0.50563900  1
  Mg  Mg90  1  0.91735700  0.66528600  0.50563900  1
  Mg  Mg91  1  0.77450000  0.95100100  0.57706800  1
  Mg  Mg92  1  0.27450000  0.95100100  0.57706800  1
  Mg  Mg93  1  0.77450000  0.45100100  0.57706800  1
  Mg  Mg94  1  0.99097200  0.32401600  0.53606300  1
  Mg  Mg95  1  0.35789300  0.88164300  0.51685400  1
  Mg  Mg96  1  0.97900800  0.75051700  0.56056200  1
  Mg  Mg97  1  0.56999200  0.15148500  0.59357300  1
  Mg  Mg98  1  0.19110600  0.02035900  0.63728200  1
  Mg  Mg99  1  0.86398700  0.57798600  0.61807300  1
  Mg  Mg100  1  0.27047600  0.75051700  0.56056200  1
  Mg  Mg101  1  0.55802700  0.57798600  0.61807300  1
  Mg  Mg102  1  0.76046500  0.88164300  0.51685400  1
  Mg  Mg103  1  0.78853500  0.02035900  0.63728200  1
  Mg  Mg104  1  0.68501200  0.32401600  0.53606300  1
  Mg  Mg105  1  0.27852400  0.15148500  0.59357300  1
  Mg  Mg106  1  0.85553900  0.79496300  0.62189500  1
  Mg  Mg107  1  0.06896100  0.36811700  0.59751000  1
  Mg  Mg108  1  0.21009300  0.57981400  0.52694400  1
  Mg  Mg109  1  0.49408100  0.01183700  0.54960300  1
  Mg  Mg110  1  0.34949900  0.79496300  0.62189500  1
  Mg  Mg111  1  0.19950100  0.10703900  0.53224000  1
  Mg  Mg112  1  0.05491800  0.89016400  0.60453200  1
  Mg  Mg113  1  0.56292100  0.36811700  0.59751000  1
  Mg  Mg114  1  0.63164300  0.73671500  0.64849600  1
  Mg  Mg115  1  0.13164300  0.23671500  0.64849600  1
  Mg  Mg116  1  0.63164300  0.23671500  0.64849600  1
