# generated using pymatgen
data_Ce2Mg
_symmetry_space_group_name_H-M   'P 1'
_cell_length_a   3.15985600
_cell_length_b   9.39222169
_cell_length_c   41.95864800
_cell_angle_alpha   90.00000000
_cell_angle_beta   90.00000000
_cell_angle_gamma   99.68414706
_symmetry_Int_Tables_number   1
_chemical_formula_structural   Ce2Mg
_chemical_formula_sum   'Ce20 Mg10'
_cell_volume   1227.50683780
_cell_formula_units_Z   10
loop_
 _symmetry_equiv_pos_site_id
 _symmetry_equiv_pos_as_xyz
  1  'x, y, z'
loop_
 _atom_site_type_symbol
 _atom_site_label
 _atom_site_symmetry_multiplicity
 _atom_site_fract_x
 _atom_site_fract_y
 _atom_site_fract_z
 _atom_site_occupancy
  Ce  Ce0  1  0.87022800  0.74045600  0.21875000  1
  Ce  Ce1  1  0.20306500  0.40613000  0.21875000  1
  Ce  Ce2  1  0.79693500  0.59387000  0.28125000  1
  Ce  Ce3  1  0.12977200  0.25954400  0.28125000  1
  Ce  Ce4  1  0.87022800  0.74045600  0.34375000  1
  Ce  Ce5  1  0.20306500  0.40613000  0.34375000  1
  Ce  Ce6  1  0.79693500  0.59387000  0.40625000  1
  Ce  Ce7  1  0.12977200  0.25954400  0.40625000  1
  Ce  Ce8  1  0.87022800  0.74045600  0.46875000  1
  Ce  Ce9  1  0.20306500  0.40613000  0.46875000  1
  Ce  Ce10  1  0.79693500  0.59387000  0.53125000  1
  Ce  Ce11  1  0.12977200  0.25954400  0.53125000  1
  Ce  Ce12  1  0.87022800  0.74045600  0.59375000  1
  Ce  Ce13  1  0.20306500  0.40613000  0.59375000  1
  Ce  Ce14  1  0.79693500  0.59387000  0.65625000  1
  Ce  Ce15  1  0.12977200  0.25954400  0.65625000  1
  Ce  Ce16  1  0.87022800  0.74045600  0.71875000  1
  Ce  Ce17  1  0.20306500  0.40613000  0.71875000  1
  Ce  Ce18  1  0.79693500  0.59387000  0.78125000  1
  Ce  Ce19  1  0.12977200  0.25954400  0.78125000  1
  Mg  Mg20  1  0.54096300  0.08192600  0.21875000  1
  Mg  Mg21  1  0.45903700  0.91807400  0.28125000  1
  Mg  Mg22  1  0.54096300  0.08192600  0.34375000  1
  Mg  Mg23  1  0.45903700  0.91807400  0.40625000  1
  Mg  Mg24  1  0.54096300  0.08192600  0.46875000  1
  Mg  Mg25  1  0.45903700  0.91807400  0.53125000  1
  Mg  Mg26  1  0.54096300  0.08192600  0.59375000  1
  Mg  Mg27  1  0.45903700  0.91807400  0.65625000  1
  Mg  Mg28  1  0.54096300  0.08192600  0.71875000  1
  Mg  Mg29  1  0.45903700  0.91807400  0.78125000  1
