# generated using pymatgen
data_Mg3Sb2
_symmetry_space_group_name_H-M   'P 1'
_cell_length_a   4.60697300
_cell_length_b   8.59897491
_cell_length_c   45.45633900
_cell_angle_alpha   90.15053946
_cell_angle_beta   90.00000000
_cell_angle_gamma   74.46189089
_symmetry_Int_Tables_number   1
_chemical_formula_structural   Mg3Sb2
_chemical_formula_sum   'Mg24 Sb16'
_cell_volume   1734.94412858
_cell_formula_units_Z   8
loop_
 _symmetry_equiv_pos_site_id
 _symmetry_equiv_pos_as_xyz
  1  'x, y, z'
loop_
 _atom_site_type_symbol
 _atom_site_label
 _atom_site_symmetry_multiplicity
 _atom_site_fract_x
 _atom_site_fract_y
 _atom_site_fract_z
 _atom_site_occupancy
  Mg  Mg0  1  0.80769200  0.88461500  0.23076900  1
  Mg  Mg1  1  0.58953800  0.32092500  0.20773300  1
  Mg  Mg2  1  0.02584700  0.44830600  0.25380500  1
  Mg  Mg3  1  0.42307700  0.65384600  0.30769200  1
  Mg  Mg4  1  0.20492200  0.09015500  0.28465700  1
  Mg  Mg5  1  0.64123200  0.21753700  0.33072800  1
  Mg  Mg6  1  0.03846200  0.42307700  0.38461500  1
  Mg  Mg7  1  0.82030700  0.85938600  0.36158000  1
  Mg  Mg8  1  0.25661600  0.98676800  0.40765100  1
  Mg  Mg9  1  0.65384600  0.19230800  0.46153800  1
  Mg  Mg10  1  0.43569200  0.62861700  0.43850300  1
  Mg  Mg11  1  0.87200100  0.75599900  0.48457400  1
  Mg  Mg12  1  0.26923100  0.96153800  0.53846200  1
  Mg  Mg13  1  0.05107600  0.39784800  0.51542600  1
  Mg  Mg14  1  0.48738500  0.52522900  0.56149700  1
  Mg  Mg15  1  0.88461500  0.73076900  0.61538500  1
  Mg  Mg16  1  0.66646100  0.16707800  0.59234900  1
  Mg  Mg17  1  0.10277000  0.29446000  0.63842000  1
  Mg  Mg18  1  0.50000000  0.50000000  0.69230800  1
  Mg  Mg19  1  0.28184500  0.93630900  0.66927200  1
  Mg  Mg20  1  0.71815500  0.06369100  0.71534300  1
  Mg  Mg21  1  0.11538500  0.26923100  0.76923100  1
  Mg  Mg22  1  0.89723000  0.70554000  0.74619500  1
  Mg  Mg23  1  0.33353900  0.83292200  0.79226700  1
  Sb  Sb24  1  0.43288900  0.63422200  0.23906300  1
  Sb  Sb25  1  0.18249500  0.13500900  0.22247500  1
  Sb  Sb26  1  0.04827400  0.40345200  0.31598600  1
  Sb  Sb27  1  0.79788000  0.90424000  0.29939800  1
  Sb  Sb28  1  0.66365800  0.17268300  0.39290900  1
  Sb  Sb29  1  0.41326500  0.67347100  0.37632100  1
  Sb  Sb30  1  0.27904300  0.94191400  0.46983200  1
  Sb  Sb31  1  0.02864900  0.44270100  0.45324500  1
  Sb  Sb32  1  0.89442800  0.71114500  0.54675500  1
  Sb  Sb33  1  0.64403400  0.21193200  0.53016800  1
  Sb  Sb34  1  0.50981200  0.48037500  0.62367900  1
  Sb  Sb35  1  0.25941900  0.98116300  0.60709100  1
  Sb  Sb36  1  0.12519700  0.24960600  0.70060200  1
  Sb  Sb37  1  0.87480300  0.75039400  0.68401400  1
  Sb  Sb38  1  0.74058100  0.01883700  0.77752500  1
  Sb  Sb39  1  0.49018800  0.51962500  0.76093700  1
