# generated using pymatgen
data_Ce12Mg23
_symmetry_space_group_name_H-M   'P 1'
_cell_length_a   3.18877500
_cell_length_b   18.55768369
_cell_length_c   50.11430100
_cell_angle_alpha   94.53326837
_cell_angle_beta   90.00000000
_cell_angle_gamma   90.00000000
_symmetry_Int_Tables_number   1
_chemical_formula_structural   Ce12Mg23
_chemical_formula_sum   'Ce24 Mg46'
_cell_volume   2956.30031137
_cell_formula_units_Z   2
loop_
 _symmetry_equiv_pos_site_id
 _symmetry_equiv_pos_as_xyz
  1  'x, y, z'
loop_
 _atom_site_type_symbol
 _atom_site_label
 _atom_site_symmetry_multiplicity
 _atom_site_fract_x
 _atom_site_fract_y
 _atom_site_fract_z
 _atom_site_occupancy
  Ce  Ce0  1  0.00000000  0.55205700  0.21279000  1
  Ce  Ce1  1  0.50000000  0.98228300  0.22054300  1
  Ce  Ce2  1  0.50000000  0.10205700  0.26279000  1
  Ce  Ce3  1  0.00000000  0.53228300  0.27054300  1
  Ce  Ce4  1  0.00000000  0.65205700  0.31279000  1
  Ce  Ce5  1  0.50000000  0.08228300  0.32054300  1
  Ce  Ce6  1  0.50000000  0.20205700  0.36279000  1
  Ce  Ce7  1  0.00000000  0.63228300  0.37054300  1
  Ce  Ce8  1  0.00000000  0.75205700  0.41279000  1
  Ce  Ce9  1  0.50000000  0.18228300  0.42054300  1
  Ce  Ce10  1  0.50000000  0.30205700  0.46279000  1
  Ce  Ce11  1  0.00000000  0.73228300  0.47054300  1
  Ce  Ce12  1  0.00000000  0.85205700  0.51279000  1
  Ce  Ce13  1  0.50000000  0.28228300  0.52054300  1
  Ce  Ce14  1  0.50000000  0.40205700  0.56279000  1
  Ce  Ce15  1  0.00000000  0.83228300  0.57054300  1
  Ce  Ce16  1  0.00000000  0.95205700  0.61279000  1
  Ce  Ce17  1  0.50000000  0.38228300  0.62054300  1
  Ce  Ce18  1  0.50000000  0.50205700  0.66279000  1
  Ce  Ce19  1  0.00000000  0.93228300  0.67054300  1
  Ce  Ce20  1  0.00000000  0.05205700  0.71279000  1
  Ce  Ce21  1  0.50000000  0.48228300  0.72054300  1
  Ce  Ce22  1  0.50000000  0.60205700  0.76279000  1
  Ce  Ce23  1  0.00000000  0.03228300  0.77054300  1
  Mg  Mg24  1  0.00000000  0.95413700  0.27922600  1
  Mg  Mg25  1  0.50000000  0.81320200  0.29488500  1
  Mg  Mg26  1  1.00000000  0.82113900  0.23844800  1
  Mg  Mg27  1  0.50000000  0.68020400  0.25410700  1
  Mg  Mg28  1  0.50000000  0.40413700  0.22922600  1
  Mg  Mg29  1  0.00000000  0.26320200  0.24488500  1
  Mg  Mg30  1  0.50000000  0.37113900  0.28844800  1
  Mg  Mg31  1  0.00000000  0.13020400  0.20410700  1
  Mg  Mg32  1  0.00000000  0.05413700  0.37922600  1
  Mg  Mg33  1  0.50000000  0.91320200  0.39488500  1
  Mg  Mg34  1  0.00000000  0.92113900  0.33844800  1
  Mg  Mg35  1  0.50000000  0.78020400  0.35410700  1
  Mg  Mg36  1  0.50000000  0.50413700  0.32922600  1
  Mg  Mg37  1  0.00000000  0.36320200  0.34488500  1
  Mg  Mg38  1  0.50000000  0.47113900  0.38844800  1
  Mg  Mg39  1  0.00000000  0.23020400  0.30410700  1
  Mg  Mg40  1  0.00000000  0.15413700  0.47922600  1
  Mg  Mg41  1  0.50000000  0.01320200  0.49488500  1
  Mg  Mg42  1  0.00000000  0.02113900  0.43844800  1
  Mg  Mg43  1  0.50000000  0.88020400  0.45410700  1
  Mg  Mg44  1  0.50000000  0.60413700  0.42922600  1
  Mg  Mg45  1  0.00000000  0.46320200  0.44488500  1
  Mg  Mg46  1  0.50000000  0.57113900  0.48844800  1
  Mg  Mg47  1  0.00000000  0.33020400  0.40410700  1
  Mg  Mg48  1  0.00000000  0.25413700  0.57922600  1
  Mg  Mg49  1  0.50000000  0.11320200  0.59488500  1
  Mg  Mg50  1  0.00000000  0.12113900  0.53844800  1
  Mg  Mg51  1  0.50000000  0.98020400  0.55410700  1
  Mg  Mg52  1  0.50000000  0.70413700  0.52922600  1
  Mg  Mg53  1  0.00000000  0.56320200  0.54488500  1
  Mg  Mg54  1  0.50000000  0.67113900  0.58844800  1
  Mg  Mg55  1  0.00000000  0.43020400  0.50410700  1
  Mg  Mg56  1  0.00000000  0.35413700  0.67922600  1
  Mg  Mg57  1  0.50000000  0.21320200  0.69488500  1
  Mg  Mg58  1  0.00000000  0.22113900  0.63844800  1
  Mg  Mg59  1  0.50000000  0.08020400  0.65410700  1
  Mg  Mg60  1  0.50000000  0.80413700  0.62922600  1
  Mg  Mg61  1  0.00000000  0.66320200  0.64488500  1
  Mg  Mg62  1  0.50000000  0.77113900  0.68844800  1
  Mg  Mg63  1  0.00000000  0.53020400  0.60410700  1
  Mg  Mg64  1  0.00000000  0.45413700  0.77922600  1
  Mg  Mg65  1  0.00000000  0.32113900  0.73844800  1
  Mg  Mg66  1  0.50000000  0.18020400  0.75410700  1
  Mg  Mg67  1  0.50000000  0.90413700  0.72922600  1
  Mg  Mg68  1  1.00000000  0.76320200  0.74488500  1
  Mg  Mg69  1  0.00000000  0.63020400  0.70410700  1
