# generated using pymatgen
data_Mg13Hg12
_symmetry_space_group_name_H-M   'P 1'
_cell_length_a   4.95411600
_cell_length_b   4.95411660
_cell_length_c   42.47270100
_cell_angle_alpha   90.00000000
_cell_angle_beta   90.00000000
_cell_angle_gamma   60.00000399
_symmetry_Int_Tables_number   1
_chemical_formula_structural   Mg13Hg12
_chemical_formula_sum   'Mg13 Hg12'
_cell_volume   902.76128189
_cell_formula_units_Z   1
loop_
 _symmetry_equiv_pos_site_id
 _symmetry_equiv_pos_as_xyz
  1  'x, y, z'
loop_
 _atom_site_type_symbol
 _atom_site_label
 _atom_site_symmetry_multiplicity
 _atom_site_fract_x
 _atom_site_fract_y
 _atom_site_fract_z
 _atom_site_occupancy
  Mg  Mg0  1  0.41666700  0.41666700  0.20238100  1
  Mg  Mg1  1  0.08333300  0.08333300  0.25000000  1
  Mg  Mg2  1  0.75000000  0.75000000  0.29761900  1
  Mg  Mg3  1  0.41666700  0.41666700  0.34523800  1
  Mg  Mg4  1  0.08333300  0.08333300  0.39285700  1
  Mg  Mg5  1  0.75000000  0.75000000  0.44047600  1
  Mg  Mg6  1  0.41666700  0.41666700  0.48809500  1
  Mg  Mg7  1  0.08333300  0.08333300  0.53571400  1
  Mg  Mg8  1  0.75000000  0.75000000  0.58333300  1
  Mg  Mg9  1  0.41666700  0.41666700  0.63095200  1
  Mg  Mg10  1  0.08333300  0.08333300  0.67857100  1
  Mg  Mg11  1  0.75000000  0.75000000  0.72619000  1
  Mg  Mg12  1  0.41666700  0.41666700  0.77381000  1
  Hg  Hg13  1  0.75000000  0.75000000  0.22619000  1
  Hg  Hg14  1  0.41666700  0.41666700  0.27381000  1
  Hg  Hg15  1  0.08333300  0.08333300  0.32142900  1
  Hg  Hg16  1  0.75000000  0.75000000  0.36904800  1
  Hg  Hg17  1  0.41666700  0.41666700  0.41666700  1
  Hg  Hg18  1  0.08333300  0.08333300  0.46428600  1
  Hg  Hg19  1  0.75000000  0.75000000  0.51190500  1
  Hg  Hg20  1  0.41666700  0.41666700  0.55952400  1
  Hg  Hg21  1  0.08333300  0.08333300  0.60714300  1
  Hg  Hg22  1  0.75000000  0.75000000  0.65476200  1
  Hg  Hg23  1  0.41666700  0.41666700  0.70238100  1
  Hg  Hg24  1  0.08333300  0.08333300  0.75000000  1
