# generated using pymatgen
data_Mg8Sc15
_symmetry_space_group_name_H-M   'P 1'
_cell_length_a   5.16406100
_cell_length_b   8.41162256
_cell_length_c   42.73576700
_cell_angle_alpha   89.61839643
_cell_angle_beta   90.00000000
_cell_angle_gamma   90.00000000
_symmetry_Int_Tables_number   1
_chemical_formula_structural   Mg8Sc15
_chemical_formula_sum   'Mg16 Sc30'
_cell_volume   1856.32071650
_cell_formula_units_Z   2
loop_
 _symmetry_equiv_pos_site_id
 _symmetry_equiv_pos_as_xyz
  1  'x, y, z'
loop_
 _atom_site_type_symbol
 _atom_site_label
 _atom_site_symmetry_multiplicity
 _atom_site_fract_x
 _atom_site_fract_y
 _atom_site_fract_z
 _atom_site_occupancy
  Mg  Mg0  1  0.75000000  0.02134200  0.76121000  1
  Mg  Mg1  1  0.25000000  0.26134900  0.75161000  1
  Mg  Mg2  1  0.75000000  0.94441900  0.68428700  1
  Mg  Mg3  1  0.25000000  0.18442600  0.67468700  1
  Mg  Mg4  1  0.75000000  0.86749600  0.60736400  1
  Mg  Mg5  1  0.25000000  0.10750300  0.59776400  1
  Mg  Mg6  1  0.75000000  0.79057300  0.53044100  1
  Mg  Mg7  1  0.25000000  0.03058000  0.52084100  1
  Mg  Mg8  1  0.75000000  0.71364900  0.45351800  1
  Mg  Mg9  1  0.25000000  0.95365700  0.44391800  1
  Mg  Mg10  1  0.75000000  0.63672600  0.37659500  1
  Mg  Mg11  1  0.25000000  0.87673400  0.36699500  1
  Mg  Mg12  1  0.75000000  0.55980300  0.29967200  1
  Mg  Mg13  1  0.25000000  0.79981100  0.29007200  1
  Mg  Mg14  1  0.75000000  0.48288000  0.22274900  1
  Mg  Mg15  1  0.25000000  0.72288700  0.21314900  1
  Sc  Sc16  1  0.75000000  0.66677300  0.73539300  1
  Sc  Sc17  1  0.25000000  0.61591800  0.77742700  1
  Sc  Sc18  1  0.75000000  0.29980400  0.71007200  1
  Sc  Sc19  1  0.75000000  0.58985000  0.65847000  1
  Sc  Sc20  1  0.25000000  0.90596300  0.72582600  1
  Sc  Sc21  1  0.25000000  0.53899500  0.70050400  1
  Sc  Sc22  1  0.75000000  0.22288100  0.63314900  1
  Sc  Sc23  1  0.75000000  0.51292700  0.58154700  1
  Sc  Sc24  1  0.25000000  0.82904000  0.64890200  1
  Sc  Sc25  1  0.25000000  0.46207200  0.62358100  1
  Sc  Sc26  1  0.75000000  0.14595800  0.55622600  1
  Sc  Sc27  1  0.75000000  0.43600400  0.50462400  1
  Sc  Sc28  1  0.25000000  0.75211700  0.57197900  1
  Sc  Sc29  1  0.25000000  0.38514900  0.54665800  1
  Sc  Sc30  1  0.75000000  0.06903500  0.47930300  1
  Sc  Sc31  1  0.75000000  0.35908100  0.42770100  1
  Sc  Sc32  1  0.25000000  0.67519400  0.49505600  1
  Sc  Sc33  1  0.25000000  0.30822600  0.46973500  1
  Sc  Sc34  1  0.75000000  0.99211200  0.40238000  1
  Sc  Sc35  1  0.75000000  0.28215800  0.35077800  1
  Sc  Sc36  1  0.25000000  0.59827100  0.41813300  1
  Sc  Sc37  1  0.25000000  0.23130200  0.39281200  1
  Sc  Sc38  1  0.75000000  0.91518900  0.32545700  1
  Sc  Sc39  1  0.75000000  0.20523500  0.27385500  1
  Sc  Sc40  1  0.25000000  0.52134800  0.34121000  1
  Sc  Sc41  1  0.25000000  0.15437900  0.31588900  1
  Sc  Sc42  1  0.75000000  0.83826600  0.24853300  1
  Sc  Sc43  1  0.75000000  0.12831100  0.19693200  1
  Sc  Sc44  1  0.25000000  0.44442500  0.26428700  1
  Sc  Sc45  1  0.25000000  0.07745600  0.23896600  1
