# generated using pymatgen
data_Mg35Ga16
_symmetry_space_group_name_H-M   'P 1'
_cell_length_a   6.11035700
_cell_length_b   13.91478600
_cell_length_c   47.77971600
_cell_angle_alpha   90.00000000
_cell_angle_beta   90.00000000
_cell_angle_gamma   90.00000000
_symmetry_Int_Tables_number   1
_chemical_formula_structural   Mg35Ga16
_chemical_formula_sum   'Mg70 Ga32'
_cell_volume   4062.43738674
_cell_formula_units_Z   2
loop_
 _symmetry_equiv_pos_site_id
 _symmetry_equiv_pos_as_xyz
  1  'x, y, z'
loop_
 _atom_site_type_symbol
 _atom_site_label
 _atom_site_symmetry_multiplicity
 _atom_site_fract_x
 _atom_site_fract_y
 _atom_site_fract_z
 _atom_site_occupancy
  Mg  Mg0  1  0.50000000  0.91731800  0.23800000  1
  Mg  Mg1  1  0.00000000  0.58268200  0.35383700  1
  Mg  Mg2  1  0.50000000  0.58268200  0.30942900  1
  Mg  Mg3  1  0.00000000  0.91731800  0.28240800  1
  Mg  Mg4  1  0.75000000  0.00000000  0.33163300  1
  Mg  Mg5  1  0.25000000  0.00000000  0.33163300  1
  Mg  Mg6  1  0.75000000  0.76531200  0.33163300  1
  Mg  Mg7  1  0.25000000  0.73468800  0.26020400  1
  Mg  Mg8  1  0.75000000  0.73468800  0.26020400  1
  Mg  Mg9  1  0.25000000  0.76531200  0.33163300  1
  Mg  Mg10  1  0.00000000  0.41731800  0.30942900  1
  Mg  Mg11  1  0.50000000  0.08268200  0.28240800  1
  Mg  Mg12  1  0.00000000  0.08268200  0.23800000  1
  Mg  Mg13  1  0.50000000  0.41731800  0.35383700  1
  Mg  Mg14  1  0.25000000  0.50000000  0.26020400  1
  Mg  Mg15  1  0.75000000  0.50000000  0.26020400  1
  Mg  Mg16  1  0.25000000  0.26531200  0.26020400  1
  Mg  Mg17  1  0.75000000  0.23468800  0.33163300  1
  Mg  Mg18  1  0.25000000  0.23468800  0.33163300  1
  Mg  Mg19  1  0.75000000  0.26531200  0.26020400  1
  Mg  Mg20  1  0.50000000  0.91731800  0.38085700  1
  Mg  Mg21  1  0.00000000  0.58268200  0.49669400  1
  Mg  Mg22  1  0.50000000  0.58268200  0.45228600  1
  Mg  Mg23  1  0.00000000  0.91731800  0.42526500  1
  Mg  Mg24  1  0.75000000  0.00000000  0.47449000  1
  Mg  Mg25  1  0.25000000  0.00000000  0.47449000  1
  Mg  Mg26  1  0.75000000  0.76531200  0.47449000  1
  Mg  Mg27  1  0.25000000  0.73468800  0.40306100  1
  Mg  Mg28  1  0.75000000  0.73468800  0.40306100  1
  Mg  Mg29  1  0.25000000  0.76531200  0.47449000  1
  Mg  Mg30  1  0.00000000  0.41731800  0.45228600  1
  Mg  Mg31  1  0.50000000  0.08268200  0.42526500  1
  Mg  Mg32  1  0.00000000  0.08268200  0.38085700  1
  Mg  Mg33  1  0.50000000  0.41731800  0.49669400  1
  Mg  Mg34  1  0.25000000  0.50000000  0.40306100  1
  Mg  Mg35  1  0.75000000  0.50000000  0.40306100  1
  Mg  Mg36  1  0.25000000  0.26531200  0.40306100  1
  Mg  Mg37  1  0.75000000  0.23468800  0.47449000  1
  Mg  Mg38  1  0.25000000  0.23468800  0.47449000  1
  Mg  Mg39  1  0.75000000  0.26531200  0.40306100  1
  Mg  Mg40  1  0.50000000  0.91731800  0.52371400  1
  Mg  Mg41  1  0.00000000  0.58268200  0.63955100  1
  Mg  Mg42  1  0.50000000  0.58268200  0.59514300  1
  Mg  Mg43  1  0.00000000  0.91731800  0.56812200  1
  Mg  Mg44  1  0.75000000  0.00000000  0.61734700  1
  Mg  Mg45  1  0.25000000  0.00000000  0.61734700  1
  Mg  Mg46  1  0.75000000  0.76531200  0.61734700  1
  Mg  Mg47  1  0.25000000  0.73468800  0.54591800  1
  Mg  Mg48  1  0.75000000  0.73468800  0.54591800  1
  Mg  Mg49  1  0.25000000  0.76531200  0.61734700  1
  Mg  Mg50  1  0.00000000  0.41731800  0.59514300  1
  Mg  Mg51  1  0.50000000  0.08268200  0.56812200  1
  Mg  Mg52  1  0.00000000  0.08268200  0.52371400  1
  Mg  Mg53  1  0.50000000  0.41731800  0.63955100  1
  Mg  Mg54  1  0.25000000  0.50000000  0.54591800  1
  Mg  Mg55  1  0.75000000  0.50000000  0.54591800  1
  Mg  Mg56  1  0.25000000  0.26531200  0.54591800  1
  Mg  Mg57  1  0.75000000  0.23468800  0.61734700  1
  Mg  Mg58  1  0.25000000  0.23468800  0.61734700  1
  Mg  Mg59  1  0.75000000  0.26531200  0.54591800  1
  Mg  Mg60  1  0.50000000  0.91731800  0.66657100  1
  Mg  Mg61  1  0.00000000  0.91731800  0.71098000  1
  Mg  Mg62  1  0.25000000  0.73468800  0.68877600  1
  Mg  Mg63  1  0.75000000  0.73468800  0.68877600  1
  Mg  Mg64  1  0.50000000  0.08268200  0.71098000  1
  Mg  Mg65  1  0.00000000  0.08268200  0.66657100  1
  Mg  Mg66  1  0.25000000  0.50000000  0.68877600  1
  Mg  Mg67  1  0.75000000  0.50000000  0.68877600  1
  Mg  Mg68  1  0.25000000  0.26531200  0.68877600  1
  Mg  Mg69  1  0.75000000  0.26531200  0.68877600  1
  Ga  Ga70  1  0.50000000  0.87758700  0.29457100  1
  Ga  Ga71  1  0.00000000  0.62241300  0.29726600  1
  Ga  Ga72  1  0.50000000  0.62241300  0.22314200  1
  Ga  Ga73  1  1.00000000  0.87758700  0.22583800  1
  Ga  Ga74  1  0.00000000  0.37758700  0.22314200  1
  Ga  Ga75  1  0.50000000  0.12241300  0.22583800  1
  Ga  Ga76  1  0.00000000  0.12241300  0.29457100  1
  Ga  Ga77  1  0.50000000  0.37758700  0.29726600  1
  Ga  Ga78  1  0.50000000  0.87758700  0.43742800  1
  Ga  Ga79  1  0.00000000  0.62241300  0.44012300  1
  Ga  Ga80  1  0.50000000  0.62241300  0.36599900  1
  Ga  Ga81  1  1.00000000  0.87758700  0.36869500  1
  Ga  Ga82  1  0.00000000  0.37758700  0.36599900  1
  Ga  Ga83  1  0.50000000  0.12241300  0.36869500  1
  Ga  Ga84  1  0.00000000  0.12241300  0.43742800  1
  Ga  Ga85  1  0.50000000  0.37758700  0.44012300  1
  Ga  Ga86  1  0.50000000  0.87758700  0.58028500  1
  Ga  Ga87  1  0.00000000  0.62241300  0.58298000  1
  Ga  Ga88  1  0.50000000  0.62241300  0.50885600  1
  Ga  Ga89  1  0.00000000  0.87758700  0.51155200  1
  Ga  Ga90  1  0.00000000  0.37758700  0.50885600  1
  Ga  Ga91  1  0.50000000  0.12241300  0.51155200  1
  Ga  Ga92  1  0.00000000  0.12241300  0.58028500  1
  Ga  Ga93  1  0.50000000  0.37758700  0.58298000  1
  Ga  Ga94  1  0.50000000  0.87758700  0.72314200  1
  Ga  Ga95  1  0.00000000  0.62241300  0.72583800  1
  Ga  Ga96  1  0.50000000  0.62241300  0.65171400  1
  Ga  Ga97  1  0.00000000  0.87758700  0.65440900  1
  Ga  Ga98  1  0.00000000  0.37758700  0.65171400  1
  Ga  Ga99  1  0.50000000  0.12241300  0.65440900  1
  Ga  Ga100  1  0.00000000  0.12241300  0.72314200  1
  Ga  Ga101  1  0.50000000  0.37758700  0.72583800  1
