# generated using pymatgen
data_Mg17Au50
_symmetry_space_group_name_H-M   'P 1'
_cell_length_a   9.58286600
_cell_length_b   10.43041211
_cell_length_c   46.00314700
_cell_angle_alpha   94.13499482
_cell_angle_beta   90.00000000
_cell_angle_gamma   90.00000000
_symmetry_Int_Tables_number   1
_chemical_formula_structural   Mg17Au50
_chemical_formula_sum   'Mg34 Au100'
_cell_volume   4586.19431584
_cell_formula_units_Z   2
loop_
 _symmetry_equiv_pos_site_id
 _symmetry_equiv_pos_as_xyz
  1  'x, y, z'
loop_
 _atom_site_type_symbol
 _atom_site_label
 _atom_site_symmetry_multiplicity
 _atom_site_fract_x
 _atom_site_fract_y
 _atom_site_fract_z
 _atom_site_occupancy
  Mg  Mg0  1  0.49920200  0.12237900  0.75376400  1
  Mg  Mg1  1  0.50079800  0.65788900  0.72279800  1
  Mg  Mg2  1  0.99920200  0.65788900  0.72279800  1
  Mg  Mg3  1  0.00079800  0.12237900  0.75376400  1
  Mg  Mg4  1  0.25000000  0.75777100  0.79612400  1
  Mg  Mg5  1  0.75000000  0.89749700  0.80543900  1
  Mg  Mg6  1  0.25000000  0.34683600  0.70206100  1
  Mg  Mg7  1  0.75000000  0.43343200  0.77450100  1
  Mg  Mg8  1  0.49920200  0.24737900  0.62876400  1
  Mg  Mg9  1  0.50079800  0.78288900  0.59779800  1
  Mg  Mg10  1  0.99920200  0.78288900  0.59779800  1
  Mg  Mg11  1  0.00079800  0.24737900  0.62876400  1
  Mg  Mg12  1  0.25000000  0.88277100  0.67112400  1
  Mg  Mg13  1  0.75000000  0.02249700  0.68043900  1
  Mg  Mg14  1  0.25000000  0.47183600  0.57706100  1
  Mg  Mg15  1  0.75000000  0.55843200  0.64950100  1
  Mg  Mg16  1  0.49920200  0.37237900  0.50376400  1
  Mg  Mg17  1  0.50079800  0.90788900  0.47279800  1
  Mg  Mg18  1  0.99920200  0.90788900  0.47279800  1
  Mg  Mg19  1  0.00079800  0.37237900  0.50376400  1
  Mg  Mg20  1  0.25000000  0.00777100  0.54612400  1
  Mg  Mg21  1  0.75000000  0.14749700  0.55543900  1
  Mg  Mg22  1  0.25000000  0.59683600  0.45206100  1
  Mg  Mg23  1  0.75000000  0.68343200  0.52450100  1
  Mg  Mg24  1  0.49920200  0.49737900  0.37876400  1
  Mg  Mg25  1  0.50079800  0.03288900  0.34779800  1
  Mg  Mg26  1  0.99920200  0.03288900  0.34779800  1
  Mg  Mg27  1  0.00079800  0.49737900  0.37876400  1
  Mg  Mg28  1  0.25000000  0.13277100  0.42112400  1
  Mg  Mg29  1  0.75000000  0.27249700  0.43043900  1
  Mg  Mg30  1  0.25000000  0.72183600  0.32706100  1
  Mg  Mg31  1  0.75000000  0.80843200  0.39950100  1
  Mg  Mg32  1  0.25000000  0.25777100  0.29612400  1
  Mg  Mg33  1  0.75000000  0.39749700  0.30543900  1
  Au  Au34  1  0.00000000  0.85874400  0.76967100  1
  Au  Au35  1  0.50000000  0.92152400  0.70689100  1
  Au  Au36  1  0.00000000  0.92152400  0.70689100  1
  Au  Au37  1  0.50000000  0.85874400  0.76967100  1
  Au  Au38  1  0.00054900  0.59131300  0.78502600  1
  Au  Au39  1  0.99945100  0.18895600  0.69153600  1
  Au  Au40  1  0.50054900  0.18895600  0.69153600  1
  Au  Au41  1  0.49945100  0.59131300  0.78502600  1
  Au  Au42  1  0.75000000  0.16524700  0.78968300  1
  Au  Au43  1  0.25000000  0.55303200  0.74886900  1
  Au  Au44  1  0.25000000  0.49002200  0.81187900  1
  Au  Au45  1  0.75000000  0.22723600  0.72769400  1
  Au  Au46  1  0.75000000  0.69568800  0.75871100  1
  Au  Au47  1  0.25000000  0.02196800  0.78046300  1
  Au  Au48  1  0.25000000  0.08458000  0.71785100  1
  Au  Au49  1  0.75000000  0.75830000  0.69609900  1
  Au  Au50  1  0.50000000  0.39013400  0.73828100  1
  Au  Au51  1  0.50000000  0.32763400  0.80078100  1
  Au  Au52  1  0.00000000  0.39013400  0.73828100  1
  Au  Au53  1  0.00000000  0.32763400  0.80078100  1
  Au  Au54  1  0.25000000  0.28721400  0.76475300  1
  Au  Au55  1  0.75000000  0.49305400  0.71180900  1
  Au  Au56  1  0.25000000  0.81403800  0.73320800  1
  Au  Au57  1  0.75000000  0.96623000  0.74335400  1
  Au  Au58  1  0.00000000  0.98374400  0.64467100  1
  Au  Au59  1  0.50000000  0.04652400  0.58189100  1
  Au  Au60  1  0.00000000  0.04652400  0.58189100  1
  Au  Au61  1  0.50000000  0.98374400  0.64467100  1
  Au  Au62  1  0.00054900  0.71631300  0.66002600  1
  Au  Au63  1  0.99945100  0.31395600  0.56653600  1
  Au  Au64  1  0.50054900  0.31395600  0.56653600  1
  Au  Au65  1  0.49945100  0.71631300  0.66002600  1
  Au  Au66  1  0.75000000  0.29024700  0.66468300  1
  Au  Au67  1  0.25000000  0.67803200  0.62386900  1
  Au  Au68  1  0.25000000  0.61502200  0.68687900  1
  Au  Au69  1  0.75000000  0.35223600  0.60269400  1
  Au  Au70  1  0.75000000  0.82068800  0.63371100  1
  Au  Au71  1  0.25000000  0.14696800  0.65546300  1
  Au  Au72  1  0.25000000  0.20958000  0.59285100  1
  Au  Au73  1  0.75000000  0.88330000  0.57109900  1
  Au  Au74  1  0.50000000  0.51513400  0.61328100  1
  Au  Au75  1  0.50000000  0.45263400  0.67578100  1
  Au  Au76  1  0.00000000  0.51513400  0.61328100  1
  Au  Au77  1  0.00000000  0.45263400  0.67578100  1
  Au  Au78  1  0.25000000  0.41221400  0.63975300  1
  Au  Au79  1  0.75000000  0.61805400  0.58680900  1
  Au  Au80  1  0.25000000  0.93903800  0.60820800  1
  Au  Au81  1  0.75000000  0.09123000  0.61835400  1
  Au  Au82  1  0.00000000  0.10874400  0.51967100  1
  Au  Au83  1  0.50000000  0.17152400  0.45689100  1
  Au  Au84  1  0.00000000  0.17152400  0.45689100  1
  Au  Au85  1  0.50000000  0.10874400  0.51967100  1
  Au  Au86  1  0.00054900  0.84131300  0.53502600  1
  Au  Au87  1  0.99945100  0.43895600  0.44153600  1
  Au  Au88  1  0.50054900  0.43895600  0.44153600  1
  Au  Au89  1  0.49945100  0.84131300  0.53502600  1
  Au  Au90  1  0.75000000  0.41524700  0.53968300  1
  Au  Au91  1  0.25000000  0.80303200  0.49886900  1
  Au  Au92  1  0.25000000  0.74002200  0.56187900  1
  Au  Au93  1  0.75000000  0.47723600  0.47769400  1
  Au  Au94  1  0.75000000  0.94568800  0.50871100  1
  Au  Au95  1  0.25000000  0.27196800  0.53046300  1
  Au  Au96  1  0.25000000  0.33458000  0.46785100  1
  Au  Au97  1  0.75000000  0.00830000  0.44609900  1
  Au  Au98  1  0.50000000  0.64013400  0.48828100  1
  Au  Au99  1  0.50000000  0.57763400  0.55078100  1
  Au  Au100  1  0.00000000  0.64013400  0.48828100  1
  Au  Au101  1  0.00000000  0.57763400  0.55078100  1
  Au  Au102  1  0.25000000  0.53721400  0.51475300  1
  Au  Au103  1  0.75000000  0.74305400  0.46180900  1
  Au  Au104  1  0.25000000  0.06403800  0.48320800  1
  Au  Au105  1  0.75000000  0.21623000  0.49335400  1
  Au  Au106  1  0.00000000  0.23374400  0.39467100  1
  Au  Au107  1  0.50000000  0.29652400  0.33189100  1
  Au  Au108  1  0.00000000  0.29652400  0.33189100  1
  Au  Au109  1  0.50000000  0.23374400  0.39467100  1
  Au  Au110  1  0.00054900  0.96631300  0.41002600  1
  Au  Au111  1  0.99945100  0.56395600  0.31653600  1
  Au  Au112  1  0.50054900  0.56395600  0.31653600  1
  Au  Au113  1  0.49945100  0.96631300  0.41002600  1
  Au  Au114  1  0.75000000  0.54024700  0.41468300  1
  Au  Au115  1  0.25000000  0.92803200  0.37386900  1
  Au  Au116  1  0.25000000  0.86502200  0.43687900  1
  Au  Au117  1  0.75000000  0.60223600  0.35269400  1
  Au  Au118  1  0.75000000  0.07068800  0.38371100  1
  Au  Au119  1  0.25000000  0.39696800  0.40546300  1
  Au  Au120  1  0.25000000  0.45958000  0.34285100  1
  Au  Au121  1  0.75000000  0.13330000  0.32109900  1
  Au  Au122  1  0.50000000  0.76513400  0.36328100  1
  Au  Au123  1  0.50000000  0.70263400  0.42578100  1
  Au  Au124  1  0.00000000  0.76513400  0.36328100  1
  Au  Au125  1  0.00000000  0.70263400  0.42578100  1
  Au  Au126  1  0.25000000  0.66221400  0.38975300  1
  Au  Au127  1  0.75000000  0.86805400  0.33680900  1
  Au  Au128  1  0.25000000  0.18903800  0.35820800  1
  Au  Au129  1  0.75000000  0.34123000  0.36835400  1
  Au  Au130  1  0.75000000  0.66524700  0.28968300  1
  Au  Au131  1  0.25000000  0.99002200  0.31187900  1
  Au  Au132  1  0.50000000  0.82763400  0.30078100  1
  Au  Au133  1  0.00000000  0.82763400  0.30078100  1
