# generated using pymatgen
data_Er2Mg
_symmetry_space_group_name_H-M   'P 1'
_cell_length_a   6.54038706
_cell_length_b   8.70370688
_cell_length_c   44.84936800
_cell_angle_alpha   88.66178197
_cell_angle_beta   85.96648255
_cell_angle_gamma   83.27744677
_symmetry_Int_Tables_number   1
_chemical_formula_structural   Er2Mg
_chemical_formula_sum   'Er36 Mg18'
_cell_volume   2528.94949365
_cell_formula_units_Z   18
loop_
 _symmetry_equiv_pos_site_id
 _symmetry_equiv_pos_as_xyz
  1  'x, y, z'
loop_
 _atom_site_type_symbol
 _atom_site_label
 _atom_site_symmetry_multiplicity
 _atom_site_fract_x
 _atom_site_fract_y
 _atom_site_fract_z
 _atom_site_occupancy
  Er  Er0  1  0.30195100  0.39868600  0.78961000  1
  Er  Er1  1  0.40897800  0.77793000  0.76820400  1
  Er  Er2  1  0.03138300  0.06798100  0.74372300  1
  Er  Er3  1  0.92435600  0.68873600  0.76512900  1
  Er  Er4  1  0.63528400  0.46535200  0.72294300  1
  Er  Er5  1  0.74231100  0.84459700  0.70153800  1
  Er  Er6  1  0.36471600  0.13464800  0.67705700  1
  Er  Er7  1  0.25768900  0.75540300  0.69846200  1
  Er  Er8  1  0.96861700  0.53201900  0.65627700  1
  Er  Er9  1  0.07564400  0.91126400  0.63487100  1
  Er  Er10  1  0.69804900  0.20131400  0.61039000  1
  Er  Er11  1  0.59102200  0.82207000  0.63179600  1
  Er  Er12  1  0.30195100  0.59868600  0.58961000  1
  Er  Er13  1  0.40897800  0.97793000  0.56820400  1
  Er  Er14  1  0.03138300  0.26798100  0.54372300  1
  Er  Er15  1  0.92435600  0.88873600  0.56512900  1
  Er  Er16  1  0.63528400  0.66535200  0.52294300  1
  Er  Er17  1  0.74231100  0.04459700  0.50153800  1
  Er  Er18  1  0.36471600  0.33464800  0.47705700  1
  Er  Er19  1  0.25768900  0.95540300  0.49846200  1
  Er  Er20  1  0.96861700  0.73201900  0.45627700  1
  Er  Er21  1  0.07564400  0.11126400  0.43487100  1
  Er  Er22  1  0.69804900  0.40131400  0.41039000  1
  Er  Er23  1  0.59102200  0.02207000  0.43179600  1
  Er  Er24  1  0.30195100  0.79868600  0.38961000  1
  Er  Er25  1  0.40897800  0.17793000  0.36820400  1
  Er  Er26  1  0.03138300  0.46798100  0.34372300  1
  Er  Er27  1  0.92435600  0.08873600  0.36512900  1
  Er  Er28  1  0.63528400  0.86535200  0.32294300  1
  Er  Er29  1  0.74231100  0.24459700  0.30153800  1
  Er  Er30  1  0.36471600  0.53464800  0.27705700  1
  Er  Er31  1  0.25768900  0.15540300  0.29846200  1
  Er  Er32  1  0.96861700  0.93201900  0.25627700  1
  Er  Er33  1  0.07564400  0.31126400  0.23487100  1
  Er  Er34  1  0.69804900  0.60131400  0.21039000  1
  Er  Er35  1  0.59102200  0.22207000  0.23179600  1
  Mg  Mg36  1  0.52184100  0.12332300  0.74563200  1
  Mg  Mg37  1  0.81149200  0.34334400  0.78770200  1
  Mg  Mg38  1  0.85517400  0.18998900  0.67896500  1
  Mg  Mg39  1  0.14482600  0.41001100  0.72103500  1
  Mg  Mg40  1  0.18850800  0.25665600  0.61229800  1
  Mg  Mg41  1  0.47815900  0.47667700  0.65436800  1
  Mg  Mg42  1  0.52184100  0.32332300  0.54563200  1
  Mg  Mg43  1  0.81149200  0.54334400  0.58770200  1
  Mg  Mg44  1  0.85517400  0.38998900  0.47896500  1
  Mg  Mg45  1  0.14482600  0.61001100  0.52103500  1
  Mg  Mg46  1  0.18850800  0.45665600  0.41229800  1
  Mg  Mg47  1  0.47815900  0.67667700  0.45436800  1
  Mg  Mg48  1  0.52184100  0.52332300  0.34563200  1
  Mg  Mg49  1  0.81149200  0.74334400  0.38770200  1
  Mg  Mg50  1  0.85517400  0.58998900  0.27896500  1
  Mg  Mg51  1  0.14482600  0.81001100  0.32103500  1
  Mg  Mg52  1  0.18850800  0.65665600  0.21229800  1
  Mg  Mg53  1  0.47815900  0.87667700  0.25436800  1
