# generated using pymatgen
data_MgZn
_symmetry_space_group_name_H-M   'P 1'
_cell_length_a   4.61085900
_cell_length_b   5.81071493
_cell_length_c   43.24465400
_cell_angle_alpha   90.49622915
_cell_angle_beta   90.00000000
_cell_angle_gamma   90.00000000
_symmetry_Int_Tables_number   1
_chemical_formula_structural   MgZn
_chemical_formula_sum   'Mg20 Zn20'
_cell_volume   1158.58406150
_cell_formula_units_Z   20
loop_
 _symmetry_equiv_pos_site_id
 _symmetry_equiv_pos_as_xyz
  1  'x, y, z'
loop_
 _atom_site_type_symbol
 _atom_site_label
 _atom_site_symmetry_multiplicity
 _atom_site_fract_x
 _atom_site_fract_y
 _atom_site_fract_z
 _atom_site_occupancy
  Mg  Mg0  1  0.75000000  0.14368100  0.20056200  1
  Mg  Mg1  1  0.25000000  0.54381900  0.23693800  1
  Mg  Mg2  1  0.75000000  0.83118100  0.26306200  1
  Mg  Mg3  1  0.25000000  0.23131900  0.29943800  1
  Mg  Mg4  1  0.75000000  0.51868100  0.32556200  1
  Mg  Mg5  1  0.25000000  0.91881900  0.36193800  1
  Mg  Mg6  1  0.75000000  0.20618100  0.38806200  1
  Mg  Mg7  1  0.25000000  0.60631900  0.42443800  1
  Mg  Mg8  1  0.75000000  0.89368100  0.45056200  1
  Mg  Mg9  1  0.25000000  0.29381900  0.48693800  1
  Mg  Mg10  1  0.75000000  0.58118100  0.51306200  1
  Mg  Mg11  1  0.25000000  0.98131900  0.54943800  1
  Mg  Mg12  1  0.75000000  0.26868100  0.57556200  1
  Mg  Mg13  1  0.25000000  0.66881900  0.61193800  1
  Mg  Mg14  1  0.75000000  0.95618100  0.63806200  1
  Mg  Mg15  1  0.25000000  0.35631900  0.67443800  1
  Mg  Mg16  1  0.75000000  0.64368100  0.70056200  1
  Mg  Mg17  1  0.25000000  0.04381900  0.73693800  1
  Mg  Mg18  1  0.75000000  0.33118100  0.76306200  1
  Mg  Mg19  1  0.25000000  0.73131900  0.79943800  1
  Zn  Zn20  1  0.75000000  0.63192700  0.19949300  1
  Zn  Zn21  1  0.25000000  0.05557300  0.23800700  1
  Zn  Zn22  1  0.75000000  0.31942700  0.26199300  1
  Zn  Zn23  1  0.25000000  0.74307300  0.30050700  1
  Zn  Zn24  1  0.75000000  0.00692700  0.32449300  1
  Zn  Zn25  1  0.25000000  0.43057300  0.36300700  1
  Zn  Zn26  1  0.75000000  0.69442700  0.38699300  1
  Zn  Zn27  1  0.25000000  0.11807300  0.42550700  1
  Zn  Zn28  1  0.75000000  0.38192700  0.44949300  1
  Zn  Zn29  1  0.25000000  0.80557300  0.48800700  1
  Zn  Zn30  1  0.75000000  0.06942700  0.51199300  1
  Zn  Zn31  1  0.25000000  0.49307300  0.55050700  1
  Zn  Zn32  1  0.75000000  0.75692700  0.57449300  1
  Zn  Zn33  1  0.25000000  0.18057300  0.61300700  1
  Zn  Zn34  1  0.75000000  0.44442700  0.63699300  1
  Zn  Zn35  1  0.25000000  0.86807300  0.67550700  1
  Zn  Zn36  1  0.75000000  0.13192700  0.69949300  1
  Zn  Zn37  1  0.25000000  0.55557300  0.73800700  1
  Zn  Zn38  1  0.75000000  0.81942700  0.76199300  1
  Zn  Zn39  1  0.25000000  0.24307300  0.80050700  1
