# generated using pymatgen
data_Mg106Zn179
_symmetry_space_group_name_H-M   'P 1'
_cell_length_a   15.05205970
_cell_length_b   15.53344962
_cell_length_c   44.08704400
_cell_angle_alpha   96.16286714
_cell_angle_beta   84.01794547
_cell_angle_gamma   68.44884142
_symmetry_Int_Tables_number   1
_chemical_formula_structural   Mg106Zn179
_chemical_formula_sum   'Mg106 Zn179'
_cell_volume   9416.24976546
_cell_formula_units_Z   1
loop_
 _symmetry_equiv_pos_site_id
 _symmetry_equiv_pos_as_xyz
  1  'x, y, z'
loop_
 _atom_site_type_symbol
 _atom_site_label
 _atom_site_symmetry_multiplicity
 _atom_site_fract_x
 _atom_site_fract_y
 _atom_site_fract_z
 _atom_site_occupancy
  Mg  Mg0  1  0.16787400  0.38521400  0.30145800  1
  Mg  Mg1  1  0.69208900  0.72999200  0.28512800  1
  Mg  Mg2  1  0.80633700  0.51125700  0.29062000  1
  Mg  Mg3  1  0.48409200  0.44618900  0.29669000  1
  Mg  Mg4  1  0.36984500  0.66492400  0.29119800  1
  Mg  Mg5  1  0.00830700  0.79096700  0.28036000  1
  Mg  Mg6  1  0.91459700  0.26577200  0.36841000  1
  Mg  Mg7  1  0.26787400  0.48521400  0.40145800  1
  Mg  Mg8  1  0.79208900  0.82999200  0.38512800  1
  Mg  Mg9  1  0.98523400  0.14494300  0.30417900  1
  Mg  Mg10  1  0.12230200  0.55082800  0.35580100  1
  Mg  Mg11  1  0.67714500  0.07734000  0.30821200  1
  Mg  Mg12  1  0.90633700  0.61125700  0.39062000  1
  Mg  Mg13  1  0.29094700  0.13123900  0.37763900  1
  Mg  Mg14  1  0.80248600  0.48293800  0.36194100  1
  Mg  Mg15  1  0.15388000  0.72535300  0.32601700  1
  Mg  Mg16  1  0.58409200  0.54618900  0.39669000  1
  Mg  Mg17  1  0.47369500  0.79324300  0.31987700  1
  Mg  Mg18  1  0.14000900  0.22148900  0.32921900  1
  Mg  Mg19  1  0.79253500  0.85976700  0.31375600  1
  Mg  Mg20  1  0.48364700  0.41641400  0.36806200  1
  Mg  Mg21  1  0.46984500  0.76492400  0.39119800  1
  Mg  Mg22  1  0.36158400  0.01040900  0.31340800  1
  Mg  Mg23  1  0.59903600  0.19884100  0.37360600  1
  Mg  Mg24  1  0.10830700  0.89096700  0.38036000  1
  Mg  Mg25  1  0.13617200  0.05469300  0.35259900  1
  Mg  Mg26  1  0.01459700  0.36577200  0.46841000  1
  Mg  Mg27  1  0.36787400  0.58521400  0.50145800  1
  Mg  Mg28  1  0.89208900  0.92999200  0.48512800  1
  Mg  Mg29  1  0.08523400  0.24494300  0.40417900  1
  Mg  Mg30  1  0.22230200  0.65082800  0.45580100  1
  Mg  Mg31  1  0.77714500  0.17734000  0.40821200  1
  Mg  Mg32  1  0.00633700  0.71125700  0.49062000  1
  Mg  Mg33  1  0.39094700  0.23123900  0.47763900  1
  Mg  Mg34  1  0.90248600  0.58293800  0.46194100  1
  Mg  Mg35  1  0.25388000  0.82535300  0.42601700  1
  Mg  Mg36  1  0.68409200  0.64618900  0.49669000  1
  Mg  Mg37  1  0.57369500  0.89324300  0.41987700  1
  Mg  Mg38  1  0.24000900  0.32148900  0.42921900  1
  Mg  Mg39  1  0.89253500  0.95976700  0.41375600  1
  Mg  Mg40  1  0.58364700  0.51641400  0.46806200  1
  Mg  Mg41  1  0.56984500  0.86492400  0.49119800  1
  Mg  Mg42  1  0.46158400  0.11040900  0.41340800  1
  Mg  Mg43  1  0.69903600  0.29884100  0.47360600  1
  Mg  Mg44  1  0.20830700  0.99096700  0.48036000  1
  Mg  Mg45  1  0.23617200  0.15469300  0.45259900  1
  Mg  Mg46  1  0.11459700  0.46577200  0.56841000  1
  Mg  Mg47  1  0.46787400  0.68521400  0.60145800  1
  Mg  Mg48  1  0.99208900  0.02999200  0.58512800  1
  Mg  Mg49  1  0.18523400  0.34494300  0.50417900  1
  Mg  Mg50  1  0.32230200  0.75082800  0.55580100  1
  Mg  Mg51  1  0.87714500  0.27734000  0.50821200  1
  Mg  Mg52  1  0.10633700  0.81125700  0.59062000  1
  Mg  Mg53  1  0.49094700  0.33123900  0.57763900  1
  Mg  Mg54  1  0.00248600  0.68293800  0.56194100  1
  Mg  Mg55  1  0.35388000  0.92535300  0.52601700  1
  Mg  Mg56  1  0.78409200  0.74618900  0.59669000  1
  Mg  Mg57  1  0.67369500  0.99324300  0.51987700  1
  Mg  Mg58  1  0.34000900  0.42148900  0.52921900  1
  Mg  Mg59  1  0.99253500  0.05976700  0.51375600  1
  Mg  Mg60  1  0.68364700  0.61641400  0.56806200  1
  Mg  Mg61  1  0.66984500  0.96492400  0.59119800  1
  Mg  Mg62  1  0.56158400  0.21040900  0.51340800  1
  Mg  Mg63  1  0.79903600  0.39884100  0.57360600  1
  Mg  Mg64  1  0.30830700  0.09096700  0.58036000  1
  Mg  Mg65  1  0.33617200  0.25469300  0.55259900  1
  Mg  Mg66  1  0.21459700  0.56577200  0.66841000  1
  Mg  Mg67  1  0.56787400  0.78521400  0.70145800  1
  Mg  Mg68  1  0.09208900  0.12999200  0.68512800  1
  Mg  Mg69  1  0.28523400  0.44494300  0.60417900  1
  Mg  Mg70  1  0.42230200  0.85082800  0.65580100  1
  Mg  Mg71  1  0.97714500  0.37734000  0.60821200  1
  Mg  Mg72  1  0.20633700  0.91125700  0.69062000  1
  Mg  Mg73  1  0.59094700  0.43123900  0.67763900  1
  Mg  Mg74  1  0.10248600  0.78293800  0.66194100  1
  Mg  Mg75  1  0.45388000  0.02535300  0.62601700  1
  Mg  Mg76  1  0.88409200  0.84618900  0.69669000  1
  Mg  Mg77  1  0.77369500  0.09324300  0.61987700  1
  Mg  Mg78  1  0.44000900  0.52148900  0.62921900  1
  Mg  Mg79  1  0.09253500  0.15976700  0.61375600  1
  Mg  Mg80  1  0.78364700  0.71641400  0.66806200  1
  Mg  Mg81  1  0.76984500  0.06492400  0.69119800  1
  Mg  Mg82  1  0.66158400  0.31040900  0.61340800  1
  Mg  Mg83  1  0.89903600  0.49884100  0.67360600  1
  Mg  Mg84  1  0.40830700  0.19096700  0.68036000  1
  Mg  Mg85  1  0.43617200  0.35469300  0.65259900  1
  Mg  Mg86  1  0.31459700  0.66577200  0.76841000  1
  Mg  Mg87  1  0.66787400  0.88521400  0.80145800  1
  Mg  Mg88  1  0.19208900  0.22999200  0.78512800  1
  Mg  Mg89  1  0.38523400  0.54494300  0.70417900  1
  Mg  Mg90  1  0.52230200  0.95082800  0.75580100  1
  Mg  Mg91  1  0.07714500  0.47734000  0.70821200  1
  Mg  Mg92  1  0.30633700  0.01125700  0.79062000  1
  Mg  Mg93  1  0.69094700  0.53123900  0.77763900  1
  Mg  Mg94  1  0.20248600  0.88293800  0.76194100  1
  Mg  Mg95  1  0.55388000  0.12535300  0.72601700  1
  Mg  Mg96  1  0.98409200  0.94618900  0.79669000  1
  Mg  Mg97  1  0.87369500  0.19324300  0.71987700  1
  Mg  Mg98  1  0.54000900  0.62148900  0.72921900  1
  Mg  Mg99  1  0.19253500  0.25976700  0.71375600  1
  Mg  Mg100  1  0.88364700  0.81641400  0.76806200  1
  Mg  Mg101  1  0.86984500  0.16492400  0.79119800  1
  Mg  Mg102  1  0.76158400  0.41040900  0.71340800  1
  Mg  Mg103  1  0.99903600  0.59884100  0.77360600  1
  Mg  Mg104  1  0.50830700  0.29096700  0.78036000  1
  Mg  Mg105  1  0.53617200  0.45469300  0.75259900  1
  Zn  Zn106  1  0.58809100  0.58809100  0.29090900  1
  Zn  Zn107  1  0.90314500  0.65896500  0.28490600  1
  Zn  Zn108  1  0.27303600  0.51721600  0.29691200  1
  Zn  Zn109  1  0.08809100  0.58809100  0.29090900  1
  Zn  Zn110  1  0.96873400  0.52723900  0.32234700  1
  Zn  Zn111  1  0.20015000  0.34700500  0.36721100  1
  Zn  Zn112  1  0.64127700  0.46483700  0.33050700  1
  Zn  Zn113  1  0.31088300  0.91784000  0.36897000  1
  Zn  Zn114  1  0.32206300  0.56673400  0.34631600  1
  Zn  Zn115  1  0.01829900  0.40846900  0.36175700  1
  Zn  Zn116  1  0.68809100  0.68809100  0.39090900  1
  Zn  Zn117  1  0.30744700  0.74894200  0.35947100  1
  Zn  Zn118  1  0.49318400  0.25531000  0.32103500  1
  Zn  Zn119  1  0.00314500  0.75896500  0.38490600  1
  Zn  Zn120  1  0.64644000  0.29109000  0.31838500  1
  Zn  Zn121  1  0.79431300  0.17230500  0.33831900  1
  Zn  Zn122  1  0.79827200  0.66893200  0.33814900  1
  Zn  Zn123  1  0.95290000  0.87645800  0.34689900  1
  Zn  Zn124  1  0.07603100  0.92917600  0.31460700  1
  Zn  Zn125  1  0.78299700  0.02087100  0.36078300  1
  Zn  Zn126  1  0.94402400  0.05607000  0.35854600  1
  Zn  Zn127  1  0.37303600  0.61721600  0.39691200  1
  Zn  Zn128  1  0.25788200  0.86771200  0.32006200  1
  Zn  Zn129  1  0.47790900  0.60724900  0.34366900  1
  Zn  Zn130  1  0.33215800  0.22011100  0.32327300  1
  Zn  Zn131  1  0.95411800  0.70944700  0.33550200  1
  Zn  Zn132  1  0.63809100  0.63809100  0.34090900  1
  Zn  Zn133  1  0.80854600  0.32688300  0.31423900  1
  Zn  Zn134  1  0.69561900  0.34124900  0.36906900  1
  Zn  Zn135  1  0.89474700  0.00597000  0.30662800  1
  Zn  Zn136  1  0.46763600  0.94929800  0.36757900  1
  Zn  Zn137  1  0.38143400  0.27021100  0.37519100  1
  Zn  Zn138  1  0.32328100  0.39972300  0.33491900  1
  Zn  Zn139  1  0.58056200  0.93493200  0.31274900  1
  Zn  Zn140  1  0.96529800  0.35834100  0.31284900  1
  Zn  Zn141  1  0.18809100  0.68809100  0.39090900  1
  Zn  Zn142  1  0.62974100  0.98509100  0.36343300  1
  Zn  Zn143  1  0.48186800  0.10387700  0.34349900  1
  Zn  Zn144  1  0.63490400  0.81134500  0.35131100  1
  Zn  Zn145  1  0.06873400  0.62723900  0.42234700  1
  Zn  Zn146  1  0.30015000  0.44700500  0.46721100  1
  Zn  Zn147  1  0.74127700  0.56483700  0.43050700  1
  Zn  Zn148  1  0.41088300  0.01784000  0.46897000  1
  Zn  Zn149  1  0.42206300  0.66673400  0.44631600  1
  Zn  Zn150  1  0.11829900  0.50846900  0.46175700  1
  Zn  Zn151  1  0.78809100  0.78809100  0.49090900  1
  Zn  Zn152  1  0.40744700  0.84894200  0.45947100  1
  Zn  Zn153  1  0.59318400  0.35531000  0.42103500  1
  Zn  Zn154  1  0.10314500  0.85896500  0.48490600  1
  Zn  Zn155  1  0.74644000  0.39109000  0.41838500  1
  Zn  Zn156  1  0.89431300  0.27230500  0.43831900  1
  Zn  Zn157  1  0.89827200  0.76893200  0.43814900  1
  Zn  Zn158  1  0.05290000  0.97645800  0.44689900  1
  Zn  Zn159  1  0.17603100  0.02917600  0.41460700  1
  Zn  Zn160  1  0.88299700  0.12087100  0.46078300  1
  Zn  Zn161  1  0.04402400  0.15607000  0.45854600  1
  Zn  Zn162  1  0.47303600  0.71721600  0.49691200  1
  Zn  Zn163  1  0.35788200  0.96771200  0.42006200  1
  Zn  Zn164  1  0.57790900  0.70724900  0.44366900  1
  Zn  Zn165  1  0.43215800  0.32011100  0.42327300  1
  Zn  Zn166  1  0.05411800  0.80944700  0.43550200  1
  Zn  Zn167  1  0.73809100  0.73809100  0.44090900  1
  Zn  Zn168  1  0.90854600  0.42688300  0.41423900  1
  Zn  Zn169  1  0.79561900  0.44124900  0.46906900  1
  Zn  Zn170  1  0.99474700  0.10597000  0.40662800  1
  Zn  Zn171  1  0.56763600  0.04929800  0.46757900  1
  Zn  Zn172  1  0.48143400  0.37021100  0.47519100  1
  Zn  Zn173  1  0.42328100  0.49972300  0.43491900  1
  Zn  Zn174  1  0.68056200  0.03493200  0.41274900  1
  Zn  Zn175  1  0.06529800  0.45834100  0.41284900  1
  Zn  Zn176  1  0.28809100  0.78809100  0.49090900  1
  Zn  Zn177  1  0.72974100  0.08509100  0.46343300  1
  Zn  Zn178  1  0.58186800  0.20387700  0.44349900  1
  Zn  Zn179  1  0.73490400  0.91134500  0.45131100  1
  Zn  Zn180  1  0.16873400  0.72723900  0.52234700  1
  Zn  Zn181  1  0.40015000  0.54700500  0.56721100  1
  Zn  Zn182  1  0.84127700  0.66483700  0.53050700  1
  Zn  Zn183  1  0.51088300  0.11784000  0.56897000  1
  Zn  Zn184  1  0.52206300  0.76673400  0.54631600  1
  Zn  Zn185  1  0.21829900  0.60846900  0.56175700  1
  Zn  Zn186  1  0.88809100  0.88809100  0.59090900  1
  Zn  Zn187  1  0.50744700  0.94894200  0.55947100  1
  Zn  Zn188  1  0.69318400  0.45531000  0.52103500  1
  Zn  Zn189  1  0.20314500  0.95896500  0.58490600  1
  Zn  Zn190  1  0.84644000  0.49109000  0.51838500  1
  Zn  Zn191  1  0.99431300  0.37230500  0.53831900  1
  Zn  Zn192  1  0.99827200  0.86893200  0.53814900  1
  Zn  Zn193  1  0.15290000  0.07645800  0.54689900  1
  Zn  Zn194  1  0.27603100  0.12917600  0.51460700  1
  Zn  Zn195  1  0.98299700  0.22087100  0.56078300  1
  Zn  Zn196  1  0.14402400  0.25607000  0.55854600  1
  Zn  Zn197  1  0.57303600  0.81721600  0.59691200  1
  Zn  Zn198  1  0.45788200  0.06771200  0.52006200  1
  Zn  Zn199  1  0.67790900  0.80724900  0.54366900  1
  Zn  Zn200  1  0.53215800  0.42011100  0.52327300  1
  Zn  Zn201  1  0.15411800  0.90944700  0.53550200  1
  Zn  Zn202  1  0.83809100  0.83809100  0.54090900  1
  Zn  Zn203  1  0.00854600  0.52688300  0.51423900  1
  Zn  Zn204  1  0.89561900  0.54124900  0.56906900  1
  Zn  Zn205  1  0.09474700  0.20597000  0.50662800  1
  Zn  Zn206  1  0.66763600  0.14929800  0.56757900  1
  Zn  Zn207  1  0.58143400  0.47021100  0.57519100  1
  Zn  Zn208  1  0.52328100  0.59972300  0.53491900  1
  Zn  Zn209  1  0.78056200  0.13493200  0.51274900  1
  Zn  Zn210  1  0.16529800  0.55834100  0.51284900  1
  Zn  Zn211  1  0.38809100  0.88809100  0.59090900  1
  Zn  Zn212  1  0.82974100  0.18509100  0.56343300  1
  Zn  Zn213  1  0.68186800  0.30387700  0.54349900  1
  Zn  Zn214  1  0.83490400  0.01134500  0.55131100  1
  Zn  Zn215  1  0.26873400  0.82723900  0.62234700  1
  Zn  Zn216  1  0.50015000  0.64700500  0.66721100  1
  Zn  Zn217  1  0.94127700  0.76483700  0.63050700  1
  Zn  Zn218  1  0.61088300  0.21784000  0.66897000  1
  Zn  Zn219  1  0.62206300  0.86673400  0.64631600  1
  Zn  Zn220  1  0.31829900  0.70846900  0.66175700  1
  Zn  Zn221  1  0.98809100  0.98809100  0.69090900  1
  Zn  Zn222  1  0.60744700  0.04894200  0.65947100  1
  Zn  Zn223  1  0.79318400  0.55531000  0.62103500  1
  Zn  Zn224  1  0.30314500  0.05896500  0.68490600  1
  Zn  Zn225  1  0.94644000  0.59109000  0.61838500  1
  Zn  Zn226  1  0.09431300  0.47230500  0.63831900  1
  Zn  Zn227  1  0.09827200  0.96893200  0.63814900  1
  Zn  Zn228  1  0.25290000  0.17645800  0.64689900  1
  Zn  Zn229  1  0.37603100  0.22917600  0.61460700  1
  Zn  Zn230  1  0.08299700  0.32087100  0.66078300  1
  Zn  Zn231  1  0.24402400  0.35607000  0.65854600  1
  Zn  Zn232  1  0.67303600  0.91721600  0.69691200  1
  Zn  Zn233  1  0.55788200  0.16771200  0.62006200  1
  Zn  Zn234  1  0.77790900  0.90724900  0.64366900  1
  Zn  Zn235  1  0.63215800  0.52011100  0.62327300  1
  Zn  Zn236  1  0.25411800  0.00944700  0.63550200  1
  Zn  Zn237  1  0.93809100  0.93809100  0.64090900  1
  Zn  Zn238  1  0.10854600  0.62688300  0.61423900  1
  Zn  Zn239  1  0.99561900  0.64124900  0.66906900  1
  Zn  Zn240  1  0.19474700  0.30597000  0.60662800  1
  Zn  Zn241  1  0.76763600  0.24929800  0.66757900  1
  Zn  Zn242  1  0.68143400  0.57021100  0.67519100  1
  Zn  Zn243  1  0.62328100  0.69972300  0.63491900  1
  Zn  Zn244  1  0.88056200  0.23493200  0.61274900  1
  Zn  Zn245  1  0.26529800  0.65834100  0.61284900  1
  Zn  Zn246  1  0.48809100  0.98809100  0.69090900  1
  Zn  Zn247  1  0.92974100  0.28509100  0.66343300  1
  Zn  Zn248  1  0.78186800  0.40387700  0.64349900  1
  Zn  Zn249  1  0.93490400  0.11134500  0.65131100  1
  Zn  Zn250  1  0.36873400  0.92723900  0.72234700  1
  Zn  Zn251  1  0.60015000  0.74700500  0.76721100  1
  Zn  Zn252  1  0.04127700  0.86483700  0.73050700  1
  Zn  Zn253  1  0.71088300  0.31784000  0.76897000  1
  Zn  Zn254  1  0.72206300  0.96673400  0.74631600  1
  Zn  Zn255  1  0.41829900  0.80846900  0.76175700  1
  Zn  Zn256  1  0.08809100  0.08809100  0.79090900  1
  Zn  Zn257  1  0.70744700  0.14894200  0.75947100  1
  Zn  Zn258  1  0.89318400  0.65531000  0.72103500  1
  Zn  Zn259  1  0.40314500  0.15896500  0.78490600  1
  Zn  Zn260  1  0.04644000  0.69109000  0.71838500  1
  Zn  Zn261  1  0.19431300  0.57230500  0.73831900  1
  Zn  Zn262  1  0.19827200  0.06893200  0.73814900  1
  Zn  Zn263  1  0.35290000  0.27645800  0.74689900  1
  Zn  Zn264  1  0.47603100  0.32917600  0.71460700  1
  Zn  Zn265  1  0.18299700  0.42087100  0.76078300  1
  Zn  Zn266  1  0.34402400  0.45607000  0.75854600  1
  Zn  Zn267  1  0.77303600  0.01721600  0.79691200  1
  Zn  Zn268  1  0.65788200  0.26771200  0.72006200  1
  Zn  Zn269  1  0.87790900  0.00724900  0.74366900  1
  Zn  Zn270  1  0.73215800  0.62011100  0.72327300  1
  Zn  Zn271  1  0.35411800  0.10944700  0.73550200  1
  Zn  Zn272  1  0.03809100  0.03809100  0.74090900  1
  Zn  Zn273  1  0.20854600  0.72688300  0.71423900  1
  Zn  Zn274  1  0.09561900  0.74124900  0.76906900  1
  Zn  Zn275  1  0.29474700  0.40597000  0.70662800  1
  Zn  Zn276  1  0.86763600  0.34929800  0.76757900  1
  Zn  Zn277  1  0.78143400  0.67021100  0.77519100  1
  Zn  Zn278  1  0.72328100  0.79972300  0.73491900  1
  Zn  Zn279  1  0.98056200  0.33493200  0.71274900  1
  Zn  Zn280  1  0.36529800  0.75834100  0.71284900  1
  Zn  Zn281  1  0.58809100  0.08809100  0.79090900  1
  Zn  Zn282  1  0.02974100  0.38509100  0.76343300  1
  Zn  Zn283  1  0.88186800  0.50387700  0.74349900  1
  Zn  Zn284  1  0.03490400  0.21134500  0.75131100  1
