# generated using pymatgen
data_Mg16Rh7
_symmetry_space_group_name_H-M   'P 1'
_cell_length_a   8.64031975
_cell_length_b   8.03467500
_cell_length_c   52.55701100
_cell_angle_alpha   90.00000000
_cell_angle_beta   94.71500456
_cell_angle_gamma   90.00000000
_symmetry_Int_Tables_number   1
_chemical_formula_structural   Mg16Rh7
_chemical_formula_sum   'Mg64 Rh28'
_cell_volume   3636.27396607
_cell_formula_units_Z   4
loop_
 _symmetry_equiv_pos_site_id
 _symmetry_equiv_pos_as_xyz
  1  'x, y, z'
loop_
 _atom_site_type_symbol
 _atom_site_label
 _atom_site_symmetry_multiplicity
 _atom_site_fract_x
 _atom_site_fract_y
 _atom_site_fract_z
 _atom_site_occupancy
  Mg  Mg0  1  0.63862900  0.50000000  0.33673500  1
  Mg  Mg1  1  0.63862900  0.00000000  0.33673500  1
  Mg  Mg2  1  0.13288100  0.75000000  0.32524000  1
  Mg  Mg3  1  0.14437700  0.25000000  0.34823000  1
  Mg  Mg4  1  0.21005800  0.50000000  0.47959200  1
  Mg  Mg5  1  0.21005800  0.00000000  0.47959200  1
  Mg  Mg6  1  0.70431000  0.75000000  0.46809700  1
  Mg  Mg7  1  0.36112000  0.25000000  0.40241600  1
  Mg  Mg8  1  0.98181900  0.25000000  0.40241600  1
  Mg  Mg9  1  0.86686700  0.75000000  0.41391100  1
  Mg  Mg10  1  0.48756700  0.75000000  0.41391100  1
  Mg  Mg11  1  0.71580500  0.25000000  0.49108700  1
  Mg  Mg12  1  0.66595700  0.43548400  0.39139200  1
  Mg  Mg13  1  0.93924200  0.93548400  0.36406300  1
  Mg  Mg14  1  0.36534500  0.93548400  0.36406300  1
  Mg  Mg15  1  0.48334200  0.43548400  0.45226300  1
  Mg  Mg16  1  0.90944500  0.43548400  0.45226300  1
  Mg  Mg17  1  0.18272900  0.56451600  0.42493500  1
  Mg  Mg18  1  0.93924200  0.56451600  0.36406300  1
  Mg  Mg19  1  0.18272900  0.93548400  0.42493500  1
  Mg  Mg20  1  0.36534500  0.56451600  0.36406300  1
  Mg  Mg21  1  0.48334200  0.06451600  0.45226300  1
  Mg  Mg22  1  0.66595700  0.06451600  0.39139200  1
  Mg  Mg23  1  0.90944500  0.06451600  0.45226300  1
  Mg  Mg24  1  0.78148600  0.50000000  0.62244900  1
  Mg  Mg25  1  0.78148600  0.00000000  0.62244900  1
  Mg  Mg26  1  0.27573900  0.75000000  0.61095400  1
  Mg  Mg27  1  0.93254800  0.25000000  0.54527300  1
  Mg  Mg28  1  0.55324800  0.25000000  0.54527300  1
  Mg  Mg29  1  0.43829600  0.75000000  0.55676800  1
  Mg  Mg30  1  0.05899500  0.75000000  0.55676800  1
  Mg  Mg31  1  0.28723400  0.25000000  0.63394400  1
  Mg  Mg32  1  0.23738600  0.43548400  0.53424900  1
  Mg  Mg33  1  0.51067000  0.93548400  0.50692000  1
  Mg  Mg34  1  0.93677400  0.93548400  0.50692000  1
  Mg  Mg35  1  0.05477000  0.43548400  0.59512100  1
  Mg  Mg36  1  0.48087400  0.43548400  0.59512100  1
  Mg  Mg37  1  0.75415800  0.56451600  0.56779200  1
  Mg  Mg38  1  0.51067000  0.56451600  0.50692000  1
  Mg  Mg39  1  0.75415800  0.93548400  0.56779200  1
  Mg  Mg40  1  0.93677400  0.56451600  0.50692000  1
  Mg  Mg41  1  0.05477000  0.06451600  0.59512100  1
  Mg  Mg42  1  0.23738600  0.06451600  0.53424900  1
  Mg  Mg43  1  0.48087400  0.06451600  0.59512100  1
  Mg  Mg44  1  0.35291500  0.50000000  0.76530600  1
  Mg  Mg45  1  0.35291500  0.00000000  0.76530600  1
  Mg  Mg46  1  0.84716700  0.75000000  0.75381100  1
  Mg  Mg47  1  0.50397700  0.25000000  0.68813000  1
  Mg  Mg48  1  0.12467600  0.25000000  0.68813000  1
  Mg  Mg49  1  0.00972500  0.75000000  0.69962500  1
  Mg  Mg50  1  0.63042400  0.75000000  0.69962500  1
  Mg  Mg51  1  0.85866200  0.25000000  0.77680100  1
  Mg  Mg52  1  0.80881500  0.43548400  0.67710600  1
  Mg  Mg53  1  0.08209900  0.93548400  0.64977700  1
  Mg  Mg54  1  0.50820200  0.93548400  0.64977700  1
  Mg  Mg55  1  0.62619900  0.43548400  0.73797800  1
  Mg  Mg56  1  0.05230200  0.43548400  0.73797800  1
  Mg  Mg57  1  0.32558600  0.56451600  0.71064900  1
  Mg  Mg58  1  0.08209900  0.56451600  0.64977700  1
  Mg  Mg59  1  0.32558600  0.93548400  0.71064900  1
  Mg  Mg60  1  0.50820200  0.56451600  0.64977700  1
  Mg  Mg61  1  0.62619900  0.06451600  0.73797800  1
  Mg  Mg62  1  0.80881500  0.06451600  0.67710600  1
  Mg  Mg63  1  0.05230200  0.06451600  0.73797800  1
  Rh  Rh64  1  0.83082000  0.25000000  0.35420700  1
  Rh  Rh65  1  0.46391000  0.25000000  0.35420700  1
  Rh  Rh66  1  0.81334800  0.75000000  0.31926300  1
  Rh  Rh67  1  0.44643800  0.75000000  0.31926300  1
  Rh  Rh68  1  0.68624800  0.25000000  0.43197300  1
  Rh  Rh69  1  0.16243900  0.75000000  0.38435400  1
  Rh  Rh70  1  0.65610100  0.75000000  0.37167900  1
  Rh  Rh71  1  0.40224900  0.25000000  0.49706400  1
  Rh  Rh72  1  0.03533800  0.25000000  0.49706400  1
  Rh  Rh73  1  0.38477700  0.75000000  0.46212000  1
  Rh  Rh74  1  0.01786600  0.75000000  0.46212000  1
  Rh  Rh75  1  0.19258600  0.25000000  0.44464800  1
  Rh  Rh76  1  0.25767700  0.25000000  0.57483000  1
  Rh  Rh77  1  0.73386700  0.75000000  0.52721100  1
  Rh  Rh78  1  0.22753000  0.75000000  0.51453600  1
  Rh  Rh79  1  0.97367700  0.25000000  0.63992100  1
  Rh  Rh80  1  0.60676700  0.25000000  0.63992100  1
  Rh  Rh81  1  0.95620500  0.75000000  0.60497700  1
  Rh  Rh82  1  0.58929500  0.75000000  0.60497700  1
  Rh  Rh83  1  0.76401400  0.25000000  0.58750500  1
  Rh  Rh84  1  0.82910500  0.25000000  0.71768700  1
  Rh  Rh85  1  0.30529600  0.75000000  0.67006800  1
  Rh  Rh86  1  0.79895800  0.75000000  0.65739300  1
  Rh  Rh87  1  0.54510600  0.25000000  0.78277800  1
  Rh  Rh88  1  0.17819600  0.25000000  0.78277800  1
  Rh  Rh89  1  0.52763400  0.75000000  0.74783400  1
  Rh  Rh90  1  0.16072400  0.75000000  0.74783400  1
  Rh  Rh91  1  0.33544300  0.25000000  0.73036200  1
