# generated using pymatgen
data_Mg25Pd41
_symmetry_space_group_name_H-M   'P 1'
_cell_length_a   4.30853900
_cell_length_b   10.69961100
_cell_length_c   44.12876800
_cell_angle_alpha   90.00000000
_cell_angle_beta   90.00000000
_cell_angle_gamma   90.00000000
_symmetry_Int_Tables_number   1
_chemical_formula_structural   Mg25Pd41
_chemical_formula_sum   'Mg25 Pd41'
_cell_volume   2034.32258129
_cell_formula_units_Z   1
loop_
 _symmetry_equiv_pos_site_id
 _symmetry_equiv_pos_as_xyz
  1  'x, y, z'
loop_
 _atom_site_type_symbol
 _atom_site_label
 _atom_site_symmetry_multiplicity
 _atom_site_fract_x
 _atom_site_fract_y
 _atom_site_fract_z
 _atom_site_occupancy
  Mg  Mg0  1  0.00000000  0.50000000  0.30468800  1
  Mg  Mg1  1  0.00000000  0.50000000  0.42968800  1
  Mg  Mg2  1  0.00000000  0.00000000  0.36718800  1
  Mg  Mg3  1  0.50000000  0.86253400  0.40954400  1
  Mg  Mg4  1  0.50000000  0.13746600  0.32483100  1
  Mg  Mg5  1  0.50000000  0.36253400  0.38733100  1
  Mg  Mg6  1  0.50000000  0.63746600  0.34704400  1
  Mg  Mg7  1  1.00000000  0.50000000  0.55468800  1
  Mg  Mg8  1  0.00000000  0.00000000  0.49218800  1
  Mg  Mg9  1  0.50000000  0.86253400  0.53454400  1
  Mg  Mg10  1  0.50000000  0.13746600  0.44983100  1
  Mg  Mg11  1  0.50000000  0.36253400  0.51233100  1
  Mg  Mg12  1  0.50000000  0.63746600  0.47204400  1
  Mg  Mg13  1  1.00000000  0.50000000  0.67968800  1
  Mg  Mg14  1  1.00000000  0.00000000  0.61718800  1
  Mg  Mg15  1  0.50000000  0.86253400  0.65954400  1
  Mg  Mg16  1  0.50000000  0.13746600  0.57483100  1
  Mg  Mg17  1  0.50000000  0.36253400  0.63733100  1
  Mg  Mg18  1  0.50000000  0.63746600  0.59704400  1
  Mg  Mg19  1  0.00000000  0.50000000  0.80468800  1
  Mg  Mg20  1  0.00000000  0.00000000  0.74218800  1
  Mg  Mg21  1  0.50000000  0.86253400  0.78454400  1
  Mg  Mg22  1  0.50000000  0.13746600  0.69983100  1
  Mg  Mg23  1  0.50000000  0.36253400  0.76233100  1
  Mg  Mg24  1  0.50000000  0.63746600  0.72204400  1
  Pd  Pd25  1  0.00000000  0.00000000  0.30468800  1
  Pd  Pd26  1  0.50000000  0.61114300  0.40784900  1
  Pd  Pd27  1  0.50000000  0.38885700  0.32652600  1
  Pd  Pd28  1  0.50000000  0.11114300  0.38902600  1
  Pd  Pd29  1  0.50000000  0.88885700  0.34534900  1
  Pd  Pd30  1  0.00000000  0.75616100  0.38111700  1
  Pd  Pd31  1  0.00000000  0.24383900  0.35325800  1
  Pd  Pd32  1  0.00000000  0.25616100  0.41575800  1
  Pd  Pd33  1  0.00000000  0.74383900  0.31861700  1
  Pd  Pd34  1  0.00000000  0.00000000  0.42968800  1
  Pd  Pd35  1  1.00000000  0.50000000  0.36718800  1
  Pd  Pd36  1  0.50000000  0.61114300  0.53284900  1
  Pd  Pd37  1  0.50000000  0.38885700  0.45152600  1
  Pd  Pd38  1  0.50000000  0.11114300  0.51402600  1
  Pd  Pd39  1  0.50000000  0.88885700  0.47034900  1
  Pd  Pd40  1  0.00000000  0.75616100  0.50611700  1
  Pd  Pd41  1  0.00000000  0.24383900  0.47825800  1
  Pd  Pd42  1  0.00000000  0.25616100  0.54075800  1
  Pd  Pd43  1  0.00000000  0.74383900  0.44361700  1
  Pd  Pd44  1  0.00000000  0.00000000  0.55468800  1
  Pd  Pd45  1  1.00000000  0.50000000  0.49218800  1
  Pd  Pd46  1  0.50000000  0.61114300  0.65784900  1
  Pd  Pd47  1  0.50000000  0.38885700  0.57652600  1
  Pd  Pd48  1  0.50000000  0.11114300  0.63902600  1
  Pd  Pd49  1  0.50000000  0.88885700  0.59534900  1
  Pd  Pd50  1  0.00000000  0.75616100  0.63111700  1
  Pd  Pd51  1  0.00000000  0.24383900  0.60325800  1
  Pd  Pd52  1  0.00000000  0.25616100  0.66575800  1
  Pd  Pd53  1  0.00000000  0.74383900  0.56861700  1
  Pd  Pd54  1  0.00000000  0.00000000  0.67968800  1
  Pd  Pd55  1  1.00000000  0.50000000  0.61718800  1
  Pd  Pd56  1  0.50000000  0.61114300  0.78284900  1
  Pd  Pd57  1  0.50000000  0.38885700  0.70152600  1
  Pd  Pd58  1  0.50000000  0.11114300  0.76402600  1
  Pd  Pd59  1  0.50000000  0.88885700  0.72034900  1
  Pd  Pd60  1  0.00000000  0.75616100  0.75611700  1
  Pd  Pd61  1  1.00000000  0.24383900  0.72825800  1
  Pd  Pd62  1  0.00000000  0.25616100  0.79075800  1
  Pd  Pd63  1  0.00000000  0.74383900  0.69361700  1
  Pd  Pd64  1  0.00000000  0.00000000  0.80468800  1
  Pd  Pd65  1  1.00000000  0.50000000  0.74218800  1
