# generated using pymatgen
data_Sr12Mg7
_symmetry_space_group_name_H-M   'P 1'
_cell_length_a   4.12481600
_cell_length_b   8.04169787
_cell_length_c   43.88687600
_cell_angle_alpha   94.42883965
_cell_angle_beta   90.00000000
_cell_angle_gamma   104.86036609
_symmetry_Int_Tables_number   1
_chemical_formula_structural   Sr12Mg7
_chemical_formula_sum   'Sr12 Mg7'
_cell_volume   1402.56347801
_cell_formula_units_Z   1
loop_
 _symmetry_equiv_pos_site_id
 _symmetry_equiv_pos_as_xyz
  1  'x, y, z'
loop_
 _atom_site_type_symbol
 _atom_site_label
 _atom_site_symmetry_multiplicity
 _atom_site_fract_x
 _atom_site_fract_y
 _atom_site_fract_z
 _atom_site_occupancy
  Sr  Sr0  1  0.50900300  0.01800500  0.68406000  1
  Sr  Sr1  1  0.25081500  0.50163100  0.70987900  1
  Sr  Sr2  1  0.41809300  0.83618700  0.59315100  1
  Sr  Sr3  1  0.15990600  0.31981200  0.61897000  1
  Sr  Sr4  1  0.32718400  0.65436900  0.50224200  1
  Sr  Sr5  1  0.06899700  0.13799400  0.52806100  1
  Sr  Sr6  1  0.23627500  0.47255100  0.41133300  1
  Sr  Sr7  1  0.97808800  0.95617600  0.43715200  1
  Sr  Sr8  1  0.14536600  0.29073200  0.32042400  1
  Sr  Sr9  1  0.88717900  0.77435800  0.34624300  1
  Sr  Sr10  1  0.05445700  0.10891400  0.22951500  1
  Sr  Sr11  1  0.79627000  0.59254000  0.25533400  1
  Mg  Mg12  1  0.92536400  0.85072700  0.74242400  1
  Mg  Mg13  1  0.83445400  0.66890900  0.65151500  1
  Mg  Mg14  1  0.74354500  0.48709100  0.56060600  1
  Mg  Mg15  1  0.65263600  0.30527200  0.46969700  1
  Mg  Mg16  1  0.56172700  0.12345400  0.37878800  1
  Mg  Mg17  1  0.47081800  0.94163600  0.28787900  1
  Mg  Mg18  1  0.37990900  0.75981800  0.19697000  1
