# generated using pymatgen
data_Mg54Ni101
_symmetry_space_group_name_H-M   'P 1'
_cell_length_a   4.81848500
_cell_length_b   16.44013798
_cell_length_c   44.59142500
_cell_angle_alpha   84.29083893
_cell_angle_beta   90.00000000
_cell_angle_gamma   81.57316207
_symmetry_Int_Tables_number   1
_chemical_formula_structural   Mg54Ni101
_chemical_formula_sum   'Mg54 Ni101'
_cell_volume   3476.52899218
_cell_formula_units_Z   1
loop_
 _symmetry_equiv_pos_site_id
 _symmetry_equiv_pos_as_xyz
  1  'x, y, z'
loop_
 _atom_site_type_symbol
 _atom_site_label
 _atom_site_symmetry_multiplicity
 _atom_site_fract_x
 _atom_site_fract_y
 _atom_site_fract_z
 _atom_site_occupancy
  Mg  Mg0  1  0.69432500  0.84588900  0.24344200  1
  Mg  Mg1  1  0.60980100  0.01493600  0.26034600  1
  Mg  Mg2  1  0.06602500  0.10248800  0.23576800  1
  Mg  Mg3  1  0.23810000  0.75833800  0.26802000  1
  Mg  Mg4  1  0.32360100  0.58733600  0.25092000  1
  Mg  Mg5  1  0.98052500  0.27348900  0.25286800  1
  Mg  Mg6  1  0.23977900  0.75498000  0.33435100  1
  Mg  Mg7  1  0.15525600  0.92402700  0.35125500  1
  Mg  Mg8  1  0.46705200  0.30043500  0.28889600  1
  Mg  Mg9  1  0.38252800  0.46948100  0.30580100  1
  Mg  Mg10  1  0.61148000  0.01157900  0.32667700  1
  Mg  Mg11  1  0.78355500  0.66742800  0.35892900  1
  Mg  Mg12  1  0.86905600  0.49642700  0.34182900  1
  Mg  Mg13  1  0.52597900  0.18258000  0.34377700  1
  Mg  Mg14  1  0.78523400  0.66407100  0.42526000  1
  Mg  Mg15  1  0.70071000  0.83311800  0.44216400  1
  Mg  Mg16  1  0.01250600  0.20952600  0.37980500  1
  Mg  Mg17  1  0.92798300  0.37857200  0.39671000  1
  Mg  Mg18  1  0.15693400  0.92066900  0.41758600  1
  Mg  Mg19  1  0.32900900  0.57651900  0.44983800  1
  Mg  Mg20  1  0.41451000  0.40551800  0.43273800  1
  Mg  Mg21  1  0.07143400  0.09167100  0.43468600  1
  Mg  Mg22  1  0.33068800  0.57316200  0.51616900  1
  Mg  Mg23  1  0.24616500  0.74220900  0.53307400  1
  Mg  Mg24  1  0.55796100  0.11861700  0.47071400  1
  Mg  Mg25  1  0.47343800  0.28766300  0.48761900  1
  Mg  Mg26  1  0.70238900  0.82976000  0.50849500  1
  Mg  Mg27  1  0.87446400  0.48561000  0.54074700  1
  Mg  Mg28  1  0.95996500  0.31460900  0.52364700  1
  Mg  Mg29  1  0.61688800  0.00076200  0.52559600  1
  Mg  Mg30  1  0.87614300  0.48225300  0.60707800  1
  Mg  Mg31  1  0.79161900  0.65130000  0.62398300  1
  Mg  Mg32  1  0.10341500  0.02770700  0.56162300  1
  Mg  Mg33  1  0.01889200  0.19675400  0.57852800  1
  Mg  Mg34  1  0.24784400  0.73885100  0.59940400  1
  Mg  Mg35  1  0.41991900  0.39470100  0.63165600  1
  Mg  Mg36  1  0.50541900  0.22370000  0.61455600  1
  Mg  Mg37  1  0.16234300  0.90985300  0.61650500  1
  Mg  Mg38  1  0.42159700  0.39134400  0.69798700  1
  Mg  Mg39  1  0.33707400  0.56039000  0.71489200  1
  Mg  Mg40  1  0.64887000  0.93679800  0.65253300  1
  Mg  Mg41  1  0.56434700  0.10584500  0.66943700  1
  Mg  Mg42  1  0.79329800  0.64794200  0.69031400  1
  Mg  Mg43  1  0.96537300  0.30379200  0.72256500  1
  Mg  Mg44  1  0.05087400  0.13279100  0.70546500  1
  Mg  Mg45  1  0.70779700  0.81894400  0.70741400  1
  Mg  Mg46  1  0.96705200  0.30043500  0.78889600  1
  Mg  Mg47  1  0.88252800  0.46948100  0.80580100  1
  Mg  Mg48  1  0.19432500  0.84588900  0.74344200  1
  Mg  Mg49  1  0.10980100  0.01493600  0.76034600  1
  Mg  Mg50  1  0.33875300  0.55703300  0.78122300  1
  Mg  Mg51  1  0.51082800  0.21288300  0.81347400  1
  Mg  Mg52  1  0.59632800  0.04188200  0.79637400  1
  Mg  Mg53  1  0.25325200  0.72803500  0.79832300  1
  Ni  Ni54  1  0.15206300  0.93041300  0.25189400  1
  Ni  Ni55  1  0.65206300  0.43041300  0.25189400  1
  Ni  Ni56  1  0.15206300  0.43041300  0.25189400  1
  Ni  Ni57  1  0.78065300  0.67323300  0.25907400  1
  Ni  Ni58  1  0.52347300  0.18759200  0.24471400  1
  Ni  Ni59  1  0.73919600  0.75614700  0.30113400  1
  Ni  Ni60  1  0.11038400  0.01376900  0.29356300  1
  Ni  Ni61  1  0.99677200  0.24099500  0.31628600  1
  Ni  Ni62  1  0.85280900  0.52892100  0.27841100  1
  Ni  Ni63  1  0.42479000  0.88495800  0.29734800  1
  Ni  Ni64  1  0.69751700  0.83950300  0.34280300  1
  Ni  Ni65  1  0.92479000  0.88495800  0.29734800  1
  Ni  Ni66  1  0.19751700  0.33950300  0.34280300  1
  Ni  Ni67  1  0.92479000  0.38495800  0.29734800  1
  Ni  Ni68  1  0.69751700  0.33950300  0.34280300  1
  Ni  Ni69  1  0.05694300  0.62718400  0.30512200  1
  Ni  Ni70  1  0.32610700  0.58232400  0.34998300  1
  Ni  Ni71  1  0.55041100  0.62718400  0.30512200  1
  Ni  Ni72  1  0.79263800  0.14273200  0.28957500  1
  Ni  Ni73  1  0.06892700  0.09668300  0.33562300  1
  Ni  Ni74  1  0.29916900  0.14273200  0.28957500  1
  Ni  Ni75  1  0.28465000  0.66523800  0.39204300  1
  Ni  Ni76  1  0.65583900  0.92286000  0.38447200  1
  Ni  Ni77  1  0.54222600  0.15008600  0.40719500  1
  Ni  Ni78  1  0.39826300  0.43801200  0.36932100  1
  Ni  Ni79  1  0.97024500  0.79404900  0.38825800  1
  Ni  Ni80  1  0.24297200  0.74859400  0.43371200  1
  Ni  Ni81  1  0.47024500  0.79404900  0.38825800  1
  Ni  Ni82  1  0.74297200  0.24859400  0.43371200  1
  Ni  Ni83  1  0.47024500  0.29404900  0.38825800  1
  Ni  Ni84  1  0.24297200  0.24859400  0.43371200  1
  Ni  Ni85  1  0.60239700  0.53627500  0.39603100  1
  Ni  Ni86  1  0.87156200  0.49141400  0.44089200  1
  Ni  Ni87  1  0.09586600  0.53627500  0.39603100  1
  Ni  Ni88  1  0.33809200  0.05182300  0.38048400  1
  Ni  Ni89  1  0.61438200  0.00577400  0.42653200  1
  Ni  Ni90  1  0.84462400  0.05182300  0.38048400  1
  Ni  Ni91  1  0.83010500  0.57432900  0.48295200  1
  Ni  Ni92  1  0.20129400  0.83195100  0.47538100  1
  Ni  Ni93  1  0.08768100  0.05917700  0.49810400  1
  Ni  Ni94  1  0.94371800  0.34710300  0.46023000  1
  Ni  Ni95  1  0.51569900  0.70314000  0.47916700  1
  Ni  Ni96  1  0.78842600  0.65768500  0.52462100  1
  Ni  Ni97  1  0.01569900  0.70314000  0.47916700  1
  Ni  Ni98  1  0.28842600  0.15768500  0.52462100  1
  Ni  Ni99  1  0.01569900  0.20314000  0.47916700  1
  Ni  Ni100  1  0.78842600  0.15768500  0.52462100  1
  Ni  Ni101  1  0.14785200  0.44536600  0.48694000  1
  Ni  Ni102  1  0.41701600  0.40050500  0.53180100  1
  Ni  Ni103  1  0.64132000  0.44536600  0.48694000  1
  Ni  Ni104  1  0.88354700  0.96091400  0.47139300  1
  Ni  Ni105  1  0.15983700  0.91486500  0.51744100  1
  Ni  Ni106  1  0.39007800  0.96091400  0.47139300  1
  Ni  Ni107  1  0.37555900  0.48341900  0.57386100  1
  Ni  Ni108  1  0.74674800  0.74104200  0.56629000  1
  Ni  Ni109  1  0.63313500  0.96826800  0.58901300  1
  Ni  Ni110  1  0.48917200  0.25619400  0.55113900  1
  Ni  Ni111  1  0.06115400  0.61223100  0.57007600  1
  Ni  Ni112  1  0.33388100  0.56677600  0.61553000  1
  Ni  Ni113  1  0.56115400  0.61223100  0.57007600  1
  Ni  Ni114  1  0.83388100  0.06677600  0.61553000  1
  Ni  Ni115  1  0.56115400  0.11223100  0.57007600  1
  Ni  Ni116  1  0.33388100  0.06677600  0.61553000  1
  Ni  Ni117  1  0.69330600  0.35445700  0.57784900  1
  Ni  Ni118  1  0.96247100  0.30959600  0.62271000  1
  Ni  Ni119  1  0.18677500  0.35445700  0.57784900  1
  Ni  Ni120  1  0.42900100  0.87000400  0.56230200  1
  Ni  Ni121  1  0.70529100  0.82395600  0.60835000  1
  Ni  Ni122  1  0.93553300  0.87000400  0.56230200  1
  Ni  Ni123  1  0.92101400  0.39251000  0.66477000  1
  Ni  Ni124  1  0.29220300  0.65013300  0.65719900  1
  Ni  Ni125  1  0.17859000  0.87735900  0.67992200  1
  Ni  Ni126  1  0.03462700  0.16528400  0.64204800  1
  Ni  Ni127  1  0.60660800  0.52132200  0.66098500  1
  Ni  Ni128  1  0.87933600  0.47586700  0.70643900  1
  Ni  Ni129  1  0.10660800  0.52132200  0.66098500  1
  Ni  Ni130  1  0.37933600  0.97586700  0.70643900  1
  Ni  Ni131  1  0.10660800  0.02132200  0.66098500  1
  Ni  Ni132  1  0.87933600  0.97586700  0.70643900  1
  Ni  Ni133  1  0.23876100  0.26354800  0.66875900  1
  Ni  Ni134  1  0.50792600  0.21868700  0.71361900  1
  Ni  Ni135  1  0.73222900  0.26354800  0.66875900  1
  Ni  Ni136  1  0.97445600  0.77909500  0.65321100  1
  Ni  Ni137  1  0.25074600  0.73304700  0.69925900  1
  Ni  Ni138  1  0.48098700  0.77909500  0.65321100  1
  Ni  Ni139  1  0.46646900  0.30160100  0.75567900  1
  Ni  Ni140  1  0.83765700  0.55922400  0.74810800  1
  Ni  Ni141  1  0.72404400  0.78645000  0.77083100  1
  Ni  Ni142  1  0.58008100  0.07437500  0.73295700  1
  Ni  Ni143  1  0.15206300  0.43041300  0.75189400  1
  Ni  Ni144  1  0.42479000  0.38495800  0.79734800  1
  Ni  Ni145  1  0.65206300  0.43041300  0.75189400  1
  Ni  Ni146  1  0.92479000  0.88495800  0.79734800  1
  Ni  Ni147  1  0.65206300  0.93041300  0.75189400  1
  Ni  Ni148  1  0.42479000  0.88495800  0.79734800  1
  Ni  Ni149  1  0.78421500  0.17263900  0.75966800  1
  Ni  Ni150  1  0.05338000  0.12777800  0.80452800  1
  Ni  Ni151  1  0.27768400  0.17263900  0.75966800  1
  Ni  Ni152  1  0.51991000  0.68818600  0.74412000  1
  Ni  Ni153  1  0.79620000  0.64213800  0.79016900  1
  Ni  Ni154  1  0.02644200  0.68818600  0.74412000  1
