# generated using pymatgen
data_Mg3Hg2
_symmetry_space_group_name_H-M   'P 1'
_cell_length_a   10.23075603
_cell_length_b   10.23075545
_cell_length_c   44.68034300
_cell_angle_alpha   95.12420684
_cell_angle_beta   84.87579346
_cell_angle_gamma   90.69651047
_symmetry_Int_Tables_number   1
_chemical_formula_structural   Mg3Hg2
_chemical_formula_sum   'Mg72 Hg48'
_cell_volume   4639.27093619
_cell_formula_units_Z   24
loop_
 _symmetry_equiv_pos_site_id
 _symmetry_equiv_pos_as_xyz
  1  'x, y, z'
loop_
 _atom_site_type_symbol
 _atom_site_label
 _atom_site_symmetry_multiplicity
 _atom_site_fract_x
 _atom_site_fract_y
 _atom_site_fract_z
 _atom_site_occupancy
  Mg  Mg0  1  0.91505400  0.41828000  0.25000000  1
  Mg  Mg1  1  0.58172000  0.08494600  0.25000000  1
  Mg  Mg2  1  0.40159700  0.84633400  0.28830200  1
  Mg  Mg3  1  0.65080100  0.59713000  0.28862100  1
  Mg  Mg4  1  0.07610600  0.92389400  0.26891200  1
  Mg  Mg5  1  0.72836100  0.27163900  0.30801100  1
  Mg  Mg6  1  0.15366600  0.59840300  0.28830200  1
  Mg  Mg7  1  0.40287000  0.34919900  0.28862100  1
  Mg  Mg8  1  0.73556700  0.93110000  0.28846200  1
  Mg  Mg9  1  0.22274600  0.11058700  0.32692300  1
  Mg  Mg10  1  0.06890000  0.26443300  0.28846200  1
  Mg  Mg11  1  0.88941300  0.77725400  0.32692300  1
  Mg  Mg12  1  0.70928900  0.53864200  0.36522500  1
  Mg  Mg13  1  0.95849300  0.28943800  0.36554400  1
  Mg  Mg14  1  0.38379800  0.61620200  0.34583600  1
  Mg  Mg15  1  0.03605300  0.96394700  0.38493400  1
  Mg  Mg16  1  0.46135800  0.29071100  0.36522500  1
  Mg  Mg17  1  0.71056200  0.04150700  0.36554400  1
  Mg  Mg18  1  0.04325900  0.62340800  0.36538500  1
  Mg  Mg19  1  0.53043800  0.80289500  0.40384600  1
  Mg  Mg20  1  0.37659200  0.95674100  0.36538500  1
  Mg  Mg21  1  0.19710500  0.46956200  0.40384600  1
  Mg  Mg22  1  0.01698100  0.23095000  0.44214900  1
  Mg  Mg23  1  0.26618600  0.98174600  0.44246700  1
  Mg  Mg24  1  0.69149100  0.30850900  0.42275900  1
  Mg  Mg25  1  0.34374500  0.65625500  0.46185700  1
  Mg  Mg26  1  0.76905000  0.98301900  0.44214900  1
  Mg  Mg27  1  0.01825400  0.73381400  0.44246700  1
  Mg  Mg28  1  0.35095100  0.31571500  0.44230800  1
  Mg  Mg29  1  0.83813100  0.49520300  0.48076900  1
  Mg  Mg30  1  0.68428500  0.64904900  0.44230800  1
  Mg  Mg31  1  0.50479700  0.16186900  0.48076900  1
  Mg  Mg32  1  0.32467400  0.92325800  0.51907200  1
  Mg  Mg33  1  0.57387800  0.67405300  0.51939000  1
  Mg  Mg34  1  0.99918300  0.00081700  0.49968200  1
  Mg  Mg35  1  0.65143800  0.34856200  0.53878000  1
  Mg  Mg36  1  0.07674200  0.67532600  0.51907200  1
  Mg  Mg37  1  0.32594700  0.42612200  0.51939000  1
  Mg  Mg38  1  0.65864400  0.00802300  0.51923100  1
  Mg  Mg39  1  0.14582300  0.18751000  0.55769200  1
  Mg  Mg40  1  0.99197700  0.34135600  0.51923100  1
  Mg  Mg41  1  0.81249000  0.85417700  0.55769200  1
  Mg  Mg42  1  0.63236600  0.61556500  0.59599500  1
  Mg  Mg43  1  0.88157000  0.36636100  0.59631300  1
  Mg  Mg44  1  0.30687500  0.69312500  0.57660500  1
  Mg  Mg45  1  0.95913000  0.04087000  0.61570300  1
  Mg  Mg46  1  0.38443500  0.36763400  0.59599500  1
  Mg  Mg47  1  0.63363900  0.11843000  0.59631300  1
  Mg  Mg48  1  0.96633600  0.70033100  0.59615400  1
  Mg  Mg49  1  0.45351500  0.87981800  0.63461500  1
  Mg  Mg50  1  0.29966900  0.03366400  0.59615400  1
  Mg  Mg51  1  0.12018200  0.54648500  0.63461500  1
  Mg  Mg52  1  0.94005800  0.30787300  0.67291800  1
  Mg  Mg53  1  0.18926300  0.05866900  0.67323600  1
  Mg  Mg54  1  0.61456700  0.38543300  0.65352800  1
  Mg  Mg55  1  0.26682200  0.73317800  0.69262600  1
  Mg  Mg56  1  0.69212700  0.05994200  0.67291800  1
  Mg  Mg57  1  0.94133100  0.81073700  0.67323600  1
  Mg  Mg58  1  0.27402800  0.39263900  0.67307700  1
  Mg  Mg59  1  0.76120800  0.57212600  0.71153800  1
  Mg  Mg60  1  0.60736100  0.72597200  0.67307700  1
  Mg  Mg61  1  0.42787400  0.23879200  0.71153800  1
  Mg  Mg62  1  0.24775100  0.00018100  0.74984100  1
  Mg  Mg63  1  0.49695500  0.75097600  0.75015900  1
  Mg  Mg64  1  0.92226000  0.07774000  0.73045100  1
  Mg  Mg65  1  0.57451500  0.42548500  0.76954900  1
  Mg  Mg66  1  0.99981900  0.75224900  0.74984100  1
  Mg  Mg67  1  0.24902400  0.50304500  0.75015900  1
  Mg  Mg68  1  0.58172000  0.08494600  0.75000000  1
  Mg  Mg69  1  0.06890000  0.26443300  0.78846200  1
  Mg  Mg70  1  0.91505400  0.41828000  0.75000000  1
  Mg  Mg71  1  0.73556700  0.93110000  0.78846200  1
  Hg  Hg72  1  0.20542700  0.40495200  0.23926000  1
  Hg  Hg73  1  0.90172600  0.70865200  0.26074000  1
  Hg  Hg74  1  0.62901100  0.37098900  0.24775100  1
  Hg  Hg75  1  0.86776400  0.13223600  0.25224900  1
  Hg  Hg76  1  0.59504800  0.79457300  0.23926000  1
  Hg  Hg77  1  0.29134800  0.09827400  0.26074000  1
  Hg  Hg78  1  0.51311900  0.09726000  0.31618300  1
  Hg  Hg79  1  0.20941900  0.40096000  0.33766300  1
  Hg  Hg80  1  0.93670300  0.06329700  0.32467400  1
  Hg  Hg81  1  0.17545600  0.82454400  0.32917300  1
  Hg  Hg82  1  0.90274000  0.48688100  0.31618300  1
  Hg  Hg83  1  0.59904000  0.79058100  0.33766300  1
  Hg  Hg84  1  0.82081100  0.78956700  0.39310600  1
  Hg  Hg85  1  0.51711100  0.09326800  0.41458600  1
  Hg  Hg86  1  0.24439500  0.75560500  0.40159700  1
  Hg  Hg87  1  0.48314800  0.51685200  0.40609600  1
  Hg  Hg88  1  0.21043300  0.17918900  0.39310600  1
  Hg  Hg89  1  0.90673200  0.48288900  0.41458600  1
  Hg  Hg90  1  0.12850400  0.48187500  0.47002900  1
  Hg  Hg91  1  0.82480300  0.78557600  0.49150900  1
  Hg  Hg92  1  0.55208800  0.44791200  0.47852000  1
  Hg  Hg93  1  0.79084000  0.20916000  0.48301900  1
  Hg  Hg94  1  0.51812500  0.87149600  0.47002900  1
  Hg  Hg95  1  0.21442400  0.17519700  0.49150900  1
  Hg  Hg96  1  0.43619600  0.17418300  0.54695200  1
  Hg  Hg97  1  0.13249500  0.47788300  0.56843200  1
  Hg  Hg98  1  0.85978000  0.14022000  0.55544300  1
  Hg  Hg99  1  0.09853300  0.90146700  0.55994200  1
  Hg  Hg100  1  0.82581700  0.56380400  0.54695200  1
  Hg  Hg101  1  0.52211700  0.86750500  0.56843200  1
  Hg  Hg102  1  0.74388800  0.86649000  0.62387500  1
  Hg  Hg103  1  0.44018800  0.17019100  0.64535500  1
  Hg  Hg104  1  0.16747200  0.83252800  0.63236600  1
  Hg  Hg105  1  0.40622500  0.59377500  0.63686500  1
  Hg  Hg106  1  0.13351000  0.25611200  0.62387500  1
  Hg  Hg107  1  0.82980900  0.55981200  0.64535500  1
  Hg  Hg108  1  0.05158100  0.55879800  0.70079800  1
  Hg  Hg109  1  0.74788000  0.86249900  0.72227900  1
  Hg  Hg110  1  0.47516500  0.52483500  0.70928900  1
  Hg  Hg111  1  0.71391700  0.28608300  0.71378800  1
  Hg  Hg112  1  0.44120200  0.94841900  0.70079800  1
  Hg  Hg113  1  0.13750100  0.25212000  0.72227900  1
  Hg  Hg114  1  0.35927300  0.25110600  0.77772100  1
  Hg  Hg115  1  0.05557200  0.55480600  0.79920200  1
  Hg  Hg116  1  0.78285700  0.21714300  0.78621200  1
  Hg  Hg117  1  0.02161000  0.97839000  0.79071100  1
  Hg  Hg118  1  0.74889400  0.64072700  0.77772100  1
  Hg  Hg119  1  0.44519400  0.94442800  0.79920200  1
