# generated using pymatgen
data_Mg14Ni27
_symmetry_space_group_name_H-M   'P 1'
_cell_length_a   4.81848500
_cell_length_b   4.81848489
_cell_length_c   47.15446000
_cell_angle_alpha   90.00000000
_cell_angle_beta   90.00000000
_cell_angle_gamma   120.00000763
_symmetry_Int_Tables_number   1
_chemical_formula_structural   Mg14Ni27
_chemical_formula_sum   'Mg14 Ni27'
_cell_volume   948.14418693
_cell_formula_units_Z   1
loop_
 _symmetry_equiv_pos_site_id
 _symmetry_equiv_pos_as_xyz
  1  'x, y, z'
loop_
 _atom_site_type_symbol
 _atom_site_label
 _atom_site_symmetry_multiplicity
 _atom_site_fract_x
 _atom_site_fract_y
 _atom_site_fract_z
 _atom_site_occupancy
  Mg  Mg0  1  0.00000000  0.00000000  0.42039700  1
  Mg  Mg1  1  0.00000000  0.00000000  0.48238100  1
  Mg  Mg2  1  0.00000000  0.00000000  0.25373000  1
  Mg  Mg3  1  0.00000000  0.00000000  0.31571400  1
  Mg  Mg4  1  0.66666700  0.33333300  0.17003900  1
  Mg  Mg5  1  0.33333300  0.66666700  0.39940600  1
  Mg  Mg6  1  0.33333300  0.66666700  0.33670500  1
  Mg  Mg7  1  0.66666700  0.33333300  0.23273900  1
  Mg  Mg8  1  0.00000000  0.00000000  0.58706400  1
  Mg  Mg9  1  0.00000000  0.00000000  0.64904700  1
  Mg  Mg10  1  0.66666700  0.33333300  0.50337200  1
  Mg  Mg11  1  0.33333300  0.66666700  0.73273900  1
  Mg  Mg12  1  0.33333300  0.66666700  0.67003900  1
  Mg  Mg13  1  0.66666700  0.33333300  0.56607200  1
  Ni  Ni14  1  0.66666700  0.33333300  0.40971400  1
  Ni  Ni15  1  0.33333300  0.66666700  0.49306400  1
  Ni  Ni16  1  0.33333300  0.66666700  0.24304700  1
  Ni  Ni17  1  0.66666700  0.33333300  0.32639700  1
  Ni  Ni18  1  0.50000000  0.00000000  0.45138900  1
  Ni  Ni19  1  0.00000000  0.50000000  0.45138900  1
  Ni  Ni20  1  0.50000000  0.50000000  0.45138900  1
  Ni  Ni21  1  0.50000000  0.00000000  0.28472200  1
  Ni  Ni22  1  0.00000000  0.50000000  0.28472200  1
  Ni  Ni23  1  0.50000000  0.50000000  0.28472200  1
  Ni  Ni24  1  0.83551000  0.67102100  0.36805600  1
  Ni  Ni25  1  0.32897900  0.16449000  0.36805600  1
  Ni  Ni26  1  0.83551000  0.16449000  0.36805600  1
  Ni  Ni27  1  0.16449000  0.32897900  0.20138900  1
  Ni  Ni28  1  0.67102100  0.83551000  0.20138900  1
  Ni  Ni29  1  0.16449000  0.83551000  0.20138900  1
  Ni  Ni30  1  0.33333300  0.66666700  0.57638000  1
  Ni  Ni31  1  0.66666700  0.33333300  0.65973100  1
  Ni  Ni32  1  0.50000000  0.00000000  0.61805600  1
  Ni  Ni33  1  0.00000000  0.50000000  0.61805600  1
  Ni  Ni34  1  0.50000000  0.50000000  0.61805600  1
  Ni  Ni35  1  0.83551000  0.67102100  0.70138900  1
  Ni  Ni36  1  0.32897900  0.16449000  0.70138900  1
  Ni  Ni37  1  0.83551000  0.16449000  0.70138900  1
  Ni  Ni38  1  0.16449000  0.32897900  0.53472200  1
  Ni  Ni39  1  0.67102100  0.83551000  0.53472200  1
  Ni  Ni40  1  0.16449000  0.83551000  0.53472200  1
