# generated using pymatgen
data_MgSc2
_symmetry_space_group_name_H-M   'P 1'
_cell_length_a   3.35466600
_cell_length_b   17.27528044
_cell_length_c   49.31366500
_cell_angle_alpha   92.13654328
_cell_angle_beta   90.00000000
_cell_angle_gamma   90.00000000
_symmetry_Int_Tables_number   1
_chemical_formula_structural   MgSc2
_chemical_formula_sum   'Mg24 Sc48'
_cell_volume   2855.87803226
_cell_formula_units_Z   24
loop_
 _symmetry_equiv_pos_site_id
 _symmetry_equiv_pos_as_xyz
  1  'x, y, z'
loop_
 _atom_site_type_symbol
 _atom_site_label
 _atom_site_symmetry_multiplicity
 _atom_site_fract_x
 _atom_site_fract_y
 _atom_site_fract_z
 _atom_site_occupancy
  Mg  Mg0  1  0.50000000  0.63116200  0.26876000  1
  Mg  Mg1  1  0.00000000  0.01883800  0.28124000  1
  Mg  Mg2  1  0.00000000  0.08116200  0.21876000  1
  Mg  Mg3  1  0.50000000  0.46883800  0.23124000  1
  Mg  Mg4  1  0.50000000  0.73116200  0.36876000  1
  Mg  Mg5  1  0.00000000  0.11883800  0.38124000  1
  Mg  Mg6  1  0.00000000  0.18116200  0.31876000  1
  Mg  Mg7  1  0.50000000  0.56883800  0.33124000  1
  Mg  Mg8  1  0.50000000  0.83116200  0.46876000  1
  Mg  Mg9  1  0.00000000  0.21883800  0.48124000  1
  Mg  Mg10  1  0.00000000  0.28116200  0.41876000  1
  Mg  Mg11  1  0.50000000  0.66883800  0.43124000  1
  Mg  Mg12  1  0.50000000  0.93116200  0.56876000  1
  Mg  Mg13  1  0.00000000  0.31883800  0.58124000  1
  Mg  Mg14  1  1.00000000  0.38116200  0.51876000  1
  Mg  Mg15  1  0.50000000  0.76883800  0.53124000  1
  Mg  Mg16  1  0.50000000  0.03116200  0.66876000  1
  Mg  Mg17  1  0.00000000  0.41883800  0.68124000  1
  Mg  Mg18  1  1.00000000  0.48116200  0.61876000  1
  Mg  Mg19  1  0.50000000  0.86883800  0.63124000  1
  Mg  Mg20  1  0.50000000  0.13116200  0.76876000  1
  Mg  Mg21  1  0.00000000  0.51883800  0.78124000  1
  Mg  Mg22  1  0.00000000  0.58116200  0.71876000  1
  Mg  Mg23  1  0.50000000  0.96883800  0.73124000  1
  Sc  Sc24  1  0.50000000  0.93284100  0.23524000  1
  Sc  Sc25  1  0.00000000  0.77910000  0.25232200  1
  Sc  Sc26  1  0.00000000  0.61715900  0.21476000  1
  Sc  Sc27  1  0.50000000  0.87090000  0.29767800  1
  Sc  Sc28  1  1.00000000  0.48284100  0.28524000  1
  Sc  Sc29  1  0.50000000  0.22910000  0.20232200  1
  Sc  Sc30  1  0.50000000  0.16715900  0.26476000  1
  Sc  Sc31  1  1.00000000  0.32090000  0.24767800  1
  Sc  Sc32  1  0.50000000  0.03284100  0.33524000  1
  Sc  Sc33  1  1.00000000  0.87910000  0.35232200  1
  Sc  Sc34  1  0.00000000  0.71715900  0.31476000  1
  Sc  Sc35  1  0.50000000  0.97090000  0.39767800  1
  Sc  Sc36  1  0.00000000  0.58284100  0.38524000  1
  Sc  Sc37  1  0.50000000  0.32910000  0.30232200  1
  Sc  Sc38  1  0.50000000  0.26715900  0.36476000  1
  Sc  Sc39  1  0.00000000  0.42090000  0.34767800  1
  Sc  Sc40  1  0.50000000  0.13284100  0.43524000  1
  Sc  Sc41  1  1.00000000  0.97910000  0.45232200  1
  Sc  Sc42  1  1.00000000  0.81715900  0.41476000  1
  Sc  Sc43  1  0.50000000  0.07090000  0.49767800  1
  Sc  Sc44  1  1.00000000  0.68284100  0.48524000  1
  Sc  Sc45  1  0.50000000  0.42910000  0.40232200  1
  Sc  Sc46  1  0.50000000  0.36715900  0.46476000  1
  Sc  Sc47  1  0.00000000  0.52090000  0.44767800  1
  Sc  Sc48  1  0.50000000  0.23284100  0.53524000  1
  Sc  Sc49  1  1.00000000  0.07910000  0.55232200  1
  Sc  Sc50  1  1.00000000  0.91715900  0.51476000  1
  Sc  Sc51  1  0.50000000  0.17090000  0.59767800  1
  Sc  Sc52  1  0.00000000  0.78284100  0.58524000  1
  Sc  Sc53  1  0.50000000  0.52910000  0.50232200  1
  Sc  Sc54  1  0.50000000  0.46715900  0.56476000  1
  Sc  Sc55  1  0.00000000  0.62090000  0.54767800  1
  Sc  Sc56  1  0.50000000  0.33284100  0.63524000  1
  Sc  Sc57  1  0.00000000  0.17910000  0.65232200  1
  Sc  Sc58  1  0.00000000  0.01715900  0.61476000  1
  Sc  Sc59  1  0.50000000  0.27090000  0.69767800  1
  Sc  Sc60  1  0.00000000  0.88284100  0.68524000  1
  Sc  Sc61  1  0.50000000  0.62910000  0.60232200  1
  Sc  Sc62  1  0.50000000  0.56715900  0.66476000  1
  Sc  Sc63  1  1.00000000  0.72090000  0.64767800  1
  Sc  Sc64  1  0.50000000  0.43284100  0.73524000  1
  Sc  Sc65  1  1.00000000  0.27910000  0.75232200  1
  Sc  Sc66  1  0.00000000  0.11715900  0.71476000  1
  Sc  Sc67  1  0.50000000  0.37090000  0.79767800  1
  Sc  Sc68  1  0.00000000  0.98284100  0.78524000  1
  Sc  Sc69  1  0.50000000  0.72910000  0.70232200  1
  Sc  Sc70  1  0.50000000  0.66715900  0.76476000  1
  Sc  Sc71  1  1.00000000  0.82090000  0.74767800  1
