# generated using pymatgen
data_Li3Mg7
_symmetry_space_group_name_H-M   'P 1'
_cell_length_a   3.05132800
_cell_length_b   5.06834700
_cell_length_c   50.50617600
_cell_angle_alpha   90.00000000
_cell_angle_beta   90.00000000
_cell_angle_gamma   90.00000000
_symmetry_Int_Tables_number   1
_chemical_formula_structural   Li3Mg7
_chemical_formula_sum   'Li6 Mg14'
_cell_volume   781.08756331
_cell_formula_units_Z   2
loop_
 _symmetry_equiv_pos_site_id
 _symmetry_equiv_pos_as_xyz
  1  'x, y, z'
loop_
 _atom_site_type_symbol
 _atom_site_label
 _atom_site_symmetry_multiplicity
 _atom_site_fract_x
 _atom_site_fract_y
 _atom_site_fract_z
 _atom_site_occupancy
  Li  Li0  1  0.50000000  0.75000000  0.48244500  1
  Li  Li1  1  0.00000000  0.25000000  0.23977700  1
  Li  Li2  1  0.00000000  0.75000000  0.31577800  1
  Li  Li3  1  0.50000000  0.25000000  0.40644400  1
  Li  Li4  1  0.00000000  0.25000000  0.57311100  1
  Li  Li5  1  0.00000000  0.75000000  0.64911200  1
  Mg  Mg6  1  0.00000000  0.75000000  0.20512000  1
  Mg  Mg7  1  0.50000000  0.75000000  0.26073400  1
  Mg  Mg8  1  0.50000000  0.25000000  0.18376900  1
  Mg  Mg9  1  0.00000000  0.25000000  0.46148800  1
  Mg  Mg10  1  0.50000000  0.75000000  0.37178600  1
  Mg  Mg11  1  0.00000000  0.75000000  0.42740100  1
  Mg  Mg12  1  0.00000000  0.25000000  0.35043600  1
  Mg  Mg13  1  0.50000000  0.25000000  0.29482200  1
  Mg  Mg14  1  0.00000000  0.75000000  0.53845300  1
  Mg  Mg15  1  0.50000000  0.75000000  0.59406700  1
  Mg  Mg16  1  0.50000000  0.25000000  0.51710300  1
  Mg  Mg17  1  0.50000000  0.75000000  0.70512000  1
  Mg  Mg18  1  0.00000000  0.25000000  0.68376900  1
  Mg  Mg19  1  0.50000000  0.25000000  0.62815500  1
