# generated using pymatgen
data_Mg14Ir23
_symmetry_space_group_name_H-M   'P 1'
_cell_length_a   8.54477469
_cell_length_b   9.72091536
_cell_length_c   40.45091800
_cell_angle_alpha   92.27818184
_cell_angle_beta   91.63073542
_cell_angle_gamma   96.80090534
_symmetry_Int_Tables_number   1
_chemical_formula_structural   Mg14Ir23
_chemical_formula_sum   'Mg42 Ir69'
_cell_volume   3331.83388964
_cell_formula_units_Z   3
loop_
 _symmetry_equiv_pos_site_id
 _symmetry_equiv_pos_as_xyz
  1  'x, y, z'
loop_
 _atom_site_type_symbol
 _atom_site_label
 _atom_site_symmetry_multiplicity
 _atom_site_fract_x
 _atom_site_fract_y
 _atom_site_fract_z
 _atom_site_occupancy
  Mg  Mg0  1  0.81855800  0.87665800  0.71237100  1
  Mg  Mg1  1  0.18144200  0.95552800  0.71762900  1
  Mg  Mg2  1  0.91533800  0.39083900  0.67998300  1
  Mg  Mg3  1  0.08466200  0.56634700  0.62501700  1
  Mg  Mg4  1  0.61669600  0.87627900  0.64567900  1
  Mg  Mg5  1  0.38330400  0.08090600  0.65932100  1
  Mg  Mg6  1  0.55549200  0.37091800  0.67865500  1
  Mg  Mg7  1  0.44450800  0.58626800  0.62634500  1
  Mg  Mg8  1  0.99788700  0.12428100  0.66221300  1
  Mg  Mg9  1  0.00211300  0.83290500  0.64278700  1
  Mg  Mg10  1  0.81855800  0.00165800  0.58737100  1
  Mg  Mg11  1  0.18144200  0.08052800  0.59262900  1
  Mg  Mg12  1  0.91533800  0.51583900  0.55498300  1
  Mg  Mg13  1  0.08466200  0.69134700  0.50001700  1
  Mg  Mg14  1  0.61669600  0.00127900  0.52067900  1
  Mg  Mg15  1  0.38330400  0.20590600  0.53432100  1
  Mg  Mg16  1  0.55549200  0.49591800  0.55365500  1
  Mg  Mg17  1  0.44450800  0.71126800  0.50134500  1
  Mg  Mg18  1  0.99788700  0.24928100  0.53721300  1
  Mg  Mg19  1  0.00211300  0.95790500  0.51778700  1
  Mg  Mg20  1  0.81855800  0.12665800  0.46237100  1
  Mg  Mg21  1  0.18144200  0.20552800  0.46762900  1
  Mg  Mg22  1  0.91533800  0.64083900  0.42998300  1
  Mg  Mg23  1  0.08466200  0.81634700  0.37501700  1
  Mg  Mg24  1  0.61669600  0.12627900  0.39567900  1
  Mg  Mg25  1  0.38330400  0.33090600  0.40932100  1
  Mg  Mg26  1  0.55549200  0.62091800  0.42865500  1
  Mg  Mg27  1  0.44450800  0.83626800  0.37634500  1
  Mg  Mg28  1  0.99788700  0.37428100  0.41221300  1
  Mg  Mg29  1  0.00211300  0.08290500  0.39278700  1
  Mg  Mg30  1  0.81855800  0.25165800  0.33737100  1
  Mg  Mg31  1  0.18144200  0.33052800  0.34262900  1
  Mg  Mg32  1  0.91533800  0.76583900  0.30498300  1
  Mg  Mg33  1  0.08466200  0.94134700  0.25001700  1
  Mg  Mg34  1  0.61669600  0.25127900  0.27067900  1
  Mg  Mg35  1  0.38330400  0.45590600  0.28432100  1
  Mg  Mg36  1  0.55549200  0.74591800  0.30365500  1
  Mg  Mg37  1  0.44450800  0.96126800  0.25134500  1
  Mg  Mg38  1  0.99788700  0.49928100  0.28721300  1
  Mg  Mg39  1  0.00211300  0.20790500  0.26778700  1
  Mg  Mg40  1  0.81855800  0.37665800  0.21237100  1
  Mg  Mg41  1  0.18144200  0.45552800  0.21762900  1
  Ir  Ir42  1  0.97167900  0.16194600  0.73139000  1
  Ir  Ir43  1  0.02832100  0.67024000  0.69861000  1
  Ir  Ir44  1  0.22952800  0.26229800  0.70468200  1
  Ir  Ir45  1  0.77047200  0.56988800  0.72531800  1
  Ir  Ir46  1  0.50000000  0.91609300  0.71500000  1
  Ir  Ir47  1  0.53311500  0.66141500  0.69802100  1
  Ir  Ir48  1  0.46688500  0.17077100  0.73197900  1
  Ir  Ir49  1  0.29590700  0.71264600  0.73691200  1
  Ir  Ir50  1  0.70409300  0.11954000  0.69308800  1
  Ir  Ir51  1  0.97167900  0.28694600  0.60639000  1
  Ir  Ir52  1  0.02832100  0.79524000  0.57361000  1
  Ir  Ir53  1  0.77047200  0.63250900  0.66269600  1
  Ir  Ir54  1  0.22952800  0.32467600  0.64230400  1
  Ir  Ir55  1  0.22952800  0.38729800  0.57968200  1
  Ir  Ir56  1  0.77047200  0.69488800  0.60031800  1
  Ir  Ir57  1  0.50000000  0.04109300  0.59000000  1
  Ir  Ir58  1  0.25697700  0.51116100  0.68800500  1
  Ir  Ir59  1  0.74302300  0.44602500  0.61699500  1
  Ir  Ir60  1  0.53311500  0.78641500  0.57302100  1
  Ir  Ir61  1  0.46688500  0.29577100  0.60697900  1
  Ir  Ir62  1  0.70409300  0.17802400  0.63460400  1
  Ir  Ir63  1  0.29590700  0.77916100  0.67039600  1
  Ir  Ir64  1  0.29590700  0.83764600  0.61191200  1
  Ir  Ir65  1  0.70409300  0.24454000  0.56808800  1
  Ir  Ir66  1  0.97167900  0.41194600  0.48139000  1
  Ir  Ir67  1  0.02832100  0.92024000  0.44861000  1
  Ir  Ir68  1  0.77047200  0.75750900  0.53769600  1
  Ir  Ir69  1  0.22952800  0.44967600  0.51730400  1
  Ir  Ir70  1  0.22952800  0.51229800  0.45468200  1
  Ir  Ir71  1  0.77047200  0.81988800  0.47531800  1
  Ir  Ir72  1  0.50000000  0.16609300  0.46500000  1
  Ir  Ir73  1  0.25697700  0.63616100  0.56300500  1
  Ir  Ir74  1  0.74302300  0.57102500  0.49199500  1
  Ir  Ir75  1  0.53311500  0.91141500  0.44802100  1
  Ir  Ir76  1  0.46688500  0.42077100  0.48197900  1
  Ir  Ir77  1  0.70409300  0.30302400  0.50960400  1
  Ir  Ir78  1  0.29590700  0.90416100  0.54539600  1
  Ir  Ir79  1  0.29590700  0.96264600  0.48691200  1
  Ir  Ir80  1  0.70409300  0.36954000  0.44308800  1
  Ir  Ir81  1  0.97167900  0.53694600  0.35639000  1
  Ir  Ir82  1  0.02832100  0.04524000  0.32361000  1
  Ir  Ir83  1  0.77047200  0.88250900  0.41269600  1
  Ir  Ir84  1  0.22952800  0.57467600  0.39230400  1
  Ir  Ir85  1  0.22952800  0.63729800  0.32968200  1
  Ir  Ir86  1  0.77047200  0.94488800  0.35031800  1
  Ir  Ir87  1  0.50000000  0.29109300  0.34000000  1
  Ir  Ir88  1  0.25697700  0.76116100  0.43800500  1
  Ir  Ir89  1  0.74302300  0.69602500  0.36699500  1
  Ir  Ir90  1  0.53311500  0.03641500  0.32302100  1
  Ir  Ir91  1  0.46688500  0.54577100  0.35697900  1
  Ir  Ir92  1  0.70409300  0.42802400  0.38460400  1
  Ir  Ir93  1  0.29590700  0.02916100  0.42039600  1
  Ir  Ir94  1  0.29590700  0.08764600  0.36191200  1
  Ir  Ir95  1  0.70409300  0.49454000  0.31808800  1
  Ir  Ir96  1  0.97167900  0.66194600  0.23139000  1
  Ir  Ir97  1  0.02832100  0.17024000  0.19861000  1
  Ir  Ir98  1  0.77047200  0.00750900  0.28769600  1
  Ir  Ir99  1  0.22952800  0.69967600  0.26730400  1
  Ir  Ir100  1  0.22952800  0.76229800  0.20468200  1
  Ir  Ir101  1  0.77047200  0.06988800  0.22531800  1
  Ir  Ir102  1  0.50000000  0.41609300  0.21500000  1
  Ir  Ir103  1  0.25697700  0.88616100  0.31300500  1
  Ir  Ir104  1  0.74302300  0.82102500  0.24199500  1
  Ir  Ir105  1  0.53311500  0.16141500  0.19802100  1
  Ir  Ir106  1  0.46688500  0.67077100  0.23197900  1
  Ir  Ir107  1  0.70409300  0.55302400  0.25960400  1
  Ir  Ir108  1  0.29590700  0.15416100  0.29539600  1
  Ir  Ir109  1  0.29590700  0.21264600  0.23691200  1
  Ir  Ir110  1  0.70409300  0.61954000  0.19308800  1
