# generated using pymatgen
data_Tb2Mg
_symmetry_space_group_name_H-M   'P 1'
_cell_length_a   5.22518270
_cell_length_b   13.36514585
_cell_length_c   41.32274400
_cell_angle_alpha   84.20480949
_cell_angle_beta   93.62488658
_cell_angle_gamma   78.72735235
_symmetry_Int_Tables_number   1
_chemical_formula_structural   Tb2Mg
_chemical_formula_sum   'Tb40 Mg20'
_cell_volume   2805.45405345
_cell_formula_units_Z   20
loop_
 _symmetry_equiv_pos_site_id
 _symmetry_equiv_pos_as_xyz
  1  'x, y, z'
loop_
 _atom_site_type_symbol
 _atom_site_label
 _atom_site_symmetry_multiplicity
 _atom_site_fract_x
 _atom_site_fract_y
 _atom_site_fract_z
 _atom_site_occupancy
  Tb  Tb0  1  0.96058200  0.33446800  0.19313100  1
  Tb  Tb1  1  0.10191800  0.10303200  0.24436900  1
  Tb  Tb2  1  0.24183200  0.80321800  0.22438100  1
  Tb  Tb3  1  0.82066800  0.63428200  0.21311900  1
  Tb  Tb4  1  0.52308200  0.27196800  0.25563100  1
  Tb  Tb5  1  0.66441800  0.04053200  0.30686900  1
  Tb  Tb6  1  0.80433200  0.74071800  0.28688100  1
  Tb  Tb7  1  0.38316800  0.57178200  0.27561900  1
  Tb  Tb8  1  0.08558200  0.20946800  0.31813100  1
  Tb  Tb9  1  0.22691800  0.97803200  0.36936900  1
  Tb  Tb10  1  0.36683200  0.67821800  0.34938100  1
  Tb  Tb11  1  0.94566800  0.50928200  0.33811900  1
  Tb  Tb12  1  0.64808200  0.14696800  0.38063100  1
  Tb  Tb13  1  0.78941800  0.91553200  0.43186900  1
  Tb  Tb14  1  0.92933200  0.61571800  0.41188100  1
  Tb  Tb15  1  0.50816800  0.44678200  0.40061900  1
  Tb  Tb16  1  0.21058200  0.08446800  0.44313100  1
  Tb  Tb17  1  0.35191800  0.85303200  0.49436900  1
  Tb  Tb18  1  0.49183200  0.55321800  0.47438100  1
  Tb  Tb19  1  0.07066800  0.38428200  0.46311900  1
  Tb  Tb20  1  0.77308200  0.02196800  0.50563100  1
  Tb  Tb21  1  0.91441800  0.79053200  0.55686900  1
  Tb  Tb22  1  0.05433200  0.49071800  0.53688100  1
  Tb  Tb23  1  0.63316800  0.32178200  0.52561900  1
  Tb  Tb24  1  0.33558200  0.95946800  0.56813100  1
  Tb  Tb25  1  0.47691800  0.72803200  0.61936900  1
  Tb  Tb26  1  0.61683200  0.42821800  0.59938100  1
  Tb  Tb27  1  0.19566800  0.25928200  0.58811900  1
  Tb  Tb28  1  0.89808200  0.89696800  0.63063100  1
  Tb  Tb29  1  0.03941800  0.66553200  0.68186900  1
  Tb  Tb30  1  0.17933200  0.36571800  0.66188100  1
  Tb  Tb31  1  0.75816800  0.19678200  0.65061900  1
  Tb  Tb32  1  0.46058200  0.83446800  0.69313100  1
  Tb  Tb33  1  0.60191800  0.60303200  0.74436900  1
  Tb  Tb34  1  0.74183200  0.30321800  0.72438100  1
  Tb  Tb35  1  0.32066800  0.13428200  0.71311900  1
  Tb  Tb36  1  0.02308200  0.77196800  0.75563100  1
  Tb  Tb37  1  0.16441800  0.54053200  0.80686900  1
  Tb  Tb38  1  0.30433200  0.24071800  0.78688100  1
  Tb  Tb39  1  0.88316800  0.07178200  0.77561900  1
  Mg  Mg40  1  0.67187500  0.95312500  0.23437500  1
  Mg  Mg41  1  0.39062500  0.48437500  0.20312500  1
  Mg  Mg42  1  0.23437500  0.89062500  0.29687500  1
  Mg  Mg43  1  0.95312500  0.42187500  0.26562500  1
  Mg  Mg44  1  0.79687500  0.82812500  0.35937500  1
  Mg  Mg45  1  0.51562500  0.35937500  0.32812500  1
  Mg  Mg46  1  0.35937500  0.76562500  0.42187500  1
  Mg  Mg47  1  0.07812500  0.29687500  0.39062500  1
  Mg  Mg48  1  0.92187500  0.70312500  0.48437500  1
  Mg  Mg49  1  0.64062500  0.23437500  0.45312500  1
  Mg  Mg50  1  0.48437500  0.64062500  0.54687500  1
  Mg  Mg51  1  0.20312500  0.17187500  0.51562500  1
  Mg  Mg52  1  0.04687500  0.57812500  0.60937500  1
  Mg  Mg53  1  0.76562500  0.10937500  0.57812500  1
  Mg  Mg54  1  0.60937500  0.51562500  0.67187500  1
  Mg  Mg55  1  0.32812500  0.04687500  0.64062500  1
  Mg  Mg56  1  0.17187500  0.45312500  0.73437500  1
  Mg  Mg57  1  0.89062500  0.98437500  0.70312500  1
  Mg  Mg58  1  0.73437500  0.39062500  0.79687500  1
  Mg  Mg59  1  0.45312500  0.92187500  0.76562500  1
