# generated using pymatgen
data_Pr2Mg
_symmetry_space_group_name_H-M   'P 1'
_cell_length_a   3.86864600
_cell_length_b   18.41565457
_cell_length_c   43.75003900
_cell_angle_alpha   95.45902962
_cell_angle_beta   90.00000000
_cell_angle_gamma   90.00000000
_symmetry_Int_Tables_number   1
_chemical_formula_structural   Pr2Mg
_chemical_formula_sum   'Pr40 Mg20'
_cell_volume   3102.77557697
_cell_formula_units_Z   20
loop_
 _symmetry_equiv_pos_site_id
 _symmetry_equiv_pos_as_xyz
  1  'x, y, z'
loop_
 _atom_site_type_symbol
 _atom_site_label
 _atom_site_symmetry_multiplicity
 _atom_site_fract_x
 _atom_site_fract_y
 _atom_site_fract_z
 _atom_site_occupancy
  Pr  Pr0  1  1.00000000  0.01844900  0.29200700  1
  Pr  Pr1  1  0.50000000  0.73603800  0.18949500  1
  Pr  Pr2  1  0.50000000  0.66905100  0.27049300  1
  Pr  Pr3  1  1.00000000  0.82646200  0.24800500  1
  Pr  Pr4  1  0.50000000  0.45594900  0.22950700  1
  Pr  Pr5  1  0.00000000  0.29853800  0.25199500  1
  Pr  Pr6  1  0.00000000  0.10655100  0.20799300  1
  Pr  Pr7  1  0.50000000  0.38896200  0.31050500  1
  Pr  Pr8  1  1.00000000  0.14344900  0.41700700  1
  Pr  Pr9  1  0.50000000  0.86103800  0.31449500  1
  Pr  Pr10  1  0.50000000  0.79405100  0.39549300  1
  Pr  Pr11  1  0.00000000  0.95146200  0.37300500  1
  Pr  Pr12  1  0.50000000  0.58094900  0.35450700  1
  Pr  Pr13  1  1.00000000  0.42353800  0.37699500  1
  Pr  Pr14  1  1.00000000  0.23155100  0.33299300  1
  Pr  Pr15  1  0.50000000  0.51396200  0.43550500  1
  Pr  Pr16  1  1.00000000  0.26844900  0.54200700  1
  Pr  Pr17  1  0.50000000  0.98603800  0.43949500  1
  Pr  Pr18  1  0.50000000  0.91905100  0.52049300  1
  Pr  Pr19  1  1.00000000  0.07646200  0.49800500  1
  Pr  Pr20  1  0.50000000  0.70594900  0.47950700  1
  Pr  Pr21  1  0.00000000  0.54853800  0.50199500  1
  Pr  Pr22  1  1.00000000  0.35655100  0.45799300  1
  Pr  Pr23  1  0.50000000  0.63896200  0.56050500  1
  Pr  Pr24  1  1.00000000  0.39344900  0.66700700  1
  Pr  Pr25  1  0.50000000  0.11103800  0.56449500  1
  Pr  Pr26  1  0.50000000  0.04405100  0.64549300  1
  Pr  Pr27  1  1.00000000  0.20146200  0.62300500  1
  Pr  Pr28  1  0.50000000  0.83094900  0.60450700  1
  Pr  Pr29  1  0.00000000  0.67353800  0.62699500  1
  Pr  Pr30  1  0.00000000  0.48155100  0.58299300  1
  Pr  Pr31  1  0.50000000  0.76396200  0.68550500  1
  Pr  Pr32  1  1.00000000  0.51844900  0.79200700  1
  Pr  Pr33  1  0.50000000  0.23603800  0.68949500  1
  Pr  Pr34  1  0.50000000  0.16905100  0.77049300  1
  Pr  Pr35  1  0.00000000  0.32646200  0.74800500  1
  Pr  Pr36  1  0.50000000  0.95594900  0.72950700  1
  Pr  Pr37  1  1.00000000  0.79853800  0.75199500  1
  Pr  Pr38  1  1.00000000  0.60655100  0.70799300  1
  Pr  Pr39  1  0.50000000  0.88896200  0.81050500  1
  Mg  Mg40  1  0.00000000  0.59411000  0.20977000  1
  Mg  Mg41  1  0.50000000  0.96839000  0.22773000  1
  Mg  Mg42  1  0.50000000  0.15661000  0.27227000  1
  Mg  Mg43  1  0.00000000  0.53089000  0.29023000  1
  Mg  Mg44  1  0.00000000  0.71911000  0.33477000  1
  Mg  Mg45  1  0.50000000  0.09339000  0.35273000  1
  Mg  Mg46  1  0.50000000  0.28161000  0.39727000  1
  Mg  Mg47  1  0.00000000  0.65589000  0.41523000  1
  Mg  Mg48  1  0.00000000  0.84411000  0.45977000  1
  Mg  Mg49  1  0.50000000  0.21839000  0.47773000  1
  Mg  Mg50  1  0.50000000  0.40661000  0.52227000  1
  Mg  Mg51  1  0.00000000  0.78089000  0.54023000  1
  Mg  Mg52  1  0.00000000  0.96911000  0.58477000  1
  Mg  Mg53  1  0.50000000  0.34339000  0.60273000  1
  Mg  Mg54  1  0.50000000  0.53161000  0.64727000  1
  Mg  Mg55  1  1.00000000  0.90589000  0.66523000  1
  Mg  Mg56  1  0.00000000  0.09411000  0.70977000  1
  Mg  Mg57  1  0.50000000  0.46839000  0.72773000  1
  Mg  Mg58  1  0.50000000  0.65661000  0.77227000  1
  Mg  Mg59  1  1.00000000  0.03089000  0.79023000  1
