# generated using pymatgen
data_Sr12Mg121
_symmetry_space_group_name_H-M   'P 1'
_cell_length_a   10.60291300
_cell_length_b   14.66206680
_cell_length_c   47.66603800
_cell_angle_alpha   92.42755603
_cell_angle_beta   90.00000000
_cell_angle_gamma   68.80296164
_symmetry_Int_Tables_number   1
_chemical_formula_structural   Sr12Mg121
_chemical_formula_sum   'Sr12 Mg121'
_cell_volume   6901.70350145
_cell_formula_units_Z   1
loop_
 _symmetry_equiv_pos_site_id
 _symmetry_equiv_pos_as_xyz
  1  'x, y, z'
loop_
 _atom_site_type_symbol
 _atom_site_label
 _atom_site_symmetry_multiplicity
 _atom_site_fract_x
 _atom_site_fract_y
 _atom_site_fract_z
 _atom_site_occupancy
  Sr  Sr0  1  0.43597200  0.12805600  0.33333300  1
  Sr  Sr1  1  0.15025800  0.69948500  0.30952400  1
  Sr  Sr2  1  0.72168600  0.55662700  0.35714300  1
  Sr  Sr3  1  0.86454300  0.27091300  0.28571400  1
  Sr  Sr4  1  0.15025800  0.69948500  0.47619000  1
  Sr  Sr5  1  0.86454300  0.27091300  0.45238100  1
  Sr  Sr6  1  0.43597200  0.12805600  0.50000000  1
  Sr  Sr7  1  0.57882900  0.84234200  0.42857100  1
  Sr  Sr8  1  0.86454300  0.27091300  0.61904800  1
  Sr  Sr9  1  0.57882900  0.84234200  0.59523800  1
  Sr  Sr10  1  0.15025800  0.69948500  0.64285700  1
  Sr  Sr11  1  0.29311500  0.41377000  0.57142900  1
  Mg  Mg12  1  0.14323600  0.71352800  0.22869500  1
  Mg  Mg13  1  0.99865300  0.49665400  0.30098600  1
  Mg  Mg14  1  0.50469300  0.49665400  0.30098600  1
  Mg  Mg15  1  0.21207600  0.06980800  0.27660100  1
  Mg  Mg16  1  0.05080000  0.89840000  0.35925300  1
  Mg  Mg17  1  0.62222800  0.75554300  0.24020500  1
  Mg  Mg18  1  0.53543000  0.92914000  0.28360400  1
  Mg  Mg19  1  0.24971600  0.50056900  0.25979500  1
  Mg  Mg20  1  0.43597200  0.12805600  0.25000000  1
  Mg  Mg21  1  0.93597200  0.62805600  0.25000000  1
  Mg  Mg22  1  0.43597200  0.62805600  0.25000000  1
  Mg  Mg23  1  0.29311500  0.91377000  0.32142900  1
  Mg  Mg24  1  0.79311500  0.91377000  0.32142900  1
  Mg  Mg25  1  0.29311500  0.41377000  0.32142900  1
  Mg  Mg26  1  0.50958800  0.28678500  0.28042400  1
  Mg  Mg27  1  0.87650800  0.84441200  0.26121500  1
  Mg  Mg28  1  0.49762300  0.71328600  0.30492300  1
  Mg  Mg29  1  0.08860700  0.11425400  0.33793400  1
  Mg  Mg30  1  0.99543600  0.41170000  0.23878500  1
  Mg  Mg31  1  0.66831700  0.96932700  0.21957600  1
  Mg  Mg32  1  0.78909100  0.71328600  0.30492300  1
  Mg  Mg33  1  0.36235600  0.96932700  0.21957600  1
  Mg  Mg34  1  0.27908000  0.84441200  0.26121500  1
  Mg  Mg35  1  0.59286400  0.41170000  0.23878500  1
  Mg  Mg36  1  0.20362700  0.28678500  0.28042400  1
  Mg  Mg37  1  0.79713900  0.11425400  0.33793400  1
  Mg  Mg38  1  0.65986800  0.18630400  0.22339900  1
  Mg  Mg39  1  0.58757700  0.33088700  0.34187100  1
  Mg  Mg40  1  0.72870800  0.54258400  0.27130500  1
  Mg  Mg41  1  0.01269700  0.97460700  0.29396400  1
  Mg  Mg42  1  0.15382800  0.18630400  0.22339900  1
  Mg  Mg43  1  0.71811600  0.06980800  0.27660100  1
  Mg  Mg44  1  0.57353300  0.85293400  0.34889300  1
  Mg  Mg45  1  0.08153700  0.33088700  0.34187100  1
  Mg  Mg46  1  0.85752200  0.28495700  0.37155200  1
  Mg  Mg47  1  0.71293900  0.06808200  0.44384300  1
  Mg  Mg48  1  0.21897900  0.06808200  0.44384300  1
  Mg  Mg49  1  0.92636200  0.64123700  0.41945800  1
  Mg  Mg50  1  0.76508600  0.46982900  0.50211000  1
  Mg  Mg51  1  0.33651400  0.32697200  0.38306200  1
  Mg  Mg52  1  0.24971600  0.50056900  0.42646200  1
  Mg  Mg53  1  0.96400100  0.07199800  0.40265200  1
  Mg  Mg54  1  0.15025800  0.69948500  0.39285700  1
  Mg  Mg55  1  0.65025800  0.19948500  0.39285700  1
  Mg  Mg56  1  0.15025800  0.19948500  0.39285700  1
  Mg  Mg57  1  0.00740100  0.48519900  0.46428600  1
  Mg  Mg58  1  0.50740100  0.48519900  0.46428600  1
  Mg  Mg59  1  0.00740100  0.98519900  0.46428600  1
  Mg  Mg60  1  0.22387300  0.85821400  0.42328100  1
  Mg  Mg61  1  0.59079400  0.41584100  0.40407200  1
  Mg  Mg62  1  0.21190900  0.28471500  0.44778000  1
  Mg  Mg63  1  0.80289200  0.68568300  0.48079100  1
  Mg  Mg64  1  0.70972200  0.98312900  0.38164300  1
  Mg  Mg65  1  0.38260200  0.54075600  0.36243400  1
  Mg  Mg66  1  0.50337700  0.28471500  0.44778000  1
  Mg  Mg67  1  0.07664200  0.54075600  0.36243400  1
  Mg  Mg68  1  0.99336600  0.41584100  0.40407200  1
  Mg  Mg69  1  0.30715000  0.98312900  0.38164300  1
  Mg  Mg70  1  0.91791300  0.85821400  0.42328100  1
  Mg  Mg71  1  0.51142500  0.68568300  0.48079100  1
  Mg  Mg72  1  0.37415400  0.75773300  0.36625600  1
  Mg  Mg73  1  0.30186200  0.90231500  0.48472800  1
  Mg  Mg74  1  0.44299400  0.11401300  0.41416200  1
  Mg  Mg75  1  0.72698200  0.54603500  0.43682200  1
  Mg  Mg76  1  0.86811400  0.75773300  0.36625600  1
  Mg  Mg77  1  0.43240200  0.64123700  0.41945800  1
  Mg  Mg78  1  0.28781900  0.42436200  0.49175000  1
  Mg  Mg79  1  0.79582200  0.90231500  0.48472800  1
  Mg  Mg80  1  0.57180700  0.85638500  0.51440900  1
  Mg  Mg81  1  0.42722400  0.63951100  0.58670000  1
  Mg  Mg82  1  0.93326500  0.63951100  0.58670000  1
  Mg  Mg83  1  0.64064700  0.21266500  0.56231600  1
  Mg  Mg84  1  0.47937100  0.04125700  0.64496700  1
  Mg  Mg85  1  0.05080000  0.89840000  0.52591900  1
  Mg  Mg86  1  0.96400100  0.07199800  0.56931900  1
  Mg  Mg87  1  0.67828700  0.64342600  0.54550900  1
  Mg  Mg88  1  0.86454300  0.27091300  0.53571400  1
  Mg  Mg89  1  0.36454300  0.77091300  0.53571400  1
  Mg  Mg90  1  0.86454300  0.77091300  0.53571400  1
  Mg  Mg91  1  0.72168600  0.05662700  0.60714300  1
  Mg  Mg92  1  0.22168600  0.05662700  0.60714300  1
  Mg  Mg93  1  0.72168600  0.55662700  0.60714300  1
  Mg  Mg94  1  0.93815900  0.42964200  0.56613800  1
  Mg  Mg95  1  0.30507900  0.98726900  0.54692900  1
  Mg  Mg96  1  0.92619400  0.85614300  0.59063800  1
  Mg  Mg97  1  0.51717800  0.25711200  0.62364800  1
  Mg  Mg98  1  0.42400700  0.55455700  0.52450000  1
  Mg  Mg99  1  0.09688800  0.11218400  0.50529100  1
  Mg  Mg100  1  0.21766200  0.85614300  0.59063800  1
  Mg  Mg101  1  0.79092800  0.11218400  0.50529100  1
  Mg  Mg102  1  0.70765100  0.98726900  0.54692900  1
  Mg  Mg103  1  0.02143600  0.55455700  0.52450000  1
  Mg  Mg104  1  0.63219900  0.42964200  0.56613800  1
  Mg  Mg105  1  0.22571000  0.25711200  0.62364800  1
  Mg  Mg106  1  0.08843900  0.32916100  0.50911300  1
  Mg  Mg107  1  0.01614800  0.47374400  0.62758500  1
  Mg  Mg108  1  0.15727900  0.68544100  0.55702000  1
  Mg  Mg109  1  0.44126800  0.11746400  0.57967900  1
  Mg  Mg110  1  0.58239900  0.32916100  0.50911300  1
  Mg  Mg111  1  0.14668700  0.21266500  0.56231600  1
  Mg  Mg112  1  0.00210500  0.99579100  0.63460700  1
  Mg  Mg113  1  0.51010800  0.47374400  0.62758500  1
  Mg  Mg114  1  0.28609300  0.42781400  0.65726600  1
  Mg  Mg115  1  0.35493300  0.78409400  0.70517300  1
  Mg  Mg116  1  0.76508600  0.46982900  0.66877700  1
  Mg  Mg117  1  0.39257300  0.21485500  0.68836600  1
  Mg  Mg118  1  0.57882900  0.84234200  0.67857100  1
  Mg  Mg119  1  0.07882900  0.34234200  0.67857100  1
  Mg  Mg120  1  0.57882900  0.34234200  0.67857100  1
  Mg  Mg121  1  0.65244500  0.00107100  0.70899500  1
  Mg  Mg122  1  0.01936500  0.55869800  0.68978600  1
  Mg  Mg123  1  0.13829300  0.12598600  0.66735700  1
  Mg  Mg124  1  0.81117400  0.68361300  0.64814800  1
  Mg  Mg125  1  0.50521300  0.68361300  0.64814800  1
  Mg  Mg126  1  0.42193700  0.55869800  0.68978600  1
  Mg  Mg127  1  0.73572100  0.12598600  0.66735700  1
  Mg  Mg128  1  0.34648400  0.00107100  0.70899500  1
  Mg  Mg129  1  0.80272500  0.90059000  0.65197000  1
  Mg  Mg130  1  0.87156500  0.25687000  0.69987700  1
  Mg  Mg131  1  0.29668500  0.90059000  0.65197000  1
  Mg  Mg132  1  0.86097300  0.78409400  0.70517300  1
