# generated using pymatgen
data_Mg40Ir81
_symmetry_space_group_name_H-M   'P 1'
_cell_length_a   9.02422000
_cell_length_b   9.93407692
_cell_length_c   44.98304800
_cell_angle_alpha   85.57227208
_cell_angle_beta   90.00000000
_cell_angle_gamma   62.98618901
_symmetry_Int_Tables_number   1
_chemical_formula_structural   Mg40Ir81
_chemical_formula_sum   'Mg40 Ir81'
_cell_volume   3579.12472746
_cell_formula_units_Z   1
loop_
 _symmetry_equiv_pos_site_id
 _symmetry_equiv_pos_as_xyz
  1  'x, y, z'
loop_
 _atom_site_type_symbol
 _atom_site_label
 _atom_site_symmetry_multiplicity
 _atom_site_fract_x
 _atom_site_fract_y
 _atom_site_fract_z
 _atom_site_occupancy
  Mg  Mg0  1  0.65132500  0.39853600  0.27929800  1
  Mg  Mg1  1  0.20688000  0.95409200  0.25152100  1
  Mg  Mg2  1  0.04602500  0.27580200  0.27162800  1
  Mg  Mg3  1  0.49047000  0.72024600  0.29940500  1
  Mg  Mg4  1  0.20688000  0.28742500  0.33485400  1
  Mg  Mg5  1  0.76243600  0.84298000  0.30707600  1
  Mg  Mg6  1  0.60158100  0.16469000  0.32718300  1
  Mg  Mg7  1  0.04602500  0.60913500  0.35496100  1
  Mg  Mg8  1  0.76243600  0.17631400  0.39041000  1
  Mg  Mg9  1  0.31799200  0.73186900  0.36263200  1
  Mg  Mg10  1  0.15713700  0.05357900  0.38273900  1
  Mg  Mg11  1  0.60158100  0.49802400  0.41051600  1
  Mg  Mg12  1  0.31799200  0.06520300  0.44596500  1
  Mg  Mg13  1  0.87354700  0.62075800  0.41818700  1
  Mg  Mg14  1  0.71269200  0.94246800  0.43829400  1
  Mg  Mg15  1  0.15713700  0.38691300  0.46607200  1
  Mg  Mg16  1  0.87354700  0.95409200  0.50152100  1
  Mg  Mg17  1  0.42910300  0.50964700  0.47374300  1
  Mg  Mg18  1  0.26824800  0.83135700  0.49385000  1
  Mg  Mg19  1  0.71269200  0.27580200  0.52162800  1
  Mg  Mg20  1  0.42910300  0.84298000  0.55707600  1
  Mg  Mg21  1  0.98465800  0.39853600  0.52929800  1
  Mg  Mg22  1  0.82380300  0.72024600  0.54940500  1
  Mg  Mg23  1  0.26824800  0.16469000  0.57718300  1
  Mg  Mg24  1  0.98465800  0.73186900  0.61263200  1
  Mg  Mg25  1  0.54021400  0.28742500  0.58485400  1
  Mg  Mg26  1  0.37935900  0.60913500  0.60496100  1
  Mg  Mg27  1  0.82380300  0.05357900  0.63273900  1
  Mg  Mg28  1  0.54021400  0.62075800  0.66818700  1
  Mg  Mg29  1  0.09576900  0.17631400  0.64041000  1
  Mg  Mg30  1  0.93491400  0.49802400  0.66051600  1
  Mg  Mg31  1  0.37935900  0.94246800  0.68829400  1
  Mg  Mg32  1  0.09576900  0.50964700  0.72374300  1
  Mg  Mg33  1  0.65132500  0.06520300  0.69596500  1
  Mg  Mg34  1  0.49047000  0.38691300  0.71607200  1
  Mg  Mg35  1  0.93491400  0.83135700  0.74385000  1
  Mg  Mg36  1  0.65132500  0.39853600  0.77929800  1
  Mg  Mg37  1  0.20688000  0.95409200  0.75152100  1
  Mg  Mg38  1  0.04602500  0.27580200  0.77162800  1
  Mg  Mg39  1  0.49047000  0.72024600  0.79940500  1
  Ir  Ir40  1  0.57089700  0.89272400  0.24768500  1
  Ir  Ir41  1  0.34867500  0.33716900  0.27546300  1
  Ir  Ir42  1  0.12645300  0.78161300  0.30324100  1
  Ir  Ir43  1  0.29482000  0.61664700  0.26072400  1
  Ir  Ir44  1  0.90083000  0.06109100  0.28850200  1
  Ir  Ir45  1  0.63155400  0.11494700  0.26157400  1
  Ir  Ir46  1  0.06579600  0.55939100  0.28935200  1
  Ir  Ir47  1  0.79652000  0.61324600  0.26242400  1
  Ir  Ir48  1  0.40253000  0.05769100  0.29020200  1
  Ir  Ir49  1  0.90423100  0.22605800  0.33101900  1
  Ir  Ir50  1  0.68200800  0.67050200  0.35879600  1
  Ir  Ir51  1  0.85037500  0.50553600  0.31627900  1
  Ir  Ir52  1  0.45638600  0.94998000  0.34405700  1
  Ir  Ir53  1  0.18710900  0.00383500  0.31713000  1
  Ir  Ir54  1  0.62135200  0.44828000  0.34490700  1
  Ir  Ir55  1  0.35207600  0.50213500  0.31798000  1
  Ir  Ir56  1  0.95808600  0.94658000  0.34575800  1
  Ir  Ir57  1  0.45978600  0.11494700  0.38657400  1
  Ir  Ir58  1  0.23756400  0.55939100  0.41435200  1
  Ir  Ir59  1  0.40593100  0.39442500  0.37183500  1
  Ir  Ir60  1  0.01194100  0.83886900  0.39961300  1
  Ir  Ir61  1  0.74266500  0.89272400  0.37268500  1
  Ir  Ir62  1  0.17690800  0.33716900  0.40046300  1
  Ir  Ir63  1  0.90763100  0.39102400  0.37353500  1
  Ir  Ir64  1  0.51364200  0.83546800  0.40131300  1
  Ir  Ir65  1  0.01534200  0.00383500  0.44213000  1
  Ir  Ir66  1  0.79312000  0.44828000  0.46990700  1
  Ir  Ir67  1  0.96148700  0.28331400  0.42739100  1
  Ir  Ir68  1  0.56749700  0.72775800  0.45516800  1
  Ir  Ir69  1  0.29822000  0.78161300  0.42824100  1
  Ir  Ir70  1  0.73246300  0.22605800  0.45601900  1
  Ir  Ir71  1  0.46318700  0.27991300  0.42909100  1
  Ir  Ir72  1  0.06919700  0.72435700  0.45686900  1
  Ir  Ir73  1  0.57089700  0.89272400  0.49768500  1
  Ir  Ir74  1  0.34867500  0.33716900  0.52546300  1
  Ir  Ir75  1  0.51704200  0.17220200  0.48294600  1
  Ir  Ir76  1  0.12305200  0.61664700  0.51072400  1
  Ir  Ir77  1  0.85377600  0.67050200  0.48379600  1
  Ir  Ir78  1  0.28801900  0.11494700  0.51157400  1
  Ir  Ir79  1  0.01874200  0.16880200  0.48464600  1
  Ir  Ir80  1  0.62475300  0.61324600  0.51242400  1
  Ir  Ir81  1  0.12645300  0.78161300  0.55324100  1
  Ir  Ir82  1  0.90423100  0.22605800  0.58101900  1
  Ir  Ir83  1  0.07259800  0.06109100  0.53850200  1
  Ir  Ir84  1  0.67860800  0.50553600  0.56627900  1
  Ir  Ir85  1  0.40933200  0.55939100  0.53935200  1
  Ir  Ir86  1  0.84357400  0.00383500  0.56713000  1
  Ir  Ir87  1  0.57429800  0.05769100  0.54020200  1
  Ir  Ir88  1  0.18030800  0.50213500  0.56798000  1
  Ir  Ir89  1  0.68200800  0.67050200  0.60879600  1
  Ir  Ir90  1  0.45978600  0.11494700  0.63657400  1
  Ir  Ir91  1  0.62815300  0.94998000  0.59405700  1
  Ir  Ir92  1  0.23416300  0.39442500  0.62183500  1
  Ir  Ir93  1  0.96488700  0.44828000  0.59490700  1
  Ir  Ir94  1  0.39913000  0.89272400  0.62268500  1
  Ir  Ir95  1  0.12985400  0.94658000  0.59575800  1
  Ir  Ir96  1  0.73586400  0.39102400  0.62353500  1
  Ir  Ir97  1  0.23756400  0.55939100  0.66435200  1
  Ir  Ir98  1  0.01534200  0.00383500  0.69213000  1
  Ir  Ir99  1  0.18370900  0.83886900  0.64961300  1
  Ir  Ir100  1  0.78971900  0.28331400  0.67739100  1
  Ir  Ir101  1  0.52044300  0.33716900  0.65046300  1
  Ir  Ir102  1  0.95468500  0.78161300  0.67824100  1
  Ir  Ir103  1  0.68540900  0.83546800  0.65131300  1
  Ir  Ir104  1  0.29141900  0.27991300  0.67909100  1
  Ir  Ir105  1  0.79312000  0.44828000  0.71990700  1
  Ir  Ir106  1  0.57089700  0.89272400  0.74768500  1
  Ir  Ir107  1  0.73926400  0.72775800  0.70516800  1
  Ir  Ir108  1  0.34527500  0.17220200  0.73294600  1
  Ir  Ir109  1  0.07599800  0.22605800  0.70601900  1
  Ir  Ir110  1  0.51024100  0.67050200  0.73379600  1
  Ir  Ir111  1  0.24096500  0.72435700  0.70686900  1
  Ir  Ir112  1  0.84697500  0.16880200  0.73464600  1
  Ir  Ir113  1  0.34867500  0.33716900  0.77546300  1
  Ir  Ir114  1  0.12645300  0.78161300  0.80324100  1
  Ir  Ir115  1  0.29482000  0.61664700  0.76072400  1
  Ir  Ir116  1  0.90083000  0.06109100  0.78850200  1
  Ir  Ir117  1  0.63155400  0.11494700  0.76157400  1
  Ir  Ir118  1  0.06579600  0.55939100  0.78935200  1
  Ir  Ir119  1  0.79652000  0.61324600  0.76242400  1
  Ir  Ir120  1  0.40253000  0.05769100  0.79020200  1
