# generated using pymatgen
data_Mg293Ir66
_symmetry_space_group_name_H-M   'P 1'
_cell_length_a   16.34592500
_cell_length_b   18.30800151
_cell_length_c   50.01409000
_cell_angle_alpha   93.80824052
_cell_angle_beta   90.00000000
_cell_angle_gamma   116.51389344
_symmetry_Int_Tables_number   1
_chemical_formula_structural   Mg293Ir66
_chemical_formula_sum   'Mg293 Ir66'
_cell_volume   13356.16774261
_cell_formula_units_Z   1
loop_
 _symmetry_equiv_pos_site_id
 _symmetry_equiv_pos_as_xyz
  1  'x, y, z'
loop_
 _atom_site_type_symbol
 _atom_site_label
 _atom_site_symmetry_multiplicity
 _atom_site_fract_x
 _atom_site_fract_y
 _atom_site_fract_z
 _atom_site_occupancy
  Mg  Mg0  1  0.84222900  0.68445800  0.21949400  1
  Mg  Mg1  1  0.19937200  0.89874400  0.24330400  1
  Mg  Mg2  1  0.41365800  0.32731500  0.29092300  1
  Mg  Mg3  1  0.91365800  0.82731500  0.29092300  1
  Mg  Mg4  1  0.27080000  0.04160100  0.31473200  1
  Mg  Mg5  1  0.34222900  0.18445800  0.21949400  1
  Mg  Mg6  1  0.00186600  0.63627400  0.21246400  1
  Mg  Mg7  1  0.12147900  0.87550000  0.29795200  1
  Mg  Mg8  1  0.01048500  0.75588700  0.25520800  1
  Mg  Mg9  1  0.39687800  0.16121400  0.27414300  1
  Mg  Mg10  1  0.42012200  0.20770200  0.33151200  1
  Mg  Mg11  1  0.38825900  0.04160100  0.23139900  1
  Mg  Mg12  1  0.09222900  0.18445800  0.30282700  1
  Mg  Mg13  1  0.02080000  0.04160100  0.23139900  1
  Mg  Mg14  1  0.19311400  0.06806300  0.26037200  1
  Mg  Mg15  1  0.48035500  0.07256800  0.32613700  1
  Mg  Mg16  1  0.60521500  0.41673600  0.32397000  1
  Mg  Mg17  1  0.59224500  0.29634800  0.27951800  1
  Mg  Mg18  1  0.30950900  0.30085300  0.34528300  1
  Mg  Mg19  1  0.37293600  0.95218000  0.28168500  1
  Mg  Mg20  1  0.20563000  0.72942400  0.22623600  1
  Mg  Mg21  1  0.06124600  0.01063400  0.30332700  1
  Mg  Mg22  1  0.93638600  0.66646600  0.30549400  1
  Mg  Mg23  1  0.94935600  0.78685400  0.34994700  1
  Mg  Mg24  1  0.23209200  0.78234900  0.28418100  1
  Mg  Mg25  1  0.16866500  0.13102200  0.34778000  1
  Mg  Mg26  1  0.55651500  0.11303000  0.26711300  1
  Mg  Mg27  1  0.91365800  0.32731500  0.29092300  1
  Mg  Mg28  1  0.12794300  0.75588700  0.33854200  1
  Mg  Mg29  1  0.62794300  0.25588700  0.33854200  1
  Mg  Mg30  1  0.84222900  0.18445800  0.21949400  1
  Mg  Mg31  1  0.05651500  0.61303000  0.26711300  1
  Mg  Mg32  1  0.71615200  0.06484500  0.26008300  1
  Mg  Mg33  1  0.83576500  0.30407100  0.34557100  1
  Mg  Mg34  1  0.72477100  0.18445800  0.30282700  1
  Mg  Mg35  1  0.11116400  0.58978500  0.32176200  1
  Mg  Mg36  1  0.99155100  0.35055900  0.23627400  1
  Mg  Mg37  1  0.10254400  0.47017200  0.27901800  1
  Mg  Mg38  1  0.80651500  0.61303000  0.35044600  1
  Mg  Mg39  1  0.73508600  0.47017200  0.27901800  1
  Mg  Mg40  1  0.90740000  0.49663500  0.30799100  1
  Mg  Mg41  1  0.05178400  0.21542600  0.23089900  1
  Mg  Mg42  1  0.17664300  0.55959400  0.22873200  1
  Mg  Mg43  1  0.30653100  0.72491900  0.32713700  1
  Mg  Mg44  1  0.88093700  0.44371000  0.25004500  1
  Mg  Mg45  1  0.08722200  0.38075100  0.32930400  1
  Mg  Mg46  1  0.91991600  0.15799600  0.27385500  1
  Mg  Mg47  1  0.77553100  0.43920500  0.35094600  1
  Mg  Mg48  1  0.65067200  0.09503700  0.35311300  1
  Mg  Mg49  1  0.52078400  0.92971100  0.25470900  1
  Mg  Mg50  1  0.94637800  0.21092000  0.33180000  1
  Mg  Mg51  1  0.74009300  0.27387900  0.25254200  1
  Mg  Mg52  1  0.27080000  0.54160100  0.31473200  1
  Mg  Mg53  1  0.62794300  0.75588700  0.33854200  1
  Mg  Mg54  1  0.69937200  0.89874400  0.24330400  1
  Mg  Mg55  1  0.19937200  0.39874400  0.24330400  1
  Mg  Mg56  1  0.55651500  0.61303000  0.26711300  1
  Mg  Mg57  1  0.77080000  0.04160100  0.31473200  1
  Mg  Mg58  1  0.43043700  0.49341700  0.30770200  1
  Mg  Mg59  1  0.40719300  0.44692800  0.25033300  1
  Mg  Mg60  1  0.43905700  0.61303000  0.35044600  1
  Mg  Mg61  1  0.68259200  0.73264300  0.22652400  1
  Mg  Mg62  1  0.70583600  0.77913100  0.28389300  1
  Mg  Mg63  1  0.81683000  0.89874400  0.32663700  1
  Mg  Mg64  1  0.37794300  0.75588700  0.25520800  1
  Mg  Mg65  1  0.44937200  0.89874400  0.32663700  1
  Mg  Mg66  1  0.47882800  0.63949200  0.21275300  1
  Mg  Mg67  1  0.76607000  0.64399700  0.27851800  1
  Mg  Mg68  1  0.89092900  0.98816500  0.27635100  1
  Mg  Mg69  1  0.87795900  0.86777600  0.23189900  1
  Mg  Mg70  1  0.59522300  0.87228200  0.29766400  1
  Mg  Mg71  1  0.65865100  0.52360800  0.23406500  1
  Mg  Mg72  1  0.63420100  0.58656700  0.32147400  1
  Mg  Mg73  1  0.34696000  0.58206200  0.25570800  1
  Mg  Mg74  1  0.22210100  0.23789400  0.25787500  1
  Mg  Mg75  1  0.23507000  0.35828300  0.30232800  1
  Mg  Mg76  1  0.51780600  0.35377700  0.23656200  1
  Mg  Mg77  1  0.45437900  0.70245100  0.30016100  1
  Mg  Mg78  1  0.98508600  0.97017200  0.36235100  1
  Mg  Mg79  1  0.34222900  0.18445800  0.38616100  1
  Mg  Mg80  1  0.55651500  0.61303000  0.43378000  1
  Mg  Mg81  1  0.05651500  0.11303000  0.43378000  1
  Mg  Mg82  1  0.41365800  0.32731500  0.45758900  1
  Mg  Mg83  1  0.48508600  0.47017200  0.36235100  1
  Mg  Mg84  1  0.14472300  0.92198800  0.35532100  1
  Mg  Mg85  1  0.26433600  0.16121400  0.44081000  1
  Mg  Mg86  1  0.15334200  0.04160100  0.39806500  1
  Mg  Mg87  1  0.53973500  0.44692800  0.41700000  1
  Mg  Mg88  1  0.56297900  0.49341700  0.47436900  1
  Mg  Mg89  1  0.53111600  0.32731500  0.37425600  1
  Mg  Mg90  1  0.23508600  0.47017200  0.44568500  1
  Mg  Mg91  1  0.16365800  0.32731500  0.37425600  1
  Mg  Mg92  1  0.33597100  0.35377700  0.40322900  1
  Mg  Mg93  1  0.62321300  0.35828300  0.46899400  1
  Mg  Mg94  1  0.74807200  0.70245100  0.46682700  1
  Mg  Mg95  1  0.73510200  0.58206200  0.42237500  1
  Mg  Mg96  1  0.45236600  0.58656700  0.48814000  1
  Mg  Mg97  1  0.51579300  0.23789400  0.42454200  1
  Mg  Mg98  1  0.34848700  0.01513900  0.36909300  1
  Mg  Mg99  1  0.20410300  0.29634800  0.44618400  1
  Mg  Mg100  1  0.07924400  0.95218000  0.44835100  1
  Mg  Mg101  1  0.09221300  0.07256800  0.49280400  1
  Mg  Mg102  1  0.37494900  0.06806300  0.42703800  1
  Mg  Mg103  1  0.31152200  0.41673600  0.49063700  1
  Mg  Mg104  1  0.69937200  0.39874400  0.40997000  1
  Mg  Mg105  1  0.05651500  0.61303000  0.43378000  1
  Mg  Mg106  1  0.27080000  0.04160100  0.48139900  1
  Mg  Mg107  1  0.77080000  0.54160100  0.48139900  1
  Mg  Mg108  1  0.98508600  0.47017200  0.36235100  1
  Mg  Mg109  1  0.19937200  0.89874400  0.40997000  1
  Mg  Mg110  1  0.85900900  0.35055900  0.40294000  1
  Mg  Mg111  1  0.97862200  0.58978500  0.48842900  1
  Mg  Mg112  1  0.86762800  0.47017200  0.44568500  1
  Mg  Mg113  1  0.25402100  0.87550000  0.46461900  1
  Mg  Mg114  1  0.13440800  0.63627400  0.37913100  1
  Mg  Mg115  1  0.24540100  0.75588700  0.42187500  1
  Mg  Mg116  1  0.94937200  0.89874400  0.49330400  1
  Mg  Mg117  1  0.87794300  0.75588700  0.42187500  1
  Mg  Mg118  1  0.05025700  0.78234900  0.45084800  1
  Mg  Mg119  1  0.19464100  0.50114000  0.37375600  1
  Mg  Mg120  1  0.31950000  0.84530800  0.37158900  1
  Mg  Mg121  1  0.44938800  0.01063400  0.46999400  1
  Mg  Mg122  1  0.02379500  0.72942400  0.39290200  1
  Mg  Mg123  1  0.23007900  0.66646600  0.47216100  1
  Mg  Mg124  1  0.06277300  0.44371000  0.41671200  1
  Mg  Mg125  1  0.91838800  0.72491900  0.49380300  1
  Mg  Mg126  1  0.79352900  0.38075100  0.49597000  1
  Mg  Mg127  1  0.66364200  0.21542600  0.39756600  1
  Mg  Mg128  1  0.08923500  0.49663500  0.47465700  1
  Mg  Mg129  1  0.88295000  0.55959400  0.39539900  1
  Mg  Mg130  1  0.41365800  0.82731500  0.45758900  1
  Mg  Mg131  1  0.77080000  0.04160100  0.48139900  1
  Mg  Mg132  1  0.84222900  0.18445800  0.38616100  1
  Mg  Mg133  1  0.34222900  0.68445800  0.38616100  1
  Mg  Mg134  1  0.69937200  0.89874400  0.40997000  1
  Mg  Mg135  1  0.91365800  0.32731500  0.45758900  1
  Mg  Mg136  1  0.57329500  0.77913100  0.45055900  1
  Mg  Mg137  1  0.55005000  0.73264300  0.39319100  1
  Mg  Mg138  1  0.58191400  0.89874400  0.49330400  1
  Mg  Mg139  1  0.82544900  0.01835700  0.36938100  1
  Mg  Mg140  1  0.84869400  0.06484500  0.42675000  1
  Mg  Mg141  1  0.95968700  0.18445800  0.46949400  1
  Mg  Mg142  1  0.52080000  0.04160100  0.39806500  1
  Mg  Mg143  1  0.59222900  0.18445800  0.46949400  1
  Mg  Mg144  1  0.62168500  0.92520600  0.35561000  1
  Mg  Mg145  1  0.90892700  0.92971100  0.42137500  1
  Mg  Mg146  1  0.03378600  0.27387900  0.41920800  1
  Mg  Mg147  1  0.02081700  0.15349100  0.37475600  1
  Mg  Mg148  1  0.73808000  0.15799600  0.44052100  1
  Mg  Mg149  1  0.80150800  0.80932300  0.37692300  1
  Mg  Mg150  1  0.77705800  0.87228200  0.46433100  1
  Mg  Mg151  1  0.48981700  0.86777600  0.39856500  1
  Mg  Mg152  1  0.36495800  0.52360800  0.40073200  1
  Mg  Mg153  1  0.37792700  0.64399700  0.44518500  1
  Mg  Mg154  1  0.66066300  0.63949200  0.37941900  1
  Mg  Mg155  1  0.59723600  0.98816500  0.44301800  1
  Mg  Mg156  1  0.12794300  0.25588700  0.50520800  1
  Mg  Mg157  1  0.48508600  0.47017200  0.52901800  1
  Mg  Mg158  1  0.69937200  0.89874400  0.57663700  1
  Mg  Mg159  1  0.19937200  0.39874400  0.57663700  1
  Mg  Mg160  1  0.55651500  0.61303000  0.60044600  1
  Mg  Mg161  1  0.62794300  0.75588700  0.50520800  1
  Mg  Mg162  1  0.28758000  0.20770200  0.49817900  1
  Mg  Mg163  1  0.40719300  0.44692800  0.58366700  1
  Mg  Mg164  1  0.29619900  0.32731500  0.54092300  1
  Mg  Mg165  1  0.68259200  0.73264300  0.55985700  1
  Mg  Mg166  1  0.70583600  0.77913100  0.61722600  1
  Mg  Mg167  1  0.67397300  0.61303000  0.51711300  1
  Mg  Mg168  1  0.37794300  0.75588700  0.58854200  1
  Mg  Mg169  1  0.30651500  0.61303000  0.51711300  1
  Mg  Mg170  1  0.47882800  0.63949200  0.54608600  1
  Mg  Mg171  1  0.76607000  0.64399700  0.61185100  1
  Mg  Mg172  1  0.89092900  0.98816500  0.60968500  1
  Mg  Mg173  1  0.87795900  0.86777600  0.56523200  1
  Mg  Mg174  1  0.59522300  0.87228200  0.63099700  1
  Mg  Mg175  1  0.65865100  0.52360800  0.56739900  1
  Mg  Mg176  1  0.49134400  0.30085300  0.51195000  1
  Mg  Mg177  1  0.34696000  0.58206200  0.58904100  1
  Mg  Mg178  1  0.22210100  0.23789400  0.59120800  1
  Mg  Mg179  1  0.23507000  0.35828300  0.63566100  1
  Mg  Mg180  1  0.51780600  0.35377700  0.56989500  1
  Mg  Mg181  1  0.45437900  0.70245100  0.63349400  1
  Mg  Mg182  1  0.84222900  0.68445800  0.55282700  1
  Mg  Mg183  1  0.19937200  0.89874400  0.57663700  1
  Mg  Mg184  1  0.41365800  0.32731500  0.62425600  1
  Mg  Mg185  1  0.91365800  0.82731500  0.62425600  1
  Mg  Mg186  1  0.12794300  0.75588700  0.50520800  1
  Mg  Mg187  1  0.34222900  0.18445800  0.55282700  1
  Mg  Mg188  1  0.00186600  0.63627400  0.54579800  1
  Mg  Mg189  1  0.12147900  0.87550000  0.63128600  1
  Mg  Mg190  1  0.01048500  0.75588700  0.58854200  1
  Mg  Mg191  1  0.39687800  0.16121400  0.60747600  1
  Mg  Mg192  1  0.27726500  0.92198800  0.52198800  1
  Mg  Mg193  1  0.38825900  0.04160100  0.56473200  1
  Mg  Mg194  1  0.09222900  0.18445800  0.63616100  1
  Mg  Mg195  1  0.02080000  0.04160100  0.56473200  1
  Mg  Mg196  1  0.19311400  0.06806300  0.59370500  1
  Mg  Mg197  1  0.33749800  0.78685400  0.51661300  1
  Mg  Mg198  1  0.46235700  0.13102200  0.51444600  1
  Mg  Mg199  1  0.59224500  0.29634800  0.61285100  1
  Mg  Mg200  1  0.16665200  0.01513900  0.53575900  1
  Mg  Mg201  1  0.37293600  0.95218000  0.61501800  1
  Mg  Mg202  1  0.20563000  0.72942400  0.55956900  1
  Mg  Mg203  1  0.06124600  0.01063400  0.63666000  1
  Mg  Mg204  1  0.93638600  0.66646600  0.63882700  1
  Mg  Mg205  1  0.80649900  0.50114000  0.54042300  1
  Mg  Mg206  1  0.23209200  0.78234900  0.61751400  1
  Mg  Mg207  1  0.02580800  0.84530800  0.53825600  1
  Mg  Mg208  1  0.55651500  0.11303000  0.60044600  1
  Mg  Mg209  1  0.91365800  0.32731500  0.62425600  1
  Mg  Mg210  1  0.98508600  0.47017200  0.52901800  1
  Mg  Mg211  1  0.48508600  0.97017200  0.52901800  1
  Mg  Mg212  1  0.84222900  0.18445800  0.55282700  1
  Mg  Mg213  1  0.05651500  0.61303000  0.60044600  1
  Mg  Mg214  1  0.71615200  0.06484500  0.59341700  1
  Mg  Mg215  1  0.69290700  0.01835700  0.53604800  1
  Mg  Mg216  1  0.72477100  0.18445800  0.63616100  1
  Mg  Mg217  1  0.96830600  0.30407100  0.51223800  1
  Mg  Mg218  1  0.99155100  0.35055900  0.56960700  1
  Mg  Mg219  1  0.10254400  0.47017200  0.61235100  1
  Mg  Mg220  1  0.66365800  0.32731500  0.54092300  1
  Mg  Mg221  1  0.73508600  0.47017200  0.61235100  1
  Mg  Mg222  1  0.76454300  0.21092000  0.49846700  1
  Mg  Mg223  1  0.05178400  0.21542600  0.56423200  1
  Mg  Mg224  1  0.17664300  0.55959400  0.56206500  1
  Mg  Mg225  1  0.16367400  0.43920500  0.51761300  1
  Mg  Mg226  1  0.88093700  0.44371000  0.58337800  1
  Mg  Mg227  1  0.94436500  0.09503700  0.51978000  1
  Mg  Mg228  1  0.91991600  0.15799600  0.60718800  1
  Mg  Mg229  1  0.63267400  0.15349100  0.54142200  1
  Mg  Mg230  1  0.50781500  0.80932300  0.54358900  1
  Mg  Mg231  1  0.52078400  0.92971100  0.58804200  1
  Mg  Mg232  1  0.80352100  0.92520600  0.52227600  1
  Mg  Mg233  1  0.74009300  0.27387900  0.58587500  1
  Mg  Mg234  1  0.27080000  0.54160100  0.64806500  1
  Mg  Mg235  1  0.62794300  0.75588700  0.67187500  1
  Mg  Mg236  1  0.84222900  0.18445800  0.71949400  1
  Mg  Mg237  1  0.34222900  0.68445800  0.71949400  1
  Mg  Mg238  1  0.69937200  0.89874400  0.74330400  1
  Mg  Mg239  1  0.77080000  0.04160100  0.64806500  1
  Mg  Mg240  1  0.43043700  0.49341700  0.64103600  1
  Mg  Mg241  1  0.55005000  0.73264300  0.72652400  1
  Mg  Mg242  1  0.43905700  0.61303000  0.68378000  1
  Mg  Mg243  1  0.82544900  0.01835700  0.70271400  1
  Mg  Mg244  1  0.81683000  0.89874400  0.65997000  1
  Mg  Mg245  1  0.52080000  0.04160100  0.73139900  1
  Mg  Mg246  1  0.44937200  0.89874400  0.65997000  1
  Mg  Mg247  1  0.62168500  0.92520600  0.68894300  1
  Mg  Mg248  1  0.02081700  0.15349100  0.70808900  1
  Mg  Mg249  1  0.80150800  0.80932300  0.71025600  1
  Mg  Mg250  1  0.63420100  0.58656700  0.65480700  1
  Mg  Mg251  1  0.48981700  0.86777600  0.73189900  1
  Mg  Mg252  1  0.36495800  0.52360800  0.73406500  1
  Mg  Mg253  1  0.66066300  0.63949200  0.71275300  1
  Mg  Mg254  1  0.98508600  0.97017200  0.69568500  1
  Mg  Mg255  1  0.34222900  0.18445800  0.71949400  1
  Mg  Mg256  1  0.27080000  0.04160100  0.64806500  1
  Mg  Mg257  1  0.48508600  0.47017200  0.69568500  1
  Mg  Mg258  1  0.14472300  0.92198800  0.68865500  1
  Mg  Mg259  1  0.15334200  0.04160100  0.73139900  1
  Mg  Mg260  1  0.53973500  0.44692800  0.75033300  1
  Mg  Mg261  1  0.42012200  0.20770200  0.66484500  1
  Mg  Mg262  1  0.53111600  0.32731500  0.70758900  1
  Mg  Mg263  1  0.16365800  0.32731500  0.70758900  1
  Mg  Mg264  1  0.33597100  0.35377700  0.73656200  1
  Mg  Mg265  1  0.48035500  0.07256800  0.65947100  1
  Mg  Mg266  1  0.60521500  0.41673600  0.65730400  1
  Mg  Mg267  1  0.30950900  0.30085300  0.67861700  1
  Mg  Mg268  1  0.34848700  0.01513900  0.70242600  1
  Mg  Mg269  1  0.94935600  0.78685400  0.68328000  1
  Mg  Mg270  1  0.16866500  0.13102200  0.68111300  1
  Mg  Mg271  1  0.69937200  0.39874400  0.74330400  1
  Mg  Mg272  1  0.12794300  0.75588700  0.67187500  1
  Mg  Mg273  1  0.62794300  0.25588700  0.67187500  1
  Mg  Mg274  1  0.98508600  0.47017200  0.69568500  1
  Mg  Mg275  1  0.19937200  0.89874400  0.74330400  1
  Mg  Mg276  1  0.85900900  0.35055900  0.73627400  1
  Mg  Mg277  1  0.83576500  0.30407100  0.67890500  1
  Mg  Mg278  1  0.11116400  0.58978500  0.65509500  1
  Mg  Mg279  1  0.13440800  0.63627400  0.71246400  1
  Mg  Mg280  1  0.80651500  0.61303000  0.68378000  1
  Mg  Mg281  1  0.90740000  0.49663500  0.64132400  1
  Mg  Mg282  1  0.19464100  0.50114000  0.70709000  1
  Mg  Mg283  1  0.31950000  0.84530800  0.70492300  1
  Mg  Mg284  1  0.30653100  0.72491900  0.66047000  1
  Mg  Mg285  1  0.02379500  0.72942400  0.72623600  1
  Mg  Mg286  1  0.08722200  0.38075100  0.66263700  1
  Mg  Mg287  1  0.06277300  0.44371000  0.75004500  1
  Mg  Mg288  1  0.77553100  0.43920500  0.68427900  1
  Mg  Mg289  1  0.65067200  0.09503700  0.68644600  1
  Mg  Mg290  1  0.66364200  0.21542600  0.73089900  1
  Mg  Mg291  1  0.94637800  0.21092000  0.66513300  1
  Mg  Mg292  1  0.88295000  0.55959400  0.72873200  1
  Ir  Ir293  1  0.27672100  0.89874400  0.32663700  1
  Ir  Ir294  1  0.88307300  0.59349400  0.25435300  1
  Ir  Ir295  1  0.04546500  0.91827900  0.25606300  1
  Ir  Ir296  1  0.26488000  0.18445800  0.30282700  1
  Ir  Ir297  1  0.51567100  0.20399300  0.23225400  1
  Ir  Ir298  1  0.35327900  0.87920900  0.23054400  1
  Ir  Ir299  1  0.84815000  0.04160100  0.23139900  1
  Ir  Ir300  1  0.59735800  0.02206600  0.30197300  1
  Ir  Ir301  1  0.75975100  0.34685000  0.30368200  1
  Ir  Ir302  1  0.97916500  0.61303000  0.35044600  1
  Ir  Ir303  1  0.22995700  0.63256500  0.27987300  1
  Ir  Ir304  1  0.06756500  0.30778000  0.27816300  1
  Ir  Ir305  1  0.56243600  0.47017200  0.27901800  1
  Ir  Ir306  1  0.31164400  0.45063700  0.34959200  1
  Ir  Ir307  1  0.47403600  0.77542200  0.35130100  1
  Ir  Ir308  1  0.55059400  0.75588700  0.25520800  1
  Ir  Ir309  1  0.94424300  0.06113600  0.32749200  1
  Ir  Ir310  1  0.78185000  0.73635100  0.32578200  1
  Ir  Ir311  1  0.41957800  0.18445800  0.46949400  1
  Ir  Ir312  1  0.02593000  0.87920900  0.39721100  1
  Ir  Ir313  1  0.18832200  0.20399300  0.39892000  1
  Ir  Ir314  1  0.40773700  0.47017200  0.44568500  1
  Ir  Ir315  1  0.65852800  0.48970800  0.37511100  1
  Ir  Ir316  1  0.49613600  0.16492300  0.37340100  1
  Ir  Ir317  1  0.99100700  0.32731500  0.37425600  1
  Ir  Ir318  1  0.74021500  0.30778000  0.44483000  1
  Ir  Ir319  1  0.90260800  0.63256500  0.44653900  1
  Ir  Ir320  1  0.12202300  0.89874400  0.49330400  1
  Ir  Ir321  1  0.37281400  0.91827900  0.42273000  1
  Ir  Ir322  1  0.21042200  0.59349400  0.42102000  1
  Ir  Ir323  1  0.70529300  0.75588700  0.42187500  1
  Ir  Ir324  1  0.45450100  0.73635100  0.49244900  1
  Ir  Ir325  1  0.61689300  0.06113600  0.49415800  1
  Ir  Ir326  1  0.69345100  0.04160100  0.39806500  1
  Ir  Ir327  1  0.08710000  0.34685000  0.47034900  1
  Ir  Ir328  1  0.92470800  0.02206600  0.46863900  1
  Ir  Ir329  1  0.56243600  0.47017200  0.61235100  1
  Ir  Ir330  1  0.16878700  0.16492300  0.54006800  1
  Ir  Ir331  1  0.33117900  0.48970800  0.54177700  1
  Ir  Ir332  1  0.55059400  0.75588700  0.58854200  1
  Ir  Ir333  1  0.80138600  0.77542200  0.51796800  1
  Ir  Ir334  1  0.63899300  0.45063700  0.51625800  1
  Ir  Ir335  1  0.13386400  0.61303000  0.51711300  1
  Ir  Ir336  1  0.88307300  0.59349400  0.58768700  1
  Ir  Ir337  1  0.04546500  0.91827900  0.58939700  1
  Ir  Ir338  1  0.26488000  0.18445800  0.63616100  1
  Ir  Ir339  1  0.51567100  0.20399300  0.56558700  1
  Ir  Ir340  1  0.35327900  0.87920900  0.56387700  1
  Ir  Ir341  1  0.84815000  0.04160100  0.56473200  1
  Ir  Ir342  1  0.59735800  0.02206600  0.63530600  1
  Ir  Ir343  1  0.75975100  0.34685000  0.63701600  1
  Ir  Ir344  1  0.83630800  0.32731500  0.54092300  1
  Ir  Ir345  1  0.22995700  0.63256500  0.61320600  1
  Ir  Ir346  1  0.06756500  0.30778000  0.61149600  1
  Ir  Ir347  1  0.31164400  0.45063700  0.68292500  1
  Ir  Ir348  1  0.47403600  0.77542200  0.68463500  1
  Ir  Ir349  1  0.69345100  0.04160100  0.73139900  1
  Ir  Ir350  1  0.94424300  0.06113600  0.66082500  1
  Ir  Ir351  1  0.78185000  0.73635100  0.65911500  1
  Ir  Ir352  1  0.27672100  0.89874400  0.65997000  1
  Ir  Ir353  1  0.02593000  0.87920900  0.73054400  1
  Ir  Ir354  1  0.18832200  0.20399300  0.73225400  1
  Ir  Ir355  1  0.65852800  0.48970800  0.70844400  1
  Ir  Ir356  1  0.49613600  0.16492300  0.70673400  1
  Ir  Ir357  1  0.99100700  0.32731500  0.70758900  1
  Ir  Ir358  1  0.97916500  0.61303000  0.68378000  1
