# generated using pymatgen
data_CeMg
_symmetry_space_group_name_H-M   'P 1'
_cell_length_a   5.79243186
_cell_length_b   6.65425509
_cell_length_c   44.75356600
_cell_angle_alpha   91.33840131
_cell_angle_beta   92.97714470
_cell_angle_gamma   114.30267289
_symmetry_Int_Tables_number   1
_chemical_formula_structural   CeMg
_chemical_formula_sum   'Ce18 Mg18'
_cell_volume   1568.11440373
_cell_formula_units_Z   18
loop_
 _symmetry_equiv_pos_site_id
 _symmetry_equiv_pos_as_xyz
  1  'x, y, z'
loop_
 _atom_site_type_symbol
 _atom_site_label
 _atom_site_symmetry_multiplicity
 _atom_site_fract_x
 _atom_site_fract_y
 _atom_site_fract_z
 _atom_site_occupancy
  Ce  Ce0  1  0.68389800  0.22690200  0.74710500  1
  Ce  Ce1  1  0.58276900  0.50643100  0.78622900  1
  Ce  Ce2  1  0.35056400  0.96023500  0.68043800  1
  Ce  Ce3  1  0.24943600  0.23976500  0.71956200  1
  Ce  Ce4  1  0.01723100  0.69356900  0.61377100  1
  Ce  Ce5  1  0.91610200  0.97309800  0.65289500  1
  Ce  Ce6  1  0.68389800  0.42690200  0.54710500  1
  Ce  Ce7  1  0.58276900  0.70643100  0.58622900  1
  Ce  Ce8  1  0.35056400  0.16023500  0.48043800  1
  Ce  Ce9  1  0.24943600  0.43976500  0.51956200  1
  Ce  Ce10  1  0.01723100  0.89356900  0.41377100  1
  Ce  Ce11  1  0.91610200  0.17309800  0.45289500  1
  Ce  Ce12  1  0.68389800  0.62690200  0.34710500  1
  Ce  Ce13  1  0.58276900  0.90643100  0.38622900  1
  Ce  Ce14  1  0.35056400  0.36023500  0.28043800  1
  Ce  Ce15  1  0.24943600  0.63976500  0.31956200  1
  Ce  Ce16  1  0.01723100  0.09356900  0.21377100  1
  Ce  Ce17  1  0.91610200  0.37309800  0.25289500  1
  Mg  Mg18  1  0.06308700  0.01967100  0.78653500  1
  Mg  Mg19  1  0.20358000  0.71366200  0.74679800  1
  Mg  Mg20  1  0.72975400  0.75300500  0.71986900  1
  Mg  Mg21  1  0.87024600  0.44699500  0.68013100  1
  Mg  Mg22  1  0.39642000  0.48633800  0.65320200  1
  Mg  Mg23  1  0.53691300  0.18032900  0.61346500  1
  Mg  Mg24  1  0.06308700  0.21967100  0.58653500  1
  Mg  Mg25  1  0.20358000  0.91366200  0.54679800  1
  Mg  Mg26  1  0.72975400  0.95300500  0.51986900  1
  Mg  Mg27  1  0.87024600  0.64699500  0.48013100  1
  Mg  Mg28  1  0.39642000  0.68633800  0.45320200  1
  Mg  Mg29  1  0.53691300  0.38032900  0.41346500  1
  Mg  Mg30  1  0.06308700  0.41967100  0.38653500  1
  Mg  Mg31  1  0.20358000  0.11366200  0.34679800  1
  Mg  Mg32  1  0.72975400  0.15300500  0.31986900  1
  Mg  Mg33  1  0.87024600  0.84699500  0.28013100  1
  Mg  Mg34  1  0.39642000  0.88633800  0.25320200  1
  Mg  Mg35  1  0.53691300  0.58032900  0.21346500  1
