# generated using pymatgen
data_Ce2Mg
_symmetry_space_group_name_H-M   'P 1'
_cell_length_a   6.12314826
_cell_length_b   18.51676600
_cell_length_c   43.33505900
_cell_angle_alpha   90.00000000
_cell_angle_beta   92.11296048
_cell_angle_gamma   90.00000000
_symmetry_Int_Tables_number   1
_chemical_formula_structural   Ce2Mg
_chemical_formula_sum   'Ce80 Mg40'
_cell_volume   4910.02743872
_cell_formula_units_Z   40
loop_
 _symmetry_equiv_pos_site_id
 _symmetry_equiv_pos_as_xyz
  1  'x, y, z'
loop_
 _atom_site_type_symbol
 _atom_site_label
 _atom_site_symmetry_multiplicity
 _atom_site_fract_x
 _atom_site_fract_y
 _atom_site_fract_z
 _atom_site_occupancy
  Ce  Ce0  1  0.18750000  0.87022800  0.20312500  1
  Ce  Ce1  1  0.06250000  0.70306500  0.23437500  1
  Ce  Ce2  1  0.56250000  0.79693500  0.23437500  1
  Ce  Ce3  1  0.68750000  0.62977200  0.20312500  1
  Ce  Ce4  1  0.06250000  0.37022800  0.23437500  1
  Ce  Ce5  1  0.18750000  0.20306500  0.20312500  1
  Ce  Ce6  1  0.68750000  0.29693500  0.20312500  1
  Ce  Ce7  1  0.56250000  0.12977200  0.23437500  1
  Ce  Ce8  1  0.93750000  0.87022800  0.26562500  1
  Ce  Ce9  1  0.81250000  0.70306500  0.29687500  1
  Ce  Ce10  1  0.31250000  0.79693500  0.29687500  1
  Ce  Ce11  1  0.43750000  0.62977200  0.26562500  1
  Ce  Ce12  1  0.81250000  0.37022800  0.29687500  1
  Ce  Ce13  1  0.93750000  0.20306500  0.26562500  1
  Ce  Ce14  1  0.43750000  0.29693500  0.26562500  1
  Ce  Ce15  1  0.31250000  0.12977200  0.29687500  1
  Ce  Ce16  1  0.68750000  0.87022800  0.32812500  1
  Ce  Ce17  1  0.56250000  0.70306500  0.35937500  1
  Ce  Ce18  1  0.06250000  0.79693500  0.35937500  1
  Ce  Ce19  1  0.18750000  0.62977200  0.32812500  1
  Ce  Ce20  1  0.56250000  0.37022800  0.35937500  1
  Ce  Ce21  1  0.68750000  0.20306500  0.32812500  1
  Ce  Ce22  1  0.18750000  0.29693500  0.32812500  1
  Ce  Ce23  1  0.06250000  0.12977200  0.35937500  1
  Ce  Ce24  1  0.43750000  0.87022800  0.39062500  1
  Ce  Ce25  1  0.31250000  0.70306500  0.42187500  1
  Ce  Ce26  1  0.81250000  0.79693500  0.42187500  1
  Ce  Ce27  1  0.93750000  0.62977200  0.39062500  1
  Ce  Ce28  1  0.31250000  0.37022800  0.42187500  1
  Ce  Ce29  1  0.43750000  0.20306500  0.39062500  1
  Ce  Ce30  1  0.93750000  0.29693500  0.39062500  1
  Ce  Ce31  1  0.81250000  0.12977200  0.42187500  1
  Ce  Ce32  1  0.18750000  0.87022800  0.45312500  1
  Ce  Ce33  1  0.06250000  0.70306500  0.48437500  1
  Ce  Ce34  1  0.56250000  0.79693500  0.48437500  1
  Ce  Ce35  1  0.68750000  0.62977200  0.45312500  1
  Ce  Ce36  1  0.06250000  0.37022800  0.48437500  1
  Ce  Ce37  1  0.18750000  0.20306500  0.45312500  1
  Ce  Ce38  1  0.68750000  0.29693500  0.45312500  1
  Ce  Ce39  1  0.56250000  0.12977200  0.48437500  1
  Ce  Ce40  1  0.93750000  0.87022800  0.51562500  1
  Ce  Ce41  1  0.81250000  0.70306500  0.54687500  1
  Ce  Ce42  1  0.31250000  0.79693500  0.54687500  1
  Ce  Ce43  1  0.43750000  0.62977200  0.51562500  1
  Ce  Ce44  1  0.81250000  0.37022800  0.54687500  1
  Ce  Ce45  1  0.93750000  0.20306500  0.51562500  1
  Ce  Ce46  1  0.43750000  0.29693500  0.51562500  1
  Ce  Ce47  1  0.31250000  0.12977200  0.54687500  1
  Ce  Ce48  1  0.68750000  0.87022800  0.57812500  1
  Ce  Ce49  1  0.56250000  0.70306500  0.60937500  1
  Ce  Ce50  1  0.06250000  0.79693500  0.60937500  1
  Ce  Ce51  1  0.18750000  0.62977200  0.57812500  1
  Ce  Ce52  1  0.56250000  0.37022800  0.60937500  1
  Ce  Ce53  1  0.68750000  0.20306500  0.57812500  1
  Ce  Ce54  1  0.18750000  0.29693500  0.57812500  1
  Ce  Ce55  1  0.06250000  0.12977200  0.60937500  1
  Ce  Ce56  1  0.43750000  0.87022800  0.64062500  1
  Ce  Ce57  1  0.31250000  0.70306500  0.67187500  1
  Ce  Ce58  1  0.81250000  0.79693500  0.67187500  1
  Ce  Ce59  1  0.93750000  0.62977200  0.64062500  1
  Ce  Ce60  1  0.31250000  0.37022800  0.67187500  1
  Ce  Ce61  1  0.43750000  0.20306500  0.64062500  1
  Ce  Ce62  1  0.93750000  0.29693500  0.64062500  1
  Ce  Ce63  1  0.81250000  0.12977200  0.67187500  1
  Ce  Ce64  1  0.18750000  0.87022800  0.70312500  1
  Ce  Ce65  1  0.06250000  0.70306500  0.73437500  1
  Ce  Ce66  1  0.56250000  0.79693500  0.73437500  1
  Ce  Ce67  1  0.68750000  0.62977200  0.70312500  1
  Ce  Ce68  1  0.06250000  0.37022800  0.73437500  1
  Ce  Ce69  1  0.18750000  0.20306500  0.70312500  1
  Ce  Ce70  1  0.68750000  0.29693500  0.70312500  1
  Ce  Ce71  1  0.56250000  0.12977200  0.73437500  1
  Ce  Ce72  1  0.93750000  0.87022800  0.76562500  1
  Ce  Ce73  1  0.81250000  0.70306500  0.79687500  1
  Ce  Ce74  1  0.31250000  0.79693500  0.79687500  1
  Ce  Ce75  1  0.43750000  0.62977200  0.76562500  1
  Ce  Ce76  1  0.81250000  0.37022800  0.79687500  1
  Ce  Ce77  1  0.93750000  0.20306500  0.76562500  1
  Ce  Ce78  1  0.43750000  0.29693500  0.76562500  1
  Ce  Ce79  1  0.31250000  0.12977200  0.79687500  1
  Mg  Mg80  1  0.18750000  0.54096300  0.20312500  1
  Mg  Mg81  1  0.68750000  0.95903700  0.20312500  1
  Mg  Mg82  1  0.06250000  0.04096300  0.23437500  1
  Mg  Mg83  1  0.56250000  0.45903700  0.23437500  1
  Mg  Mg84  1  0.93750000  0.54096300  0.26562500  1
  Mg  Mg85  1  0.43750000  0.95903700  0.26562500  1
  Mg  Mg86  1  0.81250000  0.04096300  0.29687500  1
  Mg  Mg87  1  0.31250000  0.45903700  0.29687500  1
  Mg  Mg88  1  0.68750000  0.54096300  0.32812500  1
  Mg  Mg89  1  0.18750000  0.95903700  0.32812500  1
  Mg  Mg90  1  0.56250000  0.04096300  0.35937500  1
  Mg  Mg91  1  0.06250000  0.45903700  0.35937500  1
  Mg  Mg92  1  0.43750000  0.54096300  0.39062500  1
  Mg  Mg93  1  0.93750000  0.95903700  0.39062500  1
  Mg  Mg94  1  0.31250000  0.04096300  0.42187500  1
  Mg  Mg95  1  0.81250000  0.45903700  0.42187500  1
  Mg  Mg96  1  0.18750000  0.54096300  0.45312500  1
  Mg  Mg97  1  0.68750000  0.95903700  0.45312500  1
  Mg  Mg98  1  0.06250000  0.04096300  0.48437500  1
  Mg  Mg99  1  0.56250000  0.45903700  0.48437500  1
  Mg  Mg100  1  0.93750000  0.54096300  0.51562500  1
  Mg  Mg101  1  0.43750000  0.95903700  0.51562500  1
  Mg  Mg102  1  0.81250000  0.04096300  0.54687500  1
  Mg  Mg103  1  0.31250000  0.45903700  0.54687500  1
  Mg  Mg104  1  0.68750000  0.54096300  0.57812500  1
  Mg  Mg105  1  0.18750000  0.95903700  0.57812500  1
  Mg  Mg106  1  0.56250000  0.04096300  0.60937500  1
  Mg  Mg107  1  0.06250000  0.45903700  0.60937500  1
  Mg  Mg108  1  0.43750000  0.54096300  0.64062500  1
  Mg  Mg109  1  0.93750000  0.95903700  0.64062500  1
  Mg  Mg110  1  0.31250000  0.04096300  0.67187500  1
  Mg  Mg111  1  0.81250000  0.45903700  0.67187500  1
  Mg  Mg112  1  0.18750000  0.54096300  0.70312500  1
  Mg  Mg113  1  0.68750000  0.95903700  0.70312500  1
  Mg  Mg114  1  0.06250000  0.04096300  0.73437500  1
  Mg  Mg115  1  0.56250000  0.45903700  0.73437500  1
  Mg  Mg116  1  0.93750000  0.54096300  0.76562500  1
  Mg  Mg117  1  0.43750000  0.95903700  0.76562500  1
  Mg  Mg118  1  0.81250000  0.04096300  0.79687500  1
  Mg  Mg119  1  0.31250000  0.45903700  0.79687500  1
