# generated using pymatgen
data_Tb32Mg11
_symmetry_space_group_name_H-M   'P 1'
_cell_length_a   5.01610211
_cell_length_b   10.19123206
_cell_length_c   43.76612000
_cell_angle_alpha   92.82014931
_cell_angle_beta   93.28518314
_cell_angle_gamma   75.75321425
_symmetry_Int_Tables_number   1
_chemical_formula_structural   Tb32Mg11
_chemical_formula_sum   'Tb32 Mg11'
_cell_volume   2163.53737542
_cell_formula_units_Z   1
loop_
 _symmetry_equiv_pos_site_id
 _symmetry_equiv_pos_as_xyz
  1  'x, y, z'
loop_
 _atom_site_type_symbol
 _atom_site_label
 _atom_site_symmetry_multiplicity
 _atom_site_fract_x
 _atom_site_fract_y
 _atom_site_fract_z
 _atom_site_occupancy
  Tb  Tb0  1  0.32466000  0.74109300  0.21600100  1
  Tb  Tb1  1  0.11400200  0.18874000  0.24233300  1
  Tb  Tb2  1  0.88021500  0.68553700  0.27155600  1
  Tb  Tb3  1  0.49710900  0.43713900  0.25694400  1
  Tb  Tb4  1  0.66955800  0.13318400  0.29788800  1
  Tb  Tb5  1  0.43577100  0.62998200  0.32711200  1
  Tb  Tb6  1  0.05266400  0.38158300  0.31250000  1
  Tb  Tb7  1  0.22511300  0.07762900  0.35344400  1
  Tb  Tb8  1  0.99132600  0.57442600  0.38266700  1
  Tb  Tb9  1  0.60822000  0.32602700  0.36805600  1
  Tb  Tb10  1  0.78066900  0.02207300  0.40899900  1
  Tb  Tb11  1  0.54688200  0.51887100  0.43822300  1
  Tb  Tb12  1  0.16377500  0.27047200  0.42361100  1
  Tb  Tb13  1  0.33622500  0.96651800  0.46455500  1
  Tb  Tb14  1  0.10243800  0.46331500  0.49377800  1
  Tb  Tb15  1  0.71933100  0.21491600  0.47916700  1
  Tb  Tb16  1  0.89178000  0.91096200  0.52011100  1
  Tb  Tb17  1  0.65799300  0.40775900  0.54933400  1
  Tb  Tb18  1  0.27488700  0.15936100  0.53472200  1
  Tb  Tb19  1  0.44733600  0.85540700  0.57566600  1
  Tb  Tb20  1  0.21354900  0.35220400  0.60488900  1
  Tb  Tb21  1  0.83044200  0.10380500  0.59027800  1
  Tb  Tb22  1  0.00289100  0.79985100  0.63122200  1
  Tb  Tb23  1  0.76910400  0.29664800  0.66044500  1
  Tb  Tb24  1  0.38599800  0.04825000  0.64583300  1
  Tb  Tb25  1  0.55844700  0.74429600  0.68677700  1
  Tb  Tb26  1  0.32466000  0.24109300  0.71600100  1
  Tb  Tb27  1  0.94155300  0.99269400  0.70138900  1
  Tb  Tb28  1  0.11400200  0.68874000  0.74233300  1
  Tb  Tb29  1  0.88021500  0.18553700  0.77155600  1
  Tb  Tb30  1  0.49710900  0.93713900  0.75694400  1
  Tb  Tb31  1  0.66955800  0.63318400  0.79788800  1
  Mg  Mg32  1  0.71933100  0.96491600  0.22916700  1
  Mg  Mg33  1  0.27488700  0.90936100  0.28472200  1
  Mg  Mg34  1  0.83044200  0.85380500  0.34027800  1
  Mg  Mg35  1  0.38599800  0.79825000  0.39583300  1
  Mg  Mg36  1  0.94155300  0.74269400  0.45138900  1
  Mg  Mg37  1  0.49710900  0.68713900  0.50694400  1
  Mg  Mg38  1  0.05266400  0.63158300  0.56250000  1
  Mg  Mg39  1  0.60822000  0.57602700  0.61805600  1
  Mg  Mg40  1  0.16377500  0.52047200  0.67361100  1
  Mg  Mg41  1  0.71933100  0.46491600  0.72916700  1
  Mg  Mg42  1  0.27488700  0.40936100  0.78472200  1
