# generated using pymatgen
data_Mg7P32
_symmetry_space_group_name_H-M   'P 1'
_cell_length_a   7.29415393
_cell_length_b   9.16199215
_cell_length_c   40.89486900
_cell_angle_alpha   88.10754905
_cell_angle_beta   87.28743917
_cell_angle_gamma   107.72281959
_symmetry_Int_Tables_number   1
_chemical_formula_structural   Mg7P32
_chemical_formula_sum   'Mg14 P64'
_cell_volume   2597.10717612
_cell_formula_units_Z   2
loop_
 _symmetry_equiv_pos_site_id
 _symmetry_equiv_pos_as_xyz
  1  'x, y, z'
loop_
 _atom_site_type_symbol
 _atom_site_label
 _atom_site_symmetry_multiplicity
 _atom_site_fract_x
 _atom_site_fract_y
 _atom_site_fract_z
 _atom_site_occupancy
  Mg  Mg0  1  0.36445500  0.78132700  0.26153800  1
  Mg  Mg1  1  0.36445500  0.28132700  0.26153800  1
  Mg  Mg2  1  0.74907000  0.55055800  0.33846200  1
  Mg  Mg3  1  0.74907000  0.05055800  0.33846200  1
  Mg  Mg4  1  0.13368600  0.31978900  0.41538500  1
  Mg  Mg5  1  0.13368600  0.81978900  0.41538500  1
  Mg  Mg6  1  0.51830100  0.08901900  0.49230800  1
  Mg  Mg7  1  0.51830100  0.58901900  0.49230800  1
  Mg  Mg8  1  0.90291700  0.85825000  0.56923100  1
  Mg  Mg9  1  0.90291700  0.35825000  0.56923100  1
  Mg  Mg10  1  0.28753200  0.62748100  0.64615400  1
  Mg  Mg11  1  0.28753200  0.12748100  0.64615400  1
  Mg  Mg12  1  0.67214700  0.39671200  0.72307700  1
  Mg  Mg13  1  0.67214700  0.89671200  0.72307700  1
  P  P14  1  0.03414100  0.08142200  0.24606700  1
  P  P15  1  0.53494700  0.07712500  0.24504600  1
  P  P16  1  0.31015300  0.71200200  0.20008700  1
  P  P17  1  0.80934700  0.71629800  0.20110800  1
  P  P18  1  0.92449800  0.40670800  0.25292500  1
  P  P19  1  0.72102300  0.70598000  0.25347400  1
  P  P20  1  0.41979700  0.38671600  0.19322900  1
  P  P21  1  0.62327200  0.08744300  0.19268000  1
  P  P22  1  0.41875700  0.85065200  0.32299000  1
  P  P23  1  0.91956200  0.84635600  0.32196900  1
  P  P24  1  0.69476900  0.48123200  0.27701000  1
  P  P25  1  0.19396300  0.48552900  0.27803100  1
  P  P26  1  0.30911300  0.17593800  0.32984800  1
  P  P27  1  0.10563800  0.47521100  0.33039700  1
  P  P28  1  0.80441200  0.15594600  0.27015200  1
  P  P29  1  0.00788700  0.85667400  0.26960300  1
  P  P30  1  0.80337200  0.61988300  0.39991300  1
  P  P31  1  0.30417800  0.61558700  0.39889200  1
  P  P32  1  0.07938400  0.25046300  0.35393300  1
  P  P33  1  0.57857800  0.25475900  0.35495400  1
  P  P34  1  0.69372900  0.94516900  0.40677100  1
  P  P35  1  0.49025300  0.24444100  0.40732000  1
  P  P36  1  0.18902700  0.92517700  0.34707500  1
  P  P37  1  0.39250300  0.62590500  0.34652600  1
  P  P38  1  0.18798700  0.38911400  0.47683600  1
  P  P39  1  0.68879300  0.38481800  0.47581500  1
  P  P40  1  0.46399900  0.01969400  0.43085700  1
  P  P41  1  0.96319400  0.02399000  0.43187700  1
  P  P42  1  0.07834400  0.71440000  0.48369400  1
  P  P43  1  0.87486900  0.01367200  0.48424400  1
  P  P44  1  0.57364300  0.69440800  0.42399800  1
  P  P45  1  0.77711800  0.39513600  0.42344900  1
  P  P46  1  0.57260300  0.15834500  0.55375900  1
  P  P47  1  0.07340900  0.15404800  0.55273800  1
  P  P48  1  0.84861500  0.78892500  0.50778000  1
  P  P49  1  0.34780900  0.79322100  0.50880000  1
  P  P50  1  0.46296000  0.48363100  0.56061700  1
  P  P51  1  0.25948400  0.78290300  0.56116700  1
  P  P52  1  0.95825800  0.46363900  0.50092100  1
  P  P53  1  0.16173300  0.16436600  0.50037200  1
  P  P54  1  0.95721800  0.92757500  0.63068200  1
  P  P55  1  0.45802400  0.92327900  0.62966100  1
  P  P56  1  0.23323000  0.55815600  0.58470300  1
  P  P57  1  0.73242400  0.56245200  0.58572300  1
  P  P58  1  0.84757500  0.25286200  0.63754000  1
  P  P59  1  0.64410000  0.55213400  0.63809000  1
  P  P60  1  0.34287300  0.23286900  0.57784400  1
  P  P61  1  0.54634900  0.93359700  0.57729500  1
  P  P62  1  0.34183400  0.69680600  0.70760500  1
  P  P63  1  0.84263900  0.69251000  0.70658500  1
  P  P64  1  0.61784600  0.32738600  0.66162600  1
  P  P65  1  0.11704000  0.33168200  0.66264600  1
  P  P66  1  0.23219000  0.02209200  0.71446300  1
  P  P67  1  0.02871500  0.32136500  0.71501300  1
  P  P68  1  0.72748900  0.00210000  0.65476800  1
  P  P69  1  0.93096400  0.70282800  0.65421800  1
  P  P70  1  0.72644900  0.46603700  0.78452800  1
  P  P71  1  0.22725500  0.46174100  0.78350800  1
  P  P72  1  0.00246100  0.09661700  0.73854900  1
  P  P73  1  0.50165500  0.10091300  0.73956900  1
  P  P74  1  0.61680600  0.79132300  0.79138600  1
  P  P75  1  0.41333000  0.09059500  0.79193600  1
  P  P76  1  0.11210400  0.77133100  0.73169100  1
  P  P77  1  0.31558000  0.47205900  0.73114100  1
