# generated using pymatgen
data_Mg23Au67
_symmetry_space_group_name_H-M   'P 1'
_cell_length_a   5.98733200
_cell_length_b   22.16206628
_cell_length_c   43.22761900
_cell_angle_alpha   91.91421088
_cell_angle_beta   90.00000000
_cell_angle_gamma   90.00000000
_symmetry_Int_Tables_number   1
_chemical_formula_structural   Mg23Au67
_chemical_formula_sum   'Mg46 Au134'
_cell_volume   5732.74315522
_cell_formula_units_Z   2
loop_
 _symmetry_equiv_pos_site_id
 _symmetry_equiv_pos_as_xyz
  1  'x, y, z'
loop_
 _atom_site_type_symbol
 _atom_site_label
 _atom_site_symmetry_multiplicity
 _atom_site_fract_x
 _atom_site_fract_y
 _atom_site_fract_z
 _atom_site_occupancy
  Mg  Mg0  1  0.50000000  0.77008300  0.34381800  1
  Mg  Mg1  1  0.00000000  0.97222000  0.29368200  1
  Mg  Mg2  1  0.00000000  0.07190100  0.39336300  1
  Mg  Mg3  1  0.50000000  0.67040300  0.24413700  1
  Mg  Mg4  1  1.00000000  0.78934500  0.27670200  1
  Mg  Mg5  1  0.50000000  0.95295900  0.36079800  1
  Mg  Mg6  1  0.00000000  0.17008300  0.24381800  1
  Mg  Mg7  1  0.50000000  0.57222000  0.39368200  1
  Mg  Mg8  1  0.50000000  0.47190100  0.29336300  1
  Mg  Mg9  1  0.00000000  0.27040300  0.34413700  1
  Mg  Mg10  1  0.00000000  0.59134400  0.32620200  1
  Mg  Mg11  1  0.50000000  0.15096000  0.31129800  1
  Mg  Mg12  1  0.50000000  0.38934500  0.37670200  1
  Mg  Mg13  1  0.00000000  0.35295900  0.26079800  1
  Mg  Mg14  1  0.50000000  0.97008300  0.54381800  1
  Mg  Mg15  1  0.00000000  0.17222000  0.49368200  1
  Mg  Mg16  1  0.00000000  0.27190100  0.59336300  1
  Mg  Mg17  1  0.50000000  0.87040300  0.44413700  1
  Mg  Mg18  1  0.50000000  0.19134400  0.42620200  1
  Mg  Mg19  1  0.00000000  0.75096000  0.41129800  1
  Mg  Mg20  1  0.00000000  0.98934500  0.47670200  1
  Mg  Mg21  1  0.50000000  0.15295900  0.56079800  1
  Mg  Mg22  1  0.00000000  0.37008300  0.44381800  1
  Mg  Mg23  1  0.50000000  0.77222000  0.59368200  1
  Mg  Mg24  1  0.50000000  0.67190100  0.49336300  1
  Mg  Mg25  1  0.00000000  0.47040300  0.54413700  1
  Mg  Mg26  1  0.00000000  0.79134400  0.52620200  1
  Mg  Mg27  1  0.50000000  0.35096000  0.51129800  1
  Mg  Mg28  1  0.50000000  0.58934500  0.57670200  1
  Mg  Mg29  1  0.00000000  0.55295900  0.46079800  1
  Mg  Mg30  1  0.50000000  0.17008300  0.74381800  1
  Mg  Mg31  1  0.00000000  0.37222000  0.69368200  1
  Mg  Mg32  1  0.00000000  0.47190100  0.79336300  1
  Mg  Mg33  1  0.50000000  0.07040300  0.64413700  1
  Mg  Mg34  1  0.50000000  0.39134400  0.62620200  1
  Mg  Mg35  1  0.00000000  0.95096000  0.61129800  1
  Mg  Mg36  1  0.00000000  0.18934500  0.67670200  1
  Mg  Mg37  1  0.50000000  0.35295900  0.76079800  1
  Mg  Mg38  1  0.00000000  0.57008300  0.64381800  1
  Mg  Mg39  1  0.50000000  0.97222000  0.79368200  1
  Mg  Mg40  1  0.50000000  0.87190100  0.69336300  1
  Mg  Mg41  1  0.00000000  0.67040300  0.74413700  1
  Mg  Mg42  1  0.00000000  0.99134400  0.72620200  1
  Mg  Mg43  1  0.50000000  0.55096000  0.71129800  1
  Mg  Mg44  1  0.50000000  0.78934500  0.77670200  1
  Mg  Mg45  1  0.00000000  0.75295900  0.66079800  1
  Au  Au46  1  0.74887800  0.17115200  0.36875000  1
  Au  Au47  1  0.25112200  0.07115200  0.26875000  1
  Au  Au48  1  0.25112200  0.17115200  0.36875000  1
  Au  Au49  1  0.74887800  0.07115200  0.26875000  1
  Au  Au50  1  0.50000000  0.07043100  0.39406700  1
  Au  Au51  1  0.00000000  0.67187200  0.24343300  1
  Au  Au52  1  0.00000000  0.77209200  0.34365200  1
  Au  Au53  1  0.50000000  0.97021200  0.29384800  1
  Au  Au54  1  0.25204300  0.85175800  0.38609900  1
  Au  Au55  1  0.75204300  0.89054600  0.25140100  1
  Au  Au56  1  0.24795700  0.89054600  0.25140100  1
  Au  Au57  1  0.74795700  0.85175800  0.38609900  1
  Au  Au58  1  0.74955100  0.05154600  0.33615200  1
  Au  Au59  1  0.24955100  0.69075800  0.30134800  1
  Au  Au60  1  0.75044900  0.69075800  0.30134800  1
  Au  Au61  1  0.25044900  0.05154600  0.33615200  1
  Au  Au62  1  0.75000000  0.87115200  0.31875000  1
  Au  Au63  1  0.25000000  0.87115200  0.31875000  1
  Au  Au64  1  0.50000000  0.79057300  0.27639500  1
  Au  Au65  1  0.00000000  0.95173100  0.36110500  1
  Au  Au66  1  0.24887800  0.57115200  0.26875000  1
  Au  Au67  1  0.75112200  0.67115200  0.36875000  1
  Au  Au68  1  0.75112200  0.57115200  0.26875000  1
  Au  Au69  1  0.24887800  0.67115200  0.36875000  1
  Au  Au70  1  0.00000000  0.47043100  0.29406700  1
  Au  Au71  1  0.50000000  0.27187200  0.34343300  1
  Au  Au72  1  0.50000000  0.17209200  0.24365200  1
  Au  Au73  1  0.00000000  0.57021200  0.39384800  1
  Au  Au74  1  0.75204300  0.25175800  0.28609900  1
  Au  Au75  1  0.25204300  0.49054600  0.35140100  1
  Au  Au76  1  0.74795700  0.49054600  0.35140100  1
  Au  Au77  1  0.24795700  0.25175800  0.28609900  1
  Au  Au78  1  0.25000000  0.37115200  0.31875000  1
  Au  Au79  1  0.75000000  0.37115200  0.31875000  1
  Au  Au80  1  0.00000000  0.39057300  0.37639500  1
  Au  Au81  1  0.50000000  0.35173100  0.26110500  1
  Au  Au82  1  0.50000000  0.58868400  0.32686700  1
  Au  Au83  1  0.00000000  0.15362000  0.31063300  1
  Au  Au84  1  0.74887800  0.37115200  0.56875000  1
  Au  Au85  1  0.25112200  0.27115200  0.46875000  1
  Au  Au86  1  0.25112200  0.37115200  0.56875000  1
  Au  Au87  1  0.74887800  0.27115200  0.46875000  1
  Au  Au88  1  0.50000000  0.27043100  0.59406700  1
  Au  Au89  1  0.00000000  0.87187200  0.44343300  1
  Au  Au90  1  0.00000000  0.97209200  0.54365200  1
  Au  Au91  1  0.50000000  0.17021200  0.49384800  1
  Au  Au92  1  0.25204300  0.05175800  0.58609900  1
  Au  Au93  1  0.75204300  0.09054600  0.45140100  1
  Au  Au94  1  0.24795700  0.09054600  0.45140100  1
  Au  Au95  1  0.74795700  0.05175800  0.58609900  1
  Au  Au96  1  0.74955100  0.25154600  0.53615200  1
  Au  Au97  1  0.24955100  0.89075800  0.50134800  1
  Au  Au98  1  0.75044900  0.89075800  0.50134800  1
  Au  Au99  1  0.25044900  0.25154600  0.53615200  1
  Au  Au100  1  0.75000000  0.07115200  0.51875000  1
  Au  Au101  1  0.25000000  0.07115200  0.51875000  1
  Au  Au102  1  0.75000000  0.97115200  0.41875000  1
  Au  Au103  1  0.25000000  0.97115200  0.41875000  1
  Au  Au104  1  0.50000000  0.99057300  0.47639500  1
  Au  Au105  1  0.00000000  0.15173100  0.56110500  1
  Au  Au106  1  0.00000000  0.18868400  0.42686700  1
  Au  Au107  1  0.50000000  0.75362000  0.41063300  1
  Au  Au108  1  0.24887800  0.77115200  0.46875000  1
  Au  Au109  1  0.75112200  0.87115200  0.56875000  1
  Au  Au110  1  0.75112200  0.77115200  0.46875000  1
  Au  Au111  1  0.24887800  0.87115200  0.56875000  1
  Au  Au112  1  0.00000000  0.67043100  0.49406700  1
  Au  Au113  1  0.50000000  0.47187200  0.54343300  1
  Au  Au114  1  0.50000000  0.37209200  0.44365200  1
  Au  Au115  1  0.00000000  0.77021200  0.59384800  1
  Au  Au116  1  0.75204300  0.45175800  0.48609900  1
  Au  Au117  1  0.25204300  0.69054600  0.55140100  1
  Au  Au118  1  0.74795700  0.69054600  0.55140100  1
  Au  Au119  1  0.24795700  0.45175800  0.48609900  1
  Au  Au120  1  0.24955100  0.65154600  0.43615200  1
  Au  Au121  1  0.74955100  0.29075800  0.40134800  1
  Au  Au122  1  0.25044900  0.29075800  0.40134800  1
  Au  Au123  1  0.75044900  0.65154600  0.43615200  1
  Au  Au124  1  0.25000000  0.47115200  0.41875000  1
  Au  Au125  1  0.75000000  0.47115200  0.41875000  1
  Au  Au126  1  0.25000000  0.57115200  0.51875000  1
  Au  Au127  1  0.75000000  0.57115200  0.51875000  1
  Au  Au128  1  0.00000000  0.59057300  0.57639500  1
  Au  Au129  1  0.50000000  0.55173100  0.46110500  1
  Au  Au130  1  0.50000000  0.78868400  0.52686700  1
  Au  Au131  1  0.00000000  0.35362000  0.51063300  1
  Au  Au132  1  0.74887800  0.57115200  0.76875000  1
  Au  Au133  1  0.25112200  0.47115200  0.66875000  1
  Au  Au134  1  0.25112200  0.57115200  0.76875000  1
  Au  Au135  1  0.74887800  0.47115200  0.66875000  1
  Au  Au136  1  0.50000000  0.47043100  0.79406700  1
  Au  Au137  1  0.00000000  0.07187200  0.64343300  1
  Au  Au138  1  0.00000000  0.17209200  0.74365200  1
  Au  Au139  1  0.50000000  0.37021200  0.69384800  1
  Au  Au140  1  0.25204300  0.25175800  0.78609900  1
  Au  Au141  1  0.75204300  0.29054600  0.65140100  1
  Au  Au142  1  0.24795700  0.29054600  0.65140100  1
  Au  Au143  1  0.74795700  0.25175800  0.78609900  1
  Au  Au144  1  0.74955100  0.45154600  0.73615200  1
  Au  Au145  1  0.24955100  0.09075800  0.70134800  1
  Au  Au146  1  0.75044900  0.09075800  0.70134800  1
  Au  Au147  1  0.25044900  0.45154600  0.73615200  1
  Au  Au148  1  0.75000000  0.27115200  0.71875000  1
  Au  Au149  1  0.25000000  0.27115200  0.71875000  1
  Au  Au150  1  0.75000000  0.17115200  0.61875000  1
  Au  Au151  1  0.25000000  0.17115200  0.61875000  1
  Au  Au152  1  0.50000000  0.19057300  0.67639500  1
  Au  Au153  1  0.00000000  0.35173100  0.76110500  1
  Au  Au154  1  0.00000000  0.38868400  0.62686700  1
  Au  Au155  1  0.50000000  0.95362000  0.61063300  1
  Au  Au156  1  0.24887800  0.97115200  0.66875000  1
  Au  Au157  1  0.75112200  0.07115200  0.76875000  1
  Au  Au158  1  0.75112200  0.97115200  0.66875000  1
  Au  Au159  1  0.24887800  0.07115200  0.76875000  1
  Au  Au160  1  0.00000000  0.87043100  0.69406700  1
  Au  Au161  1  0.50000000  0.67187200  0.74343300  1
  Au  Au162  1  0.50000000  0.57209200  0.64365200  1
  Au  Au163  1  1.00000000  0.97021200  0.79384800  1
  Au  Au164  1  0.75204300  0.65175800  0.68609900  1
  Au  Au165  1  0.25204300  0.89054600  0.75140100  1
  Au  Au166  1  0.74795700  0.89054600  0.75140100  1
  Au  Au167  1  0.24795700  0.65175800  0.68609900  1
  Au  Au168  1  0.24955100  0.85154600  0.63615200  1
  Au  Au169  1  0.74955100  0.49075800  0.60134800  1
  Au  Au170  1  0.25044900  0.49075800  0.60134800  1
  Au  Au171  1  0.75044900  0.85154600  0.63615200  1
  Au  Au172  1  0.25000000  0.67115200  0.61875000  1
  Au  Au173  1  0.75000000  0.67115200  0.61875000  1
  Au  Au174  1  0.25000000  0.77115200  0.71875000  1
  Au  Au175  1  0.75000000  0.77115200  0.71875000  1
  Au  Au176  1  0.00000000  0.79057300  0.77639500  1
  Au  Au177  1  0.50000000  0.75173100  0.66110500  1
  Au  Au178  1  0.50000000  0.98868400  0.72686700  1
  Au  Au179  1  0.00000000  0.55362000  0.71063300  1
