# generated using pymatgen
data_Mg44Ag21
_symmetry_space_group_name_H-M   'P 1'
_cell_length_a   4.71873362
_cell_length_b   11.26367700
_cell_length_c   41.59392600
_cell_angle_alpha   88.09939546
_cell_angle_beta   93.25178580
_cell_angle_gamma   77.90889136
_symmetry_Int_Tables_number   1
_chemical_formula_structural   Mg44Ag21
_chemical_formula_sum   'Mg44 Ag21'
_cell_volume   2155.90649391
_cell_formula_units_Z   1
loop_
 _symmetry_equiv_pos_site_id
 _symmetry_equiv_pos_as_xyz
  1  'x, y, z'
loop_
 _atom_site_type_symbol
 _atom_site_label
 _atom_site_symmetry_multiplicity
 _atom_site_fract_x
 _atom_site_fract_y
 _atom_site_fract_z
 _atom_site_occupancy
  Mg  Mg0  1  0.37912800  0.33286600  0.20914700  1
  Mg  Mg1  1  0.96621700  0.14780200  0.19826100  1
  Mg  Mg2  1  0.65690500  0.80508800  0.23692500  1
  Mg  Mg3  1  0.24399400  0.62002400  0.22603800  1
  Mg  Mg4  1  0.93468300  0.27731100  0.26470200  1
  Mg  Mg5  1  0.52177200  0.09224600  0.25381600  1
  Mg  Mg6  1  0.21246100  0.74953300  0.29248000  1
  Mg  Mg7  1  0.79955000  0.56446900  0.28159400  1
  Mg  Mg8  1  0.49023900  0.22175500  0.32025800  1
  Mg  Mg9  1  0.07732800  0.03669100  0.30937200  1
  Mg  Mg10  1  0.76801700  0.69397700  0.34803600  1
  Mg  Mg11  1  0.35510600  0.50891300  0.33715000  1
  Mg  Mg12  1  0.04579400  0.16619900  0.37581300  1
  Mg  Mg13  1  0.63288300  0.98113500  0.36492700  1
  Mg  Mg14  1  0.32357200  0.63842200  0.40359100  1
  Mg  Mg15  1  0.91066100  0.45335700  0.39270500  1
  Mg  Mg16  1  0.60135000  0.11064400  0.43136900  1
  Mg  Mg17  1  0.18843900  0.92558000  0.42048300  1
  Mg  Mg18  1  0.87912800  0.58286600  0.45914700  1
  Mg  Mg19  1  0.46621700  0.39780200  0.44826100  1
  Mg  Mg20  1  0.15690500  0.05508800  0.48692500  1
  Mg  Mg21  1  0.74399400  0.87002400  0.47603800  1
  Mg  Mg22  1  0.43468300  0.52731100  0.51470200  1
  Mg  Mg23  1  0.02177200  0.34224600  0.50381600  1
  Mg  Mg24  1  0.71246100  0.99953300  0.54248000  1
  Mg  Mg25  1  0.29955000  0.81446900  0.53159400  1
  Mg  Mg26  1  0.99023900  0.47175500  0.57025800  1
  Mg  Mg27  1  0.57732800  0.28669100  0.55937200  1
  Mg  Mg28  1  0.26801700  0.94397700  0.59803600  1
  Mg  Mg29  1  0.85510600  0.75891300  0.58715000  1
  Mg  Mg30  1  0.54579400  0.41619900  0.62581300  1
  Mg  Mg31  1  0.13288300  0.23113500  0.61492700  1
  Mg  Mg32  1  0.82357200  0.88842200  0.65359100  1
  Mg  Mg33  1  0.41066100  0.70335700  0.64270500  1
  Mg  Mg34  1  0.10135000  0.36064400  0.68136900  1
  Mg  Mg35  1  0.68843900  0.17558000  0.67048300  1
  Mg  Mg36  1  0.37912800  0.83286600  0.70914700  1
  Mg  Mg37  1  0.96621700  0.64780200  0.69826100  1
  Mg  Mg38  1  0.65690500  0.30508800  0.73692500  1
  Mg  Mg39  1  0.24399400  0.12002400  0.72603800  1
  Mg  Mg40  1  0.93468300  0.77731100  0.76470200  1
  Mg  Mg41  1  0.52177200  0.59224600  0.75381600  1
  Mg  Mg42  1  0.21246100  0.24953300  0.79248000  1
  Mg  Mg43  1  0.79955000  0.06446900  0.78159400  1
  Ag  Ag44  1  0.08933900  0.94866700  0.24537000  1
  Ag  Ag45  1  0.81156100  0.47644500  0.21759300  1
  Ag  Ag46  1  0.64489400  0.89311200  0.30092600  1
  Ag  Ag47  1  0.36711700  0.42089000  0.27314800  1
  Ag  Ag48  1  0.20045000  0.83755600  0.35648100  1
  Ag  Ag49  1  0.92267200  0.36533400  0.32870400  1
  Ag  Ag50  1  0.75600600  0.78200100  0.41203700  1
  Ag  Ag51  1  0.47822800  0.30977800  0.38425900  1
  Ag  Ag52  1  0.31156100  0.72644500  0.46759300  1
  Ag  Ag53  1  0.03378300  0.25422300  0.43981500  1
  Ag  Ag54  1  0.86711700  0.67089000  0.52314800  1
  Ag  Ag55  1  0.58933900  0.19866700  0.49537000  1
  Ag  Ag56  1  0.42267200  0.61533400  0.57870400  1
  Ag  Ag57  1  0.14489400  0.14311200  0.55092600  1
  Ag  Ag58  1  0.97822800  0.55977800  0.63425900  1
  Ag  Ag59  1  0.70045000  0.08755600  0.60648100  1
  Ag  Ag60  1  0.53378300  0.50422300  0.68981500  1
  Ag  Ag61  1  0.25600600  0.03200100  0.66203700  1
  Ag  Ag62  1  0.08933900  0.44866700  0.74537000  1
  Ag  Ag63  1  0.81156100  0.97644500  0.71759300  1
  Ag  Ag64  1  0.36711700  0.92089000  0.77314800  1
