# generated using pymatgen
data_MgGa
_symmetry_space_group_name_H-M   'P 1'
_cell_length_a   10.67256900
_cell_length_b   10.67256900
_cell_length_c   44.28353100
_cell_angle_alpha   90.00000000
_cell_angle_beta   90.00000000
_cell_angle_gamma   90.00000000
_symmetry_Int_Tables_number   1
_chemical_formula_structural   MgGa
_chemical_formula_sum   'Mg80 Ga80'
_cell_volume   5044.05931683
_cell_formula_units_Z   80
loop_
 _symmetry_equiv_pos_site_id
 _symmetry_equiv_pos_as_xyz
  1  'x, y, z'
loop_
 _atom_site_type_symbol
 _atom_site_label
 _atom_site_symmetry_multiplicity
 _atom_site_fract_x
 _atom_site_fract_y
 _atom_site_fract_z
 _atom_site_occupancy
  Mg  Mg0  1  0.36787600  0.57271500  0.20089200  1
  Mg  Mg1  1  0.57271500  0.63212400  0.26785800  1
  Mg  Mg2  1  0.42728500  0.36787600  0.26785800  1
  Mg  Mg3  1  0.63212400  0.42728500  0.20089200  1
  Mg  Mg4  1  0.86787600  0.57271500  0.29910800  1
  Mg  Mg5  1  0.57271500  0.13212400  0.29464200  1
  Mg  Mg6  1  0.42728500  0.86787600  0.29464200  1
  Mg  Mg7  1  0.13212400  0.42728500  0.29910800  1
  Mg  Mg8  1  0.86787600  0.07271500  0.26339200  1
  Mg  Mg9  1  0.07271500  0.13212400  0.20535800  1
  Mg  Mg10  1  0.92728500  0.86787600  0.20535800  1
  Mg  Mg11  1  0.13212400  0.92728500  0.26339200  1
  Mg  Mg12  1  0.36787600  0.07271500  0.23660800  1
  Mg  Mg13  1  0.07271500  0.63212400  0.23214200  1
  Mg  Mg14  1  0.92728500  0.36787600  0.23214200  1
  Mg  Mg15  1  0.63212400  0.92728500  0.23660800  1
  Mg  Mg16  1  0.36787600  0.57271500  0.32589200  1
  Mg  Mg17  1  0.57271500  0.63212400  0.39285800  1
  Mg  Mg18  1  0.42728500  0.36787600  0.39285800  1
  Mg  Mg19  1  0.63212400  0.42728500  0.32589200  1
  Mg  Mg20  1  0.86787600  0.57271500  0.42410800  1
  Mg  Mg21  1  0.57271500  0.13212400  0.41964200  1
  Mg  Mg22  1  0.42728500  0.86787600  0.41964200  1
  Mg  Mg23  1  0.13212400  0.42728500  0.42410800  1
  Mg  Mg24  1  0.86787600  0.07271500  0.38839200  1
  Mg  Mg25  1  0.07271500  0.13212400  0.33035800  1
  Mg  Mg26  1  0.92728500  0.86787600  0.33035800  1
  Mg  Mg27  1  0.13212400  0.92728500  0.38839200  1
  Mg  Mg28  1  0.36787600  0.07271500  0.36160800  1
  Mg  Mg29  1  0.07271500  0.63212400  0.35714200  1
  Mg  Mg30  1  0.92728500  0.36787600  0.35714200  1
  Mg  Mg31  1  0.63212400  0.92728500  0.36160800  1
  Mg  Mg32  1  0.36787600  0.57271500  0.45089200  1
  Mg  Mg33  1  0.57271500  0.63212400  0.51785800  1
  Mg  Mg34  1  0.42728500  0.36787600  0.51785800  1
  Mg  Mg35  1  0.63212400  0.42728500  0.45089200  1
  Mg  Mg36  1  0.86787600  0.57271500  0.54910800  1
  Mg  Mg37  1  0.57271500  0.13212400  0.54464200  1
  Mg  Mg38  1  0.42728500  0.86787600  0.54464200  1
  Mg  Mg39  1  0.13212400  0.42728500  0.54910800  1
  Mg  Mg40  1  0.86787600  0.07271500  0.51339200  1
  Mg  Mg41  1  0.07271500  0.13212400  0.45535800  1
  Mg  Mg42  1  0.92728500  0.86787600  0.45535800  1
  Mg  Mg43  1  0.13212400  0.92728500  0.51339200  1
  Mg  Mg44  1  0.36787600  0.07271500  0.48660800  1
  Mg  Mg45  1  0.07271500  0.63212400  0.48214200  1
  Mg  Mg46  1  0.92728500  0.36787600  0.48214200  1
  Mg  Mg47  1  0.63212400  0.92728500  0.48660800  1
  Mg  Mg48  1  0.36787600  0.57271500  0.57589200  1
  Mg  Mg49  1  0.57271500  0.63212400  0.64285800  1
  Mg  Mg50  1  0.42728500  0.36787600  0.64285800  1
  Mg  Mg51  1  0.63212400  0.42728500  0.57589200  1
  Mg  Mg52  1  0.86787600  0.57271500  0.67410800  1
  Mg  Mg53  1  0.57271500  0.13212400  0.66964200  1
  Mg  Mg54  1  0.42728500  0.86787600  0.66964200  1
  Mg  Mg55  1  0.13212400  0.42728500  0.67410800  1
  Mg  Mg56  1  0.86787600  0.07271500  0.63839200  1
  Mg  Mg57  1  0.07271500  0.13212400  0.58035800  1
  Mg  Mg58  1  0.92728500  0.86787600  0.58035800  1
  Mg  Mg59  1  0.13212400  0.92728500  0.63839200  1
  Mg  Mg60  1  0.36787600  0.07271500  0.61160800  1
  Mg  Mg61  1  0.07271500  0.63212400  0.60714200  1
  Mg  Mg62  1  0.92728500  0.36787600  0.60714200  1
  Mg  Mg63  1  0.63212400  0.92728500  0.61160800  1
  Mg  Mg64  1  0.36787600  0.57271500  0.70089200  1
  Mg  Mg65  1  0.57271500  0.63212400  0.76785800  1
  Mg  Mg66  1  0.42728500  0.36787600  0.76785800  1
  Mg  Mg67  1  0.63212400  0.42728500  0.70089200  1
  Mg  Mg68  1  0.86787600  0.57271500  0.79910800  1
  Mg  Mg69  1  0.57271500  0.13212400  0.79464200  1
  Mg  Mg70  1  0.42728500  0.86787600  0.79464200  1
  Mg  Mg71  1  0.13212400  0.42728500  0.79910800  1
  Mg  Mg72  1  0.86787600  0.07271500  0.76339200  1
  Mg  Mg73  1  0.07271500  0.13212400  0.70535800  1
  Mg  Mg74  1  0.92728500  0.86787600  0.70535800  1
  Mg  Mg75  1  0.13212400  0.92728500  0.76339200  1
  Mg  Mg76  1  0.36787600  0.07271500  0.73660800  1
  Mg  Mg77  1  0.07271500  0.63212400  0.73214200  1
  Mg  Mg78  1  0.92728500  0.36787600  0.73214200  1
  Mg  Mg79  1  0.63212400  0.92728500  0.73660800  1
  Ga  Ga80  1  0.19874100  0.39299600  0.23510100  1
  Ga  Ga81  1  0.60700400  0.69874100  0.20385100  1
  Ga  Ga82  1  0.39299600  0.30125900  0.20385100  1
  Ga  Ga83  1  0.80125900  0.60700400  0.23510100  1
  Ga  Ga84  1  0.69874100  0.39299600  0.26489900  1
  Ga  Ga85  1  0.60700400  0.19874100  0.23364900  1
  Ga  Ga86  1  0.39299600  0.80125900  0.23364900  1
  Ga  Ga87  1  0.30125900  0.60700400  0.26489900  1
  Ga  Ga88  1  0.69874100  0.89299600  0.29760100  1
  Ga  Ga89  1  0.10700400  0.19874100  0.26635100  1
  Ga  Ga90  1  0.89299600  0.80125900  0.26635100  1
  Ga  Ga91  1  0.30125900  0.10700400  0.29760100  1
  Ga  Ga92  1  0.19874100  0.89299600  0.20239900  1
  Ga  Ga93  1  0.10700400  0.69874100  0.29614900  1
  Ga  Ga94  1  0.89299600  0.30125900  0.29614900  1
  Ga  Ga95  1  0.80125900  0.10700400  0.20239900  1
  Ga  Ga96  1  0.19874100  0.39299600  0.36010100  1
  Ga  Ga97  1  0.60700400  0.69874100  0.32885100  1
  Ga  Ga98  1  0.39299600  0.30125900  0.32885100  1
  Ga  Ga99  1  0.80125900  0.60700400  0.36010100  1
  Ga  Ga100  1  0.69874100  0.39299600  0.38989900  1
  Ga  Ga101  1  0.60700400  0.19874100  0.35864900  1
  Ga  Ga102  1  0.39299600  0.80125900  0.35864900  1
  Ga  Ga103  1  0.30125900  0.60700400  0.38989900  1
  Ga  Ga104  1  0.69874100  0.89299600  0.42260100  1
  Ga  Ga105  1  0.10700400  0.19874100  0.39135100  1
  Ga  Ga106  1  0.89299600  0.80125900  0.39135100  1
  Ga  Ga107  1  0.30125900  0.10700400  0.42260100  1
  Ga  Ga108  1  0.19874100  0.89299600  0.32739900  1
  Ga  Ga109  1  0.10700400  0.69874100  0.42114900  1
  Ga  Ga110  1  0.89299600  0.30125900  0.42114900  1
  Ga  Ga111  1  0.80125900  0.10700400  0.32739900  1
  Ga  Ga112  1  0.19874100  0.39299600  0.48510100  1
  Ga  Ga113  1  0.60700400  0.69874100  0.45385100  1
  Ga  Ga114  1  0.39299600  0.30125900  0.45385100  1
  Ga  Ga115  1  0.80125900  0.60700400  0.48510100  1
  Ga  Ga116  1  0.69874100  0.39299600  0.51489900  1
  Ga  Ga117  1  0.60700400  0.19874100  0.48364900  1
  Ga  Ga118  1  0.39299600  0.80125900  0.48364900  1
  Ga  Ga119  1  0.30125900  0.60700400  0.51489900  1
  Ga  Ga120  1  0.69874100  0.89299600  0.54760100  1
  Ga  Ga121  1  0.10700400  0.19874100  0.51635100  1
  Ga  Ga122  1  0.89299600  0.80125900  0.51635100  1
  Ga  Ga123  1  0.30125900  0.10700400  0.54760100  1
  Ga  Ga124  1  0.19874100  0.89299600  0.45239900  1
  Ga  Ga125  1  0.10700400  0.69874100  0.54614900  1
  Ga  Ga126  1  0.89299600  0.30125900  0.54614900  1
  Ga  Ga127  1  0.80125900  0.10700400  0.45239900  1
  Ga  Ga128  1  0.19874100  0.39299600  0.61010100  1
  Ga  Ga129  1  0.60700400  0.69874100  0.57885100  1
  Ga  Ga130  1  0.39299600  0.30125900  0.57885100  1
  Ga  Ga131  1  0.80125900  0.60700400  0.61010100  1
  Ga  Ga132  1  0.69874100  0.39299600  0.63989900  1
  Ga  Ga133  1  0.60700400  0.19874100  0.60864900  1
  Ga  Ga134  1  0.39299600  0.80125900  0.60864900  1
  Ga  Ga135  1  0.30125900  0.60700400  0.63989900  1
  Ga  Ga136  1  0.69874100  0.89299600  0.67260100  1
  Ga  Ga137  1  0.10700400  0.19874100  0.64135100  1
  Ga  Ga138  1  0.89299600  0.80125900  0.64135100  1
  Ga  Ga139  1  0.30125900  0.10700400  0.67260100  1
  Ga  Ga140  1  0.19874100  0.89299600  0.57739900  1
  Ga  Ga141  1  0.10700400  0.69874100  0.67114900  1
  Ga  Ga142  1  0.89299600  0.30125900  0.67114900  1
  Ga  Ga143  1  0.80125900  0.10700400  0.57739900  1
  Ga  Ga144  1  0.19874100  0.39299600  0.73510100  1
  Ga  Ga145  1  0.60700400  0.69874100  0.70385100  1
  Ga  Ga146  1  0.39299600  0.30125900  0.70385100  1
  Ga  Ga147  1  0.80125900  0.60700400  0.73510100  1
  Ga  Ga148  1  0.69874100  0.39299600  0.76489900  1
  Ga  Ga149  1  0.60700400  0.19874100  0.73364900  1
  Ga  Ga150  1  0.39299600  0.80125900  0.73364900  1
  Ga  Ga151  1  0.30125900  0.60700400  0.76489900  1
  Ga  Ga152  1  0.69874100  0.89299600  0.79760100  1
  Ga  Ga153  1  0.10700400  0.19874100  0.76635100  1
  Ga  Ga154  1  0.89299600  0.80125900  0.76635100  1
  Ga  Ga155  1  0.30125900  0.10700400  0.79760100  1
  Ga  Ga156  1  0.19874100  0.89299600  0.70239900  1
  Ga  Ga157  1  0.10700400  0.69874100  0.79614900  1
  Ga  Ga158  1  0.89299600  0.30125900  0.79614900  1
  Ga  Ga159  1  0.80125900  0.10700400  0.70239900  1
