# generated using pymatgen
data_Er2Mg
_symmetry_space_group_name_H-M   'P 1'
_cell_length_a   5.42669900
_cell_length_b   17.02029400
_cell_length_c   43.80839800
_cell_angle_alpha   90.00000000
_cell_angle_beta   90.00000000
_cell_angle_gamma   90.00000000
_symmetry_Int_Tables_number   1
_chemical_formula_structural   Er2Mg
_chemical_formula_sum   'Er56 Mg28'
_cell_volume   4046.31941739
_cell_formula_units_Z   28
loop_
 _symmetry_equiv_pos_site_id
 _symmetry_equiv_pos_as_xyz
  1  'x, y, z'
loop_
 _atom_site_type_symbol
 _atom_site_label
 _atom_site_symmetry_multiplicity
 _atom_site_fract_x
 _atom_site_fract_y
 _atom_site_fract_z
 _atom_site_occupancy
  Er  Er0  1  0.75000000  0.90585200  0.22916700  1
  Er  Er1  1  0.75000000  0.72693300  0.27083300  1
  Er  Er2  1  0.25000000  0.59414800  0.27083300  1
  Er  Er3  1  0.25000000  0.77306700  0.22916700  1
  Er  Er4  1  0.75000000  0.40585200  0.27083300  1
  Er  Er5  1  0.75000000  0.22693300  0.22916700  1
  Er  Er6  1  0.25000000  0.09414800  0.22916700  1
  Er  Er7  1  0.25000000  0.27306700  0.27083300  1
  Er  Er8  1  0.75000000  0.90585200  0.31250000  1
  Er  Er9  1  0.75000000  0.72693300  0.35416700  1
  Er  Er10  1  0.25000000  0.59414800  0.35416700  1
  Er  Er11  1  0.25000000  0.77306700  0.31250000  1
  Er  Er12  1  0.75000000  0.40585200  0.35416700  1
  Er  Er13  1  0.75000000  0.22693300  0.31250000  1
  Er  Er14  1  0.25000000  0.09414800  0.31250000  1
  Er  Er15  1  0.25000000  0.27306700  0.35416700  1
  Er  Er16  1  0.75000000  0.90585200  0.39583300  1
  Er  Er17  1  0.75000000  0.72693300  0.43750000  1
  Er  Er18  1  0.25000000  0.59414800  0.43750000  1
  Er  Er19  1  0.25000000  0.77306700  0.39583300  1
  Er  Er20  1  0.75000000  0.40585200  0.43750000  1
  Er  Er21  1  0.75000000  0.22693300  0.39583300  1
  Er  Er22  1  0.25000000  0.09414800  0.39583300  1
  Er  Er23  1  0.25000000  0.27306700  0.43750000  1
  Er  Er24  1  0.75000000  0.90585200  0.47916700  1
  Er  Er25  1  0.75000000  0.72693300  0.52083300  1
  Er  Er26  1  0.25000000  0.59414800  0.52083300  1
  Er  Er27  1  0.25000000  0.77306700  0.47916700  1
  Er  Er28  1  0.75000000  0.40585200  0.52083300  1
  Er  Er29  1  0.75000000  0.22693300  0.47916700  1
  Er  Er30  1  0.25000000  0.09414800  0.47916700  1
  Er  Er31  1  0.25000000  0.27306700  0.52083300  1
  Er  Er32  1  0.75000000  0.90585200  0.56250000  1
  Er  Er33  1  0.75000000  0.72693300  0.60416700  1
  Er  Er34  1  0.25000000  0.59414800  0.60416700  1
  Er  Er35  1  0.25000000  0.77306700  0.56250000  1
  Er  Er36  1  0.75000000  0.40585200  0.60416700  1
  Er  Er37  1  0.75000000  0.22693300  0.56250000  1
  Er  Er38  1  0.25000000  0.09414800  0.56250000  1
  Er  Er39  1  0.25000000  0.27306700  0.60416700  1
  Er  Er40  1  0.75000000  0.90585200  0.64583300  1
  Er  Er41  1  0.75000000  0.72693300  0.68750000  1
  Er  Er42  1  0.25000000  0.59414800  0.68750000  1
  Er  Er43  1  0.25000000  0.77306700  0.64583300  1
  Er  Er44  1  0.75000000  0.40585200  0.68750000  1
  Er  Er45  1  0.75000000  0.22693300  0.64583300  1
  Er  Er46  1  0.25000000  0.09414800  0.64583300  1
  Er  Er47  1  0.25000000  0.27306700  0.68750000  1
  Er  Er48  1  0.75000000  0.90585200  0.72916700  1
  Er  Er49  1  0.75000000  0.72693300  0.77083300  1
  Er  Er50  1  0.25000000  0.59414800  0.77083300  1
  Er  Er51  1  0.25000000  0.77306700  0.72916700  1
  Er  Er52  1  0.75000000  0.40585200  0.77083300  1
  Er  Er53  1  0.75000000  0.22693300  0.72916700  1
  Er  Er54  1  0.25000000  0.09414800  0.72916700  1
  Er  Er55  1  0.25000000  0.27306700  0.77083300  1
  Mg  Mg56  1  0.75000000  0.56552300  0.22916700  1
  Mg  Mg57  1  0.25000000  0.93447700  0.27083300  1
  Mg  Mg58  1  0.75000000  0.06552300  0.27083300  1
  Mg  Mg59  1  0.25000000  0.43447700  0.22916700  1
  Mg  Mg60  1  0.75000000  0.56552300  0.31250000  1
  Mg  Mg61  1  0.25000000  0.93447700  0.35416700  1
  Mg  Mg62  1  0.75000000  0.06552300  0.35416700  1
  Mg  Mg63  1  0.25000000  0.43447700  0.31250000  1
  Mg  Mg64  1  0.75000000  0.56552300  0.39583300  1
  Mg  Mg65  1  0.25000000  0.93447700  0.43750000  1
  Mg  Mg66  1  0.75000000  0.06552300  0.43750000  1
  Mg  Mg67  1  0.25000000  0.43447700  0.39583300  1
  Mg  Mg68  1  0.75000000  0.56552300  0.47916700  1
  Mg  Mg69  1  0.25000000  0.93447700  0.52083300  1
  Mg  Mg70  1  0.75000000  0.06552300  0.52083300  1
  Mg  Mg71  1  0.25000000  0.43447700  0.47916700  1
  Mg  Mg72  1  0.75000000  0.56552300  0.56250000  1
  Mg  Mg73  1  0.25000000  0.93447700  0.60416700  1
  Mg  Mg74  1  0.75000000  0.06552300  0.60416700  1
  Mg  Mg75  1  0.25000000  0.43447700  0.56250000  1
  Mg  Mg76  1  0.75000000  0.56552300  0.64583300  1
  Mg  Mg77  1  0.25000000  0.93447700  0.68750000  1
  Mg  Mg78  1  0.75000000  0.06552300  0.68750000  1
  Mg  Mg79  1  0.25000000  0.43447700  0.64583300  1
  Mg  Mg80  1  0.75000000  0.56552300  0.72916700  1
  Mg  Mg81  1  0.25000000  0.93447700  0.77083300  1
  Mg  Mg82  1  0.75000000  0.06552300  0.77083300  1
  Mg  Mg83  1  0.25000000  0.43447700  0.72916700  1
