# generated using pymatgen
data_Mg7B46
_symmetry_space_group_name_H-M   'P 1'
_cell_length_a   5.97250318
_cell_length_b   7.26364858
_cell_length_c   45.01062000
_cell_angle_alpha   86.50256948
_cell_angle_beta   86.19588580
_cell_angle_gamma   65.72461627
_symmetry_Int_Tables_number   1
_chemical_formula_structural   Mg7B46
_chemical_formula_sum   'Mg14 B92'
_cell_volume   1774.86073170
_cell_formula_units_Z   2
loop_
 _symmetry_equiv_pos_site_id
 _symmetry_equiv_pos_as_xyz
  1  'x, y, z'
loop_
 _atom_site_type_symbol
 _atom_site_label
 _atom_site_symmetry_multiplicity
 _atom_site_fract_x
 _atom_site_fract_y
 _atom_site_fract_z
 _atom_site_occupancy
  Mg  Mg0  1  0.07279800  0.17284600  0.68155800  1
  Mg  Mg1  1  0.67107200  0.00905600  0.64879900  1
  Mg  Mg2  1  0.58622100  0.73380800  0.59375000  1
  Mg  Mg3  1  0.08622100  0.73380800  0.59375000  1
  Mg  Mg4  1  0.50136900  0.45856100  0.53870100  1
  Mg  Mg5  1  0.09964400  0.29477000  0.50594200  1
  Mg  Mg6  1  0.01479200  0.01952200  0.45089300  1
  Mg  Mg7  1  0.51479200  0.01952200  0.45089300  1
  Mg  Mg8  1  0.92994100  0.74427500  0.39584300  1
  Mg  Mg9  1  0.52821500  0.58048400  0.36308500  1
  Mg  Mg10  1  0.44336400  0.30523700  0.30803600  1
  Mg  Mg11  1  0.94336400  0.30523700  0.30803600  1
  Mg  Mg12  1  0.35851200  0.02998900  0.25298600  1
  Mg  Mg13  1  0.95678700  0.86619900  0.22022800  1
  B  B14  1  0.15063500  0.52282200  0.68268700  1
  B  B15  1  0.64385600  0.52282200  0.68268700  1
  B  B16  1  0.32278100  0.39239500  0.65092500  1
  B  B17  1  0.63389800  0.39239500  0.65092500  1
  B  B18  1  0.10997200  0.78950700  0.67943200  1
  B  B19  1  0.42108900  0.78950700  0.67943200  1
  B  B20  1  0.10001400  0.65908000  0.64767100  1
  B  B21  1  0.59323600  0.65908000  0.64767100  1
  B  B22  1  0.33139600  0.77834900  0.55885900  1
  B  B23  1  0.57920600  0.80853700  0.53982900  1
  B  B24  1  0.07242800  0.80853700  0.53982900  1
  B  B25  1  0.40048300  0.57080300  0.62823000  1
  B  B26  1  0.90589000  0.64564800  0.54257100  1
  B  B27  1  0.75135300  0.67810900  0.50806800  1
  B  B28  1  0.06246900  0.67810900  0.50806800  1
  B  B29  1  0.96361900  0.46557700  0.60718500  1
  B  B30  1  0.45653700  0.49678200  0.59014400  1
  B  B31  1  0.00173900  0.42998900  0.56653300  1
  B  B32  1  0.77596700  0.36582500  0.58902000  1
  B  B33  1  0.26918900  0.36582500  0.58902000  1
  B  B34  1  0.89699500  0.26870500  0.62618700  1
  B  B35  1  0.20811200  0.26870500  0.62618700  1
  B  B36  1  0.96433000  0.19891100  0.56131300  1
  B  B37  1  0.27544600  0.19891100  0.56131300  1
  B  B38  1  0.90325300  0.10179200  0.59848000  1
  B  B39  1  0.39647500  0.10179200  0.59848000  1
  B  B40  1  0.17070300  0.03762800  0.62096700  1
  B  B41  1  0.71590500  0.97083400  0.59735600  1
  B  B42  1  0.20882300  0.00204000  0.58031500  1
  B  B43  1  0.53854400  0.07522100  0.53657500  1
  B  B44  1  0.84966000  0.07522100  0.53657500  1
  B  B45  1  0.26655100  0.82196800  0.64492900  1
  B  B46  1  0.77195900  0.89681300  0.55927000  1
  B  B47  1  0.52858500  0.94479400  0.50481300  1
  B  B48  1  0.02180700  0.94479400  0.50481300  1
  B  B49  1  0.84104600  0.68926700  0.62864100  1
  B  B50  1  0.75996800  0.06406300  0.41600200  1
  B  B51  1  0.00777700  0.09425100  0.39697200  1
  B  B52  1  0.50099900  0.09425100  0.39697200  1
  B  B53  1  0.82905500  0.85651700  0.48537300  1
  B  B54  1  0.33446200  0.93136300  0.39971400  1
  B  B55  1  0.17992400  0.96382400  0.36521100  1
  B  B56  1  0.49104100  0.96382400  0.36521100  1
  B  B57  1  0.39219100  0.75129100  0.46432800  1
  B  B58  1  0.88510800  0.78249600  0.44728700  1
  B  B59  1  0.43031100  0.71570300  0.42367600  1
  B  B60  1  0.20453800  0.65153900  0.44616200  1
  B  B61  1  0.69776000  0.65153900  0.44616200  1
  B  B62  1  0.32556700  0.55441900  0.48333000  1
  B  B63  1  0.63668400  0.55441900  0.48333000  1
  B  B64  1  0.39290100  0.48462600  0.41845500  1
  B  B65  1  0.70401800  0.48462600  0.41845500  1
  B  B66  1  0.33182400  0.38750600  0.45562300  1
  B  B67  1  0.82504600  0.38750600  0.45562300  1
  B  B68  1  0.59927400  0.32334200  0.47811000  1
  B  B69  1  0.14447600  0.25654900  0.45449900  1
  B  B70  1  0.63739400  0.28775400  0.43745800  1
  B  B71  1  0.96711500  0.36093600  0.39371700  1
  B  B72  1  0.27823200  0.36093600  0.39371700  1
  B  B73  1  0.69512300  0.10768200  0.50207200  1
  B  B74  1  0.20053000  0.18252700  0.41641300  1
  B  B75  1  0.95715700  0.23050800  0.36195600  1
  B  B76  1  0.45037900  0.23050800  0.36195600  1
  B  B77  1  0.26961700  0.97498200  0.48578400  1
  B  B78  1  0.18853900  0.34977700  0.27314500  1
  B  B79  1  0.43634900  0.37996500  0.25411500  1
  B  B80  1  0.92957100  0.37996500  0.25411500  1
  B  B81  1  0.25762600  0.14223200  0.34251600  1
  B  B82  1  0.76303300  0.21707700  0.25685700  1
  B  B83  1  0.60849600  0.24953800  0.22235400  1
  B  B84  1  0.91961200  0.24953800  0.22235400  1
  B  B85  1  0.82076200  0.03700500  0.32147100  1
  B  B86  1  0.31368000  0.06821000  0.30443000  1
  B  B87  1  0.85888200  0.00141700  0.28081900  1
  B  B88  1  0.63311000  0.93725300  0.30330500  1
  B  B89  1  0.12633200  0.93725300  0.30330500  1
  B  B90  1  0.75413800  0.84013300  0.34047300  1
  B  B91  1  0.06525500  0.84013300  0.34047300  1
  B  B92  1  0.82147300  0.77034000  0.27559800  1
  B  B93  1  0.13258900  0.77034000  0.27559800  1
  B  B94  1  0.76039600  0.67322000  0.31276600  1
  B  B95  1  0.25361800  0.67322000  0.31276600  1
  B  B96  1  0.02784600  0.60905600  0.33525300  1
  B  B97  1  0.57304800  0.54226300  0.31164200  1
  B  B98  1  0.06596500  0.57346800  0.29460100  1
  B  B99  1  0.39568700  0.64665000  0.25086000  1
  B  B100  1  0.70680300  0.64665000  0.25086000  1
  B  B101  1  0.12369400  0.39339700  0.35921500  1
  B  B102  1  0.62910100  0.46824200  0.27355500  1
  B  B103  1  0.38572800  0.51622200  0.21909900  1
  B  B104  1  0.87895000  0.51622200  0.21909900  1
  B  B105  1  0.69818900  0.26069600  0.34292700  1
