# generated using pymatgen
data_Mg83Rh36
_symmetry_space_group_name_H-M   'P 1'
_cell_length_a   8.64031900
_cell_length_b   11.79877622
_cell_length_c   43.91762100
_cell_angle_alpha   86.20917344
_cell_angle_beta   90.00000000
_cell_angle_gamma   68.52142843
_symmetry_Int_Tables_number   1
_chemical_formula_structural   Mg83Rh36
_chemical_formula_sum   'Mg83 Rh36'
_cell_volume   4155.74122190
_cell_formula_units_Z   1
loop_
 _symmetry_equiv_pos_site_id
 _symmetry_equiv_pos_as_xyz
  1  'x, y, z'
loop_
 _atom_site_type_symbol
 _atom_site_label
 _atom_site_symmetry_multiplicity
 _atom_site_fract_x
 _atom_site_fract_y
 _atom_site_fract_z
 _atom_site_occupancy
  Mg  Mg0  1  0.96284600  0.07430800  0.20312500  1
  Mg  Mg1  1  0.83784600  0.32430800  0.26562500  1
  Mg  Mg2  1  0.38023000  0.23954100  0.22431700  1
  Mg  Mg3  1  0.82993800  0.71942400  0.22934600  1
  Mg  Mg4  1  0.45063800  0.71942400  0.22934600  1
  Mg  Mg5  1  0.22505500  0.92919100  0.30190400  1
  Mg  Mg6  1  0.84575400  0.92919100  0.30190400  1
  Mg  Mg7  1  0.29546300  0.40907400  0.30693300  1
  Mg  Mg8  1  0.07462500  0.85075100  0.24288500  1
  Mg  Mg9  1  0.18874800  0.19640000  0.28147300  1
  Mg  Mg10  1  0.61485200  0.19640000  0.28147300  1
  Mg  Mg11  1  0.96809900  0.63769900  0.29614800  1
  Mg  Mg12  1  0.39420200  0.63769900  0.29614800  1
  Mg  Mg13  1  0.60106800  0.79786400  0.28836500  1
  Mg  Mg14  1  0.28149000  0.01091600  0.23510200  1
  Mg  Mg15  1  0.75832600  0.48334800  0.20973600  1
  Mg  Mg16  1  0.70759400  0.01091600  0.23510200  1
  Mg  Mg17  1  0.06084100  0.45221500  0.24977700  1
  Mg  Mg18  1  0.16736700  0.66526700  0.19651400  1
  Mg  Mg19  1  0.48694400  0.45221500  0.24977700  1
  Mg  Mg20  1  0.71284600  0.57430800  0.32812500  1
  Mg  Mg21  1  0.58784600  0.82430800  0.39062500  1
  Mg  Mg22  1  0.13023000  0.73954100  0.34931700  1
  Mg  Mg23  1  0.57993800  0.21942400  0.35434600  1
  Mg  Mg24  1  0.20063800  0.21942400  0.35434600  1
  Mg  Mg25  1  0.97505500  0.42919100  0.42690400  1
  Mg  Mg26  1  0.59575400  0.42919100  0.42690400  1
  Mg  Mg27  1  0.04546300  0.90907400  0.43193300  1
  Mg  Mg28  1  0.82462500  0.35075100  0.36788500  1
  Mg  Mg29  1  0.93874800  0.69640000  0.40647300  1
  Mg  Mg30  1  0.36485200  0.69640000  0.40647300  1
  Mg  Mg31  1  0.71809900  0.13769900  0.42114800  1
  Mg  Mg32  1  0.14420200  0.13769900  0.42114800  1
  Mg  Mg33  1  0.35106800  0.29786400  0.41336500  1
  Mg  Mg34  1  0.03149000  0.51091600  0.36010200  1
  Mg  Mg35  1  0.50832600  0.98334800  0.33473600  1
  Mg  Mg36  1  0.45759400  0.51091600  0.36010200  1
  Mg  Mg37  1  0.81084100  0.95221500  0.37477700  1
  Mg  Mg38  1  0.91736700  0.16526700  0.32151400  1
  Mg  Mg39  1  0.23694400  0.95221500  0.37477700  1
  Mg  Mg40  1  0.46284600  0.07430800  0.45312500  1
  Mg  Mg41  1  0.33784600  0.32430800  0.51562500  1
  Mg  Mg42  1  0.88023000  0.23954100  0.47431700  1
  Mg  Mg43  1  0.32993800  0.71942400  0.47934600  1
  Mg  Mg44  1  0.95063800  0.71942400  0.47934600  1
  Mg  Mg45  1  0.72505500  0.92919100  0.55190400  1
  Mg  Mg46  1  0.34575400  0.92919100  0.55190400  1
  Mg  Mg47  1  0.79546300  0.40907400  0.55693300  1
  Mg  Mg48  1  0.57462500  0.85075100  0.49288500  1
  Mg  Mg49  1  0.68874800  0.19640000  0.53147300  1
  Mg  Mg50  1  0.11485200  0.19640000  0.53147300  1
  Mg  Mg51  1  0.46809900  0.63769900  0.54614800  1
  Mg  Mg52  1  0.89420200  0.63769900  0.54614800  1
  Mg  Mg53  1  0.10106800  0.79786400  0.53836500  1
  Mg  Mg54  1  0.78149000  0.01091600  0.48510200  1
  Mg  Mg55  1  0.25832600  0.48334800  0.45973600  1
  Mg  Mg56  1  0.20759400  0.01091600  0.48510200  1
  Mg  Mg57  1  0.56084100  0.45221500  0.49977700  1
  Mg  Mg58  1  0.66736700  0.66526700  0.44651400  1
  Mg  Mg59  1  0.98694400  0.45221500  0.49977700  1
  Mg  Mg60  1  0.21284600  0.57430800  0.57812500  1
  Mg  Mg61  1  0.08784600  0.82430800  0.64062500  1
  Mg  Mg62  1  0.63023000  0.73954100  0.59931700  1
  Mg  Mg63  1  0.07993800  0.21942400  0.60434600  1
  Mg  Mg64  1  0.70063800  0.21942400  0.60434600  1
  Mg  Mg65  1  0.47505500  0.42919100  0.67690400  1
  Mg  Mg66  1  0.09575400  0.42919100  0.67690400  1
  Mg  Mg67  1  0.54546300  0.90907400  0.68193300  1
  Mg  Mg68  1  0.32462500  0.35075100  0.61788500  1
  Mg  Mg69  1  0.43874800  0.69640000  0.65647300  1
  Mg  Mg70  1  0.86485200  0.69640000  0.65647300  1
  Mg  Mg71  1  0.21809900  0.13769900  0.67114800  1
  Mg  Mg72  1  0.64420200  0.13769900  0.67114800  1
  Mg  Mg73  1  0.85106800  0.29786400  0.66336500  1
  Mg  Mg74  1  0.53149000  0.51091600  0.61010200  1
  Mg  Mg75  1  0.00832600  0.98334800  0.58473600  1
  Mg  Mg76  1  0.95759400  0.51091600  0.61010200  1
  Mg  Mg77  1  0.31084100  0.95221500  0.62477700  1
  Mg  Mg78  1  0.41736700  0.16526700  0.57151400  1
  Mg  Mg79  1  0.73694400  0.95221500  0.62477700  1
  Mg  Mg80  1  0.96284600  0.07430800  0.70312500  1
  Mg  Mg81  1  0.75832600  0.48334800  0.70973600  1
  Mg  Mg82  1  0.16736700  0.66526700  0.69651400  1
  Rh  Rh83  1  0.19201300  0.61597400  0.25520800  1
  Rh  Rh84  1  0.48368000  0.03264100  0.27604200  1
  Rh  Rh85  1  0.96149800  0.07700400  0.26495100  1
  Rh  Rh86  1  0.23937700  0.88815600  0.18716300  1
  Rh  Rh87  1  0.87246700  0.88815600  0.18716300  1
  Rh  Rh88  1  0.05322600  0.26045900  0.21908700  1
  Rh  Rh89  1  0.68631500  0.26045900  0.21908700  1
  Rh  Rh90  1  0.71419400  0.57161100  0.26629900  1
  Rh  Rh91  1  0.94201300  0.11597400  0.38020800  1
  Rh  Rh92  1  0.23368000  0.53264100  0.40104200  1
  Rh  Rh93  1  0.71149800  0.57700400  0.38995100  1
  Rh  Rh94  1  0.98937700  0.38815600  0.31216300  1
  Rh  Rh95  1  0.62246700  0.38815600  0.31216300  1
  Rh  Rh96  1  0.80322600  0.76045900  0.34408700  1
  Rh  Rh97  1  0.43631500  0.76045900  0.34408700  1
  Rh  Rh98  1  0.46419400  0.07161100  0.39129900  1
  Rh  Rh99  1  0.69201300  0.61597400  0.50520800  1
  Rh  Rh100  1  0.98368000  0.03264100  0.52604200  1
  Rh  Rh101  1  0.46149800  0.07700400  0.51495100  1
  Rh  Rh102  1  0.73937700  0.88815600  0.43716300  1
  Rh  Rh103  1  0.37246700  0.88815600  0.43716300  1
  Rh  Rh104  1  0.55322600  0.26045900  0.46908700  1
  Rh  Rh105  1  0.18631500  0.26045900  0.46908700  1
  Rh  Rh106  1  0.21419400  0.57161100  0.51629900  1
  Rh  Rh107  1  0.44201300  0.11597400  0.63020800  1
  Rh  Rh108  1  0.73368000  0.53264100  0.65104200  1
  Rh  Rh109  1  0.21149800  0.57700400  0.63995100  1
  Rh  Rh110  1  0.48937700  0.38815600  0.56216300  1
  Rh  Rh111  1  0.12246700  0.38815600  0.56216300  1
  Rh  Rh112  1  0.30322600  0.76045900  0.59408700  1
  Rh  Rh113  1  0.93631500  0.76045900  0.59408700  1
  Rh  Rh114  1  0.96419400  0.07161100  0.64129900  1
  Rh  Rh115  1  0.23937700  0.88815600  0.68716300  1
  Rh  Rh116  1  0.87246700  0.88815600  0.68716300  1
  Rh  Rh117  1  0.05322600  0.26045900  0.71908700  1
  Rh  Rh118  1  0.68631500  0.26045900  0.71908700  1
