# generated using pymatgen
data_Sr5Mg41
_symmetry_space_group_name_H-M   'P 1'
_cell_length_a   10.60291304
_cell_length_b   10.12691700
_cell_length_c   46.21702700
_cell_angle_alpha   90.00000000
_cell_angle_beta   96.58677806
_cell_angle_gamma   90.00000000
_symmetry_Int_Tables_number   1
_chemical_formula_structural   Sr5Mg41
_chemical_formula_sum   'Sr10 Mg82'
_cell_volume   4929.78851558
_cell_formula_units_Z   2
loop_
 _symmetry_equiv_pos_site_id
 _symmetry_equiv_pos_as_xyz
  1  'x, y, z'
loop_
 _atom_site_type_symbol
 _atom_site_label
 _atom_site_symmetry_multiplicity
 _atom_site_fract_x
 _atom_site_fract_y
 _atom_site_fract_z
 _atom_site_occupancy
  Sr  Sr0  1  0.69879200  0.25000000  0.35789500  1
  Sr  Sr1  1  0.69879200  0.75000000  0.35789500  1
  Sr  Sr2  1  0.23212500  0.75000000  0.42456100  1
  Sr  Sr3  1  0.76545900  0.25000000  0.49122800  1
  Sr  Sr4  1  0.29879200  0.25000000  0.55789500  1
  Sr  Sr5  1  0.29879200  0.75000000  0.55789500  1
  Sr  Sr6  1  0.83212500  0.75000000  0.62456100  1
  Sr  Sr7  1  0.36545900  0.25000000  0.69122800  1
  Sr  Sr8  1  0.89879200  0.25000000  0.75789500  1
  Sr  Sr9  1  0.89879200  0.75000000  0.75789500  1
  Mg  Mg10  1  0.92930700  0.02155600  0.32496400  1
  Mg  Mg11  1  0.43534700  0.02155600  0.32496400  1
  Mg  Mg12  1  0.96223700  0.52155600  0.39082500  1
  Mg  Mg13  1  0.19879200  0.50000000  0.35789500  1
  Mg  Mg14  1  0.19879200  0.00000000  0.35789500  1
  Mg  Mg15  1  0.34806900  0.75000000  0.35048800  1
  Mg  Mg16  1  0.35547600  0.25000000  0.36530200  1
  Mg  Mg17  1  0.04951500  0.25000000  0.36530200  1
  Mg  Mg18  1  0.04210800  0.75000000  0.35048800  1
  Mg  Mg19  1  0.43534700  0.47844400  0.32496400  1
  Mg  Mg20  1  0.46827700  0.97844400  0.39082500  1
  Mg  Mg21  1  0.92930700  0.47844400  0.32496400  1
  Mg  Mg22  1  0.46827700  0.52155600  0.39082500  1
  Mg  Mg23  1  0.96223700  0.97844400  0.39082500  1
  Mg  Mg24  1  0.73172300  0.02155600  0.42375600  1
  Mg  Mg25  1  0.52930700  0.02155600  0.52496400  1
  Mg  Mg26  1  0.03534700  0.02155600  0.52496400  1
  Mg  Mg27  1  0.56223700  0.52155600  0.59082500  1
  Mg  Mg28  1  0.76545900  0.59810200  0.49122800  1
  Mg  Mg29  1  0.23212500  0.09810200  0.42456100  1
  Mg  Mg30  1  0.23212500  0.40189800  0.42456100  1
  Mg  Mg31  1  0.76545900  0.90189800  0.49122800  1
  Mg  Mg32  1  0.79879200  0.50000000  0.55789500  1
  Mg  Mg33  1  0.49879200  0.00000000  0.45789500  1
  Mg  Mg34  1  0.99879200  0.00000000  0.45789500  1
  Mg  Mg35  1  0.99879200  0.50000000  0.45789500  1
  Mg  Mg36  1  0.49879200  0.50000000  0.45789500  1
  Mg  Mg37  1  0.79879200  0.00000000  0.55789500  1
  Mg  Mg38  1  0.94806900  0.75000000  0.55048800  1
  Mg  Mg39  1  0.53035600  0.25000000  0.42359500  1
  Mg  Mg40  1  0.11650400  0.25000000  0.48478700  1
  Mg  Mg41  1  0.88108000  0.75000000  0.43100200  1
  Mg  Mg42  1  0.46722800  0.75000000  0.49219400  1
  Mg  Mg43  1  0.95547600  0.25000000  0.56530200  1
  Mg  Mg44  1  0.40797200  0.25000000  0.48478700  1
  Mg  Mg45  1  0.64951500  0.25000000  0.56530200  1
  Mg  Mg46  1  0.93292800  0.25000000  0.42359500  1
  Mg  Mg47  1  0.06465600  0.75000000  0.49219400  1
  Mg  Mg48  1  0.64210800  0.75000000  0.55048800  1
  Mg  Mg49  1  0.58961200  0.75000000  0.43100200  1
  Mg  Mg50  1  0.03534700  0.47844400  0.52496400  1
  Mg  Mg51  1  0.06827700  0.97844400  0.59082500  1
  Mg  Mg52  1  0.26586100  0.97844400  0.49203300  1
  Mg  Mg53  1  0.73172300  0.47844400  0.42375600  1
  Mg  Mg54  1  0.52930700  0.47844400  0.52496400  1
  Mg  Mg55  1  0.06827700  0.52155600  0.59082500  1
  Mg  Mg56  1  0.26586100  0.52155600  0.49203300  1
  Mg  Mg57  1  0.56223700  0.97844400  0.59082500  1
  Mg  Mg58  1  0.33172300  0.02155600  0.62375600  1
  Mg  Mg59  1  0.12930700  0.02155600  0.72496400  1
  Mg  Mg60  1  0.63534700  0.02155600  0.72496400  1
  Mg  Mg61  1  0.16223700  0.52155600  0.79082500  1
  Mg  Mg62  1  0.36545900  0.59810200  0.69122800  1
  Mg  Mg63  1  0.83212500  0.09810200  0.62456100  1
  Mg  Mg64  1  0.83212500  0.40189800  0.62456100  1
  Mg  Mg65  1  0.36545900  0.90189800  0.69122800  1
  Mg  Mg66  1  0.39879200  0.50000000  0.75789500  1
  Mg  Mg67  1  0.09879200  0.00000000  0.65789500  1
  Mg  Mg68  1  0.59879200  0.00000000  0.65789500  1
  Mg  Mg69  1  0.59879200  0.50000000  0.65789500  1
  Mg  Mg70  1  0.09879200  0.50000000  0.65789500  1
  Mg  Mg71  1  0.39879200  0.00000000  0.75789500  1
  Mg  Mg72  1  0.54806900  0.75000000  0.75048800  1
  Mg  Mg73  1  0.13035600  0.25000000  0.62359500  1
  Mg  Mg74  1  0.71650400  0.25000000  0.68478700  1
  Mg  Mg75  1  0.48108000  0.75000000  0.63100200  1
  Mg  Mg76  1  0.06722800  0.75000000  0.69219400  1
  Mg  Mg77  1  0.55547600  0.25000000  0.76530200  1
  Mg  Mg78  1  0.00797200  0.25000000  0.68478700  1
  Mg  Mg79  1  0.24951500  0.25000000  0.76530200  1
  Mg  Mg80  1  0.53292800  0.25000000  0.62359500  1
  Mg  Mg81  1  0.66465600  0.75000000  0.69219400  1
  Mg  Mg82  1  0.24210800  0.75000000  0.75048800  1
  Mg  Mg83  1  0.18961200  0.75000000  0.63100200  1
  Mg  Mg84  1  0.63534700  0.47844400  0.72496400  1
  Mg  Mg85  1  0.66827700  0.97844400  0.79082500  1
  Mg  Mg86  1  0.86586100  0.97844400  0.69203300  1
  Mg  Mg87  1  0.33172300  0.47844400  0.62375600  1
  Mg  Mg88  1  0.12930700  0.47844400  0.72496400  1
  Mg  Mg89  1  0.66827700  0.52155600  0.79082500  1
  Mg  Mg90  1  0.86586100  0.52155600  0.69203300  1
  Mg  Mg91  1  0.16223700  0.97844400  0.79082500  1
