# generated using pymatgen
data_TmMg2
_symmetry_space_group_name_H-M   'P 1'
_cell_length_a   3.27167700
_cell_length_b   5.19544600
_cell_length_c   44.99388200
_cell_angle_alpha   90.00000000
_cell_angle_beta   90.00000000
_cell_angle_gamma   90.00000000
_symmetry_Int_Tables_number   1
_chemical_formula_structural   TmMg2
_chemical_formula_sum   'Tm6 Mg12'
_cell_volume   764.79796056
_cell_formula_units_Z   6
loop_
 _symmetry_equiv_pos_site_id
 _symmetry_equiv_pos_as_xyz
  1  'x, y, z'
loop_
 _atom_site_type_symbol
 _atom_site_label
 _atom_site_symmetry_multiplicity
 _atom_site_fract_x
 _atom_site_fract_y
 _atom_site_fract_z
 _atom_site_occupancy
  Tm  Tm0  1  0.00000000  0.75000000  0.25000000  1
  Tm  Tm1  1  0.00000000  0.25000000  0.35000000  1
  Tm  Tm2  1  0.00000000  0.75000000  0.45000000  1
  Tm  Tm3  1  0.00000000  0.25000000  0.55000000  1
  Tm  Tm4  1  0.00000000  0.75000000  0.65000000  1
  Tm  Tm5  1  0.00000000  0.25000000  0.75000000  1
  Mg  Mg6  1  0.50000000  0.25000000  0.28333300  1
  Mg  Mg7  1  0.50000000  0.25000000  0.21666700  1
  Mg  Mg8  1  0.50000000  0.75000000  0.38333300  1
  Mg  Mg9  1  0.50000000  0.75000000  0.31666700  1
  Mg  Mg10  1  0.50000000  0.25000000  0.48333300  1
  Mg  Mg11  1  0.50000000  0.25000000  0.41666700  1
  Mg  Mg12  1  0.50000000  0.75000000  0.58333300  1
  Mg  Mg13  1  0.50000000  0.75000000  0.51666700  1
  Mg  Mg14  1  0.50000000  0.25000000  0.68333300  1
  Mg  Mg15  1  0.50000000  0.25000000  0.61666700  1
  Mg  Mg16  1  0.50000000  0.75000000  0.78333300  1
  Mg  Mg17  1  0.50000000  0.75000000  0.71666700  1
