# generated using pymatgen
data_Mg8Zn49
_symmetry_space_group_name_H-M   'P 1'
_cell_length_a   8.56229400
_cell_length_b   12.10891200
_cell_length_c   48.43564800
_cell_angle_alpha   90.00000000
_cell_angle_beta   90.00000000
_cell_angle_gamma   90.00000000
_symmetry_Int_Tables_number   1
_chemical_formula_structural   Mg8Zn49
_chemical_formula_sum   'Mg24 Zn147'
_cell_volume   5021.81111185
_cell_formula_units_Z   3
loop_
 _symmetry_equiv_pos_site_id
 _symmetry_equiv_pos_as_xyz
  1  'x, y, z'
loop_
 _atom_site_type_symbol
 _atom_site_label
 _atom_site_symmetry_multiplicity
 _atom_site_fract_x
 _atom_site_fract_y
 _atom_site_fract_z
 _atom_site_occupancy
  Mg  Mg0  1  0.50000000  0.24017700  0.37564300  1
  Mg  Mg1  1  0.00000000  0.18762600  0.31314300  1
  Mg  Mg2  1  0.69744900  0.83890200  0.35096200  1
  Mg  Mg3  1  0.00000000  0.49017700  0.38878000  1
  Mg  Mg4  1  0.30255100  0.83890200  0.35096200  1
  Mg  Mg5  1  0.50000000  0.43762600  0.32628000  1
  Mg  Mg6  1  0.50000000  0.74017700  0.50064300  1
  Mg  Mg7  1  0.00000000  0.68762600  0.43814300  1
  Mg  Mg8  1  0.69744900  0.33890200  0.47596200  1
  Mg  Mg9  1  0.00000000  0.99017700  0.51378000  1
  Mg  Mg10  1  0.30255100  0.33890200  0.47596200  1
  Mg  Mg11  1  0.50000000  0.93762600  0.45128000  1
  Mg  Mg12  1  0.50000000  0.24017700  0.62564300  1
  Mg  Mg13  1  0.00000000  0.18762600  0.56314300  1
  Mg  Mg14  1  0.69744900  0.83890200  0.60096200  1
  Mg  Mg15  1  0.00000000  0.49017700  0.63878000  1
  Mg  Mg16  1  0.30255100  0.83890200  0.60096200  1
  Mg  Mg17  1  0.50000000  0.43762600  0.57628000  1
  Mg  Mg18  1  0.50000000  0.74017700  0.75064300  1
  Mg  Mg19  1  0.00000000  0.68762600  0.68814300  1
  Mg  Mg20  1  0.69744900  0.33890200  0.72596200  1
  Mg  Mg21  1  0.00000000  0.99017700  0.76378000  1
  Mg  Mg22  1  0.30255100  0.33890200  0.72596200  1
  Mg  Mg23  1  0.50000000  0.93762600  0.70128000  1
  Zn  Zn24  1  0.50000000  0.08890200  0.28846200  1
  Zn  Zn25  1  0.77362700  0.58890200  0.28846200  1
  Zn  Zn26  1  0.22637300  0.58890200  0.28846200  1
  Zn  Zn27  1  0.50000000  0.51009200  0.26875900  1
  Zn  Zn28  1  0.50000000  0.66771100  0.30816400  1
  Zn  Zn29  1  0.21905500  0.80795700  0.28846200  1
  Zn  Zn30  1  0.21905500  0.36984600  0.28846200  1
  Zn  Zn31  1  0.78094500  0.36984600  0.28846200  1
  Zn  Zn32  1  0.78094500  0.80795700  0.28846200  1
  Zn  Zn33  1  0.76760900  0.00982300  0.30823100  1
  Zn  Zn34  1  0.23239100  0.00982300  0.30823100  1
  Zn  Zn35  1  0.50000000  0.30178500  0.27478000  1
  Zn  Zn36  1  0.76760900  0.16798100  0.26869200  1
  Zn  Zn37  1  0.23239100  0.16798100  0.26869200  1
  Zn  Zn38  1  0.50000000  0.87601800  0.30214300  1
  Zn  Zn39  1  0.50000000  0.58890200  0.41346200  1
  Zn  Zn40  1  0.00000000  0.20208800  0.38516500  1
  Zn  Zn41  1  0.00000000  0.97571500  0.38516500  1
  Zn  Zn42  1  0.77362700  0.08890200  0.41346200  1
  Zn  Zn43  1  0.00000000  0.70208800  0.31675800  1
  Zn  Zn44  1  0.22637300  0.08890200  0.41346200  1
  Zn  Zn45  1  0.00000000  0.47571500  0.31675800  1
  Zn  Zn46  1  0.00000000  0.91771100  0.33125900  1
  Zn  Zn47  1  0.50000000  0.01009200  0.39375900  1
  Zn  Zn48  1  0.84238000  0.33890200  0.35096200  1
  Zn  Zn49  1  0.50000000  0.16771100  0.43316400  1
  Zn  Zn50  1  0.15762000  0.33890200  0.35096200  1
  Zn  Zn51  1  0.00000000  0.76009200  0.37066400  1
  Zn  Zn52  1  0.78094500  0.08890200  0.35869800  1
  Zn  Zn53  1  0.78094500  0.58890200  0.34322500  1
  Zn  Zn54  1  0.21905500  0.30795700  0.41346200  1
  Zn  Zn55  1  0.21905500  0.86984600  0.41346200  1
  Zn  Zn56  1  0.21905500  0.58890200  0.34322500  1
  Zn  Zn57  1  0.21905500  0.08890200  0.35869800  1
  Zn  Zn58  1  0.78094500  0.86984600  0.41346200  1
  Zn  Zn59  1  0.78094500  0.30795700  0.41346200  1
  Zn  Zn60  1  0.65815800  0.22270600  0.32191300  1
  Zn  Zn61  1  0.76760900  0.50982300  0.43323100  1
  Zn  Zn62  1  0.50000000  0.03417600  0.34168200  1
  Zn  Zn63  1  0.50000000  0.64362700  0.36024100  1
  Zn  Zn64  1  0.23239100  0.50982300  0.43323100  1
  Zn  Zn65  1  0.50000000  0.80178500  0.39978000  1
  Zn  Zn66  1  0.76760900  0.66798100  0.39369200  1
  Zn  Zn67  1  0.23239100  0.66798100  0.39369200  1
  Zn  Zn68  1  0.50000000  0.37601800  0.42714300  1
  Zn  Zn69  1  0.34184200  0.45509700  0.38001000  1
  Zn  Zn70  1  0.34184200  0.22270600  0.32191300  1
  Zn  Zn71  1  0.65815800  0.45509700  0.38001000  1
  Zn  Zn72  1  0.50000000  0.08890200  0.53846200  1
  Zn  Zn73  1  0.00000000  0.70208800  0.51016500  1
  Zn  Zn74  1  0.00000000  0.47571500  0.51016500  1
  Zn  Zn75  1  0.77362700  0.58890200  0.53846200  1
  Zn  Zn76  1  0.00000000  0.20208800  0.44175800  1
  Zn  Zn77  1  0.22637300  0.58890200  0.53846200  1
  Zn  Zn78  1  0.00000000  0.97571500  0.44175800  1
  Zn  Zn79  1  0.00000000  0.41771100  0.45625900  1
  Zn  Zn80  1  0.50000000  0.51009200  0.51875900  1
  Zn  Zn81  1  0.84238000  0.83890200  0.47596200  1
  Zn  Zn82  1  0.50000000  0.66771100  0.55816400  1
  Zn  Zn83  1  0.15762000  0.83890200  0.47596200  1
  Zn  Zn84  1  0.00000000  0.26009200  0.49566400  1
  Zn  Zn85  1  0.78094500  0.58890200  0.48369800  1
  Zn  Zn86  1  0.78094500  0.08890200  0.46822500  1
  Zn  Zn87  1  0.21905500  0.80795700  0.53846200  1
  Zn  Zn88  1  0.21905500  0.36984600  0.53846200  1
  Zn  Zn89  1  0.21905500  0.08890200  0.46822500  1
  Zn  Zn90  1  0.21905500  0.58890200  0.48369800  1
  Zn  Zn91  1  0.78094500  0.36984600  0.53846200  1
  Zn  Zn92  1  0.78094500  0.80795700  0.53846200  1
  Zn  Zn93  1  0.65815800  0.72270600  0.44691300  1
  Zn  Zn94  1  0.76760900  0.00982300  0.55823100  1
  Zn  Zn95  1  0.50000000  0.53417600  0.46668200  1
  Zn  Zn96  1  0.50000000  0.14362700  0.48524100  1
  Zn  Zn97  1  0.23239100  0.00982300  0.55823100  1
  Zn  Zn98  1  0.50000000  0.30178500  0.52478000  1
  Zn  Zn99  1  0.76760900  0.16798100  0.51869200  1
  Zn  Zn100  1  0.23239100  0.16798100  0.51869200  1
  Zn  Zn101  1  0.50000000  0.87601800  0.55214300  1
  Zn  Zn102  1  0.34184200  0.95509700  0.50501000  1
  Zn  Zn103  1  0.34184200  0.72270600  0.44691300  1
  Zn  Zn104  1  0.65815800  0.95509700  0.50501000  1
  Zn  Zn105  1  0.50000000  0.58890200  0.66346200  1
  Zn  Zn106  1  0.00000000  0.20208800  0.63516500  1
  Zn  Zn107  1  0.00000000  0.97571500  0.63516500  1
  Zn  Zn108  1  0.77362700  0.08890200  0.66346200  1
  Zn  Zn109  1  0.00000000  0.70208800  0.56675800  1
  Zn  Zn110  1  0.22637300  0.08890200  0.66346200  1
  Zn  Zn111  1  0.00000000  0.47571500  0.56675800  1
  Zn  Zn112  1  0.00000000  0.91771100  0.58125900  1
  Zn  Zn113  1  0.50000000  0.01009200  0.64375900  1
  Zn  Zn114  1  0.84238000  0.33890200  0.60096200  1
  Zn  Zn115  1  0.50000000  0.16771100  0.68316400  1
  Zn  Zn116  1  0.15762000  0.33890200  0.60096200  1
  Zn  Zn117  1  0.00000000  0.76009200  0.62066400  1
  Zn  Zn118  1  0.78094500  0.08890200  0.60869800  1
  Zn  Zn119  1  0.78094500  0.58890200  0.59322500  1
  Zn  Zn120  1  0.21905500  0.30795700  0.66346200  1
  Zn  Zn121  1  0.21905500  0.86984600  0.66346200  1
  Zn  Zn122  1  0.21905500  0.58890200  0.59322500  1
  Zn  Zn123  1  0.21905500  0.08890200  0.60869800  1
  Zn  Zn124  1  0.78094500  0.86984600  0.66346200  1
  Zn  Zn125  1  0.78094500  0.30795700  0.66346200  1
  Zn  Zn126  1  0.65815800  0.22270600  0.57191300  1
  Zn  Zn127  1  0.76760900  0.50982300  0.68323100  1
  Zn  Zn128  1  0.50000000  0.03417600  0.59168200  1
  Zn  Zn129  1  0.50000000  0.64362700  0.61024100  1
  Zn  Zn130  1  0.23239100  0.50982300  0.68323100  1
  Zn  Zn131  1  0.50000000  0.80178500  0.64978000  1
  Zn  Zn132  1  0.76760900  0.66798100  0.64369200  1
  Zn  Zn133  1  0.23239100  0.66798100  0.64369200  1
  Zn  Zn134  1  0.50000000  0.37601800  0.67714300  1
  Zn  Zn135  1  0.34184200  0.45509700  0.63001000  1
  Zn  Zn136  1  0.34184200  0.22270600  0.57191300  1
  Zn  Zn137  1  0.65815800  0.45509700  0.63001000  1
  Zn  Zn138  1  0.50000000  0.08890200  0.78846200  1
  Zn  Zn139  1  0.00000000  0.70208800  0.76016500  1
  Zn  Zn140  1  0.00000000  0.47571500  0.76016500  1
  Zn  Zn141  1  0.77362700  0.58890200  0.78846200  1
  Zn  Zn142  1  0.00000000  0.20208800  0.69175800  1
  Zn  Zn143  1  0.22637300  0.58890200  0.78846200  1
  Zn  Zn144  1  0.00000000  0.97571500  0.69175800  1
  Zn  Zn145  1  0.00000000  0.41771100  0.70625900  1
  Zn  Zn146  1  0.50000000  0.51009200  0.76875900  1
  Zn  Zn147  1  0.84238000  0.83890200  0.72596200  1
  Zn  Zn148  1  0.50000000  0.66771100  0.80816400  1
  Zn  Zn149  1  0.15762000  0.83890200  0.72596200  1
  Zn  Zn150  1  0.00000000  0.26009200  0.74566400  1
  Zn  Zn151  1  0.78094500  0.58890200  0.73369800  1
  Zn  Zn152  1  0.78094500  0.08890200  0.71822500  1
  Zn  Zn153  1  0.21905500  0.80795700  0.78846200  1
  Zn  Zn154  1  0.21905500  0.36984600  0.78846200  1
  Zn  Zn155  1  0.21905500  0.08890200  0.71822500  1
  Zn  Zn156  1  0.21905500  0.58890200  0.73369800  1
  Zn  Zn157  1  0.78094500  0.36984600  0.78846200  1
  Zn  Zn158  1  0.78094500  0.80795700  0.78846200  1
  Zn  Zn159  1  0.65815800  0.72270600  0.69691300  1
  Zn  Zn160  1  0.76760900  0.00982300  0.80823100  1
  Zn  Zn161  1  0.50000000  0.53417600  0.71668200  1
  Zn  Zn162  1  0.50000000  0.14362700  0.73524100  1
  Zn  Zn163  1  0.23239100  0.00982300  0.80823100  1
  Zn  Zn164  1  0.50000000  0.30178500  0.77478000  1
  Zn  Zn165  1  0.76760900  0.16798100  0.76869200  1
  Zn  Zn166  1  0.23239100  0.16798100  0.76869200  1
  Zn  Zn167  1  0.50000000  0.87601800  0.80214300  1
  Zn  Zn168  1  0.34184200  0.95509700  0.75501000  1
  Zn  Zn169  1  0.34184200  0.72270600  0.69691300  1
  Zn  Zn170  1  0.65815800  0.95509700  0.75501000  1
