# generated using pymatgen
data_Dy8Mg3
_symmetry_space_group_name_H-M   'P 1'
_cell_length_a   3.69704700
_cell_length_b   5.47816800
_cell_length_c   51.30137900
_cell_angle_alpha   90.00000000
_cell_angle_beta   90.00000000
_cell_angle_gamma   90.00000000
_symmetry_Int_Tables_number   1
_chemical_formula_structural   Dy8Mg3
_chemical_formula_sum   'Dy16 Mg6'
_cell_volume   1039.00911538
_cell_formula_units_Z   2
loop_
 _symmetry_equiv_pos_site_id
 _symmetry_equiv_pos_as_xyz
  1  'x, y, z'
loop_
 _atom_site_type_symbol
 _atom_site_label
 _atom_site_symmetry_multiplicity
 _atom_site_fract_x
 _atom_site_fract_y
 _atom_site_fract_z
 _atom_site_occupancy
  Dy  Dy0  1  0.50000000  0.25000000  0.16947000  1
  Dy  Dy1  1  0.00000000  0.25000000  0.22960100  1
  Dy  Dy2  1  0.00000000  0.75000000  0.27497400  1
  Dy  Dy3  1  0.50000000  0.75000000  0.21484300  1
  Dy  Dy4  1  0.00000000  0.25000000  0.33613700  1
  Dy  Dy5  1  0.50000000  0.25000000  0.39626800  1
  Dy  Dy6  1  0.50000000  0.75000000  0.44164100  1
  Dy  Dy7  1  0.00000000  0.75000000  0.38151000  1
  Dy  Dy8  1  0.50000000  0.25000000  0.50280400  1
  Dy  Dy9  1  0.00000000  0.25000000  0.56293500  1
  Dy  Dy10  1  0.00000000  0.75000000  0.60830800  1
  Dy  Dy11  1  0.50000000  0.75000000  0.54817600  1
  Dy  Dy12  1  0.00000000  0.25000000  0.66947000  1
  Dy  Dy13  1  0.50000000  0.25000000  0.72960100  1
  Dy  Dy14  1  0.50000000  0.75000000  0.77497400  1
  Dy  Dy15  1  0.00000000  0.75000000  0.71484300  1
  Mg  Mg16  1  0.50000000  0.25000000  0.28321000  1
  Mg  Mg17  1  0.00000000  0.75000000  0.49456800  1
  Mg  Mg18  1  0.00000000  0.25000000  0.44987700  1
  Mg  Mg19  1  0.50000000  0.75000000  0.32790100  1
  Mg  Mg20  1  0.50000000  0.25000000  0.61654300  1
  Mg  Mg21  1  0.50000000  0.75000000  0.66123400  1
