# generated using pymatgen
data_Ce11Mg140
_symmetry_space_group_name_H-M   'P 1'
_cell_length_a   11.88980944
_cell_length_b   11.88980897
_cell_length_c   45.94310200
_cell_angle_alpha   89.70796386
_cell_angle_beta   90.29203612
_cell_angle_gamma   104.33187700
_symmetry_Int_Tables_number   1
_chemical_formula_structural   Ce11Mg140
_chemical_formula_sum   'Ce11 Mg140'
_cell_volume   6292.60120360
_cell_formula_units_Z   1
loop_
 _symmetry_equiv_pos_site_id
 _symmetry_equiv_pos_as_xyz
  1  'x, y, z'
loop_
 _atom_site_type_symbol
 _atom_site_label
 _atom_site_symmetry_multiplicity
 _atom_site_fract_x
 _atom_site_fract_y
 _atom_site_fract_z
 _atom_site_occupancy
  Ce  Ce0  1  0.16386200  0.83613800  0.29038500  1
  Ce  Ce1  1  0.56386200  0.43613800  0.24038500  1
  Ce  Ce2  1  0.36386200  0.63613800  0.39038500  1
  Ce  Ce3  1  0.76386200  0.23613800  0.34038500  1
  Ce  Ce4  1  0.56386200  0.43613800  0.49038500  1
  Ce  Ce5  1  0.96386200  0.03613800  0.44038500  1
  Ce  Ce6  1  0.76386200  0.23613800  0.59038500  1
  Ce  Ce7  1  0.16386200  0.83613800  0.54038500  1
  Ce  Ce8  1  0.96386200  0.03613800  0.69038500  1
  Ce  Ce9  1  0.36386200  0.63613800  0.64038500  1
  Ce  Ce10  1  0.56386200  0.43613800  0.74038500  1
  Mg  Mg11  1  0.02134500  0.76607000  0.21912600  1
  Mg  Mg12  1  0.10637900  0.10620500  0.26164300  1
  Mg  Mg13  1  0.29379500  0.49362100  0.21164300  1
  Mg  Mg14  1  0.83393000  0.37865500  0.26912600  1
  Mg  Mg15  1  0.03410300  0.31710200  0.22550500  1
  Mg  Mg16  1  0.09362100  0.55517300  0.25526400  1
  Mg  Mg17  1  0.04482700  0.30637900  0.30526400  1
  Mg  Mg18  1  0.28289800  0.36589700  0.27550500  1
  Mg  Mg19  1  0.86386200  0.13613800  0.26538500  1
  Mg  Mg20  1  0.76386200  0.23613800  0.21538500  1
  Mg  Mg21  1  0.26386200  0.23613800  0.21538500  1
  Mg  Mg22  1  0.36386200  0.13613800  0.26538500  1
  Mg  Mg23  1  0.62134500  0.16607000  0.26912600  1
  Mg  Mg24  1  0.50637900  0.70620500  0.21164300  1
  Mg  Mg25  1  0.89379500  0.89362100  0.26164300  1
  Mg  Mg26  1  0.23393000  0.97865500  0.21912600  1
  Mg  Mg27  1  0.63410300  0.71710200  0.27550500  1
  Mg  Mg28  1  0.69362100  0.95517300  0.30526400  1
  Mg  Mg29  1  0.44482700  0.90637900  0.25526400  1
  Mg  Mg30  1  0.68289800  0.96589700  0.22550500  1
  Mg  Mg31  1  0.26386200  0.73613800  0.21538500  1
  Mg  Mg32  1  0.36386200  0.63613800  0.26538500  1
  Mg  Mg33  1  0.86386200  0.63613800  0.26538500  1
  Mg  Mg34  1  0.76386200  0.73613800  0.21538500  1
  Mg  Mg35  1  0.22134500  0.56607000  0.31912600  1
  Mg  Mg36  1  0.30637900  0.90620500  0.36164300  1
  Mg  Mg37  1  0.49379500  0.29362100  0.31164300  1
  Mg  Mg38  1  0.03393000  0.17865500  0.36912600  1
  Mg  Mg39  1  0.23410300  0.11710200  0.32550500  1
  Mg  Mg40  1  0.29362100  0.35517300  0.35526400  1
  Mg  Mg41  1  0.24482700  0.10637900  0.40526400  1
  Mg  Mg42  1  0.48289800  0.16589700  0.37550500  1
  Mg  Mg43  1  0.06386200  0.93613800  0.36538500  1
  Mg  Mg44  1  0.96386200  0.03613800  0.31538500  1
  Mg  Mg45  1  0.46386200  0.03613800  0.31538500  1
  Mg  Mg46  1  0.56386200  0.93613800  0.36538500  1
  Mg  Mg47  1  0.82134500  0.96607000  0.36912600  1
  Mg  Mg48  1  0.70637900  0.50620500  0.31164300  1
  Mg  Mg49  1  0.09379500  0.69362100  0.36164300  1
  Mg  Mg50  1  0.43393000  0.77865500  0.31912600  1
  Mg  Mg51  1  0.83410300  0.51710200  0.37550500  1
  Mg  Mg52  1  0.89362100  0.75517300  0.40526400  1
  Mg  Mg53  1  0.64482700  0.70637900  0.35526400  1
  Mg  Mg54  1  0.88289800  0.76589700  0.32550500  1
  Mg  Mg55  1  0.46386200  0.53613800  0.31538500  1
  Mg  Mg56  1  0.56386200  0.43613800  0.36538500  1
  Mg  Mg57  1  0.06386200  0.43613800  0.36538500  1
  Mg  Mg58  1  0.96386200  0.53613800  0.31538500  1
  Mg  Mg59  1  0.42134500  0.36607000  0.41912600  1
  Mg  Mg60  1  0.50637900  0.70620500  0.46164300  1
  Mg  Mg61  1  0.69379500  0.09362100  0.41164300  1
  Mg  Mg62  1  0.23393000  0.97865500  0.46912600  1
  Mg  Mg63  1  0.43410300  0.91710200  0.42550500  1
  Mg  Mg64  1  0.49362100  0.15517300  0.45526400  1
  Mg  Mg65  1  0.44482700  0.90637900  0.50526400  1
  Mg  Mg66  1  0.68289800  0.96589700  0.47550500  1
  Mg  Mg67  1  0.26386200  0.73613800  0.46538500  1
  Mg  Mg68  1  0.16386200  0.83613800  0.41538500  1
  Mg  Mg69  1  0.66386200  0.83613800  0.41538500  1
  Mg  Mg70  1  0.76386200  0.73613800  0.46538500  1
  Mg  Mg71  1  0.02134500  0.76607000  0.46912600  1
  Mg  Mg72  1  0.90637900  0.30620500  0.41164300  1
  Mg  Mg73  1  0.29379500  0.49362100  0.46164300  1
  Mg  Mg74  1  0.63393000  0.57865500  0.41912600  1
  Mg  Mg75  1  0.03410300  0.31710200  0.47550500  1
  Mg  Mg76  1  0.09362100  0.55517300  0.50526400  1
  Mg  Mg77  1  0.84482700  0.50637900  0.45526400  1
  Mg  Mg78  1  0.08289800  0.56589700  0.42550500  1
  Mg  Mg79  1  0.66386200  0.33613800  0.41538500  1
  Mg  Mg80  1  0.76386200  0.23613800  0.46538500  1
  Mg  Mg81  1  0.26386200  0.23613800  0.46538500  1
  Mg  Mg82  1  0.16386200  0.33613800  0.41538500  1
  Mg  Mg83  1  0.62134500  0.16607000  0.51912600  1
  Mg  Mg84  1  0.70637900  0.50620500  0.56164300  1
  Mg  Mg85  1  0.89379500  0.89362100  0.51164300  1
  Mg  Mg86  1  0.43393000  0.77865500  0.56912600  1
  Mg  Mg87  1  0.63410300  0.71710200  0.52550500  1
  Mg  Mg88  1  0.69362100  0.95517300  0.55526400  1
  Mg  Mg89  1  0.64482700  0.70637900  0.60526400  1
  Mg  Mg90  1  0.88289800  0.76589700  0.57550500  1
  Mg  Mg91  1  0.46386200  0.53613800  0.56538500  1
  Mg  Mg92  1  0.36386200  0.63613800  0.51538500  1
  Mg  Mg93  1  0.86386200  0.63613800  0.51538500  1
  Mg  Mg94  1  0.96386200  0.53613800  0.56538500  1
  Mg  Mg95  1  0.22134500  0.56607000  0.56912600  1
  Mg  Mg96  1  0.10637900  0.10620500  0.51164300  1
  Mg  Mg97  1  0.49379500  0.29362100  0.56164300  1
  Mg  Mg98  1  0.83393000  0.37865500  0.51912600  1
  Mg  Mg99  1  0.23410300  0.11710200  0.57550500  1
  Mg  Mg100  1  0.29362100  0.35517300  0.60526400  1
  Mg  Mg101  1  0.04482700  0.30637900  0.55526400  1
  Mg  Mg102  1  0.28289800  0.36589700  0.52550500  1
  Mg  Mg103  1  0.86386200  0.13613800  0.51538500  1
  Mg  Mg104  1  0.96386200  0.03613800  0.56538500  1
  Mg  Mg105  1  0.46386200  0.03613800  0.56538500  1
  Mg  Mg106  1  0.36386200  0.13613800  0.51538500  1
  Mg  Mg107  1  0.82134500  0.96607000  0.61912600  1
  Mg  Mg108  1  0.90637900  0.30620500  0.66164300  1
  Mg  Mg109  1  0.09379500  0.69362100  0.61164300  1
  Mg  Mg110  1  0.63393000  0.57865500  0.66912600  1
  Mg  Mg111  1  0.83410300  0.51710200  0.62550500  1
  Mg  Mg112  1  0.89362100  0.75517300  0.65526400  1
  Mg  Mg113  1  0.84482700  0.50637900  0.70526400  1
  Mg  Mg114  1  0.08289800  0.56589700  0.67550500  1
  Mg  Mg115  1  0.66386200  0.33613800  0.66538500  1
  Mg  Mg116  1  0.56386200  0.43613800  0.61538500  1
  Mg  Mg117  1  0.06386200  0.43613800  0.61538500  1
  Mg  Mg118  1  0.16386200  0.33613800  0.66538500  1
  Mg  Mg119  1  0.42134500  0.36607000  0.66912600  1
  Mg  Mg120  1  0.30637900  0.90620500  0.61164300  1
  Mg  Mg121  1  0.69379500  0.09362100  0.66164300  1
  Mg  Mg122  1  0.03393000  0.17865500  0.61912600  1
  Mg  Mg123  1  0.43410300  0.91710200  0.67550500  1
  Mg  Mg124  1  0.49362100  0.15517300  0.70526400  1
  Mg  Mg125  1  0.24482700  0.10637900  0.65526400  1
  Mg  Mg126  1  0.48289800  0.16589700  0.62550500  1
  Mg  Mg127  1  0.06386200  0.93613800  0.61538500  1
  Mg  Mg128  1  0.16386200  0.83613800  0.66538500  1
  Mg  Mg129  1  0.66386200  0.83613800  0.66538500  1
  Mg  Mg130  1  0.56386200  0.93613800  0.61538500  1
  Mg  Mg131  1  0.02134500  0.76607000  0.71912600  1
  Mg  Mg132  1  0.10637900  0.10620500  0.76164300  1
  Mg  Mg133  1  0.29379500  0.49362100  0.71164300  1
  Mg  Mg134  1  0.83393000  0.37865500  0.76912600  1
  Mg  Mg135  1  0.03410300  0.31710200  0.72550500  1
  Mg  Mg136  1  0.09362100  0.55517300  0.75526400  1
  Mg  Mg137  1  0.86386200  0.13613800  0.76538500  1
  Mg  Mg138  1  0.76386200  0.23613800  0.71538500  1
  Mg  Mg139  1  0.26386200  0.23613800  0.71538500  1
  Mg  Mg140  1  0.36386200  0.13613800  0.76538500  1
  Mg  Mg141  1  0.62134500  0.16607000  0.76912600  1
  Mg  Mg142  1  0.50637900  0.70620500  0.71164300  1
  Mg  Mg143  1  0.89379500  0.89362100  0.76164300  1
  Mg  Mg144  1  0.23393000  0.97865500  0.71912600  1
  Mg  Mg145  1  0.44482700  0.90637900  0.75526400  1
  Mg  Mg146  1  0.68289800  0.96589700  0.72550500  1
  Mg  Mg147  1  0.26386200  0.73613800  0.71538500  1
  Mg  Mg148  1  0.36386200  0.63613800  0.76538500  1
  Mg  Mg149  1  0.86386200  0.63613800  0.76538500  1
  Mg  Mg150  1  0.76386200  0.73613800  0.71538500  1
