# generated using pymatgen
data_La4Mg33
_symmetry_space_group_name_H-M   'P 1'
_cell_length_a   10.38875200
_cell_length_b   10.38875187
_cell_length_c   50.48118100
_cell_angle_alpha   90.00000000
_cell_angle_beta   90.00000000
_cell_angle_gamma   120.00000040
_symmetry_Int_Tables_number   1
_chemical_formula_structural   La4Mg33
_chemical_formula_sum   'La12 Mg99'
_cell_volume   4718.31453967
_cell_formula_units_Z   3
loop_
 _symmetry_equiv_pos_site_id
 _symmetry_equiv_pos_as_xyz
  1  'x, y, z'
loop_
 _atom_site_type_symbol
 _atom_site_label
 _atom_site_symmetry_multiplicity
 _atom_site_fract_x
 _atom_site_fract_y
 _atom_site_fract_z
 _atom_site_occupancy
  La  La0  1  0.33333300  0.66666700  0.34210500  1
  La  La1  1  0.66666700  0.33333300  0.24210500  1
  La  La2  1  0.00000000  0.00000000  0.24210500  1
  La  La3  1  0.00000000  0.00000000  0.34210500  1
  La  La4  1  0.33333300  0.66666700  0.54210500  1
  La  La5  1  0.66666700  0.33333300  0.44210500  1
  La  La6  1  0.00000000  0.00000000  0.44210500  1
  La  La7  1  0.00000000  0.00000000  0.54210500  1
  La  La8  1  0.33333300  0.66666700  0.74210500  1
  La  La9  1  0.66666700  0.33333300  0.64210500  1
  La  La10  1  0.00000000  0.00000000  0.64210500  1
  La  La11  1  0.00000000  0.00000000  0.74210500  1
  Mg  Mg12  1  0.83777700  0.67555400  0.19628400  1
  Mg  Mg13  1  0.32444600  0.16222300  0.19628400  1
  Mg  Mg14  1  0.83777700  0.16222300  0.19628400  1
  Mg  Mg15  1  0.16222300  0.83777700  0.29628400  1
  Mg  Mg16  1  0.66666700  0.33333300  0.31177200  1
  Mg  Mg17  1  0.33333300  0.66666700  0.21177200  1
  Mg  Mg18  1  0.33333300  0.66666700  0.27243800  1
  Mg  Mg19  1  0.66666700  0.33333300  0.37243800  1
  Mg  Mg20  1  1.00000000  0.50000000  0.29210500  1
  Mg  Mg21  1  0.50000000  0.00000000  0.39210500  1
  Mg  Mg22  1  0.50000000  0.50000000  0.39210500  1
  Mg  Mg23  1  0.50000000  0.50000000  0.29210500  1
  Mg  Mg24  1  0.50000000  0.00000000  0.29210500  1
  Mg  Mg25  1  1.00000000  0.50000000  0.39210500  1
  Mg  Mg26  1  0.96550700  0.63703800  0.34210500  1
  Mg  Mg27  1  0.32846900  0.96550700  0.24210500  1
  Mg  Mg28  1  0.63703800  0.67153100  0.24210500  1
  Mg  Mg29  1  0.36296200  0.32846900  0.34210500  1
  Mg  Mg30  1  0.67153100  0.03449300  0.34210500  1
  Mg  Mg31  1  0.03449300  0.67153100  0.24210500  1
  Mg  Mg32  1  0.63703800  0.96550700  0.24210500  1
  Mg  Mg33  1  0.03449300  0.36296200  0.24210500  1
  Mg  Mg34  1  0.32846900  0.36296200  0.24210500  1
  Mg  Mg35  1  0.67153100  0.63703800  0.34210500  1
  Mg  Mg36  1  0.96550700  0.32846900  0.34210500  1
  Mg  Mg37  1  0.36296200  0.03449300  0.34210500  1
  Mg  Mg38  1  0.32444600  0.16222300  0.28792600  1
  Mg  Mg39  1  0.16222300  0.32444600  0.38792600  1
  Mg  Mg40  1  0.16222300  0.83777700  0.38792600  1
  Mg  Mg41  1  0.83777700  0.16222300  0.28792600  1
  Mg  Mg42  1  0.83777700  0.67555400  0.28792600  1
  Mg  Mg43  1  0.67555400  0.83777700  0.29628400  1
  Mg  Mg44  1  0.16222300  0.32444600  0.29628400  1
  Mg  Mg45  1  0.67555400  0.83777700  0.38792600  1
  Mg  Mg46  1  0.83777700  0.67555400  0.39628400  1
  Mg  Mg47  1  0.32444600  0.16222300  0.39628400  1
  Mg  Mg48  1  0.83777700  0.16222300  0.39628400  1
  Mg  Mg49  1  0.16222300  0.83777700  0.49628400  1
  Mg  Mg50  1  0.66666700  0.33333300  0.51177200  1
  Mg  Mg51  1  0.33333300  0.66666700  0.41177200  1
  Mg  Mg52  1  0.33333300  0.66666700  0.47243800  1
  Mg  Mg53  1  0.66666700  0.33333300  0.57243800  1
  Mg  Mg54  1  1.00000000  0.50000000  0.49210500  1
  Mg  Mg55  1  0.50000000  0.00000000  0.59210500  1
  Mg  Mg56  1  0.50000000  0.50000000  0.59210500  1
  Mg  Mg57  1  0.50000000  0.50000000  0.49210500  1
  Mg  Mg58  1  0.50000000  0.00000000  0.49210500  1
  Mg  Mg59  1  1.00000000  0.50000000  0.59210500  1
  Mg  Mg60  1  0.96550700  0.63703800  0.54210500  1
  Mg  Mg61  1  0.32846900  0.96550700  0.44210500  1
  Mg  Mg62  1  0.63703800  0.67153100  0.44210500  1
  Mg  Mg63  1  0.36296200  0.32846900  0.54210500  1
  Mg  Mg64  1  0.67153100  0.03449300  0.54210500  1
  Mg  Mg65  1  0.03449300  0.67153100  0.44210500  1
  Mg  Mg66  1  0.63703800  0.96550700  0.44210500  1
  Mg  Mg67  1  0.03449300  0.36296200  0.44210500  1
  Mg  Mg68  1  0.32846900  0.36296200  0.44210500  1
  Mg  Mg69  1  0.67153100  0.63703800  0.54210500  1
  Mg  Mg70  1  0.96550700  0.32846900  0.54210500  1
  Mg  Mg71  1  0.36296200  0.03449300  0.54210500  1
  Mg  Mg72  1  0.32444600  0.16222300  0.48792600  1
  Mg  Mg73  1  0.16222300  0.32444600  0.58792600  1
  Mg  Mg74  1  0.16222300  0.83777700  0.58792600  1
  Mg  Mg75  1  0.83777700  0.16222300  0.48792600  1
  Mg  Mg76  1  0.83777700  0.67555400  0.48792600  1
  Mg  Mg77  1  0.67555400  0.83777700  0.49628400  1
  Mg  Mg78  1  0.16222300  0.32444600  0.49628400  1
  Mg  Mg79  1  0.67555400  0.83777700  0.58792600  1
  Mg  Mg80  1  0.83777700  0.67555400  0.59628400  1
  Mg  Mg81  1  0.32444600  0.16222300  0.59628400  1
  Mg  Mg82  1  0.83777700  0.16222300  0.59628400  1
  Mg  Mg83  1  0.16222300  0.83777700  0.69628400  1
  Mg  Mg84  1  0.66666700  0.33333300  0.71177200  1
  Mg  Mg85  1  0.33333300  0.66666700  0.61177200  1
  Mg  Mg86  1  0.33333300  0.66666700  0.67243800  1
  Mg  Mg87  1  0.66666700  0.33333300  0.77243800  1
  Mg  Mg88  1  1.00000000  0.50000000  0.69210500  1
  Mg  Mg89  1  0.50000000  0.50000000  0.69210500  1
  Mg  Mg90  1  0.50000000  0.00000000  0.69210500  1
  Mg  Mg91  1  0.96550700  0.63703800  0.74210500  1
  Mg  Mg92  1  0.32846900  0.96550700  0.64210500  1
  Mg  Mg93  1  0.63703800  0.67153100  0.64210500  1
  Mg  Mg94  1  0.36296200  0.32846900  0.74210500  1
  Mg  Mg95  1  0.67153100  0.03449300  0.74210500  1
  Mg  Mg96  1  0.03449300  0.67153100  0.64210500  1
  Mg  Mg97  1  0.63703800  0.96550700  0.64210500  1
  Mg  Mg98  1  0.03449300  0.36296200  0.64210500  1
  Mg  Mg99  1  0.32846900  0.36296200  0.64210500  1
  Mg  Mg100  1  0.67153100  0.63703800  0.74210500  1
  Mg  Mg101  1  0.96550700  0.32846900  0.74210500  1
  Mg  Mg102  1  0.36296200  0.03449300  0.74210500  1
  Mg  Mg103  1  0.32444600  0.16222300  0.68792600  1
  Mg  Mg104  1  0.16222300  0.32444600  0.78792600  1
  Mg  Mg105  1  0.16222300  0.83777700  0.78792600  1
  Mg  Mg106  1  0.83777700  0.16222300  0.68792600  1
  Mg  Mg107  1  0.83777700  0.67555400  0.68792600  1
  Mg  Mg108  1  0.67555400  0.83777700  0.69628400  1
  Mg  Mg109  1  0.16222300  0.32444600  0.69628400  1
  Mg  Mg110  1  0.67555400  0.83777700  0.78792600  1
