# generated using pymatgen
data_Mg87P56
_symmetry_space_group_name_H-M   'P 1'
_cell_length_a   17.07071752
_cell_length_b   17.07071720
_cell_length_c   49.76926500
_cell_angle_alpha   99.87496192
_cell_angle_beta   99.87496173
_cell_angle_gamma   59.99999851
_symmetry_Int_Tables_number   1
_chemical_formula_structural   Mg87P56
_chemical_formula_sum   'Mg174 P112'
_cell_volume   12311.42566265
_cell_formula_units_Z   2
loop_
 _symmetry_equiv_pos_site_id
 _symmetry_equiv_pos_as_xyz
  1  'x, y, z'
loop_
 _atom_site_type_symbol
 _atom_site_label
 _atom_site_symmetry_multiplicity
 _atom_site_fract_x
 _atom_site_fract_y
 _atom_site_fract_z
 _atom_site_occupancy
  Mg  Mg0  1  0.15542300  0.91519400  0.33928200  1
  Mg  Mg1  1  0.64138600  0.66737100  0.32992400  1
  Mg  Mg2  1  0.39847400  0.89170600  0.33465000  1
  Mg  Mg3  1  0.13751800  0.40405800  0.33185800  1
  Mg  Mg4  1  0.92445900  0.39847400  0.33465000  1
  Mg  Mg5  1  0.40405800  0.67027200  0.33185800  1
  Mg  Mg6  1  0.14865500  0.15542300  0.33928200  1
  Mg  Mg7  1  0.55805100  0.79151200  0.26785400  1
  Mg  Mg8  1  0.97528400  0.21551400  0.29286100  1
  Mg  Mg9  1  0.48932100  0.46333700  0.30221900  1
  Mg  Mg10  1  0.73223300  0.23900200  0.29749300  1
  Mg  Mg11  1  0.99318900  0.72665000  0.30028500  1
  Mg  Mg12  1  0.20624800  0.73223300  0.29749300  1
  Mg  Mg13  1  0.72665000  0.46043600  0.30028500  1
  Mg  Mg14  1  0.98205300  0.97528400  0.29286100  1
  Mg  Mg15  1  0.57265600  0.33919600  0.36428900  1
  Mg  Mg16  1  0.79828000  0.55805100  0.26785400  1
  Mg  Mg17  1  0.66737100  0.90115700  0.32992400  1
  Mg  Mg18  1  0.79151200  0.79828000  0.26785400  1
  Mg  Mg19  1  0.91519400  0.14865500  0.33928200  1
  Mg  Mg20  1  0.90115700  0.64138600  0.32992400  1
  Mg  Mg21  1  0.89170600  0.92445900  0.33465000  1
  Mg  Mg22  1  0.67027200  0.13751800  0.33185800  1
  Mg  Mg23  1  0.33242700  0.57265600  0.36428900  1
  Mg  Mg24  1  0.46333700  0.22955100  0.30221900  1
  Mg  Mg25  1  0.33919600  0.33242700  0.36428900  1
  Mg  Mg26  1  0.21551400  0.98205300  0.29286100  1
  Mg  Mg27  1  0.22955100  0.48932100  0.30221900  1
  Mg  Mg28  1  0.23900200  0.20624800  0.29749300  1
  Mg  Mg29  1  0.46043600  0.99318900  0.30028500  1
  Mg  Mg30  1  0.86970900  0.62948000  0.48213900  1
  Mg  Mg31  1  0.35567200  0.38165700  0.47278100  1
  Mg  Mg32  1  0.11276000  0.60599200  0.47750700  1
  Mg  Mg33  1  0.85180400  0.11834300  0.47471500  1
  Mg  Mg34  1  0.02451400  0.25830000  0.40135300  1
  Mg  Mg35  1  0.63874500  0.11276000  0.47750700  1
  Mg  Mg36  1  0.11834300  0.38455700  0.47471500  1
  Mg  Mg37  1  0.86294000  0.86970900  0.48213900  1
  Mg  Mg38  1  0.27233700  0.50579800  0.41071100  1
  Mg  Mg39  1  0.25830000  0.99852900  0.40135300  1
  Mg  Mg40  1  0.24884900  0.28160200  0.40607800  1
  Mg  Mg41  1  0.02741500  0.49466100  0.40328700  1
  Mg  Mg42  1  0.68957000  0.92979900  0.43571800  1
  Mg  Mg43  1  0.20360700  0.17762200  0.44507600  1
  Mg  Mg44  1  0.44651900  0.95328700  0.44035000  1
  Mg  Mg45  1  0.70747500  0.44093600  0.44314200  1
  Mg  Mg46  1  0.82047900  0.58669300  0.37364700  1
  Mg  Mg47  1  0.92053400  0.44651900  0.44035000  1
  Mg  Mg48  1  0.44093600  0.17472100  0.44314200  1
  Mg  Mg49  1  0.69633800  0.68957000  0.43571800  1
  Mg  Mg50  1  0.28694200  0.05348100  0.50714600  1
  Mg  Mg51  1  0.58669300  0.84646400  0.37364700  1
  Mg  Mg52  1  0.59614400  0.56339100  0.36892200  1
  Mg  Mg53  1  0.81757900  0.35033200  0.37171300  1
  Mg  Mg54  1  0.51256600  0.27233700  0.41071100  1
  Mg  Mg55  1  0.99852900  0.02451400  0.40135300  1
  Mg  Mg56  1  0.75561700  0.24884900  0.40607800  1
  Mg  Mg57  1  0.49466100  0.76120100  0.40328700  1
  Mg  Mg58  1  0.38165700  0.61544300  0.47278100  1
  Mg  Mg59  1  0.28160200  0.75561700  0.40607800  1
  Mg  Mg60  1  0.76120100  0.02741500  0.40328700  1
  Mg  Mg61  1  0.50579800  0.51256600  0.41071100  1
  Mg  Mg62  1  0.62948000  0.86294000  0.48213900  1
  Mg  Mg63  1  0.61544300  0.35567200  0.47278100  1
  Mg  Mg64  1  0.60599200  0.63874500  0.47750700  1
  Mg  Mg65  1  0.38455700  0.85180400  0.47471500  1
  Mg  Mg66  1  0.04671300  0.28694200  0.50714600  1
  Mg  Mg67  1  0.84646400  0.82047900  0.37364700  1
  Mg  Mg68  1  0.08937600  0.59614400  0.36892200  1
  Mg  Mg69  1  0.35033200  0.08379300  0.37171300  1
  Mg  Mg70  1  0.17762200  0.94383600  0.44507600  1
  Mg  Mg71  1  0.56339100  0.08937600  0.36892200  1
  Mg  Mg72  1  0.08379300  0.81757900  0.37171300  1
  Mg  Mg73  1  0.05348100  0.04671300  0.50714600  1
  Mg  Mg74  1  0.92979900  0.69633800  0.43571800  1
  Mg  Mg75  1  0.94383600  0.20360700  0.44507600  1
  Mg  Mg76  1  0.95328700  0.92053400  0.44035000  1
  Mg  Mg77  1  0.17472100  0.70747500  0.44314200  1
  Mg  Mg78  1  0.58399500  0.34376500  0.62499700  1
  Mg  Mg79  1  0.06995800  0.09594200  0.61563900  1
  Mg  Mg80  1  0.82704600  0.32027700  0.62036400  1
  Mg  Mg81  1  0.56609000  0.83262900  0.61757200  1
  Mg  Mg82  1  0.73879900  0.97258500  0.54421000  1
  Mg  Mg83  1  0.35303100  0.82704600  0.62036400  1
  Mg  Mg84  1  0.83262900  0.09884300  0.61757200  1
  Mg  Mg85  1  0.57722600  0.58399500  0.62499700  1
  Mg  Mg86  1  0.98662300  0.22008300  0.55356800  1
  Mg  Mg87  1  0.97258500  0.71281500  0.54421000  1
  Mg  Mg88  1  0.96313400  0.99588800  0.54893500  1
  Mg  Mg89  1  0.74170000  0.20894700  0.54614400  1
  Mg  Mg90  1  0.40385600  0.64408500  0.57857500  1
  Mg  Mg91  1  0.91789300  0.89190800  0.58793300  1
  Mg  Mg92  1  0.16080400  0.66757300  0.58320700  1
  Mg  Mg93  1  0.42176000  0.15522100  0.58599900  1
  Mg  Mg94  1  0.53476500  0.30097900  0.51650400  1
  Mg  Mg95  1  0.63482000  0.16080400  0.58320700  1
  Mg  Mg96  1  0.15522100  0.88900700  0.58599900  1
  Mg  Mg97  1  0.41062400  0.40385600  0.57857500  1
  Mg  Mg98  1  0.00122800  0.76776700  0.65000300  1
  Mg  Mg99  1  0.30097900  0.56075000  0.51650400  1
  Mg  Mg100  1  0.31043000  0.27767700  0.51177900  1
  Mg  Mg101  1  0.53186400  0.06461800  0.51457000  1
  Mg  Mg102  1  0.22685200  0.98662300  0.55356800  1
  Mg  Mg103  1  0.71281500  0.73879900  0.54421000  1
  Mg  Mg104  1  0.46990300  0.96313400  0.54893500  1
  Mg  Mg105  1  0.20894700  0.47548600  0.54614400  1
  Mg  Mg106  1  0.09594200  0.32972800  0.61563900  1
  Mg  Mg107  1  0.99588800  0.46990300  0.54893500  1
  Mg  Mg108  1  0.47548600  0.74170000  0.54614400  1
  Mg  Mg109  1  0.22008300  0.22685200  0.55356800  1
  Mg  Mg110  1  0.34376500  0.57722600  0.62499700  1
  Mg  Mg111  1  0.32972800  0.06995800  0.61563900  1
  Mg  Mg112  1  0.32027700  0.35303100  0.62036400  1
  Mg  Mg113  1  0.09884300  0.56609000  0.61757200  1
  Mg  Mg114  1  0.76099800  0.00122800  0.65000300  1
  Mg  Mg115  1  0.56075000  0.53476500  0.51650400  1
  Mg  Mg116  1  0.80366200  0.31043000  0.51177900  1
  Mg  Mg117  1  0.06461800  0.79807800  0.51457000  1
  Mg  Mg118  1  0.89190800  0.65812200  0.58793300  1
  Mg  Mg119  1  0.27767700  0.80366200  0.51177900  1
  Mg  Mg120  1  0.79807800  0.53186400  0.51457000  1
  Mg  Mg121  1  0.76776700  0.76099800  0.65000300  1
  Mg  Mg122  1  0.64408500  0.41062400  0.57857500  1
  Mg  Mg123  1  0.65812200  0.91789300  0.58793300  1
  Mg  Mg124  1  0.66757300  0.63482000  0.58320700  1
  Mg  Mg125  1  0.88900700  0.42176000  0.58599900  1
  Mg  Mg126  1  0.29828000  0.05805100  0.76785400  1
  Mg  Mg127  1  0.78424300  0.81022800  0.75849600  1
  Mg  Mg128  1  0.54133200  0.03456300  0.76322100  1
  Mg  Mg129  1  0.28037600  0.54691500  0.76043000  1
  Mg  Mg130  1  0.45308500  0.68687100  0.68706700  1
  Mg  Mg131  1  0.06731600  0.54133200  0.76322100  1
  Mg  Mg132  1  0.54691500  0.81312900  0.76043000  1
  Mg  Mg133  1  0.29151200  0.29828000  0.76785400  1
  Mg  Mg134  1  0.70090800  0.93436900  0.69642500  1
  Mg  Mg135  1  0.68687100  0.42710100  0.68706700  1
  Mg  Mg136  1  0.67742000  0.71017300  0.69179300  1
  Mg  Mg137  1  0.45598600  0.92323300  0.68900100  1
  Mg  Mg138  1  0.11814100  0.35837100  0.72143200  1
  Mg  Mg139  1  0.63217800  0.60619400  0.73079000  1
  Mg  Mg140  1  0.87509000  0.38185900  0.72606500  1
  Mg  Mg141  1  0.13604600  0.86950700  0.72885600  1
  Mg  Mg142  1  0.24905100  0.01526500  0.65936100  1
  Mg  Mg143  1  0.34910500  0.87509000  0.72606500  1
  Mg  Mg144  1  0.86950700  0.60329300  0.72885600  1
  Mg  Mg145  1  0.12491000  0.11814100  0.72143200  1
  Mg  Mg146  1  0.71551400  0.48205300  0.79286100  1
  Mg  Mg147  1  0.01526500  0.27503600  0.65936100  1
  Mg  Mg148  1  0.02471600  0.99196300  0.65463600  1
  Mg  Mg149  1  0.24615000  0.77890300  0.65742800  1
  Mg  Mg150  1  0.94113800  0.70090800  0.69642500  1
  Mg  Mg151  1  0.42710100  0.45308500  0.68706700  1
  Mg  Mg152  1  0.18418900  0.67742000  0.69179300  1
  Mg  Mg153  1  0.92323300  0.18977200  0.68900100  1
  Mg  Mg154  1  0.81022800  0.04401400  0.75849600  1
  Mg  Mg155  1  0.71017300  0.18418900  0.69179300  1
  Mg  Mg156  1  0.18977200  0.45598600  0.68900100  1
  Mg  Mg157  1  0.93436900  0.94113800  0.69642500  1
  Mg  Mg158  1  0.05805100  0.29151200  0.76785400  1
  Mg  Mg159  1  0.04401400  0.78424300  0.75849600  1
  Mg  Mg160  1  0.03456300  0.06731600  0.76322100  1
  Mg  Mg161  1  0.81312900  0.28037600  0.76043000  1
  Mg  Mg162  1  0.47528400  0.71551400  0.79286100  1
  Mg  Mg163  1  0.27503600  0.24905100  0.65936100  1
  Mg  Mg164  1  0.51794700  0.02471600  0.65463600  1
  Mg  Mg165  1  0.77890300  0.51236400  0.65742800  1
  Mg  Mg166  1  0.60619400  0.37240800  0.73079000  1
  Mg  Mg167  1  0.99196300  0.51794700  0.65463600  1
  Mg  Mg168  1  0.51236400  0.24615000  0.65742800  1
  Mg  Mg169  1  0.48205300  0.47528400  0.79286100  1
  Mg  Mg170  1  0.35837100  0.12491000  0.72143200  1
  Mg  Mg171  1  0.37240800  0.63217800  0.73079000  1
  Mg  Mg172  1  0.38185900  0.34910500  0.72606500  1
  Mg  Mg173  1  0.60329300  0.13604600  0.72885600  1
  P  P174  1  0.06535400  0.06535400  0.31607100  1
  P  P175  1  0.56535400  0.56535400  0.31607100  1
  P  P176  1  0.06535400  0.56535400  0.31607100  1
  P  P177  1  0.29836200  0.32215100  0.31267300  1
  P  P178  1  0.05855700  0.83234600  0.31947000  1
  P  P179  1  0.32215100  0.57215100  0.31267300  1
  P  P180  1  0.83234600  0.30855700  0.31947000  1
  P  P181  1  0.83234600  0.80855700  0.31947000  1
  P  P182  1  0.07215100  0.29836200  0.31267300  1
  P  P183  1  0.80855700  0.55855700  0.31947000  1
  P  P184  1  0.29836200  0.82215100  0.31267300  1
  P  P185  1  0.56535400  0.06535400  0.31607100  1
  P  P186  1  0.30855700  0.05855700  0.31947000  1
  P  P187  1  0.57215100  0.29836200  0.31267300  1
  P  P188  1  0.82215100  0.07215100  0.31267300  1
  P  P189  1  0.55855700  0.83234600  0.31947000  1
  P  P190  1  0.77963900  0.77963900  0.45892900  1
  P  P191  1  0.27963900  0.27963900  0.45892900  1
  P  P192  1  0.77963900  0.27963900  0.45892900  1
  P  P193  1  0.92249700  0.42249700  0.38750000  1
  P  P194  1  0.01264700  0.03643600  0.45553000  1
  P  P195  1  0.66570000  0.41570000  0.39089800  1
  P  P196  1  0.77284300  0.54663200  0.46232700  1
  P  P197  1  0.03643600  0.28643600  0.45553000  1
  P  P198  1  0.92929300  0.65550500  0.38410200  1
  P  P199  1  0.54663200  0.02284300  0.46232700  1
  P  P200  1  0.54663200  0.52284300  0.46232700  1
  P  P201  1  0.17929300  0.42929300  0.38410200  1
  P  P202  1  0.78643600  0.01264700  0.45553000  1
  P  P203  1  0.52284300  0.27284300  0.46232700  1
  P  P204  1  0.91570000  0.18948900  0.39089800  1
  P  P205  1  0.01264700  0.53643600  0.45553000  1
  P  P206  1  0.42249700  0.42249700  0.38750000  1
  P  P207  1  0.92249700  0.92249700  0.38750000  1
  P  P208  1  0.42249700  0.92249700  0.38750000  1
  P  P209  1  0.27963900  0.77963900  0.45892900  1
  P  P210  1  0.65550500  0.67929300  0.38410200  1
  P  P211  1  0.02284300  0.77284300  0.46232700  1
  P  P212  1  0.41570000  0.18948900  0.39089800  1
  P  P213  1  0.67929300  0.92929300  0.38410200  1
  P  P214  1  0.28643600  0.01264700  0.45553000  1
  P  P215  1  0.18948900  0.66570000  0.39089800  1
  P  P216  1  0.18948900  0.16570000  0.39089800  1
  P  P217  1  0.53643600  0.78643600  0.45553000  1
  P  P218  1  0.42929300  0.65550500  0.38410200  1
  P  P219  1  0.16570000  0.91570000  0.39089800  1
  P  P220  1  0.27284300  0.54663200  0.46232700  1
  P  P221  1  0.65550500  0.17929300  0.38410200  1
  P  P222  1  0.49392500  0.49392500  0.60178600  1
  P  P223  1  0.99392500  0.99392500  0.60178600  1
  P  P224  1  0.49392500  0.99392500  0.60178600  1
  P  P225  1  0.63678200  0.13678200  0.53035700  1
  P  P226  1  0.72693300  0.75072200  0.59838700  1
  P  P227  1  0.37998500  0.12998500  0.53375600  1
  P  P228  1  0.48712800  0.26091700  0.60518400  1
  P  P229  1  0.75072200  0.00072200  0.59838700  1
  P  P230  1  0.64357900  0.36979000  0.52695900  1
  P  P231  1  0.26091700  0.73712800  0.60518400  1
  P  P232  1  0.26091700  0.23712800  0.60518400  1
  P  P233  1  0.89357900  0.14357900  0.52695900  1
  P  P234  1  0.50072200  0.72693300  0.59838700  1
  P  P235  1  0.23712800  0.98712800  0.60518400  1
  P  P236  1  0.62998500  0.90377400  0.53375600  1
  P  P237  1  0.72693300  0.25072200  0.59838700  1
  P  P238  1  0.13678200  0.13678200  0.53035700  1
  P  P239  1  0.63678200  0.63678200  0.53035700  1
  P  P240  1  0.13678200  0.63678200  0.53035700  1
  P  P241  1  0.99392500  0.49392500  0.60178600  1
  P  P242  1  0.36979000  0.39357900  0.52695900  1
  P  P243  1  0.73712800  0.48712800  0.60518400  1
  P  P244  1  0.12998500  0.90377400  0.53375600  1
  P  P245  1  0.39357900  0.64357900  0.52695900  1
  P  P246  1  0.00072200  0.72693300  0.59838700  1
  P  P247  1  0.90377400  0.37998500  0.53375600  1
  P  P248  1  0.90377400  0.87998500  0.53375600  1
  P  P249  1  0.25072200  0.50072200  0.59838700  1
  P  P250  1  0.14357900  0.36979000  0.52695900  1
  P  P251  1  0.87998500  0.62998500  0.53375600  1
  P  P252  1  0.98712800  0.26091700  0.60518400  1
  P  P253  1  0.36979000  0.89357900  0.52695900  1
  P  P254  1  0.20821100  0.20821100  0.74464300  1
  P  P255  1  0.70821100  0.70821100  0.74464300  1
  P  P256  1  0.20821100  0.70821100  0.74464300  1
  P  P257  1  0.35106800  0.85106800  0.67321400  1
  P  P258  1  0.44121900  0.46500800  0.74124400  1
  P  P259  1  0.09427100  0.84427100  0.67661300  1
  P  P260  1  0.20141400  0.97520300  0.74804100  1
  P  P261  1  0.46500800  0.71500800  0.74124400  1
  P  P262  1  0.35786500  0.08407600  0.66981600  1
  P  P263  1  0.97520300  0.45141400  0.74804100  1
  P  P264  1  0.97520300  0.95141400  0.74804100  1
  P  P265  1  0.60786500  0.85786500  0.66981600  1
  P  P266  1  0.21500800  0.44121900  0.74124400  1
  P  P267  1  0.95141400  0.70141400  0.74804100  1
  P  P268  1  0.34427100  0.61806000  0.67661300  1
  P  P269  1  0.44121900  0.96500800  0.74124400  1
  P  P270  1  0.85106800  0.85106800  0.67321400  1
  P  P271  1  0.35106800  0.35106800  0.67321400  1
  P  P272  1  0.85106800  0.35106800  0.67321400  1
  P  P273  1  0.70821100  0.20821100  0.74464300  1
  P  P274  1  0.08407600  0.10786500  0.66981600  1
  P  P275  1  0.45141400  0.20141400  0.74804100  1
  P  P276  1  0.84427100  0.61806000  0.67661300  1
  P  P277  1  0.10786500  0.35786500  0.66981600  1
  P  P278  1  0.71500800  0.44121900  0.74124400  1
  P  P279  1  0.61806000  0.09427100  0.67661300  1
  P  P280  1  0.61806000  0.59427100  0.67661300  1
  P  P281  1  0.96500800  0.21500800  0.74124400  1
  P  P282  1  0.85786500  0.08407600  0.66981600  1
  P  P283  1  0.59427100  0.34427100  0.67661300  1
  P  P284  1  0.70141400  0.97520300  0.74804100  1
  P  P285  1  0.08407600  0.60786500  0.66981600  1
