# generated using pymatgen
data_Sr5Mg37
_symmetry_space_group_name_H-M   'P 1'
_cell_length_a   10.60291304
_cell_length_b   10.12691700
_cell_length_c   46.21702700
_cell_angle_alpha   90.00000000
_cell_angle_beta   96.58677806
_cell_angle_gamma   90.00000000
_symmetry_Int_Tables_number   1
_chemical_formula_structural   Sr5Mg37
_chemical_formula_sum   'Sr10 Mg74'
_cell_volume   4929.78851558
_cell_formula_units_Z   2
loop_
 _symmetry_equiv_pos_site_id
 _symmetry_equiv_pos_as_xyz
  1  'x, y, z'
loop_
 _atom_site_type_symbol
 _atom_site_label
 _atom_site_symmetry_multiplicity
 _atom_site_fract_x
 _atom_site_fract_y
 _atom_site_fract_z
 _atom_site_occupancy
  Sr  Sr0  1  0.64033800  0.25000000  0.37894700  1
  Sr  Sr1  1  0.64033800  0.75000000  0.37894700  1
  Sr  Sr2  1  0.17367100  0.75000000  0.44561400  1
  Sr  Sr3  1  0.70700400  0.25000000  0.51228100  1
  Sr  Sr4  1  0.24033800  0.25000000  0.57894700  1
  Sr  Sr5  1  0.24033800  0.75000000  0.57894700  1
  Sr  Sr6  1  0.77367100  0.75000000  0.64561400  1
  Sr  Sr7  1  0.30700400  0.25000000  0.71228100  1
  Sr  Sr8  1  0.84033800  0.25000000  0.77894700  1
  Sr  Sr9  1  0.84033800  0.75000000  0.77894700  1
  Mg  Mg10  1  0.14033800  0.50000000  0.37894700  1
  Mg  Mg11  1  0.14033800  0.00000000  0.37894700  1
  Mg  Mg12  1  0.28961400  0.75000000  0.37154000  1
  Mg  Mg13  1  0.29702100  0.25000000  0.38635400  1
  Mg  Mg14  1  0.99106100  0.25000000  0.38635400  1
  Mg  Mg15  1  0.98365400  0.75000000  0.37154000  1
  Mg  Mg16  1  0.67326800  0.02155600  0.44480900  1
  Mg  Mg17  1  0.47085200  0.02155600  0.54601700  1
  Mg  Mg18  1  0.97689200  0.02155600  0.54601700  1
  Mg  Mg19  1  0.90378300  0.52155600  0.41187800  1
  Mg  Mg20  1  0.70700400  0.59810200  0.51228100  1
  Mg  Mg21  1  0.17367100  0.09810200  0.44561400  1
  Mg  Mg22  1  0.17367100  0.40189800  0.44561400  1
  Mg  Mg23  1  0.70700400  0.90189800  0.51228100  1
  Mg  Mg24  1  0.74033800  0.50000000  0.57894700  1
  Mg  Mg25  1  0.44033800  0.00000000  0.47894700  1
  Mg  Mg26  1  0.94033800  0.00000000  0.47894700  1
  Mg  Mg27  1  0.94033800  0.50000000  0.47894700  1
  Mg  Mg28  1  0.44033800  0.50000000  0.47894700  1
  Mg  Mg29  1  0.74033800  0.00000000  0.57894700  1
  Mg  Mg30  1  0.88961400  0.75000000  0.57154000  1
  Mg  Mg31  1  0.47190200  0.25000000  0.44464800  1
  Mg  Mg32  1  0.05805000  0.25000000  0.50584000  1
  Mg  Mg33  1  0.82262500  0.75000000  0.45205500  1
  Mg  Mg34  1  0.40877300  0.75000000  0.51324700  1
  Mg  Mg35  1  0.89702100  0.25000000  0.58635400  1
  Mg  Mg36  1  0.34951800  0.25000000  0.50584000  1
  Mg  Mg37  1  0.59106100  0.25000000  0.58635400  1
  Mg  Mg38  1  0.87447400  0.25000000  0.44464800  1
  Mg  Mg39  1  0.00620100  0.75000000  0.51324700  1
  Mg  Mg40  1  0.58365400  0.75000000  0.57154000  1
  Mg  Mg41  1  0.53115700  0.75000000  0.45205500  1
  Mg  Mg42  1  0.97689200  0.47844400  0.54601700  1
  Mg  Mg43  1  0.40982300  0.97844400  0.41187800  1
  Mg  Mg44  1  0.20740700  0.97844400  0.51308600  1
  Mg  Mg45  1  0.67326800  0.47844400  0.44480900  1
  Mg  Mg46  1  0.47085200  0.47844400  0.54601700  1
  Mg  Mg47  1  0.40982300  0.52155600  0.41187800  1
  Mg  Mg48  1  0.20740700  0.52155600  0.51308600  1
  Mg  Mg49  1  0.90378300  0.97844400  0.41187800  1
  Mg  Mg50  1  0.27326800  0.02155600  0.64480900  1
  Mg  Mg51  1  0.07085200  0.02155600  0.74601700  1
  Mg  Mg52  1  0.57689200  0.02155600  0.74601700  1
  Mg  Mg53  1  0.50378300  0.52155600  0.61187800  1
  Mg  Mg54  1  0.30700400  0.59810200  0.71228100  1
  Mg  Mg55  1  0.77367100  0.09810200  0.64561400  1
  Mg  Mg56  1  0.77367100  0.40189800  0.64561400  1
  Mg  Mg57  1  0.30700400  0.90189800  0.71228100  1
  Mg  Mg58  1  0.34033800  0.50000000  0.77894700  1
  Mg  Mg59  1  0.04033800  0.00000000  0.67894700  1
  Mg  Mg60  1  0.54033800  0.00000000  0.67894700  1
  Mg  Mg61  1  0.54033800  0.50000000  0.67894700  1
  Mg  Mg62  1  0.04033800  0.50000000  0.67894700  1
  Mg  Mg63  1  0.34033800  0.00000000  0.77894700  1
  Mg  Mg64  1  0.48961400  0.75000000  0.77154000  1
  Mg  Mg65  1  0.07190200  0.25000000  0.64464800  1
  Mg  Mg66  1  0.65805000  0.25000000  0.70584000  1
  Mg  Mg67  1  0.42262500  0.75000000  0.65205500  1
  Mg  Mg68  1  0.00877300  0.75000000  0.71324700  1
  Mg  Mg69  1  0.49702100  0.25000000  0.78635400  1
  Mg  Mg70  1  0.94951800  0.25000000  0.70584000  1
  Mg  Mg71  1  0.19106100  0.25000000  0.78635400  1
  Mg  Mg72  1  0.47447400  0.25000000  0.64464800  1
  Mg  Mg73  1  0.60620100  0.75000000  0.71324700  1
  Mg  Mg74  1  0.18365400  0.75000000  0.77154000  1
  Mg  Mg75  1  0.13115700  0.75000000  0.65205500  1
  Mg  Mg76  1  0.57689200  0.47844400  0.74601700  1
  Mg  Mg77  1  0.00982300  0.97844400  0.61187800  1
  Mg  Mg78  1  0.80740700  0.97844400  0.71308600  1
  Mg  Mg79  1  0.27326800  0.47844400  0.64480900  1
  Mg  Mg80  1  0.07085200  0.47844400  0.74601700  1
  Mg  Mg81  1  0.00982300  0.52155600  0.61187800  1
  Mg  Mg82  1  0.80740700  0.52155600  0.71308600  1
  Mg  Mg83  1  0.50378300  0.97844400  0.61187800  1
