# generated using pymatgen
data_NdMg14
_symmetry_space_group_name_H-M   'P 1'
_cell_length_a   5.92934782
_cell_length_b   7.85671580
_cell_length_c   51.01750000
_cell_angle_alpha   88.74353249
_cell_angle_beta   86.66861141
_cell_angle_gamma   67.83082327
_symmetry_Int_Tables_number   1
_chemical_formula_structural   NdMg14
_chemical_formula_sum   'Nd3 Mg42'
_cell_volume   2197.24346205
_cell_formula_units_Z   3
loop_
 _symmetry_equiv_pos_site_id
 _symmetry_equiv_pos_as_xyz
  1  'x, y, z'
loop_
 _atom_site_type_symbol
 _atom_site_label
 _atom_site_symmetry_multiplicity
 _atom_site_fract_x
 _atom_site_fract_y
 _atom_site_fract_z
 _atom_site_occupancy
  Nd  Nd0  1  0.41008400  0.49851300  0.68131900  1
  Nd  Nd1  1  0.98151300  0.49851300  0.53846200  1
  Nd  Nd2  1  0.55294100  0.49851300  0.39560400  1
  Mg  Mg3  1  0.78850600  0.71127500  0.71171300  1
  Mg  Mg4  1  0.68782300  0.85045700  0.77389800  1
  Mg  Mg5  1  0.03976600  0.14656900  0.77389800  1
  Mg  Mg6  1  0.20897300  0.85045700  0.73159600  1
  Mg  Mg7  1  0.81890000  0.71127500  0.65092400  1
  Mg  Mg8  1  0.91008400  0.99851300  0.68131900  1
  Mg  Mg9  1  0.03166200  0.28575100  0.65092400  1
  Mg  Mg10  1  0.12437000  0.49851300  0.75274700  1
  Mg  Mg11  1  0.56091700  0.14656900  0.73159600  1
  Mg  Mg12  1  0.00126800  0.28575100  0.71171300  1
  Mg  Mg13  1  0.62437000  0.49851300  0.75274700  1
  Mg  Mg14  1  0.41008400  0.99851300  0.68131900  1
  Mg  Mg15  1  0.35993400  0.71127500  0.56885600  1
  Mg  Mg16  1  0.25925100  0.85045700  0.63104100  1
  Mg  Mg17  1  0.61119500  0.14656900  0.63104100  1
  Mg  Mg18  1  0.78040200  0.85045700  0.58873900  1
  Mg  Mg19  1  0.39032900  0.71127500  0.50806700  1
  Mg  Mg20  1  0.48151300  0.99851300  0.53846200  1
  Mg  Mg21  1  0.60309100  0.28575100  0.50806700  1
  Mg  Mg22  1  0.69579800  0.49851300  0.60989000  1
  Mg  Mg23  1  0.13234600  0.14656900  0.58873900  1
  Mg  Mg24  1  0.57269600  0.28575100  0.56885600  1
  Mg  Mg25  1  0.19579800  0.49851300  0.60989000  1
  Mg  Mg26  1  0.98151300  0.99851300  0.53846200  1
  Mg  Mg27  1  0.93136300  0.71127500  0.42599900  1
  Mg  Mg28  1  0.83068000  0.85045700  0.48818400  1
  Mg  Mg29  1  0.18262300  0.14656900  0.48818400  1
  Mg  Mg30  1  0.35183100  0.85045700  0.44588200  1
  Mg  Mg31  1  0.96175800  0.71127500  0.36521000  1
  Mg  Mg32  1  0.05294100  0.99851300  0.39560400  1
  Mg  Mg33  1  0.17451900  0.28575100  0.36521000  1
  Mg  Mg34  1  0.26722700  0.49851300  0.46703300  1
  Mg  Mg35  1  0.70377400  0.14656900  0.44588200  1
  Mg  Mg36  1  0.14412500  0.28575100  0.42599900  1
  Mg  Mg37  1  0.76722700  0.49851300  0.46703300  1
  Mg  Mg38  1  0.55294100  0.99851300  0.39560400  1
  Mg  Mg39  1  0.40210800  0.85045700  0.34532700  1
  Mg  Mg40  1  0.75405200  0.14656900  0.34532700  1
  Mg  Mg41  1  0.92325900  0.85045700  0.30302500  1
  Mg  Mg42  1  0.83865600  0.49851300  0.32417600  1
  Mg  Mg43  1  0.27520300  0.14656900  0.30302500  1
  Mg  Mg44  1  0.33865600  0.49851300  0.32417600  1
