# generated using pymatgen
data_Mg8B55
_symmetry_space_group_name_H-M   'P 1'
_cell_length_a   10.07244113
_cell_length_b   12.05234828
_cell_length_c   43.84258900
_cell_angle_alpha   85.56912893
_cell_angle_beta   87.53461614
_cell_angle_gamma   72.91219278
_symmetry_Int_Tables_number   1
_chemical_formula_structural   Mg8B55
_chemical_formula_sum   'Mg48 B330'
_cell_volume   5071.03078932
_cell_formula_units_Z   6
loop_
 _symmetry_equiv_pos_site_id
 _symmetry_equiv_pos_as_xyz
  1  'x, y, z'
loop_
 _atom_site_type_symbol
 _atom_site_label
 _atom_site_symmetry_multiplicity
 _atom_site_fract_x
 _atom_site_fract_y
 _atom_site_fract_z
 _atom_site_occupancy
  Mg  Mg0  1  0.19739500  0.71493000  0.22031200  1
  Mg  Mg1  1  0.04739500  0.61493000  0.27031200  1
  Mg  Mg2  1  0.35265200  0.24199900  0.20677800  1
  Mg  Mg3  1  0.39213700  0.58786000  0.28384700  1
  Mg  Mg4  1  0.54739500  0.11493000  0.27031300  1
  Mg  Mg5  1  0.69739500  0.21493000  0.22031200  1
  Mg  Mg6  1  0.70265200  0.64199900  0.25677800  1
  Mg  Mg7  1  0.04213700  0.18786000  0.23384700  1
  Mg  Mg8  1  0.89739500  0.51493000  0.32031200  1
  Mg  Mg9  1  0.74739500  0.41493000  0.37031200  1
  Mg  Mg10  1  0.05265200  0.04199900  0.30677800  1
  Mg  Mg11  1  0.09213700  0.38786000  0.38384700  1
  Mg  Mg12  1  0.24739500  0.91493000  0.37031200  1
  Mg  Mg13  1  0.39739500  0.01493000  0.32031200  1
  Mg  Mg14  1  0.40265200  0.44199900  0.35677800  1
  Mg  Mg15  1  0.74213700  0.98786000  0.33384700  1
  Mg  Mg16  1  0.59739500  0.31493000  0.42031200  1
  Mg  Mg17  1  0.44739500  0.21493000  0.47031200  1
  Mg  Mg18  1  0.75265200  0.84199900  0.40677800  1
  Mg  Mg19  1  0.79213700  0.18786000  0.48384700  1
  Mg  Mg20  1  0.94739500  0.71493000  0.47031200  1
  Mg  Mg21  1  0.09739500  0.81493000  0.42031200  1
  Mg  Mg22  1  0.10265200  0.24199900  0.45677800  1
  Mg  Mg23  1  0.44213700  0.78786000  0.43384700  1
  Mg  Mg24  1  0.29739500  0.11493000  0.52031200  1
  Mg  Mg25  1  0.14739500  0.01493000  0.57031200  1
  Mg  Mg26  1  0.45265200  0.64199900  0.50677800  1
  Mg  Mg27  1  0.49213700  0.98786000  0.58384700  1
  Mg  Mg28  1  0.64739500  0.51493000  0.57031200  1
  Mg  Mg29  1  0.79739500  0.61493000  0.52031200  1
  Mg  Mg30  1  0.80265200  0.04199900  0.55677800  1
  Mg  Mg31  1  0.14213700  0.58786000  0.53384700  1
  Mg  Mg32  1  0.99739500  0.91493000  0.62031200  1
  Mg  Mg33  1  0.84739500  0.81493000  0.67031200  1
  Mg  Mg34  1  0.15265200  0.44199900  0.60677800  1
  Mg  Mg35  1  0.19213700  0.78786000  0.68384700  1
  Mg  Mg36  1  0.34739500  0.31493000  0.67031300  1
  Mg  Mg37  1  0.49739500  0.41493000  0.62031300  1
  Mg  Mg38  1  0.50265200  0.84199900  0.65677800  1
  Mg  Mg39  1  0.84213700  0.38786000  0.63384700  1
  Mg  Mg40  1  0.69739500  0.71493000  0.72031300  1
  Mg  Mg41  1  0.54739500  0.61493000  0.77031200  1
  Mg  Mg42  1  0.85265200  0.24199900  0.70677800  1
  Mg  Mg43  1  0.89213700  0.58786000  0.78384700  1
  Mg  Mg44  1  0.04739500  0.11493000  0.77031300  1
  Mg  Mg45  1  0.19739500  0.21493000  0.72031200  1
  Mg  Mg46  1  0.20265200  0.64199900  0.75677800  1
  Mg  Mg47  1  0.54213700  0.18786000  0.73384700  1
  B  B48  1  0.56092600  0.10427900  0.22088900  1
  B  B49  1  0.45433300  0.01757500  0.23290700  1
  B  B50  1  0.30636600  0.91893100  0.28222900  1
  B  B51  1  0.27364500  0.88436000  0.21944900  1
  B  B52  1  0.30548500  0.05271300  0.25948700  1
  B  B53  1  0.28557700  0.02964100  0.21978000  1
  B  B54  1  0.19224200  0.96741800  0.25089100  1
  B  B55  1  0.02052300  0.81382400  0.25471700  1
  B  B56  1  0.49522700  0.27947600  0.24278800  1
  B  B57  1  0.25516400  0.18690100  0.27626100  1
  B  B58  1  0.35103300  0.29304000  0.26734000  1
  B  B59  1  0.50306700  0.39439600  0.21666200  1
  B  B60  1  0.01436000  0.96427400  0.25246300  1
  B  B61  1  0.92102500  0.90205100  0.28357500  1
  B  B62  1  0.82376400  0.92780900  0.20705000  1
  B  B63  1  0.73042900  0.86558500  0.23816200  1
  B  B64  1  0.24172200  0.43546400  0.27396300  1
  B  B65  1  0.39375600  0.53681900  0.22328500  1
  B  B66  1  0.48962500  0.64295800  0.21436400  1
  B  B67  1  0.24956200  0.55038300  0.24783700  1
  B  B68  1  0.72426700  0.01603500  0.23590800  1
  B  B69  1  0.55254700  0.86244200  0.23973400  1
  B  B70  1  0.45921200  0.80021800  0.27084500  1
  B  B71  1  0.43930400  0.77714700  0.23113800  1
  B  B72  1  0.47114400  0.94549900  0.27117600  1
  B  B73  1  0.43842300  0.91092900  0.20839600  1
  B  B74  1  0.29045600  0.81228400  0.25771800  1
  B  B75  1  0.18386300  0.72558000  0.26973600  1
  B  B76  1  0.91092600  0.50427900  0.27088900  1
  B  B77  1  0.80433300  0.41757500  0.28290700  1
  B  B78  1  0.95636600  0.51893100  0.23222900  1
  B  B79  1  0.62364500  0.28436000  0.26944900  1
  B  B80  1  0.95548500  0.65271300  0.20948700  1
  B  B81  1  0.63557700  0.42964100  0.26978000  1
  B  B82  1  0.54224200  0.36741800  0.30089100  1
  B  B83  1  0.67052300  0.41382400  0.20471700  1
  B  B84  1  0.84522700  0.67947600  0.29278800  1
  B  B85  1  0.90516400  0.78690100  0.22626100  1
  B  B86  1  0.00103300  0.89304000  0.21734000  1
  B  B87  1  0.85306700  0.79439600  0.26666200  1
  B  B88  1  0.36436000  0.36427400  0.30246300  1
  B  B89  1  0.57102500  0.50205100  0.23357500  1
  B  B90  1  0.17376400  0.32780900  0.25705000  1
  B  B91  1  0.08042900  0.26558500  0.28816200  1
  B  B92  1  0.89172200  0.03546400  0.22396300  1
  B  B93  1  0.74375600  0.93681900  0.27328500  1
  B  B94  1  0.83962500  0.04295800  0.26436400  1
  B  B95  1  0.59956200  0.95038300  0.29783700  1
  B  B96  1  0.07426700  0.41603500  0.28590800  1
  B  B97  1  0.90254700  0.26244200  0.28973400  1
  B  B98  1  0.10921200  0.40021800  0.22084500  1
  B  B99  1  0.78930400  0.17714700  0.28113800  1
  B  B100  1  0.12114400  0.54549900  0.22117600  1
  B  B101  1  0.78842300  0.31092900  0.25839600  1
  B  B102  1  0.94045600  0.41228400  0.20771800  1
  B  B103  1  0.83386300  0.32558000  0.21973600  1
  B  B104  1  0.26092600  0.90427900  0.32088900  1
  B  B105  1  0.15433300  0.81757500  0.33290700  1
  B  B106  1  0.00636600  0.71893100  0.38222900  1
  B  B107  1  0.97364500  0.68436000  0.31944900  1
  B  B108  1  0.00548500  0.85271300  0.35948700  1
  B  B109  1  0.98557700  0.82964100  0.31978000  1
  B  B110  1  0.89224200  0.76741800  0.35089100  1
  B  B111  1  0.72052300  0.61382400  0.35471700  1
  B  B112  1  0.19522700  0.07947600  0.34278800  1
  B  B113  1  0.95516400  0.98690100  0.37626100  1
  B  B114  1  0.05103300  0.09304000  0.36734000  1
  B  B115  1  0.20306700  0.19439600  0.31666200  1
  B  B116  1  0.71436000  0.76427400  0.35246300  1
  B  B117  1  0.62102500  0.70205100  0.38357500  1
  B  B118  1  0.52376400  0.72780900  0.30705000  1
  B  B119  1  0.43042900  0.66558500  0.33816200  1
  B  B120  1  0.94172200  0.23546400  0.37396300  1
  B  B121  1  0.09375600  0.33681900  0.32328500  1
  B  B122  1  0.18962500  0.44295800  0.31436400  1
  B  B123  1  0.94956200  0.35038300  0.34783700  1
  B  B124  1  0.42426700  0.81603500  0.33590800  1
  B  B125  1  0.25254700  0.66244200  0.33973400  1
  B  B126  1  0.15921200  0.60021800  0.37084500  1
  B  B127  1  0.13930400  0.57714700  0.33113800  1
  B  B128  1  0.17114400  0.74549900  0.37117600  1
  B  B129  1  0.13842300  0.71092900  0.30839600  1
  B  B130  1  0.99045600  0.61228400  0.35771800  1
  B  B131  1  0.88386300  0.52558000  0.36973600  1
  B  B132  1  0.61092600  0.30427900  0.37088900  1
  B  B133  1  0.50433300  0.21757500  0.38290700  1
  B  B134  1  0.65636600  0.31893100  0.33222900  1
  B  B135  1  0.32364500  0.08436000  0.36944900  1
  B  B136  1  0.65548500  0.45271300  0.30948700  1
  B  B137  1  0.33557700  0.22964100  0.36978000  1
  B  B138  1  0.24224200  0.16741800  0.40089100  1
  B  B139  1  0.37052300  0.21382400  0.30471700  1
  B  B140  1  0.54522700  0.47947600  0.39278800  1
  B  B141  1  0.60516400  0.58690100  0.32626100  1
  B  B142  1  0.70103300  0.69304000  0.31734000  1
  B  B143  1  0.55306700  0.59439600  0.36666200  1
  B  B144  1  0.06436000  0.16427400  0.40246300  1
  B  B145  1  0.27102500  0.30205100  0.33357500  1
  B  B146  1  0.87376400  0.12780900  0.35705000  1
  B  B147  1  0.78042900  0.06558500  0.38816200  1
  B  B148  1  0.59172200  0.83546400  0.32396300  1
  B  B149  1  0.44375600  0.73681900  0.37328500  1
  B  B150  1  0.53962500  0.84295800  0.36436400  1
  B  B151  1  0.29956200  0.75038300  0.39783700  1
  B  B152  1  0.77426700  0.21603500  0.38590800  1
  B  B153  1  0.60254700  0.06244200  0.38973400  1
  B  B154  1  0.80921200  0.20021800  0.32084500  1
  B  B155  1  0.48930400  0.97714700  0.38113800  1
  B  B156  1  0.82114400  0.34549900  0.32117600  1
  B  B157  1  0.48842300  0.11092900  0.35839600  1
  B  B158  1  0.64045600  0.21228400  0.30771800  1
  B  B159  1  0.53386300  0.12558000  0.31973600  1
  B  B160  1  0.96092600  0.70427900  0.42088900  1
  B  B161  1  0.85433300  0.61757500  0.43290700  1
  B  B162  1  0.70636600  0.51893100  0.48222900  1
  B  B163  1  0.67364500  0.48436000  0.41944900  1
  B  B164  1  0.70548500  0.65271300  0.45948700  1
  B  B165  1  0.68557700  0.62964100  0.41978000  1
  B  B166  1  0.59224200  0.56741800  0.45089100  1
  B  B167  1  0.42052300  0.41382400  0.45471700  1
  B  B168  1  0.89522700  0.87947600  0.44278800  1
  B  B169  1  0.65516400  0.78690100  0.47626100  1
  B  B170  1  0.75103300  0.89304000  0.46734000  1
  B  B171  1  0.90306700  0.99439600  0.41666200  1
  B  B172  1  0.41436000  0.56427400  0.45246300  1
  B  B173  1  0.32102500  0.50205100  0.48357500  1
  B  B174  1  0.22376400  0.52780900  0.40705000  1
  B  B175  1  0.13042900  0.46558500  0.43816200  1
  B  B176  1  0.64172200  0.03546400  0.47396300  1
  B  B177  1  0.79375600  0.13681900  0.42328500  1
  B  B178  1  0.88962500  0.24295800  0.41436400  1
  B  B179  1  0.64956200  0.15038300  0.44783700  1
  B  B180  1  0.12426700  0.61603500  0.43590800  1
  B  B181  1  0.95254700  0.46244200  0.43973400  1
  B  B182  1  0.85921200  0.40021800  0.47084500  1
  B  B183  1  0.83930400  0.37714700  0.43113800  1
  B  B184  1  0.87114400  0.54549900  0.47117600  1
  B  B185  1  0.83842300  0.51092900  0.40839600  1
  B  B186  1  0.69045600  0.41228400  0.45771800  1
  B  B187  1  0.58386300  0.32558000  0.46973600  1
  B  B188  1  0.31092600  0.10427900  0.47088900  1
  B  B189  1  0.20433300  0.01757500  0.48290700  1
  B  B190  1  0.35636600  0.11893100  0.43222900  1
  B  B191  1  0.02364500  0.88436000  0.46944900  1
  B  B192  1  0.35548500  0.25271300  0.40948700  1
  B  B193  1  0.03557700  0.02964100  0.46978000  1
  B  B194  1  0.94224200  0.96741800  0.50089100  1
  B  B195  1  0.07052300  0.01382400  0.40471700  1
  B  B196  1  0.24522700  0.27947600  0.49278800  1
  B  B197  1  0.30516400  0.38690100  0.42626100  1
  B  B198  1  0.40103300  0.49304000  0.41734000  1
  B  B199  1  0.25306700  0.39439600  0.46666200  1
  B  B200  1  0.76436000  0.96427400  0.50246300  1
  B  B201  1  0.97102500  0.10205100  0.43357500  1
  B  B202  1  0.57376400  0.92780900  0.45705000  1
  B  B203  1  0.48042900  0.86558500  0.48816200  1
  B  B204  1  0.29172200  0.63546400  0.42396300  1
  B  B205  1  0.14375600  0.53681900  0.47328500  1
  B  B206  1  0.23962500  0.64295800  0.46436400  1
  B  B207  1  0.99956200  0.55038300  0.49783700  1
  B  B208  1  0.47426700  0.01603500  0.48590800  1
  B  B209  1  0.30254700  0.86244200  0.48973400  1
  B  B210  1  0.50921200  0.00021800  0.42084500  1
  B  B211  1  0.18930400  0.77714700  0.48113800  1
  B  B212  1  0.52114400  0.14549900  0.42117600  1
  B  B213  1  0.18842300  0.91092900  0.45839600  1
  B  B214  1  0.34045600  0.01228400  0.40771800  1
  B  B215  1  0.23386300  0.92558000  0.41973600  1
  B  B216  1  0.66092600  0.50427900  0.52088900  1
  B  B217  1  0.55433300  0.41757500  0.53290700  1
  B  B218  1  0.40636600  0.31893100  0.58222900  1
  B  B219  1  0.37364500  0.28436000  0.51944900  1
  B  B220  1  0.40548500  0.45271300  0.55948700  1
  B  B221  1  0.38557700  0.42964100  0.51978000  1
  B  B222  1  0.29224200  0.36741800  0.55089100  1
  B  B223  1  0.12052300  0.21382400  0.55471700  1
  B  B224  1  0.59522700  0.67947600  0.54278800  1
  B  B225  1  0.35516400  0.58690100  0.57626100  1
  B  B226  1  0.45103300  0.69304000  0.56734000  1
  B  B227  1  0.60306700  0.79439600  0.51666200  1
  B  B228  1  0.11436000  0.36427400  0.55246300  1
  B  B229  1  0.02102500  0.30205100  0.58357500  1
  B  B230  1  0.92376400  0.32780900  0.50705000  1
  B  B231  1  0.83042900  0.26558500  0.53816200  1
  B  B232  1  0.34172200  0.83546400  0.57396300  1
  B  B233  1  0.49375600  0.93681900  0.52328500  1
  B  B234  1  0.58962500  0.04295800  0.51436400  1
  B  B235  1  0.34956200  0.95038300  0.54783700  1
  B  B236  1  0.82426700  0.41603500  0.53590800  1
  B  B237  1  0.65254700  0.26244200  0.53973400  1
  B  B238  1  0.55921200  0.20021800  0.57084500  1
  B  B239  1  0.53930400  0.17714700  0.53113800  1
  B  B240  1  0.57114400  0.34549900  0.57117600  1
  B  B241  1  0.53842300  0.31092900  0.50839600  1
  B  B242  1  0.39045600  0.21228400  0.55771800  1
  B  B243  1  0.28386300  0.12558000  0.56973600  1
  B  B244  1  0.01092600  0.90427900  0.57088900  1
  B  B245  1  0.90433300  0.81757500  0.58290700  1
  B  B246  1  0.05636600  0.91893100  0.53222900  1
  B  B247  1  0.72364500  0.68436000  0.56944900  1
  B  B248  1  0.05548500  0.05271300  0.50948700  1
  B  B249  1  0.73557700  0.82964100  0.56978000  1
  B  B250  1  0.64224200  0.76741800  0.60089100  1
  B  B251  1  0.77052300  0.81382400  0.50471700  1
  B  B252  1  0.94522700  0.07947600  0.59278800  1
  B  B253  1  0.00516400  0.18690100  0.52626100  1
  B  B254  1  0.10103300  0.29304000  0.51734000  1
  B  B255  1  0.95306700  0.19439600  0.56666200  1
  B  B256  1  0.46436000  0.76427400  0.60246300  1
  B  B257  1  0.67102500  0.90205100  0.53357500  1
  B  B258  1  0.27376400  0.72780900  0.55705000  1
  B  B259  1  0.18042900  0.66558500  0.58816200  1
  B  B260  1  0.99172200  0.43546400  0.52396300  1
  B  B261  1  0.84375600  0.33681900  0.57328500  1
  B  B262  1  0.93962500  0.44295800  0.56436400  1
  B  B263  1  0.69956200  0.35038300  0.59783700  1
  B  B264  1  0.17426700  0.81603500  0.58590800  1
  B  B265  1  0.00254700  0.66244200  0.58973400  1
  B  B266  1  0.20921200  0.80021800  0.52084500  1
  B  B267  1  0.88930400  0.57714700  0.58113800  1
  B  B268  1  0.22114400  0.94549900  0.52117600  1
  B  B269  1  0.88842300  0.71092900  0.55839600  1
  B  B270  1  0.04045600  0.81228400  0.50771800  1
  B  B271  1  0.93386300  0.72558000  0.51973600  1
  B  B272  1  0.36092600  0.30427900  0.62088900  1
  B  B273  1  0.25433300  0.21757500  0.63290700  1
  B  B274  1  0.10636600  0.11893100  0.68222900  1
  B  B275  1  0.07364500  0.08436000  0.61944900  1
  B  B276  1  0.10548500  0.25271300  0.65948700  1
  B  B277  1  0.08557700  0.22964100  0.61978000  1
  B  B278  1  0.99224200  0.16741800  0.65089100  1
  B  B279  1  0.82052300  0.01382400  0.65471700  1
  B  B280  1  0.29522700  0.47947600  0.64278800  1
  B  B281  1  0.05516400  0.38690100  0.67626100  1
  B  B282  1  0.15103300  0.49304000  0.66734000  1
  B  B283  1  0.30306700  0.59439600  0.61666200  1
  B  B284  1  0.81436000  0.16427400  0.65246300  1
  B  B285  1  0.72102500  0.10205100  0.68357500  1
  B  B286  1  0.62376400  0.12780900  0.60705000  1
  B  B287  1  0.53042900  0.06558500  0.63816200  1
  B  B288  1  0.04172200  0.63546400  0.67396300  1
  B  B289  1  0.19375600  0.73681900  0.62328500  1
  B  B290  1  0.28962500  0.84295800  0.61436400  1
  B  B291  1  0.04956200  0.75038300  0.64783700  1
  B  B292  1  0.52426700  0.21603500  0.63590800  1
  B  B293  1  0.35254700  0.06244200  0.63973400  1
  B  B294  1  0.25921200  0.00021800  0.67084500  1
  B  B295  1  0.23930400  0.97714700  0.63113800  1
  B  B296  1  0.27114400  0.14549900  0.67117600  1
  B  B297  1  0.23842300  0.11092900  0.60839600  1
  B  B298  1  0.09045600  0.01228400  0.65771800  1
  B  B299  1  0.98386300  0.92558000  0.66973600  1
  B  B300  1  0.71092600  0.70427900  0.67088900  1
  B  B301  1  0.60433300  0.61757500  0.68290700  1
  B  B302  1  0.75636600  0.71893100  0.63222900  1
  B  B303  1  0.42364500  0.48436000  0.66944900  1
  B  B304  1  0.75548500  0.85271300  0.60948700  1
  B  B305  1  0.43557700  0.62964100  0.66978000  1
  B  B306  1  0.34224200  0.56741800  0.70089100  1
  B  B307  1  0.47052300  0.61382400  0.60471700  1
  B  B308  1  0.64522700  0.87947600  0.69278800  1
  B  B309  1  0.70516400  0.98690100  0.62626100  1
  B  B310  1  0.80103300  0.09304000  0.61734000  1
  B  B311  1  0.65306700  0.99439600  0.66666200  1
  B  B312  1  0.16436000  0.56427400  0.70246300  1
  B  B313  1  0.37102500  0.70205100  0.63357500  1
  B  B314  1  0.97376400  0.52780900  0.65705000  1
  B  B315  1  0.88042900  0.46558500  0.68816200  1
  B  B316  1  0.69172200  0.23546400  0.62396300  1
  B  B317  1  0.54375600  0.13681900  0.67328500  1
  B  B318  1  0.63962500  0.24295800  0.66436400  1
  B  B319  1  0.39956200  0.15038300  0.69783700  1
  B  B320  1  0.87426700  0.61603500  0.68590800  1
  B  B321  1  0.70254700  0.46244200  0.68973400  1
  B  B322  1  0.90921200  0.60021800  0.62084500  1
  B  B323  1  0.58930400  0.37714700  0.68113800  1
  B  B324  1  0.92114400  0.74549900  0.62117600  1
  B  B325  1  0.58842300  0.51092900  0.65839600  1
  B  B326  1  0.74045600  0.61228400  0.60771800  1
  B  B327  1  0.63386300  0.52558000  0.61973600  1
  B  B328  1  0.06092600  0.10427900  0.72088900  1
  B  B329  1  0.95433300  0.01757500  0.73290700  1
  B  B330  1  0.80636600  0.91893100  0.78222900  1
  B  B331  1  0.77364500  0.88436000  0.71944900  1
  B  B332  1  0.80548500  0.05271300  0.75948700  1
  B  B333  1  0.78557700  0.02964100  0.71978000  1
  B  B334  1  0.69224200  0.96741800  0.75089100  1
  B  B335  1  0.52052300  0.81382400  0.75471700  1
  B  B336  1  0.99522700  0.27947600  0.74278800  1
  B  B337  1  0.75516400  0.18690100  0.77626100  1
  B  B338  1  0.85103300  0.29304000  0.76734000  1
  B  B339  1  0.00306700  0.39439600  0.71666200  1
  B  B340  1  0.51436000  0.96427400  0.75246300  1
  B  B341  1  0.42102500  0.90205100  0.78357500  1
  B  B342  1  0.32376400  0.92780900  0.70705000  1
  B  B343  1  0.23042900  0.86558500  0.73816200  1
  B  B344  1  0.74172200  0.43546400  0.77396300  1
  B  B345  1  0.89375600  0.53681900  0.72328500  1
  B  B346  1  0.98962500  0.64295800  0.71436400  1
  B  B347  1  0.74956200  0.55038300  0.74783700  1
  B  B348  1  0.22426700  0.01603500  0.73590800  1
  B  B349  1  0.05254700  0.86244200  0.73973400  1
  B  B350  1  0.95921200  0.80021800  0.77084500  1
  B  B351  1  0.93930400  0.77714700  0.73113800  1
  B  B352  1  0.97114400  0.94549900  0.77117600  1
  B  B353  1  0.93842300  0.91092900  0.70839600  1
  B  B354  1  0.79045600  0.81228400  0.75771800  1
  B  B355  1  0.68386300  0.72558000  0.76973600  1
  B  B356  1  0.41092600  0.50427900  0.77088900  1
  B  B357  1  0.30433300  0.41757500  0.78290700  1
  B  B358  1  0.45636600  0.51893100  0.73222900  1
  B  B359  1  0.12364500  0.28436000  0.76944900  1
  B  B360  1  0.45548500  0.65271300  0.70948700  1
  B  B361  1  0.13557700  0.42964100  0.76978000  1
  B  B362  1  0.17052300  0.41382400  0.70471700  1
  B  B363  1  0.40516400  0.78690100  0.72626100  1
  B  B364  1  0.50103300  0.89304000  0.71734000  1
  B  B365  1  0.35306700  0.79439600  0.76666200  1
  B  B366  1  0.07102500  0.50205100  0.73357500  1
  B  B367  1  0.67376400  0.32780900  0.75705000  1
  B  B368  1  0.39172200  0.03546400  0.72396300  1
  B  B369  1  0.24375600  0.93681900  0.77328500  1
  B  B370  1  0.33962500  0.04295800  0.76436400  1
  B  B371  1  0.57426700  0.41603500  0.78590800  1
  B  B372  1  0.60921200  0.40021800  0.72084500  1
  B  B373  1  0.28930400  0.17714700  0.78113800  1
  B  B374  1  0.62114400  0.54549900  0.72117600  1
  B  B375  1  0.28842300  0.31092900  0.75839600  1
  B  B376  1  0.44045600  0.41228400  0.70771800  1
  B  B377  1  0.33386300  0.32558000  0.71973600  1
