# generated using pymatgen
data_Mg2Ir3
_symmetry_space_group_name_H-M   'P 1'
_cell_length_a   9.72091561
_cell_length_b   10.02721097
_cell_length_c   44.35051200
_cell_angle_alpha   96.44506080
_cell_angle_beta   93.67631499
_cell_angle_gamma   75.98716788
_symmetry_Int_Tables_number   1
_chemical_formula_structural   Mg2Ir3
_chemical_formula_sum   'Mg52 Ir78'
_cell_volume   4164.79217447
_cell_formula_units_Z   26
loop_
 _symmetry_equiv_pos_site_id
 _symmetry_equiv_pos_as_xyz
  1  'x, y, z'
loop_
 _atom_site_type_symbol
 _atom_site_label
 _atom_site_symmetry_multiplicity
 _atom_site_fract_x
 _atom_site_fract_y
 _atom_site_fract_z
 _atom_site_occupancy
  Mg  Mg0  1  0.28072400  0.67181300  0.72045300  1
  Mg  Mg1  1  0.19927600  0.95842200  0.75954700  1
  Mg  Mg2  1  0.83200800  0.38043500  0.72287400  1
  Mg  Mg3  1  0.64799200  0.24980100  0.75712600  1
  Mg  Mg4  1  0.33689500  0.41673400  0.75537500  1
  Mg  Mg5  1  0.14310500  0.21350100  0.72462500  1
  Mg  Mg6  1  0.64258100  0.98694900  0.79798100  1
  Mg  Mg7  1  0.93741900  0.94328600  0.78201900  1
  Mg  Mg8  1  0.79810500  0.68179800  0.75604100  1
  Mg  Mg9  1  0.68189500  0.94843700  0.72395900  1
  Mg  Mg10  1  0.18072400  0.37181300  0.62045300  1
  Mg  Mg11  1  0.09927600  0.65842200  0.65954700  1
  Mg  Mg12  1  0.73200800  0.08043500  0.62287400  1
  Mg  Mg13  1  0.54799200  0.94980100  0.65712600  1
  Mg  Mg14  1  0.23689500  0.11673400  0.65537500  1
  Mg  Mg15  1  0.04310500  0.91350100  0.62462500  1
  Mg  Mg16  1  0.54258100  0.68694900  0.69798100  1
  Mg  Mg17  1  0.83741900  0.64328600  0.68201900  1
  Mg  Mg18  1  0.69810500  0.38179800  0.65604100  1
  Mg  Mg19  1  0.58189500  0.64843700  0.62395900  1
  Mg  Mg20  1  0.08072400  0.07181300  0.52045300  1
  Mg  Mg21  1  0.99927600  0.35842200  0.55954700  1
  Mg  Mg22  1  0.63200800  0.78043500  0.52287400  1
  Mg  Mg23  1  0.44799200  0.64980100  0.55712600  1
  Mg  Mg24  1  0.13689500  0.81673400  0.55537500  1
  Mg  Mg25  1  0.94310500  0.61350100  0.52462500  1
  Mg  Mg26  1  0.44258100  0.38694900  0.59798100  1
  Mg  Mg27  1  0.73741900  0.34328600  0.58201900  1
  Mg  Mg28  1  0.59810500  0.08179800  0.55604100  1
  Mg  Mg29  1  0.48189500  0.34843700  0.52395900  1
  Mg  Mg30  1  0.98072400  0.77181300  0.42045300  1
  Mg  Mg31  1  0.89927600  0.05842200  0.45954700  1
  Mg  Mg32  1  0.53200800  0.48043500  0.42287400  1
  Mg  Mg33  1  0.34799200  0.34980100  0.45712600  1
  Mg  Mg34  1  0.03689500  0.51673400  0.45537500  1
  Mg  Mg35  1  0.84310500  0.31350100  0.42462500  1
  Mg  Mg36  1  0.34258100  0.08694900  0.49798100  1
  Mg  Mg37  1  0.63741900  0.04328600  0.48201900  1
  Mg  Mg38  1  0.49810500  0.78179800  0.45604100  1
  Mg  Mg39  1  0.38189500  0.04843700  0.42395900  1
  Mg  Mg40  1  0.88072400  0.47181300  0.32045300  1
  Mg  Mg41  1  0.79927600  0.75842200  0.35954700  1
  Mg  Mg42  1  0.43200800  0.18043500  0.32287400  1
  Mg  Mg43  1  0.24799200  0.04980100  0.35712600  1
  Mg  Mg44  1  0.93689500  0.21673400  0.35537500  1
  Mg  Mg45  1  0.74310500  0.01350100  0.32462500  1
  Mg  Mg46  1  0.24258100  0.78694900  0.39798100  1
  Mg  Mg47  1  0.53741900  0.74328600  0.38201900  1
  Mg  Mg48  1  0.39810500  0.48179800  0.35604100  1
  Mg  Mg49  1  0.28189500  0.74843700  0.32395900  1
  Mg  Mg50  1  0.14258100  0.48694900  0.29798100  1
  Mg  Mg51  1  0.43741900  0.44328600  0.28201900  1
  Ir  Ir52  1  0.49370100  0.83463000  0.75594400  1
  Ir  Ir53  1  0.98629900  0.79560600  0.72405600  1
  Ir  Ir54  1  0.05699700  0.52891900  0.72111000  1
  Ir  Ir55  1  0.42300300  0.10131600  0.75889000  1
  Ir  Ir56  1  0.37290600  0.95102400  0.70879300  1
  Ir  Ir57  1  0.10709400  0.67921100  0.77120700  1
  Ir  Ir58  1  0.79000000  0.46511800  0.79000000  1
  Ir  Ir59  1  0.22463300  0.23021200  0.79270600  1
  Ir  Ir60  1  0.35536700  0.70002300  0.78729400  1
  Ir  Ir61  1  0.04476200  0.44755000  0.77310600  1
  Ir  Ir62  1  0.43523800  0.18268600  0.70689400  1
  Ir  Ir63  1  0.52373800  0.41503100  0.70527400  1
  Ir  Ir64  1  0.95626200  0.21520400  0.77472600  1
  Ir  Ir65  1  0.90947400  0.07484100  0.72793900  1
  Ir  Ir66  1  0.57052600  0.55539400  0.75206100  1
  Ir  Ir67  1  0.39370100  0.53463000  0.65594400  1
  Ir  Ir68  1  0.88629900  0.49560600  0.62405600  1
  Ir  Ir69  1  0.95699700  0.22891900  0.62111000  1
  Ir  Ir70  1  0.32300300  0.80131600  0.65889000  1
  Ir  Ir71  1  0.27290600  0.65102400  0.60879300  1
  Ir  Ir72  1  0.00709400  0.37921100  0.67120700  1
  Ir  Ir73  1  0.69000000  0.16511800  0.69000000  1
  Ir  Ir74  1  0.12463300  0.93021200  0.69270600  1
  Ir  Ir75  1  0.25536700  0.40002300  0.68729400  1
  Ir  Ir76  1  0.94476200  0.14755000  0.67310600  1
  Ir  Ir77  1  0.33523800  0.88268600  0.60689400  1
  Ir  Ir78  1  0.42373800  0.11503100  0.60527400  1
  Ir  Ir79  1  0.85626200  0.91520400  0.67472600  1
  Ir  Ir80  1  0.80947400  0.77484100  0.62793900  1
  Ir  Ir81  1  0.47052600  0.25539400  0.65206100  1
  Ir  Ir82  1  0.29370100  0.23463000  0.55594400  1
  Ir  Ir83  1  0.78629900  0.19560600  0.52405600  1
  Ir  Ir84  1  0.85699700  0.92891900  0.52111000  1
  Ir  Ir85  1  0.22300300  0.50131600  0.55889000  1
  Ir  Ir86  1  0.17290600  0.35102400  0.50879300  1
  Ir  Ir87  1  0.90709400  0.07921100  0.57120700  1
  Ir  Ir88  1  0.59000000  0.86511800  0.59000000  1
  Ir  Ir89  1  0.02463300  0.63021200  0.59270600  1
  Ir  Ir90  1  0.15536700  0.10002300  0.58729400  1
  Ir  Ir91  1  0.84476200  0.84755000  0.57310600  1
  Ir  Ir92  1  0.23523800  0.58268600  0.50689400  1
  Ir  Ir93  1  0.32373800  0.81503100  0.50527400  1
  Ir  Ir94  1  0.75626200  0.61520400  0.57472600  1
  Ir  Ir95  1  0.70947400  0.47484100  0.52793900  1
  Ir  Ir96  1  0.37052600  0.95539400  0.55206100  1
  Ir  Ir97  1  0.19370100  0.93463000  0.45594400  1
  Ir  Ir98  1  0.68629900  0.89560600  0.42405600  1
  Ir  Ir99  1  0.75699700  0.62891900  0.42111000  1
  Ir  Ir100  1  0.12300300  0.20131600  0.45889000  1
  Ir  Ir101  1  0.07290600  0.05102400  0.40879300  1
  Ir  Ir102  1  0.80709400  0.77921100  0.47120700  1
  Ir  Ir103  1  0.49000000  0.56511800  0.49000000  1
  Ir  Ir104  1  0.92463300  0.33021200  0.49270600  1
  Ir  Ir105  1  0.05536700  0.80002300  0.48729400  1
  Ir  Ir106  1  0.74476200  0.54755000  0.47310600  1
  Ir  Ir107  1  0.13523800  0.28268600  0.40689400  1
  Ir  Ir108  1  0.22373800  0.51503100  0.40527400  1
  Ir  Ir109  1  0.65626200  0.31520400  0.47472600  1
  Ir  Ir110  1  0.60947400  0.17484100  0.42793900  1
  Ir  Ir111  1  0.27052600  0.65539400  0.45206100  1
  Ir  Ir112  1  0.09370100  0.63463000  0.35594400  1
  Ir  Ir113  1  0.58629900  0.59560600  0.32405600  1
  Ir  Ir114  1  0.65699700  0.32891900  0.32111000  1
  Ir  Ir115  1  0.02300300  0.90131600  0.35889000  1
  Ir  Ir116  1  0.97290600  0.75102400  0.30879300  1
  Ir  Ir117  1  0.70709400  0.47921100  0.37120700  1
  Ir  Ir118  1  0.39000000  0.26511800  0.39000000  1
  Ir  Ir119  1  0.82463300  0.03021200  0.39270600  1
  Ir  Ir120  1  0.95536700  0.50002300  0.38729400  1
  Ir  Ir121  1  0.64476200  0.24755000  0.37310600  1
  Ir  Ir122  1  0.03523800  0.98268600  0.30689400  1
  Ir  Ir123  1  0.12373800  0.21503100  0.30527400  1
  Ir  Ir124  1  0.55626200  0.01520400  0.37472600  1
  Ir  Ir125  1  0.50947400  0.87484100  0.32793900  1
  Ir  Ir126  1  0.17052600  0.35539400  0.35206100  1
  Ir  Ir127  1  0.29000000  0.96511800  0.29000000  1
  Ir  Ir128  1  0.72463300  0.73021200  0.29270600  1
  Ir  Ir129  1  0.85536700  0.20002300  0.28729400  1
