# generated using pymatgen
data_Mg32Zn57
_symmetry_space_group_name_H-M   'P 1'
_cell_length_a   5.07402260
_cell_length_b   13.26606241
_cell_length_c   57.00757700
_cell_angle_alpha   92.18610401
_cell_angle_beta   87.66012493
_cell_angle_gamma   100.62858194
_symmetry_Int_Tables_number   1
_chemical_formula_structural   Mg32Zn57
_chemical_formula_sum   'Mg32 Zn57'
_cell_volume   3766.49990850
_cell_formula_units_Z   1
loop_
 _symmetry_equiv_pos_site_id
 _symmetry_equiv_pos_as_xyz
  1  'x, y, z'
loop_
 _atom_site_type_symbol
 _atom_site_label
 _atom_site_symmetry_multiplicity
 _atom_site_fract_x
 _atom_site_fract_y
 _atom_site_fract_z
 _atom_site_occupancy
  Mg  Mg0  1  0.22714500  0.60034900  0.39768200  1
  Mg  Mg1  1  0.43664500  0.96717700  0.35108400  1
  Mg  Mg2  1  0.77703900  0.72106700  0.41183200  1
  Mg  Mg3  1  0.10255600  0.39103700  0.42974100  1
  Mg  Mg4  1  0.87555900  0.93153000  0.43362300  1
  Mg  Mg5  1  0.35827600  0.86368000  0.39895500  1
  Mg  Mg6  1  0.10460700  0.44510300  0.48552000  1
  Mg  Mg7  1  0.54799000  0.20749500  0.35993500  1
  Mg  Mg8  1  0.42545300  0.05224800  0.44777200  1
  Mg  Mg9  1  0.55004200  0.26156100  0.41571400  1
  Mg  Mg10  1  0.21595200  0.68542100  0.49437100  1
  Mg  Mg11  1  0.29432100  0.78891800  0.44649900  1
  Mg  Mg12  1  0.97714500  0.35034900  0.64768200  1
  Mg  Mg13  1  0.18664500  0.71717700  0.60108400  1
  Mg  Mg14  1  0.53856900  0.34799900  0.51080700  1
  Mg  Mg15  1  0.52703900  0.47106700  0.66183200  1
  Mg  Mg16  1  0.65967600  0.64507900  0.57326600  1
  Mg  Mg17  1  0.85255600  0.14103700  0.67974100  1
  Mg  Mg18  1  0.54306500  0.40069800  0.56686300  1
  Mg  Mg19  1  0.62555900  0.68153000  0.68362300  1
  Mg  Mg20  1  0.97975500  0.30061600  0.59177300  1
  Mg  Mg21  1  0.74292100  0.75751900  0.52218900  1
  Mg  Mg22  1  0.86402900  0.05459900  0.58464800  1
  Mg  Mg23  1  0.42284300  0.10198100  0.50368100  1
  Mg  Mg24  1  0.10827600  0.61368000  0.64895500  1
  Mg  Mg25  1  0.85460700  0.19510300  0.73552000  1
  Mg  Mg26  1  0.29799000  0.95749500  0.60993500  1
  Mg  Mg27  1  0.85953300  0.00190000  0.52859100  1
  Mg  Mg28  1  0.17545300  0.80224800  0.69777200  1
  Mg  Mg29  1  0.30004200  0.01156100  0.66571400  1
  Mg  Mg30  1  0.96595200  0.43542100  0.74437100  1
  Mg  Mg31  1  0.04432100  0.53891800  0.69649900  1
  Zn  Zn32  1  0.89056000  0.90770900  0.37707400  1
  Zn  Zn33  1  0.08719500  0.90895300  0.48480500  1
  Zn  Zn34  1  0.07131400  0.74804200  0.36034400  1
  Zn  Zn35  1  0.04725000  0.23554000  0.38845400  1
  Zn  Zn36  1  0.88902500  0.40105300  0.37884600  1
  Zn  Zn37  1  0.66578100  0.49431200  0.41352600  1
  Zn  Zn38  1  0.65829400  0.56821200  0.48963300  1
  Zn  Zn39  1  0.76203700  0.74488800  0.46838000  1
  Zn  Zn40  1  0.60534800  0.41705800  0.45700100  1
  Zn  Zn41  1  0.43638000  0.58968100  0.44764200  1
  Zn  Zn42  1  0.58128300  0.90455500  0.48511000  1
  Zn  Zn43  1  0.21621800  0.06291700  0.39781300  1
  Zn  Zn44  1  0.73427700  0.57728900  0.36886200  1
  Zn  Zn45  1  0.38407900  0.39941700  0.37897800  1
  Zn  Zn46  1  0.95155500  0.59277700  0.44718700  1
  Zn  Zn47  1  0.91832000  0.07530800  0.47659300  1
  Zn  Zn48  1  0.70104300  0.05982100  0.39826800  1
  Zn  Zn49  1  0.99430400  0.08438600  0.35582200  1
  Zn  Zn50  1  0.26851900  0.25318100  0.46647700  1
  Zn  Zn51  1  0.56540300  0.74364500  0.36065000  1
  Zn  Zn52  1  0.76357200  0.25154400  0.46660800  1
  Zn  Zn53  1  0.98681700  0.15828600  0.43192800  1
  Zn  Zn54  1  0.10693000  0.52743200  0.57080000  1
  Zn  Zn55  1  0.64056000  0.65770900  0.62707400  1
  Zn  Zn56  1  0.41386700  0.17417400  0.58844000  1
  Zn  Zn57  1  0.83719500  0.65895300  0.73480500  1
  Zn  Zn58  1  0.52623300  0.86067300  0.56691800  1
  Zn  Zn59  1  0.82131400  0.49804200  0.61034400  1
  Zn  Zn60  1  0.70129900  0.20129900  0.54772700  1
  Zn  Zn61  1  0.29566700  0.87516600  0.52465500  1
  Zn  Zn62  1  0.79725000  0.98554000  0.63845400  1
  Zn  Zn63  1  0.38261400  0.54157600  0.52850800  1
  Zn  Zn64  1  0.63902500  0.15105300  0.62884600  1
  Zn  Zn65  1  0.41578100  0.24431200  0.66352600  1
  Zn  Zn66  1  0.04075400  0.37264100  0.53932700  1
  Zn  Zn67  1  0.40829400  0.31821200  0.73963300  1
  Zn  Zn68  1  0.51203700  0.49488800  0.71838000  1
  Zn  Zn69  1  0.35534800  0.16705800  0.70700100  1
  Zn  Zn70  1  0.18638000  0.33968100  0.69764200  1
  Zn  Zn71  1  0.01998300  0.86102200  0.56694700  1
  Zn  Zn72  1  0.33128300  0.65455500  0.73511000  1
  Zn  Zn73  1  0.36184400  0.02995700  0.55612800  1
  Zn  Zn74  1  0.96621800  0.81291700  0.64781300  1
  Zn  Zn75  1  0.87636400  0.54192500  0.52853600  1
  Zn  Zn76  1  0.20129900  0.20129900  0.54772700  1
  Zn  Zn77  1  0.48427700  0.32728900  0.61886200  1
  Zn  Zn78  1  0.13407900  0.14941700  0.62897800  1
  Zn  Zn79  1  0.70155500  0.34277700  0.69718700  1
  Zn  Zn80  1  0.66832000  0.82530800  0.72659300  1
  Zn  Zn81  1  0.45104300  0.80982100  0.64826800  1
  Zn  Zn82  1  0.74430400  0.83438600  0.60582200  1
  Zn  Zn83  1  0.01851900  0.00318100  0.71647700  1
  Zn  Zn84  1  0.31540300  0.49364500  0.61065000  1
  Zn  Zn85  1  0.20129900  0.70129900  0.54772700  1
  Zn  Zn86  1  0.51357200  0.00154400  0.71660800  1
  Zn  Zn87  1  0.73681700  0.90828600  0.68192800  1
  Zn  Zn88  1  0.98873000  0.22842300  0.50701400  1
