# generated using pymatgen
data_Y2Mg
_symmetry_space_group_name_H-M   'P 1'
_cell_length_a   3.72656800
_cell_length_b   18.03005265
_cell_length_c   42.13259500
_cell_angle_alpha   96.30333968
_cell_angle_beta   90.00000000
_cell_angle_gamma   90.00000000
_symmetry_Int_Tables_number   1
_chemical_formula_structural   Y2Mg
_chemical_formula_sum   'Y40 Mg20'
_cell_volume   2813.78417820
_cell_formula_units_Z   20
loop_
 _symmetry_equiv_pos_site_id
 _symmetry_equiv_pos_as_xyz
  1  'x, y, z'
loop_
 _atom_site_type_symbol
 _atom_site_label
 _atom_site_symmetry_multiplicity
 _atom_site_fract_x
 _atom_site_fract_y
 _atom_site_fract_z
 _atom_site_occupancy
  Y  Y0  1  0.50000000  0.92076300  0.19882000  1
  Y  Y1  1  0.00000000  0.76129900  0.22160000  1
  Y  Y2  1  0.00000000  0.70423700  0.30118000  1
  Y  Y3  1  0.50000000  0.86370100  0.27840000  1
  Y  Y4  1  0.00000000  0.48326300  0.26132000  1
  Y  Y5  1  0.50000000  0.32379900  0.28410000  1
  Y  Y6  1  0.50000000  0.14173700  0.23868000  1
  Y  Y7  1  1.00000000  0.30120100  0.21590000  1
  Y  Y8  1  0.50000000  0.04576300  0.32382000  1
  Y  Y9  1  1.00000000  0.88629900  0.34660000  1
  Y  Y10  1  0.00000000  0.82923700  0.42618000  1
  Y  Y11  1  0.50000000  0.98870100  0.40340000  1
  Y  Y12  1  0.00000000  0.60826300  0.38632000  1
  Y  Y13  1  0.50000000  0.44879900  0.40910000  1
  Y  Y14  1  0.50000000  0.26673700  0.36368000  1
  Y  Y15  1  0.00000000  0.42620100  0.34090000  1
  Y  Y16  1  0.50000000  0.17076300  0.44882000  1
  Y  Y17  1  0.00000000  0.01129900  0.47160000  1
  Y  Y18  1  0.00000000  0.95423700  0.55118000  1
  Y  Y19  1  0.50000000  0.11370100  0.52840000  1
  Y  Y20  1  0.00000000  0.73326300  0.51132000  1
  Y  Y21  1  0.50000000  0.57379900  0.53410000  1
  Y  Y22  1  0.50000000  0.39173700  0.48868000  1
  Y  Y23  1  0.00000000  0.55120100  0.46590000  1
  Y  Y24  1  0.50000000  0.29576300  0.57382000  1
  Y  Y25  1  0.00000000  0.13629900  0.59660000  1
  Y  Y26  1  0.00000000  0.07923700  0.67618000  1
  Y  Y27  1  0.50000000  0.23870100  0.65340000  1
  Y  Y28  1  0.00000000  0.85826300  0.63632000  1
  Y  Y29  1  0.50000000  0.69879900  0.65910000  1
  Y  Y30  1  0.50000000  0.51673700  0.61368000  1
  Y  Y31  1  0.00000000  0.67620100  0.59090000  1
  Y  Y32  1  0.50000000  0.42076300  0.69882000  1
  Y  Y33  1  0.00000000  0.26129900  0.72160000  1
  Y  Y34  1  1.00000000  0.20423700  0.80118000  1
  Y  Y35  1  0.50000000  0.36370100  0.77840000  1
  Y  Y36  1  1.00000000  0.98326300  0.76132000  1
  Y  Y37  1  0.50000000  0.82379900  0.78410000  1
  Y  Y38  1  0.50000000  0.64173700  0.73868000  1
  Y  Y39  1  0.00000000  0.80120100  0.71590000  1
  Mg  Mg40  1  0.50000000  0.62158900  0.24155900  1
  Mg  Mg41  1  0.00000000  0.00341100  0.25844100  1
  Mg  Mg42  1  0.00000000  0.18408900  0.30405900  1
  Mg  Mg43  1  0.50000000  0.44091100  0.19594100  1
  Mg  Mg44  1  0.50000000  0.74658900  0.36655900  1
  Mg  Mg45  1  0.00000000  0.12841100  0.38344100  1
  Mg  Mg46  1  0.00000000  0.30908900  0.42905900  1
  Mg  Mg47  1  0.50000000  0.56591100  0.32094100  1
  Mg  Mg48  1  0.50000000  0.87158900  0.49155900  1
  Mg  Mg49  1  0.00000000  0.25341100  0.50844100  1
  Mg  Mg50  1  0.00000000  0.43408900  0.55405900  1
  Mg  Mg51  1  0.50000000  0.69091100  0.44594100  1
  Mg  Mg52  1  0.50000000  0.99658900  0.61655900  1
  Mg  Mg53  1  0.00000000  0.37841100  0.63344100  1
  Mg  Mg54  1  0.00000000  0.55908900  0.67905900  1
  Mg  Mg55  1  0.50000000  0.81591100  0.57094100  1
  Mg  Mg56  1  0.50000000  0.12158900  0.74155900  1
  Mg  Mg57  1  0.00000000  0.50341100  0.75844100  1
  Mg  Mg58  1  0.00000000  0.68408900  0.80405900  1
  Mg  Mg59  1  0.50000000  0.94091100  0.69594100  1
