# generated using pymatgen
data_Mg5Ga2
_symmetry_space_group_name_H-M   'P 1'
_cell_length_a   6.11035770
_cell_length_b   8.32987912
_cell_length_c   49.12638700
_cell_angle_alpha   87.82435891
_cell_angle_beta   86.43446658
_cell_angle_gamma   68.48323149
_symmetry_Int_Tables_number   1
_chemical_formula_structural   Mg5Ga2
_chemical_formula_sum   'Mg50 Ga20'
_cell_volume   2321.39293914
_cell_formula_units_Z   10
loop_
 _symmetry_equiv_pos_site_id
 _symmetry_equiv_pos_as_xyz
  1  'x, y, z'
loop_
 _atom_site_type_symbol
 _atom_site_label
 _atom_site_symmetry_multiplicity
 _atom_site_fract_x
 _atom_site_fract_y
 _atom_site_fract_z
 _atom_site_occupancy
  Mg  Mg0  1  0.77315400  0.73642800  0.71726400  1
  Mg  Mg1  1  0.47684600  0.26357200  0.78273600  1
  Mg  Mg2  1  0.14913200  0.00514400  0.69659300  1
  Mg  Mg3  1  0.10086800  0.99485600  0.80340700  1
  Mg  Mg4  1  0.37500000  1.00000000  0.75000000  1
  Mg  Mg5  1  0.87500000  0.00000000  0.75000000  1
  Mg  Mg6  1  0.55101600  0.61863200  0.77933600  1
  Mg  Mg7  1  0.19898400  0.38136800  0.72066400  1
  Mg  Mg8  1  0.69898400  0.38136800  0.72066400  1
  Mg  Mg9  1  0.05101600  0.61863200  0.77933600  1
  Mg  Mg10  1  0.02315400  0.36142800  0.59226400  1
  Mg  Mg11  1  0.72684600  0.88857200  0.65773600  1
  Mg  Mg12  1  0.39913200  0.63014400  0.57159300  1
  Mg  Mg13  1  0.35086800  0.61985600  0.67840700  1
  Mg  Mg14  1  0.62500000  0.62500000  0.62500000  1
  Mg  Mg15  1  0.12500000  0.62500000  0.62500000  1
  Mg  Mg16  1  0.80101600  0.24363200  0.65433600  1
  Mg  Mg17  1  0.44898400  0.00636800  0.59566400  1
  Mg  Mg18  1  0.94898400  0.00636800  0.59566400  1
  Mg  Mg19  1  0.30101600  0.24363200  0.65433600  1
  Mg  Mg20  1  0.27315400  0.98642800  0.46726400  1
  Mg  Mg21  1  0.97684600  0.51357200  0.53273600  1
  Mg  Mg22  1  0.64913200  0.25514400  0.44659300  1
  Mg  Mg23  1  0.60086800  0.24485600  0.55340700  1
  Mg  Mg24  1  0.87500000  0.25000000  0.50000000  1
  Mg  Mg25  1  0.37500000  0.25000000  0.50000000  1
  Mg  Mg26  1  0.05101600  0.86863200  0.52933600  1
  Mg  Mg27  1  0.69898400  0.63136800  0.47066400  1
  Mg  Mg28  1  0.19898400  0.63136800  0.47066400  1
  Mg  Mg29  1  0.55101600  0.86863200  0.52933600  1
  Mg  Mg30  1  0.52315400  0.61142800  0.34226400  1
  Mg  Mg31  1  0.22684600  0.13857200  0.40773600  1
  Mg  Mg32  1  0.89913200  0.88014400  0.32159300  1
  Mg  Mg33  1  0.85086800  0.86985600  0.42840700  1
  Mg  Mg34  1  0.12500000  0.87500000  0.37500000  1
  Mg  Mg35  1  0.62500000  0.87500000  0.37500000  1
  Mg  Mg36  1  0.30101600  0.49363200  0.40433600  1
  Mg  Mg37  1  0.94898400  0.25636800  0.34566400  1
  Mg  Mg38  1  0.44898400  0.25636800  0.34566400  1
  Mg  Mg39  1  0.80101600  0.49363200  0.40433600  1
  Mg  Mg40  1  0.77315400  0.23642800  0.21726400  1
  Mg  Mg41  1  0.47684600  0.76357200  0.28273600  1
  Mg  Mg42  1  0.14913200  0.50514400  0.19659300  1
  Mg  Mg43  1  0.10086800  0.49485600  0.30340700  1
  Mg  Mg44  1  0.37500000  0.50000000  0.25000000  1
  Mg  Mg45  1  0.87500000  0.50000000  0.25000000  1
  Mg  Mg46  1  0.55101600  0.11863200  0.27933600  1
  Mg  Mg47  1  0.19898400  0.88136800  0.22066400  1
  Mg  Mg48  1  0.69898400  0.88136800  0.22066400  1
  Mg  Mg49  1  0.05101600  0.11863200  0.27933600  1
  Ga  Ga50  1  0.65195200  0.89836600  0.79773100  1
  Ga  Ga51  1  0.59804800  0.10163400  0.70226900  1
  Ga  Ga52  1  0.96833200  0.29620900  0.76712800  1
  Ga  Ga53  1  0.28166800  0.70379100  0.73287200  1
  Ga  Ga54  1  0.90195200  0.52336600  0.67273100  1
  Ga  Ga55  1  0.84804800  0.72663400  0.57726900  1
  Ga  Ga56  1  0.21833200  0.92120900  0.64212800  1
  Ga  Ga57  1  0.53166800  0.32879100  0.60787200  1
  Ga  Ga58  1  0.15195200  0.14836600  0.54773100  1
  Ga  Ga59  1  0.09804800  0.35163400  0.45226900  1
  Ga  Ga60  1  0.46833200  0.54620900  0.51712800  1
  Ga  Ga61  1  0.78166800  0.95379100  0.48287200  1
  Ga  Ga62  1  0.40195200  0.77336600  0.42273100  1
  Ga  Ga63  1  0.34804800  0.97663400  0.32726900  1
  Ga  Ga64  1  0.71833200  0.17120900  0.39212800  1
  Ga  Ga65  1  0.03166800  0.57879100  0.35787200  1
  Ga  Ga66  1  0.65195200  0.39836600  0.29773100  1
  Ga  Ga67  1  0.59804800  0.60163400  0.20226900  1
  Ga  Ga68  1  0.96833200  0.79620900  0.26712800  1
  Ga  Ga69  1  0.28166800  0.20379100  0.23287200  1
