# generated using pymatgen
data_Mg131Pd54
_symmetry_space_group_name_H-M   'P 1'
_cell_length_a   11.93708013
_cell_length_b   11.93708005
_cell_length_c   42.77055300
_cell_angle_alpha   94.13972168
_cell_angle_beta   85.86027835
_cell_angle_gamma   100.22975759
_symmetry_Int_Tables_number   1
_chemical_formula_structural   Mg131Pd54
_chemical_formula_sum   'Mg131 Pd54'
_cell_volume   5971.05965499
_cell_formula_units_Z   1
loop_
 _symmetry_equiv_pos_site_id
 _symmetry_equiv_pos_as_xyz
  1  'x, y, z'
loop_
 _atom_site_type_symbol
 _atom_site_label
 _atom_site_symmetry_multiplicity
 _atom_site_fract_x
 _atom_site_fract_y
 _atom_site_fract_z
 _atom_site_occupancy
  Mg  Mg0  1  0.25478300  0.55366700  0.19675700  1
  Mg  Mg1  1  0.73442400  0.07402600  0.21033000  1
  Mg  Mg2  1  0.46374700  0.91935300  0.24899800  1
  Mg  Mg3  1  0.97295100  0.21859800  0.22207400  1
  Mg  Mg4  1  0.49331000  0.69823900  0.20850100  1
  Mg  Mg5  1  0.12762400  0.48927600  0.26074200  1
  Mg  Mg6  1  0.10779200  0.08375800  0.25578400  1
  Mg  Mg7  1  0.62815100  0.56339900  0.24221200  1
  Mg  Mg8  1  0.89882900  0.71807100  0.20354300  1
  Mg  Mg9  1  0.48357900  0.32487100  0.25395600  1
  Mg  Mg10  1  0.96322000  0.84523000  0.26752900  1
  Mg  Mg11  1  0.32890600  0.05419400  0.21528800  1
  Mg  Mg12  1  0.88305100  0.57796500  0.26696500  1
  Mg  Mg13  1  0.98751800  0.47349800  0.19732000  1
  Mg  Mg14  1  0.74376000  0.33420800  0.23214300  1
  Mg  Mg15  1  0.70832000  0.83066400  0.24277500  1
  Mg  Mg16  1  0.24021600  0.29876800  0.22151100  1
  Mg  Mg17  1  0.48397400  0.43805800  0.18668800  1
  Mg  Mg18  1  0.29568500  0.70431500  0.25487000  1
  Mg  Mg19  1  0.11386700  0.88613300  0.20941600  1
  Mg  Mg20  1  0.61842000  0.19003100  0.28766600  1
  Mg  Mg21  1  0.09806100  0.71039000  0.30123900  1
  Mg  Mg22  1  0.82738300  0.55571700  0.33990700  1
  Mg  Mg23  1  0.33658800  0.85496200  0.31298300  1
  Mg  Mg24  1  0.85694700  0.33460300  0.29941100  1
  Mg  Mg25  1  0.49126100  0.12564000  0.35165100  1
  Mg  Mg26  1  0.47142900  0.72012100  0.34669300  1
  Mg  Mg27  1  0.99178800  0.19976200  0.33312100  1
  Mg  Mg28  1  0.26246500  0.35443500  0.29445300  1
  Mg  Mg29  1  0.84721500  0.96123500  0.34486500  1
  Mg  Mg30  1  0.32685600  0.48159400  0.35843800  1
  Mg  Mg31  1  0.69254200  0.69055800  0.30619700  1
  Mg  Mg32  1  0.24668700  0.21432900  0.35787500  1
  Mg  Mg33  1  0.35115500  0.10986100  0.28822900  1
  Mg  Mg34  1  0.10739700  0.97057100  0.32305200  1
  Mg  Mg35  1  0.07195700  0.46702700  0.33368400  1
  Mg  Mg36  1  0.60385300  0.93513100  0.31242000  1
  Mg  Mg37  1  0.84761100  0.07442100  0.27759700  1
  Mg  Mg38  1  0.65932200  0.34067800  0.34577900  1
  Mg  Mg39  1  0.47750400  0.52249600  0.30032500  1
  Mg  Mg40  1  0.98205600  0.82639400  0.37857500  1
  Mg  Mg41  1  0.46169700  0.34675300  0.39214800  1
  Mg  Mg42  1  0.19101900  0.19208000  0.43081600  1
  Mg  Mg43  1  0.70022400  0.49132600  0.40389200  1
  Mg  Mg44  1  0.22058300  0.97096700  0.39032000  1
  Mg  Mg45  1  0.85489700  0.76200300  0.44256000  1
  Mg  Mg46  1  0.83506500  0.35648500  0.43760200  1
  Mg  Mg47  1  0.35542400  0.83612600  0.42403000  1
  Mg  Mg48  1  0.62610200  0.99079900  0.38536200  1
  Mg  Mg49  1  0.21085100  0.59759900  0.43577400  1
  Mg  Mg50  1  0.69049200  0.11795800  0.44934700  1
  Mg  Mg51  1  0.05617900  0.32692100  0.39710600  1
  Mg  Mg52  1  0.61032300  0.85069300  0.44878400  1
  Mg  Mg53  1  0.71479100  0.74622500  0.37913800  1
  Mg  Mg54  1  0.47103300  0.60693500  0.41396100  1
  Mg  Mg55  1  0.43559300  0.10339100  0.42459300  1
  Mg  Mg56  1  0.96748900  0.57149500  0.40332900  1
  Mg  Mg57  1  0.21124700  0.71078500  0.36850600  1
  Mg  Mg58  1  0.02295800  0.97704200  0.43668800  1
  Mg  Mg59  1  0.84114000  0.15886000  0.39123400  1
  Mg  Mg60  1  0.34569200  0.46275800  0.46948400  1
  Mg  Mg61  1  0.82533300  0.98311700  0.48305700  1
  Mg  Mg62  1  0.55465600  0.82844400  0.52172500  1
  Mg  Mg63  1  0.06386000  0.12768900  0.49480100  1
  Mg  Mg64  1  0.58421900  0.60733000  0.48122900  1
  Mg  Mg65  1  0.21853300  0.39836700  0.53347000  1
  Mg  Mg66  1  0.19870100  0.99284800  0.52851200  1
  Mg  Mg67  1  0.71906000  0.47249000  0.51493900  1
  Mg  Mg68  1  0.98973800  0.62716200  0.47627100  1
  Mg  Mg69  1  0.57448800  0.23396200  0.52668300  1
  Mg  Mg70  1  0.05412900  0.75432100  0.54025600  1
  Mg  Mg71  1  0.41981500  0.96328500  0.48801500  1
  Mg  Mg72  1  0.97396000  0.48705600  0.53969300  1
  Mg  Mg73  1  0.07842700  0.38258900  0.47004800  1
  Mg  Mg74  1  0.83466900  0.24329800  0.50487000  1
  Mg  Mg75  1  0.79922900  0.73975400  0.51550200  1
  Mg  Mg76  1  0.33112500  0.20785800  0.49423800  1
  Mg  Mg77  1  0.57488300  0.34714900  0.45941600  1
  Mg  Mg78  1  0.38659500  0.61340500  0.52759700  1
  Mg  Mg79  1  0.20477600  0.79522400  0.48214300  1
  Mg  Mg80  1  0.70932900  0.09912100  0.56039300  1
  Mg  Mg81  1  0.18897000  0.61948000  0.57396600  1
  Mg  Mg82  1  0.91829200  0.46480800  0.61263400  1
  Mg  Mg83  1  0.42749700  0.76405300  0.58571000  1
  Mg  Mg84  1  0.94785600  0.24369400  0.57213800  1
  Mg  Mg85  1  0.58217000  0.03473100  0.62437900  1
  Mg  Mg86  1  0.56233800  0.62921200  0.61942100  1
  Mg  Mg87  1  0.08269700  0.10885300  0.60584800  1
  Mg  Mg88  1  0.35337400  0.26352600  0.56718000  1
  Mg  Mg89  1  0.93812400  0.87032600  0.61759200  1
  Mg  Mg90  1  0.41776500  0.39068500  0.63116500  1
  Mg  Mg91  1  0.78345100  0.59964800  0.57892400  1
  Mg  Mg92  1  0.33759600  0.12342000  0.63060200  1
  Mg  Mg93  1  0.44206400  0.01895200  0.56095700  1
  Mg  Mg94  1  0.19830600  0.87966200  0.59577900  1
  Mg  Mg95  1  0.16286600  0.37611800  0.60641100  1
  Mg  Mg96  1  0.69476200  0.84422200  0.58514700  1
  Mg  Mg97  1  0.93852000  0.98351200  0.55032500  1
  Mg  Mg98  1  0.75023100  0.24976900  0.61850600  1
  Mg  Mg99  1  0.56841300  0.43158700  0.57305200  1
  Mg  Mg100  1  0.07296500  0.73548500  0.65130300  1
  Mg  Mg101  1  0.55260600  0.25584400  0.66487500  1
  Mg  Mg102  1  0.28192900  0.10117100  0.70354300  1
  Mg  Mg103  1  0.79113300  0.40041700  0.67662000  1
  Mg  Mg104  1  0.31149200  0.88005800  0.66304700  1
  Mg  Mg105  1  0.94580600  0.67109400  0.71528800  1
  Mg  Mg106  1  0.92597400  0.26557600  0.71033000  1
  Mg  Mg107  1  0.44633300  0.74521700  0.69675700  1
  Mg  Mg108  1  0.71701100  0.89989000  0.65808900  1
  Mg  Mg109  1  0.30176100  0.50669000  0.70850100  1
  Mg  Mg110  1  0.78140200  0.02704900  0.72207400  1
  Mg  Mg111  1  0.14708800  0.23601200  0.66983300  1
  Mg  Mg112  1  0.70123200  0.75978400  0.72151100  1
  Mg  Mg113  1  0.80570000  0.65531600  0.65186600  1
  Mg  Mg114  1  0.56194200  0.51602600  0.68668800  1
  Mg  Mg115  1  0.52650200  0.01248200  0.69732000  1
  Mg  Mg116  1  0.05839800  0.48058600  0.67605600  1
  Mg  Mg117  1  0.30215600  0.61987600  0.64123400  1
  Mg  Mg118  1  0.11386700  0.88613300  0.70941600  1
  Mg  Mg119  1  0.93204900  0.06795100  0.66396100  1
  Mg  Mg120  1  0.43660100  0.37184900  0.74221200  1
  Mg  Mg121  1  0.91624200  0.89220800  0.75578400  1
  Mg  Mg122  1  0.15477000  0.03678000  0.76752900  1
  Mg  Mg123  1  0.67512900  0.51642100  0.75395600  1
  Mg  Mg124  1  0.08064700  0.53625300  0.74899800  1
  Mg  Mg125  1  0.51072400  0.87237600  0.76074200  1
  Mg  Mg126  1  0.16933600  0.29168000  0.74277500  1
  Mg  Mg127  1  0.92557900  0.15238900  0.77759700  1
  Mg  Mg128  1  0.42203500  0.11694900  0.76696500  1
  Mg  Mg129  1  0.66579200  0.25624000  0.73214300  1
  Mg  Mg130  1  0.29568500  0.70431500  0.75487000  1
  Pd  Pd131  1  0.21610200  0.90847500  0.26611800  1
  Pd  Pd132  1  0.31802800  0.80654900  0.19816700  1
  Pd  Pd133  1  0.08020000  0.67064700  0.23214300  1
  Pd  Pd134  1  0.37526900  0.50015400  0.24362200  1
  Pd  Pd135  1  0.90970700  0.96571700  0.22066400  1
  Pd  Pd136  1  0.14753500  0.10161800  0.18668800  1
  Pd  Pd137  1  0.53811000  0.12855700  0.23214300  1
  Pd  Pd138  1  0.68962500  0.64370800  0.18668800  1
  Pd  Pd139  1  0.57973800  0.54483900  0.35702700  1
  Pd  Pd140  1  0.68166400  0.44291200  0.28907700  1
  Pd  Pd141  1  0.44383600  0.30701100  0.32305200  1
  Pd  Pd142  1  0.73890600  0.13651800  0.33453100  1
  Pd  Pd143  1  0.27334300  0.60208000  0.31157300  1
  Pd  Pd144  1  0.51117100  0.73798200  0.27759700  1
  Pd  Pd145  1  0.90174600  0.76492100  0.32305200  1
  Pd  Pd146  1  0.05326100  0.28007200  0.27759700  1
  Pd  Pd147  1  0.94337400  0.18120200  0.44793600  1
  Pd  Pd148  1  0.04530100  0.07927600  0.37998600  1
  Pd  Pd149  1  0.80747300  0.94337400  0.41396100  1
  Pd  Pd150  1  0.10254200  0.77288100  0.42544000  1
  Pd  Pd151  1  0.63697900  0.23844400  0.40248200  1
  Pd  Pd152  1  0.87480800  0.37434600  0.36850600  1
  Pd  Pd153  1  0.26538200  0.40128400  0.41396100  1
  Pd  Pd154  1  0.41689800  0.91643600  0.36850600  1
  Pd  Pd155  1  0.30701100  0.81756600  0.53884600  1
  Pd  Pd156  1  0.40893700  0.71564000  0.47089500  1
  Pd  Pd157  1  0.17110900  0.57973800  0.50487000  1
  Pd  Pd158  1  0.46617900  0.40924500  0.51634900  1
  Pd  Pd159  1  0.00061600  0.87480800  0.49339100  1
  Pd  Pd160  1  0.23844400  0.01070900  0.45941600  1
  Pd  Pd161  1  0.62901900  0.03764800  0.50487000  1
  Pd  Pd162  1  0.78053400  0.55279900  0.45941600  1
  Pd  Pd163  1  0.67064700  0.45393000  0.62975500  1
  Pd  Pd164  1  0.77257300  0.35200300  0.56180400  1
  Pd  Pd165  1  0.53474500  0.21610200  0.59577900  1
  Pd  Pd166  1  0.82981500  0.04560900  0.60725800  1
  Pd  Pd167  1  0.36425200  0.51117100  0.58430000  1
  Pd  Pd168  1  0.60208000  0.64707300  0.55032500  1
  Pd  Pd169  1  0.99265500  0.67401100  0.59577900  1
  Pd  Pd170  1  0.14417000  0.18916300  0.55032500  1
  Pd  Pd171  1  0.03428300  0.09029300  0.72066400  1
  Pd  Pd172  1  0.13621000  0.98836700  0.65271300  1
  Pd  Pd173  1  0.89838200  0.85246500  0.68668800  1
  Pd  Pd174  1  0.19345100  0.68197200  0.69816700  1
  Pd  Pd175  1  0.72788900  0.14753500  0.67520900  1
  Pd  Pd176  1  0.96571700  0.28343700  0.64123400  1
  Pd  Pd177  1  0.35629200  0.31037500  0.68668800  1
  Pd  Pd178  1  0.50780700  0.82552700  0.64123400  1
  Pd  Pd179  1  0.49984600  0.62473100  0.74362200  1
  Pd  Pd180  1  0.26201800  0.48882900  0.77759700  1
  Pd  Pd181  1  0.09152500  0.78389800  0.76611800  1
  Pd  Pd182  1  0.32935300  0.91980000  0.73214300  1
  Pd  Pd183  1  0.71992800  0.94673900  0.77759700  1
  Pd  Pd184  1  0.87144300  0.46189000  0.73214300  1
