# generated using pymatgen
data_Mg19Si10
_symmetry_space_group_name_H-M   'P 1'
_cell_length_a   7.16868100
_cell_length_b   14.27249566
_cell_length_c   44.68541400
_cell_angle_alpha   83.39369965
_cell_angle_beta   90.00000000
_cell_angle_gamma   75.45524452
_symmetry_Int_Tables_number   1
_chemical_formula_structural   Mg19Si10
_chemical_formula_sum   'Mg76 Si40'
_cell_volume   4394.09300978
_cell_formula_units_Z   4
loop_
 _symmetry_equiv_pos_site_id
 _symmetry_equiv_pos_as_xyz
  1  'x, y, z'
loop_
 _atom_site_type_symbol
 _atom_site_label
 _atom_site_symmetry_multiplicity
 _atom_site_fract_x
 _atom_site_fract_y
 _atom_site_fract_z
 _atom_site_occupancy
  Mg  Mg0  1  0.96683000  0.00457700  0.22918200  1
  Mg  Mg1  1  0.40564600  0.40067700  0.28113200  1
  Mg  Mg2  1  0.32326300  0.52824400  0.21734800  1
  Mg  Mg3  1  0.38839500  0.94544400  0.25874800  1
  Mg  Mg4  1  0.30601300  0.07301000  0.19496500  1
  Mg  Mg5  1  0.74482900  0.46911000  0.24691500  1
  Mg  Mg6  1  0.61954700  0.71967400  0.28867600  1
  Mg  Mg7  1  0.18073100  0.32357400  0.23672600  1
  Mg  Mg8  1  0.26311300  0.19600700  0.30050900  1
  Mg  Mg9  1  0.19798100  0.77880700  0.25910900  1
  Mg  Mg10  1  0.65536400  0.90124100  0.19789200  1
  Mg  Mg11  1  0.84154800  0.25514100  0.27094200  1
  Mg  Mg12  1  0.06182400  0.74307400  0.19345400  1
  Mg  Mg13  1  0.55539600  0.13612700  0.24692800  1
  Mg  Mg14  1  0.01836600  0.03157200  0.29920500  1
  Mg  Mg15  1  0.56801100  0.69267900  0.21865200  1
  Mg  Mg16  1  0.03098000  0.58812400  0.27093000  1
  Mg  Mg17  1  0.89955200  0.23117700  0.19940300  1
  Mg  Mg18  1  0.59183000  0.75457700  0.35418200  1
  Mg  Mg19  1  0.03064600  0.15067700  0.40613200  1
  Mg  Mg20  1  0.94826300  0.27824400  0.34234800  1
  Mg  Mg21  1  0.01339500  0.69544400  0.38374800  1
  Mg  Mg22  1  0.93101300  0.82301000  0.31996500  1
  Mg  Mg23  1  0.36982900  0.21911000  0.37191500  1
  Mg  Mg24  1  0.24454700  0.46967400  0.41367600  1
  Mg  Mg25  1  0.80573100  0.07357400  0.36172600  1
  Mg  Mg26  1  0.88811300  0.94600700  0.42550900  1
  Mg  Mg27  1  0.82298100  0.52880700  0.38410900  1
  Mg  Mg28  1  0.28036400  0.65124100  0.32289200  1
  Mg  Mg29  1  0.46654800  0.00514100  0.39594200  1
  Mg  Mg30  1  0.68682400  0.49307400  0.31845400  1
  Mg  Mg31  1  0.18039600  0.88612700  0.37192800  1
  Mg  Mg32  1  0.64336600  0.78157200  0.42420500  1
  Mg  Mg33  1  0.19301100  0.44267900  0.34365200  1
  Mg  Mg34  1  0.65598000  0.33812400  0.39593000  1
  Mg  Mg35  1  0.52455200  0.98117700  0.32440300  1
  Mg  Mg36  1  0.21683000  0.50457700  0.47918200  1
  Mg  Mg37  1  0.65564600  0.90067700  0.53113200  1
  Mg  Mg38  1  0.57326300  0.02824400  0.46734800  1
  Mg  Mg39  1  0.63839500  0.44544400  0.50874800  1
  Mg  Mg40  1  0.55601300  0.57301000  0.44496500  1
  Mg  Mg41  1  0.99482900  0.96911000  0.49691500  1
  Mg  Mg42  1  0.86954700  0.21967400  0.53867600  1
  Mg  Mg43  1  0.43073100  0.82357400  0.48672600  1
  Mg  Mg44  1  0.51311300  0.69600700  0.55050900  1
  Mg  Mg45  1  0.44798100  0.27880700  0.50910900  1
  Mg  Mg46  1  0.90536400  0.40124100  0.44789200  1
  Mg  Mg47  1  0.09154800  0.75514100  0.52094200  1
  Mg  Mg48  1  0.31182400  0.24307400  0.44345400  1
  Mg  Mg49  1  0.80539600  0.63612700  0.49692800  1
  Mg  Mg50  1  0.26836600  0.53157200  0.54920500  1
  Mg  Mg51  1  0.81801100  0.19267900  0.46865200  1
  Mg  Mg52  1  0.28098000  0.08812400  0.52093000  1
  Mg  Mg53  1  0.14955200  0.73117700  0.44940300  1
  Mg  Mg54  1  0.84183000  0.25457700  0.60418200  1
  Mg  Mg55  1  0.28064600  0.65067700  0.65613200  1
  Mg  Mg56  1  0.19826300  0.77824400  0.59234800  1
  Mg  Mg57  1  0.26339500  0.19544400  0.63374800  1
  Mg  Mg58  1  0.18101300  0.32301000  0.56996500  1
  Mg  Mg59  1  0.61982900  0.71911000  0.62191500  1
  Mg  Mg60  1  0.49454700  0.96967400  0.66367600  1
  Mg  Mg61  1  0.05573100  0.57357400  0.61172600  1
  Mg  Mg62  1  0.13811300  0.44600700  0.67550900  1
  Mg  Mg63  1  0.07298100  0.02880700  0.63410900  1
  Mg  Mg64  1  0.53036400  0.15124100  0.57289200  1
  Mg  Mg65  1  0.71654800  0.50514100  0.64594200  1
  Mg  Mg66  1  0.93682400  0.99307400  0.56845400  1
  Mg  Mg67  1  0.43039600  0.38612700  0.62192800  1
  Mg  Mg68  1  0.89336600  0.28157200  0.67420500  1
  Mg  Mg69  1  0.44301100  0.94267900  0.59365200  1
  Mg  Mg70  1  0.90598000  0.83812400  0.64593000  1
  Mg  Mg71  1  0.77455200  0.48117700  0.57440300  1
  Mg  Mg72  1  0.80601300  0.07301000  0.69496500  1
  Mg  Mg73  1  0.15536400  0.90124100  0.69789200  1
  Mg  Mg74  1  0.56182400  0.74307400  0.69345400  1
  Mg  Mg75  1  0.39955200  0.23117700  0.69940300  1
  Si  Si76  1  0.83078500  0.78693200  0.24639600  1
  Si  Si77  1  0.64328500  0.16193200  0.30889600  1
  Si  Si78  1  0.75559100  0.93731900  0.27146100  1
  Si  Si79  1  0.94309100  0.56231900  0.20896100  1
  Si  Si80  1  0.42860500  0.59129200  0.26934500  1
  Si  Si81  1  0.15777200  0.13295900  0.24851200  1
  Si  Si82  1  0.03122200  0.38605800  0.29069500  1
  Si  Si83  1  0.30205500  0.84439100  0.31152800  1
  Si  Si84  1  0.55515400  0.33819300  0.22716200  1
  Si  Si85  1  0.28432100  0.87986000  0.20632900  1
  Si  Si86  1  0.45578500  0.53693200  0.37139600  1
  Si  Si87  1  0.26828500  0.91193200  0.43389600  1
  Si  Si88  1  0.38059100  0.68731900  0.39646100  1
  Si  Si89  1  0.56809100  0.31231900  0.33396100  1
  Si  Si90  1  0.05360500  0.34129200  0.39434500  1
  Si  Si91  1  0.78277200  0.88295900  0.37351200  1
  Si  Si92  1  0.65622200  0.13605800  0.41569500  1
  Si  Si93  1  0.92705500  0.59439100  0.43652800  1
  Si  Si94  1  0.18015400  0.08819300  0.35216200  1
  Si  Si95  1  0.90932100  0.62986000  0.33132900  1
  Si  Si96  1  0.08078500  0.28693200  0.49639600  1
  Si  Si97  1  0.89328500  0.66193200  0.55889600  1
  Si  Si98  1  0.00559100  0.43731900  0.52146100  1
  Si  Si99  1  0.19309100  0.06231900  0.45896100  1
  Si  Si100  1  0.67860500  0.09129200  0.51934500  1
  Si  Si101  1  0.40777200  0.63295900  0.49851200  1
  Si  Si102  1  0.28122200  0.88605800  0.54069500  1
  Si  Si103  1  0.55205500  0.34439100  0.56152800  1
  Si  Si104  1  0.80515400  0.83819300  0.47716200  1
  Si  Si105  1  0.53432100  0.37986000  0.45632900  1
  Si  Si106  1  0.70578500  0.03693200  0.62139600  1
  Si  Si107  1  0.51828500  0.41193200  0.68389600  1
  Si  Si108  1  0.63059100  0.18731900  0.64646100  1
  Si  Si109  1  0.81809100  0.81231900  0.58396100  1
  Si  Si110  1  0.30360500  0.84129200  0.64434500  1
  Si  Si111  1  0.03277200  0.38295900  0.62351200  1
  Si  Si112  1  0.90622200  0.63605800  0.66569500  1
  Si  Si113  1  0.17705500  0.09439100  0.68652800  1
  Si  Si114  1  0.43015400  0.58819300  0.60216200  1
  Si  Si115  1  0.15932100  0.12986000  0.58132900  1
