# generated using pymatgen
data_MgZn5
_symmetry_space_group_name_H-M   'P 1'
_cell_length_a   4.98183600
_cell_length_b   16.81026703
_cell_length_c   46.91195600
_cell_angle_alpha   88.98550742
_cell_angle_beta   90.00000000
_cell_angle_gamma   90.00000000
_symmetry_Int_Tables_number   1
_chemical_formula_structural   MgZn5
_chemical_formula_sum   'Mg24 Zn120'
_cell_volume   3928.07253363
_cell_formula_units_Z   24
loop_
 _symmetry_equiv_pos_site_id
 _symmetry_equiv_pos_as_xyz
  1  'x, y, z'
loop_
 _atom_site_type_symbol
 _atom_site_label
 _atom_site_symmetry_multiplicity
 _atom_site_fract_x
 _atom_site_fract_y
 _atom_site_fract_z
 _atom_site_occupancy
  Mg  Mg0  1  0.50000000  0.78023700  0.31919200  1
  Mg  Mg1  1  0.00000000  0.71976300  0.28080800  1
  Mg  Mg2  1  0.50000000  0.97132800  0.31657200  1
  Mg  Mg3  1  1.00000000  0.52867200  0.28342800  1
  Mg  Mg4  1  0.00000000  0.28023700  0.21919200  1
  Mg  Mg5  1  0.50000000  0.21976300  0.38080800  1
  Mg  Mg6  1  0.00000000  0.47132800  0.21657200  1
  Mg  Mg7  1  0.50000000  0.02867200  0.38342800  1
  Mg  Mg8  1  0.50000000  0.78023700  0.51919200  1
  Mg  Mg9  1  0.00000000  0.71976300  0.48080800  1
  Mg  Mg10  1  0.50000000  0.97132800  0.51657200  1
  Mg  Mg11  1  1.00000000  0.52867200  0.48342800  1
  Mg  Mg12  1  0.00000000  0.28023700  0.41919200  1
  Mg  Mg13  1  0.50000000  0.21976300  0.58080800  1
  Mg  Mg14  1  0.00000000  0.47132800  0.41657200  1
  Mg  Mg15  1  0.50000000  0.02867200  0.58342800  1
  Mg  Mg16  1  0.50000000  0.78023700  0.71919200  1
  Mg  Mg17  1  0.00000000  0.71976300  0.68080800  1
  Mg  Mg18  1  0.50000000  0.97132800  0.71657200  1
  Mg  Mg19  1  1.00000000  0.52867200  0.68342800  1
  Mg  Mg20  1  0.00000000  0.28023700  0.61919200  1
  Mg  Mg21  1  0.50000000  0.21976300  0.78080800  1
  Mg  Mg22  1  0.00000000  0.47132800  0.61657200  1
  Mg  Mg23  1  0.50000000  0.02867200  0.78342800  1
  Zn  Zn24  1  0.50000000  0.00000000  0.25000000  1
  Zn  Zn25  1  0.50000000  0.53325400  0.38072700  1
  Zn  Zn26  1  0.50000000  0.70987800  0.38133900  1
  Zn  Zn27  1  0.50000000  0.62722100  0.28137100  1
  Zn  Zn28  1  0.00000000  0.87277900  0.31862900  1
  Zn  Zn29  1  0.74734900  0.87180400  0.37070300  1
  Zn  Zn30  1  0.75285600  0.87615900  0.27023000  1
  Zn  Zn31  1  0.00000000  0.96674600  0.21927300  1
  Zn  Zn32  1  0.00000000  0.74769600  0.35215600  1
  Zn  Zn33  1  0.25285600  0.62384100  0.32977000  1
  Zn  Zn34  1  0.24714400  0.87615900  0.27023000  1
  Zn  Zn35  1  0.74714400  0.62384100  0.32977000  1
  Zn  Zn36  1  0.24734900  0.62819600  0.22929700  1
  Zn  Zn37  1  0.00000000  0.79012200  0.21866100  1
  Zn  Zn38  1  0.25265100  0.87180400  0.37070300  1
  Zn  Zn39  1  0.75265100  0.62819600  0.22929700  1
  Zn  Zn40  1  0.00000000  0.00000000  0.35000000  1
  Zn  Zn41  1  0.50000000  0.88039100  0.21806500  1
  Zn  Zn42  1  0.00000000  0.61960900  0.38193500  1
  Zn  Zn43  1  0.50000000  0.75230400  0.24784400  1
  Zn  Zn44  1  0.00000000  0.50000000  0.35000000  1
  Zn  Zn45  1  0.00000000  0.03325400  0.28072700  1
  Zn  Zn46  1  0.00000000  0.20987800  0.28133900  1
  Zn  Zn47  1  1.00000000  0.12722100  0.38137100  1
  Zn  Zn48  1  0.50000000  0.37277900  0.21862900  1
  Zn  Zn49  1  0.24734900  0.37180400  0.27070300  1
  Zn  Zn50  1  0.25285600  0.37615900  0.37023000  1
  Zn  Zn51  1  0.50000000  0.46674600  0.31927300  1
  Zn  Zn52  1  0.50000000  0.24769600  0.25215600  1
  Zn  Zn53  1  0.75285600  0.12384100  0.22977000  1
  Zn  Zn54  1  0.74714400  0.37615900  0.37023000  1
  Zn  Zn55  1  0.24714400  0.12384100  0.22977000  1
  Zn  Zn56  1  0.74734900  0.12819600  0.32929700  1
  Zn  Zn57  1  0.50000000  0.29012200  0.31866100  1
  Zn  Zn58  1  0.75265100  0.37180400  0.27070300  1
  Zn  Zn59  1  0.25265100  0.12819600  0.32929700  1
  Zn  Zn60  1  0.50000000  0.50000000  0.25000000  1
  Zn  Zn61  1  0.00000000  0.38039100  0.31806500  1
  Zn  Zn62  1  0.50000000  0.11960900  0.28193500  1
  Zn  Zn63  1  0.00000000  0.25230400  0.34784400  1
  Zn  Zn64  1  0.50000000  0.00000000  0.45000000  1
  Zn  Zn65  1  0.50000000  0.53325400  0.58072700  1
  Zn  Zn66  1  0.50000000  0.70987800  0.58133900  1
  Zn  Zn67  1  0.50000000  0.62722100  0.48137100  1
  Zn  Zn68  1  0.00000000  0.87277900  0.51862900  1
  Zn  Zn69  1  0.74734900  0.87180400  0.57070300  1
  Zn  Zn70  1  0.75285600  0.87615900  0.47023000  1
  Zn  Zn71  1  0.00000000  0.96674600  0.41927300  1
  Zn  Zn72  1  0.00000000  0.74769600  0.55215600  1
  Zn  Zn73  1  0.25285600  0.62384100  0.52977000  1
  Zn  Zn74  1  0.24714400  0.87615900  0.47023000  1
  Zn  Zn75  1  0.74714400  0.62384100  0.52977000  1
  Zn  Zn76  1  0.24734900  0.62819600  0.42929700  1
  Zn  Zn77  1  0.00000000  0.79012200  0.41866100  1
  Zn  Zn78  1  0.25265100  0.87180400  0.57070300  1
  Zn  Zn79  1  0.75265100  0.62819600  0.42929700  1
  Zn  Zn80  1  0.00000000  0.00000000  0.55000000  1
  Zn  Zn81  1  0.50000000  0.88039100  0.41806500  1
  Zn  Zn82  1  0.00000000  0.61960900  0.58193500  1
  Zn  Zn83  1  0.50000000  0.75230400  0.44784400  1
  Zn  Zn84  1  0.00000000  0.50000000  0.55000000  1
  Zn  Zn85  1  0.00000000  0.03325400  0.48072700  1
  Zn  Zn86  1  0.00000000  0.20987800  0.48133900  1
  Zn  Zn87  1  1.00000000  0.12722100  0.58137100  1
  Zn  Zn88  1  0.50000000  0.37277900  0.41862900  1
  Zn  Zn89  1  0.24734900  0.37180400  0.47070300  1
  Zn  Zn90  1  0.25285600  0.37615900  0.57023000  1
  Zn  Zn91  1  0.50000000  0.46674600  0.51927300  1
  Zn  Zn92  1  0.50000000  0.24769600  0.45215600  1
  Zn  Zn93  1  0.75285600  0.12384100  0.42977000  1
  Zn  Zn94  1  0.74714400  0.37615900  0.57023000  1
  Zn  Zn95  1  0.24714400  0.12384100  0.42977000  1
  Zn  Zn96  1  0.74734900  0.12819600  0.52929700  1
  Zn  Zn97  1  0.50000000  0.29012200  0.51866100  1
  Zn  Zn98  1  0.75265100  0.37180400  0.47070300  1
  Zn  Zn99  1  0.25265100  0.12819600  0.52929700  1
  Zn  Zn100  1  0.50000000  0.50000000  0.45000000  1
  Zn  Zn101  1  0.00000000  0.38039100  0.51806500  1
  Zn  Zn102  1  0.50000000  0.11960900  0.48193500  1
  Zn  Zn103  1  1.00000000  0.25230400  0.54784400  1
  Zn  Zn104  1  0.50000000  0.00000000  0.65000000  1
  Zn  Zn105  1  0.50000000  0.53325400  0.78072700  1
  Zn  Zn106  1  0.50000000  0.70987800  0.78133900  1
  Zn  Zn107  1  0.50000000  0.62722100  0.68137100  1
  Zn  Zn108  1  0.00000000  0.87277900  0.71862900  1
  Zn  Zn109  1  0.74734900  0.87180400  0.77070300  1
  Zn  Zn110  1  0.75285600  0.87615900  0.67023000  1
  Zn  Zn111  1  0.00000000  0.96674600  0.61927300  1
  Zn  Zn112  1  0.00000000  0.74769600  0.75215600  1
  Zn  Zn113  1  0.25285600  0.62384100  0.72977000  1
  Zn  Zn114  1  0.24714400  0.87615900  0.67023000  1
  Zn  Zn115  1  0.74714400  0.62384100  0.72977000  1
  Zn  Zn116  1  0.24734900  0.62819600  0.62929700  1
  Zn  Zn117  1  0.00000000  0.79012200  0.61866100  1
  Zn  Zn118  1  0.25265100  0.87180400  0.77070300  1
  Zn  Zn119  1  0.75265100  0.62819600  0.62929700  1
  Zn  Zn120  1  0.00000000  0.00000000  0.75000000  1
  Zn  Zn121  1  0.50000000  0.88039100  0.61806500  1
  Zn  Zn122  1  0.00000000  0.61960900  0.78193500  1
  Zn  Zn123  1  0.50000000  0.75230400  0.64784400  1
  Zn  Zn124  1  0.00000000  0.50000000  0.75000000  1
  Zn  Zn125  1  0.00000000  0.03325400  0.68072700  1
  Zn  Zn126  1  0.00000000  0.20987800  0.68133900  1
  Zn  Zn127  1  0.00000000  0.12722100  0.78137100  1
  Zn  Zn128  1  0.50000000  0.37277900  0.61862900  1
  Zn  Zn129  1  0.24734900  0.37180400  0.67070300  1
  Zn  Zn130  1  0.25285600  0.37615900  0.77023000  1
  Zn  Zn131  1  0.50000000  0.46674600  0.71927300  1
  Zn  Zn132  1  0.50000000  0.24769600  0.65215600  1
  Zn  Zn133  1  0.75285600  0.12384100  0.62977000  1
  Zn  Zn134  1  0.74714400  0.37615900  0.77023000  1
  Zn  Zn135  1  0.24714400  0.12384100  0.62977000  1
  Zn  Zn136  1  0.74734900  0.12819600  0.72929700  1
  Zn  Zn137  1  0.50000000  0.29012200  0.71866100  1
  Zn  Zn138  1  0.75265100  0.37180400  0.67070300  1
  Zn  Zn139  1  0.25265100  0.12819600  0.72929700  1
  Zn  Zn140  1  0.50000000  0.50000000  0.65000000  1
  Zn  Zn141  1  0.00000000  0.38039100  0.71806500  1
  Zn  Zn142  1  0.50000000  0.11960900  0.68193500  1
  Zn  Zn143  1  0.00000000  0.25230400  0.74784400  1
