# generated using pymatgen
data_Mg2Cd
_symmetry_space_group_name_H-M   'P 1'
_cell_length_a   5.19055600
_cell_length_b   8.21260619
_cell_length_c   43.56977800
_cell_angle_alpha   89.52418583
_cell_angle_beta   90.00000000
_cell_angle_gamma   90.00000000
_symmetry_Int_Tables_number   1
_chemical_formula_structural   Mg2Cd
_chemical_formula_sum   'Mg36 Cd18'
_cell_volume   1857.22811882
_cell_formula_units_Z   18
loop_
 _symmetry_equiv_pos_site_id
 _symmetry_equiv_pos_as_xyz
  1  'x, y, z'
loop_
 _atom_site_type_symbol
 _atom_site_label
 _atom_site_symmetry_multiplicity
 _atom_site_fract_x
 _atom_site_fract_y
 _atom_site_fract_z
 _atom_site_occupancy
  Mg  Mg0  1  0.25000000  0.99952300  0.75398600  1
  Mg  Mg1  1  0.25000000  0.70868700  0.80179500  1
  Mg  Mg2  1  0.75000000  0.57702700  0.76963400  1
  Mg  Mg3  1  0.75000000  0.28619100  0.81744300  1
  Mg  Mg4  1  0.25000000  0.92809500  0.68255700  1
  Mg  Mg5  1  0.25000000  0.63725900  0.73036600  1
  Mg  Mg6  1  0.75000000  0.50559900  0.69820500  1
  Mg  Mg7  1  0.75000000  0.21476200  0.74601400  1
  Mg  Mg8  1  0.25000000  0.85666600  0.61112900  1
  Mg  Mg9  1  0.25000000  0.56583000  0.65893800  1
  Mg  Mg10  1  0.75000000  0.43417000  0.62677700  1
  Mg  Mg11  1  0.75000000  0.14333400  0.67458600  1
  Mg  Mg12  1  0.25000000  0.78523800  0.53970000  1
  Mg  Mg13  1  0.25000000  0.49440100  0.58750900  1
  Mg  Mg14  1  0.75000000  0.36274100  0.55534800  1
  Mg  Mg15  1  0.75000000  0.07190500  0.60315700  1
  Mg  Mg16  1  0.25000000  0.71380900  0.46827200  1
  Mg  Mg17  1  0.25000000  0.42297300  0.51608000  1
  Mg  Mg18  1  0.75000000  0.29131300  0.48392000  1
  Mg  Mg19  1  0.75000000  0.00047700  0.53172800  1
  Mg  Mg20  1  0.25000000  0.64238100  0.39684300  1
  Mg  Mg21  1  0.25000000  0.35154400  0.44465200  1
  Mg  Mg22  1  0.75000000  0.21988400  0.41249100  1
  Mg  Mg23  1  0.75000000  0.92904800  0.46030000  1
  Mg  Mg24  1  0.25000000  0.57095200  0.32541400  1
  Mg  Mg25  1  0.25000000  0.28011600  0.37322300  1
  Mg  Mg26  1  0.75000000  0.14845600  0.34106200  1
  Mg  Mg27  1  0.75000000  0.85761900  0.38887100  1
  Mg  Mg28  1  0.25000000  0.49952300  0.25398600  1
  Mg  Mg29  1  0.25000000  0.20868700  0.30179500  1
  Mg  Mg30  1  0.75000000  0.07702700  0.26963400  1
  Mg  Mg31  1  0.75000000  0.78619100  0.31744300  1
  Mg  Mg32  1  0.25000000  0.42809500  0.18255700  1
  Mg  Mg33  1  0.25000000  0.13725900  0.23036600  1
  Mg  Mg34  1  0.75000000  0.00559900  0.19820500  1
  Mg  Mg35  1  0.75000000  0.71476200  0.24601400  1
  Cd  Cd36  1  0.25000000  0.35847800  0.77772800  1
  Cd  Cd37  1  0.75000000  0.92723600  0.79370000  1
  Cd  Cd38  1  0.25000000  0.28705000  0.70630000  1
  Cd  Cd39  1  0.75000000  0.85580700  0.72227200  1
  Cd  Cd40  1  0.25000000  0.21562100  0.63487100  1
  Cd  Cd41  1  0.75000000  0.78437900  0.65084300  1
  Cd  Cd42  1  0.25000000  0.14419300  0.56344300  1
  Cd  Cd43  1  0.75000000  0.71295000  0.57941500  1
  Cd  Cd44  1  0.25000000  0.07276400  0.49201400  1
  Cd  Cd45  1  0.75000000  0.64152200  0.50798600  1
  Cd  Cd46  1  0.25000000  0.00133600  0.42058500  1
  Cd  Cd47  1  0.75000000  0.57009300  0.43655700  1
  Cd  Cd48  1  0.25000000  0.92990700  0.34915700  1
  Cd  Cd49  1  0.75000000  0.49866400  0.36512900  1
  Cd  Cd50  1  0.25000000  0.85847800  0.27772800  1
  Cd  Cd51  1  0.75000000  0.42723600  0.29370000  1
  Cd  Cd52  1  0.25000000  0.78705000  0.20630000  1
  Cd  Cd53  1  0.75000000  0.35580700  0.22227200  1
