# generated using pymatgen
data_Mg10Au31
_symmetry_space_group_name_H-M   'P 1'
_cell_length_a   5.98733200
_cell_length_b   22.16206628
_cell_length_c   43.22761900
_cell_angle_alpha   91.91421088
_cell_angle_beta   90.00000000
_cell_angle_gamma   90.00000000
_symmetry_Int_Tables_number   1
_chemical_formula_structural   Mg10Au31
_chemical_formula_sum   'Mg40 Au124'
_cell_volume   5732.74315522
_cell_formula_units_Z   4
loop_
 _symmetry_equiv_pos_site_id
 _symmetry_equiv_pos_as_xyz
  1  'x, y, z'
loop_
 _atom_site_type_symbol
 _atom_site_label
 _atom_site_symmetry_multiplicity
 _atom_site_fract_x
 _atom_site_fract_y
 _atom_site_fract_z
 _atom_site_occupancy
  Mg  Mg0  1  0.50000000  0.79510900  0.36881800  1
  Mg  Mg1  1  0.00000000  0.99724600  0.31868200  1
  Mg  Mg2  1  1.00000000  0.81437000  0.30170200  1
  Mg  Mg3  1  0.50000000  0.97798500  0.38579800  1
  Mg  Mg4  1  0.50000000  0.49692700  0.31836300  1
  Mg  Mg5  1  0.00000000  0.29542800  0.36913700  1
  Mg  Mg6  1  0.00000000  0.61636900  0.35120200  1
  Mg  Mg7  1  0.50000000  0.17598600  0.33629800  1
  Mg  Mg8  1  0.50000000  0.99510900  0.56881800  1
  Mg  Mg9  1  0.00000000  0.19724600  0.51868200  1
  Mg  Mg10  1  0.00000000  0.09692700  0.41836300  1
  Mg  Mg11  1  0.50000000  0.89542800  0.46913700  1
  Mg  Mg12  1  0.50000000  0.21636900  0.45120200  1
  Mg  Mg13  1  0.00000000  0.77598600  0.43629800  1
  Mg  Mg14  1  0.00000000  0.01437000  0.50170200  1
  Mg  Mg15  1  0.50000000  0.17798500  0.58579800  1
  Mg  Mg16  1  0.00000000  0.39510900  0.46881800  1
  Mg  Mg17  1  0.50000000  0.59724600  0.41868200  1
  Mg  Mg18  1  0.50000000  0.69692700  0.51836300  1
  Mg  Mg19  1  0.00000000  0.49542800  0.56913700  1
  Mg  Mg20  1  0.00000000  0.81636900  0.55120200  1
  Mg  Mg21  1  0.50000000  0.37598600  0.53629800  1
  Mg  Mg22  1  0.50000000  0.41437000  0.40170200  1
  Mg  Mg23  1  0.00000000  0.57798500  0.48579800  1
  Mg  Mg24  1  0.50000000  0.19510900  0.76881800  1
  Mg  Mg25  1  0.00000000  0.39724600  0.71868200  1
  Mg  Mg26  1  0.00000000  0.29692700  0.61836300  1
  Mg  Mg27  1  0.50000000  0.09542800  0.66913700  1
  Mg  Mg28  1  0.50000000  0.41636900  0.65120200  1
  Mg  Mg29  1  0.00000000  0.97598600  0.63629800  1
  Mg  Mg30  1  0.00000000  0.21437000  0.70170200  1
  Mg  Mg31  1  0.50000000  0.37798500  0.78579800  1
  Mg  Mg32  1  0.00000000  0.59510900  0.66881800  1
  Mg  Mg33  1  0.50000000  0.79724600  0.61868200  1
  Mg  Mg34  1  0.50000000  0.89692700  0.71836300  1
  Mg  Mg35  1  0.00000000  0.69542800  0.76913700  1
  Mg  Mg36  1  0.00000000  0.01636900  0.75120200  1
  Mg  Mg37  1  0.50000000  0.57598600  0.73629800  1
  Mg  Mg38  1  0.50000000  0.61437000  0.60170200  1
  Mg  Mg39  1  0.00000000  0.77798500  0.68579800  1
  Au  Au40  1  0.74887800  0.19617800  0.39375000  1
  Au  Au41  1  0.25112200  0.09617800  0.29375000  1
  Au  Au42  1  0.25112200  0.19617800  0.39375000  1
  Au  Au43  1  0.74887800  0.09617800  0.29375000  1
  Au  Au44  1  0.00000000  0.79711800  0.36865200  1
  Au  Au45  1  0.50000000  0.99523700  0.31884800  1
  Au  Au46  1  0.74955100  0.07657100  0.36115200  1
  Au  Au47  1  0.24955100  0.71578400  0.32634800  1
  Au  Au48  1  0.75044900  0.71578400  0.32634800  1
  Au  Au49  1  0.25044900  0.07657100  0.36115200  1
  Au  Au50  1  0.75000000  0.89617800  0.34375000  1
  Au  Au51  1  0.25000000  0.89617800  0.34375000  1
  Au  Au52  1  0.50000000  0.81559800  0.30139500  1
  Au  Au53  1  0.00000000  0.97675700  0.38610500  1
  Au  Au54  1  0.24887800  0.59617800  0.29375000  1
  Au  Au55  1  0.75112200  0.69617800  0.39375000  1
  Au  Au56  1  0.75112200  0.59617800  0.29375000  1
  Au  Au57  1  0.24887800  0.69617800  0.39375000  1
  Au  Au58  1  0.00000000  0.49545700  0.31906700  1
  Au  Au59  1  0.50000000  0.29689800  0.36843300  1
  Au  Au60  1  0.75204300  0.27678300  0.31109900  1
  Au  Au61  1  0.25204300  0.51557200  0.37640100  1
  Au  Au62  1  0.74795700  0.51557200  0.37640100  1
  Au  Au63  1  0.24795700  0.27678300  0.31109900  1
  Au  Au64  1  0.25000000  0.39617800  0.34375000  1
  Au  Au65  1  0.75000000  0.39617800  0.34375000  1
  Au  Au66  1  0.50000000  0.61371000  0.35186700  1
  Au  Au67  1  0.00000000  0.17864500  0.33563300  1
  Au  Au68  1  0.74887800  0.39617800  0.59375000  1
  Au  Au69  1  0.25112200  0.29617800  0.49375000  1
  Au  Au70  1  0.25112200  0.39617800  0.59375000  1
  Au  Au71  1  0.74887800  0.29617800  0.49375000  1
  Au  Au72  1  0.50000000  0.09545700  0.41906700  1
  Au  Au73  1  1.00000000  0.89689800  0.46843300  1
  Au  Au74  1  0.00000000  0.99711800  0.56865200  1
  Au  Au75  1  0.50000000  0.19523700  0.51884800  1
  Au  Au76  1  0.25204300  0.87678300  0.41109900  1
  Au  Au77  1  0.75204300  0.11557200  0.47640100  1
  Au  Au78  1  0.24795700  0.11557200  0.47640100  1
  Au  Au79  1  0.74795700  0.87678300  0.41109900  1
  Au  Au80  1  0.74955100  0.27657100  0.56115200  1
  Au  Au81  1  0.24955100  0.91578400  0.52634800  1
  Au  Au82  1  0.75044900  0.91578400  0.52634800  1
  Au  Au83  1  0.25044900  0.27657100  0.56115200  1
  Au  Au84  1  0.75000000  0.09617800  0.54375000  1
  Au  Au85  1  0.25000000  0.09617800  0.54375000  1
  Au  Au86  1  0.75000000  0.99617800  0.44375000  1
  Au  Au87  1  0.25000000  0.99617800  0.44375000  1
  Au  Au88  1  0.50000000  0.01559800  0.50139500  1
  Au  Au89  1  0.00000000  0.17675700  0.58610500  1
  Au  Au90  1  0.00000000  0.21371000  0.45186700  1
  Au  Au91  1  0.50000000  0.77864500  0.43563300  1
  Au  Au92  1  0.24887800  0.79617800  0.49375000  1
  Au  Au93  1  0.75112200  0.89617800  0.59375000  1
  Au  Au94  1  0.75112200  0.79617800  0.49375000  1
  Au  Au95  1  0.24887800  0.89617800  0.59375000  1
  Au  Au96  1  0.00000000  0.69545700  0.51906700  1
  Au  Au97  1  0.50000000  0.49689800  0.56843300  1
  Au  Au98  1  0.50000000  0.39711800  0.46865200  1
  Au  Au99  1  0.00000000  0.59523700  0.41884800  1
  Au  Au100  1  0.75204300  0.47678300  0.51109900  1
  Au  Au101  1  0.25204300  0.71557200  0.57640100  1
  Au  Au102  1  0.74795700  0.71557200  0.57640100  1
  Au  Au103  1  0.24795700  0.47678300  0.51109900  1
  Au  Au104  1  0.24955100  0.67657100  0.46115200  1
  Au  Au105  1  0.74955100  0.31578400  0.42634800  1
  Au  Au106  1  0.25044900  0.31578400  0.42634800  1
  Au  Au107  1  0.75044900  0.67657100  0.46115200  1
  Au  Au108  1  0.25000000  0.49617800  0.44375000  1
  Au  Au109  1  0.75000000  0.49617800  0.44375000  1
  Au  Au110  1  0.25000000  0.59617800  0.54375000  1
  Au  Au111  1  0.75000000  0.59617800  0.54375000  1
  Au  Au112  1  0.00000000  0.41559800  0.40139500  1
  Au  Au113  1  0.50000000  0.57675700  0.48610500  1
  Au  Au114  1  0.50000000  0.81371000  0.55186700  1
  Au  Au115  1  0.00000000  0.37864500  0.53563300  1
  Au  Au116  1  0.74887800  0.59617800  0.79375000  1
  Au  Au117  1  0.25112200  0.49617800  0.69375000  1
  Au  Au118  1  0.25112200  0.59617800  0.79375000  1
  Au  Au119  1  0.74887800  0.49617800  0.69375000  1
  Au  Au120  1  0.50000000  0.29545700  0.61906700  1
  Au  Au121  1  0.00000000  0.09689800  0.66843300  1
  Au  Au122  1  0.00000000  0.19711800  0.76865200  1
  Au  Au123  1  0.50000000  0.39523700  0.71884800  1
  Au  Au124  1  0.25204300  0.07678300  0.61109900  1
  Au  Au125  1  0.75204300  0.31557200  0.67640100  1
  Au  Au126  1  0.24795700  0.31557200  0.67640100  1
  Au  Au127  1  0.74795700  0.07678300  0.61109900  1
  Au  Au128  1  0.74955100  0.47657100  0.76115200  1
  Au  Au129  1  0.24955100  0.11578400  0.72634800  1
  Au  Au130  1  0.75044900  0.11578400  0.72634800  1
  Au  Au131  1  0.25044900  0.47657100  0.76115200  1
  Au  Au132  1  0.75000000  0.29617800  0.74375000  1
  Au  Au133  1  0.25000000  0.29617800  0.74375000  1
  Au  Au134  1  0.75000000  0.19617800  0.64375000  1
  Au  Au135  1  0.25000000  0.19617800  0.64375000  1
  Au  Au136  1  0.50000000  0.21559800  0.70139500  1
  Au  Au137  1  0.00000000  0.37675700  0.78610500  1
  Au  Au138  1  0.00000000  0.41371000  0.65186700  1
  Au  Au139  1  0.50000000  0.97864500  0.63563300  1
  Au  Au140  1  0.24887800  0.99617800  0.69375000  1
  Au  Au141  1  0.75112200  0.09617800  0.79375000  1
  Au  Au142  1  0.75112200  0.99617800  0.69375000  1
  Au  Au143  1  0.24887800  0.09617800  0.79375000  1
  Au  Au144  1  0.00000000  0.89545700  0.71906700  1
  Au  Au145  1  0.50000000  0.69689800  0.76843300  1
  Au  Au146  1  0.50000000  0.59711800  0.66865200  1
  Au  Au147  1  0.00000000  0.79523700  0.61884800  1
  Au  Au148  1  0.75204300  0.67678300  0.71109900  1
  Au  Au149  1  0.25204300  0.91557200  0.77640100  1
  Au  Au150  1  0.74795700  0.91557200  0.77640100  1
  Au  Au151  1  0.24795700  0.67678300  0.71109900  1
  Au  Au152  1  0.24955100  0.87657100  0.66115200  1
  Au  Au153  1  0.74955100  0.51578400  0.62634800  1
  Au  Au154  1  0.25044900  0.51578400  0.62634800  1
  Au  Au155  1  0.75044900  0.87657100  0.66115200  1
  Au  Au156  1  0.25000000  0.69617800  0.64375000  1
  Au  Au157  1  0.75000000  0.69617800  0.64375000  1
  Au  Au158  1  0.25000000  0.79617800  0.74375000  1
  Au  Au159  1  0.75000000  0.79617800  0.74375000  1
  Au  Au160  1  0.00000000  0.61559800  0.60139500  1
  Au  Au161  1  0.50000000  0.77675700  0.68610500  1
  Au  Au162  1  0.50000000  0.01371000  0.75186700  1
  Au  Au163  1  1.00000000  0.57864500  0.73563300  1
