# generated using pymatgen
data_Mg13Cd5
_symmetry_space_group_name_H-M   'P 1'
_cell_length_a   5.12256600
_cell_length_b   6.30670400
_cell_length_c   43.69412700
_cell_angle_alpha   90.00000000
_cell_angle_beta   90.00000000
_cell_angle_gamma   90.00000000
_symmetry_Int_Tables_number   1
_chemical_formula_structural   Mg13Cd5
_chemical_formula_sum   'Mg26 Cd10'
_cell_volume   1411.60464087
_cell_formula_units_Z   2
loop_
 _symmetry_equiv_pos_site_id
 _symmetry_equiv_pos_as_xyz
  1  'x, y, z'
loop_
 _atom_site_type_symbol
 _atom_site_label
 _atom_site_symmetry_multiplicity
 _atom_site_fract_x
 _atom_site_fract_y
 _atom_site_fract_z
 _atom_site_occupancy
  Mg  Mg0  1  0.75000000  0.87727400  0.30224600  1
  Mg  Mg1  1  0.75000000  0.62532500  0.23925800  1
  Mg  Mg2  1  0.75000000  0.37337500  0.30224600  1
  Mg  Mg3  1  0.25000000  0.37337500  0.26025400  1
  Mg  Mg4  1  0.25000000  0.12532500  0.19824200  1
  Mg  Mg5  1  0.25000000  0.87727400  0.26025400  1
  Mg  Mg6  1  0.75000000  0.37727400  0.42724600  1
  Mg  Mg7  1  0.75000000  0.12532500  0.36425800  1
  Mg  Mg8  1  0.75000000  0.87337500  0.42724600  1
  Mg  Mg9  1  0.25000000  0.87337500  0.38525400  1
  Mg  Mg10  1  0.25000000  0.62532500  0.32324200  1
  Mg  Mg11  1  0.25000000  0.37727400  0.38525400  1
  Mg  Mg12  1  0.75000000  0.87727400  0.55224600  1
  Mg  Mg13  1  0.75000000  0.62532500  0.48925800  1
  Mg  Mg14  1  0.75000000  0.37337500  0.55224600  1
  Mg  Mg15  1  0.25000000  0.37337500  0.51025400  1
  Mg  Mg16  1  0.25000000  0.12532500  0.44824200  1
  Mg  Mg17  1  0.25000000  0.87727400  0.51025400  1
  Mg  Mg18  1  0.75000000  0.37727400  0.67724600  1
  Mg  Mg19  1  0.75000000  0.12532500  0.61425800  1
  Mg  Mg20  1  0.75000000  0.87337500  0.67724600  1
  Mg  Mg21  1  0.25000000  0.87337500  0.63525400  1
  Mg  Mg22  1  0.25000000  0.62532500  0.57324200  1
  Mg  Mg23  1  0.25000000  0.37727400  0.63525400  1
  Mg  Mg24  1  0.75000000  0.62532500  0.73925800  1
  Mg  Mg25  1  0.25000000  0.12532500  0.69824200  1
  Cd  Cd26  1  0.75000000  0.12532500  0.23958300  1
  Cd  Cd27  1  0.25000000  0.62532500  0.19791700  1
  Cd  Cd28  1  0.75000000  0.62532500  0.36458300  1
  Cd  Cd29  1  0.25000000  0.12532500  0.32291700  1
  Cd  Cd30  1  0.75000000  0.12532500  0.48958300  1
  Cd  Cd31  1  0.25000000  0.62532500  0.44791700  1
  Cd  Cd32  1  0.75000000  0.62532500  0.61458300  1
  Cd  Cd33  1  0.25000000  0.12532500  0.57291700  1
  Cd  Cd34  1  0.75000000  0.12532500  0.73958300  1
  Cd  Cd35  1  0.25000000  0.62532500  0.69791700  1
