# generated using pymatgen
data_Mg44Zn75
_symmetry_space_group_name_H-M   'P 1'
_cell_length_a   5.07402237
_cell_length_b   17.20699092
_cell_length_c   54.58155700
_cell_angle_alpha   87.89733091
_cell_angle_beta   92.22235669
_cell_angle_gamma   98.42726965
_symmetry_Int_Tables_number   1
_chemical_formula_structural   Mg44Zn75
_chemical_formula_sum   'Mg44 Zn75'
_cell_volume   4708.12472958
_cell_formula_units_Z   1
loop_
 _symmetry_equiv_pos_site_id
 _symmetry_equiv_pos_as_xyz
  1  'x, y, z'
loop_
 _atom_site_type_symbol
 _atom_site_label
 _atom_site_symmetry_multiplicity
 _atom_site_fract_x
 _atom_site_fract_y
 _atom_site_fract_z
 _atom_site_occupancy
  Mg  Mg0  1  0.47687200  0.39483300  0.34652700  1
  Mg  Mg1  1  0.41529500  0.37857900  0.24520200  1
  Mg  Mg2  1  0.13397900  0.77902600  0.26487100  1
  Mg  Mg3  1  0.92848300  0.30692800  0.33087300  1
  Mg  Mg4  1  0.97235300  0.48530700  0.24293100  1
  Mg  Mg5  1  0.70830500  0.98879500  0.20762400  1
  Mg  Mg6  1  0.05033200  0.60098700  0.28796500  1
  Mg  Mg7  1  0.83718900  0.16172800  0.30185500  1
  Mg  Mg8  1  0.55377000  0.57127200  0.32292800  1
  Mg  Mg9  1  0.79332000  0.98334800  0.38979600  1
  Mg  Mg10  1  0.63169300  0.68963000  0.36785600  1
  Mg  Mg11  1  0.21190200  0.89738400  0.30979900  1
  Mg  Mg12  1  0.39637000  0.28593700  0.29462400  1
  Mg  Mg13  1  0.62782000  0.81098700  0.23027800  1
  Mg  Mg14  1  0.33785200  0.25766900  0.20244900  1
  Mg  Mg15  1  0.71534000  0.86766900  0.34476200  1
  Mg  Mg16  1  0.28880000  0.07382200  0.28620100  1
  Mg  Mg17  1  0.25736700  0.07986000  0.22510300  1
  Mg  Mg18  1  0.35037700  0.09007700  0.38752500  1
  Mg  Mg19  1  0.36930200  0.18271800  0.33810300  1
  Mg  Mg20  1  0.27687200  0.79483300  0.54652700  1
  Mg  Mg21  1  0.21529500  0.77857900  0.44520200  1
  Mg  Mg22  1  0.93397900  0.17902600  0.46487100  1
  Mg  Mg23  1  0.72848300  0.70692800  0.53087300  1
  Mg  Mg24  1  0.77235300  0.88530700  0.44293100  1
  Mg  Mg25  1  0.50830500  0.38879500  0.40762400  1
  Mg  Mg26  1  0.85033200  0.00098700  0.48796500  1
  Mg  Mg27  1  0.63718900  0.56172800  0.50185500  1
  Mg  Mg28  1  0.35377000  0.97127200  0.52292800  1
  Mg  Mg29  1  0.59332000  0.38334800  0.58979600  1
  Mg  Mg30  1  0.43169300  0.08963000  0.56785600  1
  Mg  Mg31  1  0.01190200  0.29738400  0.50979900  1
  Mg  Mg32  1  0.19637000  0.68593700  0.49462400  1
  Mg  Mg33  1  0.42782000  0.21098700  0.43027800  1
  Mg  Mg34  1  0.13785200  0.65766900  0.40244900  1
  Mg  Mg35  1  0.51534000  0.26766900  0.54476200  1
  Mg  Mg36  1  0.08880000  0.47382200  0.48620100  1
  Mg  Mg37  1  0.05736700  0.47986000  0.42510300  1
  Mg  Mg38  1  0.15037700  0.49007700  0.58752500  1
  Mg  Mg39  1  0.16930200  0.58271800  0.53810300  1
  Mg  Mg40  1  0.30830500  0.78879500  0.60762400  1
  Mg  Mg41  1  0.22782000  0.61098700  0.63027800  1
  Mg  Mg42  1  0.93785200  0.05766900  0.60244900  1
  Mg  Mg43  1  0.85736700  0.87986000  0.62510300  1
  Zn  Zn44  1  0.50551500  0.53927200  0.26498100  1
  Zn  Zn45  1  0.90790200  0.32959200  0.27269000  1
  Zn  Zn46  1  0.09970200  0.63118100  0.34621600  1
  Zn  Zn47  1  0.53914700  0.02744900  0.33707900  1
  Zn  Zn48  1  0.95907100  0.81684300  0.39600300  1
  Zn  Zn49  1  0.72198200  0.44030200  0.29458500  1
  Zn  Zn50  1  0.88283600  0.73432800  0.31636400  1
  Zn  Zn51  1  0.26015700  0.92938400  0.36774700  1
  Zn  Zn52  1  0.79857100  0.16659700  0.21395100  1
  Zn  Zn53  1  0.30032700  0.65203100  0.23677700  1
  Zn  Zn54  1  0.80527000  0.52729300  0.37508400  1
  Zn  Zn55  1  0.99167800  0.39288500  0.37724000  1
  Zn  Zn56  1  0.59109000  0.68931200  0.27705500  1
  Zn  Zn57  1  0.09217500  0.75022700  0.20812400  1
  Zn  Zn58  1  0.85777000  0.13906300  0.36003800  1
  Zn  Zn59  1  0.16710100  0.90205900  0.21877600  1
  Zn  Zn60  1  0.18556900  0.25921500  0.37863600  1
  Zn  Zn61  1  0.46534500  0.81662500  0.39595100  1
  Zn  Zn62  1  0.04369000  0.02835300  0.33814200  1
  Zn  Zn63  1  0.17458300  0.77934400  0.35567200  1
  Zn  Zn64  1  0.58010400  0.20944100  0.25409200  1
  Zn  Zn65  1  0.80660100  0.65181200  0.23672400  1
  Zn  Zn66  1  0.38283600  0.73432800  0.31636400  1
  Zn  Zn67  1  0.01124100  0.48475500  0.33384600  1
  Zn  Zn68  1  0.30967900  0.52757900  0.37549000  1
  Zn  Zn69  1  0.67174000  0.25925000  0.37774400  1
  Zn  Zn70  1  0.75443200  0.98390000  0.29888100  1
  Zn  Zn71  1  0.09393200  0.20940600  0.25498300  1
  Zn  Zn72  1  0.87349800  0.31842900  0.22460300  1
  Zn  Zn73  1  0.45599300  0.94107700  0.25723700  1
  Zn  Zn74  1  0.22652500  0.44120700  0.29564800  1
  Zn  Zn75  1  0.48283600  0.53432800  0.21636400  1
  Zn  Zn76  1  0.96040200  0.94136300  0.25764300  1
  Zn  Zn77  1  0.77399400  0.07577100  0.25548700  1
  Zn  Zn78  1  0.66597000  0.83747500  0.28651100  1
  Zn  Zn79  1  0.30551500  0.93927200  0.46498100  1
  Zn  Zn80  1  0.70790200  0.72959200  0.47269000  1
  Zn  Zn81  1  0.89970200  0.03118100  0.54621600  1
  Zn  Zn82  1  0.33914700  0.42744900  0.53707900  1
  Zn  Zn83  1  0.75907100  0.21684300  0.59600300  1
  Zn  Zn84  1  0.52198200  0.84030200  0.49458500  1
  Zn  Zn85  1  0.68283600  0.13432800  0.51636400  1
  Zn  Zn86  1  0.06015700  0.32938400  0.56774700  1
  Zn  Zn87  1  0.59857100  0.56659700  0.41395100  1
  Zn  Zn88  1  0.10032700  0.05203100  0.43677700  1
  Zn  Zn89  1  0.60527000  0.92729300  0.57508400  1
  Zn  Zn90  1  0.79167800  0.79288500  0.57724000  1
  Zn  Zn91  1  0.39109000  0.08931200  0.47705500  1
  Zn  Zn92  1  0.89217500  0.15022700  0.40812400  1
  Zn  Zn93  1  0.65777000  0.53906300  0.56003800  1
  Zn  Zn94  1  0.96710100  0.30205900  0.41877600  1
  Zn  Zn95  1  0.98556900  0.65921500  0.57863600  1
  Zn  Zn96  1  0.26534500  0.21662500  0.59595100  1
  Zn  Zn97  1  0.84369000  0.42835300  0.53814200  1
  Zn  Zn98  1  0.97458300  0.17934400  0.55567200  1
  Zn  Zn99  1  0.38010400  0.60944100  0.45409200  1
  Zn  Zn100  1  0.60660100  0.05181200  0.43672400  1
  Zn  Zn101  1  0.18283600  0.13432800  0.51636400  1
  Zn  Zn102  1  0.81124100  0.88475500  0.53384600  1
  Zn  Zn103  1  0.10967900  0.92757900  0.57549000  1
  Zn  Zn104  1  0.47174000  0.65925000  0.57774400  1
  Zn  Zn105  1  0.55443200  0.38390000  0.49888100  1
  Zn  Zn106  1  0.89393200  0.60940600  0.45498300  1
  Zn  Zn107  1  0.67349800  0.71842900  0.42460300  1
  Zn  Zn108  1  0.25599300  0.34107700  0.45723700  1
  Zn  Zn109  1  0.02652500  0.84120700  0.49564800  1
  Zn  Zn110  1  0.28283600  0.93432800  0.41636400  1
  Zn  Zn111  1  0.76040200  0.34136300  0.45764300  1
  Zn  Zn112  1  0.57399400  0.47577100  0.45548700  1
  Zn  Zn113  1  0.46597000  0.23747500  0.48651100  1
  Zn  Zn114  1  0.39857100  0.96659700  0.61395100  1
  Zn  Zn115  1  0.69217500  0.55022700  0.60812400  1
  Zn  Zn116  1  0.76710100  0.70205900  0.61877600  1
  Zn  Zn117  1  0.47349800  0.11842900  0.62460300  1
  Zn  Zn118  1  0.08283600  0.33432800  0.61636400  1
