# generated using pymatgen
data_Mg20Zn101
_symmetry_space_group_name_H-M   'P 1'
_cell_length_a   9.38239124
_cell_length_b   9.87228504
_cell_length_c   47.88422100
_cell_angle_alpha   93.42143374
_cell_angle_beta   90.35613488
_cell_angle_gamma   117.39448675
_symmetry_Int_Tables_number   1
_chemical_formula_structural   Mg20Zn101
_chemical_formula_sum   'Mg20 Zn101'
_cell_volume   3928.07221196
_cell_formula_units_Z   1
loop_
 _symmetry_equiv_pos_site_id
 _symmetry_equiv_pos_as_xyz
  1  'x, y, z'
loop_
 _atom_site_type_symbol
 _atom_site_label
 _atom_site_symmetry_multiplicity
 _atom_site_fract_x
 _atom_site_fract_y
 _atom_site_fract_z
 _atom_site_occupancy
  Mg  Mg0  1  0.49983800  0.30775200  0.67406000  1
  Mg  Mg1  1  0.20348700  0.09889900  0.63010700  1
  Mg  Mg2  1  0.65871800  0.65171600  0.65495100  1
  Mg  Mg3  1  0.04460700  0.75493500  0.64921600  1
  Mg  Mg4  1  0.39983800  0.10775200  0.57406000  1
  Mg  Mg5  1  0.10348700  0.89889900  0.53010700  1
  Mg  Mg6  1  0.55871800  0.45171600  0.55495100  1
  Mg  Mg7  1  0.94460700  0.55493500  0.54921600  1
  Mg  Mg8  1  0.29983800  0.90775200  0.47406000  1
  Mg  Mg9  1  0.00348700  0.69889900  0.43010700  1
  Mg  Mg10  1  0.45871800  0.25171600  0.45495100  1
  Mg  Mg11  1  0.84460700  0.35493500  0.44921600  1
  Mg  Mg12  1  0.19983800  0.70775200  0.37406000  1
  Mg  Mg13  1  0.90348700  0.49889900  0.33010700  1
  Mg  Mg14  1  0.35871800  0.05171600  0.35495100  1
  Mg  Mg15  1  0.74460700  0.15493500  0.34921600  1
  Mg  Mg16  1  0.09983800  0.50775200  0.27406000  1
  Mg  Mg17  1  0.80348700  0.29889900  0.23010700  1
  Mg  Mg18  1  0.25871800  0.85171600  0.25495100  1
  Mg  Mg19  1  0.64460700  0.95493500  0.24921600  1
  Zn  Zn20  1  0.90166300  0.80332500  0.70208300  1
  Zn  Zn21  1  0.35166300  0.70332500  0.65208300  1
  Zn  Zn22  1  0.58522500  0.86318200  0.69875800  1
  Zn  Zn23  1  0.74724600  0.18110600  0.68109600  1
  Zn  Zn24  1  0.17301800  0.03232300  0.68936100  1
  Zn  Zn25  1  0.53030800  0.37432700  0.61480500  1
  Zn  Zn26  1  0.81506800  0.42310300  0.64016800  1
  Zn  Zn27  1  0.31607000  0.42984100  0.63918200  1
  Zn  Zn28  1  0.11810000  0.54346900  0.60540900  1
  Zn  Zn29  1  0.58536900  0.14917900  0.62731400  1
  Zn  Zn30  1  0.33668500  0.87566800  0.61441400  1
  Zn  Zn31  1  0.36664100  0.53098300  0.68975300  1
  Zn  Zn32  1  0.38725600  0.97681000  0.66498500  1
  Zn  Zn33  1  0.83878700  0.88460800  0.61452900  1
  Zn  Zn34  1  0.95607900  0.22554400  0.62307100  1
  Zn  Zn35  1  0.86453800  0.52204300  0.68963800  1
  Zn  Zn36  1  0.88825700  0.98354800  0.66399900  1
  Zn  Zn37  1  0.80166300  0.60332500  0.60208300  1
  Zn  Zn38  1  0.08433800  0.48802900  0.66404400  1
  Zn  Zn39  1  0.61898700  0.91862100  0.64012200  1
  Zn  Zn40  1  0.11795600  0.25747200  0.67685300  1
  Zn  Zn41  1  0.25166300  0.50332500  0.55208300  1
  Zn  Zn42  1  0.48522500  0.66318200  0.59875800  1
  Zn  Zn43  1  0.64724600  0.98110600  0.58109600  1
  Zn  Zn44  1  0.07301800  0.83232300  0.58936100  1
  Zn  Zn45  1  0.43030800  0.17432700  0.51480500  1
  Zn  Zn46  1  0.71506800  0.22310300  0.54016800  1
  Zn  Zn47  1  0.21607000  0.22984100  0.53918200  1
  Zn  Zn48  1  0.01810000  0.34346900  0.50540900  1
  Zn  Zn49  1  0.48536900  0.94917900  0.52731400  1
  Zn  Zn50  1  0.23668500  0.67566800  0.51441400  1
  Zn  Zn51  1  0.26664100  0.33098300  0.58975300  1
  Zn  Zn52  1  0.28725600  0.77681000  0.56498500  1
  Zn  Zn53  1  0.73878700  0.68460800  0.51452900  1
  Zn  Zn54  1  0.85607900  0.02554400  0.52307100  1
  Zn  Zn55  1  0.76453800  0.32204300  0.58963800  1
  Zn  Zn56  1  0.78825700  0.78354800  0.56399900  1
  Zn  Zn57  1  0.70166300  0.40332500  0.50208300  1
  Zn  Zn58  1  0.98433800  0.28802900  0.56404400  1
  Zn  Zn59  1  0.51898700  0.71862100  0.54012200  1
  Zn  Zn60  1  0.01795600  0.05747200  0.57685300  1
  Zn  Zn61  1  0.15166300  0.30332500  0.45208300  1
  Zn  Zn62  1  0.38522500  0.46318200  0.49875800  1
  Zn  Zn63  1  0.54724600  0.78110600  0.48109600  1
  Zn  Zn64  1  0.97301800  0.63232300  0.48936100  1
  Zn  Zn65  1  0.33030800  0.97432700  0.41480500  1
  Zn  Zn66  1  0.61506800  0.02310300  0.44016800  1
  Zn  Zn67  1  0.11607000  0.02984100  0.43918200  1
  Zn  Zn68  1  0.91810000  0.14346900  0.40540900  1
  Zn  Zn69  1  0.38536900  0.74917900  0.42731400  1
  Zn  Zn70  1  0.13668500  0.47566800  0.41441400  1
  Zn  Zn71  1  0.16664100  0.13098300  0.48975300  1
  Zn  Zn72  1  0.18725600  0.57681000  0.46498500  1
  Zn  Zn73  1  0.63878700  0.48460800  0.41452900  1
  Zn  Zn74  1  0.75607900  0.82554400  0.42307100  1
  Zn  Zn75  1  0.66453800  0.12204300  0.48963800  1
  Zn  Zn76  1  0.68825700  0.58354800  0.46399900  1
  Zn  Zn77  1  0.60166300  0.20332500  0.40208300  1
  Zn  Zn78  1  0.88433800  0.08802900  0.46404400  1
  Zn  Zn79  1  0.41898700  0.51862100  0.44012200  1
  Zn  Zn80  1  0.91795600  0.85747200  0.47685300  1
  Zn  Zn81  1  0.05166300  0.10332500  0.35208300  1
  Zn  Zn82  1  0.28522500  0.26318200  0.39875800  1
  Zn  Zn83  1  0.44724600  0.58110600  0.38109600  1
  Zn  Zn84  1  0.87301800  0.43232300  0.38936100  1
  Zn  Zn85  1  0.23030800  0.77432700  0.31480500  1
  Zn  Zn86  1  0.51506800  0.82310300  0.34016800  1
  Zn  Zn87  1  0.01607000  0.82984100  0.33918200  1
  Zn  Zn88  1  0.81810000  0.94346900  0.30540900  1
  Zn  Zn89  1  0.28536900  0.54917900  0.32731400  1
  Zn  Zn90  1  0.03668500  0.27566800  0.31441400  1
  Zn  Zn91  1  0.06664100  0.93098300  0.38975300  1
  Zn  Zn92  1  0.08725600  0.37681000  0.36498500  1
  Zn  Zn93  1  0.53878700  0.28460800  0.31452900  1
  Zn  Zn94  1  0.65607900  0.62554400  0.32307100  1
  Zn  Zn95  1  0.56453800  0.92204300  0.38963800  1
  Zn  Zn96  1  0.58825700  0.38354800  0.36399900  1
  Zn  Zn97  1  0.50166300  0.00332500  0.30208300  1
  Zn  Zn98  1  0.78433800  0.88802900  0.36404400  1
  Zn  Zn99  1  0.31898700  0.31862100  0.34012200  1
  Zn  Zn100  1  0.81795600  0.65747200  0.37685300  1
  Zn  Zn101  1  0.95166300  0.90332500  0.25208300  1
  Zn  Zn102  1  0.18522500  0.06318200  0.29875800  1
  Zn  Zn103  1  0.34724600  0.38110600  0.28109600  1
  Zn  Zn104  1  0.77301800  0.23232300  0.28936100  1
  Zn  Zn105  1  0.13030800  0.57432700  0.21480500  1
  Zn  Zn106  1  0.41506800  0.62310300  0.24016800  1
  Zn  Zn107  1  0.91607000  0.62984100  0.23918200  1
  Zn  Zn108  1  0.71810000  0.74346900  0.20540900  1
  Zn  Zn109  1  0.18536900  0.34917900  0.22731400  1
  Zn  Zn110  1  0.93668500  0.07566800  0.21441400  1
  Zn  Zn111  1  0.96664100  0.73098300  0.28975300  1
  Zn  Zn112  1  0.98725600  0.17681000  0.26498500  1
  Zn  Zn113  1  0.43878700  0.08460800  0.21452900  1
  Zn  Zn114  1  0.55607900  0.42554400  0.22307100  1
  Zn  Zn115  1  0.46453800  0.72204300  0.28963800  1
  Zn  Zn116  1  0.48825700  0.18354800  0.26399900  1
  Zn  Zn117  1  0.40166300  0.80332500  0.20208300  1
  Zn  Zn118  1  0.68433800  0.68802900  0.26404400  1
  Zn  Zn119  1  0.21898700  0.11862100  0.24012200  1
  Zn  Zn120  1  0.71795600  0.45747200  0.27685300  1
