# generated using pymatgen
data_La2Mg
_symmetry_space_group_name_H-M   'P 1'
_cell_length_a   4.03112339
_cell_length_b   6.71963326
_cell_length_c   41.86088400
_cell_angle_alpha   88.80092433
_cell_angle_beta   89.91540209
_cell_angle_gamma   72.82133312
_symmetry_Int_Tables_number   1
_chemical_formula_structural   La2Mg
_chemical_formula_sum   'La14 Mg7'
_cell_volume   1083.07777252
_cell_formula_units_Z   7
loop_
 _symmetry_equiv_pos_site_id
 _symmetry_equiv_pos_as_xyz
  1  'x, y, z'
loop_
 _atom_site_type_symbol
 _atom_site_label
 _atom_site_symmetry_multiplicity
 _atom_site_fract_x
 _atom_site_fract_y
 _atom_site_fract_z
 _atom_site_occupancy
  La  La0  1  0.59010100  0.46291100  0.25867300  1
  La  La1  1  0.95535300  0.71890800  0.19587300  1
  La  La2  1  0.49919200  0.64472900  0.34958200  1
  La  La3  1  0.86444400  0.90072600  0.28678200  1
  La  La4  1  0.40828300  0.82654700  0.44049100  1
  La  La5  1  0.77353500  0.08254400  0.37769100  1
  La  La6  1  0.31737400  0.00836500  0.53140000  1
  La  La7  1  0.68262600  0.26436200  0.46860000  1
  La  La8  1  0.22646500  0.19018300  0.62230900  1
  La  La9  1  0.59171700  0.44618000  0.55950900  1
  La  La10  1  0.13555600  0.37200200  0.71321800  1
  La  La11  1  0.50080800  0.62799800  0.65041800  1
  La  La12  1  0.04464700  0.55382000  0.80412700  1
  La  La13  1  0.40989900  0.80981700  0.74132700  1
  Mg  Mg14  1  0.27272700  0.09090900  0.22727300  1
  Mg  Mg15  1  0.18181800  0.27272700  0.31818200  1
  Mg  Mg16  1  0.09090900  0.45454500  0.40909100  1
  Mg  Mg17  1  0.00000000  0.63636400  0.50000000  1
  Mg  Mg18  1  0.90909100  0.81818200  0.59090900  1
  Mg  Mg19  1  0.81818200  0.00000000  0.68181800  1
  Mg  Mg20  1  0.72727300  0.18181800  0.77272700  1
