# generated using pymatgen
data_MgCd3
_symmetry_space_group_name_H-M   'P 1'
_cell_length_a   5.12145700
_cell_length_b   6.29994100
_cell_length_c   43.64727300
_cell_angle_alpha   90.00000000
_cell_angle_beta   90.00000000
_cell_angle_gamma   90.00000000
_symmetry_Int_Tables_number   1
_chemical_formula_structural   MgCd3
_chemical_formula_sum   'Mg10 Cd30'
_cell_volume   1408.27389185
_cell_formula_units_Z   10
loop_
 _symmetry_equiv_pos_site_id
 _symmetry_equiv_pos_as_xyz
  1  'x, y, z'
loop_
 _atom_site_type_symbol
 _atom_site_label
 _atom_site_symmetry_multiplicity
 _atom_site_fract_x
 _atom_site_fract_y
 _atom_site_fract_z
 _atom_site_occupancy
  Mg  Mg0  1  0.25000000  0.25000000  0.29166700  1
  Mg  Mg1  1  0.75000000  0.25000000  0.20833300  1
  Mg  Mg2  1  0.25000000  0.75000000  0.41666700  1
  Mg  Mg3  1  0.75000000  0.75000000  0.33333300  1
  Mg  Mg4  1  0.25000000  0.25000000  0.54166700  1
  Mg  Mg5  1  0.75000000  0.25000000  0.45833300  1
  Mg  Mg6  1  0.25000000  0.75000000  0.66666700  1
  Mg  Mg7  1  0.75000000  0.75000000  0.58333300  1
  Mg  Mg8  1  0.25000000  0.25000000  0.79166700  1
  Mg  Mg9  1  0.75000000  0.25000000  0.70833300  1
  Cd  Cd10  1  0.25000000  0.00032200  0.22914000  1
  Cd  Cd11  1  0.75000000  0.49967800  0.27086000  1
  Cd  Cd12  1  0.75000000  0.00032200  0.27086000  1
  Cd  Cd13  1  0.25000000  0.75000000  0.29172000  1
  Cd  Cd14  1  0.25000000  0.49967800  0.22914000  1
  Cd  Cd15  1  0.75000000  0.75000000  0.20828000  1
  Cd  Cd16  1  0.25000000  0.50032200  0.35414000  1
  Cd  Cd17  1  0.75000000  0.99967800  0.39586000  1
  Cd  Cd18  1  0.75000000  0.50032200  0.39586000  1
  Cd  Cd19  1  0.25000000  0.25000000  0.41672000  1
  Cd  Cd20  1  0.25000000  0.99967800  0.35414000  1
  Cd  Cd21  1  0.75000000  0.25000000  0.33328000  1
  Cd  Cd22  1  0.25000000  0.00032200  0.47914000  1
  Cd  Cd23  1  0.75000000  0.49967800  0.52086000  1
  Cd  Cd24  1  0.75000000  0.00032200  0.52086000  1
  Cd  Cd25  1  0.25000000  0.75000000  0.54172000  1
  Cd  Cd26  1  0.25000000  0.49967800  0.47914000  1
  Cd  Cd27  1  0.75000000  0.75000000  0.45828000  1
  Cd  Cd28  1  0.25000000  0.50032200  0.60414000  1
  Cd  Cd29  1  0.75000000  0.99967800  0.64586000  1
  Cd  Cd30  1  0.75000000  0.50032200  0.64586000  1
  Cd  Cd31  1  0.25000000  0.25000000  0.66672000  1
  Cd  Cd32  1  0.25000000  0.99967800  0.60414000  1
  Cd  Cd33  1  0.75000000  0.25000000  0.58328000  1
  Cd  Cd34  1  0.25000000  0.00032200  0.72914000  1
  Cd  Cd35  1  0.75000000  0.49967800  0.77086000  1
  Cd  Cd36  1  0.75000000  0.00032200  0.77086000  1
  Cd  Cd37  1  0.25000000  0.75000000  0.79172000  1
  Cd  Cd38  1  0.25000000  0.49967800  0.72914000  1
  Cd  Cd39  1  0.75000000  0.75000000  0.70828000  1
