# generated using pymatgen
data_Tb24Mg47
_symmetry_space_group_name_H-M   'P 1'
_cell_length_a   6.08248400
_cell_length_b   11.52336530
_cell_length_c   46.46507000
_cell_angle_alpha   93.25447367
_cell_angle_beta   90.00000000
_cell_angle_gamma   74.69723465
_symmetry_Int_Tables_number   1
_chemical_formula_structural   Tb24Mg47
_chemical_formula_sum   'Tb24 Mg47'
_cell_volume   3135.85303789
_cell_formula_units_Z   1
loop_
 _symmetry_equiv_pos_site_id
 _symmetry_equiv_pos_as_xyz
  1  'x, y, z'
loop_
 _atom_site_type_symbol
 _atom_site_label
 _atom_site_symmetry_multiplicity
 _atom_site_fract_x
 _atom_site_fract_y
 _atom_site_fract_z
 _atom_site_occupancy
  Tb  Tb0  1  0.25734500  0.52462700  0.21876200  1
  Tb  Tb1  1  0.52401200  0.99129400  0.23542900  1
  Tb  Tb2  1  0.37410900  0.29110000  0.27290500  1
  Tb  Tb3  1  0.10744200  0.82443300  0.25623800  1
  Tb  Tb4  1  0.85734500  0.32462700  0.31876200  1
  Tb  Tb5  1  0.12401200  0.79129400  0.33542900  1
  Tb  Tb6  1  0.97410900  0.09110000  0.37290500  1
  Tb  Tb7  1  0.70744200  0.62443300  0.35623800  1
  Tb  Tb8  1  0.45734500  0.12462700  0.41876200  1
  Tb  Tb9  1  0.72401200  0.59129400  0.43542900  1
  Tb  Tb10  1  0.57410900  0.89110000  0.47290500  1
  Tb  Tb11  1  0.30744200  0.42443300  0.45623800  1
  Tb  Tb12  1  0.05734500  0.92462700  0.51876200  1
  Tb  Tb13  1  0.32401200  0.39129400  0.53542900  1
  Tb  Tb14  1  0.17410900  0.69110000  0.57290500  1
  Tb  Tb15  1  0.90744200  0.22443300  0.55623800  1
  Tb  Tb16  1  0.65734500  0.72462700  0.61876200  1
  Tb  Tb17  1  0.92401200  0.19129400  0.63542900  1
  Tb  Tb18  1  0.77410900  0.49110000  0.67290500  1
  Tb  Tb19  1  0.50744200  0.02443300  0.65623800  1
  Tb  Tb20  1  0.25734500  0.52462700  0.71876200  1
  Tb  Tb21  1  0.52401200  0.99129400  0.73542900  1
  Tb  Tb22  1  0.37410900  0.29110000  0.77290500  1
  Tb  Tb23  1  0.10744200  0.82443300  0.75623800  1
  Mg  Mg24  1  0.81572700  0.40786400  0.24583300  1
  Mg  Mg25  1  0.61572700  0.80786400  0.29583300  1
  Mg  Mg26  1  0.68145400  0.67640900  0.23656000  1
  Mg  Mg27  1  0.64154400  0.24213600  0.20369700  1
  Mg  Mg28  1  0.15563700  0.24213600  0.20369700  1
  Mg  Mg29  1  0.47581700  0.57359100  0.28797000  1
  Mg  Mg30  1  0.98991000  0.57359100  0.28797000  1
  Mg  Mg31  1  0.95000000  0.13931800  0.25510600  1
  Mg  Mg32  1  0.41572700  0.20786400  0.34583300  1
  Mg  Mg33  1  0.21572700  0.60786400  0.39583300  1
  Mg  Mg34  1  0.28145400  0.47640900  0.33656000  1
  Mg  Mg35  1  0.24154400  0.04213600  0.30369700  1
  Mg  Mg36  1  0.75563700  0.04213600  0.30369700  1
  Mg  Mg37  1  0.07581700  0.37359100  0.38797000  1
  Mg  Mg38  1  0.58991000  0.37359100  0.38797000  1
  Mg  Mg39  1  0.55000000  0.93931800  0.35510600  1
  Mg  Mg40  1  0.01572700  0.00786400  0.44583300  1
  Mg  Mg41  1  0.81572700  0.40786400  0.49583300  1
  Mg  Mg42  1  0.88145400  0.27640900  0.43656000  1
  Mg  Mg43  1  0.84154400  0.84213600  0.40369700  1
  Mg  Mg44  1  0.35563700  0.84213600  0.40369700  1
  Mg  Mg45  1  0.67581700  0.17359100  0.48797000  1
  Mg  Mg46  1  0.18991000  0.17359100  0.48797000  1
  Mg  Mg47  1  0.15000000  0.73931800  0.45510600  1
  Mg  Mg48  1  0.61572700  0.80786400  0.54583300  1
  Mg  Mg49  1  0.41572700  0.20786400  0.59583300  1
  Mg  Mg50  1  0.48145400  0.07640900  0.53656000  1
  Mg  Mg51  1  0.44154400  0.64213600  0.50369700  1
  Mg  Mg52  1  0.95563700  0.64213600  0.50369700  1
  Mg  Mg53  1  0.27581700  0.97359100  0.58797000  1
  Mg  Mg54  1  0.78991000  0.97359100  0.58797000  1
  Mg  Mg55  1  0.75000000  0.53931800  0.55510600  1
  Mg  Mg56  1  0.21572700  0.60786400  0.64583300  1
  Mg  Mg57  1  0.01572700  0.00786400  0.69583300  1
  Mg  Mg58  1  0.08145400  0.87640900  0.63656000  1
  Mg  Mg59  1  0.04154400  0.44213600  0.60369700  1
  Mg  Mg60  1  0.55563700  0.44213600  0.60369700  1
  Mg  Mg61  1  0.87581700  0.77359100  0.68797000  1
  Mg  Mg62  1  0.38991000  0.77359100  0.68797000  1
  Mg  Mg63  1  0.35000000  0.33931800  0.65510600  1
  Mg  Mg64  1  0.81572700  0.40786400  0.74583300  1
  Mg  Mg65  1  0.68145400  0.67640900  0.73656000  1
  Mg  Mg66  1  0.64154400  0.24213600  0.70369700  1
  Mg  Mg67  1  0.15563700  0.24213600  0.70369700  1
  Mg  Mg68  1  0.47581700  0.57359100  0.78797000  1
  Mg  Mg69  1  0.98991000  0.57359100  0.78797000  1
  Mg  Mg70  1  0.95000000  0.13931800  0.75510600  1
