# generated using pymatgen
data_Ca10Mg23
_symmetry_space_group_name_H-M   'P 1'
_cell_length_a   6.14690500
_cell_length_b   6.14690535
_cell_length_c   51.92415600
_cell_angle_alpha   90.00000000
_cell_angle_beta   90.00000000
_cell_angle_gamma   120.00000350
_symmetry_Int_Tables_number   1
_chemical_formula_structural   Ca10Mg23
_chemical_formula_sum   'Ca10 Mg23'
_cell_volume   1699.07711157
_cell_formula_units_Z   1
loop_
 _symmetry_equiv_pos_site_id
 _symmetry_equiv_pos_as_xyz
  1  'x, y, z'
loop_
 _atom_site_type_symbol
 _atom_site_label
 _atom_site_symmetry_multiplicity
 _atom_site_fract_x
 _atom_site_fract_y
 _atom_site_fract_z
 _atom_site_occupancy
  Ca  Ca0  1  0.66666700  0.33333300  0.36304200  1
  Ca  Ca1  1  0.33333300  0.66666700  0.26304200  1
  Ca  Ca2  1  0.33333300  0.66666700  0.38695800  1
  Ca  Ca3  1  0.66666700  0.33333300  0.28695800  1
  Ca  Ca4  1  0.66666700  0.33333300  0.56304200  1
  Ca  Ca5  1  0.33333300  0.66666700  0.46304200  1
  Ca  Ca6  1  0.33333300  0.66666700  0.58695800  1
  Ca  Ca7  1  0.66666700  0.33333300  0.48695800  1
  Ca  Ca8  1  0.33333300  0.66666700  0.66304200  1
  Ca  Ca9  1  0.66666700  0.33333300  0.68695800  1
  Mg  Mg10  1  0.33729900  0.16865000  0.22500000  1
  Mg  Mg11  1  0.16865000  0.33729900  0.32500000  1
  Mg  Mg12  1  0.16865000  0.83135000  0.32500000  1
  Mg  Mg13  1  0.83135000  0.16865000  0.22500000  1
  Mg  Mg14  1  0.00000000  0.00000000  0.27500000  1
  Mg  Mg15  1  0.00000000  0.00000000  0.37500000  1
  Mg  Mg16  1  0.66270100  0.83135000  0.32500000  1
  Mg  Mg17  1  0.83135000  0.66270100  0.22500000  1
  Mg  Mg18  1  0.33729900  0.16865000  0.42500000  1
  Mg  Mg19  1  0.16865000  0.33729900  0.52500000  1
  Mg  Mg20  1  0.16865000  0.83135000  0.52500000  1
  Mg  Mg21  1  0.83135000  0.16865000  0.42500000  1
  Mg  Mg22  1  0.00000000  0.00000000  0.47500000  1
  Mg  Mg23  1  0.00000000  0.00000000  0.57500000  1
  Mg  Mg24  1  0.66270100  0.83135000  0.52500000  1
  Mg  Mg25  1  0.83135000  0.66270100  0.42500000  1
  Mg  Mg26  1  0.33729900  0.16865000  0.62500000  1
  Mg  Mg27  1  0.16865000  0.33729900  0.72500000  1
  Mg  Mg28  1  0.16865000  0.83135000  0.72500000  1
  Mg  Mg29  1  0.83135000  0.16865000  0.62500000  1
  Mg  Mg30  1  0.00000000  0.00000000  0.67500000  1
  Mg  Mg31  1  0.66270100  0.83135000  0.72500000  1
  Mg  Mg32  1  0.83135000  0.66270100  0.62500000  1
