# generated using pymatgen
data_Mg29Tl12
_symmetry_space_group_name_H-M   'P 1'
_cell_length_a   9.54566444
_cell_length_b   16.02918063
_cell_length_c   45.11443000
_cell_angle_alpha   88.68557816
_cell_angle_beta   89.47322622
_cell_angle_gamma   74.82313579
_symmetry_Int_Tables_number   1
_chemical_formula_structural   Mg29Tl12
_chemical_formula_sum   'Mg116 Tl48'
_cell_volume   6660.37438527
_cell_formula_units_Z   4
loop_
 _symmetry_equiv_pos_site_id
 _symmetry_equiv_pos_as_xyz
  1  'x, y, z'
loop_
 _atom_site_type_symbol
 _atom_site_label
 _atom_site_symmetry_multiplicity
 _atom_site_fract_x
 _atom_site_fract_y
 _atom_site_fract_z
 _atom_site_occupancy
  Mg  Mg0  1  0.67244500  0.18275100  0.28360700  1
  Mg  Mg1  1  0.27830100  0.94457500  0.25714300  1
  Mg  Mg2  1  0.31117200  0.32663900  0.29013000  1
  Mg  Mg3  1  0.38415700  0.20639900  0.23067900  1
  Mg  Mg4  1  0.18415700  0.15639900  0.28067900  1
  Mg  Mg5  1  0.87244500  0.23275100  0.23360700  1
  Mg  Mg6  1  0.74543100  0.06251100  0.22415600  1
  Mg  Mg7  1  0.44321300  0.52954800  0.25712000  1
  Mg  Mg8  1  0.37244500  0.73275100  0.23360700  1
  Mg  Mg9  1  0.01117200  0.87663900  0.24013000  1
  Mg  Mg10  1  0.61339000  0.85960300  0.25716600  1
  Mg  Mg11  1  0.68415700  0.65639900  0.28067900  1
  Mg  Mg12  1  0.88415700  0.70639900  0.23067900  1
  Mg  Mg13  1  0.17244500  0.68275100  0.28360700  1
  Mg  Mg14  1  0.04543100  0.51251100  0.27415600  1
  Mg  Mg15  1  0.77830100  0.44457500  0.25714300  1
  Mg  Mg16  1  0.74321300  0.97954800  0.30712000  1
  Mg  Mg17  1  0.27244500  0.08275100  0.38360700  1
  Mg  Mg18  1  0.87830100  0.84457500  0.35714300  1
  Mg  Mg19  1  0.91117200  0.22663900  0.39013000  1
  Mg  Mg20  1  0.91339000  0.30960300  0.30716600  1
  Mg  Mg21  1  0.98415700  0.10639900  0.33067900  1
  Mg  Mg22  1  0.78415700  0.05639900  0.38067900  1
  Mg  Mg23  1  0.47244500  0.13275100  0.33360700  1
  Mg  Mg24  1  0.34543100  0.96251100  0.32415600  1
  Mg  Mg25  1  0.07830100  0.89457500  0.30714300  1
  Mg  Mg26  1  0.04321300  0.42954800  0.35712000  1
  Mg  Mg27  1  0.97244500  0.63275100  0.33360700  1
  Mg  Mg28  1  0.57830100  0.39457500  0.30714300  1
  Mg  Mg29  1  0.61117200  0.77663900  0.34013000  1
  Mg  Mg30  1  0.21339000  0.75960300  0.35716600  1
  Mg  Mg31  1  0.28415700  0.55639900  0.38067900  1
  Mg  Mg32  1  0.48415700  0.60639900  0.33067900  1
  Mg  Mg33  1  0.77244500  0.58275100  0.38360700  1
  Mg  Mg34  1  0.64543100  0.41251100  0.37415600  1
  Mg  Mg35  1  0.37830100  0.34457500  0.35714300  1
  Mg  Mg36  1  0.34321300  0.87954800  0.40712000  1
  Mg  Mg37  1  0.87244500  0.98275100  0.48360700  1
  Mg  Mg38  1  0.47830100  0.74457500  0.45714300  1
  Mg  Mg39  1  0.51117200  0.12663900  0.49013000  1
  Mg  Mg40  1  0.51339000  0.20960300  0.40716600  1
  Mg  Mg41  1  0.58415700  0.00639900  0.43067900  1
  Mg  Mg42  1  0.38415700  0.95639900  0.48067900  1
  Mg  Mg43  1  0.07244500  0.03275100  0.43360700  1
  Mg  Mg44  1  0.94543100  0.86251100  0.42415600  1
  Mg  Mg45  1  0.67830100  0.79457500  0.40714300  1
  Mg  Mg46  1  0.64321300  0.32954800  0.45712000  1
  Mg  Mg47  1  0.57244500  0.53275100  0.43360700  1
  Mg  Mg48  1  0.17830100  0.29457500  0.40714300  1
  Mg  Mg49  1  0.21117200  0.67663900  0.44013000  1
  Mg  Mg50  1  0.81339000  0.65960300  0.45716600  1
  Mg  Mg51  1  0.88415700  0.45639900  0.48067900  1
  Mg  Mg52  1  0.08415700  0.50639900  0.43067900  1
  Mg  Mg53  1  0.37244500  0.48275100  0.48360700  1
  Mg  Mg54  1  0.24543100  0.31251100  0.47415600  1
  Mg  Mg55  1  0.97830100  0.24457500  0.45714300  1
  Mg  Mg56  1  0.94321300  0.77954800  0.50712000  1
  Mg  Mg57  1  0.47244500  0.88275100  0.58360700  1
  Mg  Mg58  1  0.07830100  0.64457500  0.55714300  1
  Mg  Mg59  1  0.11117200  0.02663900  0.59013000  1
  Mg  Mg60  1  0.11339000  0.10960300  0.50716600  1
  Mg  Mg61  1  0.18415700  0.90639900  0.53067900  1
  Mg  Mg62  1  0.98415700  0.85639900  0.58067900  1
  Mg  Mg63  1  0.67244500  0.93275100  0.53360700  1
  Mg  Mg64  1  0.54543100  0.76251100  0.52415600  1
  Mg  Mg65  1  0.27830100  0.69457500  0.50714300  1
  Mg  Mg66  1  0.24321300  0.22954800  0.55712000  1
  Mg  Mg67  1  0.17244500  0.43275100  0.53360700  1
  Mg  Mg68  1  0.77830100  0.19457500  0.50714300  1
  Mg  Mg69  1  0.81117200  0.57663900  0.54013000  1
  Mg  Mg70  1  0.41339000  0.55960300  0.55716600  1
  Mg  Mg71  1  0.48415700  0.35639900  0.58067900  1
  Mg  Mg72  1  0.68415700  0.40639900  0.53067900  1
  Mg  Mg73  1  0.97244500  0.38275100  0.58360700  1
  Mg  Mg74  1  0.84543100  0.21251100  0.57415600  1
  Mg  Mg75  1  0.57830100  0.14457500  0.55714300  1
  Mg  Mg76  1  0.54321300  0.67954800  0.60712000  1
  Mg  Mg77  1  0.07244500  0.78275100  0.68360700  1
  Mg  Mg78  1  0.67830100  0.54457500  0.65714300  1
  Mg  Mg79  1  0.71117200  0.92663900  0.69013000  1
  Mg  Mg80  1  0.71339000  0.00960300  0.60716600  1
  Mg  Mg81  1  0.78415700  0.80639900  0.63067900  1
  Mg  Mg82  1  0.58415700  0.75639900  0.68067900  1
  Mg  Mg83  1  0.27244500  0.83275100  0.63360700  1
  Mg  Mg84  1  0.14543100  0.66251100  0.62415600  1
  Mg  Mg85  1  0.87830100  0.59457500  0.60714300  1
  Mg  Mg86  1  0.84321300  0.12954800  0.65712000  1
  Mg  Mg87  1  0.77244500  0.33275100  0.63360700  1
  Mg  Mg88  1  0.37830100  0.09457500  0.60714300  1
  Mg  Mg89  1  0.41117200  0.47663900  0.64013000  1
  Mg  Mg90  1  0.01339000  0.45960300  0.65716600  1
  Mg  Mg91  1  0.08415700  0.25639900  0.68067900  1
  Mg  Mg92  1  0.28415700  0.30639900  0.63067900  1
  Mg  Mg93  1  0.57244500  0.28275100  0.68360700  1
  Mg  Mg94  1  0.44543100  0.11251100  0.67415600  1
  Mg  Mg95  1  0.17830100  0.04457500  0.65714300  1
  Mg  Mg96  1  0.14321300  0.57954800  0.70712000  1
  Mg  Mg97  1  0.67244500  0.68275100  0.78360700  1
  Mg  Mg98  1  0.27830100  0.44457500  0.75714300  1
  Mg  Mg99  1  0.31117200  0.82663900  0.79013000  1
  Mg  Mg100  1  0.31339000  0.90960300  0.70716600  1
  Mg  Mg101  1  0.38415700  0.70639900  0.73067900  1
  Mg  Mg102  1  0.18415700  0.65639900  0.78067900  1
  Mg  Mg103  1  0.87244500  0.73275100  0.73360700  1
  Mg  Mg104  1  0.74543100  0.56251100  0.72415600  1
  Mg  Mg105  1  0.47830100  0.49457500  0.70714300  1
  Mg  Mg106  1  0.44321300  0.02954800  0.75712000  1
  Mg  Mg107  1  0.37244500  0.23275100  0.73360700  1
  Mg  Mg108  1  0.97830100  0.99457500  0.70714300  1
  Mg  Mg109  1  0.01117200  0.37663900  0.74013000  1
  Mg  Mg110  1  0.61339000  0.35960300  0.75716600  1
  Mg  Mg111  1  0.68415700  0.15639900  0.78067900  1
  Mg  Mg112  1  0.88415700  0.20639900  0.73067900  1
  Mg  Mg113  1  0.17244500  0.18275100  0.78360700  1
  Mg  Mg114  1  0.04543100  0.01251100  0.77415600  1
  Mg  Mg115  1  0.77830100  0.94457500  0.75714300  1
  Tl  Tl116  1  0.56903100  0.33626200  0.24362600  1
  Tl  Tl117  1  0.97156700  0.05555600  0.26799200  1
  Tl  Tl118  1  0.08503600  0.33359400  0.24629400  1
  Tl  Tl119  1  0.48757200  0.05288900  0.27066000  1
  Tl  Tl120  1  0.86903100  0.78626200  0.29362600  1
  Tl  Tl121  1  0.67156700  0.60555600  0.21799200  1
  Tl  Tl122  1  0.38503600  0.78359400  0.29629400  1
  Tl  Tl123  1  0.18757200  0.60288900  0.22066000  1
  Tl  Tl124  1  0.16903100  0.23626200  0.34362600  1
  Tl  Tl125  1  0.57156700  0.95555600  0.36799200  1
  Tl  Tl126  1  0.68503600  0.23359400  0.34629400  1
  Tl  Tl127  1  0.08757200  0.95288900  0.37066000  1
  Tl  Tl128  1  0.46903100  0.68626200  0.39362600  1
  Tl  Tl129  1  0.27156700  0.50555600  0.31799200  1
  Tl  Tl130  1  0.98503600  0.68359400  0.39629400  1
  Tl  Tl131  1  0.78757200  0.50288900  0.32066000  1
  Tl  Tl132  1  0.76903100  0.13626200  0.44362600  1
  Tl  Tl133  1  0.17156700  0.85555600  0.46799200  1
  Tl  Tl134  1  0.28503600  0.13359400  0.44629400  1
  Tl  Tl135  1  0.68757200  0.85288900  0.47066000  1
  Tl  Tl136  1  0.06903100  0.58626200  0.49362600  1
  Tl  Tl137  1  0.87156700  0.40555600  0.41799200  1
  Tl  Tl138  1  0.58503600  0.58359400  0.49629400  1
  Tl  Tl139  1  0.38757200  0.40288900  0.42066000  1
  Tl  Tl140  1  0.36903100  0.03626200  0.54362600  1
  Tl  Tl141  1  0.77156700  0.75555600  0.56799200  1
  Tl  Tl142  1  0.88503600  0.03359400  0.54629400  1
  Tl  Tl143  1  0.28757200  0.75288900  0.57066000  1
  Tl  Tl144  1  0.66903100  0.48626200  0.59362600  1
  Tl  Tl145  1  0.47156700  0.30555600  0.51799200  1
  Tl  Tl146  1  0.18503600  0.48359400  0.59629400  1
  Tl  Tl147  1  0.98757200  0.30288900  0.52066000  1
  Tl  Tl148  1  0.96903100  0.93626200  0.64362600  1
  Tl  Tl149  1  0.37156700  0.65555600  0.66799200  1
  Tl  Tl150  1  0.48503600  0.93359400  0.64629400  1
  Tl  Tl151  1  0.88757200  0.65288900  0.67066000  1
  Tl  Tl152  1  0.26903100  0.38626200  0.69362600  1
  Tl  Tl153  1  0.07156700  0.20555600  0.61799200  1
  Tl  Tl154  1  0.78503600  0.38359400  0.69629400  1
  Tl  Tl155  1  0.58757200  0.20288900  0.62066000  1
  Tl  Tl156  1  0.56903100  0.83626200  0.74362600  1
  Tl  Tl157  1  0.97156700  0.55555600  0.76799200  1
  Tl  Tl158  1  0.08503600  0.83359400  0.74629400  1
  Tl  Tl159  1  0.48757200  0.55288900  0.77066000  1
  Tl  Tl160  1  0.86903100  0.28626200  0.79362600  1
  Tl  Tl161  1  0.67156700  0.10555600  0.71799200  1
  Tl  Tl162  1  0.38503600  0.28359400  0.79629400  1
  Tl  Tl163  1  0.18757200  0.10288900  0.72066000  1
