# generated using pymatgen
data_Mg23Pd36
_symmetry_space_group_name_H-M   'P 1'
_cell_length_a   6.99934446
_cell_length_b   11.53452174
_cell_length_c   42.24661500
_cell_angle_alpha   91.81842266
_cell_angle_beta   85.69593602
_cell_angle_gamma   76.70681611
_symmetry_Int_Tables_number   1
_chemical_formula_structural   Mg23Pd36
_chemical_formula_sum   'Mg46 Pd72'
_cell_volume   3305.77428051
_cell_formula_units_Z   2
loop_
 _symmetry_equiv_pos_site_id
 _symmetry_equiv_pos_as_xyz
  1  'x, y, z'
loop_
 _atom_site_type_symbol
 _atom_site_label
 _atom_site_symmetry_multiplicity
 _atom_site_fract_x
 _atom_site_fract_y
 _atom_site_fract_z
 _atom_site_occupancy
  Mg  Mg0  1  0.93335600  0.48667100  0.20673100  1
  Mg  Mg1  1  0.43335600  0.98667100  0.20673100  1
  Mg  Mg2  1  0.97965300  0.10116700  0.22970100  1
  Mg  Mg3  1  0.50244300  0.79525200  0.26068300  1
  Mg  Mg4  1  0.28131500  0.62595900  0.20490900  1
  Mg  Mg5  1  0.58539700  0.34738300  0.20855300  1
  Mg  Mg6  1  0.54874000  0.40974800  0.28365400  1
  Mg  Mg7  1  0.04874000  0.90974800  0.28365400  1
  Mg  Mg8  1  0.59503800  0.02424400  0.30662400  1
  Mg  Mg9  1  0.11782700  0.71832900  0.33760600  1
  Mg  Mg10  1  0.89669900  0.54903600  0.28183200  1
  Mg  Mg11  1  0.20078100  0.27046000  0.28547600  1
  Mg  Mg12  1  0.16412500  0.33282500  0.36057700  1
  Mg  Mg13  1  0.66412500  0.83282500  0.36057700  1
  Mg  Mg14  1  0.21042200  0.94732100  0.38354700  1
  Mg  Mg15  1  0.73321200  0.64140600  0.41452900  1
  Mg  Mg16  1  0.51208400  0.47211300  0.35875500  1
  Mg  Mg17  1  0.81616600  0.19353700  0.36239900  1
  Mg  Mg18  1  0.77950900  0.25590200  0.43750000  1
  Mg  Mg19  1  0.27950900  0.75590200  0.43750000  1
  Mg  Mg20  1  0.82580700  0.87039800  0.46047100  1
  Mg  Mg21  1  0.34859600  0.56448300  0.49145300  1
  Mg  Mg22  1  0.12746800  0.39519000  0.43567800  1
  Mg  Mg23  1  0.43155000  0.11661400  0.43932200  1
  Mg  Mg24  1  0.39489400  0.17897900  0.51442300  1
  Mg  Mg25  1  0.89489400  0.67897900  0.51442300  1
  Mg  Mg26  1  0.44119200  0.79347500  0.53739400  1
  Mg  Mg27  1  0.96398100  0.48756000  0.56837600  1
  Mg  Mg28  1  0.74285300  0.31826700  0.51260100  1
  Mg  Mg29  1  0.04693500  0.03969100  0.51624500  1
  Mg  Mg30  1  0.01027900  0.10205600  0.59134600  1
  Mg  Mg31  1  0.51027900  0.60205600  0.59134600  1
  Mg  Mg32  1  0.05657600  0.71655200  0.61431700  1
  Mg  Mg33  1  0.57936600  0.41063700  0.64529900  1
  Mg  Mg34  1  0.35823800  0.24134400  0.58952400  1
  Mg  Mg35  1  0.66232000  0.96276800  0.59316800  1
  Mg  Mg36  1  0.62566300  0.02513300  0.66826900  1
  Mg  Mg37  1  0.12566300  0.52513300  0.66826900  1
  Mg  Mg38  1  0.67196100  0.63962900  0.69124000  1
  Mg  Mg39  1  0.19475000  0.33371400  0.72222200  1
  Mg  Mg40  1  0.97362200  0.16442100  0.66644700  1
  Mg  Mg41  1  0.27770400  0.88584400  0.67009100  1
  Mg  Mg42  1  0.24104800  0.94821000  0.74519200  1
  Mg  Mg43  1  0.74104800  0.44821000  0.74519200  1
  Mg  Mg44  1  0.58900700  0.08749800  0.74337000  1
  Mg  Mg45  1  0.89308900  0.80892100  0.74701400  1
  Pd  Pd46  1  0.89130600  0.33217700  0.25008200  1
  Pd  Pd47  1  0.59079000  0.56424200  0.24030300  1
  Pd  Pd48  1  0.17628400  0.85905500  0.22320400  1
  Pd  Pd49  1  0.30581100  0.03736400  0.26718100  1
  Pd  Pd50  1  0.27099300  0.22032500  0.21691500  1
  Pd  Pd51  1  0.59571800  0.75301700  0.19654600  1
  Pd  Pd52  1  0.90815000  0.70318100  0.23406000  1
  Pd  Pd53  1  0.57394600  0.19323900  0.25632500  1
  Pd  Pd54  1  0.74104800  0.94821000  0.24519200  1
  Pd  Pd55  1  0.24104800  0.44821000  0.24519200  1
  Pd  Pd56  1  0.50669100  0.25525400  0.32700500  1
  Pd  Pd57  1  0.20617400  0.48731900  0.31722600  1
  Pd  Pd58  1  0.79166900  0.78213200  0.30012700  1
  Pd  Pd59  1  0.92119600  0.96044100  0.34410400  1
  Pd  Pd60  1  0.88637800  0.14340200  0.29383800  1
  Pd  Pd61  1  0.21110200  0.67609400  0.27346900  1
  Pd  Pd62  1  0.52353400  0.62625700  0.31098300  1
  Pd  Pd63  1  0.18933100  0.11631600  0.33324800  1
  Pd  Pd64  1  0.35643200  0.87128600  0.32211500  1
  Pd  Pd65  1  0.85643200  0.37128600  0.32211500  1
  Pd  Pd66  1  0.12207500  0.17833100  0.40392800  1
  Pd  Pd67  1  0.82155900  0.41039600  0.39414900  1
  Pd  Pd68  1  0.40705400  0.70520900  0.37705000  1
  Pd  Pd69  1  0.53658100  0.88351800  0.42102700  1
  Pd  Pd70  1  0.50176300  0.06647900  0.37076100  1
  Pd  Pd71  1  0.82648700  0.59917100  0.35039200  1
  Pd  Pd72  1  0.13891900  0.54933400  0.38790600  1
  Pd  Pd73  1  0.80471500  0.03939200  0.41017100  1
  Pd  Pd74  1  0.97181700  0.79436300  0.39903800  1
  Pd  Pd75  1  0.47181700  0.29436300  0.39903800  1
  Pd  Pd76  1  0.73746000  0.10140800  0.48085100  1
  Pd  Pd77  1  0.43694400  0.33347300  0.47107200  1
  Pd  Pd78  1  0.02243800  0.62828600  0.45397300  1
  Pd  Pd79  1  0.15196500  0.80659500  0.49795000  1
  Pd  Pd80  1  0.11714700  0.98955600  0.44768500  1
  Pd  Pd81  1  0.44187200  0.52224800  0.42731500  1
  Pd  Pd82  1  0.75430400  0.47241100  0.46482900  1
  Pd  Pd83  1  0.42010000  0.96246900  0.48709400  1
  Pd  Pd84  1  0.58720200  0.71744000  0.47596200  1
  Pd  Pd85  1  0.08720200  0.21744000  0.47596200  1
  Pd  Pd86  1  0.35284400  0.02448500  0.55777400  1
  Pd  Pd87  1  0.05232800  0.25655000  0.54799500  1
  Pd  Pd88  1  0.63782300  0.55136300  0.53089600  1
  Pd  Pd89  1  0.76735000  0.72967200  0.57487300  1
  Pd  Pd90  1  0.73253200  0.91263300  0.52460800  1
  Pd  Pd91  1  0.05725600  0.44532500  0.50423900  1
  Pd  Pd92  1  0.36968800  0.39548800  0.54175200  1
  Pd  Pd93  1  0.03548400  0.88554600  0.56401700  1
  Pd  Pd94  1  0.20258600  0.64051700  0.55288500  1
  Pd  Pd95  1  0.70258600  0.14051700  0.55288500  1
  Pd  Pd96  1  0.96822900  0.94756200  0.63469700  1
  Pd  Pd97  1  0.66771300  0.17962700  0.62491800  1
  Pd  Pd98  1  0.25320800  0.47444000  0.60781900  1
  Pd  Pd99  1  0.38273400  0.65274900  0.65179600  1
  Pd  Pd100  1  0.34791600  0.83571000  0.60153100  1
  Pd  Pd101  1  0.67264100  0.36840200  0.58116200  1
  Pd  Pd102  1  0.98507300  0.31856500  0.61867500  1
  Pd  Pd103  1  0.65086900  0.80862300  0.64094000  1
  Pd  Pd104  1  0.81797100  0.56359400  0.62980800  1
  Pd  Pd105  1  0.31797100  0.06359400  0.62980800  1
  Pd  Pd106  1  0.58361400  0.87063900  0.71162000  1
  Pd  Pd107  1  0.28309800  0.10270300  0.70184100  1
  Pd  Pd108  1  0.86859200  0.39751600  0.68474200  1
  Pd  Pd109  1  0.99811900  0.57582600  0.72871900  1
  Pd  Pd110  1  0.96330100  0.75878700  0.67845400  1
  Pd  Pd111  1  0.28802600  0.29147900  0.65808500  1
  Pd  Pd112  1  0.60045700  0.24164200  0.69559800  1
  Pd  Pd113  1  0.26625400  0.73170000  0.71786300  1
  Pd  Pd114  1  0.43335600  0.48667100  0.70673100  1
  Pd  Pd115  1  0.93335600  0.98667100  0.70673100  1
  Pd  Pd116  1  0.57868600  0.68186400  0.75537700  1
  Pd  Pd117  1  0.90341000  0.21455600  0.73500800  1
