# generated using pymatgen
data_MgAu3
_symmetry_space_group_name_H-M   'P 1'
_cell_length_a   5.98733200
_cell_length_b   22.16206628
_cell_length_c   43.22761900
_cell_angle_alpha   91.91421088
_cell_angle_beta   90.00000000
_cell_angle_gamma   90.00000000
_symmetry_Int_Tables_number   1
_chemical_formula_structural   MgAu3
_chemical_formula_sum   'Mg46 Au138'
_cell_volume   5732.74315522
_cell_formula_units_Z   46
loop_
 _symmetry_equiv_pos_site_id
 _symmetry_equiv_pos_as_xyz
  1  'x, y, z'
loop_
 _atom_site_type_symbol
 _atom_site_label
 _atom_site_symmetry_multiplicity
 _atom_site_fract_x
 _atom_site_fract_y
 _atom_site_fract_z
 _atom_site_occupancy
  Mg  Mg0  1  0.50000000  0.76169100  0.33756800  1
  Mg  Mg1  1  0.00000000  0.96382800  0.28743200  1
  Mg  Mg2  1  0.00000000  0.06350900  0.38711300  1
  Mg  Mg3  1  0.50000000  0.66201000  0.23788700  1
  Mg  Mg4  1  0.00000000  0.78095200  0.27045200  1
  Mg  Mg5  1  0.50000000  0.94456600  0.35454800  1
  Mg  Mg6  1  0.00000000  0.16169100  0.23756800  1
  Mg  Mg7  1  0.50000000  0.56382800  0.38743200  1
  Mg  Mg8  1  0.50000000  0.46350900  0.28711300  1
  Mg  Mg9  1  0.00000000  0.26201000  0.33788700  1
  Mg  Mg10  1  0.00000000  0.58295100  0.31995200  1
  Mg  Mg11  1  0.50000000  0.14256800  0.30504800  1
  Mg  Mg12  1  0.50000000  0.38095200  0.37045200  1
  Mg  Mg13  1  0.00000000  0.34456600  0.25454800  1
  Mg  Mg14  1  0.50000000  0.96169100  0.53756800  1
  Mg  Mg15  1  0.00000000  0.16382800  0.48743200  1
  Mg  Mg16  1  0.00000000  0.26350900  0.58711300  1
  Mg  Mg17  1  0.50000000  0.86201000  0.43788700  1
  Mg  Mg18  1  0.50000000  0.18295100  0.41995200  1
  Mg  Mg19  1  0.00000000  0.74256800  0.40504800  1
  Mg  Mg20  1  0.00000000  0.98095200  0.47045200  1
  Mg  Mg21  1  0.50000000  0.14456600  0.55454800  1
  Mg  Mg22  1  0.00000000  0.36169100  0.43756800  1
  Mg  Mg23  1  0.50000000  0.76382800  0.58743200  1
  Mg  Mg24  1  0.50000000  0.66350900  0.48711300  1
  Mg  Mg25  1  0.00000000  0.46201000  0.53788700  1
  Mg  Mg26  1  0.00000000  0.78295100  0.51995200  1
  Mg  Mg27  1  0.50000000  0.34256800  0.50504800  1
  Mg  Mg28  1  0.50000000  0.58095200  0.57045200  1
  Mg  Mg29  1  0.00000000  0.54456600  0.45454800  1
  Mg  Mg30  1  0.50000000  0.16169100  0.73756800  1
  Mg  Mg31  1  0.00000000  0.36382800  0.68743200  1
  Mg  Mg32  1  0.00000000  0.46350900  0.78711300  1
  Mg  Mg33  1  0.50000000  0.06201000  0.63788700  1
  Mg  Mg34  1  0.50000000  0.38295100  0.61995200  1
  Mg  Mg35  1  0.00000000  0.94256800  0.60504800  1
  Mg  Mg36  1  0.00000000  0.18095200  0.67045200  1
  Mg  Mg37  1  0.50000000  0.34456600  0.75454800  1
  Mg  Mg38  1  0.00000000  0.56169100  0.63756800  1
  Mg  Mg39  1  0.50000000  0.96382800  0.78743200  1
  Mg  Mg40  1  0.50000000  0.86350900  0.68711300  1
  Mg  Mg41  1  0.00000000  0.66201000  0.73788700  1
  Mg  Mg42  1  1.00000000  0.98295100  0.71995200  1
  Mg  Mg43  1  0.50000000  0.54256800  0.70504800  1
  Mg  Mg44  1  0.50000000  0.78095200  0.77045200  1
  Mg  Mg45  1  0.00000000  0.74456600  0.65454800  1
  Au  Au46  1  0.74887800  0.16275900  0.36250000  1
  Au  Au47  1  0.25112200  0.06275900  0.26250000  1
  Au  Au48  1  0.25112200  0.16275900  0.36250000  1
  Au  Au49  1  0.74887800  0.06275900  0.26250000  1
  Au  Au50  1  0.50000000  0.06203900  0.38781700  1
  Au  Au51  1  0.00000000  0.66348000  0.23718300  1
  Au  Au52  1  0.00000000  0.76370000  0.33740200  1
  Au  Au53  1  0.50000000  0.96181900  0.28759800  1
  Au  Au54  1  0.25204300  0.84336500  0.37984900  1
  Au  Au55  1  0.75204300  0.88215400  0.24515100  1
  Au  Au56  1  0.24795700  0.88215400  0.24515100  1
  Au  Au57  1  0.74795700  0.84336500  0.37984900  1
  Au  Au58  1  0.74955100  0.04315300  0.32990200  1
  Au  Au59  1  0.24955100  0.68236600  0.29509800  1
  Au  Au60  1  0.75044900  0.68236600  0.29509800  1
  Au  Au61  1  0.25044900  0.04315300  0.32990200  1
  Au  Au62  1  0.75000000  0.86275900  0.31250000  1
  Au  Au63  1  0.25000000  0.86275900  0.31250000  1
  Au  Au64  1  0.50000000  0.78218000  0.27014500  1
  Au  Au65  1  0.00000000  0.94333900  0.35485500  1
  Au  Au66  1  0.24887800  0.56275900  0.26250000  1
  Au  Au67  1  0.75112200  0.66275900  0.36250000  1
  Au  Au68  1  0.75112200  0.56275900  0.26250000  1
  Au  Au69  1  0.24887800  0.66275900  0.36250000  1
  Au  Au70  1  0.00000000  0.46203900  0.28781700  1
  Au  Au71  1  0.50000000  0.26348000  0.33718300  1
  Au  Au72  1  0.50000000  0.16370000  0.23740200  1
  Au  Au73  1  0.00000000  0.56181900  0.38759800  1
  Au  Au74  1  0.75204300  0.24336500  0.27984900  1
  Au  Au75  1  0.25204300  0.48215400  0.34515100  1
  Au  Au76  1  0.74795700  0.48215400  0.34515100  1
  Au  Au77  1  0.24795700  0.24336500  0.27984900  1
  Au  Au78  1  0.24955100  0.44315300  0.22990200  1
  Au  Au79  1  0.74955100  0.28236600  0.39509800  1
  Au  Au80  1  0.25044900  0.28236600  0.39509800  1
  Au  Au81  1  0.75044900  0.44315300  0.22990200  1
  Au  Au82  1  0.25000000  0.36275900  0.31250000  1
  Au  Au83  1  0.75000000  0.36275900  0.31250000  1
  Au  Au84  1  0.00000000  0.38218000  0.37014500  1
  Au  Au85  1  0.50000000  0.34333900  0.25485500  1
  Au  Au86  1  0.50000000  0.58029200  0.32061700  1
  Au  Au87  1  0.00000000  0.14522700  0.30438300  1
  Au  Au88  1  0.74887800  0.36275900  0.56250000  1
  Au  Au89  1  0.25112200  0.26275900  0.46250000  1
  Au  Au90  1  0.25112200  0.36275900  0.56250000  1
  Au  Au91  1  0.74887800  0.26275900  0.46250000  1
  Au  Au92  1  0.50000000  0.26203900  0.58781700  1
  Au  Au93  1  0.00000000  0.86348000  0.43718300  1
  Au  Au94  1  0.00000000  0.96370000  0.53740200  1
  Au  Au95  1  0.50000000  0.16181900  0.48759800  1
  Au  Au96  1  0.25204300  0.04336500  0.57984900  1
  Au  Au97  1  0.75204300  0.08215400  0.44515100  1
  Au  Au98  1  0.24795700  0.08215400  0.44515100  1
  Au  Au99  1  0.74795700  0.04336500  0.57984900  1
  Au  Au100  1  0.74955100  0.24315300  0.52990200  1
  Au  Au101  1  0.24955100  0.88236600  0.49509800  1
  Au  Au102  1  0.75044900  0.88236600  0.49509800  1
  Au  Au103  1  0.25044900  0.24315300  0.52990200  1
  Au  Au104  1  0.75000000  0.06275900  0.51250000  1
  Au  Au105  1  0.25000000  0.06275900  0.51250000  1
  Au  Au106  1  0.75000000  0.96275900  0.41250000  1
  Au  Au107  1  0.25000000  0.96275900  0.41250000  1
  Au  Au108  1  0.50000000  0.98218000  0.47014500  1
  Au  Au109  1  0.00000000  0.14333900  0.55485500  1
  Au  Au110  1  0.00000000  0.18029200  0.42061700  1
  Au  Au111  1  0.50000000  0.74522700  0.40438300  1
  Au  Au112  1  0.24887800  0.76275900  0.46250000  1
  Au  Au113  1  0.75112200  0.86275900  0.56250000  1
  Au  Au114  1  0.75112200  0.76275900  0.46250000  1
  Au  Au115  1  0.24887800  0.86275900  0.56250000  1
  Au  Au116  1  0.00000000  0.66203900  0.48781700  1
  Au  Au117  1  0.50000000  0.46348000  0.53718300  1
  Au  Au118  1  0.50000000  0.36370000  0.43740200  1
  Au  Au119  1  0.00000000  0.76181900  0.58759800  1
  Au  Au120  1  0.75204300  0.44336500  0.47984900  1
  Au  Au121  1  0.25204300  0.68215400  0.54515100  1
  Au  Au122  1  0.74795700  0.68215400  0.54515100  1
  Au  Au123  1  0.24795700  0.44336500  0.47984900  1
  Au  Au124  1  0.24955100  0.64315300  0.42990200  1
  Au  Au125  1  0.74955100  0.48236600  0.59509800  1
  Au  Au126  1  0.25044900  0.48236600  0.59509800  1
  Au  Au127  1  0.75044900  0.64315300  0.42990200  1
  Au  Au128  1  0.25000000  0.46275900  0.41250000  1
  Au  Au129  1  0.75000000  0.46275900  0.41250000  1
  Au  Au130  1  0.25000000  0.56275900  0.51250000  1
  Au  Au131  1  0.75000000  0.56275900  0.51250000  1
  Au  Au132  1  0.00000000  0.58218000  0.57014500  1
  Au  Au133  1  0.50000000  0.54333900  0.45485500  1
  Au  Au134  1  0.50000000  0.78029200  0.52061700  1
  Au  Au135  1  0.00000000  0.34522700  0.50438300  1
  Au  Au136  1  0.74887800  0.56275900  0.76250000  1
  Au  Au137  1  0.25112200  0.46275900  0.66250000  1
  Au  Au138  1  0.25112200  0.56275900  0.76250000  1
  Au  Au139  1  0.74887800  0.46275900  0.66250000  1
  Au  Au140  1  0.50000000  0.46203900  0.78781700  1
  Au  Au141  1  0.00000000  0.06348000  0.63718300  1
  Au  Au142  1  0.00000000  0.16370000  0.73740200  1
  Au  Au143  1  0.50000000  0.36181900  0.68759800  1
  Au  Au144  1  0.25204300  0.24336500  0.77984900  1
  Au  Au145  1  0.75204300  0.28215400  0.64515100  1
  Au  Au146  1  0.24795700  0.28215400  0.64515100  1
  Au  Au147  1  0.74795700  0.24336500  0.77984900  1
  Au  Au148  1  0.74955100  0.44315300  0.72990200  1
  Au  Au149  1  0.24955100  0.08236600  0.69509800  1
  Au  Au150  1  0.75044900  0.08236600  0.69509800  1
  Au  Au151  1  0.25044900  0.44315300  0.72990200  1
  Au  Au152  1  0.75000000  0.26275900  0.71250000  1
  Au  Au153  1  0.25000000  0.26275900  0.71250000  1
  Au  Au154  1  0.75000000  0.16275900  0.61250000  1
  Au  Au155  1  0.25000000  0.16275900  0.61250000  1
  Au  Au156  1  0.50000000  0.18218000  0.67014500  1
  Au  Au157  1  0.00000000  0.34333900  0.75485500  1
  Au  Au158  1  0.00000000  0.38029200  0.62061700  1
  Au  Au159  1  0.50000000  0.94522700  0.60438300  1
  Au  Au160  1  0.24887800  0.96275900  0.66250000  1
  Au  Au161  1  0.75112200  0.06275900  0.76250000  1
  Au  Au162  1  0.75112200  0.96275900  0.66250000  1
  Au  Au163  1  0.24887800  0.06275900  0.76250000  1
  Au  Au164  1  0.00000000  0.86203900  0.68781700  1
  Au  Au165  1  0.50000000  0.66348000  0.73718300  1
  Au  Au166  1  0.50000000  0.56370000  0.63740200  1
  Au  Au167  1  0.00000000  0.96181900  0.78759800  1
  Au  Au168  1  0.75204300  0.64336500  0.67984900  1
  Au  Au169  1  0.25204300  0.88215400  0.74515100  1
  Au  Au170  1  0.74795700  0.88215400  0.74515100  1
  Au  Au171  1  0.24795700  0.64336500  0.67984900  1
  Au  Au172  1  0.24955100  0.84315300  0.62990200  1
  Au  Au173  1  0.74955100  0.68236600  0.79509800  1
  Au  Au174  1  0.25044900  0.68236600  0.79509800  1
  Au  Au175  1  0.75044900  0.84315300  0.62990200  1
  Au  Au176  1  0.25000000  0.66275900  0.61250000  1
  Au  Au177  1  0.75000000  0.66275900  0.61250000  1
  Au  Au178  1  0.25000000  0.76275900  0.71250000  1
  Au  Au179  1  0.75000000  0.76275900  0.71250000  1
  Au  Au180  1  0.00000000  0.78218000  0.77014500  1
  Au  Au181  1  0.50000000  0.74333900  0.65485500  1
  Au  Au182  1  0.50000000  0.98029200  0.72061700  1
  Au  Au183  1  0.00000000  0.54522700  0.70438300  1
