# generated using pymatgen
data_Mg4Zn7
_symmetry_space_group_name_H-M   'P 1'
_cell_length_a   5.07402229
_cell_length_b   14.70723601
_cell_length_c   50.49845100
_cell_angle_alpha   88.21601723
_cell_angle_beta   89.67566990
_cell_angle_gamma   90.29193359
_symmetry_Int_Tables_number   1
_chemical_formula_structural   Mg4Zn7
_chemical_formula_sum   'Mg32 Zn56'
_cell_volume   3766.49971225
_cell_formula_units_Z   8
loop_
 _symmetry_equiv_pos_site_id
 _symmetry_equiv_pos_as_xyz
  1  'x, y, z'
loop_
 _atom_site_type_symbol
 _atom_site_label
 _atom_site_symmetry_multiplicity
 _atom_site_fract_x
 _atom_site_fract_y
 _atom_site_fract_z
 _atom_site_occupancy
  Mg  Mg0  1  0.15402100  0.86509100  0.48774900  1
  Mg  Mg1  1  0.15123400  0.13154300  0.40769100  1
  Mg  Mg2  1  0.65741200  0.84221000  0.45403200  1
  Mg  Mg3  1  0.65606300  0.21783500  0.43267000  1
  Mg  Mg4  1  0.65368500  0.18074900  0.49536600  1
  Mg  Mg5  1  0.65322700  0.81311000  0.39596800  1
  Mg  Mg6  1  0.65457600  0.43748500  0.41733000  1
  Mg  Mg7  1  0.15391900  0.92615000  0.42159800  1
  Mg  Mg8  1  0.65695400  0.47457000  0.35463400  1
  Mg  Mg9  1  0.15661800  0.79022900  0.36225100  1
  Mg  Mg10  1  0.15940500  0.52377600  0.44230900  1
  Mg  Mg11  1  0.15672100  0.72916900  0.42840200  1
  Mg  Mg12  1  0.65402100  0.61509100  0.73774900  1
  Mg  Mg13  1  0.65123400  0.88154300  0.65769100  1
  Mg  Mg14  1  0.65986000  0.37778700  0.52255500  1
  Mg  Mg15  1  0.15741200  0.59221000  0.70403200  1
  Mg  Mg16  1  0.15606300  0.96783500  0.68267000  1
  Mg  Mg17  1  0.15792500  0.69254400  0.53206200  1
  Mg  Mg18  1  0.15368500  0.93074900  0.74536600  1
  Mg  Mg19  1  0.15322700  0.56311000  0.64596800  1
  Mg  Mg20  1  0.15449900  0.06231600  0.51415900  1
  Mg  Mg21  1  0.15457600  0.18748500  0.66733000  1
  Mg  Mg22  1  0.15078000  0.02753200  0.57744500  1
  Mg  Mg23  1  0.65614000  0.34300300  0.58584100  1
  Mg  Mg24  1  0.65391900  0.67615000  0.67159800  1
  Mg  Mg25  1  0.15501700  0.49688800  0.50460100  1
  Mg  Mg26  1  0.65562300  0.90843100  0.59539900  1
  Mg  Mg27  1  0.15695400  0.22457000  0.60463400  1
  Mg  Mg28  1  0.65661800  0.54022900  0.61225100  1
  Mg  Mg29  1  0.65271400  0.71277500  0.56793800  1
  Mg  Mg30  1  0.65940500  0.27377600  0.69230900  1
  Mg  Mg31  1  0.65672100  0.47916900  0.67840200  1
  Zn  Zn32  1  0.15121800  0.19767100  0.46269900  1
  Zn  Zn33  1  0.65459000  0.01921200  0.41606100  1
  Zn  Zn34  1  0.40471200  0.61553200  0.38881700  1
  Zn  Zn35  1  0.90047700  0.29553700  0.38035900  1
  Zn  Zn36  1  0.40236700  0.04203100  0.46016000  1
  Zn  Zn37  1  0.15942100  0.45764800  0.38730100  1
  Zn  Zn38  1  0.90375200  0.35980100  0.46973600  1
  Zn  Zn39  1  0.66082800  0.51224200  0.47279500  1
  Zn  Zn40  1  0.65604900  0.63610800  0.43393900  1
  Zn  Zn41  1  0.91447200  0.67507700  0.47792600  1
  Zn  Zn42  1  0.40688700  0.29551800  0.38026400  1
  Zn  Zn43  1  0.90827200  0.61328800  0.38984000  1
  Zn  Zn44  1  0.39616700  0.98024300  0.37207400  1
  Zn  Zn45  1  0.41016200  0.35978300  0.46964100  1
  Zn  Zn46  1  0.64976900  0.96740300  0.50071900  1
  Zn  Zn47  1  0.40107300  0.67755600  0.47726600  1
  Zn  Zn48  1  0.66087000  0.68791600  0.34928100  1
  Zn  Zn49  1  0.90956600  0.97776400  0.37273400  1
  Zn  Zn50  1  0.64981100  0.14307800  0.37720500  1
  Zn  Zn51  1  0.90592700  0.03978800  0.46118300  1
  Zn  Zn52  1  0.15532000  0.32766000  0.42500000  1
  Zn  Zn53  1  0.65121800  0.94767100  0.71269900  1
  Zn  Zn54  1  0.15459000  0.76921200  0.66606100  1
  Zn  Zn55  1  0.65883200  0.04320500  0.54660300  1
  Zn  Zn56  1  0.90471200  0.36553200  0.63881700  1
  Zn  Zn57  1  0.40047700  0.04553700  0.63035900  1
  Zn  Zn58  1  0.90236700  0.79203100  0.71016000  1
  Zn  Zn59  1  0.40532000  0.20266000  0.55000000  1
  Zn  Zn60  1  0.65942100  0.20764800  0.63730100  1
  Zn  Zn61  1  0.15612600  0.80849500  0.58125800  1
  Zn  Zn62  1  0.40375200  0.10980100  0.71973600  1
  Zn  Zn63  1  0.40191100  0.88590200  0.54228200  1
  Zn  Zn64  1  0.65444400  0.77916700  0.51029700  1
  Zn  Zn65  1  0.15573500  0.27699600  0.50926500  1
  Zn  Zn66  1  0.16082800  0.26224200  0.72279500  1
  Zn  Zn67  1  0.15604900  0.38610800  0.68393900  1
  Zn  Zn68  1  0.65451300  0.59682400  0.51874200  1
  Zn  Zn69  1  0.41447200  0.42507700  0.72792600  1
  Zn  Zn70  1  0.90688700  0.04551800  0.63026400  1
  Zn  Zn71  1  0.40827200  0.36328800  0.63984000  1
  Zn  Zn72  1  0.65490400  0.12832300  0.59073500  1
  Zn  Zn73  1  0.89616700  0.73024300  0.62207400  1
  Zn  Zn74  1  0.91016200  0.10978300  0.71964100  1
  Zn  Zn75  1  0.90532000  0.20266000  0.55000000  1
  Zn  Zn76  1  0.14976900  0.71740300  0.75071900  1
  Zn  Zn77  1  0.90597300  0.88500000  0.54265800  1
  Zn  Zn78  1  0.90107300  0.42755600  0.72726600  1
  Zn  Zn79  1  0.16087000  0.43791600  0.59928100  1
  Zn  Zn80  1  0.40956600  0.72776400  0.62273400  1
  Zn  Zn81  1  0.14981100  0.89307800  0.62720500  1
  Zn  Zn82  1  0.90466600  0.52032000  0.55734200  1
  Zn  Zn83  1  0.40592700  0.78978800  0.71118300  1
  Zn  Zn84  1  0.65532000  0.07766000  0.67500000  1
  Zn  Zn85  1  0.40872800  0.51941800  0.55771800  1
  Zn  Zn86  1  0.15619500  0.62615300  0.58970300  1
  Zn  Zn87  1  0.15180700  0.36211500  0.55339700  1
