# generated using pymatgen
data_Ce5Mg48
_symmetry_space_group_name_H-M   'P 1'
_cell_length_a   10.33012841
_cell_length_b   10.08648700
_cell_length_c   45.02798700
_cell_angle_alpha   90.00000000
_cell_angle_beta   83.41322442
_cell_angle_gamma   90.00000000
_symmetry_Int_Tables_number   1
_chemical_formula_structural   Ce5Mg48
_chemical_formula_sum   'Ce10 Mg96'
_cell_volume   4660.70935486
_cell_formula_units_Z   2
loop_
 _symmetry_equiv_pos_site_id
 _symmetry_equiv_pos_as_xyz
  1  'x, y, z'
loop_
 _atom_site_type_symbol
 _atom_site_label
 _atom_site_symmetry_multiplicity
 _atom_site_fract_x
 _atom_site_fract_y
 _atom_site_fract_z
 _atom_site_occupancy
  Ce  Ce0  1  0.45861700  0.75000000  0.37894700  1
  Ce  Ce1  1  0.45861700  0.25000000  0.37894700  1
  Ce  Ce2  1  0.52528400  0.75000000  0.24561400  1
  Ce  Ce3  1  0.99195000  0.25000000  0.31228100  1
  Ce  Ce4  1  0.85861700  0.75000000  0.57894700  1
  Ce  Ce5  1  0.85861700  0.25000000  0.57894700  1
  Ce  Ce6  1  0.92528400  0.75000000  0.44561400  1
  Ce  Ce7  1  0.39195000  0.25000000  0.51228100  1
  Ce  Ce8  1  0.32528400  0.75000000  0.64561400  1
  Ce  Ce9  1  0.79195000  0.25000000  0.71228100  1
  Mg  Mg10  1  0.95861700  0.00000000  0.37894700  1
  Mg  Mg11  1  0.75861700  0.00000000  0.27894700  1
  Mg  Mg12  1  0.28572500  0.97841000  0.21139100  1
  Mg  Mg13  1  0.79906500  0.52159000  0.21139100  1
  Mg  Mg14  1  0.02617300  0.02159000  0.24383500  1
  Mg  Mg15  1  0.64220100  0.25000000  0.30669600  1
  Mg  Mg16  1  0.52528400  0.40231100  0.24561400  1
  Mg  Mg17  1  0.99195000  0.90231100  0.31228100  1
  Mg  Mg18  1  0.71816900  0.47841000  0.34650300  1
  Mg  Mg19  1  0.82859500  0.25000000  0.24456500  1
  Mg  Mg20  1  0.16995000  0.75000000  0.25119900  1
  Mg  Mg21  1  0.28572500  0.52159000  0.21139100  1
  Mg  Mg22  1  0.80660500  0.75000000  0.37231300  1
  Mg  Mg23  1  0.34728400  0.25000000  0.30669600  1
  Mg  Mg24  1  0.79906500  0.97841000  0.21139100  1
  Mg  Mg25  1  0.49106100  0.97841000  0.31405900  1
  Mg  Mg26  1  0.02617300  0.47841000  0.24383500  1
  Mg  Mg27  1  0.49106100  0.52159000  0.31405900  1
  Mg  Mg28  1  0.52528400  0.09768900  0.24561400  1
  Mg  Mg29  1  0.71816900  0.02159000  0.34650300  1
  Mg  Mg30  1  0.25861700  0.50000000  0.27894700  1
  Mg  Mg31  1  0.11726200  0.75000000  0.37231300  1
  Mg  Mg32  1  0.87503300  0.75000000  0.25119900  1
  Mg  Mg33  1  0.99195000  0.59768900  0.31228100  1
  Mg  Mg34  1  0.23150900  0.02159000  0.34650300  1
  Mg  Mg35  1  0.29421200  0.75000000  0.31333000  1
  Mg  Mg36  1  0.79997200  0.25000000  0.38558100  1
  Mg  Mg37  1  0.23150900  0.47841000  0.34650300  1
  Mg  Mg38  1  0.68863900  0.75000000  0.31333000  1
  Mg  Mg39  1  0.75861700  0.50000000  0.27894700  1
  Mg  Mg40  1  0.22302100  0.25000000  0.24456500  1
  Mg  Mg41  1  0.11062800  0.25000000  0.38558100  1
  Mg  Mg42  1  0.25861700  0.00000000  0.27894700  1
  Mg  Mg43  1  0.95861700  0.50000000  0.37894700  1
  Mg  Mg44  1  0.35861700  0.00000000  0.57894700  1
  Mg  Mg45  1  0.15861700  0.00000000  0.47894700  1
  Mg  Mg46  1  0.68572500  0.97841000  0.41139100  1
  Mg  Mg47  1  0.19906500  0.52159000  0.41139100  1
  Mg  Mg48  1  0.42617300  0.02159000  0.44383500  1
  Mg  Mg49  1  0.04220100  0.25000000  0.50669600  1
  Mg  Mg50  1  0.92528400  0.40231100  0.44561400  1
  Mg  Mg51  1  0.39195000  0.90231100  0.51228100  1
  Mg  Mg52  1  0.11816900  0.47841000  0.54650300  1
  Mg  Mg53  1  0.22859500  0.25000000  0.44456500  1
  Mg  Mg54  1  0.56995000  0.75000000  0.45119900  1
  Mg  Mg55  1  0.68572500  0.52159000  0.41139100  1
  Mg  Mg56  1  0.20660500  0.75000000  0.57231300  1
  Mg  Mg57  1  0.74728400  0.25000000  0.50669600  1
  Mg  Mg58  1  0.19906500  0.97841000  0.41139100  1
  Mg  Mg59  1  0.89106100  0.97841000  0.51405900  1
  Mg  Mg60  1  0.42617300  0.47841000  0.44383500  1
  Mg  Mg61  1  0.89106100  0.52159000  0.51405900  1
  Mg  Mg62  1  0.92528400  0.09768900  0.44561400  1
  Mg  Mg63  1  0.11816900  0.02159000  0.54650300  1
  Mg  Mg64  1  0.65861700  0.50000000  0.47894700  1
  Mg  Mg65  1  0.51726200  0.75000000  0.57231300  1
  Mg  Mg66  1  0.27503300  0.75000000  0.45119900  1
  Mg  Mg67  1  0.39195000  0.59768900  0.51228100  1
  Mg  Mg68  1  0.63150900  0.02159000  0.54650300  1
  Mg  Mg69  1  0.69421200  0.75000000  0.51333000  1
  Mg  Mg70  1  0.19997200  0.25000000  0.58558100  1
  Mg  Mg71  1  0.63150900  0.47841000  0.54650300  1
  Mg  Mg72  1  0.08863900  0.75000000  0.51333000  1
  Mg  Mg73  1  0.15861700  0.50000000  0.47894700  1
  Mg  Mg74  1  0.62302100  0.25000000  0.44456500  1
  Mg  Mg75  1  0.51062800  0.25000000  0.58558100  1
  Mg  Mg76  1  0.65861700  0.00000000  0.47894700  1
  Mg  Mg77  1  0.35861700  0.50000000  0.57894700  1
  Mg  Mg78  1  0.55861700  0.00000000  0.67894700  1
  Mg  Mg79  1  0.08572500  0.97841000  0.61139100  1
  Mg  Mg80  1  0.59906500  0.52159000  0.61139100  1
  Mg  Mg81  1  0.82617300  0.02159000  0.64383500  1
  Mg  Mg82  1  0.44220100  0.25000000  0.70669600  1
  Mg  Mg83  1  0.32528400  0.40231100  0.64561400  1
  Mg  Mg84  1  0.79195000  0.90231100  0.71228100  1
  Mg  Mg85  1  0.51816900  0.47841000  0.74650300  1
  Mg  Mg86  1  0.62859500  0.25000000  0.64456500  1
  Mg  Mg87  1  0.96995000  0.75000000  0.65119900  1
  Mg  Mg88  1  0.08572500  0.52159000  0.61139100  1
  Mg  Mg89  1  0.14728400  0.25000000  0.70669600  1
  Mg  Mg90  1  0.59906500  0.97841000  0.61139100  1
  Mg  Mg91  1  0.29106100  0.97841000  0.71405900  1
  Mg  Mg92  1  0.82617300  0.47841000  0.64383500  1
  Mg  Mg93  1  0.29106100  0.52159000  0.71405900  1
  Mg  Mg94  1  0.32528400  0.09768900  0.64561400  1
  Mg  Mg95  1  0.51816900  0.02159000  0.74650300  1
  Mg  Mg96  1  0.05861700  0.50000000  0.67894700  1
  Mg  Mg97  1  0.67503300  0.75000000  0.65119900  1
  Mg  Mg98  1  0.79195000  0.59768900  0.71228100  1
  Mg  Mg99  1  0.03150900  0.02159000  0.74650300  1
  Mg  Mg100  1  0.09421200  0.75000000  0.71333000  1
  Mg  Mg101  1  0.03150900  0.47841000  0.74650300  1
  Mg  Mg102  1  0.48863900  0.75000000  0.71333000  1
  Mg  Mg103  1  0.55861700  0.50000000  0.67894700  1
  Mg  Mg104  1  0.02302100  0.25000000  0.64456500  1
  Mg  Mg105  1  0.05861700  0.00000000  0.67894700  1
