# generated using pymatgen
data_Ce7Mg15
_symmetry_space_group_name_H-M   'P 1'
_cell_length_a   5.20463200
_cell_length_b   9.04803456
_cell_length_c   40.84261700
_cell_angle_alpha   92.44626560
_cell_angle_beta   90.00000000
_cell_angle_gamma   90.00000000
_symmetry_Int_Tables_number   1
_chemical_formula_structural   Ce7Mg15
_chemical_formula_sum   'Ce14 Mg30'
_cell_volume   1921.59510184
_cell_formula_units_Z   2
loop_
 _symmetry_equiv_pos_site_id
 _symmetry_equiv_pos_as_xyz
  1  'x, y, z'
loop_
 _atom_site_type_symbol
 _atom_site_label
 _atom_site_symmetry_multiplicity
 _atom_site_fract_x
 _atom_site_fract_y
 _atom_site_fract_z
 _atom_site_occupancy
  Ce  Ce0  1  0.25000000  0.63058300  0.70811000  1
  Ce  Ce1  1  0.75000000  0.77967300  0.70214600  1
  Ce  Ce2  1  0.25000000  0.55366000  0.63118700  1
  Ce  Ce3  1  0.75000000  0.70275000  0.62522300  1
  Ce  Ce4  1  0.25000000  0.47673700  0.55426400  1
  Ce  Ce5  1  0.75000000  0.62582700  0.54830000  1
  Ce  Ce6  1  0.25000000  0.39981400  0.47734100  1
  Ce  Ce7  1  0.75000000  0.54890400  0.47137700  1
  Ce  Ce8  1  0.25000000  0.32289100  0.40041800  1
  Ce  Ce9  1  0.75000000  0.47198100  0.39445400  1
  Ce  Ce10  1  0.25000000  0.24596800  0.32349500  1
  Ce  Ce11  1  0.75000000  0.39505800  0.31753100  1
  Ce  Ce12  1  0.25000000  0.16904500  0.24657200  1
  Ce  Ce13  1  0.75000000  0.31813500  0.24060800  1
  Mg  Mg14  1  0.25000000  0.98511400  0.73392900  1
  Mg  Mg15  1  0.75000000  0.50206500  0.75325100  1
  Mg  Mg16  1  0.25000000  0.90819100  0.65700600  1
  Mg  Mg17  1  0.25000000  0.24779600  0.68342100  1
  Mg  Mg18  1  0.75000000  0.16246100  0.72683500  1
  Mg  Mg19  1  0.75000000  0.42514200  0.67632800  1
  Mg  Mg20  1  0.25000000  0.83126800  0.58008300  1
  Mg  Mg21  1  0.25000000  0.17087300  0.60649800  1
  Mg  Mg22  1  0.75000000  0.08553700  0.64991200  1
  Mg  Mg23  1  0.75000000  0.34821900  0.59940500  1
  Mg  Mg24  1  0.25000000  0.75434500  0.50316000  1
  Mg  Mg25  1  0.25000000  0.09395000  0.52957500  1
  Mg  Mg26  1  0.75000000  0.00861400  0.57298900  1
  Mg  Mg27  1  0.75000000  0.27129600  0.52248200  1
  Mg  Mg28  1  0.25000000  0.67742200  0.42623600  1
  Mg  Mg29  1  0.25000000  0.01702700  0.45265200  1
  Mg  Mg30  1  0.75000000  0.93169100  0.49606600  1
  Mg  Mg31  1  0.75000000  0.19437300  0.44555800  1
  Mg  Mg32  1  0.25000000  0.60049900  0.34931300  1
  Mg  Mg33  1  0.25000000  0.94010400  0.37572900  1
  Mg  Mg34  1  0.75000000  0.85476800  0.41914300  1
  Mg  Mg35  1  0.75000000  0.11745000  0.36863500  1
  Mg  Mg36  1  0.25000000  0.52357600  0.27239000  1
  Mg  Mg37  1  0.25000000  0.86318000  0.29880600  1
  Mg  Mg38  1  0.75000000  0.77784500  0.34222000  1
  Mg  Mg39  1  0.75000000  0.04052700  0.29171200  1
  Mg  Mg40  1  0.25000000  0.44665300  0.19546700  1
  Mg  Mg41  1  0.25000000  0.78625700  0.22188300  1
  Mg  Mg42  1  0.75000000  0.70092200  0.26529600  1
  Mg  Mg43  1  0.75000000  0.96360400  0.21478900  1
