# generated using pymatgen
data_Mg5Ag13
_symmetry_space_group_name_H-M   'P 1'
_cell_length_a   4.80183000
_cell_length_b   5.90771900
_cell_length_c   40.92988000
_cell_angle_alpha   90.00000000
_cell_angle_beta   90.00000000
_cell_angle_gamma   90.00000000
_symmetry_Int_Tables_number   1
_chemical_formula_structural   Mg5Ag13
_chemical_formula_sum   'Mg10 Ag26'
_cell_volume   1161.09320085
_cell_formula_units_Z   2
loop_
 _symmetry_equiv_pos_site_id
 _symmetry_equiv_pos_as_xyz
  1  'x, y, z'
loop_
 _atom_site_type_symbol
 _atom_site_label
 _atom_site_symmetry_multiplicity
 _atom_site_fract_x
 _atom_site_fract_y
 _atom_site_fract_z
 _atom_site_occupancy
  Mg  Mg0  1  0.75000000  0.62497900  0.19791700  1
  Mg  Mg1  1  0.25000000  0.12497900  0.23958300  1
  Mg  Mg2  1  0.75000000  0.12497900  0.32291700  1
  Mg  Mg3  1  0.25000000  0.62497900  0.36458300  1
  Mg  Mg4  1  0.75000000  0.62497900  0.44791700  1
  Mg  Mg5  1  0.25000000  0.12497900  0.48958300  1
  Mg  Mg6  1  0.75000000  0.12497900  0.57291700  1
  Mg  Mg7  1  0.25000000  0.62497900  0.61458300  1
  Mg  Mg8  1  0.75000000  0.62497900  0.69791700  1
  Mg  Mg9  1  0.25000000  0.12497900  0.73958300  1
  Ag  Ag10  1  0.75000000  0.12497900  0.19791000  1
  Ag  Ag11  1  0.75000000  0.87493800  0.26042000  1
  Ag  Ag12  1  0.75000000  0.37502100  0.26042000  1
  Ag  Ag13  1  0.25000000  0.87493800  0.30208000  1
  Ag  Ag14  1  0.25000000  0.37502100  0.30208000  1
  Ag  Ag15  1  0.25000000  0.62497900  0.23959000  1
  Ag  Ag16  1  0.75000000  0.62497900  0.32291000  1
  Ag  Ag17  1  0.75000000  0.37493800  0.38542000  1
  Ag  Ag18  1  0.75000000  0.87502100  0.38542000  1
  Ag  Ag19  1  0.25000000  0.37493800  0.42708000  1
  Ag  Ag20  1  0.25000000  0.87502100  0.42708000  1
  Ag  Ag21  1  0.25000000  0.12497900  0.36459000  1
  Ag  Ag22  1  0.75000000  0.12497900  0.44791000  1
  Ag  Ag23  1  0.75000000  0.87493800  0.51042000  1
  Ag  Ag24  1  0.75000000  0.37502100  0.51042000  1
  Ag  Ag25  1  0.25000000  0.87493800  0.55208000  1
  Ag  Ag26  1  0.25000000  0.37502100  0.55208000  1
  Ag  Ag27  1  0.25000000  0.62497900  0.48959000  1
  Ag  Ag28  1  0.75000000  0.62497900  0.57291000  1
  Ag  Ag29  1  0.75000000  0.37493800  0.63542000  1
  Ag  Ag30  1  0.75000000  0.87502100  0.63542000  1
  Ag  Ag31  1  0.25000000  0.37493800  0.67708000  1
  Ag  Ag32  1  0.25000000  0.87502100  0.67708000  1
  Ag  Ag33  1  0.25000000  0.12497900  0.61459000  1
  Ag  Ag34  1  0.75000000  0.12497900  0.69791000  1
  Ag  Ag35  1  0.25000000  0.62497900  0.73959000  1
