# generated using pymatgen
data_Li120Mg29
_symmetry_space_group_name_H-M   'P 1'
_cell_length_a   3.06669500
_cell_length_b   38.27865085
_cell_length_c   42.49336600
_cell_angle_alpha   86.02152941
_cell_angle_beta   90.00000000
_cell_angle_gamma   92.29573984
_symmetry_Int_Tables_number   1
_chemical_formula_structural   Li120Mg29
_chemical_formula_sum   'Li120 Mg29'
_cell_volume   4972.21739699
_cell_formula_units_Z   1
loop_
 _symmetry_equiv_pos_site_id
 _symmetry_equiv_pos_as_xyz
  1  'x, y, z'
loop_
 _atom_site_type_symbol
 _atom_site_label
 _atom_site_symmetry_multiplicity
 _atom_site_fract_x
 _atom_site_fract_y
 _atom_site_fract_z
 _atom_site_occupancy
  Li  Li0  1  0.98300300  0.93201300  0.23133300  1
  Li  Li1  1  0.45012500  0.86625700  0.21460900  1
  Li  Li2  1  0.91720200  0.80041000  0.19789100  1
  Li  Li3  1  0.88432400  0.73465400  0.24366700  1
  Li  Li4  1  0.64967000  0.26534600  0.18966600  1
  Li  Li5  1  0.61679200  0.19959000  0.23544200  1
  Li  Li6  1  0.08386800  0.13374300  0.21872400  1
  Li  Li7  1  0.55099000  0.06798700  0.20200100  1
  Li  Li8  1  0.81633700  0.59868000  0.21049900  1
  Li  Li9  1  0.28345800  0.53292300  0.19377600  1
  Li  Li10  1  0.25053500  0.46707700  0.23955800  1
  Li  Li11  1  0.71765700  0.40132000  0.22283400  1
  Li  Li12  1  0.48300300  0.93201300  0.29383300  1
  Li  Li13  1  0.95012500  0.86625700  0.27710900  1
  Li  Li14  1  0.41720200  0.80041000  0.26039100  1
  Li  Li15  1  0.38432400  0.73465400  0.30616700  1
  Li  Li16  1  0.14967000  0.26534600  0.25216600  1
  Li  Li17  1  0.11679200  0.19959000  0.29794200  1
  Li  Li18  1  0.58386800  0.13374300  0.28122400  1
  Li  Li19  1  0.05099000  0.06798700  0.26450100  1
  Li  Li20  1  0.31633700  0.59868000  0.27299900  1
  Li  Li21  1  0.78345800  0.53292300  0.25627600  1
  Li  Li22  1  0.75053500  0.46707700  0.30205800  1
  Li  Li23  1  0.21765700  0.40132000  0.28533400  1
  Li  Li24  1  0.98300300  0.93201300  0.35633300  1
  Li  Li25  1  0.45012500  0.86625700  0.33960900  1
  Li  Li26  1  0.91720200  0.80041000  0.32289100  1
  Li  Li27  1  0.88432400  0.73465400  0.36866700  1
  Li  Li28  1  0.64967000  0.26534600  0.31466600  1
  Li  Li29  1  0.61679200  0.19959000  0.36044200  1
  Li  Li30  1  0.08386800  0.13374300  0.34372400  1
  Li  Li31  1  0.55099000  0.06798700  0.32700100  1
  Li  Li32  1  0.81633700  0.59868000  0.33549900  1
  Li  Li33  1  0.28345800  0.53292300  0.31877600  1
  Li  Li34  1  0.25053500  0.46707700  0.36455800  1
  Li  Li35  1  0.71765700  0.40132000  0.34783400  1
  Li  Li36  1  0.48300300  0.93201300  0.41883300  1
  Li  Li37  1  0.95012500  0.86625700  0.40210900  1
  Li  Li38  1  0.41720200  0.80041000  0.38539100  1
  Li  Li39  1  0.38432400  0.73465400  0.43116700  1
  Li  Li40  1  0.14967000  0.26534600  0.37716600  1
  Li  Li41  1  0.11679200  0.19959000  0.42294200  1
  Li  Li42  1  0.58386800  0.13374300  0.40622400  1
  Li  Li43  1  0.05099000  0.06798700  0.38950100  1
  Li  Li44  1  0.31633700  0.59868000  0.39799900  1
  Li  Li45  1  0.78345800  0.53292300  0.38127600  1
  Li  Li46  1  0.75053500  0.46707700  0.42705800  1
  Li  Li47  1  0.21765700  0.40132000  0.41033400  1
  Li  Li48  1  0.98300300  0.93201300  0.48133300  1
  Li  Li49  1  0.45012500  0.86625700  0.46460900  1
  Li  Li50  1  0.91720200  0.80041000  0.44789100  1
  Li  Li51  1  0.88432400  0.73465400  0.49366700  1
  Li  Li52  1  0.64967000  0.26534600  0.43966600  1
  Li  Li53  1  0.61679200  0.19959000  0.48544200  1
  Li  Li54  1  0.08386800  0.13374300  0.46872400  1
  Li  Li55  1  0.55099000  0.06798700  0.45200100  1
  Li  Li56  1  0.81633700  0.59868000  0.46049900  1
  Li  Li57  1  0.28345800  0.53292300  0.44377600  1
  Li  Li58  1  0.25053500  0.46707700  0.48955800  1
  Li  Li59  1  0.71765700  0.40132000  0.47283400  1
  Li  Li60  1  0.48300300  0.93201300  0.54383300  1
  Li  Li61  1  0.95012500  0.86625700  0.52710900  1
  Li  Li62  1  0.41720200  0.80041000  0.51039100  1
  Li  Li63  1  0.38432400  0.73465400  0.55616700  1
  Li  Li64  1  0.14967000  0.26534600  0.50216600  1
  Li  Li65  1  0.11679200  0.19959000  0.54794200  1
  Li  Li66  1  0.58386800  0.13374300  0.53122400  1
  Li  Li67  1  0.05099000  0.06798700  0.51450100  1
  Li  Li68  1  0.31633700  0.59868000  0.52299900  1
  Li  Li69  1  0.78345800  0.53292300  0.50627600  1
  Li  Li70  1  0.75053500  0.46707700  0.55205800  1
  Li  Li71  1  0.21765700  0.40132000  0.53533400  1
  Li  Li72  1  0.98300300  0.93201300  0.60633300  1
  Li  Li73  1  0.45012500  0.86625700  0.58960900  1
  Li  Li74  1  0.91720200  0.80041000  0.57289100  1
  Li  Li75  1  0.88432400  0.73465400  0.61866700  1
  Li  Li76  1  0.64967000  0.26534600  0.56466600  1
  Li  Li77  1  0.61679200  0.19959000  0.61044200  1
  Li  Li78  1  0.08386800  0.13374300  0.59372400  1
  Li  Li79  1  0.55099000  0.06798700  0.57700100  1
  Li  Li80  1  0.81633700  0.59868000  0.58549900  1
  Li  Li81  1  0.28345800  0.53292300  0.56877600  1
  Li  Li82  1  0.25053500  0.46707700  0.61455800  1
  Li  Li83  1  0.71765700  0.40132000  0.59783400  1
  Li  Li84  1  0.48300300  0.93201300  0.66883300  1
  Li  Li85  1  0.95012500  0.86625700  0.65210900  1
  Li  Li86  1  0.41720200  0.80041000  0.63539100  1
  Li  Li87  1  0.38432400  0.73465400  0.68116700  1
  Li  Li88  1  0.14967000  0.26534600  0.62716600  1
  Li  Li89  1  0.11679200  0.19959000  0.67294200  1
  Li  Li90  1  0.58386800  0.13374300  0.65622400  1
  Li  Li91  1  0.05099000  0.06798700  0.63950100  1
  Li  Li92  1  0.31633700  0.59868000  0.64799900  1
  Li  Li93  1  0.78345800  0.53292300  0.63127600  1
  Li  Li94  1  0.75053500  0.46707700  0.67705800  1
  Li  Li95  1  0.21765700  0.40132000  0.66033400  1
  Li  Li96  1  0.98300300  0.93201300  0.73133300  1
  Li  Li97  1  0.45012500  0.86625700  0.71460900  1
  Li  Li98  1  0.91720200  0.80041000  0.69789100  1
  Li  Li99  1  0.88432400  0.73465400  0.74366700  1
  Li  Li100  1  0.64967000  0.26534600  0.68966600  1
  Li  Li101  1  0.61679200  0.19959000  0.73544200  1
  Li  Li102  1  0.08386800  0.13374300  0.71872400  1
  Li  Li103  1  0.55099000  0.06798700  0.70200100  1
  Li  Li104  1  0.81633700  0.59868000  0.71049900  1
  Li  Li105  1  0.28345800  0.53292300  0.69377600  1
  Li  Li106  1  0.25053500  0.46707700  0.73955800  1
  Li  Li107  1  0.71765700  0.40132000  0.72283400  1
  Li  Li108  1  0.48300300  0.93201300  0.79383300  1
  Li  Li109  1  0.95012500  0.86625700  0.77710900  1
  Li  Li110  1  0.41720200  0.80041000  0.76039100  1
  Li  Li111  1  0.38432400  0.73465400  0.80616700  1
  Li  Li112  1  0.14967000  0.26534600  0.75216600  1
  Li  Li113  1  0.11679200  0.19959000  0.79794200  1
  Li  Li114  1  0.58386800  0.13374300  0.78122400  1
  Li  Li115  1  0.05099000  0.06798700  0.76450100  1
  Li  Li116  1  0.31633700  0.59868000  0.77299900  1
  Li  Li117  1  0.78345800  0.53292300  0.75627600  1
  Li  Li118  1  0.75053500  0.46707700  0.80205800  1
  Li  Li119  1  0.21765700  0.40132000  0.78533400  1
  Mg  Mg120  1  0.51699700  0.00000000  0.24791700  1
  Mg  Mg121  1  0.18366300  0.33333300  0.20625000  1
  Mg  Mg122  1  0.35033000  0.66666700  0.22708300  1
  Mg  Mg123  1  0.01699700  0.00000000  0.31041700  1
  Mg  Mg124  1  0.68366300  0.33333300  0.26875000  1
  Mg  Mg125  1  0.85033000  0.66666700  0.28958300  1
  Mg  Mg126  1  0.51699700  0.00000000  0.37291700  1
  Mg  Mg127  1  0.18366300  0.33333300  0.33125000  1
  Mg  Mg128  1  0.35033000  0.66666700  0.35208300  1
  Mg  Mg129  1  0.01699700  0.00000000  0.43541700  1
  Mg  Mg130  1  0.68366300  0.33333300  0.39375000  1
  Mg  Mg131  1  0.85033000  0.66666700  0.41458300  1
  Mg  Mg132  1  0.51699700  0.00000000  0.49791700  1
  Mg  Mg133  1  0.18366300  0.33333300  0.45625000  1
  Mg  Mg134  1  0.35033000  0.66666700  0.47708300  1
  Mg  Mg135  1  0.01699700  0.00000000  0.56041700  1
  Mg  Mg136  1  0.68366300  0.33333300  0.51875000  1
  Mg  Mg137  1  0.85033000  0.66666700  0.53958300  1
  Mg  Mg138  1  0.51699700  0.00000000  0.62291700  1
  Mg  Mg139  1  0.18366300  0.33333300  0.58125000  1
  Mg  Mg140  1  0.35033000  0.66666700  0.60208300  1
  Mg  Mg141  1  0.01699700  0.00000000  0.68541700  1
  Mg  Mg142  1  0.68366300  0.33333300  0.64375000  1
  Mg  Mg143  1  0.85033000  0.66666700  0.66458300  1
  Mg  Mg144  1  0.51699700  0.00000000  0.74791700  1
  Mg  Mg145  1  0.18366300  0.33333300  0.70625000  1
  Mg  Mg146  1  0.35033000  0.66666700  0.72708300  1
  Mg  Mg147  1  0.68366300  0.33333300  0.76875000  1
  Mg  Mg148  1  0.85033000  0.66666700  0.78958300  1
