# generated using pymatgen
data_Sr4Mg23
_symmetry_space_group_name_H-M   'P 1'
_cell_length_a   6.13146500
_cell_length_b   6.13146572
_cell_length_c   41.18696000
_cell_angle_alpha   90.00000000
_cell_angle_beta   90.00000000
_cell_angle_gamma   120.00000149
_symmetry_Int_Tables_number   1
_chemical_formula_structural   Sr4Mg23
_chemical_formula_sum   'Sr4 Mg23'
_cell_volume   1340.96956631
_cell_formula_units_Z   1
loop_
 _symmetry_equiv_pos_site_id
 _symmetry_equiv_pos_as_xyz
  1  'x, y, z'
loop_
 _atom_site_type_symbol
 _atom_site_label
 _atom_site_symmetry_multiplicity
 _atom_site_fract_x
 _atom_site_fract_y
 _atom_site_fract_z
 _atom_site_occupancy
  Sr  Sr0  1  0.00000000  0.00000000  0.34375000  1
  Sr  Sr1  1  0.00000000  0.00000000  0.46875000  1
  Sr  Sr2  1  0.00000000  0.00000000  0.59375000  1
  Sr  Sr3  1  0.00000000  0.00000000  0.71875000  1
  Mg  Mg4  1  0.00000000  0.50000000  0.28125000  1
  Mg  Mg5  1  0.50000000  0.00000000  0.28125000  1
  Mg  Mg6  1  0.50000000  0.50000000  0.28125000  1
  Mg  Mg7  1  0.00000000  0.50000000  0.40625000  1
  Mg  Mg8  1  0.33333300  0.66666700  0.34375000  1
  Mg  Mg9  1  0.50000000  0.00000000  0.40625000  1
  Mg  Mg10  1  0.66666700  0.33333300  0.34375000  1
  Mg  Mg11  1  0.50000000  0.50000000  0.40625000  1
  Mg  Mg12  1  0.00000000  0.50000000  0.53125000  1
  Mg  Mg13  1  0.33333300  0.66666700  0.46875000  1
  Mg  Mg14  1  0.50000000  0.00000000  0.53125000  1
  Mg  Mg15  1  0.66666700  0.33333300  0.46875000  1
  Mg  Mg16  1  0.50000000  0.50000000  0.53125000  1
  Mg  Mg17  1  0.00000000  0.50000000  0.65625000  1
  Mg  Mg18  1  0.33333300  0.66666700  0.59375000  1
  Mg  Mg19  1  0.50000000  0.00000000  0.65625000  1
  Mg  Mg20  1  0.66666700  0.33333300  0.59375000  1
  Mg  Mg21  1  0.50000000  0.50000000  0.65625000  1
  Mg  Mg22  1  0.00000000  0.50000000  0.78125000  1
  Mg  Mg23  1  0.33333300  0.66666700  0.71875000  1
  Mg  Mg24  1  0.50000000  0.00000000  0.78125000  1
  Mg  Mg25  1  0.66666700  0.33333300  0.71875000  1
  Mg  Mg26  1  0.50000000  0.50000000  0.78125000  1
