# generated using pymatgen
data_Y8Mg3
_symmetry_space_group_name_H-M   'P 1'
_cell_length_a   3.83113900
_cell_length_b   5.49911400
_cell_length_c   57.45594800
_cell_angle_alpha   90.00000000
_cell_angle_beta   90.00000000
_cell_angle_gamma   90.00000000
_symmetry_Int_Tables_number   1
_chemical_formula_structural   Y8Mg3
_chemical_formula_sum   'Y16 Mg6'
_cell_volume   1210.47444956
_cell_formula_units_Z   2
loop_
 _symmetry_equiv_pos_site_id
 _symmetry_equiv_pos_as_xyz
  1  'x, y, z'
loop_
 _atom_site_type_symbol
 _atom_site_label
 _atom_site_symmetry_multiplicity
 _atom_site_fract_x
 _atom_site_fract_y
 _atom_site_fract_z
 _atom_site_occupancy
  Y  Y0  1  0.50000000  0.50000000  0.37500000  1
  Y  Y1  1  0.00000000  0.00000000  0.27500000  1
  Y  Y2  1  0.00000000  0.50000000  0.32021900  1
  Y  Y3  1  0.50000000  0.00000000  0.32978100  1
  Y  Y4  1  0.50000000  0.50000000  0.57500000  1
  Y  Y5  1  0.50000000  0.00000000  0.42021900  1
  Y  Y6  1  0.00000000  0.50000000  0.42978100  1
  Y  Y7  1  0.00000000  0.00000000  0.47500000  1
  Y  Y8  1  0.00000000  0.50000000  0.52021900  1
  Y  Y9  1  0.50000000  0.00000000  0.52978100  1
  Y  Y10  1  0.50000000  0.50000000  0.77500000  1
  Y  Y11  1  0.50000000  0.00000000  0.62021900  1
  Y  Y12  1  0.00000000  0.50000000  0.62978100  1
  Y  Y13  1  0.00000000  0.00000000  0.67500000  1
  Y  Y14  1  0.00000000  0.50000000  0.72021900  1
  Y  Y15  1  0.50000000  0.00000000  0.72978100  1
  Mg  Mg16  1  0.00000000  0.00000000  0.37500000  1
  Mg  Mg17  1  0.50000000  0.50000000  0.27500000  1
  Mg  Mg18  1  0.00000000  0.00000000  0.57500000  1
  Mg  Mg19  1  0.50000000  0.50000000  0.47500000  1
  Mg  Mg20  1  0.00000000  0.00000000  0.77500000  1
  Mg  Mg21  1  0.50000000  0.50000000  0.67500000  1
