# generated using pymatgen
data_Ce2Mg
_symmetry_space_group_name_H-M   'P 1'
_cell_length_a   3.15985600
_cell_length_b   19.24522921
_cell_length_c   41.11903400
_cell_angle_alpha   100.94963191
_cell_angle_beta   90.00000000
_cell_angle_gamma   90.00000000
_symmetry_Int_Tables_number   1
_chemical_formula_structural   Ce2Mg
_chemical_formula_sum   'Ce40 Mg20'
_cell_volume   2455.01356562
_cell_formula_units_Z   20
loop_
 _symmetry_equiv_pos_site_id
 _symmetry_equiv_pos_as_xyz
  1  'x, y, z'
loop_
 _atom_site_type_symbol
 _atom_site_label
 _atom_site_symmetry_multiplicity
 _atom_site_fract_x
 _atom_site_fract_y
 _atom_site_fract_z
 _atom_site_occupancy
  Ce  Ce0  1  0.00000000  0.94894900  0.26622200  1
  Ce  Ce1  1  0.50000000  0.80268200  0.28711700  1
  Ce  Ce2  1  0.00000000  0.82231800  0.21288300  1
  Ce  Ce3  1  0.50000000  0.67605100  0.23377800  1
  Ce  Ce4  1  0.50000000  0.38644900  0.20372200  1
  Ce  Ce5  1  1.00000000  0.24018200  0.22461700  1
  Ce  Ce6  1  0.50000000  0.38481800  0.27538300  1
  Ce  Ce7  1  0.00000000  0.23855100  0.29627800  1
  Ce  Ce8  1  0.00000000  0.07394900  0.39122200  1
  Ce  Ce9  1  0.50000000  0.92768200  0.41211700  1
  Ce  Ce10  1  0.00000000  0.94731800  0.33788300  1
  Ce  Ce11  1  0.50000000  0.80105100  0.35877800  1
  Ce  Ce12  1  0.50000000  0.51144900  0.32872200  1
  Ce  Ce13  1  1.00000000  0.36518200  0.34961700  1
  Ce  Ce14  1  0.50000000  0.50981800  0.40038300  1
  Ce  Ce15  1  0.00000000  0.36355100  0.42127800  1
  Ce  Ce16  1  0.00000000  0.19894900  0.51622200  1
  Ce  Ce17  1  0.50000000  0.05268200  0.53711700  1
  Ce  Ce18  1  0.00000000  0.07231800  0.46288300  1
  Ce  Ce19  1  0.50000000  0.92605100  0.48377800  1
  Ce  Ce20  1  0.50000000  0.63644900  0.45372200  1
  Ce  Ce21  1  0.00000000  0.49018200  0.47461700  1
  Ce  Ce22  1  0.50000000  0.63481800  0.52538300  1
  Ce  Ce23  1  0.00000000  0.48855100  0.54627800  1
  Ce  Ce24  1  0.00000000  0.32394900  0.64122200  1
  Ce  Ce25  1  0.50000000  0.17768200  0.66211700  1
  Ce  Ce26  1  0.00000000  0.19731800  0.58788300  1
  Ce  Ce27  1  0.50000000  0.05105100  0.60877800  1
  Ce  Ce28  1  0.50000000  0.76144900  0.57872200  1
  Ce  Ce29  1  0.00000000  0.61518200  0.59961700  1
  Ce  Ce30  1  0.50000000  0.75981800  0.65038300  1
  Ce  Ce31  1  0.00000000  0.61355100  0.67127800  1
  Ce  Ce32  1  0.00000000  0.44894900  0.76622200  1
  Ce  Ce33  1  0.50000000  0.30268200  0.78711700  1
  Ce  Ce34  1  1.00000000  0.32231800  0.71288300  1
  Ce  Ce35  1  0.50000000  0.17605100  0.73377800  1
  Ce  Ce36  1  0.50000000  0.88644900  0.70372200  1
  Ce  Ce37  1  0.00000000  0.74018200  0.72461700  1
  Ce  Ce38  1  0.50000000  0.88481800  0.77538300  1
  Ce  Ce39  1  0.00000000  0.73855100  0.79627800  1
  Mg  Mg40  1  0.00000000  0.66084300  0.30738000  1
  Mg  Mg41  1  0.50000000  0.96415700  0.19262000  1
  Mg  Mg42  1  0.50000000  0.09834300  0.24488000  1
  Mg  Mg43  1  0.00000000  0.52665700  0.25512000  1
  Mg  Mg44  1  0.00000000  0.78584300  0.43238000  1
  Mg  Mg45  1  0.50000000  0.08915700  0.31762000  1
  Mg  Mg46  1  0.50000000  0.22334300  0.36988000  1
  Mg  Mg47  1  0.00000000  0.65165700  0.38012000  1
  Mg  Mg48  1  0.00000000  0.91084300  0.55738000  1
  Mg  Mg49  1  0.50000000  0.21415700  0.44262000  1
  Mg  Mg50  1  0.50000000  0.34834300  0.49488000  1
  Mg  Mg51  1  1.00000000  0.77665700  0.50512000  1
  Mg  Mg52  1  1.00000000  0.03584300  0.68238000  1
  Mg  Mg53  1  0.50000000  0.33915700  0.56762000  1
  Mg  Mg54  1  0.50000000  0.47334300  0.61988000  1
  Mg  Mg55  1  0.00000000  0.90165700  0.63012000  1
  Mg  Mg56  1  0.00000000  0.16084300  0.80738000  1
  Mg  Mg57  1  0.50000000  0.46415700  0.69262000  1
  Mg  Mg58  1  0.50000000  0.59834300  0.74488000  1
  Mg  Mg59  1  0.00000000  0.02665700  0.75512000  1
