# generated using pymatgen
data_Mg2Ir3
_symmetry_space_group_name_H-M   'P 1'
_cell_length_a   9.72091561
_cell_length_b   10.02721097
_cell_length_c   44.35051200
_cell_angle_alpha   96.44506080
_cell_angle_beta   93.67631499
_cell_angle_gamma   75.98716788
_symmetry_Int_Tables_number   1
_chemical_formula_structural   Mg2Ir3
_chemical_formula_sum   'Mg60 Ir90'
_cell_volume   4164.79217447
_cell_formula_units_Z   30
loop_
 _symmetry_equiv_pos_site_id
 _symmetry_equiv_pos_as_xyz
  1  'x, y, z'
loop_
 _atom_site_type_symbol
 _atom_site_label
 _atom_site_symmetry_multiplicity
 _atom_site_fract_x
 _atom_site_fract_y
 _atom_site_fract_z
 _atom_site_occupancy
  Mg  Mg0  1  0.34072400  0.85669600  0.78045300  1
  Mg  Mg1  1  0.15927600  0.84330400  0.71954700  1
  Mg  Mg2  1  0.89200800  0.56531700  0.78287400  1
  Mg  Mg3  1  0.60799200  0.13468300  0.71712600  1
  Mg  Mg4  1  0.29689500  0.30161600  0.71537500  1
  Mg  Mg5  1  0.20310500  0.39838400  0.78462500  1
  Mg  Mg6  1  0.60258100  0.87183100  0.75798100  1
  Mg  Mg7  1  0.89741900  0.82816900  0.74201900  1
  Mg  Mg8  1  0.75810500  0.56668100  0.71604100  1
  Mg  Mg9  1  0.74189500  0.13331900  0.78395900  1
  Mg  Mg10  1  0.24072400  0.55669600  0.68045300  1
  Mg  Mg11  1  0.05927600  0.54330400  0.61954700  1
  Mg  Mg12  1  0.79200800  0.26531700  0.68287400  1
  Mg  Mg13  1  0.50799200  0.83468300  0.61712600  1
  Mg  Mg14  1  0.19689500  0.00161600  0.61537500  1
  Mg  Mg15  1  0.10310500  0.09838400  0.68462500  1
  Mg  Mg16  1  0.50258100  0.57183100  0.65798100  1
  Mg  Mg17  1  0.79741900  0.52816900  0.64201900  1
  Mg  Mg18  1  0.65810500  0.26668100  0.61604100  1
  Mg  Mg19  1  0.64189500  0.83331900  0.68395900  1
  Mg  Mg20  1  0.14072400  0.25669600  0.58045300  1
  Mg  Mg21  1  0.95927600  0.24330400  0.51954700  1
  Mg  Mg22  1  0.69200800  0.96531700  0.58287400  1
  Mg  Mg23  1  0.40799200  0.53468300  0.51712600  1
  Mg  Mg24  1  0.09689500  0.70161600  0.51537500  1
  Mg  Mg25  1  0.00310500  0.79838400  0.58462500  1
  Mg  Mg26  1  0.40258100  0.27183100  0.55798100  1
  Mg  Mg27  1  0.69741900  0.22816900  0.54201900  1
  Mg  Mg28  1  0.55810500  0.96668100  0.51604100  1
  Mg  Mg29  1  0.54189500  0.53331900  0.58395900  1
  Mg  Mg30  1  0.04072400  0.95669600  0.48045300  1
  Mg  Mg31  1  0.85927600  0.94330400  0.41954700  1
  Mg  Mg32  1  0.59200800  0.66531700  0.48287400  1
  Mg  Mg33  1  0.30799200  0.23468300  0.41712600  1
  Mg  Mg34  1  0.99689500  0.40161600  0.41537500  1
  Mg  Mg35  1  0.90310500  0.49838400  0.48462500  1
  Mg  Mg36  1  0.30258100  0.97183100  0.45798100  1
  Mg  Mg37  1  0.59741900  0.92816900  0.44201900  1
  Mg  Mg38  1  0.45810500  0.66668100  0.41604100  1
  Mg  Mg39  1  0.44189500  0.23331900  0.48395900  1
  Mg  Mg40  1  0.94072400  0.65669600  0.38045300  1
  Mg  Mg41  1  0.75927600  0.64330400  0.31954700  1
  Mg  Mg42  1  0.49200800  0.36531700  0.38287400  1
  Mg  Mg43  1  0.20799200  0.93468300  0.31712600  1
  Mg  Mg44  1  0.89689500  0.10161600  0.31537500  1
  Mg  Mg45  1  0.80310500  0.19838400  0.38462500  1
  Mg  Mg46  1  0.20258100  0.67183100  0.35798100  1
  Mg  Mg47  1  0.49741900  0.62816900  0.34201900  1
  Mg  Mg48  1  0.35810500  0.36668100  0.31604100  1
  Mg  Mg49  1  0.34189500  0.93331900  0.38395900  1
  Mg  Mg50  1  0.84072400  0.35669600  0.28045300  1
  Mg  Mg51  1  0.65927600  0.34330400  0.21954700  1
  Mg  Mg52  1  0.39200800  0.06531700  0.28287400  1
  Mg  Mg53  1  0.10799200  0.63468300  0.21712600  1
  Mg  Mg54  1  0.79689500  0.80161600  0.21537500  1
  Mg  Mg55  1  0.70310500  0.89838400  0.28462500  1
  Mg  Mg56  1  0.10258100  0.37183100  0.25798100  1
  Mg  Mg57  1  0.39741900  0.32816900  0.24201900  1
  Mg  Mg58  1  0.25810500  0.06668100  0.21604100  1
  Mg  Mg59  1  0.24189500  0.63331900  0.28395900  1
  Ir  Ir60  1  0.45370100  0.71951200  0.71594400  1
  Ir  Ir61  1  0.04629900  0.98048800  0.78405600  1
  Ir  Ir62  1  0.11699700  0.71380100  0.78111000  1
  Ir  Ir63  1  0.38300300  0.98619900  0.71889000  1
  Ir  Ir64  1  0.43290600  0.13590600  0.76879300  1
  Ir  Ir65  1  0.06709400  0.56409400  0.73120700  1
  Ir  Ir66  1  0.75000000  0.35000000  0.75000000  1
  Ir  Ir67  1  0.18463300  0.11509500  0.75270600  1
  Ir  Ir68  1  0.31536700  0.58490500  0.74729400  1
  Ir  Ir69  1  0.00476200  0.33243200  0.73310600  1
  Ir  Ir70  1  0.49523800  0.36756800  0.76689400  1
  Ir  Ir71  1  0.58373800  0.59991400  0.76527400  1
  Ir  Ir72  1  0.91626200  0.10008600  0.73472600  1
  Ir  Ir73  1  0.96947400  0.25972300  0.78793900  1
  Ir  Ir74  1  0.53052600  0.44027700  0.71206100  1
  Ir  Ir75  1  0.35370100  0.41951200  0.61594400  1
  Ir  Ir76  1  0.94629900  0.68048800  0.68405600  1
  Ir  Ir77  1  0.01699700  0.41380100  0.68111000  1
  Ir  Ir78  1  0.28300300  0.68619900  0.61889000  1
  Ir  Ir79  1  0.33290600  0.83590600  0.66879300  1
  Ir  Ir80  1  0.96709400  0.26409400  0.63120700  1
  Ir  Ir81  1  0.65000000  0.05000000  0.65000000  1
  Ir  Ir82  1  0.08463300  0.81509500  0.65270600  1
  Ir  Ir83  1  0.21536700  0.28490500  0.64729400  1
  Ir  Ir84  1  0.90476200  0.03243200  0.63310600  1
  Ir  Ir85  1  0.39523800  0.06756800  0.66689400  1
  Ir  Ir86  1  0.48373800  0.29991400  0.66527400  1
  Ir  Ir87  1  0.81626200  0.80008600  0.63472600  1
  Ir  Ir88  1  0.86947400  0.95972300  0.68793900  1
  Ir  Ir89  1  0.43052600  0.14027700  0.61206100  1
  Ir  Ir90  1  0.25370100  0.11951200  0.51594400  1
  Ir  Ir91  1  0.84629900  0.38048800  0.58405600  1
  Ir  Ir92  1  0.91699700  0.11380100  0.58111000  1
  Ir  Ir93  1  0.18300300  0.38619900  0.51889000  1
  Ir  Ir94  1  0.23290600  0.53590600  0.56879300  1
  Ir  Ir95  1  0.86709400  0.96409400  0.53120700  1
  Ir  Ir96  1  0.55000000  0.75000000  0.55000000  1
  Ir  Ir97  1  0.98463300  0.51509500  0.55270600  1
  Ir  Ir98  1  0.11536700  0.98490500  0.54729400  1
  Ir  Ir99  1  0.80476200  0.73243200  0.53310600  1
  Ir  Ir100  1  0.29523800  0.76756800  0.56689400  1
  Ir  Ir101  1  0.38373800  0.99991400  0.56527400  1
  Ir  Ir102  1  0.71626200  0.50008600  0.53472600  1
  Ir  Ir103  1  0.76947400  0.65972300  0.58793900  1
  Ir  Ir104  1  0.33052600  0.84027700  0.51206100  1
  Ir  Ir105  1  0.15370100  0.81951200  0.41594400  1
  Ir  Ir106  1  0.74629900  0.08048800  0.48405600  1
  Ir  Ir107  1  0.81699700  0.81380100  0.48111000  1
  Ir  Ir108  1  0.08300300  0.08619900  0.41889000  1
  Ir  Ir109  1  0.13290600  0.23590600  0.46879300  1
  Ir  Ir110  1  0.76709400  0.66409400  0.43120700  1
  Ir  Ir111  1  0.45000000  0.45000000  0.45000000  1
  Ir  Ir112  1  0.88463300  0.21509500  0.45270600  1
  Ir  Ir113  1  0.01536700  0.68490500  0.44729400  1
  Ir  Ir114  1  0.70476200  0.43243200  0.43310600  1
  Ir  Ir115  1  0.19523800  0.46756800  0.46689400  1
  Ir  Ir116  1  0.28373800  0.69991400  0.46527400  1
  Ir  Ir117  1  0.61626200  0.20008600  0.43472600  1
  Ir  Ir118  1  0.66947400  0.35972300  0.48793900  1
  Ir  Ir119  1  0.23052600  0.54027700  0.41206100  1
  Ir  Ir120  1  0.05370100  0.51951200  0.31594400  1
  Ir  Ir121  1  0.64629900  0.78048800  0.38405600  1
  Ir  Ir122  1  0.71699700  0.51380100  0.38111000  1
  Ir  Ir123  1  0.98300300  0.78619900  0.31889000  1
  Ir  Ir124  1  0.03290600  0.93590600  0.36879300  1
  Ir  Ir125  1  0.66709400  0.36409400  0.33120700  1
  Ir  Ir126  1  0.35000000  0.15000000  0.35000000  1
  Ir  Ir127  1  0.78463300  0.91509500  0.35270600  1
  Ir  Ir128  1  0.91536700  0.38490500  0.34729400  1
  Ir  Ir129  1  0.60476200  0.13243200  0.33310600  1
  Ir  Ir130  1  0.09523800  0.16756800  0.36689400  1
  Ir  Ir131  1  0.18373800  0.39991400  0.36527400  1
  Ir  Ir132  1  0.51626200  0.90008600  0.33472600  1
  Ir  Ir133  1  0.56947400  0.05972300  0.38793900  1
  Ir  Ir134  1  0.13052600  0.24027700  0.31206100  1
  Ir  Ir135  1  0.95370100  0.21951200  0.21594400  1
  Ir  Ir136  1  0.54629900  0.48048800  0.28405600  1
  Ir  Ir137  1  0.61699700  0.21380100  0.28111000  1
  Ir  Ir138  1  0.88300300  0.48619900  0.21889000  1
  Ir  Ir139  1  0.93290600  0.63590600  0.26879300  1
  Ir  Ir140  1  0.56709400  0.06409400  0.23120700  1
  Ir  Ir141  1  0.25000000  0.85000000  0.25000000  1
  Ir  Ir142  1  0.68463300  0.61509500  0.25270600  1
  Ir  Ir143  1  0.81536700  0.08490500  0.24729400  1
  Ir  Ir144  1  0.50476200  0.83243200  0.23310600  1
  Ir  Ir145  1  0.99523800  0.86756800  0.26689400  1
  Ir  Ir146  1  0.08373800  0.09991400  0.26527400  1
  Ir  Ir147  1  0.41626200  0.60008600  0.23472600  1
  Ir  Ir148  1  0.46947400  0.75972300  0.28793900  1
  Ir  Ir149  1  0.03052600  0.94027700  0.21206100  1
