# generated using pymatgen
data_Mg4Zn7
_symmetry_space_group_name_H-M   'P 1'
_cell_length_a   5.07402260
_cell_length_b   13.26606241
_cell_length_c   57.00757700
_cell_angle_alpha   92.18610401
_cell_angle_beta   87.66012493
_cell_angle_gamma   100.62858194
_symmetry_Int_Tables_number   1
_chemical_formula_structural   Mg4Zn7
_chemical_formula_sum   'Mg28 Zn49'
_cell_volume   3766.49990850
_cell_formula_units_Z   7
loop_
 _symmetry_equiv_pos_site_id
 _symmetry_equiv_pos_as_xyz
  1  'x, y, z'
loop_
 _atom_site_type_symbol
 _atom_site_label
 _atom_site_symmetry_multiplicity
 _atom_site_fract_x
 _atom_site_fract_y
 _atom_site_fract_z
 _atom_site_occupancy
  Mg  Mg0  1  0.20060600  0.57381000  0.42495500  1
  Mg  Mg1  1  0.75049900  0.69452800  0.43910500  1
  Mg  Mg2  1  0.07601600  0.36449700  0.45701300  1
  Mg  Mg3  1  0.84902000  0.90499100  0.46089500  1
  Mg  Mg4  1  0.33173700  0.83714000  0.42622800  1
  Mg  Mg5  1  0.39891300  0.02570900  0.47504500  1
  Mg  Mg6  1  0.52350200  0.23502100  0.44298700  1
  Mg  Mg7  1  0.26778200  0.76237800  0.47377200  1
  Mg  Mg8  1  0.95060600  0.32381000  0.67495500  1
  Mg  Mg9  1  0.16010600  0.69063700  0.62835600  1
  Mg  Mg10  1  0.51203000  0.32145900  0.53807900  1
  Mg  Mg11  1  0.50049900  0.44452800  0.68910500  1
  Mg  Mg12  1  0.63313700  0.61854000  0.60053900  1
  Mg  Mg13  1  0.82601600  0.11449700  0.70701300  1
  Mg  Mg14  1  0.51652500  0.37415800  0.59413600  1
  Mg  Mg15  1  0.59902000  0.65499100  0.71089500  1
  Mg  Mg16  1  0.95321500  0.27407700  0.61904600  1
  Mg  Mg17  1  0.71638200  0.73097900  0.54946100  1
  Mg  Mg18  1  0.83748900  0.02805900  0.61192100  1
  Mg  Mg19  1  0.39630400  0.07544200  0.53095400  1
  Mg  Mg20  1  0.08173700  0.58714000  0.67622800  1
  Mg  Mg21  1  0.07806800  0.41856300  0.51279300  1
  Mg  Mg22  1  0.27145100  0.93095500  0.63720700  1
  Mg  Mg23  1  0.83299400  0.97536000  0.55586400  1
  Mg  Mg24  1  0.14891300  0.77570900  0.72504500  1
  Mg  Mg25  1  0.27350200  0.98502100  0.69298700  1
  Mg  Mg26  1  0.18941300  0.65888100  0.52164400  1
  Mg  Mg27  1  0.01778200  0.51237800  0.72377200  1
  Zn  Zn28  1  0.86402100  0.88117000  0.40434700  1
  Zn  Zn29  1  0.02071000  0.20900000  0.41572700  1
  Zn  Zn30  1  0.86248600  0.37451400  0.40611900  1
  Zn  Zn31  1  0.63924200  0.46777300  0.44079900  1
  Zn  Zn32  1  0.73549800  0.71834900  0.49565300  1
  Zn  Zn33  1  0.57880800  0.39051800  0.48427300  1
  Zn  Zn34  1  0.40984100  0.56314200  0.47491400  1
  Zn  Zn35  1  0.18967800  0.03637700  0.42508600  1
  Zn  Zn36  1  0.35753900  0.37287700  0.40625100  1
  Zn  Zn37  1  0.92501500  0.56623800  0.47446000  1
  Zn  Zn38  1  0.67450300  0.03328100  0.42554000  1
  Zn  Zn39  1  0.24197900  0.22664100  0.49374900  1
  Zn  Zn40  1  0.73703300  0.22500500  0.49388100  1
  Zn  Zn41  1  0.96027700  0.13174600  0.45920100  1
  Zn  Zn42  1  0.08039100  0.50089200  0.59807200  1
  Zn  Zn43  1  0.61402100  0.63117000  0.65434700  1
  Zn  Zn44  1  0.38732800  0.14763500  0.61571300  1
  Zn  Zn45  1  0.06065500  0.88241300  0.51207800  1
  Zn  Zn46  1  0.49969400  0.83413400  0.59419100  1
  Zn  Zn47  1  0.79477500  0.47150300  0.63761700  1
  Zn  Zn48  1  0.67475900  0.17475900  0.57500000  1
  Zn  Zn49  1  0.26912800  0.84862700  0.55192800  1
  Zn  Zn50  1  0.77071000  0.95900000  0.66572700  1
  Zn  Zn51  1  0.35607500  0.51503600  0.55578100  1
  Zn  Zn52  1  0.61248600  0.12451400  0.65611900  1
  Zn  Zn53  1  0.38924200  0.21777300  0.69079900  1
  Zn  Zn54  1  0.01421500  0.34610100  0.56660000  1
  Zn  Zn55  1  0.63175400  0.54167200  0.51690600  1
  Zn  Zn56  1  0.48549800  0.46834900  0.74565300  1
  Zn  Zn57  1  0.32880800  0.14051800  0.73427300  1
  Zn  Zn58  1  0.15984100  0.31314200  0.72491400  1
  Zn  Zn59  1  0.99344400  0.83448200  0.59421900  1
  Zn  Zn60  1  0.55474400  0.87801600  0.51238300  1
  Zn  Zn61  1  0.33530400  0.00341800  0.58340000  1
  Zn  Zn62  1  0.93967800  0.78637700  0.67508600  1
  Zn  Zn63  1  0.84982500  0.51538500  0.55580900  1
  Zn  Zn64  1  0.17475900  0.17475900  0.57500000  1
  Zn  Zn65  1  0.45773800  0.30075000  0.64613400  1
  Zn  Zn66  1  0.10753900  0.12287700  0.65625100  1
  Zn  Zn67  1  0.67501500  0.31623800  0.72446000  1
  Zn  Zn68  1  0.89178100  0.04876900  0.50386600  1
  Zn  Zn69  1  0.42450300  0.78328100  0.67554000  1
  Zn  Zn70  1  0.71776400  0.80784600  0.63309400  1
  Zn  Zn71  1  0.99197900  0.97664100  0.74374900  1
  Zn  Zn72  1  0.28886400  0.46710500  0.63792200  1
  Zn  Zn73  1  0.17475900  0.67475900  0.57500000  1
  Zn  Zn74  1  0.48703300  0.97500500  0.74388100  1
  Zn  Zn75  1  0.71027700  0.88174600  0.70920100  1
  Zn  Zn76  1  0.96219100  0.20188400  0.53428700  1
