# generated using pymatgen
data_Mg2Zn
_symmetry_space_group_name_H-M   'P 1'
_cell_length_a   5.81388121
_cell_length_b   7.92196437
_cell_length_c   41.46277500
_cell_angle_alpha   90.88177323
_cell_angle_beta   93.29618556
_cell_angle_gamma   95.99281037
_symmetry_Int_Tables_number   1
_chemical_formula_structural   Mg2Zn
_chemical_formula_sum   'Mg40 Zn20'
_cell_volume   1895.64749741
_cell_formula_units_Z   20
loop_
 _symmetry_equiv_pos_site_id
 _symmetry_equiv_pos_as_xyz
  1  'x, y, z'
loop_
 _atom_site_type_symbol
 _atom_site_label
 _atom_site_symmetry_multiplicity
 _atom_site_fract_x
 _atom_site_fract_y
 _atom_site_fract_z
 _atom_site_occupancy
  Mg  Mg0  1  0.39924300  0.39101000  0.19706400  1
  Mg  Mg1  1  0.32057000  0.78129600  0.21673200  1
  Mg  Mg2  1  0.80443000  0.65620400  0.22076800  1
  Mg  Mg3  1  0.72575700  0.04649000  0.24043600  1
  Mg  Mg4  1  0.14924300  0.45351000  0.25956400  1
  Mg  Mg5  1  0.07057000  0.84379600  0.27923200  1
  Mg  Mg6  1  0.55443000  0.71870400  0.28326800  1
  Mg  Mg7  1  0.47575700  0.10899000  0.30293600  1
  Mg  Mg8  1  0.89924300  0.51601000  0.32206400  1
  Mg  Mg9  1  0.82057000  0.90629600  0.34173200  1
  Mg  Mg10  1  0.30443000  0.78120400  0.34576800  1
  Mg  Mg11  1  0.22575700  0.17149000  0.36543600  1
  Mg  Mg12  1  0.64924300  0.57851000  0.38456400  1
  Mg  Mg13  1  0.57057000  0.96879600  0.40423200  1
  Mg  Mg14  1  0.05443000  0.84370400  0.40826800  1
  Mg  Mg15  1  0.97575700  0.23399000  0.42793600  1
  Mg  Mg16  1  0.39924300  0.64101000  0.44706400  1
  Mg  Mg17  1  0.32057000  0.03129600  0.46673200  1
  Mg  Mg18  1  0.80443000  0.90620400  0.47076800  1
  Mg  Mg19  1  0.72575700  0.29649000  0.49043600  1
  Mg  Mg20  1  0.14924300  0.70351000  0.50956400  1
  Mg  Mg21  1  0.07057000  0.09379600  0.52923200  1
  Mg  Mg22  1  0.55443000  0.96870400  0.53326800  1
  Mg  Mg23  1  0.47575700  0.35899000  0.55293600  1
  Mg  Mg24  1  0.89924300  0.76601000  0.57206400  1
  Mg  Mg25  1  0.82057000  0.15629600  0.59173200  1
  Mg  Mg26  1  0.30443000  0.03120400  0.59576800  1
  Mg  Mg27  1  0.22575700  0.42149000  0.61543600  1
  Mg  Mg28  1  0.64924300  0.82851000  0.63456400  1
  Mg  Mg29  1  0.57057000  0.21879600  0.65423200  1
  Mg  Mg30  1  0.05443000  0.09370400  0.65826800  1
  Mg  Mg31  1  0.97575700  0.48399000  0.67793600  1
  Mg  Mg32  1  0.39924300  0.89101000  0.69706400  1
  Mg  Mg33  1  0.32057000  0.28129600  0.71673200  1
  Mg  Mg34  1  0.80443000  0.15620400  0.72076800  1
  Mg  Mg35  1  0.72575700  0.54649000  0.74043600  1
  Mg  Mg36  1  0.14924300  0.95351000  0.75956400  1
  Mg  Mg37  1  0.07057000  0.34379600  0.77923200  1
  Mg  Mg38  1  0.55443000  0.21870400  0.78326800  1
  Mg  Mg39  1  0.47575700  0.60899000  0.80293600  1
  Zn  Zn40  1  0.23560600  0.12281800  0.23797400  1
  Zn  Zn41  1  0.88939400  0.31468200  0.19952600  1
  Zn  Zn42  1  0.98560600  0.18531800  0.30047400  1
  Zn  Zn43  1  0.63939400  0.37718200  0.26202600  1
  Zn  Zn44  1  0.73560600  0.24781800  0.36297400  1
  Zn  Zn45  1  0.38939400  0.43968200  0.32452600  1
  Zn  Zn46  1  0.48560600  0.31031800  0.42547400  1
  Zn  Zn47  1  0.13939400  0.50218200  0.38702600  1
  Zn  Zn48  1  0.23560600  0.37281800  0.48797400  1
  Zn  Zn49  1  0.88939400  0.56468200  0.44952600  1
  Zn  Zn50  1  0.98560600  0.43531800  0.55047400  1
  Zn  Zn51  1  0.63939400  0.62718200  0.51202600  1
  Zn  Zn52  1  0.73560600  0.49781800  0.61297400  1
  Zn  Zn53  1  0.38939400  0.68968200  0.57452600  1
  Zn  Zn54  1  0.48560600  0.56031800  0.67547400  1
  Zn  Zn55  1  0.13939400  0.75218200  0.63702600  1
  Zn  Zn56  1  0.23560600  0.62281800  0.73797400  1
  Zn  Zn57  1  0.88939400  0.81468200  0.69952600  1
  Zn  Zn58  1  0.98560600  0.68531800  0.80047400  1
  Zn  Zn59  1  0.63939400  0.87718200  0.76202600  1
