# generated using pymatgen
data_Mg9Cd19
_symmetry_space_group_name_H-M   'P 1'
_cell_length_a   6.07439151
_cell_length_b   8.35399647
_cell_length_c   42.16682800
_cell_angle_alpha   91.94696428
_cell_angle_beta   90.39794456
_cell_angle_gamma   95.44863217
_symmetry_Int_Tables_number   1
_chemical_formula_structural   Mg9Cd19
_chemical_formula_sum   'Mg18 Cd38'
_cell_volume   2128.76541892
_cell_formula_units_Z   2
loop_
 _symmetry_equiv_pos_site_id
 _symmetry_equiv_pos_as_xyz
  1  'x, y, z'
loop_
 _atom_site_type_symbol
 _atom_site_label
 _atom_site_symmetry_multiplicity
 _atom_site_fract_x
 _atom_site_fract_y
 _atom_site_fract_z
 _atom_site_occupancy
  Mg  Mg0  1  0.04829100  0.45708600  0.23794300  1
  Mg  Mg1  1  0.61850500  0.00124700  0.22039000  1
  Mg  Mg2  1  0.79829100  0.51958600  0.30044300  1
  Mg  Mg3  1  0.36850500  0.06374700  0.28289000  1
  Mg  Mg4  1  0.54829100  0.58208600  0.36294300  1
  Mg  Mg5  1  0.11850500  0.12624700  0.34539000  1
  Mg  Mg6  1  0.29829100  0.64458600  0.42544300  1
  Mg  Mg7  1  0.86850500  0.18874700  0.40789000  1
  Mg  Mg8  1  0.04829100  0.70708600  0.48794300  1
  Mg  Mg9  1  0.61850500  0.25124700  0.47039000  1
  Mg  Mg10  1  0.79829100  0.76958600  0.55044300  1
  Mg  Mg11  1  0.36850500  0.31374700  0.53289000  1
  Mg  Mg12  1  0.54829100  0.83208600  0.61294300  1
  Mg  Mg13  1  0.11850500  0.37624700  0.59539000  1
  Mg  Mg14  1  0.29829100  0.89458600  0.67544300  1
  Mg  Mg15  1  0.86850500  0.43874700  0.65789000  1
  Mg  Mg16  1  0.04829100  0.95708600  0.73794300  1
  Mg  Mg17  1  0.61850500  0.50124700  0.72039000  1
  Cd  Cd18  1  0.13176600  0.10402100  0.21707500  1
  Cd  Cd19  1  0.21497100  0.74885600  0.19627300  1
  Cd  Cd20  1  0.70182500  0.64697800  0.19956000  1
  Cd  Cd21  1  0.53502900  0.35431200  0.24125900  1
  Cd  Cd22  1  0.88176600  0.16652100  0.27957500  1
  Cd  Cd23  1  0.96497100  0.81135600  0.25877300  1
  Cd  Cd24  1  0.45182500  0.70947800  0.26206000  1
  Cd  Cd25  1  0.28502900  0.41681200  0.30375900  1
  Cd  Cd26  1  0.63176600  0.22902100  0.34207500  1
  Cd  Cd27  1  0.71497100  0.87385600  0.32127300  1
  Cd  Cd28  1  0.20182500  0.77197800  0.32456000  1
  Cd  Cd29  1  0.03502900  0.47931200  0.36625900  1
  Cd  Cd30  1  0.38176600  0.29152100  0.40457500  1
  Cd  Cd31  1  0.46497100  0.93635600  0.38377300  1
  Cd  Cd32  1  0.95182500  0.83447800  0.38706000  1
  Cd  Cd33  1  0.78502900  0.54181200  0.42875900  1
  Cd  Cd34  1  0.13176600  0.35402100  0.46707500  1
  Cd  Cd35  1  0.21497100  0.99885600  0.44627300  1
  Cd  Cd36  1  0.70182500  0.89697800  0.44956000  1
  Cd  Cd37  1  0.53502900  0.60431200  0.49125900  1
  Cd  Cd38  1  0.88176600  0.41652100  0.52957500  1
  Cd  Cd39  1  0.96497100  0.06135600  0.50877300  1
  Cd  Cd40  1  0.45182500  0.95947800  0.51206000  1
  Cd  Cd41  1  0.28502900  0.66681200  0.55375900  1
  Cd  Cd42  1  0.63176600  0.47902100  0.59207500  1
  Cd  Cd43  1  0.71497100  0.12385600  0.57127300  1
  Cd  Cd44  1  0.20182500  0.02197800  0.57456000  1
  Cd  Cd45  1  0.03502900  0.72931200  0.61625900  1
  Cd  Cd46  1  0.38176600  0.54152100  0.65457500  1
  Cd  Cd47  1  0.46497100  0.18635600  0.63377300  1
  Cd  Cd48  1  0.95182500  0.08447800  0.63706000  1
  Cd  Cd49  1  0.78502900  0.79181200  0.67875900  1
  Cd  Cd50  1  0.13176600  0.60402100  0.71707500  1
  Cd  Cd51  1  0.21497100  0.24885600  0.69627300  1
  Cd  Cd52  1  0.70182500  0.14697800  0.69956000  1
  Cd  Cd53  1  0.53502900  0.85431200  0.74125900  1
  Cd  Cd54  1  0.96497100  0.31135600  0.75877300  1
  Cd  Cd55  1  0.45182500  0.20947800  0.76206000  1
