# generated using pymatgen
data_AcMg6
_symmetry_space_group_name_H-M   'P 1'
_cell_length_a   4.98899200
_cell_length_b   6.16214200
_cell_length_c   42.69257100
_cell_angle_alpha   90.00000000
_cell_angle_beta   90.00000000
_cell_angle_gamma   90.00000000
_symmetry_Int_Tables_number   1
_chemical_formula_structural   AcMg6
_chemical_formula_sum   'Ac4 Mg24'
_cell_volume   1312.49246508
_cell_formula_units_Z   4
loop_
 _symmetry_equiv_pos_site_id
 _symmetry_equiv_pos_as_xyz
  1  'x, y, z'
loop_
 _atom_site_type_symbol
 _atom_site_label
 _atom_site_symmetry_multiplicity
 _atom_site_fract_x
 _atom_site_fract_y
 _atom_site_fract_z
 _atom_site_occupancy
  Ac  Ac0  1  0.50000000  0.58333300  0.29166700  1
  Ac  Ac1  1  0.50000000  0.08333300  0.41666700  1
  Ac  Ac2  1  0.50000000  0.58333300  0.54166700  1
  Ac  Ac3  1  0.50000000  0.08333300  0.66666700  1
  Mg  Mg4  1  1.00000000  0.33333300  0.22916700  1
  Mg  Mg5  1  0.50000000  0.08333300  0.25000000  1
  Mg  Mg6  1  0.00000000  0.08333300  0.29166700  1
  Mg  Mg7  1  0.50000000  0.58333300  0.20833300  1
  Mg  Mg8  1  1.00000000  0.83333300  0.22916700  1
  Mg  Mg9  1  1.00000000  0.83333300  0.35416700  1
  Mg  Mg10  1  0.50000000  0.58333300  0.37500000  1
  Mg  Mg11  1  1.00000000  0.58333300  0.41666700  1
  Mg  Mg12  1  0.50000000  0.08333300  0.33333300  1
  Mg  Mg13  1  1.00000000  0.33333300  0.35416700  1
  Mg  Mg14  1  1.00000000  0.33333300  0.47916700  1
  Mg  Mg15  1  0.50000000  0.08333300  0.50000000  1
  Mg  Mg16  1  0.00000000  0.08333300  0.54166700  1
  Mg  Mg17  1  0.50000000  0.58333300  0.45833300  1
  Mg  Mg18  1  1.00000000  0.83333300  0.47916700  1
  Mg  Mg19  1  1.00000000  0.83333300  0.60416700  1
  Mg  Mg20  1  0.50000000  0.58333300  0.62500000  1
  Mg  Mg21  1  1.00000000  0.58333300  0.66666700  1
  Mg  Mg22  1  0.50000000  0.08333300  0.58333300  1
  Mg  Mg23  1  0.00000000  0.33333300  0.60416700  1
  Mg  Mg24  1  1.00000000  0.33333300  0.72916700  1
  Mg  Mg25  1  0.50000000  0.08333300  0.75000000  1
  Mg  Mg26  1  0.50000000  0.58333300  0.70833300  1
  Mg  Mg27  1  1.00000000  0.83333300  0.72916700  1
