# generated using pymatgen
data_MgSc2
_symmetry_space_group_name_H-M   'P 1'
_cell_length_a   5.16406100
_cell_length_b   8.41162256
_cell_length_c   42.73576700
_cell_angle_alpha   89.61839643
_cell_angle_beta   90.00000000
_cell_angle_gamma   90.00000000
_symmetry_Int_Tables_number   1
_chemical_formula_structural   MgSc2
_chemical_formula_sum   'Mg16 Sc32'
_cell_volume   1856.32071650
_cell_formula_units_Z   16
loop_
 _symmetry_equiv_pos_site_id
 _symmetry_equiv_pos_as_xyz
  1  'x, y, z'
loop_
 _atom_site_type_symbol
 _atom_site_label
 _atom_site_symmetry_multiplicity
 _atom_site_fract_x
 _atom_site_fract_y
 _atom_site_fract_z
 _atom_site_occupancy
  Mg  Mg0  1  0.75000000  0.99538100  0.73556900  1
  Mg  Mg1  1  0.25000000  0.31231100  0.80289200  1
  Mg  Mg2  1  0.75000000  0.91845800  0.65864600  1
  Mg  Mg3  1  0.25000000  0.23538800  0.72596900  1
  Mg  Mg4  1  0.75000000  0.84153500  0.58172300  1
  Mg  Mg5  1  0.25000000  0.15846500  0.64904600  1
  Mg  Mg6  1  0.75000000  0.76461200  0.50480000  1
  Mg  Mg7  1  0.25000000  0.08154200  0.57212300  1
  Mg  Mg8  1  0.75000000  0.68768900  0.42787700  1
  Mg  Mg9  1  0.25000000  0.00461900  0.49520000  1
  Mg  Mg10  1  0.75000000  0.61076600  0.35095400  1
  Mg  Mg11  1  0.25000000  0.92769600  0.41827700  1
  Mg  Mg12  1  0.75000000  0.53384300  0.27403100  1
  Mg  Mg13  1  0.25000000  0.85077300  0.34135400  1
  Mg  Mg14  1  0.75000000  0.45691900  0.19710800  1
  Mg  Mg15  1  0.25000000  0.77385000  0.26443100  1
  Sc  Sc16  1  0.75000000  0.35076700  0.76135400  1
  Sc  Sc17  1  0.75000000  0.71773500  0.78667500  1
  Sc  Sc18  1  0.25000000  0.95692600  0.77710800  1
  Sc  Sc19  1  0.25000000  0.58995700  0.75178600  1
  Sc  Sc20  1  0.75000000  0.27384400  0.68443100  1
  Sc  Sc21  1  0.75000000  0.64081200  0.70975200  1
  Sc  Sc22  1  0.25000000  0.88000300  0.70018500  1
  Sc  Sc23  1  0.25000000  0.51303400  0.67486300  1
  Sc  Sc24  1  0.75000000  0.19692100  0.60750800  1
  Sc  Sc25  1  0.75000000  0.56388900  0.63282900  1
  Sc  Sc26  1  0.25000000  0.80307900  0.62326100  1
  Sc  Sc27  1  0.25000000  0.43611100  0.59794000  1
  Sc  Sc28  1  0.75000000  0.11999700  0.53058500  1
  Sc  Sc29  1  0.75000000  0.48696600  0.55590600  1
  Sc  Sc30  1  0.25000000  0.72615600  0.54633800  1
  Sc  Sc31  1  0.25000000  0.35918800  0.52101700  1
  Sc  Sc32  1  0.75000000  0.04307400  0.45366200  1
  Sc  Sc33  1  0.75000000  0.41004300  0.47898300  1
  Sc  Sc34  1  0.25000000  0.64923300  0.46941500  1
  Sc  Sc35  1  0.25000000  0.28226500  0.44409400  1
  Sc  Sc36  1  0.75000000  0.96615100  0.37673900  1
  Sc  Sc37  1  0.75000000  0.33312000  0.40206000  1
  Sc  Sc38  1  0.25000000  0.57231000  0.39249200  1
  Sc  Sc39  1  0.25000000  0.20534200  0.36717100  1
  Sc  Sc40  1  0.75000000  0.88922800  0.29981500  1
  Sc  Sc41  1  0.75000000  0.25619700  0.32513700  1
  Sc  Sc42  1  0.25000000  0.49538700  0.31556900  1
  Sc  Sc43  1  0.25000000  0.12841900  0.29024800  1
  Sc  Sc44  1  0.75000000  0.81230500  0.22289200  1
  Sc  Sc45  1  0.75000000  0.17927400  0.24821400  1
  Sc  Sc46  1  0.25000000  0.41846400  0.23864600  1
  Sc  Sc47  1  0.25000000  0.05149600  0.21332500  1
