# generated using pymatgen
data_MgGa
_symmetry_space_group_name_H-M   'P 1'
_cell_length_a   12.02268053
_cell_length_b   12.02268044
_cell_length_c   44.88106400
_cell_angle_alpha   85.32689429
_cell_angle_beta   94.67310567
_cell_angle_gamma   102.23861087
_symmetry_Int_Tables_number   1
_chemical_formula_structural   MgGa
_chemical_formula_sum   'Mg96 Ga96'
_cell_volume   6305.07448137
_cell_formula_units_Z   96
loop_
 _symmetry_equiv_pos_site_id
 _symmetry_equiv_pos_as_xyz
  1  'x, y, z'
loop_
 _atom_site_type_symbol
 _atom_site_label
 _atom_site_symmetry_multiplicity
 _atom_site_fract_x
 _atom_site_fract_y
 _atom_site_fract_z
 _atom_site_occupancy
  Mg  Mg0  1  0.64526900  0.55957000  0.20477300  1
  Mg  Mg1  1  0.60042400  0.45898500  0.28477000  1
  Mg  Mg2  1  0.66391900  0.27667300  0.24380200  1
  Mg  Mg3  1  0.40478500  0.39037600  0.21665500  1
  Mg  Mg4  1  0.20241300  0.50242600  0.23334500  1
  Mg  Mg5  1  0.54328000  0.01612900  0.25619800  1
  Mg  Mg6  1  0.60677500  0.83381700  0.21523000  1
  Mg  Mg7  1  0.96192900  0.33323200  0.24522700  1
  Mg  Mg8  1  0.24526900  0.95957000  0.25477300  1
  Mg  Mg9  1  0.00042400  0.05898500  0.23477000  1
  Mg  Mg10  1  0.26391900  0.67667300  0.29380200  1
  Mg  Mg11  1  0.00478500  0.79037600  0.26665500  1
  Mg  Mg12  1  0.80241300  0.90242600  0.28334500  1
  Mg  Mg13  1  0.94328000  0.61612900  0.20619800  1
  Mg  Mg14  1  0.20677500  0.23381700  0.26523000  1
  Mg  Mg15  1  0.56192900  0.73323200  0.29522700  1
  Mg  Mg16  1  0.84526900  0.35957000  0.30477300  1
  Mg  Mg17  1  0.80042400  0.25898500  0.38477000  1
  Mg  Mg18  1  0.86391900  0.07667300  0.34380200  1
  Mg  Mg19  1  0.60478500  0.19037600  0.31665500  1
  Mg  Mg20  1  0.40241300  0.30242600  0.33334500  1
  Mg  Mg21  1  0.74328000  0.81612900  0.35619800  1
  Mg  Mg22  1  0.80677500  0.63381700  0.31523000  1
  Mg  Mg23  1  0.16192900  0.13323200  0.34522700  1
  Mg  Mg24  1  0.44526900  0.75957000  0.35477300  1
  Mg  Mg25  1  0.20042400  0.85898500  0.33477000  1
  Mg  Mg26  1  0.46391900  0.47667300  0.39380200  1
  Mg  Mg27  1  0.20478500  0.59037600  0.36665500  1
  Mg  Mg28  1  0.00241300  0.70242600  0.38334500  1
  Mg  Mg29  1  0.14328000  0.41612900  0.30619800  1
  Mg  Mg30  1  0.40677500  0.03381700  0.36523000  1
  Mg  Mg31  1  0.76192900  0.53323200  0.39522700  1
  Mg  Mg32  1  0.04526900  0.15957000  0.40477300  1
  Mg  Mg33  1  0.00042400  0.05898500  0.48477000  1
  Mg  Mg34  1  0.06391900  0.87667300  0.44380200  1
  Mg  Mg35  1  0.80478500  0.99037600  0.41665500  1
  Mg  Mg36  1  0.60241300  0.10242600  0.43334500  1
  Mg  Mg37  1  0.94328000  0.61612900  0.45619800  1
  Mg  Mg38  1  0.00677500  0.43381700  0.41523000  1
  Mg  Mg39  1  0.36192900  0.93323200  0.44522700  1
  Mg  Mg40  1  0.64526900  0.55957000  0.45477300  1
  Mg  Mg41  1  0.40042400  0.65898500  0.43477000  1
  Mg  Mg42  1  0.66391900  0.27667300  0.49380200  1
  Mg  Mg43  1  0.40478500  0.39037600  0.46665500  1
  Mg  Mg44  1  0.20241300  0.50242600  0.48334500  1
  Mg  Mg45  1  0.34328000  0.21612900  0.40619800  1
  Mg  Mg46  1  0.60677500  0.83381700  0.46523000  1
  Mg  Mg47  1  0.96192900  0.33323200  0.49522700  1
  Mg  Mg48  1  0.24526900  0.95957000  0.50477300  1
  Mg  Mg49  1  0.20042400  0.85898500  0.58477000  1
  Mg  Mg50  1  0.26391900  0.67667300  0.54380200  1
  Mg  Mg51  1  0.00478500  0.79037600  0.51665500  1
  Mg  Mg52  1  0.80241300  0.90242600  0.53334500  1
  Mg  Mg53  1  0.14328000  0.41612900  0.55619800  1
  Mg  Mg54  1  0.20677500  0.23381700  0.51523000  1
  Mg  Mg55  1  0.56192900  0.73323200  0.54522700  1
  Mg  Mg56  1  0.84526900  0.35957000  0.55477300  1
  Mg  Mg57  1  0.60042400  0.45898500  0.53477000  1
  Mg  Mg58  1  0.86391900  0.07667300  0.59380200  1
  Mg  Mg59  1  0.60478500  0.19037600  0.56665500  1
  Mg  Mg60  1  0.40241300  0.30242600  0.58334500  1
  Mg  Mg61  1  0.54328000  0.01612900  0.50619800  1
  Mg  Mg62  1  0.80677500  0.63381700  0.56523000  1
  Mg  Mg63  1  0.16192900  0.13323200  0.59522700  1
  Mg  Mg64  1  0.44526900  0.75957000  0.60477300  1
  Mg  Mg65  1  0.40042400  0.65898500  0.68477000  1
  Mg  Mg66  1  0.46391900  0.47667300  0.64380200  1
  Mg  Mg67  1  0.20478500  0.59037600  0.61665500  1
  Mg  Mg68  1  0.00241300  0.70242600  0.63334500  1
  Mg  Mg69  1  0.34328000  0.21612900  0.65619800  1
  Mg  Mg70  1  0.40677500  0.03381700  0.61523000  1
  Mg  Mg71  1  0.76192900  0.53323200  0.64522700  1
  Mg  Mg72  1  0.04526900  0.15957000  0.65477300  1
  Mg  Mg73  1  0.80042400  0.25898500  0.63477000  1
  Mg  Mg74  1  0.06391900  0.87667300  0.69380200  1
  Mg  Mg75  1  0.80478500  0.99037600  0.66665500  1
  Mg  Mg76  1  0.60241300  0.10242600  0.68334500  1
  Mg  Mg77  1  0.74328000  0.81612900  0.60619800  1
  Mg  Mg78  1  0.00677500  0.43381700  0.66523000  1
  Mg  Mg79  1  0.36192900  0.93323200  0.69522700  1
  Mg  Mg80  1  0.64526900  0.55957000  0.70477300  1
  Mg  Mg81  1  0.60042400  0.45898500  0.78477000  1
  Mg  Mg82  1  0.66391900  0.27667300  0.74380200  1
  Mg  Mg83  1  0.40478500  0.39037600  0.71665500  1
  Mg  Mg84  1  0.20241300  0.50242600  0.73334500  1
  Mg  Mg85  1  0.54328000  0.01612900  0.75619800  1
  Mg  Mg86  1  0.60677500  0.83381700  0.71523000  1
  Mg  Mg87  1  0.96192900  0.33323200  0.74522700  1
  Mg  Mg88  1  0.24526900  0.95957000  0.75477300  1
  Mg  Mg89  1  0.00042400  0.05898500  0.73477000  1
  Mg  Mg90  1  0.26391900  0.67667300  0.79380200  1
  Mg  Mg91  1  0.00478500  0.79037600  0.76665500  1
  Mg  Mg92  1  0.80241300  0.90242600  0.78334500  1
  Mg  Mg93  1  0.94328000  0.61612900  0.70619800  1
  Mg  Mg94  1  0.20677500  0.23381700  0.76523000  1
  Mg  Mg95  1  0.56192900  0.73323200  0.79522700  1
  Ga  Ga96  1  0.99936700  0.19488800  0.29725400  1
  Ga  Ga97  1  0.48390500  0.60783200  0.24365500  1
  Ga  Ga98  1  0.77561500  0.13264800  0.28250600  1
  Ga  Ga99  1  0.36015400  0.44559100  0.27890700  1
  Ga  Ga100  1  0.44704500  0.24721000  0.27109300  1
  Ga  Ga101  1  0.43158300  0.16015400  0.21749400  1
  Ga  Ga102  1  0.72329300  0.68497000  0.25634500  1
  Ga  Ga103  1  0.80783200  0.49791300  0.25274600  1
  Ga  Ga104  1  0.39936700  0.79488800  0.24725400  1
  Ga  Ga105  1  0.08390500  0.00783200  0.29365500  1
  Ga  Ga106  1  0.17561500  0.73264800  0.23250600  1
  Ga  Ga107  1  0.76015400  0.04559100  0.22890700  1
  Ga  Ga108  1  0.84704500  0.84721000  0.22109300  1
  Ga  Ga109  1  0.03158300  0.56015400  0.26749400  1
  Ga  Ga110  1  0.12329300  0.28497000  0.20634500  1
  Ga  Ga111  1  0.20783200  0.09791300  0.20274600  1
  Ga  Ga112  1  0.19936700  0.99488800  0.39725400  1
  Ga  Ga113  1  0.68390500  0.40783200  0.34365500  1
  Ga  Ga114  1  0.97561500  0.93264800  0.38250600  1
  Ga  Ga115  1  0.56015400  0.24559100  0.37890700  1
  Ga  Ga116  1  0.64704500  0.04721000  0.37109300  1
  Ga  Ga117  1  0.63158300  0.96015400  0.31749400  1
  Ga  Ga118  1  0.92329300  0.48497000  0.35634500  1
  Ga  Ga119  1  0.00783200  0.29791300  0.35274600  1
  Ga  Ga120  1  0.59936700  0.59488800  0.34725400  1
  Ga  Ga121  1  0.28390500  0.80783200  0.39365500  1
  Ga  Ga122  1  0.37561500  0.53264800  0.33250600  1
  Ga  Ga123  1  0.96015400  0.84559100  0.32890700  1
  Ga  Ga124  1  0.04704500  0.64721000  0.32109300  1
  Ga  Ga125  1  0.23158300  0.36015400  0.36749400  1
  Ga  Ga126  1  0.32329300  0.08497000  0.30634500  1
  Ga  Ga127  1  0.40783200  0.89791300  0.30274600  1
  Ga  Ga128  1  0.39936700  0.79488800  0.49725400  1
  Ga  Ga129  1  0.88390500  0.20783200  0.44365500  1
  Ga  Ga130  1  0.17561500  0.73264800  0.48250600  1
  Ga  Ga131  1  0.76015400  0.04559100  0.47890700  1
  Ga  Ga132  1  0.84704500  0.84721000  0.47109300  1
  Ga  Ga133  1  0.83158300  0.76015400  0.41749400  1
  Ga  Ga134  1  0.12329300  0.28497000  0.45634500  1
  Ga  Ga135  1  0.20783200  0.09791300  0.45274600  1
  Ga  Ga136  1  0.79936700  0.39488800  0.44725400  1
  Ga  Ga137  1  0.48390500  0.60783200  0.49365500  1
  Ga  Ga138  1  0.57561500  0.33264800  0.43250600  1
  Ga  Ga139  1  0.16015400  0.64559100  0.42890700  1
  Ga  Ga140  1  0.24704500  0.44721000  0.42109300  1
  Ga  Ga141  1  0.43158300  0.16015400  0.46749400  1
  Ga  Ga142  1  0.52329300  0.88497000  0.40634500  1
  Ga  Ga143  1  0.60783200  0.69791300  0.40274600  1
  Ga  Ga144  1  0.59936700  0.59488800  0.59725400  1
  Ga  Ga145  1  0.08390500  0.00783200  0.54365500  1
  Ga  Ga146  1  0.37561500  0.53264800  0.58250600  1
  Ga  Ga147  1  0.96015400  0.84559100  0.57890700  1
  Ga  Ga148  1  0.04704500  0.64721000  0.57109300  1
  Ga  Ga149  1  0.03158300  0.56015400  0.51749400  1
  Ga  Ga150  1  0.32329300  0.08497000  0.55634500  1
  Ga  Ga151  1  0.40783200  0.89791300  0.55274600  1
  Ga  Ga152  1  0.99936700  0.19488800  0.54725400  1
  Ga  Ga153  1  0.68390500  0.40783200  0.59365500  1
  Ga  Ga154  1  0.77561500  0.13264800  0.53250600  1
  Ga  Ga155  1  0.36015400  0.44559100  0.52890700  1
  Ga  Ga156  1  0.44704500  0.24721000  0.52109300  1
  Ga  Ga157  1  0.63158300  0.96015400  0.56749400  1
  Ga  Ga158  1  0.72329300  0.68497000  0.50634500  1
  Ga  Ga159  1  0.80783200  0.49791300  0.50274600  1
  Ga  Ga160  1  0.79936700  0.39488800  0.69725400  1
  Ga  Ga161  1  0.28390500  0.80783200  0.64365500  1
  Ga  Ga162  1  0.57561500  0.33264800  0.68250600  1
  Ga  Ga163  1  0.16015400  0.64559100  0.67890700  1
  Ga  Ga164  1  0.24704500  0.44721000  0.67109300  1
  Ga  Ga165  1  0.23158300  0.36015400  0.61749400  1
  Ga  Ga166  1  0.52329300  0.88497000  0.65634500  1
  Ga  Ga167  1  0.60783200  0.69791300  0.65274600  1
  Ga  Ga168  1  0.19936700  0.99488800  0.64725400  1
  Ga  Ga169  1  0.88390500  0.20783200  0.69365500  1
  Ga  Ga170  1  0.97561500  0.93264800  0.63250600  1
  Ga  Ga171  1  0.56015400  0.24559100  0.62890700  1
  Ga  Ga172  1  0.64704500  0.04721000  0.62109300  1
  Ga  Ga173  1  0.83158300  0.76015400  0.66749400  1
  Ga  Ga174  1  0.92329300  0.48497000  0.60634500  1
  Ga  Ga175  1  0.00783200  0.29791300  0.60274600  1
  Ga  Ga176  1  0.99936700  0.19488800  0.79725400  1
  Ga  Ga177  1  0.48390500  0.60783200  0.74365500  1
  Ga  Ga178  1  0.77561500  0.13264800  0.78250600  1
  Ga  Ga179  1  0.36015400  0.44559100  0.77890700  1
  Ga  Ga180  1  0.44704500  0.24721000  0.77109300  1
  Ga  Ga181  1  0.43158300  0.16015400  0.71749400  1
  Ga  Ga182  1  0.72329300  0.68497000  0.75634500  1
  Ga  Ga183  1  0.80783200  0.49791300  0.75274600  1
  Ga  Ga184  1  0.39936700  0.79488800  0.74725400  1
  Ga  Ga185  1  0.08390500  0.00783200  0.79365500  1
  Ga  Ga186  1  0.17561500  0.73264800  0.73250600  1
  Ga  Ga187  1  0.76015400  0.04559100  0.72890700  1
  Ga  Ga188  1  0.84704500  0.84721000  0.72109300  1
  Ga  Ga189  1  0.03158300  0.56015400  0.76749400  1
  Ga  Ga190  1  0.12329300  0.28497000  0.70634500  1
  Ga  Ga191  1  0.20783200  0.09791300  0.70274600  1
