# generated using pymatgen
data_Y13Mg7
_symmetry_space_group_name_H-M   'P 1'
_cell_length_a   5.49634900
_cell_length_b   8.78578790
_cell_length_c   43.70715000
_cell_angle_alpha   90.91524143
_cell_angle_beta   90.00000000
_cell_angle_gamma   90.00000000
_symmetry_Int_Tables_number   1
_chemical_formula_structural   Y13Mg7
_chemical_formula_sum   'Y26 Mg14'
_cell_volume   2110.33835896
_cell_formula_units_Z   2
loop_
 _symmetry_equiv_pos_site_id
 _symmetry_equiv_pos_as_xyz
  1  'x, y, z'
loop_
 _atom_site_type_symbol
 _atom_site_label
 _atom_site_symmetry_multiplicity
 _atom_site_fract_x
 _atom_site_fract_y
 _atom_site_fract_z
 _atom_site_occupancy
  Y  Y0  1  0.25000000  0.32305400  0.71337800  1
  Y  Y1  1  0.75000000  0.36879400  0.75884500  1
  Y  Y2  1  0.25000000  0.71402500  0.68689800  1
  Y  Y3  1  0.25000000  0.40638800  0.63004400  1
  Y  Y4  1  0.75000000  0.06115600  0.70199100  1
  Y  Y5  1  0.75000000  0.45212700  0.67551100  1
  Y  Y6  1  0.25000000  0.79735800  0.60356500  1
  Y  Y7  1  0.25000000  0.48972100  0.54671100  1
  Y  Y8  1  0.75000000  0.14449000  0.61865700  1
  Y  Y9  1  0.75000000  0.53546000  0.59217800  1
  Y  Y10  1  0.25000000  0.88069200  0.52023100  1
  Y  Y11  1  0.25000000  0.57305400  0.46337800  1
  Y  Y12  1  0.75000000  0.22782300  0.53532400  1
  Y  Y13  1  0.75000000  0.61879400  0.50884500  1
  Y  Y14  1  0.25000000  0.96402500  0.43689800  1
  Y  Y15  1  0.25000000  0.65638800  0.38004400  1
  Y  Y16  1  0.75000000  0.31115600  0.45199100  1
  Y  Y17  1  0.75000000  0.70212700  0.42551100  1
  Y  Y18  1  0.25000000  0.04735800  0.35356500  1
  Y  Y19  1  0.25000000  0.73972100  0.29671100  1
  Y  Y20  1  0.75000000  0.39449000  0.36865700  1
  Y  Y21  1  0.75000000  0.78546000  0.34217800  1
  Y  Y22  1  0.25000000  0.13069200  0.27023100  1
  Y  Y23  1  0.25000000  0.82305400  0.21337800  1
  Y  Y24  1  0.75000000  0.47782300  0.28532400  1
  Y  Y25  1  0.75000000  0.86879400  0.25884500  1
  Mg  Mg26  1  0.25000000  0.97535700  0.74173900  1
  Mg  Mg27  1  0.75000000  0.71649100  0.73048400  1
  Mg  Mg28  1  0.25000000  0.05869000  0.65840500  1
  Mg  Mg29  1  0.75000000  0.79982400  0.64715000  1
  Mg  Mg30  1  0.25000000  0.14202400  0.57507200  1
  Mg  Mg31  1  0.75000000  0.88315800  0.56381700  1
  Mg  Mg32  1  0.25000000  0.22535700  0.49173900  1
  Mg  Mg33  1  0.75000000  0.96649100  0.48048400  1
  Mg  Mg34  1  0.25000000  0.30869000  0.40840500  1
  Mg  Mg35  1  0.75000000  0.04982400  0.39715000  1
  Mg  Mg36  1  0.25000000  0.39202400  0.32507200  1
  Mg  Mg37  1  0.75000000  0.13315800  0.31381700  1
  Mg  Mg38  1  0.25000000  0.47535700  0.24173900  1
  Mg  Mg39  1  0.75000000  0.21649100  0.23048400  1
