# generated using pymatgen
data_Mg20Au59
_symmetry_space_group_name_H-M   'P 1'
_cell_length_a   9.58286600
_cell_length_b   10.43041211
_cell_length_c   46.00314700
_cell_angle_alpha   94.13499482
_cell_angle_beta   90.00000000
_cell_angle_gamma   90.00000000
_symmetry_Int_Tables_number   1
_chemical_formula_structural   Mg20Au59
_chemical_formula_sum   'Mg40 Au118'
_cell_volume   4586.19431584
_cell_formula_units_Z   2
loop_
 _symmetry_equiv_pos_site_id
 _symmetry_equiv_pos_as_xyz
  1  'x, y, z'
loop_
 _atom_site_type_symbol
 _atom_site_label
 _atom_site_symmetry_multiplicity
 _atom_site_fract_x
 _atom_site_fract_y
 _atom_site_fract_z
 _atom_site_occupancy
  Mg  Mg0  1  0.49920200  0.10799600  0.76157700  1
  Mg  Mg1  1  0.50079800  0.64350700  0.73061100  1
  Mg  Mg2  1  0.99920200  0.64350700  0.73061100  1
  Mg  Mg3  1  0.00079800  0.10799600  0.76157700  1
  Mg  Mg4  1  0.25000000  0.74338800  0.80393600  1
  Mg  Mg5  1  0.75000000  0.00811400  0.68825100  1
  Mg  Mg6  1  0.25000000  0.33245300  0.70987400  1
  Mg  Mg7  1  0.75000000  0.41904900  0.78231400  1
  Mg  Mg8  1  0.49920200  0.23299600  0.63657700  1
  Mg  Mg9  1  0.50079800  0.76850700  0.60561100  1
  Mg  Mg10  1  0.99920200  0.76850700  0.60561100  1
  Mg  Mg11  1  0.00079800  0.23299600  0.63657700  1
  Mg  Mg12  1  0.25000000  0.86838800  0.67893600  1
  Mg  Mg13  1  0.75000000  0.13311400  0.56325100  1
  Mg  Mg14  1  0.25000000  0.45745300  0.58487400  1
  Mg  Mg15  1  0.75000000  0.54404900  0.65731400  1
  Mg  Mg16  1  0.49920200  0.35799600  0.51157700  1
  Mg  Mg17  1  0.50079800  0.89350700  0.48061100  1
  Mg  Mg18  1  0.99920200  0.89350700  0.48061100  1
  Mg  Mg19  1  0.00079800  0.35799600  0.51157700  1
  Mg  Mg20  1  0.25000000  0.99338800  0.55393600  1
  Mg  Mg21  1  0.75000000  0.25811400  0.43825100  1
  Mg  Mg22  1  0.25000000  0.58245300  0.45987400  1
  Mg  Mg23  1  0.75000000  0.66904900  0.53231400  1
  Mg  Mg24  1  0.49920200  0.48299600  0.38657700  1
  Mg  Mg25  1  0.50079800  0.01850700  0.35561100  1
  Mg  Mg26  1  0.99920200  0.01850700  0.35561100  1
  Mg  Mg27  1  0.00079800  0.48299600  0.38657700  1
  Mg  Mg28  1  0.25000000  0.11838800  0.42893600  1
  Mg  Mg29  1  0.75000000  0.38311400  0.31325100  1
  Mg  Mg30  1  0.25000000  0.70745300  0.33487400  1
  Mg  Mg31  1  0.75000000  0.79404900  0.40731400  1
  Mg  Mg32  1  0.49920200  0.60799600  0.26157700  1
  Mg  Mg33  1  0.50079800  0.14350700  0.23061100  1
  Mg  Mg34  1  0.99920200  0.14350700  0.23061100  1
  Mg  Mg35  1  0.00079800  0.60799600  0.26157700  1
  Mg  Mg36  1  0.25000000  0.24338800  0.30393600  1
  Mg  Mg37  1  0.75000000  0.50811400  0.18825100  1
  Mg  Mg38  1  0.25000000  0.83245300  0.20987400  1
  Mg  Mg39  1  0.75000000  0.91904900  0.28231400  1
  Au  Au40  1  0.00000000  0.84436100  0.77748400  1
  Au  Au41  1  0.50000000  0.90714200  0.71470400  1
  Au  Au42  1  0.00000000  0.90714200  0.71470400  1
  Au  Au43  1  0.50000000  0.84436100  0.77748400  1
  Au  Au44  1  0.00054900  0.57693000  0.79283900  1
  Au  Au45  1  0.99945100  0.17457300  0.69934900  1
  Au  Au46  1  0.50054900  0.17457300  0.69934900  1
  Au  Au47  1  0.49945100  0.57693000  0.79283900  1
  Au  Au48  1  0.75000000  0.15086400  0.79749600  1
  Au  Au49  1  0.25000000  0.53865000  0.75668100  1
  Au  Au50  1  0.25000000  0.60063900  0.69469200  1
  Au  Au51  1  0.75000000  0.21285300  0.73550600  1
  Au  Au52  1  0.75000000  0.68130500  0.76652400  1
  Au  Au53  1  0.25000000  0.00758500  0.78827600  1
  Au  Au54  1  0.25000000  0.07019700  0.72566400  1
  Au  Au55  1  0.75000000  0.74391800  0.70391200  1
  Au  Au56  1  0.50000000  0.37575100  0.74609400  1
  Au  Au57  1  0.00000000  0.37575100  0.74609400  1
  Au  Au58  1  0.25000000  0.27283100  0.77256600  1
  Au  Au59  1  0.75000000  0.47867100  0.71962200  1
  Au  Au60  1  0.25000000  0.79965500  0.74102100  1
  Au  Au61  1  0.75000000  0.95184700  0.75116700  1
  Au  Au62  1  0.00000000  0.96936100  0.65248400  1
  Au  Au63  1  0.50000000  0.03214200  0.58970400  1
  Au  Au64  1  0.00000000  0.03214200  0.58970400  1
  Au  Au65  1  0.50000000  0.96936100  0.65248400  1
  Au  Au66  1  0.00054900  0.70193000  0.66783900  1
  Au  Au67  1  0.99945100  0.29957300  0.57434900  1
  Au  Au68  1  0.50054900  0.29957300  0.57434900  1
  Au  Au69  1  0.49945100  0.70193000  0.66783900  1
  Au  Au70  1  0.75000000  0.27586400  0.67249600  1
  Au  Au71  1  0.25000000  0.66365000  0.63168100  1
  Au  Au72  1  0.25000000  0.72563900  0.56969200  1
  Au  Au73  1  0.75000000  0.33785300  0.61050600  1
  Au  Au74  1  0.75000000  0.80630500  0.64152400  1
  Au  Au75  1  0.25000000  0.13258500  0.66327600  1
  Au  Au76  1  0.25000000  0.19519700  0.60066400  1
  Au  Au77  1  0.75000000  0.86891800  0.57891200  1
  Au  Au78  1  0.50000000  0.50075100  0.62109400  1
  Au  Au79  1  0.50000000  0.43825100  0.68359400  1
  Au  Au80  1  0.00000000  0.50075100  0.62109400  1
  Au  Au81  1  0.00000000  0.43825100  0.68359400  1
  Au  Au82  1  0.25000000  0.39783100  0.64756600  1
  Au  Au83  1  0.75000000  0.60367100  0.59462200  1
  Au  Au84  1  0.25000000  0.92465500  0.61602100  1
  Au  Au85  1  0.75000000  0.07684700  0.62616700  1
  Au  Au86  1  0.00000000  0.09436100  0.52748400  1
  Au  Au87  1  0.50000000  0.15714200  0.46470400  1
  Au  Au88  1  0.00000000  0.15714200  0.46470400  1
  Au  Au89  1  0.50000000  0.09436100  0.52748400  1
  Au  Au90  1  0.00054900  0.82693000  0.54283900  1
  Au  Au91  1  0.99945100  0.42457300  0.44934900  1
  Au  Au92  1  0.50054900  0.42457300  0.44934900  1
  Au  Au93  1  0.49945100  0.82693000  0.54283900  1
  Au  Au94  1  0.75000000  0.40086400  0.54749600  1
  Au  Au95  1  0.25000000  0.78865000  0.50668100  1
  Au  Au96  1  0.25000000  0.85063900  0.44469200  1
  Au  Au97  1  0.75000000  0.46285300  0.48550600  1
  Au  Au98  1  0.75000000  0.93130500  0.51652400  1
  Au  Au99  1  0.25000000  0.25758500  0.53827600  1
  Au  Au100  1  0.25000000  0.32019700  0.47566400  1
  Au  Au101  1  0.75000000  0.99391800  0.45391200  1
  Au  Au102  1  0.50000000  0.62575100  0.49609400  1
  Au  Au103  1  0.50000000  0.56325100  0.55859400  1
  Au  Au104  1  0.00000000  0.62575100  0.49609400  1
  Au  Au105  1  0.00000000  0.56325100  0.55859400  1
  Au  Au106  1  0.25000000  0.52283100  0.52256600  1
  Au  Au107  1  0.75000000  0.72867100  0.46962200  1
  Au  Au108  1  0.25000000  0.04965500  0.49102100  1
  Au  Au109  1  0.75000000  0.20184700  0.50116700  1
  Au  Au110  1  0.00000000  0.21936100  0.40248400  1
  Au  Au111  1  0.50000000  0.28214200  0.33970400  1
  Au  Au112  1  0.00000000  0.28214200  0.33970400  1
  Au  Au113  1  0.50000000  0.21936100  0.40248400  1
  Au  Au114  1  0.00054900  0.95193000  0.41783900  1
  Au  Au115  1  0.99945100  0.54957300  0.32434900  1
  Au  Au116  1  0.50054900  0.54957300  0.32434900  1
  Au  Au117  1  0.49945100  0.95193000  0.41783900  1
  Au  Au118  1  0.75000000  0.52586400  0.42249600  1
  Au  Au119  1  0.25000000  0.91365000  0.38168100  1
  Au  Au120  1  0.25000000  0.97563900  0.31969200  1
  Au  Au121  1  0.75000000  0.58785300  0.36050600  1
  Au  Au122  1  0.75000000  0.05630500  0.39152400  1
  Au  Au123  1  0.25000000  0.38258500  0.41327600  1
  Au  Au124  1  0.25000000  0.44519700  0.35066400  1
  Au  Au125  1  0.75000000  0.11891800  0.32891200  1
  Au  Au126  1  0.50000000  0.75075100  0.37109400  1
  Au  Au127  1  0.50000000  0.68825100  0.43359400  1
  Au  Au128  1  0.00000000  0.75075100  0.37109400  1
  Au  Au129  1  0.00000000  0.68825100  0.43359400  1
  Au  Au130  1  0.25000000  0.64783100  0.39756600  1
  Au  Au131  1  0.75000000  0.85367100  0.34462200  1
  Au  Au132  1  0.25000000  0.17465500  0.36602100  1
  Au  Au133  1  0.75000000  0.32684700  0.37616700  1
  Au  Au134  1  0.00000000  0.34436100  0.27748400  1
  Au  Au135  1  0.50000000  0.40714200  0.21470400  1
  Au  Au136  1  0.00000000  0.40714200  0.21470400  1
  Au  Au137  1  0.50000000  0.34436100  0.27748400  1
  Au  Au138  1  0.00054900  0.07693000  0.29283900  1
  Au  Au139  1  0.99945100  0.67457300  0.19934900  1
  Au  Au140  1  0.50054900  0.67457300  0.19934900  1
  Au  Au141  1  0.49945100  0.07693000  0.29283900  1
  Au  Au142  1  0.75000000  0.65086400  0.29749600  1
  Au  Au143  1  0.25000000  0.03865000  0.25668100  1
  Au  Au144  1  0.25000000  0.10063900  0.19469200  1
  Au  Au145  1  0.75000000  0.71285300  0.23550600  1
  Au  Au146  1  0.75000000  0.18130500  0.26652400  1
  Au  Au147  1  0.25000000  0.50758500  0.28827600  1
  Au  Au148  1  0.25000000  0.57019700  0.22566400  1
  Au  Au149  1  0.75000000  0.24391800  0.20391200  1
  Au  Au150  1  0.50000000  0.87575100  0.24609400  1
  Au  Au151  1  0.50000000  0.81325100  0.30859400  1
  Au  Au152  1  0.00000000  0.87575100  0.24609400  1
  Au  Au153  1  0.00000000  0.81325100  0.30859400  1
  Au  Au154  1  0.25000000  0.77283100  0.27256600  1
  Au  Au155  1  0.75000000  0.97867100  0.21962200  1
  Au  Au156  1  0.25000000  0.29965500  0.24102100  1
  Au  Au157  1  0.75000000  0.45184700  0.25116700  1
