# generated using pymatgen
data_Mg39Rh16
_symmetry_space_group_name_H-M   'P 1'
_cell_length_a   8.64031975
_cell_length_b   8.03467500
_cell_length_c   52.55701100
_cell_angle_alpha   90.00000000
_cell_angle_beta   94.71500456
_cell_angle_gamma   90.00000000
_symmetry_Int_Tables_number   1
_chemical_formula_structural   Mg39Rh16
_chemical_formula_sum   'Mg78 Rh32'
_cell_volume   3636.27396607
_cell_formula_units_Z   2
loop_
 _symmetry_equiv_pos_site_id
 _symmetry_equiv_pos_as_xyz
  1  'x, y, z'
loop_
 _atom_site_type_symbol
 _atom_site_label
 _atom_site_symmetry_multiplicity
 _atom_site_fract_x
 _atom_site_fract_y
 _atom_site_fract_z
 _atom_site_occupancy
  Mg  Mg0  1  0.58867100  0.50000000  0.35204100  1
  Mg  Mg1  1  0.58867100  0.00000000  0.35204100  1
  Mg  Mg2  1  0.08292400  0.75000000  0.34054600  1
  Mg  Mg3  1  0.73973400  0.25000000  0.27486500  1
  Mg  Mg4  1  0.36043300  0.25000000  0.27486500  1
  Mg  Mg5  1  0.24548100  0.75000000  0.28636000  1
  Mg  Mg6  1  0.86618100  0.75000000  0.28636000  1
  Mg  Mg7  1  0.52299000  0.25000000  0.22067900  1
  Mg  Mg8  1  0.04457100  0.43548400  0.26384000  1
  Mg  Mg9  1  0.31785500  0.93548400  0.23651200  1
  Mg  Mg10  1  0.74395900  0.93548400  0.23651200  1
  Mg  Mg11  1  0.86195500  0.43548400  0.32471200  1
  Mg  Mg12  1  0.28805900  0.43548400  0.32471200  1
  Mg  Mg13  1  0.56134300  0.56451600  0.29738400  1
  Mg  Mg14  1  0.31785500  0.56451600  0.23651200  1
  Mg  Mg15  1  0.56134300  0.93548400  0.29738400  1
  Mg  Mg16  1  0.74395900  0.56451600  0.23651200  1
  Mg  Mg17  1  0.86195500  0.06451600  0.32471200  1
  Mg  Mg18  1  0.04457100  0.06451600  0.26384000  1
  Mg  Mg19  1  0.28805900  0.06451600  0.32471200  1
  Mg  Mg20  1  0.16010000  0.50000000  0.49489800  1
  Mg  Mg21  1  0.16010000  0.00000000  0.49489800  1
  Mg  Mg22  1  0.65435200  0.75000000  0.48340300  1
  Mg  Mg23  1  0.31116200  0.25000000  0.41772200  1
  Mg  Mg24  1  0.93186200  0.25000000  0.41772200  1
  Mg  Mg25  1  0.81691000  0.75000000  0.42921700  1
  Mg  Mg26  1  0.43760900  0.75000000  0.42921700  1
  Mg  Mg27  1  0.09441900  0.25000000  0.36353600  1
  Mg  Mg28  1  0.61600000  0.43548400  0.40669800  1
  Mg  Mg29  1  0.88928400  0.93548400  0.37936900  1
  Mg  Mg30  1  0.31538700  0.93548400  0.37936900  1
  Mg  Mg31  1  0.43338400  0.43548400  0.46757000  1
  Mg  Mg32  1  0.85948700  0.43548400  0.46757000  1
  Mg  Mg33  1  0.13277200  0.56451600  0.44024100  1
  Mg  Mg34  1  0.88928400  0.56451600  0.37936900  1
  Mg  Mg35  1  0.13277200  0.93548400  0.44024100  1
  Mg  Mg36  1  0.31538700  0.56451600  0.37936900  1
  Mg  Mg37  1  0.43338400  0.06451600  0.46757000  1
  Mg  Mg38  1  0.61600000  0.06451600  0.40669800  1
  Mg  Mg39  1  0.85948700  0.06451600  0.46757000  1
  Mg  Mg40  1  0.73152800  0.50000000  0.63775500  1
  Mg  Mg41  1  0.73152800  0.00000000  0.63775500  1
  Mg  Mg42  1  0.22578100  0.75000000  0.62626000  1
  Mg  Mg43  1  0.88259100  0.25000000  0.56057900  1
  Mg  Mg44  1  0.50329000  0.25000000  0.56057900  1
  Mg  Mg45  1  0.38833800  0.75000000  0.57207400  1
  Mg  Mg46  1  0.00903800  0.75000000  0.57207400  1
  Mg  Mg47  1  0.66584800  0.25000000  0.50639300  1
  Mg  Mg48  1  0.18742800  0.43548400  0.54955500  1
  Mg  Mg49  1  0.46071200  0.93548400  0.52222600  1
  Mg  Mg50  1  0.88681600  0.93548400  0.52222600  1
  Mg  Mg51  1  0.00481300  0.43548400  0.61042700  1
  Mg  Mg52  1  0.43091600  0.43548400  0.61042700  1
  Mg  Mg53  1  0.70420000  0.56451600  0.58309800  1
  Mg  Mg54  1  0.46071200  0.56451600  0.52222600  1
  Mg  Mg55  1  0.70420000  0.93548400  0.58309800  1
  Mg  Mg56  1  0.88681600  0.56451600  0.52222600  1
  Mg  Mg57  1  0.00481300  0.06451600  0.61042700  1
  Mg  Mg58  1  0.18742800  0.06451600  0.54955500  1
  Mg  Mg59  1  0.43091600  0.06451600  0.61042700  1
  Mg  Mg60  1  0.79720900  0.75000000  0.76911700  1
  Mg  Mg61  1  0.45401900  0.25000000  0.70343600  1
  Mg  Mg62  1  0.07471900  0.25000000  0.70343600  1
  Mg  Mg63  1  0.95976700  0.75000000  0.71493100  1
  Mg  Mg64  1  0.58046600  0.75000000  0.71493100  1
  Mg  Mg65  1  0.23727600  0.25000000  0.64925000  1
  Mg  Mg66  1  0.75885700  0.43548400  0.69241200  1
  Mg  Mg67  1  0.03214100  0.93548400  0.66508400  1
  Mg  Mg68  1  0.45824400  0.93548400  0.66508400  1
  Mg  Mg69  1  0.57624100  0.43548400  0.75328400  1
  Mg  Mg70  1  0.00234500  0.43548400  0.75328400  1
  Mg  Mg71  1  0.27562900  0.56451600  0.72595500  1
  Mg  Mg72  1  0.03214100  0.56451600  0.66508400  1
  Mg  Mg73  1  0.27562900  0.93548400  0.72595500  1
  Mg  Mg74  1  0.45824400  0.56451600  0.66508400  1
  Mg  Mg75  1  0.57624100  0.06451600  0.75328400  1
  Mg  Mg76  1  0.75885700  0.06451600  0.69241200  1
  Mg  Mg77  1  0.00234500  0.06451600  0.75328400  1
  Rh  Rh78  1  0.06486200  0.25000000  0.30442200  1
  Rh  Rh79  1  0.54105200  0.75000000  0.25680300  1
  Rh  Rh80  1  0.03471500  0.75000000  0.24412800  1
  Rh  Rh81  1  0.20943400  0.25000000  0.22665600  1
  Rh  Rh82  1  0.84252400  0.25000000  0.22665600  1
  Rh  Rh83  1  0.76339100  0.75000000  0.33456900  1
  Rh  Rh84  1  0.39648000  0.75000000  0.33456900  1
  Rh  Rh85  1  0.57119900  0.25000000  0.31709700  1
  Rh  Rh86  1  0.63629000  0.25000000  0.44727900  1
  Rh  Rh87  1  0.11248100  0.75000000  0.39966000  1
  Rh  Rh88  1  0.60614300  0.75000000  0.38698500  1
  Rh  Rh89  1  0.78086300  0.25000000  0.36951300  1
  Rh  Rh90  1  0.41395200  0.25000000  0.36951300  1
  Rh  Rh91  1  0.33481900  0.75000000  0.47742600  1
  Rh  Rh92  1  0.96790900  0.75000000  0.47742600  1
  Rh  Rh93  1  0.14262800  0.25000000  0.45995400  1
  Rh  Rh94  1  0.20771900  0.25000000  0.59013600  1
  Rh  Rh95  1  0.68390900  0.75000000  0.54251700  1
  Rh  Rh96  1  0.17757200  0.75000000  0.52984200  1
  Rh  Rh97  1  0.35229100  0.25000000  0.51237000  1
  Rh  Rh98  1  0.98538100  0.25000000  0.51237000  1
  Rh  Rh99  1  0.90624800  0.75000000  0.62028300  1
  Rh  Rh100  1  0.53933700  0.75000000  0.62028300  1
  Rh  Rh101  1  0.71405700  0.25000000  0.60281100  1
  Rh  Rh102  1  0.77914800  0.25000000  0.73299300  1
  Rh  Rh103  1  0.25533800  0.75000000  0.68537400  1
  Rh  Rh104  1  0.74900000  0.75000000  0.67269900  1
  Rh  Rh105  1  0.92372000  0.25000000  0.65522700  1
  Rh  Rh106  1  0.55680900  0.25000000  0.65522700  1
  Rh  Rh107  1  0.47767600  0.75000000  0.76314000  1
  Rh  Rh108  1  0.11076600  0.75000000  0.76314000  1
  Rh  Rh109  1  0.28548500  0.25000000  0.74566800  1
