# generated using pymatgen
data_Mg2Hg7
_symmetry_space_group_name_H-M   'P 1'
_cell_length_a   4.95207504
_cell_length_b   10.62223185
_cell_length_c   43.00163600
_cell_angle_alpha   89.37829739
_cell_angle_beta   93.30092273
_cell_angle_gamma   76.52037499
_symmetry_Int_Tables_number   1
_chemical_formula_structural   Mg2Hg7
_chemical_formula_sum   'Mg12 Hg42'
_cell_volume   2195.32902800
_cell_formula_units_Z   6
loop_
 _symmetry_equiv_pos_site_id
 _symmetry_equiv_pos_as_xyz
  1  'x, y, z'
loop_
 _atom_site_type_symbol
 _atom_site_label
 _atom_site_symmetry_multiplicity
 _atom_site_fract_x
 _atom_site_fract_y
 _atom_site_fract_z
 _atom_site_occupancy
  Mg  Mg0  1  0.93939400  0.55303000  0.27651500  1
  Mg  Mg1  1  0.21212100  0.02272700  0.29166700  1
  Mg  Mg2  1  0.57575800  0.37121200  0.36742400  1
  Mg  Mg3  1  0.84848500  0.84090900  0.38257600  1
  Mg  Mg4  1  0.21212100  0.18939400  0.45833300  1
  Mg  Mg5  1  0.48484800  0.65909100  0.47348500  1
  Mg  Mg6  1  0.84848500  0.00757600  0.54924200  1
  Mg  Mg7  1  0.12121200  0.47727300  0.56439400  1
  Mg  Mg8  1  0.48484800  0.82575800  0.64015200  1
  Mg  Mg9  1  0.75757600  0.29545500  0.65530300  1
  Mg  Mg10  1  0.12121200  0.64393900  0.73106100  1
  Mg  Mg11  1  0.39393900  0.11363600  0.74621200  1
  Hg  Hg12  1  0.18550800  0.99927300  0.21498700  1
  Hg  Hg13  1  0.32964300  0.75830300  0.26228600  1
  Hg  Hg14  1  0.45823600  0.46897000  0.23013800  1
  Hg  Hg15  1  0.05691600  0.28860600  0.24713500  1
  Hg  Hg16  1  0.84848500  0.67424200  0.21590900  1
  Hg  Hg17  1  0.66666700  0.08333300  0.26136400  1
  Hg  Hg18  1  0.82187200  0.81745400  0.30589600  1
  Hg  Hg19  1  0.96600700  0.57648500  0.35319500  1
  Hg  Hg20  1  0.09459900  0.28715100  0.32104700  1
  Hg  Hg21  1  0.69327900  0.10678800  0.33804400  1
  Hg  Hg22  1  0.48484800  0.49242400  0.30681800  1
  Hg  Hg23  1  0.30303000  0.90151500  0.35227300  1
  Hg  Hg24  1  0.45823600  0.63563600  0.39680500  1
  Hg  Hg25  1  0.60237000  0.39466700  0.44410400  1
  Hg  Hg26  1  0.73096300  0.10533300  0.41195600  1
  Hg  Hg27  1  0.32964300  0.92497000  0.42895300  1
  Hg  Hg28  1  0.12121200  0.31060600  0.39772700  1
  Hg  Hg29  1  0.93939400  0.71969700  0.44318200  1
  Hg  Hg30  1  0.09459900  0.45381800  0.48771400  1
  Hg  Hg31  1  0.23873400  0.21284900  0.53501300  1
  Hg  Hg32  1  0.36732700  0.92351500  0.50286500  1
  Hg  Hg33  1  0.96600700  0.74315200  0.51986200  1
  Hg  Hg34  1  0.75757600  0.12878800  0.48863600  1
  Hg  Hg35  1  0.57575800  0.53787900  0.53409100  1
  Hg  Hg36  1  0.73096300  0.27200000  0.57862300  1
  Hg  Hg37  1  0.87509800  0.03103000  0.62592300  1
  Hg  Hg38  1  0.00369000  0.74169700  0.59377400  1
  Hg  Hg39  1  0.60237000  0.56133300  0.61077100  1
  Hg  Hg40  1  0.39393900  0.94697000  0.57954500  1
  Hg  Hg41  1  0.21212100  0.35606100  0.62500000  1
  Hg  Hg42  1  0.36732700  0.09018200  0.66953200  1
  Hg  Hg43  1  0.51146100  0.84921200  0.71683200  1
  Hg  Hg44  1  0.64005400  0.55987900  0.68468300  1
  Hg  Hg45  1  0.23873400  0.37951500  0.70168000  1
  Hg  Hg46  1  0.03030300  0.76515200  0.67045500  1
  Hg  Hg47  1  0.84848500  0.17424200  0.71590900  1
  Hg  Hg48  1  0.00369000  0.90836400  0.76044100  1
  Hg  Hg49  1  0.14782500  0.66739400  0.80774100  1
  Hg  Hg50  1  0.27641800  0.37806100  0.77559300  1
  Hg  Hg51  1  0.87509800  0.19769700  0.79258900  1
  Hg  Hg52  1  0.66666700  0.58333300  0.76136400  1
  Hg  Hg53  1  0.48484800  0.99242400  0.80681800  1
