# generated using pymatgen
data_Sr5Mg23
_symmetry_space_group_name_H-M   'P 1'
_cell_length_a   5.14837000
_cell_length_b   6.13146500
_cell_length_c   42.48003900
_cell_angle_alpha   90.00000000
_cell_angle_beta   90.00000000
_cell_angle_gamma   90.00000000
_symmetry_Int_Tables_number   1
_chemical_formula_structural   Sr5Mg23
_chemical_formula_sum   'Sr5 Mg23'
_cell_volume   1340.96953474
_cell_formula_units_Z   1
loop_
 _symmetry_equiv_pos_site_id
 _symmetry_equiv_pos_as_xyz
  1  'x, y, z'
loop_
 _atom_site_type_symbol
 _atom_site_label
 _atom_site_symmetry_multiplicity
 _atom_site_fract_x
 _atom_site_fract_y
 _atom_site_fract_z
 _atom_site_occupancy
  Sr  Sr0  1  0.50000000  0.70833300  0.27083300  1
  Sr  Sr1  1  0.50000000  0.20833300  0.39583300  1
  Sr  Sr2  1  0.50000000  0.70833300  0.52083300  1
  Sr  Sr3  1  0.50000000  0.20833300  0.64583300  1
  Sr  Sr4  1  0.50000000  0.70833300  0.77083300  1
  Mg  Mg5  1  0.00000000  0.20833300  0.27083300  1
  Mg  Mg6  1  0.50000000  0.20833300  0.31250000  1
  Mg  Mg7  1  0.50000000  0.20833300  0.22916700  1
  Mg  Mg8  1  1.00000000  0.70833300  0.39583300  1
  Mg  Mg9  1  0.50000000  0.70833300  0.43750000  1
  Mg  Mg10  1  1.00000000  0.45833300  0.33333300  1
  Mg  Mg11  1  0.50000000  0.70833300  0.35416700  1
  Mg  Mg12  1  1.00000000  0.95833300  0.33333300  1
  Mg  Mg13  1  0.00000000  0.20833300  0.52083300  1
  Mg  Mg14  1  0.50000000  0.20833300  0.56250000  1
  Mg  Mg15  1  0.00000000  0.95833300  0.45833300  1
  Mg  Mg16  1  0.50000000  0.20833300  0.47916700  1
  Mg  Mg17  1  0.00000000  0.45833300  0.45833300  1
  Mg  Mg18  1  1.00000000  0.70833300  0.64583300  1
  Mg  Mg19  1  0.50000000  0.70833300  0.68750000  1
  Mg  Mg20  1  1.00000000  0.45833300  0.58333300  1
  Mg  Mg21  1  0.50000000  0.70833300  0.60416700  1
  Mg  Mg22  1  1.00000000  0.95833300  0.58333300  1
  Mg  Mg23  1  1.00000000  0.20833300  0.77083300  1
  Mg  Mg24  1  0.50000000  0.20833300  0.81250000  1
  Mg  Mg25  1  0.00000000  0.95833300  0.70833300  1
  Mg  Mg26  1  0.50000000  0.20833300  0.72916700  1
  Mg  Mg27  1  1.00000000  0.45833300  0.70833300  1
