# generated using pymatgen
data_Pr2Mg
_symmetry_space_group_name_H-M   'P 1'
_cell_length_a   5.72809200
_cell_length_b   8.96230627
_cell_length_c   41.55273300
_cell_angle_alpha   89.69346189
_cell_angle_beta   90.00000000
_cell_angle_gamma   90.00000000
_symmetry_Int_Tables_number   1
_chemical_formula_structural   Pr2Mg
_chemical_formula_sum   'Pr28 Mg14'
_cell_volume   2133.15858512
_cell_formula_units_Z   14
loop_
 _symmetry_equiv_pos_site_id
 _symmetry_equiv_pos_as_xyz
  1  'x, y, z'
loop_
 _atom_site_type_symbol
 _atom_site_label
 _atom_site_symmetry_multiplicity
 _atom_site_fract_x
 _atom_site_fract_y
 _atom_site_fract_z
 _atom_site_occupancy
  Pr  Pr0  1  0.25000000  0.34611100  0.81035800  1
  Pr  Pr1  1  0.25000000  0.64410000  0.74854900  1
  Pr  Pr2  1  0.75000000  0.92661600  0.73509600  1
  Pr  Pr3  1  0.75000000  0.62862800  0.79690500  1
  Pr  Pr4  1  0.25000000  0.25520200  0.71944900  1
  Pr  Pr5  1  0.25000000  0.55319100  0.65764000  1
  Pr  Pr6  1  0.75000000  0.83570700  0.64418700  1
  Pr  Pr7  1  0.75000000  0.53771800  0.70599600  1
  Pr  Pr8  1  0.25000000  0.16429300  0.62854000  1
  Pr  Pr9  1  0.25000000  0.46228200  0.56673100  1
  Pr  Pr10  1  0.75000000  0.74479800  0.55327800  1
  Pr  Pr11  1  0.75000000  0.44680900  0.61508700  1
  Pr  Pr12  1  0.25000000  0.07338400  0.53763100  1
  Pr  Pr13  1  0.25000000  0.37137200  0.47582200  1
  Pr  Pr14  1  0.75000000  0.65388900  0.46236900  1
  Pr  Pr15  1  0.75000000  0.35590000  0.52417800  1
  Pr  Pr16  1  0.25000000  0.98247500  0.44672200  1
  Pr  Pr17  1  0.25000000  0.28046300  0.38491300  1
  Pr  Pr18  1  0.75000000  0.56298000  0.37146000  1
  Pr  Pr19  1  0.75000000  0.26499100  0.43326900  1
  Pr  Pr20  1  0.25000000  0.89156600  0.35581300  1
  Pr  Pr21  1  0.25000000  0.18955400  0.29400400  1
  Pr  Pr22  1  0.75000000  0.47207100  0.28055100  1
  Pr  Pr23  1  0.75000000  0.17408200  0.34236000  1
  Pr  Pr24  1  0.25000000  0.80065700  0.26490400  1
  Pr  Pr25  1  0.25000000  0.09864500  0.20309500  1
  Pr  Pr26  1  0.75000000  0.38116200  0.18964200  1
  Pr  Pr27  1  0.75000000  0.08317300  0.25145100  1
  Mg  Mg28  1  0.25000000  0.99921400  0.77925800  1
  Mg  Mg29  1  0.75000000  0.27351300  0.76619600  1
  Mg  Mg30  1  0.25000000  0.90830500  0.68834900  1
  Mg  Mg31  1  0.75000000  0.18260400  0.67528700  1
  Mg  Mg32  1  0.25000000  0.81739600  0.59744000  1
  Mg  Mg33  1  0.75000000  0.09169500  0.58437800  1
  Mg  Mg34  1  0.25000000  0.72648700  0.50653100  1
  Mg  Mg35  1  0.75000000  0.00078600  0.49346900  1
  Mg  Mg36  1  0.25000000  0.63557800  0.41562200  1
  Mg  Mg37  1  0.75000000  0.90987700  0.40256000  1
  Mg  Mg38  1  0.25000000  0.54466900  0.32471300  1
  Mg  Mg39  1  0.75000000  0.81896800  0.31165100  1
  Mg  Mg40  1  0.25000000  0.45376000  0.23380400  1
  Mg  Mg41  1  0.75000000  0.72805900  0.22074200  1
