# generated using pymatgen
data_Dy2Mg
_symmetry_space_group_name_H-M   'P 1'
_cell_length_a   6.60896973
_cell_length_b   8.74776942
_cell_length_c   42.27082600
_cell_angle_alpha   91.26799270
_cell_angle_beta   92.01157452
_cell_angle_gamma   96.78872541
_symmetry_Int_Tables_number   1
_chemical_formula_structural   Dy2Mg
_chemical_formula_sum   'Dy36 Mg18'
_cell_volume   2424.35459031
_cell_formula_units_Z   18
loop_
 _symmetry_equiv_pos_site_id
 _symmetry_equiv_pos_as_xyz
  1  'x, y, z'
loop_
 _atom_site_type_symbol
 _atom_site_label
 _atom_site_symmetry_multiplicity
 _atom_site_fract_x
 _atom_site_fract_y
 _atom_site_fract_z
 _atom_site_occupancy
  Dy  Dy0  1  0.70478400  0.37336400  0.18987500  1
  Dy  Dy1  1  0.61346800  0.75698000  0.21270400  1
  Dy  Dy2  1  0.00950200  0.05520800  0.23869600  1
  Dy  Dy3  1  0.10081800  0.67159100  0.21586700  1
  Dy  Dy4  1  0.41907000  0.44479200  0.26130400  1
  Dy  Dy5  1  0.32775400  0.82840900  0.28413300  1
  Dy  Dy6  1  0.72378700  0.12663600  0.31012500  1
  Dy  Dy7  1  0.81510300  0.74302000  0.28729600  1
  Dy  Dy8  1  0.13335500  0.51622100  0.33273300  1
  Dy  Dy9  1  0.04203900  0.89983700  0.35556200  1
  Dy  Dy10  1  0.43807300  0.19806500  0.38155300  1
  Dy  Dy11  1  0.52938900  0.81444900  0.35872400  1
  Dy  Dy12  1  0.84764100  0.58764900  0.40416100  1
  Dy  Dy13  1  0.75632500  0.97126600  0.42699000  1
  Dy  Dy14  1  0.15235900  0.26949400  0.45298200  1
  Dy  Dy15  1  0.24367500  0.88587700  0.43015300  1
  Dy  Dy16  1  0.56192700  0.65907800  0.47559000  1
  Dy  Dy17  1  0.47061100  0.04269400  0.49841900  1
  Dy  Dy18  1  0.86664500  0.34092200  0.52441000  1
  Dy  Dy19  1  0.95796100  0.95730600  0.50158100  1
  Dy  Dy20  1  0.27621300  0.73050600  0.54701800  1
  Dy  Dy21  1  0.18489700  0.11412300  0.56984700  1
  Dy  Dy22  1  0.58093000  0.41235100  0.59583900  1
  Dy  Dy23  1  0.67224600  0.02873400  0.57301000  1
  Dy  Dy24  1  0.99049800  0.80193500  0.61844700  1
  Dy  Dy25  1  0.89918200  0.18555100  0.64127600  1
  Dy  Dy26  1  0.29521600  0.48377900  0.66726700  1
  Dy  Dy27  1  0.38653200  0.10016300  0.64443800  1
  Dy  Dy28  1  0.70478400  0.87336400  0.68987500  1
  Dy  Dy29  1  0.61346800  0.25698000  0.71270400  1
  Dy  Dy30  1  0.00950200  0.55520800  0.73869600  1
  Dy  Dy31  1  0.10081800  0.17159100  0.71586700  1
  Dy  Dy32  1  0.41907000  0.94479200  0.76130400  1
  Dy  Dy33  1  0.32775400  0.32840900  0.78413300  1
  Dy  Dy34  1  0.72378700  0.62663600  0.81012500  1
  Dy  Dy35  1  0.81510300  0.24302000  0.78729600  1
  Mg  Mg36  1  0.51656100  0.10285800  0.23693100  1
  Mg  Mg37  1  0.19772500  0.32571400  0.19164000  1
  Mg  Mg38  1  0.23084700  0.17428600  0.30836000  1
  Mg  Mg39  1  0.91201000  0.39714200  0.26306900  1
  Mg  Mg40  1  0.94513200  0.24571500  0.37978800  1
  Mg  Mg41  1  0.62629600  0.46857100  0.33449700  1
  Mg  Mg42  1  0.65941800  0.31714300  0.45121700  1
  Mg  Mg43  1  0.34058200  0.53999900  0.40592600  1
  Mg  Mg44  1  0.37370400  0.38857200  0.52264500  1
  Mg  Mg45  1  0.05486800  0.61142800  0.47735500  1
  Mg  Mg46  1  0.08799000  0.46000100  0.59407400  1
  Mg  Mg47  1  0.76915300  0.68285700  0.54878300  1
  Mg  Mg48  1  0.80227500  0.53142900  0.66550300  1
  Mg  Mg49  1  0.48343900  0.75428500  0.62021200  1
  Mg  Mg50  1  0.51656100  0.60285800  0.73693100  1
  Mg  Mg51  1  0.19772500  0.82571400  0.69164000  1
  Mg  Mg52  1  0.23084700  0.67428600  0.80836000  1
  Mg  Mg53  1  0.91201000  0.89714200  0.76306900  1
