# generated using pymatgen
data_Ho8Mg35
_symmetry_space_group_name_H-M   'P 1'
_cell_length_a   6.18220983
_cell_length_b   7.97297260
_cell_length_c   41.97117300
_cell_angle_alpha   92.57119793
_cell_angle_beta   91.98153646
_cell_angle_gamma   112.06633649
_symmetry_Int_Tables_number   1
_chemical_formula_structural   Ho8Mg35
_chemical_formula_sum   'Ho8 Mg35'
_cell_volume   1912.35664128
_cell_formula_units_Z   1
loop_
 _symmetry_equiv_pos_site_id
 _symmetry_equiv_pos_as_xyz
  1  'x, y, z'
loop_
 _atom_site_type_symbol
 _atom_site_label
 _atom_site_symmetry_multiplicity
 _atom_site_fract_x
 _atom_site_fract_y
 _atom_site_fract_z
 _atom_site_occupancy
  Ho  Ho0  1  0.52151300  0.64216700  0.73717900  1
  Ho  Ho1  1  0.75228200  0.79601300  0.66025600  1
  Ho  Ho2  1  0.98305100  0.94985900  0.58333300  1
  Ho  Ho3  1  0.21382100  0.10370500  0.50641000  1
  Ho  Ho4  1  0.44459000  0.25755100  0.42948700  1
  Ho  Ho5  1  0.67535900  0.41139800  0.35256400  1
  Ho  Ho6  1  0.90612800  0.56524400  0.27564100  1
  Ho  Ho7  1  0.13689800  0.71909000  0.19871800  1
  Mg  Mg8  1  0.08173400  0.83667800  0.72550000  1
  Mg  Mg9  1  0.59910200  0.03887900  0.71214600  1
  Mg  Mg10  1  0.13689800  0.21909000  0.69871800  1
  Mg  Mg11  1  0.67469300  0.39930100  0.68529000  1
  Mg  Mg12  1  0.19206100  0.60150200  0.67193600  1
  Mg  Mg13  1  0.31250300  0.99052400  0.64857700  1
  Mg  Mg14  1  0.82987100  0.19272500  0.63522300  1
  Mg  Mg15  1  0.36766700  0.37293600  0.62179500  1
  Mg  Mg16  1  0.90546200  0.55314700  0.60836700  1
  Mg  Mg17  1  0.42283000  0.75534800  0.59501300  1
  Mg  Mg18  1  0.54327300  0.14437000  0.57165400  1
  Mg  Mg19  1  0.06064100  0.34657100  0.55830000  1
  Mg  Mg20  1  0.59843600  0.52678200  0.54487200  1
  Mg  Mg21  1  0.13623200  0.70699300  0.53144400  1
  Mg  Mg22  1  0.65359900  0.90919400  0.51809000  1
  Mg  Mg23  1  0.77404200  0.29821600  0.49473100  1
  Mg  Mg24  1  0.29141000  0.50041700  0.48137700  1
  Mg  Mg25  1  0.82920500  0.68062800  0.46794900  1
  Mg  Mg26  1  0.36700100  0.86083900  0.45452000  1
  Mg  Mg27  1  0.88436900  0.06304000  0.44116700  1
  Mg  Mg28  1  0.00481100  0.45206300  0.41780800  1
  Mg  Mg29  1  0.52217900  0.65426300  0.40445400  1
  Mg  Mg30  1  0.05997500  0.83447400  0.39102600  1
  Mg  Mg31  1  0.59777000  0.01468600  0.37759700  1
  Mg  Mg32  1  0.11513800  0.21688600  0.36424400  1
  Mg  Mg33  1  0.23558000  0.60590900  0.34088500  1
  Mg  Mg34  1  0.75294800  0.80810900  0.32753100  1
  Mg  Mg35  1  0.29074400  0.98832100  0.31410300  1
  Mg  Mg36  1  0.82853900  0.16853200  0.30067400  1
  Mg  Mg37  1  0.34590700  0.37073200  0.28732000  1
  Mg  Mg38  1  0.46635000  0.75975500  0.26396200  1
  Mg  Mg39  1  0.98371700  0.96195600  0.25060800  1
  Mg  Mg40  1  0.52151300  0.14216700  0.23717900  1
  Mg  Mg41  1  0.05930900  0.32237800  0.22375100  1
  Mg  Mg42  1  0.57667600  0.52457900  0.21039700  1
