# generated using pymatgen
data_Mg8Ga3
_symmetry_space_group_name_H-M   'P 1'
_cell_length_a   6.11035770
_cell_length_b   8.32987912
_cell_length_c   49.12638700
_cell_angle_alpha   87.82435891
_cell_angle_beta   86.43446658
_cell_angle_gamma   68.48323149
_symmetry_Int_Tables_number   1
_chemical_formula_structural   Mg8Ga3
_chemical_formula_sum   'Mg48 Ga18'
_cell_volume   2321.39293914
_cell_formula_units_Z   6
loop_
 _symmetry_equiv_pos_site_id
 _symmetry_equiv_pos_as_xyz
  1  'x, y, z'
loop_
 _atom_site_type_symbol
 _atom_site_label
 _atom_site_symmetry_multiplicity
 _atom_site_fract_x
 _atom_site_fract_y
 _atom_site_fract_z
 _atom_site_occupancy
  Mg  Mg0  1  0.60169100  0.99899800  0.79762100  1
  Mg  Mg1  1  0.55538200  0.15114200  0.73809300  1
  Mg  Mg2  1  0.97766800  0.26771400  0.77695000  1
  Mg  Mg3  1  0.17940500  0.88242600  0.75876400  1
  Mg  Mg4  1  0.45353600  0.88757000  0.70535700  1
  Mg  Mg5  1  0.95353600  0.88757000  0.70535700  1
  Mg  Mg6  1  0.62955200  0.50620200  0.73469300  1
  Mg  Mg7  1  0.02752100  0.64393800  0.80102100  1
  Mg  Mg8  1  0.52752100  0.64393800  0.80102100  1
  Mg  Mg9  1  0.12955200  0.50620200  0.73469300  1
  Mg  Mg10  1  0.85169100  0.62399800  0.67262100  1
  Mg  Mg11  1  0.80538200  0.77614200  0.61309300  1
  Mg  Mg12  1  0.22766800  0.89271400  0.65195000  1
  Mg  Mg13  1  0.42940500  0.50742600  0.63376400  1
  Mg  Mg14  1  0.70353600  0.51257000  0.58035700  1
  Mg  Mg15  1  0.20353600  0.51257000  0.58035700  1
  Mg  Mg16  1  0.87955200  0.13120200  0.60969300  1
  Mg  Mg17  1  0.27752100  0.26893800  0.67602100  1
  Mg  Mg18  1  0.77752100  0.26893800  0.67602100  1
  Mg  Mg19  1  0.37955200  0.13120200  0.60969300  1
  Mg  Mg20  1  0.10169100  0.24899800  0.54762100  1
  Mg  Mg21  1  0.05538200  0.40114200  0.48809300  1
  Mg  Mg22  1  0.47766800  0.51771400  0.52695000  1
  Mg  Mg23  1  0.67940500  0.13242600  0.50876400  1
  Mg  Mg24  1  0.95353600  0.13757000  0.45535700  1
  Mg  Mg25  1  0.45353600  0.13757000  0.45535700  1
  Mg  Mg26  1  0.12955200  0.75620200  0.48469300  1
  Mg  Mg27  1  0.52752100  0.89393800  0.55102100  1
  Mg  Mg28  1  0.02752100  0.89393800  0.55102100  1
  Mg  Mg29  1  0.62955200  0.75620200  0.48469300  1
  Mg  Mg30  1  0.35169100  0.87399800  0.42262100  1
  Mg  Mg31  1  0.30538200  0.02614200  0.36309300  1
  Mg  Mg32  1  0.72766800  0.14271400  0.40195000  1
  Mg  Mg33  1  0.92940500  0.75742600  0.38376400  1
  Mg  Mg34  1  0.20353600  0.76257000  0.33035700  1
  Mg  Mg35  1  0.70353600  0.76257000  0.33035700  1
  Mg  Mg36  1  0.37955200  0.38120200  0.35969300  1
  Mg  Mg37  1  0.77752100  0.51893800  0.42602100  1
  Mg  Mg38  1  0.27752100  0.51893800  0.42602100  1
  Mg  Mg39  1  0.87955200  0.38120200  0.35969300  1
  Mg  Mg40  1  0.60169100  0.49899800  0.29762100  1
  Mg  Mg41  1  0.55538200  0.65114200  0.23809300  1
  Mg  Mg42  1  0.97766800  0.76771400  0.27695000  1
  Mg  Mg43  1  0.17940500  0.38242600  0.25876400  1
  Mg  Mg44  1  0.62955200  0.00620200  0.23469300  1
  Mg  Mg45  1  0.02752100  0.14393800  0.30102100  1
  Mg  Mg46  1  0.52752100  0.14393800  0.30102100  1
  Mg  Mg47  1  0.12955200  0.00620200  0.23469300  1
  Ga  Ga48  1  0.73048800  0.78593600  0.75308800  1
  Ga  Ga49  1  0.42658500  0.36420400  0.78262600  1
  Ga  Ga50  1  0.04686800  0.18377900  0.72248500  1
  Ga  Ga51  1  0.36020500  0.59136100  0.68823000  1
  Ga  Ga52  1  0.98048800  0.41093600  0.62808800  1
  Ga  Ga53  1  0.67658500  0.98920400  0.65762600  1
  Ga  Ga54  1  0.29686800  0.80877900  0.59748500  1
  Ga  Ga55  1  0.61020500  0.21636100  0.56323000  1
  Ga  Ga56  1  0.23048800  0.03593600  0.50308800  1
  Ga  Ga57  1  0.92658500  0.61420400  0.53262600  1
  Ga  Ga58  1  0.54686800  0.43377900  0.47248500  1
  Ga  Ga59  1  0.86020500  0.84136100  0.43823000  1
  Ga  Ga60  1  0.48048800  0.66093600  0.37808800  1
  Ga  Ga61  1  0.17658500  0.23920400  0.40762600  1
  Ga  Ga62  1  0.79686800  0.05877900  0.34748500  1
  Ga  Ga63  1  0.11020500  0.46636100  0.31323000  1
  Ga  Ga64  1  0.73048800  0.28593600  0.25308800  1
  Ga  Ga65  1  0.42658500  0.86420400  0.28262600  1
