# generated using pymatgen
data_Ac2Mg
_symmetry_space_group_name_H-M   'P 1'
_cell_length_a   7.30057611
_cell_length_b   9.27560843
_cell_length_c   44.03331300
_cell_angle_alpha   91.12457096
_cell_angle_beta   90.27666292
_cell_angle_gamma   112.15081221
_symmetry_Int_Tables_number   1
_chemical_formula_structural   Ac2Mg
_chemical_formula_sum   'Ac28 Mg14'
_cell_volume   2760.96959488
_cell_formula_units_Z   14
loop_
 _symmetry_equiv_pos_site_id
 _symmetry_equiv_pos_as_xyz
  1  'x, y, z'
loop_
 _atom_site_type_symbol
 _atom_site_label
 _atom_site_symmetry_multiplicity
 _atom_site_fract_x
 _atom_site_fract_y
 _atom_site_fract_z
 _atom_site_occupancy
  Ac  Ac0  1  0.58997900  0.41993400  0.28508200  1
  Ac  Ac1  1  0.91002100  0.41339900  0.21491800  1
  Ac  Ac2  1  0.54896800  0.00415200  0.24347400  1
  Ac  Ac3  1  0.95103200  0.82918100  0.25652600  1
  Ac  Ac4  1  0.67331200  0.25326800  0.36841500  1
  Ac  Ac5  1  0.99335500  0.24673200  0.29825100  1
  Ac  Ac6  1  0.63230100  0.83748600  0.32680700  1
  Ac  Ac7  1  0.03436600  0.66251400  0.33985900  1
  Ac  Ac8  1  0.75664500  0.08660100  0.45174900  1
  Ac  Ac9  1  0.07668800  0.08006600  0.38158500  1
  Ac  Ac10  1  0.71563400  0.67081900  0.41014100  1
  Ac  Ac11  1  0.11769900  0.49584800  0.42319300  1
  Ac  Ac12  1  0.83997900  0.91993400  0.53508200  1
  Ac  Ac13  1  0.16002100  0.91339900  0.46491800  1
  Ac  Ac14  1  0.79896800  0.50415200  0.49347400  1
  Ac  Ac15  1  0.20103200  0.32918100  0.50652600  1
  Ac  Ac16  1  0.92331200  0.75326800  0.61841500  1
  Ac  Ac17  1  0.24335500  0.74673200  0.54825100  1
  Ac  Ac18  1  0.88230100  0.33748600  0.57680700  1
  Ac  Ac19  1  0.28436600  0.16251400  0.58985900  1
  Ac  Ac20  1  0.00664500  0.58660100  0.70174900  1
  Ac  Ac21  1  0.32668800  0.58006600  0.63158500  1
  Ac  Ac22  1  0.96563400  0.17081900  0.66014100  1
  Ac  Ac23  1  0.36769900  0.99584800  0.67319300  1
  Ac  Ac24  1  0.08997900  0.41993400  0.78508200  1
  Ac  Ac25  1  0.41002100  0.41339900  0.71491800  1
  Ac  Ac26  1  0.04896800  0.00415200  0.74347400  1
  Ac  Ac27  1  0.45103200  0.82918100  0.75652600  1
  Mg  Mg28  1  0.27148700  0.62520000  0.27082000  1
  Mg  Mg29  1  0.22851300  0.20813300  0.22918000  1
  Mg  Mg30  1  0.35482000  0.45853300  0.35415300  1
  Mg  Mg31  1  0.31184600  0.04146700  0.31251300  1
  Mg  Mg32  1  0.43815400  0.29186700  0.43748700  1
  Mg  Mg33  1  0.39518000  0.87480000  0.39584700  1
  Mg  Mg34  1  0.52148700  0.12520000  0.52082000  1
  Mg  Mg35  1  0.47851300  0.70813300  0.47918000  1
  Mg  Mg36  1  0.60482000  0.95853300  0.60415300  1
  Mg  Mg37  1  0.56184600  0.54146700  0.56251300  1
  Mg  Mg38  1  0.68815400  0.79186700  0.68748700  1
  Mg  Mg39  1  0.64518000  0.37480000  0.64584700  1
  Mg  Mg40  1  0.77148700  0.62520000  0.77082000  1
  Mg  Mg41  1  0.72851300  0.20813300  0.72918000  1
