# generated using pymatgen
data_Mg35Sb22
_symmetry_space_group_name_H-M   'P 1'
_cell_length_a   7.97951195
_cell_length_b   8.59897531
_cell_length_c   41.95520800
_cell_angle_alpha   90.10873509
_cell_angle_beta   95.45681876
_cell_angle_gamma   62.35574749
_symmetry_Int_Tables_number   1
_chemical_formula_structural   Mg35Sb22
_chemical_formula_sum   'Mg35 Sb22'
_cell_volume   2535.68799419
_cell_formula_units_Z   1
loop_
 _symmetry_equiv_pos_site_id
 _symmetry_equiv_pos_as_xyz
  1  'x, y, z'
loop_
 _atom_site_type_symbol
 _atom_site_label
 _atom_site_symmetry_multiplicity
 _atom_site_fract_x
 _atom_site_fract_y
 _atom_site_fract_z
 _atom_site_occupancy
  Mg  Mg0  1  0.70372900  0.92593200  0.22105300  1
  Mg  Mg1  1  0.63683700  0.35974500  0.18774700  1
  Mg  Mg2  1  0.19167400  0.59738300  0.20172600  1
  Mg  Mg3  1  0.28267700  0.82066900  0.27368400  1
  Mg  Mg4  1  0.21578500  0.25448100  0.24037900  1
  Mg  Mg5  1  0.77062100  0.49212000  0.25435800  1
  Mg  Mg6  1  0.86162400  0.71540600  0.32631600  1
  Mg  Mg7  1  0.79473200  0.14921800  0.29301100  1
  Mg  Mg8  1  0.34956900  0.38685700  0.30698900  1
  Mg  Mg9  1  0.44057100  0.61014300  0.37894700  1
  Mg  Mg10  1  0.37367900  0.04395500  0.34564200  1
  Mg  Mg11  1  0.92851600  0.28159400  0.35962100  1
  Mg  Mg12  1  0.01951900  0.50488000  0.43157900  1
  Mg  Mg13  1  0.95262700  0.93869200  0.39827400  1
  Mg  Mg14  1  0.50746300  0.17633100  0.41225300  1
  Mg  Mg15  1  0.59846600  0.39961700  0.48421100  1
  Mg  Mg16  1  0.53157400  0.83342900  0.45090500  1
  Mg  Mg17  1  0.08641100  0.07106700  0.46488400  1
  Mg  Mg18  1  0.17741300  0.29435300  0.53684200  1
  Mg  Mg19  1  0.11052100  0.72816600  0.50353700  1
  Mg  Mg20  1  0.66535800  0.96580400  0.51751600  1
  Mg  Mg21  1  0.75636100  0.18909000  0.58947400  1
  Mg  Mg22  1  0.68946900  0.62290200  0.55616900  1
  Mg  Mg23  1  0.24430500  0.86054100  0.57014700  1
  Mg  Mg24  1  0.33530800  0.08382700  0.64210500  1
  Mg  Mg25  1  0.26841600  0.51763900  0.60880000  1
  Mg  Mg26  1  0.82325300  0.75527800  0.62277900  1
  Mg  Mg27  1  0.91425600  0.97856400  0.69473700  1
  Mg  Mg28  1  0.84736300  0.41237600  0.66143200  1
  Mg  Mg29  1  0.40220000  0.65001500  0.67541000  1
  Mg  Mg30  1  0.49320300  0.87330100  0.74736800  1
  Mg  Mg31  1  0.42631100  0.30711300  0.71406300  1
  Mg  Mg32  1  0.98114800  0.54475200  0.72804200  1
  Mg  Mg33  1  0.00525800  0.20185000  0.76669500  1
  Mg  Mg34  1  0.56009500  0.43948800  0.78067400  1
  Sb  Sb35  1  0.46534800  0.72415900  0.20918400  1
  Sb  Sb36  1  0.94211000  0.12770600  0.23292200  1
  Sb  Sb37  1  0.04429600  0.61889500  0.26181500  1
  Sb  Sb38  1  0.52105800  0.02244300  0.28555300  1
  Sb  Sb39  1  0.62324300  0.51363200  0.31444700  1
  Sb  Sb40  1  0.10000500  0.91718000  0.33818500  1
  Sb  Sb41  1  0.20219000  0.40836900  0.36707800  1
  Sb  Sb42  1  0.67895200  0.81191700  0.39081600  1
  Sb  Sb43  1  0.78113800  0.30310600  0.41971000  1
  Sb  Sb44  1  0.25790000  0.70665300  0.44344800  1
  Sb  Sb45  1  0.36008500  0.19784300  0.47234100  1
  Sb  Sb46  1  0.83684700  0.60139000  0.49608000  1
  Sb  Sb47  1  0.93903200  0.09258000  0.52497300  1
  Sb  Sb48  1  0.41579400  0.49612700  0.54871100  1
  Sb  Sb49  1  0.51798000  0.98731600  0.57760500  1
  Sb  Sb50  1  0.99474200  0.39086400  0.60134300  1
  Sb  Sb51  1  0.09692700  0.88205300  0.63023600  1
  Sb  Sb52  1  0.57368900  0.28560100  0.65397400  1
  Sb  Sb53  1  0.67587500  0.77679000  0.68286800  1
  Sb  Sb54  1  0.15263700  0.18033800  0.70660600  1
  Sb  Sb55  1  0.25482200  0.67152700  0.73549900  1
  Sb  Sb56  1  0.73158400  0.07507500  0.75923700  1
