# generated using pymatgen
data_Mg3Hg
_symmetry_space_group_name_H-M   'P 1'
_cell_length_a   6.29546068
_cell_length_b   8.04033709
_cell_length_c   44.48279200
_cell_angle_alpha   87.34489136
_cell_angle_beta   94.05780633
_cell_angle_gamma   66.95260759
_symmetry_Int_Tables_number   1
_chemical_formula_structural   Mg3Hg
_chemical_formula_sum   'Mg42 Hg14'
_cell_volume   2059.96631706
_cell_formula_units_Z   14
loop_
 _symmetry_equiv_pos_site_id
 _symmetry_equiv_pos_as_xyz
  1  'x, y, z'
loop_
 _atom_site_type_symbol
 _atom_site_label
 _atom_site_symmetry_multiplicity
 _atom_site_fract_x
 _atom_site_fract_y
 _atom_site_fract_z
 _atom_site_occupancy
  Mg  Mg0  1  0.15407300  0.69912200  0.21560200  1
  Mg  Mg1  1  0.56588200  0.41085600  0.25678300  1
  Mg  Mg2  1  0.07171100  0.41085600  0.25678300  1
  Mg  Mg3  1  0.76162200  0.00581100  0.24321700  1
  Mg  Mg4  1  0.26745100  0.00581100  0.24321700  1
  Mg  Mg5  1  0.67926000  0.71754500  0.28439800  1
  Mg  Mg6  1  0.98740600  0.11578900  0.29893500  1
  Mg  Mg7  1  0.39921600  0.82752200  0.34011600  1
  Mg  Mg8  1  0.90504500  0.82752200  0.34011600  1
  Mg  Mg9  1  0.59495500  0.42247800  0.32655100  1
  Mg  Mg10  1  0.10078400  0.42247800  0.32655100  1
  Mg  Mg11  1  0.51259400  0.13421100  0.36773200  1
  Mg  Mg12  1  0.82074000  0.53245500  0.38226800  1
  Mg  Mg13  1  0.23254900  0.24418900  0.42344900  1
  Mg  Mg14  1  0.73837800  0.24418900  0.42344900  1
  Mg  Mg15  1  0.42828900  0.83914400  0.40988400  1
  Mg  Mg16  1  0.93411800  0.83914400  0.40988400  1
  Mg  Mg17  1  0.34592700  0.55087800  0.45106500  1
  Mg  Mg18  1  0.65407300  0.94912200  0.46560200  1
  Mg  Mg19  1  0.06588200  0.66085600  0.50678300  1
  Mg  Mg20  1  0.57171100  0.66085600  0.50678300  1
  Mg  Mg21  1  0.26162200  0.25581100  0.49321700  1
  Mg  Mg22  1  0.76745100  0.25581100  0.49321700  1
  Mg  Mg23  1  0.17926000  0.96754500  0.53439800  1
  Mg  Mg24  1  0.48740600  0.36578900  0.54893500  1
  Mg  Mg25  1  0.89921600  0.07752200  0.59011600  1
  Mg  Mg26  1  0.40504500  0.07752200  0.59011600  1
  Mg  Mg27  1  0.09495500  0.67247800  0.57655100  1
  Mg  Mg28  1  0.60078400  0.67247800  0.57655100  1
  Mg  Mg29  1  0.01259400  0.38421100  0.61773200  1
  Mg  Mg30  1  0.32074000  0.78245500  0.63226800  1
  Mg  Mg31  1  0.73254900  0.49418900  0.67344900  1
  Mg  Mg32  1  0.23837800  0.49418900  0.67344900  1
  Mg  Mg33  1  0.92828900  0.08914400  0.65988400  1
  Mg  Mg34  1  0.43411800  0.08914400  0.65988400  1
  Mg  Mg35  1  0.84592700  0.80087800  0.70106500  1
  Mg  Mg36  1  0.15407300  0.19912200  0.71560200  1
  Mg  Mg37  1  0.56588200  0.91085600  0.75678300  1
  Mg  Mg38  1  0.07171100  0.91085600  0.75678300  1
  Mg  Mg39  1  0.76162200  0.50581100  0.74321700  1
  Mg  Mg40  1  0.26745100  0.50581100  0.74321700  1
  Mg  Mg41  1  0.67926000  0.21754500  0.78439800  1
  Hg  Hg42  1  0.65277800  0.70138900  0.21527800  1
  Hg  Hg43  1  0.18055600  0.71527800  0.28472200  1
  Hg  Hg44  1  0.48611100  0.11805600  0.29861100  1
  Hg  Hg45  1  0.01388900  0.13194400  0.36805600  1
  Hg  Hg46  1  0.31944400  0.53472200  0.38194400  1
  Hg  Hg47  1  0.84722200  0.54861100  0.45138900  1
  Hg  Hg48  1  0.15277800  0.95138900  0.46527800  1
  Hg  Hg49  1  0.68055600  0.96527800  0.53472200  1
  Hg  Hg50  1  0.98611100  0.36805600  0.54861100  1
  Hg  Hg51  1  0.51388900  0.38194400  0.61805600  1
  Hg  Hg52  1  0.81944400  0.78472200  0.63194400  1
  Hg  Hg53  1  0.34722200  0.79861100  0.70138900  1
  Hg  Hg54  1  0.65277800  0.20138900  0.71527800  1
  Hg  Hg55  1  0.18055600  0.21527800  0.78472200  1
