# generated using pymatgen
data_Mg2Zn9
_symmetry_space_group_name_H-M   'P 1'
_cell_length_a   4.98183600
_cell_length_b   16.81026703
_cell_length_c   46.91195600
_cell_angle_alpha   88.98550742
_cell_angle_beta   90.00000000
_cell_angle_gamma   90.00000000
_symmetry_Int_Tables_number   1
_chemical_formula_structural   Mg2Zn9
_chemical_formula_sum   'Mg24 Zn108'
_cell_volume   3928.07253363
_cell_formula_units_Z   12
loop_
 _symmetry_equiv_pos_site_id
 _symmetry_equiv_pos_as_xyz
  1  'x, y, z'
loop_
 _atom_site_type_symbol
 _atom_site_label
 _atom_site_symmetry_multiplicity
 _atom_site_fract_x
 _atom_site_fract_y
 _atom_site_fract_z
 _atom_site_occupancy
  Mg  Mg0  1  0.50000000  0.78023700  0.34419200  1
  Mg  Mg1  1  0.00000000  0.71976300  0.30580800  1
  Mg  Mg2  1  0.50000000  0.97132800  0.34157200  1
  Mg  Mg3  1  1.00000000  0.52867200  0.30842800  1
  Mg  Mg4  1  0.00000000  0.28023700  0.24419200  1
  Mg  Mg5  1  0.50000000  0.21976300  0.20580800  1
  Mg  Mg6  1  0.00000000  0.47132800  0.24157200  1
  Mg  Mg7  1  0.50000000  0.02867200  0.20842800  1
  Mg  Mg8  1  0.50000000  0.78023700  0.54419200  1
  Mg  Mg9  1  0.00000000  0.71976300  0.50580800  1
  Mg  Mg10  1  0.50000000  0.97132800  0.54157200  1
  Mg  Mg11  1  1.00000000  0.52867200  0.50842800  1
  Mg  Mg12  1  0.00000000  0.28023700  0.44419200  1
  Mg  Mg13  1  0.50000000  0.21976300  0.40580800  1
  Mg  Mg14  1  0.00000000  0.47132800  0.44157200  1
  Mg  Mg15  1  0.50000000  0.02867200  0.40842800  1
  Mg  Mg16  1  0.50000000  0.78023700  0.74419200  1
  Mg  Mg17  1  0.00000000  0.71976300  0.70580800  1
  Mg  Mg18  1  0.50000000  0.97132800  0.74157200  1
  Mg  Mg19  1  1.00000000  0.52867200  0.70842800  1
  Mg  Mg20  1  0.00000000  0.28023700  0.64419200  1
  Mg  Mg21  1  0.50000000  0.21976300  0.60580800  1
  Mg  Mg22  1  0.00000000  0.47132800  0.64157200  1
  Mg  Mg23  1  0.50000000  0.02867200  0.60842800  1
  Zn  Zn24  1  0.50000000  0.00000000  0.27500000  1
  Zn  Zn25  1  0.50000000  0.53325400  0.20572700  1
  Zn  Zn26  1  0.50000000  0.70987800  0.20633900  1
  Zn  Zn27  1  0.50000000  0.62722100  0.30637100  1
  Zn  Zn28  1  0.00000000  0.87277900  0.34362900  1
  Zn  Zn29  1  0.74734900  0.87180400  0.39570300  1
  Zn  Zn30  1  0.75285600  0.87615900  0.29523000  1
  Zn  Zn31  1  0.00000000  0.96674600  0.24427300  1
  Zn  Zn32  1  0.00000000  0.74769600  0.37715600  1
  Zn  Zn33  1  0.25285600  0.62384100  0.35477000  1
  Zn  Zn34  1  0.24714400  0.87615900  0.29523000  1
  Zn  Zn35  1  0.74714400  0.62384100  0.35477000  1
  Zn  Zn36  1  0.24734900  0.62819600  0.25429700  1
  Zn  Zn37  1  0.00000000  0.79012200  0.24366100  1
  Zn  Zn38  1  0.25265100  0.87180400  0.39570300  1
  Zn  Zn39  1  0.75265100  0.62819600  0.25429700  1
  Zn  Zn40  1  0.00000000  0.00000000  0.37500000  1
  Zn  Zn41  1  0.50000000  0.88039100  0.24306500  1
  Zn  Zn42  1  0.00000000  0.61960900  0.20693500  1
  Zn  Zn43  1  0.50000000  0.75230400  0.27284400  1
  Zn  Zn44  1  0.00000000  0.50000000  0.37500000  1
  Zn  Zn45  1  0.00000000  0.03325400  0.30572700  1
  Zn  Zn46  1  0.00000000  0.20987800  0.30633900  1
  Zn  Zn47  1  0.00000000  0.12722100  0.20637100  1
  Zn  Zn48  1  0.50000000  0.37277900  0.24362900  1
  Zn  Zn49  1  0.24734900  0.37180400  0.29570300  1
  Zn  Zn50  1  0.25285600  0.37615900  0.39523000  1
  Zn  Zn51  1  0.50000000  0.46674600  0.34427300  1
  Zn  Zn52  1  0.50000000  0.24769600  0.27715600  1
  Zn  Zn53  1  0.75285600  0.12384100  0.25477000  1
  Zn  Zn54  1  0.74714400  0.37615900  0.39523000  1
  Zn  Zn55  1  0.24714400  0.12384100  0.25477000  1
  Zn  Zn56  1  0.74734900  0.12819600  0.35429700  1
  Zn  Zn57  1  0.50000000  0.29012200  0.34366100  1
  Zn  Zn58  1  0.75265100  0.37180400  0.29570300  1
  Zn  Zn59  1  0.25265100  0.12819600  0.35429700  1
  Zn  Zn60  1  0.50000000  0.50000000  0.27500000  1
  Zn  Zn61  1  0.00000000  0.38039100  0.34306500  1
  Zn  Zn62  1  0.50000000  0.11960900  0.30693500  1
  Zn  Zn63  1  0.00000000  0.25230400  0.37284400  1
  Zn  Zn64  1  0.50000000  0.00000000  0.47500000  1
  Zn  Zn65  1  0.50000000  0.53325400  0.40572700  1
  Zn  Zn66  1  0.50000000  0.70987800  0.40633900  1
  Zn  Zn67  1  0.50000000  0.62722100  0.50637100  1
  Zn  Zn68  1  0.00000000  0.87277900  0.54362900  1
  Zn  Zn69  1  0.74734900  0.87180400  0.59570300  1
  Zn  Zn70  1  0.75285600  0.87615900  0.49523000  1
  Zn  Zn71  1  0.00000000  0.96674600  0.44427300  1
  Zn  Zn72  1  0.00000000  0.74769600  0.57715600  1
  Zn  Zn73  1  0.25285600  0.62384100  0.55477000  1
  Zn  Zn74  1  0.24714400  0.87615900  0.49523000  1
  Zn  Zn75  1  0.74714400  0.62384100  0.55477000  1
  Zn  Zn76  1  0.24734900  0.62819600  0.45429700  1
  Zn  Zn77  1  0.00000000  0.79012200  0.44366100  1
  Zn  Zn78  1  0.25265100  0.87180400  0.59570300  1
  Zn  Zn79  1  0.75265100  0.62819600  0.45429700  1
  Zn  Zn80  1  0.00000000  0.00000000  0.57500000  1
  Zn  Zn81  1  0.50000000  0.88039100  0.44306500  1
  Zn  Zn82  1  0.00000000  0.61960900  0.40693500  1
  Zn  Zn83  1  0.50000000  0.75230400  0.47284400  1
  Zn  Zn84  1  0.00000000  0.50000000  0.57500000  1
  Zn  Zn85  1  0.00000000  0.03325400  0.50572700  1
  Zn  Zn86  1  0.00000000  0.20987800  0.50633900  1
  Zn  Zn87  1  0.00000000  0.12722100  0.40637100  1
  Zn  Zn88  1  0.50000000  0.37277900  0.44362900  1
  Zn  Zn89  1  0.24734900  0.37180400  0.49570300  1
  Zn  Zn90  1  0.25285600  0.37615900  0.59523000  1
  Zn  Zn91  1  0.50000000  0.46674600  0.54427300  1
  Zn  Zn92  1  0.50000000  0.24769600  0.47715600  1
  Zn  Zn93  1  0.75285600  0.12384100  0.45477000  1
  Zn  Zn94  1  0.74714400  0.37615900  0.59523000  1
  Zn  Zn95  1  0.24714400  0.12384100  0.45477000  1
  Zn  Zn96  1  0.74734900  0.12819600  0.55429700  1
  Zn  Zn97  1  0.50000000  0.29012200  0.54366100  1
  Zn  Zn98  1  0.75265100  0.37180400  0.49570300  1
  Zn  Zn99  1  0.25265100  0.12819600  0.55429700  1
  Zn  Zn100  1  0.50000000  0.50000000  0.47500000  1
  Zn  Zn101  1  0.00000000  0.38039100  0.54306500  1
  Zn  Zn102  1  0.50000000  0.11960900  0.50693500  1
  Zn  Zn103  1  0.00000000  0.25230400  0.57284400  1
  Zn  Zn104  1  0.50000000  0.00000000  0.67500000  1
  Zn  Zn105  1  0.50000000  0.53325400  0.60572700  1
  Zn  Zn106  1  0.50000000  0.70987800  0.60633900  1
  Zn  Zn107  1  0.50000000  0.62722100  0.70637100  1
  Zn  Zn108  1  0.00000000  0.87277900  0.74362900  1
  Zn  Zn109  1  0.75285600  0.87615900  0.69523000  1
  Zn  Zn110  1  0.00000000  0.96674600  0.64427300  1
  Zn  Zn111  1  0.24714400  0.87615900  0.69523000  1
  Zn  Zn112  1  0.24734900  0.62819600  0.65429700  1
  Zn  Zn113  1  0.00000000  0.79012200  0.64366100  1
  Zn  Zn114  1  0.75265100  0.62819600  0.65429700  1
  Zn  Zn115  1  0.50000000  0.88039100  0.64306500  1
  Zn  Zn116  1  0.00000000  0.61960900  0.60693500  1
  Zn  Zn117  1  0.50000000  0.75230400  0.67284400  1
  Zn  Zn118  1  0.00000000  0.03325400  0.70572700  1
  Zn  Zn119  1  0.00000000  0.20987800  0.70633900  1
  Zn  Zn120  1  0.00000000  0.12722100  0.60637100  1
  Zn  Zn121  1  0.50000000  0.37277900  0.64362900  1
  Zn  Zn122  1  0.24734900  0.37180400  0.69570300  1
  Zn  Zn123  1  0.50000000  0.46674600  0.74427300  1
  Zn  Zn124  1  0.50000000  0.24769600  0.67715600  1
  Zn  Zn125  1  0.75285600  0.12384100  0.65477000  1
  Zn  Zn126  1  0.24714400  0.12384100  0.65477000  1
  Zn  Zn127  1  0.50000000  0.29012200  0.74366100  1
  Zn  Zn128  1  0.75265100  0.37180400  0.69570300  1
  Zn  Zn129  1  0.50000000  0.50000000  0.67500000  1
  Zn  Zn130  1  0.00000000  0.38039100  0.74306500  1
  Zn  Zn131  1  0.50000000  0.11960900  0.70693500  1
