# generated using pymatgen
data_Pr2Mg
_symmetry_space_group_name_H-M   'P 1'
_cell_length_a   3.86864600
_cell_length_b   8.96230643
_cell_length_c   45.82473300
_cell_angle_alpha   90.00000000
_cell_angle_beta   90.00000000
_cell_angle_gamma   102.46415019
_symmetry_Int_Tables_number   1
_chemical_formula_structural   Pr2Mg
_chemical_formula_sum   'Pr20 Mg10'
_cell_volume   1551.38786561
_cell_formula_units_Z   10
loop_
 _symmetry_equiv_pos_site_id
 _symmetry_equiv_pos_as_xyz
  1  'x, y, z'
loop_
 _atom_site_type_symbol
 _atom_site_label
 _atom_site_symmetry_multiplicity
 _atom_site_fract_x
 _atom_site_fract_y
 _atom_site_fract_z
 _atom_site_occupancy
  Pr  Pr0  1  0.91394200  0.82788400  0.21875000  1
  Pr  Pr1  1  0.23404300  0.46808600  0.21875000  1
  Pr  Pr2  1  0.08605800  0.17211600  0.28125000  1
  Pr  Pr3  1  0.76595700  0.53191400  0.28125000  1
  Pr  Pr4  1  0.91394200  0.82788400  0.34375000  1
  Pr  Pr5  1  0.23404300  0.46808600  0.34375000  1
  Pr  Pr6  1  0.08605800  0.17211600  0.40625000  1
  Pr  Pr7  1  0.76595700  0.53191400  0.40625000  1
  Pr  Pr8  1  0.91394200  0.82788400  0.46875000  1
  Pr  Pr9  1  0.23404300  0.46808600  0.46875000  1
  Pr  Pr10  1  0.08605800  0.17211600  0.53125000  1
  Pr  Pr11  1  0.76595700  0.53191400  0.53125000  1
  Pr  Pr12  1  0.91394200  0.82788400  0.59375000  1
  Pr  Pr13  1  0.23404300  0.46808600  0.59375000  1
  Pr  Pr14  1  0.08605800  0.17211600  0.65625000  1
  Pr  Pr15  1  0.76595700  0.53191400  0.65625000  1
  Pr  Pr16  1  0.91394200  0.82788400  0.71875000  1
  Pr  Pr17  1  0.23404300  0.46808600  0.71875000  1
  Pr  Pr18  1  0.08605800  0.17211600  0.78125000  1
  Pr  Pr19  1  0.76595700  0.53191400  0.78125000  1
  Mg  Mg20  1  0.57184000  0.14368000  0.21875000  1
  Mg  Mg21  1  0.42816000  0.85632000  0.28125000  1
  Mg  Mg22  1  0.57184000  0.14368000  0.34375000  1
  Mg  Mg23  1  0.42816000  0.85632000  0.40625000  1
  Mg  Mg24  1  0.57184000  0.14368000  0.46875000  1
  Mg  Mg25  1  0.42816000  0.85632000  0.53125000  1
  Mg  Mg26  1  0.57184000  0.14368000  0.59375000  1
  Mg  Mg27  1  0.42816000  0.85632000  0.65625000  1
  Mg  Mg28  1  0.57184000  0.14368000  0.71875000  1
  Mg  Mg29  1  0.42816000  0.85632000  0.78125000  1
