# generated using pymatgen
data_MgZn5
_symmetry_space_group_name_H-M   'P 1'
_cell_length_a   4.98183600
_cell_length_b   24.97062623
_cell_length_c   44.22797300
_cell_angle_alpha   91.77467371
_cell_angle_beta   90.00000000
_cell_angle_gamma   90.00000000
_symmetry_Int_Tables_number   1
_chemical_formula_structural   MgZn5
_chemical_formula_sum   'Mg30 Zn150'
_cell_volume   5499.30156751
_cell_formula_units_Z   30
loop_
 _symmetry_equiv_pos_site_id
 _symmetry_equiv_pos_as_xyz
  1  'x, y, z'
loop_
 _atom_site_type_symbol
 _atom_site_label
 _atom_site_symmetry_multiplicity
 _atom_site_fract_x
 _atom_site_fract_y
 _atom_site_fract_z
 _atom_site_occupancy
  Mg  Mg0  1  0.50000000  0.91445000  0.28122300  1
  Mg  Mg1  1  0.00000000  0.94336800  0.32591900  1
  Mg  Mg2  1  0.50000000  0.00008900  0.22849800  1
  Mg  Mg3  1  1.00000000  0.57201400  0.23578800  1
  Mg  Mg4  1  1.00000000  0.55730700  0.35265200  1
  Mg  Mg5  1  0.50000000  0.30051100  0.25449100  1
  Mg  Mg6  1  0.00000000  0.64294700  0.29992600  1
  Mg  Mg7  1  0.50000000  0.21487100  0.30721700  1
  Mg  Mg8  1  0.50000000  0.20016400  0.42408100  1
  Mg  Mg9  1  1.00000000  0.22908200  0.46877700  1
  Mg  Mg10  1  0.50000000  0.28580400  0.37135500  1
  Mg  Mg11  1  0.00000000  0.85772800  0.37864500  1
  Mg  Mg12  1  0.00000000  0.84302100  0.49550900  1
  Mg  Mg13  1  0.50000000  0.58622500  0.39734800  1
  Mg  Mg14  1  0.00000000  0.92866100  0.44278300  1
  Mg  Mg15  1  0.50000000  0.50058500  0.45007400  1
  Mg  Mg16  1  0.50000000  0.48587800  0.56693800  1
  Mg  Mg17  1  0.00000000  0.51479600  0.61163400  1
  Mg  Mg18  1  0.50000000  0.57151800  0.51421200  1
  Mg  Mg19  1  1.00000000  0.14344300  0.52150200  1
  Mg  Mg20  1  0.00000000  0.12873600  0.63836600  1
  Mg  Mg21  1  0.50000000  0.87193900  0.54020500  1
  Mg  Mg22  1  1.00000000  0.21437500  0.58564100  1
  Mg  Mg23  1  0.50000000  0.78630000  0.59293100  1
  Mg  Mg24  1  0.50000000  0.77159300  0.70979500  1
  Mg  Mg25  1  0.50000000  0.85723200  0.65706900  1
  Mg  Mg26  1  0.00000000  0.42915700  0.66435900  1
  Mg  Mg27  1  0.50000000  0.15765300  0.68306200  1
  Mg  Mg28  1  0.00000000  0.50008900  0.72849800  1
  Mg  Mg29  1  0.50000000  0.07201400  0.73578800  1
  Zn  Zn30  1  0.50000000  0.10748000  0.26785700  1
  Zn  Zn31  1  0.50000000  0.72069300  0.30783700  1
  Zn  Zn32  1  0.50000000  0.79551600  0.25693600  1
  Zn  Zn33  1  0.50000000  0.90290200  0.35195700  1
  Zn  Zn34  1  0.00000000  0.95491600  0.25518500  1
  Zn  Zn35  1  0.25265100  0.88010600  0.21826800  1
  Zn  Zn36  1  0.24714400  0.02550600  0.28879000  1
  Zn  Zn37  1  1.00000000  0.13712400  0.29930600  1
  Zn  Zn38  1  0.00000000  0.85341300  0.26697500  1
  Zn  Zn39  1  0.74714400  0.83231200  0.31835200  1
  Zn  Zn40  1  0.75285600  0.02550600  0.28879000  1
  Zn  Zn41  1  0.25285600  0.83231200  0.31835200  1
  Zn  Zn42  1  0.75265100  0.69199700  0.24601800  1
  Zn  Zn43  1  1.00000000  0.06230200  0.35020700  1
  Zn  Zn44  1  0.74734900  0.88010600  0.21826800  1
  Zn  Zn45  1  0.24734900  0.69199700  0.24601800  1
  Zn  Zn46  1  1.00000000  0.25033700  0.33928600  1
  Zn  Zn47  1  0.50000000  0.10184100  0.32484200  1
  Zn  Zn48  1  0.00000000  0.75597600  0.28230100  1
  Zn  Zn49  1  0.50000000  0.00440500  0.34016800  1
  Zn  Zn50  1  0.00000000  0.75033700  0.33928600  1
  Zn  Zn51  1  1.00000000  0.07783600  0.23640800  1
  Zn  Zn52  1  0.00000000  0.43837300  0.32836400  1
  Zn  Zn53  1  1.00000000  0.26004500  0.28052900  1
  Zn  Zn54  1  0.50000000  0.59777300  0.32661400  1
  Zn  Zn55  1  0.75265100  0.52296300  0.28969600  1
  Zn  Zn56  1  0.74714400  0.38264900  0.21736200  1
  Zn  Zn57  1  0.50000000  0.49426700  0.22787700  1
  Zn  Zn58  1  0.50000000  0.49627000  0.33840400  1
  Zn  Zn59  1  0.24714400  0.18945500  0.24692400  1
  Zn  Zn60  1  0.25285600  0.38264900  0.21736200  1
  Zn  Zn61  1  0.75285600  0.18945500  0.24692400  1
  Zn  Zn62  1  0.25265100  0.33485500  0.31744600  1
  Zn  Zn63  1  0.50000000  0.41944500  0.27877900  1
  Zn  Zn64  1  0.24734900  0.52296300  0.28969600  1
  Zn  Zn65  1  0.74734900  0.33485500  0.31744600  1
  Zn  Zn66  1  0.50000000  0.60748000  0.26785700  1
  Zn  Zn67  1  0.00000000  0.45898400  0.25341300  1
  Zn  Zn68  1  0.50000000  0.39883400  0.35372900  1
  Zn  Zn69  1  1.00000000  0.36154700  0.26873900  1
  Zn  Zn70  1  0.50000000  0.39319500  0.41071400  1
  Zn  Zn71  1  0.50000000  0.00640800  0.45069400  1
  Zn  Zn72  1  0.50000000  0.08123000  0.39979300  1
  Zn  Zn73  1  0.50000000  0.18861600  0.49481500  1
  Zn  Zn74  1  0.00000000  0.24063000  0.39804300  1
  Zn  Zn75  1  0.25265100  0.16582000  0.36112500  1
  Zn  Zn76  1  0.24714400  0.31122000  0.43164800  1
  Zn  Zn77  1  0.00000000  0.42283800  0.44216300  1
  Zn  Zn78  1  0.00000000  0.13912700  0.40983200  1
  Zn  Zn79  1  0.74714400  0.11802600  0.46121000  1
  Zn  Zn80  1  0.75285600  0.31122000  0.43164800  1
  Zn  Zn81  1  0.25285600  0.11802600  0.46121000  1
  Zn  Zn82  1  0.75265100  0.97771200  0.38887500  1
  Zn  Zn83  1  1.00000000  0.34801600  0.49306400  1
  Zn  Zn84  1  0.74734900  0.16582000  0.36112500  1
  Zn  Zn85  1  0.24734900  0.97771200  0.38887500  1
  Zn  Zn86  1  1.00000000  0.53605200  0.48214300  1
  Zn  Zn87  1  0.50000000  0.38755500  0.46769900  1
  Zn  Zn88  1  1.00000000  0.04169100  0.42515800  1
  Zn  Zn89  1  0.50000000  0.29011900  0.48302500  1
  Zn  Zn90  1  0.00000000  0.03605200  0.48214300  1
  Zn  Zn91  1  0.00000000  0.36355100  0.37926500  1
  Zn  Zn92  1  0.00000000  0.72408700  0.47122100  1
  Zn  Zn93  1  1.00000000  0.54575900  0.42338600  1
  Zn  Zn94  1  0.50000000  0.88348700  0.46947100  1
  Zn  Zn95  1  0.75265100  0.80867700  0.43255400  1
  Zn  Zn96  1  0.74714400  0.66836300  0.36021900  1
  Zn  Zn97  1  0.50000000  0.77998100  0.37073500  1
  Zn  Zn98  1  0.50000000  0.78198400  0.48126100  1
  Zn  Zn99  1  0.24714400  0.47516900  0.38978100  1
  Zn  Zn100  1  0.25285600  0.66836300  0.36021900  1
  Zn  Zn101  1  0.75285600  0.47516900  0.38978100  1
  Zn  Zn102  1  0.25265100  0.62056900  0.46030400  1
  Zn  Zn103  1  0.50000000  0.70515900  0.42163600  1
  Zn  Zn104  1  0.24734900  0.80867700  0.43255400  1
  Zn  Zn105  1  0.74734900  0.62056900  0.46030400  1
  Zn  Zn106  1  0.50000000  0.89319500  0.41071400  1
  Zn  Zn107  1  0.00000000  0.74469800  0.39627100  1
  Zn  Zn108  1  0.50000000  0.68454800  0.49658700  1
  Zn  Zn109  1  1.00000000  0.64726200  0.41159600  1
  Zn  Zn110  1  0.50000000  0.67890900  0.55357100  1
  Zn  Zn111  1  0.50000000  0.29212200  0.59355100  1
  Zn  Zn112  1  0.50000000  0.36694400  0.54265000  1
  Zn  Zn113  1  0.50000000  0.47433000  0.63767200  1
  Zn  Zn114  1  1.00000000  0.52634400  0.54090000  1
  Zn  Zn115  1  0.25265100  0.45153400  0.50398200  1
  Zn  Zn116  1  0.24714400  0.59693400  0.57450500  1
  Zn  Zn117  1  0.00000000  0.70855300  0.58502000  1
  Zn  Zn118  1  0.00000000  0.42484200  0.55269000  1
  Zn  Zn119  1  0.74714400  0.40374000  0.60406700  1
  Zn  Zn120  1  0.75285600  0.59693400  0.57450500  1
  Zn  Zn121  1  0.25285600  0.40374000  0.60406700  1
  Zn  Zn122  1  0.75265100  0.26342600  0.53173200  1
  Zn  Zn123  1  1.00000000  0.63373000  0.63592100  1
  Zn  Zn124  1  0.74734900  0.45153400  0.50398200  1
  Zn  Zn125  1  0.24734900  0.26342600  0.53173200  1
  Zn  Zn126  1  1.00000000  0.82176600  0.62500000  1
  Zn  Zn127  1  0.50000000  0.67327000  0.61055600  1
  Zn  Zn128  1  1.00000000  0.32740500  0.56801500  1
  Zn  Zn129  1  0.50000000  0.57583300  0.62588200  1
  Zn  Zn130  1  0.00000000  0.32176600  0.62500000  1
  Zn  Zn131  1  0.00000000  0.64926500  0.52212300  1
  Zn  Zn132  1  1.00000000  0.00980100  0.61407900  1
  Zn  Zn133  1  0.00000000  0.83147300  0.56624300  1
  Zn  Zn134  1  0.50000000  0.16920200  0.61232800  1
  Zn  Zn135  1  0.75265100  0.09439200  0.57541100  1
  Zn  Zn136  1  0.74714400  0.95407700  0.50307600  1
  Zn  Zn137  1  0.50000000  0.06569600  0.51359200  1
  Zn  Zn138  1  0.50000000  0.06769900  0.62411800  1
  Zn  Zn139  1  0.24714400  0.76088300  0.53263800  1
  Zn  Zn140  1  0.25285600  0.95407700  0.50307600  1
  Zn  Zn141  1  0.75285600  0.76088300  0.53263800  1
  Zn  Zn142  1  0.25265100  0.90628300  0.60316100  1
  Zn  Zn143  1  0.50000000  0.99087300  0.56449300  1
  Zn  Zn144  1  0.24734900  0.09439200  0.57541100  1
  Zn  Zn145  1  0.74734900  0.90628300  0.60316100  1
  Zn  Zn146  1  0.50000000  0.17890900  0.55357100  1
  Zn  Zn147  1  0.00000000  0.03041300  0.53912800  1
  Zn  Zn148  1  0.50000000  0.97026200  0.63944400  1
  Zn  Zn149  1  1.00000000  0.93297600  0.55445300  1
  Zn  Zn150  1  0.50000000  0.96462300  0.69642900  1
  Zn  Zn151  1  0.50000000  0.57783600  0.73640800  1
  Zn  Zn152  1  0.50000000  0.65265900  0.68550700  1
  Zn  Zn153  1  0.00000000  0.81205900  0.68375700  1
  Zn  Zn154  1  0.25265100  0.73724900  0.64683900  1
  Zn  Zn155  1  0.24714400  0.88264900  0.71736200  1
  Zn  Zn156  1  0.00000000  0.99426700  0.72787700  1
  Zn  Zn157  1  1.00000000  0.71055600  0.69554700  1
  Zn  Zn158  1  0.74714400  0.68945500  0.74692400  1
  Zn  Zn159  1  0.75285600  0.88264900  0.71736200  1
  Zn  Zn160  1  0.25285600  0.68945500  0.74692400  1
  Zn  Zn161  1  0.75265100  0.54914000  0.67458900  1
  Zn  Zn162  1  0.74734900  0.73724900  0.64683900  1
  Zn  Zn163  1  0.24734900  0.54914000  0.67458900  1
  Zn  Zn164  1  1.00000000  0.61311900  0.71087200  1
  Zn  Zn165  1  0.00000000  0.93497900  0.66498000  1
  Zn  Zn166  1  0.00000000  0.11718800  0.70910000  1
  Zn  Zn167  1  0.75265100  0.38010600  0.71826800  1
  Zn  Zn168  1  0.74714400  0.23979100  0.64593300  1
  Zn  Zn169  1  0.50000000  0.35141000  0.65644900  1
  Zn  Zn170  1  0.24714400  0.04659800  0.67549500  1
  Zn  Zn171  1  0.25285600  0.23979100  0.64593300  1
  Zn  Zn172  1  0.75285600  0.04659800  0.67549500  1
  Zn  Zn173  1  0.25265100  0.19199700  0.74601800  1
  Zn  Zn174  1  0.50000000  0.27658800  0.70735000  1
  Zn  Zn175  1  0.24734900  0.38010600  0.71826800  1
  Zn  Zn176  1  0.74734900  0.19199700  0.74601800  1
  Zn  Zn177  1  0.50000000  0.46462300  0.69642900  1
  Zn  Zn178  1  1.00000000  0.31612700  0.68198500  1
  Zn  Zn179  1  0.00000000  0.21869000  0.69731000  1
