# generated using pymatgen
data_Er2Mg
_symmetry_space_group_name_H-M   'P 1'
_cell_length_a   3.65070000
_cell_length_b   17.86447484
_cell_length_c   41.62564500
_cell_angle_alpha   96.45089822
_cell_angle_beta   90.00000000
_cell_angle_gamma   90.00000000
_symmetry_Int_Tables_number   1
_chemical_formula_structural   Er2Mg
_chemical_formula_sum   'Er40 Mg20'
_cell_volume   2697.54625518
_cell_formula_units_Z   20
loop_
 _symmetry_equiv_pos_site_id
 _symmetry_equiv_pos_as_xyz
  1  'x, y, z'
loop_
 _atom_site_type_symbol
 _atom_site_label
 _atom_site_symmetry_multiplicity
 _atom_site_fract_x
 _atom_site_fract_y
 _atom_site_fract_z
 _atom_site_occupancy
  Er  Er0  1  0.50000000  0.94887100  0.23051800  1
  Er  Er1  1  0.00000000  0.79231600  0.25288300  1
  Er  Er2  1  0.00000000  0.61362900  0.20698200  1
  Er  Er3  1  0.50000000  0.89518400  0.30961700  1
  Er  Er4  1  0.00000000  0.51137100  0.29301800  1
  Er  Er5  1  0.50000000  0.22981600  0.19038300  1
  Er  Er6  1  0.50000000  0.17612900  0.26948200  1
  Er  Er7  1  0.00000000  0.33268400  0.24711700  1
  Er  Er8  1  0.50000000  0.07387100  0.35551800  1
  Er  Er9  1  0.00000000  0.91731600  0.37788300  1
  Er  Er10  1  0.00000000  0.73862900  0.33198200  1
  Er  Er11  1  0.50000000  0.02018400  0.43461700  1
  Er  Er12  1  0.00000000  0.63637100  0.41801800  1
  Er  Er13  1  0.50000000  0.35481600  0.31538300  1
  Er  Er14  1  0.50000000  0.30112900  0.39448200  1
  Er  Er15  1  0.00000000  0.45768400  0.37211700  1
  Er  Er16  1  0.50000000  0.19887100  0.48051800  1
  Er  Er17  1  0.00000000  0.04231600  0.50288300  1
  Er  Er18  1  0.00000000  0.86362900  0.45698200  1
  Er  Er19  1  0.50000000  0.14518400  0.55961700  1
  Er  Er20  1  0.00000000  0.76137100  0.54301800  1
  Er  Er21  1  0.50000000  0.47981600  0.44038300  1
  Er  Er22  1  0.50000000  0.42612900  0.51948200  1
  Er  Er23  1  0.00000000  0.58268400  0.49711700  1
  Er  Er24  1  0.50000000  0.32387100  0.60551800  1
  Er  Er25  1  0.00000000  0.16731600  0.62788300  1
  Er  Er26  1  0.00000000  0.98862900  0.58198200  1
  Er  Er27  1  0.50000000  0.27018400  0.68461700  1
  Er  Er28  1  0.00000000  0.88637100  0.66801800  1
  Er  Er29  1  0.50000000  0.60481600  0.56538300  1
  Er  Er30  1  0.50000000  0.55112900  0.64448200  1
  Er  Er31  1  0.00000000  0.70768400  0.62211700  1
  Er  Er32  1  0.50000000  0.44887100  0.73051800  1
  Er  Er33  1  0.00000000  0.29231600  0.75288300  1
  Er  Er34  1  0.00000000  0.11362900  0.70698200  1
  Er  Er35  1  0.50000000  0.39518400  0.80961700  1
  Er  Er36  1  0.00000000  0.01137100  0.79301800  1
  Er  Er37  1  0.50000000  0.72981600  0.69038300  1
  Er  Er38  1  0.50000000  0.67612900  0.76948200  1
  Er  Er39  1  0.00000000  0.83268400  0.74711700  1
  Mg  Mg40  1  0.50000000  0.65108200  0.27306000  1
  Mg  Mg41  1  0.00000000  0.03641800  0.28944000  1
  Mg  Mg42  1  0.00000000  0.08858200  0.21056000  1
  Mg  Mg43  1  0.50000000  0.47391800  0.22694000  1
  Mg  Mg44  1  0.50000000  0.77608200  0.39806000  1
  Mg  Mg45  1  0.00000000  0.16141800  0.41444000  1
  Mg  Mg46  1  0.00000000  0.21358200  0.33556000  1
  Mg  Mg47  1  0.50000000  0.59891800  0.35194000  1
  Mg  Mg48  1  0.50000000  0.90108200  0.52306000  1
  Mg  Mg49  1  0.00000000  0.28641800  0.53944000  1
  Mg  Mg50  1  0.00000000  0.33858200  0.46056000  1
  Mg  Mg51  1  0.50000000  0.72391800  0.47694000  1
  Mg  Mg52  1  0.50000000  0.02608200  0.64806000  1
  Mg  Mg53  1  0.00000000  0.41141800  0.66444000  1
  Mg  Mg54  1  0.00000000  0.46358200  0.58556000  1
  Mg  Mg55  1  0.50000000  0.84891800  0.60194000  1
  Mg  Mg56  1  0.50000000  0.15108200  0.77306000  1
  Mg  Mg57  1  0.00000000  0.53641800  0.78944000  1
  Mg  Mg58  1  0.00000000  0.58858200  0.71056000  1
  Mg  Mg59  1  0.50000000  0.97391800  0.72694000  1
