# generated using pymatgen
data_Mg2Zn
_symmetry_space_group_name_H-M   'P 1'
_cell_length_a   3.10114600
_cell_length_b   16.29714987
_cell_length_c   46.90763000
_cell_angle_alpha   91.78078140
_cell_angle_beta   90.00000000
_cell_angle_gamma   90.00000000
_symmetry_Int_Tables_number   1
_chemical_formula_structural   Mg2Zn
_chemical_formula_sum   'Mg48 Zn24'
_cell_volume   2369.55921295
_cell_formula_units_Z   24
loop_
 _symmetry_equiv_pos_site_id
 _symmetry_equiv_pos_as_xyz
  1  'x, y, z'
loop_
 _atom_site_type_symbol
 _atom_site_label
 _atom_site_symmetry_multiplicity
 _atom_site_fract_x
 _atom_site_fract_y
 _atom_site_fract_z
 _atom_site_occupancy
  Mg  Mg0  1  0.00000000  0.96272500  0.25969700  1
  Mg  Mg1  1  0.50000000  0.79594600  0.27822800  1
  Mg  Mg2  1  0.00000000  0.80405400  0.22177200  1
  Mg  Mg3  1  0.50000000  0.63727500  0.24030300  1
  Mg  Mg4  1  0.50000000  0.41272500  0.20969700  1
  Mg  Mg5  1  0.00000000  0.24594600  0.22822800  1
  Mg  Mg6  1  0.50000000  0.35405400  0.27177200  1
  Mg  Mg7  1  0.00000000  0.18727500  0.29030300  1
  Mg  Mg8  1  0.00000000  0.06272500  0.35969700  1
  Mg  Mg9  1  0.50000000  0.89594600  0.37822800  1
  Mg  Mg10  1  0.00000000  0.90405400  0.32177200  1
  Mg  Mg11  1  0.50000000  0.73727500  0.34030300  1
  Mg  Mg12  1  0.50000000  0.51272500  0.30969700  1
  Mg  Mg13  1  0.00000000  0.34594600  0.32822800  1
  Mg  Mg14  1  0.50000000  0.45405400  0.37177200  1
  Mg  Mg15  1  1.00000000  0.28727500  0.39030300  1
  Mg  Mg16  1  1.00000000  0.16272500  0.45969700  1
  Mg  Mg17  1  0.50000000  0.99594600  0.47822800  1
  Mg  Mg18  1  0.00000000  0.00405400  0.42177200  1
  Mg  Mg19  1  0.50000000  0.83727500  0.44030300  1
  Mg  Mg20  1  0.50000000  0.61272500  0.40969700  1
  Mg  Mg21  1  0.00000000  0.44594600  0.42822800  1
  Mg  Mg22  1  0.50000000  0.55405400  0.47177200  1
  Mg  Mg23  1  0.00000000  0.38727500  0.49030300  1
  Mg  Mg24  1  0.00000000  0.26272500  0.55969700  1
  Mg  Mg25  1  0.50000000  0.09594600  0.57822800  1
  Mg  Mg26  1  0.00000000  0.10405400  0.52177200  1
  Mg  Mg27  1  0.50000000  0.93727500  0.54030300  1
  Mg  Mg28  1  0.50000000  0.71272500  0.50969700  1
  Mg  Mg29  1  1.00000000  0.54594600  0.52822800  1
  Mg  Mg30  1  0.50000000  0.65405400  0.57177200  1
  Mg  Mg31  1  0.00000000  0.48727500  0.59030300  1
  Mg  Mg32  1  0.00000000  0.36272500  0.65969700  1
  Mg  Mg33  1  0.50000000  0.19594600  0.67822800  1
  Mg  Mg34  1  0.00000000  0.20405400  0.62177200  1
  Mg  Mg35  1  0.50000000  0.03727500  0.64030300  1
  Mg  Mg36  1  0.50000000  0.81272500  0.60969700  1
  Mg  Mg37  1  0.00000000  0.64594600  0.62822800  1
  Mg  Mg38  1  0.50000000  0.75405400  0.67177200  1
  Mg  Mg39  1  0.00000000  0.58727500  0.69030300  1
  Mg  Mg40  1  0.00000000  0.46272500  0.75969700  1
  Mg  Mg41  1  0.50000000  0.29594600  0.77822800  1
  Mg  Mg42  1  0.00000000  0.30405400  0.72177200  1
  Mg  Mg43  1  0.50000000  0.13727500  0.74030300  1
  Mg  Mg44  1  0.50000000  0.91272500  0.70969700  1
  Mg  Mg45  1  0.00000000  0.74594600  0.72822800  1
  Mg  Mg46  1  0.50000000  0.85405400  0.77177200  1
  Mg  Mg47  1  1.00000000  0.68727500  0.79030300  1
  Zn  Zn48  1  0.00000000  0.65182000  0.29424200  1
  Zn  Zn49  1  0.50000000  0.94818000  0.20575800  1
  Zn  Zn50  1  0.50000000  0.10182000  0.24424200  1
  Zn  Zn51  1  0.00000000  0.49818000  0.25575800  1
  Zn  Zn52  1  0.00000000  0.75182000  0.39424200  1
  Zn  Zn53  1  0.50000000  0.04818000  0.30575800  1
  Zn  Zn54  1  0.50000000  0.20182000  0.34424200  1
  Zn  Zn55  1  0.00000000  0.59818000  0.35575800  1
  Zn  Zn56  1  0.00000000  0.85182000  0.49424200  1
  Zn  Zn57  1  0.50000000  0.14818000  0.40575800  1
  Zn  Zn58  1  0.50000000  0.30182000  0.44424200  1
  Zn  Zn59  1  0.00000000  0.69818000  0.45575800  1
  Zn  Zn60  1  0.00000000  0.95182000  0.59424200  1
  Zn  Zn61  1  0.50000000  0.24818000  0.50575800  1
  Zn  Zn62  1  0.50000000  0.40182000  0.54424200  1
  Zn  Zn63  1  0.00000000  0.79818000  0.55575800  1
  Zn  Zn64  1  0.00000000  0.05182000  0.69424200  1
  Zn  Zn65  1  0.50000000  0.34818000  0.60575800  1
  Zn  Zn66  1  0.50000000  0.50182000  0.64424200  1
  Zn  Zn67  1  0.00000000  0.89818000  0.65575800  1
  Zn  Zn68  1  0.00000000  0.15182000  0.79424200  1
  Zn  Zn69  1  0.50000000  0.44818000  0.70575800  1
  Zn  Zn70  1  0.50000000  0.60182000  0.74424200  1
  Zn  Zn71  1  0.00000000  0.99818000  0.75575800  1
