# generated using pymatgen
data_Dy2Mg
_symmetry_space_group_name_H-M   'P 1'
_cell_length_a   5.47816800
_cell_length_b   8.74776954
_cell_length_c   43.36727000
_cell_angle_alpha   90.82850130
_cell_angle_beta   90.00000000
_cell_angle_gamma   90.00000000
_symmetry_Int_Tables_number   1
_chemical_formula_structural   Dy2Mg
_chemical_formula_sum   'Dy28 Mg14'
_cell_volume   2078.01825148
_cell_formula_units_Z   14
loop_
 _symmetry_equiv_pos_site_id
 _symmetry_equiv_pos_as_xyz
  1  'x, y, z'
loop_
 _atom_site_type_symbol
 _atom_site_label
 _atom_site_symmetry_multiplicity
 _atom_site_fract_x
 _atom_site_fract_y
 _atom_site_fract_z
 _atom_site_occupancy
  Dy  Dy0  1  0.25000000  0.65749100  0.74235500  1
  Dy  Dy1  1  0.25000000  0.27006900  0.76898900  1
  Dy  Dy2  1  0.75000000  0.00917600  0.75764500  1
  Dy  Dy3  1  0.75000000  0.39659700  0.73101100  1
  Dy  Dy4  1  0.25000000  0.74082400  0.65902100  1
  Dy  Dy5  1  0.25000000  0.35340300  0.68565500  1
  Dy  Dy6  1  0.75000000  0.09250900  0.67431200  1
  Dy  Dy7  1  0.75000000  0.47993100  0.64767800  1
  Dy  Dy8  1  0.25000000  0.82415700  0.57568800  1
  Dy  Dy9  1  0.25000000  0.43673600  0.60232200  1
  Dy  Dy10  1  0.75000000  0.17584300  0.59097900  1
  Dy  Dy11  1  0.75000000  0.56326400  0.56434500  1
  Dy  Dy12  1  0.25000000  0.90749100  0.49235500  1
  Dy  Dy13  1  0.25000000  0.52006900  0.51898900  1
  Dy  Dy14  1  0.75000000  0.25917600  0.50764500  1
  Dy  Dy15  1  0.75000000  0.64659700  0.48101100  1
  Dy  Dy16  1  0.25000000  0.99082400  0.40902100  1
  Dy  Dy17  1  0.25000000  0.60340300  0.43565500  1
  Dy  Dy18  1  0.75000000  0.34250900  0.42431200  1
  Dy  Dy19  1  0.75000000  0.72993100  0.39767800  1
  Dy  Dy20  1  0.25000000  0.07415700  0.32568800  1
  Dy  Dy21  1  0.25000000  0.68673600  0.35232200  1
  Dy  Dy22  1  0.75000000  0.42584300  0.34097900  1
  Dy  Dy23  1  0.75000000  0.81326400  0.31434500  1
  Dy  Dy24  1  0.25000000  0.15749100  0.24235500  1
  Dy  Dy25  1  0.25000000  0.77006900  0.26898900  1
  Dy  Dy26  1  0.75000000  0.50917600  0.25764500  1
  Dy  Dy27  1  0.75000000  0.89659700  0.23101100  1
  Mg  Mg28  1  0.25000000  0.00348700  0.71392000  1
  Mg  Mg29  1  0.75000000  0.66318000  0.78608000  1
  Mg  Mg30  1  0.25000000  0.08682000  0.63058600  1
  Mg  Mg31  1  0.75000000  0.74651300  0.70274700  1
  Mg  Mg32  1  0.25000000  0.17015400  0.54725300  1
  Mg  Mg33  1  0.75000000  0.82984600  0.61941400  1
  Mg  Mg34  1  0.25000000  0.25348700  0.46392000  1
  Mg  Mg35  1  0.75000000  0.91318000  0.53608000  1
  Mg  Mg36  1  0.25000000  0.33682000  0.38058600  1
  Mg  Mg37  1  0.75000000  0.99651300  0.45274700  1
  Mg  Mg38  1  0.25000000  0.42015400  0.29725300  1
  Mg  Mg39  1  0.75000000  0.07984600  0.36941400  1
  Mg  Mg40  1  0.25000000  0.50348700  0.21392000  1
  Mg  Mg41  1  0.75000000  0.16318000  0.28608000  1
