# generated using pymatgen
data_Mg8Ga15
_symmetry_space_group_name_H-M   'P 1'
_cell_length_a   4.34920200
_cell_length_b   8.34732573
_cell_length_c   43.30735800
_cell_angle_alpha   88.34823179
_cell_angle_beta   90.00000000
_cell_angle_gamma   74.89939561
_symmetry_Int_Tables_number   1
_chemical_formula_structural   Mg8Ga15
_chemical_formula_sum   'Mg16 Ga30'
_cell_volume   1517.27295674
_cell_formula_units_Z   2
loop_
 _symmetry_equiv_pos_site_id
 _symmetry_equiv_pos_as_xyz
  1  'x, y, z'
loop_
 _atom_site_type_symbol
 _atom_site_label
 _atom_site_symmetry_multiplicity
 _atom_site_fract_x
 _atom_site_fract_y
 _atom_site_fract_z
 _atom_site_occupancy
  Mg  Mg0  1  0.64146200  0.03487700  0.26282100  1
  Mg  Mg1  1  0.83377000  0.65026200  0.22435900  1
  Mg  Mg2  1  0.25684600  0.80410800  0.33974400  1
  Mg  Mg3  1  0.44915400  0.41949200  0.30128200  1
  Mg  Mg4  1  0.87223100  0.57333900  0.41666700  1
  Mg  Mg5  1  0.06453900  0.18872300  0.37820500  1
  Mg  Mg6  1  0.48761600  0.34256900  0.49359000  1
  Mg  Mg7  1  0.67992300  0.95795400  0.45512800  1
  Mg  Mg8  1  0.10300000  0.11180000  0.57051300  1
  Mg  Mg9  1  0.29530800  0.72718500  0.53205100  1
  Mg  Mg10  1  0.71838500  0.88103100  0.64743600  1
  Mg  Mg11  1  0.91069300  0.49641600  0.60897400  1
  Mg  Mg12  1  0.33377000  0.65026200  0.72435900  1
  Mg  Mg13  1  0.52607700  0.26564600  0.68589700  1
  Mg  Mg14  1  0.94915400  0.41949200  0.80128200  1
  Mg  Mg15  1  0.14146200  0.03487700  0.76282100  1
  Ga  Ga16  1  0.98674300  0.34431400  0.26043100  1
  Ga  Ga17  1  0.48848800  0.34082500  0.22674900  1
  Ga  Ga18  1  0.25597400  0.80585300  0.27325100  1
  Ga  Ga19  1  0.60212800  0.11354500  0.33735400  1
  Ga  Ga20  1  0.10387300  0.11005500  0.30367200  1
  Ga  Ga21  1  0.83464200  0.64851700  0.29085100  1
  Ga  Ga22  1  0.87135900  0.57508300  0.35017400  1
  Ga  Ga23  1  0.21751300  0.88277600  0.41427700  1
  Ga  Ga24  1  0.71925700  0.87928600  0.38059500  1
  Ga  Ga25  1  0.45002700  0.41774800  0.36777400  1
  Ga  Ga26  1  0.48674300  0.34431400  0.42709800  1
  Ga  Ga27  1  0.83289700  0.65200600  0.49120000  1
  Ga  Ga28  1  0.33464200  0.64851700  0.45751800  1
  Ga  Ga29  1  0.06541100  0.18697800  0.44469700  1
  Ga  Ga30  1  0.10212800  0.11354500  0.50402100  1
  Ga  Ga31  1  0.44828200  0.42123700  0.56812300  1
  Ga  Ga32  1  0.95002700  0.41774800  0.53444100  1
  Ga  Ga33  1  0.68079600  0.95620900  0.52162000  1
  Ga  Ga34  1  0.71751300  0.88277600  0.58094400  1
  Ga  Ga35  1  0.06366600  0.19046800  0.64504600  1
  Ga  Ga36  1  0.56541100  0.18697800  0.61136400  1
  Ga  Ga37  1  0.29618000  0.72544000  0.59854300  1
  Ga  Ga38  1  0.33289700  0.65200600  0.65786700  1
  Ga  Ga39  1  0.67905100  0.95969900  0.72196900  1
  Ga  Ga40  1  0.18079600  0.95620900  0.68828700  1
  Ga  Ga41  1  0.91156500  0.49467100  0.67546700  1
  Ga  Ga42  1  0.94828200  0.42123700  0.73479000  1
  Ga  Ga43  1  0.29443600  0.72893000  0.79889200  1
  Ga  Ga44  1  0.79618000  0.72544000  0.76521000  1
  Ga  Ga45  1  0.52695000  0.26390200  0.75239000  1
