# generated using pymatgen
data_Ho2Mg
_symmetry_space_group_name_H-M   'P 1'
_cell_length_a   6.57379820
_cell_length_b   17.06996100
_cell_length_c   42.72063800
_cell_angle_alpha   90.00000000
_cell_angle_beta   93.28172515
_cell_angle_gamma   90.00000000
_symmetry_Int_Tables_number   1
_chemical_formula_structural   Ho2Mg
_chemical_formula_sum   'Ho72 Mg36'
_cell_volume   4786.01278227
_cell_formula_units_Z   36
loop_
 _symmetry_equiv_pos_site_id
 _symmetry_equiv_pos_as_xyz
  1  'x, y, z'
loop_
 _atom_site_type_symbol
 _atom_site_label
 _atom_site_symmetry_multiplicity
 _atom_site_fract_x
 _atom_site_fract_y
 _atom_site_fract_z
 _atom_site_occupancy
  Ho  Ho0  1  0.17857100  0.90702200  0.19642900  1
  Ho  Ho1  1  0.03571400  0.72733100  0.23214300  1
  Ho  Ho2  1  0.67857100  0.59297800  0.19642900  1
  Ho  Ho3  1  0.53571400  0.77266900  0.23214300  1
  Ho  Ho4  1  0.03571400  0.40702200  0.23214300  1
  Ho  Ho5  1  0.17857100  0.22733100  0.19642900  1
  Ho  Ho6  1  0.53571400  0.09297800  0.23214300  1
  Ho  Ho7  1  0.67857100  0.27266900  0.19642900  1
  Ho  Ho8  1  0.89285700  0.90702200  0.26785700  1
  Ho  Ho9  1  0.75000000  0.72733100  0.30357100  1
  Ho  Ho10  1  0.39285700  0.59297800  0.26785700  1
  Ho  Ho11  1  0.25000000  0.77266900  0.30357100  1
  Ho  Ho12  1  0.75000000  0.40702200  0.30357100  1
  Ho  Ho13  1  0.89285700  0.22733100  0.26785700  1
  Ho  Ho14  1  0.25000000  0.09297800  0.30357100  1
  Ho  Ho15  1  0.39285700  0.27266900  0.26785700  1
  Ho  Ho16  1  0.60714300  0.90702200  0.33928600  1
  Ho  Ho17  1  0.46428600  0.72733100  0.37500000  1
  Ho  Ho18  1  0.10714300  0.59297800  0.33928600  1
  Ho  Ho19  1  0.96428600  0.77266900  0.37500000  1
  Ho  Ho20  1  0.46428600  0.40702200  0.37500000  1
  Ho  Ho21  1  0.60714300  0.22733100  0.33928600  1
  Ho  Ho22  1  0.96428600  0.09297800  0.37500000  1
  Ho  Ho23  1  0.10714300  0.27266900  0.33928600  1
  Ho  Ho24  1  0.32142900  0.90702200  0.41071400  1
  Ho  Ho25  1  0.17857100  0.72733100  0.44642900  1
  Ho  Ho26  1  0.82142900  0.59297800  0.41071400  1
  Ho  Ho27  1  0.67857100  0.77266900  0.44642900  1
  Ho  Ho28  1  0.17857100  0.40702200  0.44642900  1
  Ho  Ho29  1  0.32142900  0.22733100  0.41071400  1
  Ho  Ho30  1  0.67857100  0.09297800  0.44642900  1
  Ho  Ho31  1  0.82142900  0.27266900  0.41071400  1
  Ho  Ho32  1  0.03571400  0.90702200  0.48214300  1
  Ho  Ho33  1  0.89285700  0.72733100  0.51785700  1
  Ho  Ho34  1  0.53571400  0.59297800  0.48214300  1
  Ho  Ho35  1  0.39285700  0.77266900  0.51785700  1
  Ho  Ho36  1  0.89285700  0.40702200  0.51785700  1
  Ho  Ho37  1  0.03571400  0.22733100  0.48214300  1
  Ho  Ho38  1  0.39285700  0.09297800  0.51785700  1
  Ho  Ho39  1  0.53571400  0.27266900  0.48214300  1
  Ho  Ho40  1  0.75000000  0.90702200  0.55357100  1
  Ho  Ho41  1  0.60714300  0.72733100  0.58928600  1
  Ho  Ho42  1  0.25000000  0.59297800  0.55357100  1
  Ho  Ho43  1  0.10714300  0.77266900  0.58928600  1
  Ho  Ho44  1  0.60714300  0.40702200  0.58928600  1
  Ho  Ho45  1  0.75000000  0.22733100  0.55357100  1
  Ho  Ho46  1  0.10714300  0.09297800  0.58928600  1
  Ho  Ho47  1  0.25000000  0.27266900  0.55357100  1
  Ho  Ho48  1  0.46428600  0.90702200  0.62500000  1
  Ho  Ho49  1  0.32142900  0.72733100  0.66071400  1
  Ho  Ho50  1  0.96428600  0.59297800  0.62500000  1
  Ho  Ho51  1  0.82142900  0.77266900  0.66071400  1
  Ho  Ho52  1  0.32142900  0.40702200  0.66071400  1
  Ho  Ho53  1  0.46428600  0.22733100  0.62500000  1
  Ho  Ho54  1  0.82142900  0.09297800  0.66071400  1
  Ho  Ho55  1  0.96428600  0.27266900  0.62500000  1
  Ho  Ho56  1  0.17857100  0.90702200  0.69642900  1
  Ho  Ho57  1  0.03571400  0.72733100  0.73214300  1
  Ho  Ho58  1  0.67857100  0.59297800  0.69642900  1
  Ho  Ho59  1  0.53571400  0.77266900  0.73214300  1
  Ho  Ho60  1  0.03571400  0.40702200  0.73214300  1
  Ho  Ho61  1  0.17857100  0.22733100  0.69642900  1
  Ho  Ho62  1  0.53571400  0.09297800  0.73214300  1
  Ho  Ho63  1  0.67857100  0.27266900  0.69642900  1
  Ho  Ho64  1  0.89285700  0.90702200  0.76785700  1
  Ho  Ho65  1  0.75000000  0.72733100  0.80357100  1
  Ho  Ho66  1  0.39285700  0.59297800  0.76785700  1
  Ho  Ho67  1  0.25000000  0.77266900  0.80357100  1
  Ho  Ho68  1  0.75000000  0.40702200  0.80357100  1
  Ho  Ho69  1  0.89285700  0.22733100  0.76785700  1
  Ho  Ho70  1  0.25000000  0.09297800  0.80357100  1
  Ho  Ho71  1  0.39285700  0.27266900  0.76785700  1
  Mg  Mg72  1  0.17857100  0.56618100  0.19642900  1
  Mg  Mg73  1  0.67857100  0.93381900  0.19642900  1
  Mg  Mg74  1  0.03571400  0.06618100  0.23214300  1
  Mg  Mg75  1  0.53571400  0.43381900  0.23214300  1
  Mg  Mg76  1  0.89285700  0.56618100  0.26785700  1
  Mg  Mg77  1  0.39285700  0.93381900  0.26785700  1
  Mg  Mg78  1  0.75000000  0.06618100  0.30357100  1
  Mg  Mg79  1  0.25000000  0.43381900  0.30357100  1
  Mg  Mg80  1  0.60714300  0.56618100  0.33928600  1
  Mg  Mg81  1  0.10714300  0.93381900  0.33928600  1
  Mg  Mg82  1  0.46428600  0.06618100  0.37500000  1
  Mg  Mg83  1  0.96428600  0.43381900  0.37500000  1
  Mg  Mg84  1  0.32142900  0.56618100  0.41071400  1
  Mg  Mg85  1  0.82142900  0.93381900  0.41071400  1
  Mg  Mg86  1  0.17857100  0.06618100  0.44642900  1
  Mg  Mg87  1  0.67857100  0.43381900  0.44642900  1
  Mg  Mg88  1  0.03571400  0.56618100  0.48214300  1
  Mg  Mg89  1  0.53571400  0.93381900  0.48214300  1
  Mg  Mg90  1  0.89285700  0.06618100  0.51785700  1
  Mg  Mg91  1  0.39285700  0.43381900  0.51785700  1
  Mg  Mg92  1  0.75000000  0.56618100  0.55357100  1
  Mg  Mg93  1  0.25000000  0.93381900  0.55357100  1
  Mg  Mg94  1  0.60714300  0.06618100  0.58928600  1
  Mg  Mg95  1  0.10714300  0.43381900  0.58928600  1
  Mg  Mg96  1  0.46428600  0.56618100  0.62500000  1
  Mg  Mg97  1  0.96428600  0.93381900  0.62500000  1
  Mg  Mg98  1  0.32142900  0.06618100  0.66071400  1
  Mg  Mg99  1  0.82142900  0.43381900  0.66071400  1
  Mg  Mg100  1  0.17857100  0.56618100  0.69642900  1
  Mg  Mg101  1  0.67857100  0.93381900  0.69642900  1
  Mg  Mg102  1  0.03571400  0.06618100  0.73214300  1
  Mg  Mg103  1  0.53571400  0.43381900  0.73214300  1
  Mg  Mg104  1  0.89285700  0.56618100  0.76785700  1
  Mg  Mg105  1  0.39285700  0.93381900  0.76785700  1
  Mg  Mg106  1  0.75000000  0.06618100  0.80357100  1
  Mg  Mg107  1  0.25000000  0.43381900  0.80357100  1
