# generated using pymatgen
data_Tm17Mg8
_symmetry_space_group_name_H-M   'P 1'
_cell_length_a   6.48584137
_cell_length_b   8.80029164
_cell_length_c   44.06083200
_cell_angle_alpha   91.14784900
_cell_angle_beta   93.09533235
_cell_angle_gamma   96.37169691
_symmetry_Int_Tables_number   1
_chemical_formula_structural   Tm17Mg8
_chemical_formula_sum   'Tm34 Mg16'
_cell_volume   2494.83370718
_cell_formula_units_Z   2
loop_
 _symmetry_equiv_pos_site_id
 _symmetry_equiv_pos_as_xyz
  1  'x, y, z'
loop_
 _atom_site_type_symbol
 _atom_site_label
 _atom_site_symmetry_multiplicity
 _atom_site_fract_x
 _atom_site_fract_y
 _atom_site_fract_z
 _atom_site_occupancy
  Tm  Tm0  1  0.18841500  0.46380100  0.26561600  1
  Tm  Tm1  1  0.76889900  0.04731000  0.24549500  1
  Tm  Tm2  1  0.92174800  0.53046800  0.33228300  1
  Tm  Tm3  1  0.10201000  0.83736400  0.28721700  1
  Tm  Tm4  1  0.50223200  0.11397700  0.31216200  1
  Tm  Tm5  1  0.58863700  0.74041400  0.29056000  1
  Tm  Tm6  1  0.65508100  0.59713400  0.39894900  1
  Tm  Tm7  1  0.83534300  0.90403100  0.35388400  1
  Tm  Tm8  1  0.23556500  0.18064300  0.37882800  1
  Tm  Tm9  1  0.32197000  0.80708000  0.35722700  1
  Tm  Tm10  1  0.38841500  0.66380100  0.46561600  1
  Tm  Tm11  1  0.56867600  0.97069800  0.42055100  1
  Tm  Tm12  1  0.96889900  0.24731000  0.44549500  1
  Tm  Tm13  1  0.05530400  0.87374700  0.42389400  1
  Tm  Tm14  1  0.12174800  0.73046800  0.53228300  1
  Tm  Tm15  1  0.30201000  0.03736400  0.48721700  1
  Tm  Tm16  1  0.70223200  0.31397700  0.51216200  1
  Tm  Tm17  1  0.78863700  0.94041400  0.49056000  1
  Tm  Tm18  1  0.85508100  0.79713400  0.59894900  1
  Tm  Tm19  1  0.03534300  0.10403100  0.55388400  1
  Tm  Tm20  1  0.43556500  0.38064300  0.57882800  1
  Tm  Tm21  1  0.52197000  0.00708000  0.55722700  1
  Tm  Tm22  1  0.58841500  0.86380100  0.66561600  1
  Tm  Tm23  1  0.76867600  0.17069800  0.62055100  1
  Tm  Tm24  1  0.16889900  0.44731000  0.64549500  1
  Tm  Tm25  1  0.25530400  0.07374700  0.62389400  1
  Tm  Tm26  1  0.32174800  0.93046800  0.73228300  1
  Tm  Tm27  1  0.50201000  0.23736400  0.68721700  1
  Tm  Tm28  1  0.90223200  0.51397700  0.71216200  1
  Tm  Tm29  1  0.98863700  0.14041400  0.69056000  1
  Tm  Tm30  1  0.05508100  0.99713400  0.79894900  1
  Tm  Tm31  1  0.23534300  0.30403100  0.75388400  1
  Tm  Tm32  1  0.63556500  0.58064300  0.77882800  1
  Tm  Tm33  1  0.72197000  0.20708000  0.75722700  1
  Mg  Mg34  1  0.01204300  0.18510800  0.30970900  1
  Mg  Mg35  1  0.67860400  0.39267000  0.26806900  1
  Mg  Mg36  1  0.74537600  0.25177400  0.37637600  1
  Mg  Mg37  1  0.41193700  0.45933700  0.33473600  1
  Mg  Mg38  1  0.47871000  0.31844100  0.44304200  1
  Mg  Mg39  1  0.14527000  0.52600400  0.40140200  1
  Mg  Mg40  1  0.21204300  0.38510800  0.50970900  1
  Mg  Mg41  1  0.87860400  0.59267000  0.46806900  1
  Mg  Mg42  1  0.94537600  0.45177400  0.57637600  1
  Mg  Mg43  1  0.61193700  0.65933700  0.53473600  1
  Mg  Mg44  1  0.67871000  0.51844100  0.64304200  1
  Mg  Mg45  1  0.34527000  0.72600400  0.60140200  1
  Mg  Mg46  1  0.41204300  0.58510800  0.70970900  1
  Mg  Mg47  1  0.07860400  0.79267000  0.66806900  1
  Mg  Mg48  1  0.14537600  0.65177400  0.77637600  1
  Mg  Mg49  1  0.81193700  0.85933700  0.73473600  1
