# generated using pymatgen
data_Mg7Ga3
_symmetry_space_group_name_H-M   'P 1'
_cell_length_a   6.11035770
_cell_length_b   8.32987912
_cell_length_c   49.12638700
_cell_angle_alpha   87.82435891
_cell_angle_beta   86.43446658
_cell_angle_gamma   68.48323149
_symmetry_Int_Tables_number   1
_chemical_formula_structural   Mg7Ga3
_chemical_formula_sum   'Mg42 Ga18'
_cell_volume   2321.39293914
_cell_formula_units_Z   6
loop_
 _symmetry_equiv_pos_site_id
 _symmetry_equiv_pos_as_xyz
  1  'x, y, z'
loop_
 _atom_site_type_symbol
 _atom_site_label
 _atom_site_symmetry_multiplicity
 _atom_site_fract_x
 _atom_site_fract_y
 _atom_site_fract_z
 _atom_site_occupancy
  Mg  Mg0  1  0.81768700  0.66521900  0.69940700  1
  Mg  Mg1  1  0.52137900  0.19236400  0.76487900  1
  Mg  Mg2  1  0.94366400  0.30893500  0.80373600  1
  Mg  Mg3  1  0.14540100  0.92364800  0.78555000  1
  Mg  Mg4  1  0.41953300  0.92879100  0.73214300  1
  Mg  Mg5  1  0.91953300  0.92879100  0.73214300  1
  Mg  Mg6  1  0.59554900  0.54742400  0.76147900  1
  Mg  Mg7  1  0.24351700  0.31015900  0.70280700  1
  Mg  Mg8  1  0.74351700  0.31015900  0.70280700  1
  Mg  Mg9  1  0.09554900  0.54742400  0.76147900  1
  Mg  Mg10  1  0.06768700  0.29021900  0.57440700  1
  Mg  Mg11  1  0.77137900  0.81736400  0.63987900  1
  Mg  Mg12  1  0.19366400  0.93393500  0.67873600  1
  Mg  Mg13  1  0.39540100  0.54864800  0.66055000  1
  Mg  Mg14  1  0.66953300  0.55379100  0.60714300  1
  Mg  Mg15  1  0.16953300  0.55379100  0.60714300  1
  Mg  Mg16  1  0.84554900  0.17242400  0.63647900  1
  Mg  Mg17  1  0.49351700  0.93515900  0.57780700  1
  Mg  Mg18  1  0.99351700  0.93515900  0.57780700  1
  Mg  Mg19  1  0.34554900  0.17242400  0.63647900  1
  Mg  Mg20  1  0.31768700  0.91521900  0.44940700  1
  Mg  Mg21  1  0.02137900  0.44236400  0.51487900  1
  Mg  Mg22  1  0.44366400  0.55893500  0.55373600  1
  Mg  Mg23  1  0.64540100  0.17364800  0.53555000  1
  Mg  Mg24  1  0.91953300  0.17879100  0.48214300  1
  Mg  Mg25  1  0.41953300  0.17879100  0.48214300  1
  Mg  Mg26  1  0.09554900  0.79742400  0.51147900  1
  Mg  Mg27  1  0.74351700  0.56015900  0.45280700  1
  Mg  Mg28  1  0.24351700  0.56015900  0.45280700  1
  Mg  Mg29  1  0.59554900  0.79742400  0.51147900  1
  Mg  Mg30  1  0.56768700  0.54021900  0.32440700  1
  Mg  Mg31  1  0.27137900  0.06736400  0.38987900  1
  Mg  Mg32  1  0.69366400  0.18393500  0.42873600  1
  Mg  Mg33  1  0.89540100  0.79864800  0.41055000  1
  Mg  Mg34  1  0.16953300  0.80379100  0.35714300  1
  Mg  Mg35  1  0.66953300  0.80379100  0.35714300  1
  Mg  Mg36  1  0.34554900  0.42242400  0.38647900  1
  Mg  Mg37  1  0.99351700  0.18515900  0.32780700  1
  Mg  Mg38  1  0.49351700  0.18515900  0.32780700  1
  Mg  Mg39  1  0.84554900  0.42242400  0.38647900  1
  Mg  Mg40  1  0.94366400  0.80893500  0.30373600  1
  Mg  Mg41  1  0.14540100  0.42364800  0.28555000  1
  Ga  Ga42  1  0.69648400  0.82715700  0.77987400  1
  Ga  Ga43  1  0.39258100  0.40542500  0.80941200  1
  Ga  Ga44  1  0.01286400  0.22500100  0.74927000  1
  Ga  Ga45  1  0.32620100  0.63258200  0.71501500  1
  Ga  Ga46  1  0.94648400  0.45215700  0.65487400  1
  Ga  Ga47  1  0.64258100  0.03042500  0.68441200  1
  Ga  Ga48  1  0.26286400  0.85000100  0.62427000  1
  Ga  Ga49  1  0.57620100  0.25758200  0.59001500  1
  Ga  Ga50  1  0.19648400  0.07715700  0.52987400  1
  Ga  Ga51  1  0.89258100  0.65542500  0.55941200  1
  Ga  Ga52  1  0.51286400  0.47500100  0.49927000  1
  Ga  Ga53  1  0.82620100  0.88258200  0.46501500  1
  Ga  Ga54  1  0.44648400  0.70215700  0.40487400  1
  Ga  Ga55  1  0.14258100  0.28042500  0.43441200  1
  Ga  Ga56  1  0.76286400  0.10000100  0.37427000  1
  Ga  Ga57  1  0.07620100  0.50758200  0.34001500  1
  Ga  Ga58  1  0.69648400  0.32715700  0.27987400  1
  Ga  Ga59  1  0.39258100  0.90542500  0.30941200  1
