# generated using pymatgen
data_Mg87Ir20
_symmetry_space_group_name_H-M   'P 1'
_cell_length_a   9.82944242
_cell_length_b   9.82944290
_cell_length_c   50.01409000
_cell_angle_alpha   92.36329606
_cell_angle_beta   92.36329617
_cell_angle_gamma   112.50167663
_symmetry_Int_Tables_number   1
_chemical_formula_structural   Mg87Ir20
_chemical_formula_sum   'Mg87 Ir20'
_cell_volume   4452.05614699
_cell_formula_units_Z   1
loop_
 _symmetry_equiv_pos_site_id
 _symmetry_equiv_pos_as_xyz
  1  'x, y, z'
loop_
 _atom_site_type_symbol
 _atom_site_label
 _atom_site_symmetry_multiplicity
 _atom_site_fract_x
 _atom_site_fract_y
 _atom_site_fract_z
 _atom_site_occupancy
  Mg  Mg0  1  0.64260800  0.14260800  0.66741100  1
  Mg  Mg1  1  0.14260800  0.64260800  0.66741100  1
  Mg  Mg2  1  0.14260800  0.14260800  0.66741100  1
  Mg  Mg3  1  0.95803100  0.32548900  0.68419000  1
  Mg  Mg4  1  0.32718500  0.95972700  0.65063100  1
  Mg  Mg5  1  0.91956600  0.80770800  0.65367500  1
  Mg  Mg6  1  0.48351100  0.80167600  0.68314700  1
  Mg  Mg7  1  0.36565100  0.47750800  0.68114600  1
  Mg  Mg8  1  0.80170500  0.48354100  0.65167400  1
  Mg  Mg9  1  0.92832300  0.92832300  0.59598200  1
  Mg  Mg10  1  0.21403700  0.71403700  0.52455400  1
  Mg  Mg11  1  0.71403700  0.21403700  0.52455400  1
  Mg  Mg12  1  0.71403700  0.71403700  0.52455400  1
  Mg  Mg13  1  0.42832300  0.92832300  0.59598200  1
  Mg  Mg14  1  0.92832300  0.42832300  0.59598200  1
  Mg  Mg15  1  0.74544200  0.11290000  0.57920200  1
  Mg  Mg16  1  0.52946000  0.89691800  0.54133300  1
  Mg  Mg17  1  0.90292400  0.16800700  0.63169600  1
  Mg  Mg18  1  0.11120400  0.74374600  0.61276200  1
  Mg  Mg19  1  0.89861400  0.53115600  0.50777400  1
  Mg  Mg20  1  0.95372200  0.68863800  0.56026800  1
  Mg  Mg21  1  0.53546500  0.53546500  0.63169600  1
  Mg  Mg22  1  0.32118000  0.32118000  0.56026800  1
  Mg  Mg23  1  0.26925500  0.58742000  0.58024500  1
  Mg  Mg24  1  0.26322200  0.15136500  0.60971800  1
  Mg  Mg25  1  0.65133800  0.44503100  0.56426600  1
  Mg  Mg26  1  0.49099500  0.37913700  0.51081800  1
  Mg  Mg27  1  0.05494000  0.37310500  0.54029000  1
  Mg  Mg28  1  0.19732900  0.99102100  0.55627000  1
  Mg  Mg29  1  0.58739000  0.26922600  0.61171900  1
  Mg  Mg30  1  0.59342300  0.70528000  0.58224600  1
  Mg  Mg31  1  0.20530700  0.41161400  0.62769900  1
  Mg  Mg32  1  0.93707900  0.04893700  0.53828900  1
  Mg  Mg33  1  0.37313400  0.05496900  0.50881700  1
  Mg  Mg34  1  0.65931700  0.86562400  0.63569400  1
  Mg  Mg35  1  0.49975100  0.49975100  0.45312500  1
  Mg  Mg36  1  0.78546500  0.28546500  0.38169600  1
  Mg  Mg37  1  0.28546500  0.78546500  0.38169600  1
  Mg  Mg38  1  0.28546500  0.28546500  0.38169600  1
  Mg  Mg39  1  0.99975100  0.49975100  0.45312500  1
  Mg  Mg40  1  0.49975100  0.99975100  0.45312500  1
  Mg  Mg41  1  0.31687000  0.68432800  0.43634500  1
  Mg  Mg42  1  0.10088800  0.46834700  0.39847600  1
  Mg  Mg43  1  0.47435200  0.73943600  0.48883900  1
  Mg  Mg44  1  0.68263200  0.31517400  0.46990500  1
  Mg  Mg45  1  0.47004300  0.10258400  0.36491700  1
  Mg  Mg46  1  0.52515000  0.26006600  0.41741100  1
  Mg  Mg47  1  0.10689400  0.10689400  0.48883900  1
  Mg  Mg48  1  0.89260800  0.89260800  0.41741100  1
  Mg  Mg49  1  0.84068300  0.15884800  0.43738800  1
  Mg  Mg50  1  0.83465100  0.72279300  0.46686100  1
  Mg  Mg51  1  0.22276700  0.01645900  0.42140900  1
  Mg  Mg52  1  0.06242300  0.95056600  0.36796100  1
  Mg  Mg53  1  0.62636800  0.94453300  0.39743300  1
  Mg  Mg54  1  0.76875700  0.56245000  0.41341300  1
  Mg  Mg55  1  0.15881900  0.84065400  0.46886200  1
  Mg  Mg56  1  0.16485100  0.27670900  0.43938900  1
  Mg  Mg57  1  0.77673600  0.98304300  0.48484100  1
  Mg  Mg58  1  0.50850800  0.62036500  0.39543200  1
  Mg  Mg59  1  0.94456200  0.62639800  0.36596000  1
  Mg  Mg60  1  0.23074500  0.43705200  0.49283700  1
  Mg  Mg61  1  0.07118000  0.07118000  0.31026800  1
  Mg  Mg62  1  0.35689400  0.85689400  0.23883900  1
  Mg  Mg63  1  0.85689400  0.35689400  0.23883900  1
  Mg  Mg64  1  0.85689400  0.85689400  0.23883900  1
  Mg  Mg65  1  0.57118000  0.07118000  0.31026800  1
  Mg  Mg66  1  0.07118000  0.57118000  0.31026800  1
  Mg  Mg67  1  0.88829900  0.25575700  0.29348800  1
  Mg  Mg68  1  0.67231700  0.03977500  0.25561900  1
  Mg  Mg69  1  0.04578100  0.31086400  0.34598200  1
  Mg  Mg70  1  0.25406100  0.88660300  0.32704800  1
  Mg  Mg71  1  0.04147100  0.67401300  0.22206000  1
  Mg  Mg72  1  0.09657900  0.83149500  0.27455400  1
  Mg  Mg73  1  0.67832300  0.67832300  0.34598200  1
  Mg  Mg74  1  0.46403700  0.46403700  0.27455400  1
  Mg  Mg75  1  0.41211200  0.73027700  0.29453100  1
  Mg  Mg76  1  0.40608000  0.29422200  0.32400400  1
  Mg  Mg77  1  0.79419500  0.58788800  0.27855100  1
  Mg  Mg78  1  0.63385200  0.52199400  0.22510400  1
  Mg  Mg79  1  0.19779700  0.51596200  0.25457600  1
  Mg  Mg80  1  0.34018600  0.13387800  0.27055600  1
  Mg  Mg81  1  0.73024800  0.41208300  0.32600500  1
  Mg  Mg82  1  0.73628000  0.84813700  0.29653200  1
  Mg  Mg83  1  0.34816400  0.55447100  0.34198400  1
  Mg  Mg84  1  0.07993600  0.19179400  0.25257500  1
  Mg  Mg85  1  0.51599100  0.19782600  0.22310300  1
  Mg  Mg86  1  0.80217400  0.00848100  0.34998000  1
  Ir  Ir87  1  0.84840900  0.02105900  0.67846100  1
  Ir  Ir88  1  0.43680800  0.26415700  0.65636100  1
  Ir  Ir89  1  0.49383000  0.14852900  0.56026800  1
  Ir  Ir90  1  0.04987200  0.22252200  0.58493200  1
  Ir  Ir91  1  0.41983700  0.59248800  0.53560300  1
  Ir  Ir92  1  0.36281500  0.70811600  0.63169600  1
  Ir  Ir93  1  0.80677400  0.63412300  0.60703200  1
  Ir  Ir94  1  0.00823700  0.83558600  0.51350400  1
  Ir  Ir95  1  0.06525900  0.71995800  0.41741100  1
  Ir  Ir96  1  0.62130000  0.79395100  0.44207500  1
  Ir  Ir97  1  0.99126600  0.16391700  0.39274600  1
  Ir  Ir98  1  0.93424300  0.27954500  0.48883900  1
  Ir  Ir99  1  0.37820200  0.20555200  0.46417500  1
  Ir  Ir100  1  0.57966500  0.40701400  0.37064700  1
  Ir  Ir101  1  0.63668800  0.29138600  0.27455400  1
  Ir  Ir102  1  0.19272900  0.36537900  0.29921800  1
  Ir  Ir103  1  0.56269400  0.73534500  0.24988900  1
  Ir  Ir104  1  0.50567200  0.85097300  0.34598200  1
  Ir  Ir105  1  0.94963100  0.77698000  0.32131800  1
  Ir  Ir106  1  0.15109400  0.97844300  0.22778900  1
