# generated using pymatgen
data_Y10Mg23
_symmetry_space_group_name_H-M   'P 1'
_cell_length_a   6.05148162
_cell_length_b   6.05148110
_cell_length_c   49.53350900
_cell_angle_alpha   86.49792341
_cell_angle_beta   86.49792371
_cell_angle_gamma   60.00000048
_symmetry_Int_Tables_number   1
_chemical_formula_structural   Y10Mg23
_chemical_formula_sum   'Y10 Mg23'
_cell_volume   1567.00397672
_cell_formula_units_Z   1
loop_
 _symmetry_equiv_pos_site_id
 _symmetry_equiv_pos_as_xyz
  1  'x, y, z'
loop_
 _atom_site_type_symbol
 _atom_site_label
 _atom_site_symmetry_multiplicity
 _atom_site_fract_x
 _atom_site_fract_y
 _atom_site_fract_z
 _atom_site_occupancy
  Y  Y0  1  0.47500000  0.47500000  0.31250000  1
  Y  Y1  1  0.80000000  0.80000000  0.33750000  1
  Y  Y2  1  0.77500000  0.77500000  0.41250000  1
  Y  Y3  1  0.10000000  0.10000000  0.43750000  1
  Y  Y4  1  0.07500000  0.07500000  0.51250000  1
  Y  Y5  1  0.40000000  0.40000000  0.53750000  1
  Y  Y6  1  0.37500000  0.37500000  0.61250000  1
  Y  Y7  1  0.70000000  0.70000000  0.63750000  1
  Y  Y8  1  0.67500000  0.67500000  0.71250000  1
  Y  Y9  1  0.00000000  0.00000000  0.73750000  1
  Mg  Mg10  1  0.98750000  0.48750000  0.27500000  1
  Mg  Mg11  1  0.48750000  0.98750000  0.27500000  1
  Mg  Mg12  1  0.98750000  0.98750000  0.27500000  1
  Mg  Mg13  1  0.28750000  0.78750000  0.37500000  1
  Mg  Mg14  1  0.13750000  0.13750000  0.32500000  1
  Mg  Mg15  1  0.78750000  0.28750000  0.37500000  1
  Mg  Mg16  1  0.28750000  0.28750000  0.37500000  1
  Mg  Mg17  1  0.58750000  0.08750000  0.47500000  1
  Mg  Mg18  1  0.43750000  0.43750000  0.42500000  1
  Mg  Mg19  1  0.08750000  0.58750000  0.47500000  1
  Mg  Mg20  1  0.58750000  0.58750000  0.47500000  1
  Mg  Mg21  1  0.88750000  0.38750000  0.57500000  1
  Mg  Mg22  1  0.73750000  0.73750000  0.52500000  1
  Mg  Mg23  1  0.38750000  0.88750000  0.57500000  1
  Mg  Mg24  1  0.88750000  0.88750000  0.57500000  1
  Mg  Mg25  1  0.18750000  0.68750000  0.67500000  1
  Mg  Mg26  1  0.03750000  0.03750000  0.62500000  1
  Mg  Mg27  1  0.68750000  0.18750000  0.67500000  1
  Mg  Mg28  1  0.18750000  0.18750000  0.67500000  1
  Mg  Mg29  1  0.48750000  0.98750000  0.77500000  1
  Mg  Mg30  1  0.33750000  0.33750000  0.72500000  1
  Mg  Mg31  1  0.98750000  0.48750000  0.77500000  1
  Mg  Mg32  1  0.48750000  0.48750000  0.77500000  1
