# generated using pymatgen
data_Tm2Mg
_symmetry_space_group_name_H-M   'P 1'
_cell_length_a   5.42194500
_cell_length_b   8.80029156
_cell_length_c   45.31837800
_cell_angle_alpha   90.70413999
_cell_angle_beta   90.00000000
_cell_angle_gamma   90.00000000
_symmetry_Int_Tables_number   1
_chemical_formula_structural   Tm2Mg
_chemical_formula_sum   'Tm32 Mg16'
_cell_volume   2162.18937522
_cell_formula_units_Z   16
loop_
 _symmetry_equiv_pos_site_id
 _symmetry_equiv_pos_as_xyz
  1  'x, y, z'
loop_
 _atom_site_type_symbol
 _atom_site_label
 _atom_site_symmetry_multiplicity
 _atom_site_fract_x
 _atom_site_fract_y
 _atom_site_fract_z
 _atom_site_occupancy
  Tm  Tm0  1  0.75000000  0.61713000  0.80007000  1
  Tm  Tm1  1  0.75000000  0.31716600  0.74807100  1
  Tm  Tm2  1  0.25000000  0.07517800  0.73839200  1
  Tm  Tm3  1  0.25000000  0.37514100  0.79039000  1
  Tm  Tm4  1  0.75000000  0.69405300  0.72314700  1
  Tm  Tm5  1  0.75000000  0.39408900  0.67114800  1
  Tm  Tm6  1  0.25000000  0.15210100  0.66146900  1
  Tm  Tm7  1  0.25000000  0.45206400  0.71346700  1
  Tm  Tm8  1  0.75000000  0.77097600  0.64622400  1
  Tm  Tm9  1  0.75000000  0.47101300  0.59422500  1
  Tm  Tm10  1  0.25000000  0.22902400  0.58454600  1
  Tm  Tm11  1  0.25000000  0.52898700  0.63654400  1
  Tm  Tm12  1  0.75000000  0.84789900  0.56930100  1
  Tm  Tm13  1  0.75000000  0.54793600  0.51730200  1
  Tm  Tm14  1  0.25000000  0.30594700  0.50762300  1
  Tm  Tm15  1  0.25000000  0.60591100  0.55962100  1
  Tm  Tm16  1  0.75000000  0.92482200  0.49237700  1
  Tm  Tm17  1  0.75000000  0.62485900  0.44037900  1
  Tm  Tm18  1  0.25000000  0.38287000  0.43069900  1
  Tm  Tm19  1  0.25000000  0.68283400  0.48269800  1
  Tm  Tm20  1  0.75000000  0.00174500  0.41545400  1
  Tm  Tm21  1  0.75000000  0.70178200  0.36345600  1
  Tm  Tm22  1  0.25000000  0.45979300  0.35377600  1
  Tm  Tm23  1  0.25000000  0.75975700  0.40577500  1
  Tm  Tm24  1  0.75000000  0.07866800  0.33853100  1
  Tm  Tm25  1  0.75000000  0.77870500  0.28653300  1
  Tm  Tm26  1  0.25000000  0.53671600  0.27685300  1
  Tm  Tm27  1  0.25000000  0.83668000  0.32885200  1
  Tm  Tm28  1  0.75000000  0.15559100  0.26160800  1
  Tm  Tm29  1  0.75000000  0.85562800  0.20961000  1
  Tm  Tm30  1  0.25000000  0.61363900  0.19993000  1
  Tm  Tm31  1  0.25000000  0.91360300  0.25192900  1
  Mg  Mg32  1  0.75000000  0.96596300  0.77402300  1
  Mg  Mg33  1  0.25000000  0.72634500  0.76443800  1
  Mg  Mg34  1  0.75000000  0.04288600  0.69710000  1
  Mg  Mg35  1  0.25000000  0.80326800  0.68751500  1
  Mg  Mg36  1  0.75000000  0.11980900  0.62017700  1
  Mg  Mg37  1  0.25000000  0.88019100  0.61059200  1
  Mg  Mg38  1  0.75000000  0.19673200  0.54325400  1
  Mg  Mg39  1  0.25000000  0.95711400  0.53366900  1
  Mg  Mg40  1  0.75000000  0.27365500  0.46633100  1
  Mg  Mg41  1  0.25000000  0.03403700  0.45674600  1
  Mg  Mg42  1  0.75000000  0.35057800  0.38940800  1
  Mg  Mg43  1  0.25000000  0.11096000  0.37982300  1
  Mg  Mg44  1  0.75000000  0.42750100  0.31248500  1
  Mg  Mg45  1  0.25000000  0.18788300  0.30290000  1
  Mg  Mg46  1  0.75000000  0.50442400  0.23556200  1
  Mg  Mg47  1  0.25000000  0.26480600  0.22597700  1
