# generated using pymatgen
data_Mg7Zn2
_symmetry_space_group_name_H-M   'P 1'
_cell_length_a   4.95983900
_cell_length_b   6.14549200
_cell_length_c   42.57722000
_cell_angle_alpha   90.00000000
_cell_angle_beta   90.00000000
_cell_angle_gamma   90.00000000
_symmetry_Int_Tables_number   1
_chemical_formula_structural   Mg7Zn2
_chemical_formula_sum   'Mg28 Zn8'
_cell_volume   1297.78137893
_cell_formula_units_Z   4
loop_
 _symmetry_equiv_pos_site_id
 _symmetry_equiv_pos_as_xyz
  1  'x, y, z'
loop_
 _atom_site_type_symbol
 _atom_site_label
 _atom_site_symmetry_multiplicity
 _atom_site_fract_x
 _atom_site_fract_y
 _atom_site_fract_z
 _atom_site_occupancy
  Mg  Mg0  1  0.25000000  0.88171300  0.25993700  1
  Mg  Mg1  1  0.25000000  0.37020500  0.25993700  1
  Mg  Mg2  1  0.75000000  0.88171300  0.30256300  1
  Mg  Mg3  1  0.75000000  0.37020500  0.30256300  1
  Mg  Mg4  1  0.25000000  0.38171300  0.38493700  1
  Mg  Mg5  1  0.25000000  0.62595900  0.32387600  1
  Mg  Mg6  1  0.25000000  0.87020500  0.38493700  1
  Mg  Mg7  1  0.75000000  0.12595900  0.36362400  1
  Mg  Mg8  1  0.75000000  0.38171300  0.42756300  1
  Mg  Mg9  1  0.75000000  0.87020500  0.42756300  1
  Mg  Mg10  1  0.25000000  0.88171300  0.50993700  1
  Mg  Mg11  1  0.25000000  0.12595900  0.44887600  1
  Mg  Mg12  1  0.25000000  0.37020500  0.50993700  1
  Mg  Mg13  1  0.75000000  0.62595900  0.48862400  1
  Mg  Mg14  1  0.75000000  0.88171300  0.55256300  1
  Mg  Mg15  1  0.75000000  0.37020500  0.55256300  1
  Mg  Mg16  1  0.25000000  0.38171300  0.63493700  1
  Mg  Mg17  1  0.25000000  0.62595900  0.57387600  1
  Mg  Mg18  1  0.25000000  0.87020500  0.63493700  1
  Mg  Mg19  1  0.75000000  0.12595900  0.61362400  1
  Mg  Mg20  1  0.75000000  0.38171300  0.67756300  1
  Mg  Mg21  1  0.75000000  0.87020500  0.67756300  1
  Mg  Mg22  1  0.25000000  0.88171300  0.75993700  1
  Mg  Mg23  1  0.25000000  0.12595900  0.69887600  1
  Mg  Mg24  1  0.25000000  0.37020500  0.75993700  1
  Mg  Mg25  1  0.75000000  0.62595900  0.73862400  1
  Mg  Mg26  1  0.75000000  0.88171300  0.80256300  1
  Mg  Mg27  1  0.75000000  0.37020500  0.80256300  1
  Zn  Zn28  1  0.25000000  0.12595900  0.32291700  1
  Zn  Zn29  1  0.75000000  0.62595900  0.36458300  1
  Zn  Zn30  1  0.25000000  0.62595900  0.44791700  1
  Zn  Zn31  1  0.75000000  0.12595900  0.48958300  1
  Zn  Zn32  1  0.25000000  0.12595900  0.57291700  1
  Zn  Zn33  1  0.75000000  0.62595900  0.61458300  1
  Zn  Zn34  1  0.25000000  0.62595900  0.69791700  1
  Zn  Zn35  1  0.75000000  0.12595900  0.73958300  1
