# generated using pymatgen
data_Mg2Rh
_symmetry_space_group_name_H-M   'P 1'
_cell_length_a   4.58065100
_cell_length_b   10.37443117
_cell_length_c   42.38760400
_cell_angle_alpha   89.64599259
_cell_angle_beta   90.00000000
_cell_angle_gamma   77.24595332
_symmetry_Int_Tables_number   1
_chemical_formula_structural   Mg2Rh
_chemical_formula_sum   'Mg48 Rh24'
_cell_volume   1964.58931918
_cell_formula_units_Z   24
loop_
 _symmetry_equiv_pos_site_id
 _symmetry_equiv_pos_as_xyz
  1  'x, y, z'
loop_
 _atom_site_type_symbol
 _atom_site_label
 _atom_site_symmetry_multiplicity
 _atom_site_fract_x
 _atom_site_fract_y
 _atom_site_fract_z
 _atom_site_occupancy
  Mg  Mg0  1  0.95047400  0.34905200  0.18971300  1
  Mg  Mg1  1  0.07584200  0.09831600  0.23133900  1
  Mg  Mg2  1  0.21363200  0.82273600  0.21602900  1
  Mg  Mg3  1  0.81268400  0.62463200  0.20502300  1
  Mg  Mg4  1  0.47679000  0.29642000  0.24234500  1
  Mg  Mg5  1  0.60215800  0.04568500  0.28397100  1
  Mg  Mg6  1  0.73994800  0.77010500  0.26866100  1
  Mg  Mg7  1  0.33900000  0.57200100  0.25765500  1
  Mg  Mg8  1  0.00310600  0.24378900  0.29497700  1
  Mg  Mg9  1  0.12847300  0.99305300  0.33660200  1
  Mg  Mg10  1  0.26626300  0.71747300  0.32129200  1
  Mg  Mg11  1  0.86531600  0.51936900  0.31028700  1
  Mg  Mg12  1  0.52942100  0.19115700  0.34760800  1
  Mg  Mg13  1  0.65478900  0.94042200  0.38923400  1
  Mg  Mg14  1  0.79257900  0.66484200  0.37392400  1
  Mg  Mg15  1  0.39163100  0.46673700  0.36291800  1
  Mg  Mg16  1  0.05573700  0.13852600  0.40024000  1
  Mg  Mg17  1  0.18110500  0.88779000  0.44186600  1
  Mg  Mg18  1  0.31889500  0.61221000  0.42655600  1
  Mg  Mg19  1  0.91794700  0.41410600  0.41555000  1
  Mg  Mg20  1  0.58205300  0.08589400  0.45287100  1
  Mg  Mg21  1  0.70742100  0.83515800  0.49449700  1
  Mg  Mg22  1  0.84521100  0.55957800  0.47918700  1
  Mg  Mg23  1  0.44426300  0.36147400  0.46818100  1
  Mg  Mg24  1  0.10836900  0.03326300  0.50550300  1
  Mg  Mg25  1  0.23373700  0.78252700  0.54712900  1
  Mg  Mg26  1  0.37152700  0.50694700  0.53181900  1
  Mg  Mg27  1  0.97057900  0.30884300  0.52081300  1
  Mg  Mg28  1  0.63468400  0.98063100  0.55813400  1
  Mg  Mg29  1  0.76005200  0.72989500  0.59976000  1
  Mg  Mg30  1  0.89784200  0.45431500  0.58445000  1
  Mg  Mg31  1  0.49689400  0.25621100  0.57344400  1
  Mg  Mg32  1  0.16100000  0.92799900  0.61076600  1
  Mg  Mg33  1  0.28636800  0.67726400  0.65239200  1
  Mg  Mg34  1  0.42415800  0.40168400  0.63708200  1
  Mg  Mg35  1  0.02321000  0.20358000  0.62607600  1
  Mg  Mg36  1  0.68731600  0.87536800  0.66339800  1
  Mg  Mg37  1  0.81268400  0.62463200  0.70502300  1
  Mg  Mg38  1  0.95047400  0.34905200  0.68971300  1
  Mg  Mg39  1  0.54952600  0.15094800  0.67870800  1
  Mg  Mg40  1  0.21363200  0.82273600  0.71602900  1
  Mg  Mg41  1  0.33900000  0.57200100  0.75765500  1
  Mg  Mg42  1  0.47679000  0.29642000  0.74234500  1
  Mg  Mg43  1  0.07584200  0.09831600  0.73133900  1
  Mg  Mg44  1  0.73994800  0.77010500  0.76866100  1
  Mg  Mg45  1  0.86531600  0.51936900  0.81028700  1
  Mg  Mg46  1  0.00310600  0.24378900  0.79497700  1
  Mg  Mg47  1  0.60215800  0.04568500  0.78397100  1
  Rh  Rh48  1  0.64473700  0.96052600  0.22368400  1
  Rh  Rh49  1  0.38157900  0.48684200  0.19736800  1
  Rh  Rh50  1  0.17105300  0.90789500  0.27631600  1
  Rh  Rh51  1  0.90789500  0.43421100  0.25000000  1
  Rh  Rh52  1  0.69736800  0.85526300  0.32894700  1
  Rh  Rh53  1  0.43421100  0.38157900  0.30263200  1
  Rh  Rh54  1  0.22368400  0.80263200  0.38157900  1
  Rh  Rh55  1  0.96052600  0.32894700  0.35526300  1
  Rh  Rh56  1  0.75000000  0.75000000  0.43421100  1
  Rh  Rh57  1  0.48684200  0.27631600  0.40789500  1
  Rh  Rh58  1  0.27631600  0.69736800  0.48684200  1
  Rh  Rh59  1  0.01315800  0.22368400  0.46052600  1
  Rh  Rh60  1  0.80263200  0.64473700  0.53947400  1
  Rh  Rh61  1  0.53947400  0.17105300  0.51315800  1
  Rh  Rh62  1  0.32894700  0.59210500  0.59210500  1
  Rh  Rh63  1  0.06578900  0.11842100  0.56578900  1
  Rh  Rh64  1  0.85526300  0.53947400  0.64473700  1
  Rh  Rh65  1  0.59210500  0.06578900  0.61842100  1
  Rh  Rh66  1  0.38157900  0.48684200  0.69736800  1
  Rh  Rh67  1  0.11842100  0.01315800  0.67105300  1
  Rh  Rh68  1  0.90789500  0.43421100  0.75000000  1
  Rh  Rh69  1  0.64473700  0.96052600  0.72368400  1
  Rh  Rh70  1  0.43421100  0.38157900  0.80263200  1
  Rh  Rh71  1  0.17105300  0.90789500  0.77631600  1
