# generated using pymatgen
data_Mg8Hg5
_symmetry_space_group_name_H-M   'P 1'
_cell_length_a   8.30244900
_cell_length_b   8.30244947
_cell_length_c   47.82481000
_cell_angle_alpha   90.00000000
_cell_angle_beta   90.00000000
_cell_angle_gamma   120.00000212
_symmetry_Int_Tables_number   1
_chemical_formula_structural   Mg8Hg5
_chemical_formula_sum   'Mg48 Hg30'
_cell_volume   2854.93571277
_cell_formula_units_Z   6
loop_
 _symmetry_equiv_pos_site_id
 _symmetry_equiv_pos_as_xyz
  1  'x, y, z'
loop_
 _atom_site_type_symbol
 _atom_site_label
 _atom_site_symmetry_multiplicity
 _atom_site_fract_x
 _atom_site_fract_y
 _atom_site_fract_z
 _atom_site_occupancy
  Mg  Mg0  1  0.00000000  0.24793100  0.21093800  1
  Mg  Mg1  1  0.75206900  0.00000000  0.27343800  1
  Mg  Mg2  1  0.24793100  0.24793100  0.27343800  1
  Mg  Mg3  1  0.75206900  0.75206900  0.21093700  1
  Mg  Mg4  1  0.24793100  0.00000000  0.21093800  1
  Mg  Mg5  1  0.00000000  0.75206900  0.27343800  1
  Mg  Mg6  1  0.66666700  0.33333300  0.24218800  1
  Mg  Mg7  1  0.33333300  0.66666700  0.30468800  1
  Mg  Mg8  1  0.33333300  0.66666700  0.24218800  1
  Mg  Mg9  1  0.66666700  0.33333300  0.30468800  1
  Mg  Mg10  1  0.00000000  0.24793100  0.33593800  1
  Mg  Mg11  1  0.75206900  0.00000000  0.39843800  1
  Mg  Mg12  1  0.24793100  0.24793100  0.39843800  1
  Mg  Mg13  1  0.75206900  0.75206900  0.33593800  1
  Mg  Mg14  1  0.24793100  0.00000000  0.33593800  1
  Mg  Mg15  1  0.00000000  0.75206900  0.39843800  1
  Mg  Mg16  1  0.66666700  0.33333300  0.36718800  1
  Mg  Mg17  1  0.33333300  0.66666700  0.42968800  1
  Mg  Mg18  1  0.33333300  0.66666700  0.36718800  1
  Mg  Mg19  1  0.66666700  0.33333300  0.42968800  1
  Mg  Mg20  1  0.00000000  0.24793100  0.46093800  1
  Mg  Mg21  1  0.75206900  0.00000000  0.52343800  1
  Mg  Mg22  1  0.24793100  0.24793100  0.52343800  1
  Mg  Mg23  1  0.75206900  0.75206900  0.46093800  1
  Mg  Mg24  1  0.24793100  0.00000000  0.46093800  1
  Mg  Mg25  1  0.00000000  0.75206900  0.52343800  1
  Mg  Mg26  1  0.66666700  0.33333300  0.49218800  1
  Mg  Mg27  1  0.33333300  0.66666700  0.55468800  1
  Mg  Mg28  1  0.33333300  0.66666700  0.49218800  1
  Mg  Mg29  1  0.66666700  0.33333300  0.55468800  1
  Mg  Mg30  1  0.00000000  0.24793100  0.58593800  1
  Mg  Mg31  1  0.75206900  0.00000000  0.64843800  1
  Mg  Mg32  1  0.24793100  0.24793100  0.64843800  1
  Mg  Mg33  1  0.75206900  0.75206900  0.58593800  1
  Mg  Mg34  1  0.24793100  0.00000000  0.58593800  1
  Mg  Mg35  1  0.00000000  0.75206900  0.64843800  1
  Mg  Mg36  1  0.66666700  0.33333300  0.61718800  1
  Mg  Mg37  1  0.33333300  0.66666700  0.67968800  1
  Mg  Mg38  1  0.33333300  0.66666700  0.61718800  1
  Mg  Mg39  1  0.66666700  0.33333300  0.67968800  1
  Mg  Mg40  1  0.00000000  0.24793100  0.71093700  1
  Mg  Mg41  1  0.75206900  0.00000000  0.77343800  1
  Mg  Mg42  1  0.24793100  0.24793100  0.77343800  1
  Mg  Mg43  1  0.75206900  0.75206900  0.71093700  1
  Mg  Mg44  1  0.24793100  0.00000000  0.71093700  1
  Mg  Mg45  1  0.00000000  0.75206900  0.77343800  1
  Mg  Mg46  1  0.66666700  0.33333300  0.74218800  1
  Mg  Mg47  1  0.33333300  0.66666700  0.74218800  1
  Hg  Hg48  1  0.00000000  0.61037900  0.21093800  1
  Hg  Hg49  1  0.38962100  0.00000000  0.27343800  1
  Hg  Hg50  1  0.61037900  0.61037900  0.27343800  1
  Hg  Hg51  1  0.38962100  0.38962100  0.21093800  1
  Hg  Hg52  1  0.61037900  0.00000000  0.21093800  1
  Hg  Hg53  1  0.00000000  0.38962100  0.27343800  1
  Hg  Hg54  1  0.00000000  0.61037900  0.33593800  1
  Hg  Hg55  1  0.38962100  0.00000000  0.39843800  1
  Hg  Hg56  1  0.61037900  0.61037900  0.39843800  1
  Hg  Hg57  1  0.38962100  0.38962100  0.33593800  1
  Hg  Hg58  1  0.61037900  0.00000000  0.33593800  1
  Hg  Hg59  1  0.00000000  0.38962100  0.39843800  1
  Hg  Hg60  1  0.00000000  0.61037900  0.46093800  1
  Hg  Hg61  1  0.38962100  0.00000000  0.52343800  1
  Hg  Hg62  1  0.61037900  0.61037900  0.52343800  1
  Hg  Hg63  1  0.38962100  0.38962100  0.46093800  1
  Hg  Hg64  1  0.61037900  0.00000000  0.46093800  1
  Hg  Hg65  1  0.00000000  0.38962100  0.52343800  1
  Hg  Hg66  1  0.00000000  0.61037900  0.58593800  1
  Hg  Hg67  1  0.38962100  0.00000000  0.64843800  1
  Hg  Hg68  1  0.61037900  0.61037900  0.64843800  1
  Hg  Hg69  1  0.38962100  0.38962100  0.58593800  1
  Hg  Hg70  1  0.61037900  0.00000000  0.58593800  1
  Hg  Hg71  1  0.00000000  0.38962100  0.64843800  1
  Hg  Hg72  1  0.00000000  0.61037900  0.71093700  1
  Hg  Hg73  1  0.38962100  0.00000000  0.77343800  1
  Hg  Hg74  1  0.61037900  0.61037900  0.77343800  1
  Hg  Hg75  1  0.38962100  0.38962100  0.71093700  1
  Hg  Hg76  1  0.61037900  0.00000000  0.71093700  1
  Hg  Hg77  1  0.00000000  0.38962100  0.77343800  1
