# generated using pymatgen
data_Y2Mg
_symmetry_space_group_name_H-M   'P 1'
_cell_length_a   5.49634900
_cell_length_b   8.78578790
_cell_length_c   43.70715000
_cell_angle_alpha   90.91524143
_cell_angle_beta   90.00000000
_cell_angle_gamma   90.00000000
_symmetry_Int_Tables_number   1
_chemical_formula_structural   Y2Mg
_chemical_formula_sum   'Y28 Mg14'
_cell_volume   2110.33835896
_cell_formula_units_Z   14
loop_
 _symmetry_equiv_pos_site_id
 _symmetry_equiv_pos_as_xyz
  1  'x, y, z'
loop_
 _atom_site_type_symbol
 _atom_site_label
 _atom_site_symmetry_multiplicity
 _atom_site_fract_x
 _atom_site_fract_y
 _atom_site_fract_z
 _atom_site_occupancy
  Y  Y0  1  0.25000000  0.65976800  0.74245400  1
  Y  Y1  1  0.25000000  0.26879700  0.76893300  1
  Y  Y2  1  0.75000000  0.00689900  0.75754600  1
  Y  Y3  1  0.75000000  0.39787000  0.73106700  1
  Y  Y4  1  0.25000000  0.74310100  0.65912000  1
  Y  Y5  1  0.25000000  0.35213000  0.68560000  1
  Y  Y6  1  0.75000000  0.09023200  0.67421300  1
  Y  Y7  1  0.75000000  0.48120300  0.64773300  1
  Y  Y8  1  0.25000000  0.82643400  0.57578700  1
  Y  Y9  1  0.25000000  0.43546400  0.60226700  1
  Y  Y10  1  0.75000000  0.17356600  0.59088000  1
  Y  Y11  1  0.75000000  0.56453600  0.56440000  1
  Y  Y12  1  0.25000000  0.90976800  0.49245400  1
  Y  Y13  1  0.25000000  0.51879700  0.51893300  1
  Y  Y14  1  0.75000000  0.25689900  0.50754600  1
  Y  Y15  1  0.75000000  0.64787000  0.48106700  1
  Y  Y16  1  0.25000000  0.99310100  0.40912000  1
  Y  Y17  1  0.25000000  0.60213000  0.43560000  1
  Y  Y18  1  0.75000000  0.34023200  0.42421300  1
  Y  Y19  1  0.75000000  0.73120300  0.39773300  1
  Y  Y20  1  0.25000000  0.07643400  0.32578700  1
  Y  Y21  1  0.25000000  0.68546400  0.35226700  1
  Y  Y22  1  0.75000000  0.42356600  0.34088000  1
  Y  Y23  1  0.75000000  0.81453600  0.31440000  1
  Y  Y24  1  0.25000000  0.15976800  0.24245400  1
  Y  Y25  1  0.25000000  0.76879700  0.26893300  1
  Y  Y26  1  0.75000000  0.50689900  0.25754600  1
  Y  Y27  1  0.75000000  0.89787000  0.23106700  1
  Mg  Mg28  1  0.25000000  0.00443300  0.71396100  1
  Mg  Mg29  1  0.75000000  0.66223400  0.78603900  1
  Mg  Mg30  1  0.25000000  0.08776600  0.63062800  1
  Mg  Mg31  1  0.75000000  0.74556700  0.70270600  1
  Mg  Mg32  1  0.25000000  0.17110000  0.54729400  1
  Mg  Mg33  1  0.75000000  0.82890000  0.61937200  1
  Mg  Mg34  1  0.25000000  0.25443300  0.46396100  1
  Mg  Mg35  1  0.75000000  0.91223400  0.53603900  1
  Mg  Mg36  1  0.25000000  0.33776600  0.38062800  1
  Mg  Mg37  1  0.75000000  0.99556700  0.45270600  1
  Mg  Mg38  1  0.25000000  0.42110000  0.29729400  1
  Mg  Mg39  1  0.75000000  0.07890000  0.36937200  1
  Mg  Mg40  1  0.25000000  0.50443300  0.21396100  1
  Mg  Mg41  1  0.75000000  0.16223400  0.28603900  1
