# generated using pymatgen
data_Mg11Sc24
_symmetry_space_group_name_H-M   'P 1'
_cell_length_a   3.35466600
_cell_length_b   17.27528044
_cell_length_c   49.31366500
_cell_angle_alpha   92.13654328
_cell_angle_beta   90.00000000
_cell_angle_gamma   90.00000000
_symmetry_Int_Tables_number   1
_chemical_formula_structural   Mg11Sc24
_chemical_formula_sum   'Mg22 Sc48'
_cell_volume   2855.87803226
_cell_formula_units_Z   2
loop_
 _symmetry_equiv_pos_site_id
 _symmetry_equiv_pos_as_xyz
  1  'x, y, z'
loop_
 _atom_site_type_symbol
 _atom_site_label
 _atom_site_symmetry_multiplicity
 _atom_site_fract_x
 _atom_site_fract_y
 _atom_site_fract_z
 _atom_site_occupancy
  Mg  Mg0  1  0.50000000  0.61440200  0.25209300  1
  Mg  Mg1  1  0.00000000  0.00207800  0.26457400  1
  Mg  Mg2  1  0.50000000  0.71440200  0.35209300  1
  Mg  Mg3  1  0.00000000  0.10207800  0.36457400  1
  Mg  Mg4  1  0.00000000  0.16440200  0.30209300  1
  Mg  Mg5  1  0.50000000  0.55207800  0.31457400  1
  Mg  Mg6  1  0.50000000  0.81440200  0.45209300  1
  Mg  Mg7  1  0.00000000  0.20207800  0.46457400  1
  Mg  Mg8  1  0.00000000  0.26440200  0.40209300  1
  Mg  Mg9  1  0.50000000  0.65207800  0.41457400  1
  Mg  Mg10  1  0.50000000  0.91440200  0.55209300  1
  Mg  Mg11  1  0.00000000  0.30207800  0.56457400  1
  Mg  Mg12  1  0.00000000  0.36440200  0.50209300  1
  Mg  Mg13  1  0.50000000  0.75207800  0.51457400  1
  Mg  Mg14  1  0.50000000  0.01440200  0.65209300  1
  Mg  Mg15  1  0.00000000  0.40207800  0.66457400  1
  Mg  Mg16  1  0.00000000  0.46440200  0.60209300  1
  Mg  Mg17  1  0.50000000  0.85207800  0.61457400  1
  Mg  Mg18  1  0.50000000  0.11440200  0.75209300  1
  Mg  Mg19  1  0.00000000  0.50207800  0.76457400  1
  Mg  Mg20  1  1.00000000  0.56440200  0.70209300  1
  Mg  Mg21  1  0.50000000  0.95207800  0.71457400  1
  Sc  Sc22  1  0.50000000  0.91608100  0.21857300  1
  Sc  Sc23  1  0.00000000  0.76234000  0.23565600  1
  Sc  Sc24  1  0.00000000  0.70039900  0.29809300  1
  Sc  Sc25  1  0.50000000  0.85414000  0.28101100  1
  Sc  Sc26  1  0.00000000  0.46608100  0.26857300  1
  Sc  Sc27  1  0.50000000  0.31234000  0.28565600  1
  Sc  Sc28  1  0.50000000  0.15039900  0.24809300  1
  Sc  Sc29  1  1.00000000  0.30414000  0.23101100  1
  Sc  Sc30  1  0.50000000  0.01608100  0.31857300  1
  Sc  Sc31  1  0.00000000  0.86234000  0.33565600  1
  Sc  Sc32  1  0.00000000  0.80039900  0.39809300  1
  Sc  Sc33  1  0.50000000  0.95414000  0.38101100  1
  Sc  Sc34  1  0.00000000  0.56608100  0.36857300  1
  Sc  Sc35  1  0.50000000  0.41234000  0.38565600  1
  Sc  Sc36  1  0.50000000  0.25039900  0.34809300  1
  Sc  Sc37  1  0.00000000  0.40414000  0.33101100  1
  Sc  Sc38  1  0.50000000  0.11608100  0.41857300  1
  Sc  Sc39  1  0.00000000  0.96234000  0.43565600  1
  Sc  Sc40  1  0.00000000  0.90039900  0.49809300  1
  Sc  Sc41  1  0.50000000  0.05414000  0.48101100  1
  Sc  Sc42  1  0.00000000  0.66608100  0.46857300  1
  Sc  Sc43  1  0.50000000  0.51234000  0.48565600  1
  Sc  Sc44  1  0.50000000  0.35039900  0.44809300  1
  Sc  Sc45  1  0.00000000  0.50414000  0.43101100  1
  Sc  Sc46  1  0.50000000  0.21608100  0.51857300  1
  Sc  Sc47  1  0.00000000  0.06234000  0.53565600  1
  Sc  Sc48  1  0.00000000  0.00039900  0.59809300  1
  Sc  Sc49  1  0.50000000  0.15414000  0.58101100  1
  Sc  Sc50  1  0.00000000  0.76608100  0.56857300  1
  Sc  Sc51  1  0.50000000  0.61234000  0.58565600  1
  Sc  Sc52  1  0.50000000  0.45039900  0.54809300  1
  Sc  Sc53  1  1.00000000  0.60414000  0.53101100  1
  Sc  Sc54  1  0.50000000  0.31608100  0.61857300  1
  Sc  Sc55  1  1.00000000  0.16234000  0.63565600  1
  Sc  Sc56  1  0.00000000  0.10039900  0.69809300  1
  Sc  Sc57  1  0.50000000  0.25414000  0.68101100  1
  Sc  Sc58  1  0.00000000  0.86608100  0.66857300  1
  Sc  Sc59  1  0.50000000  0.71234000  0.68565600  1
  Sc  Sc60  1  0.50000000  0.55039900  0.64809300  1
  Sc  Sc61  1  0.00000000  0.70414000  0.63101100  1
  Sc  Sc62  1  0.50000000  0.41608100  0.71857300  1
  Sc  Sc63  1  0.00000000  0.26234000  0.73565600  1
  Sc  Sc64  1  0.00000000  0.20039900  0.79809300  1
  Sc  Sc65  1  0.50000000  0.35414000  0.78101100  1
  Sc  Sc66  1  0.00000000  0.96608100  0.76857300  1
  Sc  Sc67  1  0.50000000  0.81234000  0.78565600  1
  Sc  Sc68  1  0.50000000  0.65039900  0.74809300  1
  Sc  Sc69  1  0.00000000  0.80414000  0.73101100  1
