# generated using pymatgen
data_Ce14Mg113
_symmetry_space_group_name_H-M   'P 1'
_cell_length_a   10.33012900
_cell_length_b   14.43775486
_cell_length_c   46.86335100
_cell_angle_alpha   91.26380978
_cell_angle_beta   90.00000000
_cell_angle_gamma   69.03810193
_symmetry_Int_Tables_number   1
_chemical_formula_structural   Ce14Mg113
_chemical_formula_sum   'Ce14 Mg113'
_cell_volume   6524.99326643
_cell_formula_units_Z   1
loop_
 _symmetry_equiv_pos_site_id
 _symmetry_equiv_pos_as_xyz
  1  'x, y, z'
loop_
 _atom_site_type_symbol
 _atom_site_label
 _atom_site_symmetry_multiplicity
 _atom_site_fract_x
 _atom_site_fract_y
 _atom_site_fract_z
 _atom_site_occupancy
  Ce  Ce0  1  0.40539700  0.18920600  0.34461200  1
  Ce  Ce1  1  0.11968300  0.76063400  0.32080200  1
  Ce  Ce2  1  0.54825400  0.90349100  0.43985000  1
  Ce  Ce3  1  0.69111100  0.61777700  0.36842100  1
  Ce  Ce4  1  0.11968300  0.76063400  0.48746900  1
  Ce  Ce5  1  0.83396900  0.33206300  0.46365900  1
  Ce  Ce6  1  0.26254000  0.47492000  0.58270700  1
  Ce  Ce7  1  0.40539700  0.18920600  0.51127800  1
  Ce  Ce8  1  0.83396900  0.33206300  0.63032600  1
  Ce  Ce9  1  0.54825400  0.90349100  0.60651600  1
  Ce  Ce10  1  0.97682600  0.04634900  0.72556400  1
  Ce  Ce11  1  0.11968300  0.76063400  0.65413500  1
  Ce  Ce12  1  0.54825400  0.90349100  0.77318300  1
  Ce  Ce13  1  0.26254000  0.47492000  0.74937300  1
  Mg  Mg14  1  0.26254000  0.47492000  0.33270700  1
  Mg  Mg15  1  0.04680000  0.39306000  0.35279700  1
  Mg  Mg16  1  0.76115800  0.77260100  0.31681300  1
  Mg  Mg17  1  0.05883900  0.17723900  0.34860100  1
  Mg  Mg18  1  0.46624100  0.77260100  0.31681300  1
  Mg  Mg19  1  0.56014000  0.39306000  0.35279700  1
  Mg  Mg20  1  0.96494000  0.55678000  0.31261700  1
  Mg  Mg21  1  0.26254000  0.97492000  0.33270700  1
  Mg  Mg22  1  0.76392200  0.17723900  0.34860100  1
  Mg  Mg23  1  0.47828000  0.55678000  0.31261700  1
  Mg  Mg24  1  0.76254000  0.97492000  0.33270700  1
  Mg  Mg25  1  0.97682600  0.04634900  0.47556400  1
  Mg  Mg26  1  0.61968300  0.26063400  0.40413500  1
  Mg  Mg27  1  0.76108500  0.96448900  0.49565400  1
  Mg  Mg28  1  0.40494600  0.70344800  0.43039400  1
  Mg  Mg29  1  0.82589400  0.34821100  0.38214000  1
  Mg  Mg30  1  0.47544400  0.34403000  0.45967000  1
  Mg  Mg31  1  0.21902200  0.56195500  0.43779900  1
  Mg  Mg32  1  0.93330800  0.13338400  0.41398900  1
  Mg  Mg33  1  0.83442000  0.81782000  0.37787700  1
  Mg  Mg34  1  0.56420300  0.47716800  0.41529100  1
  Mg  Mg35  1  0.77312500  0.74866700  0.49145800  1
  Mg  Mg36  1  0.89160600  0.70344800  0.43039400  1
  Mg  Mg37  1  0.88581800  0.91770700  0.43511100  1
  Mg  Mg38  1  0.18052700  0.34403000  0.45967000  1
  Mg  Mg39  1  0.27442600  0.96448900  0.49565400  1
  Mg  Mg40  1  0.41347100  0.17305700  0.42613100  1
  Mg  Mg41  1  0.69537400  0.60925200  0.44740000  1
  Mg  Mg42  1  0.54399200  0.91201700  0.36087100  1
  Mg  Mg43  1  0.30605800  0.38788500  0.39428100  1
  Mg  Mg44  1  0.67922600  0.12820800  0.45547400  1
  Mg  Mg45  1  0.97682600  0.54634900  0.47556400  1
  Mg  Mg46  1  0.19647500  0.91770700  0.43511100  1
  Mg  Mg47  1  0.47820800  0.74866700  0.49145800  1
  Mg  Mg48  1  0.02034300  0.95931300  0.37047200  1
  Mg  Mg49  1  0.19256600  0.12820800  0.45547400  1
  Mg  Mg50  1  0.28073700  0.04410000  0.39298000  1
  Mg  Mg51  1  0.04289100  0.60356100  0.37316000  1
  Mg  Mg52  1  0.34776000  0.81782000  0.37787700  1
  Mg  Mg53  1  0.67516300  0.04410000  0.39298000  1
  Mg  Mg54  1  0.47682600  0.54634900  0.47556400  1
  Mg  Mg55  1  0.95862900  0.47716800  0.41529100  1
  Mg  Mg56  1  0.35354800  0.60356100  0.37316000  1
  Mg  Mg57  1  0.11968300  0.26063400  0.40413500  1
  Mg  Mg58  1  0.11968300  0.76063400  0.40413500  1
  Mg  Mg59  1  0.69111100  0.61777700  0.61842100  1
  Mg  Mg60  1  0.33396900  0.83206300  0.54699200  1
  Mg  Mg61  1  0.47537100  0.53591700  0.63851100  1
  Mg  Mg62  1  0.11923200  0.27487700  0.57325100  1
  Mg  Mg63  1  0.54018000  0.91964000  0.52499700  1
  Mg  Mg64  1  0.18972900  0.91545800  0.60252700  1
  Mg  Mg65  1  0.93330800  0.13338400  0.58065600  1
  Mg  Mg66  1  0.64759400  0.70481200  0.55684600  1
  Mg  Mg67  1  0.54870500  0.38924900  0.52073400  1
  Mg  Mg68  1  0.27848800  0.04859700  0.55814800  1
  Mg  Mg69  1  0.48741100  0.32009600  0.63431500  1
  Mg  Mg70  1  0.60589100  0.27487700  0.57325100  1
  Mg  Mg71  1  0.60010400  0.48913600  0.57796800  1
  Mg  Mg72  1  0.89481200  0.91545800  0.60252700  1
  Mg  Mg73  1  0.98871200  0.53591700  0.63851100  1
  Mg  Mg74  1  0.12775700  0.74448600  0.56898800  1
  Mg  Mg75  1  0.40966000  0.18068000  0.59025700  1
  Mg  Mg76  1  0.25827700  0.48344500  0.50372800  1
  Mg  Mg77  1  0.02034300  0.95931300  0.53713800  1
  Mg  Mg78  1  0.39351100  0.69963700  0.59833100  1
  Mg  Mg79  1  0.69111100  0.11777700  0.61842100  1
  Mg  Mg80  1  0.91076100  0.48913600  0.57796800  1
  Mg  Mg81  1  0.19249400  0.32009600  0.63431500  1
  Mg  Mg82  1  0.73462900  0.53074200  0.51332900  1
  Mg  Mg83  1  0.90685200  0.69963700  0.59833100  1
  Mg  Mg84  1  0.99502300  0.61552900  0.53583700  1
  Mg  Mg85  1  0.75717700  0.17499000  0.51601700  1
  Mg  Mg86  1  0.06204600  0.38924900  0.52073400  1
  Mg  Mg87  1  0.38944900  0.61552900  0.53583700  1
  Mg  Mg88  1  0.19111100  0.11777700  0.61842100  1
  Mg  Mg89  1  0.67291500  0.04859700  0.55814800  1
  Mg  Mg90  1  0.06783300  0.17499000  0.51601700  1
  Mg  Mg91  1  0.83396900  0.83206300  0.54699200  1
  Mg  Mg92  1  0.83396900  0.33206300  0.54699200  1
  Mg  Mg93  1  0.40539700  0.18920600  0.76127800  1
  Mg  Mg94  1  0.04825400  0.40349100  0.68985000  1
  Mg  Mg95  1  0.18965700  0.10734600  0.78136800  1
  Mg  Mg96  1  0.83351700  0.84630600  0.71610800  1
  Mg  Mg97  1  0.25446600  0.49106900  0.66785400  1
  Mg  Mg98  1  0.90401500  0.48688700  0.74538400  1
  Mg  Mg99  1  0.64759400  0.70481200  0.72351300  1
  Mg  Mg100  1  0.36188000  0.27624100  0.69970400  1
  Mg  Mg101  1  0.26299100  0.96067700  0.66359100  1
  Mg  Mg102  1  0.99277400  0.62002600  0.70100500  1
  Mg  Mg103  1  0.20169600  0.89152400  0.77717200  1
  Mg  Mg104  1  0.32017700  0.84630600  0.71610800  1
  Mg  Mg105  1  0.31439000  0.06056400  0.72082500  1
  Mg  Mg106  1  0.60909800  0.48688700  0.74538400  1
  Mg  Mg107  1  0.70299700  0.10734600  0.78136800  1
  Mg  Mg108  1  0.84204300  0.31591400  0.71184500  1
  Mg  Mg109  1  0.12394600  0.75210900  0.73311400  1
  Mg  Mg110  1  0.97256300  0.05487400  0.64658500  1
  Mg  Mg111  1  0.73462900  0.53074200  0.67999600  1
  Mg  Mg112  1  0.10779700  0.27106500  0.74118800  1
  Mg  Mg113  1  0.40539700  0.68920600  0.76127800  1
  Mg  Mg114  1  0.62504600  0.06056400  0.72082500  1
  Mg  Mg115  1  0.90677900  0.89152400  0.77717200  1
  Mg  Mg116  1  0.44891500  0.10217100  0.65618600  1
  Mg  Mg117  1  0.62113800  0.27106500  0.74118800  1
  Mg  Mg118  1  0.70930800  0.18695700  0.67869400  1
  Mg  Mg119  1  0.47146200  0.74641900  0.65887400  1
  Mg  Mg120  1  0.77633200  0.96067700  0.66359100  1
  Mg  Mg121  1  0.10373500  0.18695700  0.67869400  1
  Mg  Mg122  1  0.90539700  0.68920600  0.76127800  1
  Mg  Mg123  1  0.38720000  0.62002600  0.70100500  1
  Mg  Mg124  1  0.78211900  0.74641900  0.65887400  1
  Mg  Mg125  1  0.54825400  0.40349100  0.68985000  1
  Mg  Mg126  1  0.54825400  0.90349100  0.68985000  1
