# generated using pymatgen
data_Pr2Mg
_symmetry_space_group_name_H-M   'P 1'
_cell_length_a   3.86864600
_cell_length_b   5.72809200
_cell_length_c   52.50645400
_cell_angle_alpha   90.00000000
_cell_angle_beta   90.00000000
_cell_angle_gamma   90.00000000
_symmetry_Int_Tables_number   1
_chemical_formula_structural   Pr2Mg
_chemical_formula_sum   'Pr16 Mg8'
_cell_volume   1163.54093106
_cell_formula_units_Z   8
loop_
 _symmetry_equiv_pos_site_id
 _symmetry_equiv_pos_as_xyz
  1  'x, y, z'
loop_
 _atom_site_type_symbol
 _atom_site_label
 _atom_site_symmetry_multiplicity
 _atom_site_fract_x
 _atom_site_fract_y
 _atom_site_fract_z
 _atom_site_occupancy
  Pr  Pr0  1  0.00000000  0.75000000  0.44535300  1
  Pr  Pr1  1  0.50000000  0.75000000  0.17198600  1
  Pr  Pr2  1  0.50000000  0.25000000  0.22131400  1
  Pr  Pr3  1  1.00000000  0.25000000  0.49468100  1
  Pr  Pr4  1  0.50000000  0.75000000  0.27868600  1
  Pr  Pr5  1  0.00000000  0.75000000  0.33865200  1
  Pr  Pr6  1  0.00000000  0.25000000  0.38798100  1
  Pr  Pr7  1  0.50000000  0.25000000  0.32801400  1
  Pr  Pr8  1  0.00000000  0.75000000  0.77868600  1
  Pr  Pr9  1  0.50000000  0.75000000  0.50531900  1
  Pr  Pr10  1  0.50000000  0.25000000  0.55464700  1
  Pr  Pr11  1  0.00000000  0.25000000  0.82801400  1
  Pr  Pr12  1  0.50000000  0.75000000  0.61201900  1
  Pr  Pr13  1  0.00000000  0.75000000  0.67198600  1
  Pr  Pr14  1  0.00000000  0.25000000  0.72131400  1
  Pr  Pr15  1  0.50000000  0.25000000  0.66134800  1
  Mg  Mg16  1  0.00000000  0.75000000  0.22605300  1
  Mg  Mg17  1  0.50000000  0.25000000  0.44061300  1
  Mg  Mg18  1  0.50000000  0.75000000  0.39272000  1
  Mg  Mg19  1  1.00000000  0.25000000  0.27394700  1
  Mg  Mg20  1  0.00000000  0.75000000  0.55938700  1
  Mg  Mg21  1  0.50000000  0.25000000  0.77394700  1
  Mg  Mg22  1  0.50000000  0.75000000  0.72605300  1
  Mg  Mg23  1  0.00000000  0.25000000  0.60728000  1
