# generated using pymatgen
data_Mg99Rh40
_symmetry_space_group_name_H-M   'P 1'
_cell_length_a   8.64031900
_cell_length_b   11.79877622
_cell_length_c   43.91762100
_cell_angle_alpha   86.20917344
_cell_angle_beta   90.00000000
_cell_angle_gamma   68.52142843
_symmetry_Int_Tables_number   1
_chemical_formula_structural   Mg99Rh40
_chemical_formula_sum   'Mg99 Rh40'
_cell_volume   4155.74122190
_cell_formula_units_Z   1
loop_
 _symmetry_equiv_pos_site_id
 _symmetry_equiv_pos_as_xyz
  1  'x, y, z'
loop_
 _atom_site_type_symbol
 _atom_site_label
 _atom_site_symmetry_multiplicity
 _atom_site_fract_x
 _atom_site_fract_y
 _atom_site_fract_z
 _atom_site_occupancy
  Mg  Mg0  1  0.86838900  0.26322200  0.25223200  1
  Mg  Mg1  1  0.41077300  0.17845500  0.21092400  1
  Mg  Mg2  1  0.86048100  0.65833800  0.21595300  1
  Mg  Mg3  1  0.48118100  0.65833800  0.21595300  1
  Mg  Mg4  1  0.25559800  0.86810500  0.28851100  1
  Mg  Mg5  1  0.87629700  0.86810500  0.28851100  1
  Mg  Mg6  1  0.32600600  0.34798800  0.29354000  1
  Mg  Mg7  1  0.10516800  0.78966500  0.22949200  1
  Mg  Mg8  1  0.21929100  0.13531400  0.26808000  1
  Mg  Mg9  1  0.64539500  0.13531400  0.26808000  1
  Mg  Mg10  1  0.99864200  0.57661300  0.28275500  1
  Mg  Mg11  1  0.42474500  0.57661300  0.28275500  1
  Mg  Mg12  1  0.63161100  0.73677800  0.27497200  1
  Mg  Mg13  1  0.31203300  0.94983000  0.22170900  1
  Mg  Mg14  1  0.78886900  0.42226200  0.19634300  1
  Mg  Mg15  1  0.73813700  0.94983000  0.22170900  1
  Mg  Mg16  1  0.09138400  0.39112900  0.23638400  1
  Mg  Mg17  1  0.94791000  0.10418100  0.30812100  1
  Mg  Mg18  1  0.51748700  0.39112900  0.23638400  1
  Mg  Mg19  1  0.74338900  0.51322200  0.31473200  1
  Mg  Mg20  1  0.61838900  0.76322200  0.37723200  1
  Mg  Mg21  1  0.16077300  0.67845500  0.33592400  1
  Mg  Mg22  1  0.61048100  0.15833800  0.34095300  1
  Mg  Mg23  1  0.23118100  0.15833800  0.34095300  1
  Mg  Mg24  1  0.00559800  0.36810500  0.41351100  1
  Mg  Mg25  1  0.62629700  0.36810500  0.41351100  1
  Mg  Mg26  1  0.07600600  0.84798800  0.41854000  1
  Mg  Mg27  1  0.85516800  0.28966500  0.35449200  1
  Mg  Mg28  1  0.96929100  0.63531400  0.39308000  1
  Mg  Mg29  1  0.39539500  0.63531400  0.39308000  1
  Mg  Mg30  1  0.74864200  0.07661300  0.40775500  1
  Mg  Mg31  1  0.17474500  0.07661300  0.40775500  1
  Mg  Mg32  1  0.38161100  0.23677800  0.39997200  1
  Mg  Mg33  1  0.06203300  0.44983000  0.34670900  1
  Mg  Mg34  1  0.53886900  0.92226200  0.32134300  1
  Mg  Mg35  1  0.48813700  0.44983000  0.34670900  1
  Mg  Mg36  1  0.84138400  0.89112900  0.36138400  1
  Mg  Mg37  1  0.69791000  0.60418100  0.43312100  1
  Mg  Mg38  1  0.26748700  0.89112900  0.36138400  1
  Mg  Mg39  1  0.49338900  0.01322200  0.43973200  1
  Mg  Mg40  1  0.36838900  0.26322200  0.50223200  1
  Mg  Mg41  1  0.91077300  0.17845500  0.46092400  1
  Mg  Mg42  1  0.36048100  0.65833800  0.46595300  1
  Mg  Mg43  1  0.98118100  0.65833800  0.46595300  1
  Mg  Mg44  1  0.75559800  0.86810500  0.53851100  1
  Mg  Mg45  1  0.37629700  0.86810500  0.53851100  1
  Mg  Mg46  1  0.82600600  0.34798800  0.54354000  1
  Mg  Mg47  1  0.60516800  0.78966500  0.47949200  1
  Mg  Mg48  1  0.71929100  0.13531400  0.51808000  1
  Mg  Mg49  1  0.14539500  0.13531400  0.51808000  1
  Mg  Mg50  1  0.49864200  0.57661300  0.53275500  1
  Mg  Mg51  1  0.92474500  0.57661300  0.53275500  1
  Mg  Mg52  1  0.13161100  0.73677800  0.52497200  1
  Mg  Mg53  1  0.81203300  0.94983000  0.47170900  1
  Mg  Mg54  1  0.28886900  0.42226200  0.44634300  1
  Mg  Mg55  1  0.23813700  0.94983000  0.47170900  1
  Mg  Mg56  1  0.59138400  0.39112900  0.48638400  1
  Mg  Mg57  1  0.44791000  0.10418100  0.55812100  1
  Mg  Mg58  1  0.01748700  0.39112900  0.48638400  1
  Mg  Mg59  1  0.24338900  0.51322200  0.56473200  1
  Mg  Mg60  1  0.11838900  0.76322200  0.62723200  1
  Mg  Mg61  1  0.66077300  0.67845500  0.58592400  1
  Mg  Mg62  1  0.11048100  0.15833800  0.59095300  1
  Mg  Mg63  1  0.73118100  0.15833800  0.59095300  1
  Mg  Mg64  1  0.50559800  0.36810500  0.66351100  1
  Mg  Mg65  1  0.12629700  0.36810500  0.66351100  1
  Mg  Mg66  1  0.57600600  0.84798800  0.66854000  1
  Mg  Mg67  1  0.35516800  0.28966500  0.60449200  1
  Mg  Mg68  1  0.46929100  0.63531400  0.64308000  1
  Mg  Mg69  1  0.89539500  0.63531400  0.64308000  1
  Mg  Mg70  1  0.24864200  0.07661300  0.65775500  1
  Mg  Mg71  1  0.67474500  0.07661300  0.65775500  1
  Mg  Mg72  1  0.88161100  0.23677800  0.64997200  1
  Mg  Mg73  1  0.56203300  0.44983000  0.59670900  1
  Mg  Mg74  1  0.03886900  0.92226200  0.57134300  1
  Mg  Mg75  1  0.98813700  0.44983000  0.59670900  1
  Mg  Mg76  1  0.34138400  0.89112900  0.61138400  1
  Mg  Mg77  1  0.19791000  0.60418100  0.68312100  1
  Mg  Mg78  1  0.76748700  0.89112900  0.61138400  1
  Mg  Mg79  1  0.99338900  0.01322200  0.68973200  1
  Mg  Mg80  1  0.86838900  0.26322200  0.75223200  1
  Mg  Mg81  1  0.41077300  0.17845500  0.71092400  1
  Mg  Mg82  1  0.86048100  0.65833800  0.71595300  1
  Mg  Mg83  1  0.48118100  0.65833800  0.71595300  1
  Mg  Mg84  1  0.25559800  0.86810500  0.78851100  1
  Mg  Mg85  1  0.87629700  0.86810500  0.78851100  1
  Mg  Mg86  1  0.32600600  0.34798800  0.79354000  1
  Mg  Mg87  1  0.10516800  0.78966500  0.72949200  1
  Mg  Mg88  1  0.21929100  0.13531400  0.76808000  1
  Mg  Mg89  1  0.64539500  0.13531400  0.76808000  1
  Mg  Mg90  1  0.99864200  0.57661300  0.78275500  1
  Mg  Mg91  1  0.42474500  0.57661300  0.78275500  1
  Mg  Mg92  1  0.63161100  0.73677800  0.77497200  1
  Mg  Mg93  1  0.31203300  0.94983000  0.72170900  1
  Mg  Mg94  1  0.78886900  0.42226200  0.69634300  1
  Mg  Mg95  1  0.73813700  0.94983000  0.72170900  1
  Mg  Mg96  1  0.09138400  0.39112900  0.73638400  1
  Mg  Mg97  1  0.94791000  0.10418100  0.80812100  1
  Mg  Mg98  1  0.51748700  0.39112900  0.73638400  1
  Rh  Rh99  1  0.22255600  0.55488800  0.24181500  1
  Rh  Rh100  1  0.51422300  0.97155500  0.26264900  1
  Rh  Rh101  1  0.99204100  0.01591800  0.25155800  1
  Rh  Rh102  1  0.01992000  0.32707000  0.29877000  1
  Rh  Rh103  1  0.65301000  0.32707000  0.29877000  1
  Rh  Rh104  1  0.08376900  0.19937300  0.20569400  1
  Rh  Rh105  1  0.71685800  0.19937300  0.20569400  1
  Rh  Rh106  1  0.74473700  0.51052500  0.25290600  1
  Rh  Rh107  1  0.97255600  0.05488800  0.36681500  1
  Rh  Rh108  1  0.26422300  0.47155500  0.38764900  1
  Rh  Rh109  1  0.74204100  0.51591800  0.37655800  1
  Rh  Rh110  1  0.76992000  0.82707000  0.42377000  1
  Rh  Rh111  1  0.40301000  0.82707000  0.42377000  1
  Rh  Rh112  1  0.83376900  0.69937300  0.33069400  1
  Rh  Rh113  1  0.46685800  0.69937300  0.33069400  1
  Rh  Rh114  1  0.49473700  0.01052500  0.37790600  1
  Rh  Rh115  1  0.72255600  0.55488800  0.49181500  1
  Rh  Rh116  1  0.01422300  0.97155500  0.51264900  1
  Rh  Rh117  1  0.49204100  0.01591800  0.50155800  1
  Rh  Rh118  1  0.51992000  0.32707000  0.54877000  1
  Rh  Rh119  1  0.15301000  0.32707000  0.54877000  1
  Rh  Rh120  1  0.58376900  0.19937300  0.45569400  1
  Rh  Rh121  1  0.21685800  0.19937300  0.45569400  1
  Rh  Rh122  1  0.24473700  0.51052500  0.50290600  1
  Rh  Rh123  1  0.47255600  0.05488800  0.61681500  1
  Rh  Rh124  1  0.76422300  0.47155500  0.63764900  1
  Rh  Rh125  1  0.24204100  0.51591800  0.62655800  1
  Rh  Rh126  1  0.26992000  0.82707000  0.67377000  1
  Rh  Rh127  1  0.90301000  0.82707000  0.67377000  1
  Rh  Rh128  1  0.33376900  0.69937300  0.58069400  1
  Rh  Rh129  1  0.96685800  0.69937300  0.58069400  1
  Rh  Rh130  1  0.99473700  0.01052500  0.62790600  1
  Rh  Rh131  1  0.22255600  0.55488800  0.74181500  1
  Rh  Rh132  1  0.51422300  0.97155500  0.76264900  1
  Rh  Rh133  1  0.99204100  0.01591800  0.75155800  1
  Rh  Rh134  1  0.01992000  0.32707000  0.79877000  1
  Rh  Rh135  1  0.65301000  0.32707000  0.79877000  1
  Rh  Rh136  1  0.08376900  0.19937300  0.70569400  1
  Rh  Rh137  1  0.71685800  0.19937300  0.70569400  1
  Rh  Rh138  1  0.74473700  0.51052500  0.75290600  1
