# generated using pymatgen
data_Yb2Mg
_symmetry_space_group_name_H-M   'P 1'
_cell_length_a   6.97474268
_cell_length_b   9.47017927
_cell_length_c   43.76977500
_cell_angle_alpha   87.38801216
_cell_angle_beta   89.35373178
_cell_angle_gamma   83.84723935
_symmetry_Int_Tables_number   1
_chemical_formula_structural   Yb2Mg
_chemical_formula_sum   'Yb36 Mg18'
_cell_volume   2871.38447292
_cell_formula_units_Z   18
loop_
 _symmetry_equiv_pos_site_id
 _symmetry_equiv_pos_as_xyz
  1  'x, y, z'
loop_
 _atom_site_type_symbol
 _atom_site_label
 _atom_site_symmetry_multiplicity
 _atom_site_fract_x
 _atom_site_fract_y
 _atom_site_fract_z
 _atom_site_occupancy
  Yb  Yb0  1  0.43791300  0.41016100  0.77445000  1
  Yb  Yb1  1  0.52618600  0.81431700  0.75238200  1
  Yb  Yb2  1  0.84780200  0.01841000  0.79697800  1
  Yb  Yb3  1  0.75952800  0.61425400  0.81904600  1
  Yb  Yb4  1  0.72362700  0.48159000  0.70302200  1
  Yb  Yb5  1  0.81190000  0.88574600  0.68095400  1
  Yb  Yb6  1  0.13351600  0.08983900  0.72555000  1
  Yb  Yb7  1  0.04524300  0.68568300  0.74761800  1
  Yb  Yb8  1  0.00934100  0.55301800  0.63159300  1
  Yb  Yb9  1  0.09761400  0.95717400  0.60952500  1
  Yb  Yb10  1  0.41923000  0.16126700  0.65412100  1
  Yb  Yb11  1  0.33095700  0.75711100  0.67618900  1
  Yb  Yb12  1  0.29505500  0.62444700  0.56016500  1
  Yb  Yb13  1  0.38332900  0.02860300  0.53809600  1
  Yb  Yb14  1  0.70494500  0.23269600  0.58269200  1
  Yb  Yb15  1  0.61667100  0.82854000  0.60476100  1
  Yb  Yb16  1  0.58077000  0.69587600  0.48873600  1
  Yb  Yb17  1  0.66904300  0.10003100  0.46666800  1
  Yb  Yb18  1  0.99065900  0.30412400  0.51126400  1
  Yb  Yb19  1  0.90238600  0.89996900  0.53333200  1
  Yb  Yb20  1  0.86648400  0.76730400  0.41730800  1
  Yb  Yb21  1  0.95475700  0.17146000  0.39523900  1
  Yb  Yb22  1  0.27637300  0.37555300  0.43983500  1
  Yb  Yb23  1  0.18810000  0.97139700  0.46190400  1
  Yb  Yb24  1  0.15219800  0.83873300  0.34587900  1
  Yb  Yb25  1  0.24047200  0.24288900  0.32381100  1
  Yb  Yb26  1  0.56208700  0.44698200  0.36840700  1
  Yb  Yb27  1  0.47381400  0.04282600  0.39047500  1
  Yb  Yb28  1  0.43791300  0.91016100  0.27445000  1
  Yb  Yb29  1  0.52618600  0.31431700  0.25238200  1
  Yb  Yb30  1  0.84780200  0.51841000  0.29697800  1
  Yb  Yb31  1  0.75952800  0.11425400  0.31904600  1
  Yb  Yb32  1  0.72362700  0.98159000  0.20302200  1
  Yb  Yb33  1  0.81190000  0.38574600  0.18095400  1
  Yb  Yb34  1  0.13351600  0.58983900  0.22555000  1
  Yb  Yb35  1  0.04524300  0.18568300  0.24761800  1
  Mg  Mg36  1  0.33842600  0.08169300  0.79932200  1
  Mg  Mg37  1  0.94728800  0.34687800  0.77210700  1
  Mg  Mg38  1  0.62414100  0.15312200  0.72789300  1
  Mg  Mg39  1  0.23300200  0.41830700  0.70067800  1
  Mg  Mg40  1  0.90985500  0.22455000  0.65646500  1
  Mg  Mg41  1  0.51871600  0.48973600  0.62924900  1
  Mg  Mg42  1  0.19556900  0.29597900  0.58503600  1
  Mg  Mg43  1  0.80443100  0.56116400  0.55782100  1
  Mg  Mg44  1  0.48128400  0.36740700  0.51360800  1
  Mg  Mg45  1  0.09014500  0.63259300  0.48639200  1
  Mg  Mg46  1  0.76699800  0.43883600  0.44217900  1
  Mg  Mg47  1  0.37585900  0.70402100  0.41496400  1
  Mg  Mg48  1  0.05271200  0.51026400  0.37075100  1
  Mg  Mg49  1  0.66157400  0.77545000  0.34353500  1
  Mg  Mg50  1  0.33842600  0.58169300  0.29932200  1
  Mg  Mg51  1  0.94728800  0.84687800  0.27210700  1
  Mg  Mg52  1  0.62414100  0.65312200  0.22789300  1
  Mg  Mg53  1  0.23300200  0.91830700  0.20067800  1
