# generated using pymatgen
data_Mg23B148
_symmetry_space_group_name_H-M   'P 1'
_cell_length_a   7.26364870
_cell_length_b   7.26364888
_cell_length_c   48.33922800
_cell_angle_alpha   94.01003019
_cell_angle_beta   94.01003029
_cell_angle_gamma   92.20890678
_symmetry_Int_Tables_number   1
_chemical_formula_structural   Mg23B148
_chemical_formula_sum   'Mg23 B148'
_cell_volume   2535.51535720
_cell_formula_units_Z   1
loop_
 _symmetry_equiv_pos_site_id
 _symmetry_equiv_pos_as_xyz
  1  'x, y, z'
loop_
 _atom_site_type_symbol
 _atom_site_label
 _atom_site_symmetry_multiplicity
 _atom_site_fract_x
 _atom_site_fract_y
 _atom_site_fract_z
 _atom_site_occupancy
  Mg  Mg0  1  0.17793800  0.67793800  0.71718700  1
  Mg  Mg1  1  0.50914600  0.00914600  0.70365300  1
  Mg  Mg2  1  0.84673100  0.34673100  0.73072200  1
  Mg  Mg3  1  0.97793800  0.47793800  0.66718700  1
  Mg  Mg4  1  0.77793800  0.27793800  0.61718800  1
  Mg  Mg5  1  0.10914600  0.60914600  0.60365300  1
  Mg  Mg6  1  0.44673100  0.94673100  0.63072200  1
  Mg  Mg7  1  0.57793800  0.07793800  0.56718700  1
  Mg  Mg8  1  0.37793800  0.87793800  0.51718800  1
  Mg  Mg9  1  0.70914600  0.20914600  0.50365300  1
  Mg  Mg10  1  0.04673100  0.54673100  0.53072200  1
  Mg  Mg11  1  0.17793800  0.67793800  0.46718800  1
  Mg  Mg12  1  0.97793800  0.47793800  0.41718700  1
  Mg  Mg13  1  0.30914600  0.80914600  0.40365300  1
  Mg  Mg14  1  0.64673100  0.14673100  0.43072200  1
  Mg  Mg15  1  0.77793800  0.27793800  0.36718800  1
  Mg  Mg16  1  0.57793800  0.07793800  0.31718700  1
  Mg  Mg17  1  0.90914600  0.40914600  0.30365300  1
  Mg  Mg18  1  0.24673100  0.74673100  0.33072200  1
  Mg  Mg19  1  0.37793800  0.87793800  0.26718700  1
  Mg  Mg20  1  0.17793800  0.67793800  0.21718800  1
  Mg  Mg21  1  0.50914600  0.00914600  0.20365300  1
  Mg  Mg22  1  0.84673100  0.34673100  0.23072200  1
  B  B23  1  0.24928400  0.96828100  0.72871400  1
  B  B24  1  0.47741000  0.35012000  0.73529000  1
  B  B25  1  0.46828100  0.74928400  0.72871400  1
  B  B26  1  0.50575700  0.37846600  0.69908500  1
  B  B27  1  0.85012000  0.97741000  0.73529000  1
  B  B28  1  0.88759600  0.60659300  0.70566100  1
  B  B29  1  0.87846600  0.00575700  0.69908500  1
  B  B30  1  0.10659300  0.38759600  0.70566100  1
  B  B31  1  0.84928400  0.56828100  0.62871400  1
  B  B32  1  0.93029500  0.77462700  0.64699900  1
  B  B33  1  0.12758400  0.97191600  0.69632100  1
  B  B34  1  0.00144600  0.16604000  0.64955300  1
  B  B35  1  0.15870200  0.82643800  0.66474900  1
  B  B36  1  0.07741000  0.95012000  0.63529000  1
  B  B37  1  0.20185700  0.07456700  0.66640200  1
  B  B38  1  0.28983700  0.45443000  0.68482200  1
  B  B39  1  0.06828100  0.34928400  0.62871400  1
  B  B40  1  0.32643800  0.65870200  0.66474900  1
  B  B41  1  0.27462700  0.43029500  0.64699900  1
  B  B42  1  0.47191600  0.62758400  0.69632100  1
  B  B43  1  0.38131000  0.25402000  0.66797300  1
  B  B44  1  0.10575700  0.97846600  0.59908500  1
  B  B45  1  0.45012000  0.57741000  0.63529000  1
  B  B46  1  0.57456700  0.70185700  0.66640200  1
  B  B47  1  0.48396100  0.32829300  0.63805400  1
  B  B48  1  0.68125000  0.52558200  0.68737600  1
  B  B49  1  0.62943900  0.29717500  0.66962600  1
  B  B50  1  0.48759600  0.20659300  0.60566100  1
  B  B51  1  0.66604000  0.50144600  0.64955300  1
  B  B52  1  0.75402000  0.88131000  0.66797300  1
  B  B53  1  0.47846600  0.60575700  0.59908500  1
  B  B54  1  0.79717500  0.12943900  0.66962600  1
  B  B55  1  0.95443000  0.78983700  0.68482200  1
  B  B56  1  0.82829300  0.98396100  0.63805400  1
  B  B57  1  0.02558200  0.18125000  0.68737600  1
  B  B58  1  0.70659300  0.98759600  0.60566100  1
  B  B59  1  0.44928400  0.16828100  0.52871400  1
  B  B60  1  0.53029500  0.37462700  0.54699900  1
  B  B61  1  0.72758400  0.57191600  0.59632100  1
  B  B62  1  0.60144600  0.76604000  0.54955300  1
  B  B63  1  0.75870200  0.42643800  0.56474900  1
  B  B64  1  0.67741000  0.55012000  0.53529000  1
  B  B65  1  0.80185700  0.67456700  0.56640200  1
  B  B66  1  0.88983700  0.05443000  0.58482200  1
  B  B67  1  0.66828100  0.94928400  0.52871400  1
  B  B68  1  0.92643800  0.25870200  0.56474900  1
  B  B69  1  0.87462700  0.03029500  0.54699900  1
  B  B70  1  0.07191600  0.22758400  0.59632100  1
  B  B71  1  0.98131000  0.85402000  0.56797300  1
  B  B72  1  0.70575700  0.57846600  0.49908500  1
  B  B73  1  0.05012000  0.17741000  0.53529000  1
  B  B74  1  0.17456700  0.30185700  0.56640200  1
  B  B75  1  0.08396100  0.92829300  0.53805400  1
  B  B76  1  0.28125000  0.12558200  0.58737600  1
  B  B77  1  0.22943900  0.89717500  0.56962600  1
  B  B78  1  0.08759600  0.80659300  0.50566100  1
  B  B79  1  0.26604000  0.10144600  0.54955300  1
  B  B80  1  0.35402000  0.48131000  0.56797300  1
  B  B81  1  0.07846600  0.20575700  0.49908500  1
  B  B82  1  0.39717500  0.72943900  0.56962600  1
  B  B83  1  0.55443000  0.38983700  0.58482200  1
  B  B84  1  0.42829300  0.58396100  0.53805400  1
  B  B85  1  0.62558200  0.78125000  0.58737600  1
  B  B86  1  0.30659300  0.58759600  0.50566100  1
  B  B87  1  0.04928400  0.76828100  0.42871400  1
  B  B88  1  0.13029500  0.97462700  0.44699900  1
  B  B89  1  0.32758400  0.17191600  0.49632100  1
  B  B90  1  0.20144600  0.36604000  0.44955300  1
  B  B91  1  0.35870200  0.02643800  0.46474900  1
  B  B92  1  0.27741000  0.15012000  0.43529000  1
  B  B93  1  0.40185700  0.27456700  0.46640200  1
  B  B94  1  0.48983700  0.65443000  0.48482200  1
  B  B95  1  0.26828100  0.54928400  0.42871400  1
  B  B96  1  0.52643800  0.85870200  0.46474900  1
  B  B97  1  0.47462700  0.63029500  0.44699900  1
  B  B98  1  0.67191600  0.82758400  0.49632100  1
  B  B99  1  0.58131000  0.45402000  0.46797300  1
  B  B100  1  0.30575700  0.17846600  0.39908500  1
  B  B101  1  0.65012000  0.77741000  0.43529000  1
  B  B102  1  0.77456700  0.90185700  0.46640200  1
  B  B103  1  0.68396100  0.52829300  0.43805400  1
  B  B104  1  0.88125000  0.72558200  0.48737600  1
  B  B105  1  0.82943900  0.49717500  0.46962600  1
  B  B106  1  0.68759600  0.40659300  0.40566100  1
  B  B107  1  0.86604000  0.70144600  0.44955300  1
  B  B108  1  0.95402000  0.08131000  0.46797300  1
  B  B109  1  0.67846600  0.80575700  0.39908500  1
  B  B110  1  0.99717500  0.32943900  0.46962600  1
  B  B111  1  0.15443000  0.98983700  0.48482200  1
  B  B112  1  0.02829300  0.18396100  0.43805400  1
  B  B113  1  0.22558200  0.38125000  0.48737600  1
  B  B114  1  0.90659300  0.18759600  0.40566100  1
  B  B115  1  0.64928400  0.36828100  0.32871400  1
  B  B116  1  0.73029500  0.57462700  0.34699900  1
  B  B117  1  0.92758400  0.77191600  0.39632100  1
  B  B118  1  0.80144600  0.96604000  0.34955300  1
  B  B119  1  0.95870200  0.62643800  0.36474900  1
  B  B120  1  0.87741000  0.75012000  0.33529000  1
  B  B121  1  0.00185700  0.87456700  0.36640200  1
  B  B122  1  0.08983700  0.25443000  0.38482200  1
  B  B123  1  0.86828100  0.14928400  0.32871400  1
  B  B124  1  0.12643800  0.45870200  0.36474900  1
  B  B125  1  0.07462700  0.23029500  0.34699900  1
  B  B126  1  0.27191600  0.42758400  0.39632100  1
  B  B127  1  0.18131000  0.05402000  0.36797300  1
  B  B128  1  0.90575700  0.77846600  0.29908500  1
  B  B129  1  0.25012000  0.37741000  0.33529000  1
  B  B130  1  0.37456700  0.50185700  0.36640200  1
  B  B131  1  0.28396100  0.12829300  0.33805400  1
  B  B132  1  0.48125000  0.32558200  0.38737600  1
  B  B133  1  0.42943900  0.09717500  0.36962600  1
  B  B134  1  0.28759600  0.00659300  0.30566100  1
  B  B135  1  0.46604000  0.30144600  0.34955300  1
  B  B136  1  0.55402000  0.68131000  0.36797300  1
  B  B137  1  0.27846600  0.40575700  0.29908500  1
  B  B138  1  0.59717500  0.92943900  0.36962600  1
  B  B139  1  0.75443000  0.58983700  0.38482200  1
  B  B140  1  0.62829300  0.78396100  0.33805400  1
  B  B141  1  0.82558200  0.98125000  0.38737600  1
  B  B142  1  0.50659300  0.78759600  0.30566100  1
  B  B143  1  0.24928400  0.96828100  0.22871400  1
  B  B144  1  0.33029500  0.17462700  0.24699900  1
  B  B145  1  0.52758400  0.37191600  0.29632100  1
  B  B146  1  0.40144600  0.56604000  0.24955300  1
  B  B147  1  0.55870200  0.22643800  0.26474900  1
  B  B148  1  0.47741000  0.35012000  0.23529000  1
  B  B149  1  0.60185700  0.47456700  0.26640200  1
  B  B150  1  0.68983700  0.85443000  0.28482200  1
  B  B151  1  0.46828100  0.74928400  0.22871400  1
  B  B152  1  0.72643800  0.05870200  0.26474900  1
  B  B153  1  0.67462700  0.83029500  0.24699900  1
  B  B154  1  0.87191600  0.02758400  0.29632100  1
  B  B155  1  0.78131000  0.65402000  0.26797300  1
  B  B156  1  0.50575700  0.37846600  0.19908500  1
  B  B157  1  0.85012000  0.97741000  0.23529000  1
  B  B158  1  0.97456700  0.10185700  0.26640200  1
  B  B159  1  0.88396100  0.72829300  0.23805400  1
  B  B160  1  0.08125000  0.92558200  0.28737600  1
  B  B161  1  0.02943900  0.69717500  0.26962600  1
  B  B162  1  0.88759600  0.60659300  0.20566100  1
  B  B163  1  0.06604000  0.90144600  0.24955300  1
  B  B164  1  0.15402000  0.28131000  0.26797300  1
  B  B165  1  0.87846600  0.00575700  0.19908500  1
  B  B166  1  0.19717500  0.52943900  0.26962600  1
  B  B167  1  0.35443000  0.18983700  0.28482200  1
  B  B168  1  0.22829300  0.38396100  0.23805400  1
  B  B169  1  0.42558200  0.58125000  0.28737600  1
  B  B170  1  0.10659300  0.38759600  0.20566100  1
