# generated using pymatgen
data_Mg16In7
_symmetry_space_group_name_H-M   'P 1'
_cell_length_a   6.31272291
_cell_length_b   8.73688585
_cell_length_c   44.95231700
_cell_angle_alpha   85.26825975
_cell_angle_beta   85.97361685
_cell_angle_gamma   68.82187958
_symmetry_Int_Tables_number   1
_chemical_formula_structural   Mg16In7
_chemical_formula_sum   'Mg32 In14'
_cell_volume   2301.77444013
_cell_formula_units_Z   2
loop_
 _symmetry_equiv_pos_site_id
 _symmetry_equiv_pos_as_xyz
  1  'x, y, z'
loop_
 _atom_site_type_symbol
 _atom_site_label
 _atom_site_symmetry_multiplicity
 _atom_site_fract_x
 _atom_site_fract_y
 _atom_site_fract_z
 _atom_site_occupancy
  Mg  Mg0  1  0.85244500  0.56544800  0.72966300  1
  Mg  Mg1  1  0.95102600  0.43985500  0.65809200  1
  Mg  Mg2  1  0.49829000  0.29806500  0.70535600  1
  Mg  Mg3  1  0.30518100  0.70723800  0.68240000  1
  Mg  Mg4  1  0.72316400  0.28836600  0.76530600  1
  Mg  Mg5  1  0.22316400  0.28836600  0.76530600  1
  Mg  Mg6  1  0.92593700  0.91661600  0.73151100  1
  Mg  Mg7  1  0.37753400  0.08868700  0.65624400  1
  Mg  Mg8  1  0.87753400  0.08868700  0.65624400  1
  Mg  Mg9  1  0.42593700  0.91661600  0.73151100  1
  Mg  Mg10  1  0.70958700  0.99401900  0.58680600  1
  Mg  Mg11  1  0.80816900  0.86842700  0.51523500  1
  Mg  Mg12  1  0.35543300  0.72663600  0.56249800  1
  Mg  Mg13  1  0.16232400  0.13581000  0.53954200  1
  Mg  Mg14  1  0.58030700  0.71693700  0.62244900  1
  Mg  Mg15  1  0.08030700  0.71693700  0.62244900  1
  Mg  Mg16  1  0.78308000  0.34518700  0.58865400  1
  Mg  Mg17  1  0.23467700  0.51725800  0.51338700  1
  Mg  Mg18  1  0.73467700  0.51725800  0.51338700  1
  Mg  Mg19  1  0.28308000  0.34518700  0.58865400  1
  Mg  Mg20  1  0.56673000  0.42259100  0.44394900  1
  Mg  Mg21  1  0.66531200  0.29699800  0.37237800  1
  Mg  Mg22  1  0.21257600  0.15520800  0.41964100  1
  Mg  Mg23  1  0.01946700  0.56438100  0.39668500  1
  Mg  Mg24  1  0.43745000  0.14550900  0.47959200  1
  Mg  Mg25  1  0.93745000  0.14550900  0.47959200  1
  Mg  Mg26  1  0.64022200  0.77375900  0.44579600  1
  Mg  Mg27  1  0.09182000  0.94583000  0.37053000  1
  Mg  Mg28  1  0.59182000  0.94583000  0.37053000  1
  Mg  Mg29  1  0.14022200  0.77375900  0.44579600  1
  Mg  Mg30  1  0.29459300  0.57408000  0.33673500  1
  Mg  Mg31  1  0.79459300  0.57408000  0.33673500  1
  In  In32  1  0.76301400  0.79677900  0.67719300  1
  In  In33  1  0.04045700  0.20852400  0.71056200  1
  In  In34  1  0.61507800  0.98466200  0.78518300  1
  In  In35  1  0.33125000  0.59207000  0.74543000  1
  In  In36  1  0.62015700  0.22535100  0.53433600  1
  In  In37  1  0.89760000  0.63709500  0.56770500  1
  In  In38  1  0.47222100  0.41323300  0.64232500  1
  In  In39  1  0.18839300  0.02064100  0.60257300  1
  In  In40  1  0.47730000  0.65392200  0.39147900  1
  In  In41  1  0.75474300  0.06566700  0.42484800  1
  In  In42  1  0.32936400  0.84180500  0.49946800  1
  In  In43  1  0.04553600  0.44921300  0.45971500  1
  In  In44  1  0.18650600  0.27037600  0.35661100  1
  In  In45  1  0.90267900  0.87778400  0.31685800  1
