# generated using pymatgen
data_Mg2Sc
_symmetry_space_group_name_H-M   'P 1'
_cell_length_a   3.25178700
_cell_length_b   17.39149928
_cell_length_c   49.72144200
_cell_angle_alpha   92.07066956
_cell_angle_beta   90.00000000
_cell_angle_gamma   90.00000000
_symmetry_Int_Tables_number   1
_chemical_formula_structural   Mg2Sc
_chemical_formula_sum   'Mg48 Sc24'
_cell_volume   2810.08302364
_cell_formula_units_Z   24
loop_
 _symmetry_equiv_pos_site_id
 _symmetry_equiv_pos_as_xyz
  1  'x, y, z'
loop_
 _atom_site_type_symbol
 _atom_site_label
 _atom_site_symmetry_multiplicity
 _atom_site_fract_x
 _atom_site_fract_y
 _atom_site_fract_z
 _atom_site_occupancy
  Mg  Mg0  1  0.00000000  0.95113000  0.26098600  1
  Mg  Mg1  1  0.50000000  0.80113300  0.27765200  1
  Mg  Mg2  1  0.50000000  0.64887000  0.23901400  1
  Mg  Mg3  1  0.00000000  0.79886700  0.22234800  1
  Mg  Mg4  1  0.50000000  0.40113000  0.21098600  1
  Mg  Mg5  1  0.00000000  0.25113300  0.22765200  1
  Mg  Mg6  1  0.00000000  0.19887000  0.28901400  1
  Mg  Mg7  1  0.50000000  0.34886700  0.27234800  1
  Mg  Mg8  1  0.00000000  0.05113000  0.36098600  1
  Mg  Mg9  1  0.50000000  0.90113300  0.37765200  1
  Mg  Mg10  1  0.50000000  0.74887000  0.33901400  1
  Mg  Mg11  1  0.00000000  0.89886700  0.32234800  1
  Mg  Mg12  1  0.50000000  0.50113000  0.31098600  1
  Mg  Mg13  1  0.00000000  0.35113300  0.32765200  1
  Mg  Mg14  1  0.00000000  0.29887000  0.38901400  1
  Mg  Mg15  1  0.50000000  0.44886700  0.37234800  1
  Mg  Mg16  1  0.00000000  0.15113000  0.46098600  1
  Mg  Mg17  1  0.50000000  0.00113300  0.47765200  1
  Mg  Mg18  1  0.50000000  0.84887000  0.43901400  1
  Mg  Mg19  1  0.00000000  0.99886700  0.42234800  1
  Mg  Mg20  1  0.50000000  0.60113000  0.41098600  1
  Mg  Mg21  1  0.00000000  0.45113300  0.42765200  1
  Mg  Mg22  1  0.00000000  0.39887000  0.48901400  1
  Mg  Mg23  1  0.50000000  0.54886700  0.47234800  1
  Mg  Mg24  1  0.00000000  0.25113000  0.56098600  1
  Mg  Mg25  1  0.50000000  0.10113300  0.57765200  1
  Mg  Mg26  1  0.50000000  0.94887000  0.53901400  1
  Mg  Mg27  1  0.00000000  0.09886700  0.52234800  1
  Mg  Mg28  1  0.50000000  0.70113000  0.51098600  1
  Mg  Mg29  1  0.00000000  0.55113300  0.52765200  1
  Mg  Mg30  1  0.00000000  0.49887000  0.58901400  1
  Mg  Mg31  1  0.50000000  0.64886700  0.57234800  1
  Mg  Mg32  1  0.00000000  0.35113000  0.66098600  1
  Mg  Mg33  1  0.50000000  0.20113300  0.67765200  1
  Mg  Mg34  1  0.50000000  0.04887000  0.63901400  1
  Mg  Mg35  1  0.00000000  0.19886700  0.62234800  1
  Mg  Mg36  1  0.50000000  0.80113000  0.61098600  1
  Mg  Mg37  1  0.00000000  0.65113300  0.62765200  1
  Mg  Mg38  1  0.00000000  0.59887000  0.68901400  1
  Mg  Mg39  1  0.50000000  0.74886700  0.67234800  1
  Mg  Mg40  1  0.00000000  0.45113000  0.76098600  1
  Mg  Mg41  1  0.50000000  0.30113300  0.77765200  1
  Mg  Mg42  1  0.50000000  0.14887000  0.73901400  1
  Mg  Mg43  1  0.00000000  0.29886700  0.72234800  1
  Mg  Mg44  1  0.50000000  0.90113000  0.71098600  1
  Mg  Mg45  1  1.00000000  0.75113300  0.72765200  1
  Mg  Mg46  1  0.00000000  0.69887000  0.78901400  1
  Mg  Mg47  1  0.50000000  0.84886700  0.77234800  1
  Sc  Sc48  1  0.00000000  0.65101100  0.29433200  1
  Sc  Sc49  1  0.50000000  0.94898900  0.20566800  1
  Sc  Sc50  1  0.50000000  0.10101100  0.24433200  1
  Sc  Sc51  1  0.00000000  0.49898900  0.25566800  1
  Sc  Sc52  1  0.00000000  0.75101100  0.39433200  1
  Sc  Sc53  1  0.50000000  0.04898900  0.30566800  1
  Sc  Sc54  1  0.50000000  0.20101100  0.34433200  1
  Sc  Sc55  1  0.00000000  0.59898900  0.35566800  1
  Sc  Sc56  1  0.00000000  0.85101100  0.49433200  1
  Sc  Sc57  1  0.50000000  0.14898900  0.40566800  1
  Sc  Sc58  1  0.50000000  0.30101100  0.44433200  1
  Sc  Sc59  1  0.00000000  0.69898900  0.45566800  1
  Sc  Sc60  1  0.00000000  0.95101100  0.59433200  1
  Sc  Sc61  1  0.50000000  0.24898900  0.50566800  1
  Sc  Sc62  1  0.50000000  0.40101100  0.54433200  1
  Sc  Sc63  1  0.00000000  0.79898900  0.55566800  1
  Sc  Sc64  1  0.00000000  0.05101100  0.69433200  1
  Sc  Sc65  1  0.50000000  0.34898900  0.60566800  1
  Sc  Sc66  1  0.50000000  0.50101100  0.64433200  1
  Sc  Sc67  1  0.00000000  0.89898900  0.65566800  1
  Sc  Sc68  1  0.00000000  0.15101100  0.79433200  1
  Sc  Sc69  1  0.50000000  0.44898900  0.70566800  1
  Sc  Sc70  1  0.50000000  0.60101100  0.74433200  1
  Sc  Sc71  1  0.00000000  0.99898900  0.75566800  1
