# generated using pymatgen
data_Mg7Au3
_symmetry_space_group_name_H-M   'P 1'
_cell_length_a   6.30829800
_cell_length_b   9.63509784
_cell_length_c   43.05516600
_cell_angle_alpha   93.60749084
_cell_angle_beta   90.00000000
_cell_angle_gamma   90.00000000
_symmetry_Int_Tables_number   1
_chemical_formula_structural   Mg7Au3
_chemical_formula_sum   'Mg56 Au24'
_cell_volume   2611.75355536
_cell_formula_units_Z   8
loop_
 _symmetry_equiv_pos_site_id
 _symmetry_equiv_pos_as_xyz
  1  'x, y, z'
loop_
 _atom_site_type_symbol
 _atom_site_label
 _atom_site_symmetry_multiplicity
 _atom_site_fract_x
 _atom_site_fract_y
 _atom_site_fract_z
 _atom_site_occupancy
  Mg  Mg0  1  0.16681800  0.06362800  0.76027700  1
  Mg  Mg1  1  0.66681800  0.56045700  0.81548000  1
  Mg  Mg2  1  0.83318200  0.06045700  0.81548000  1
  Mg  Mg3  1  0.33318200  0.56362800  0.76027700  1
  Mg  Mg4  1  0.53839600  0.26583500  0.78274500  1
  Mg  Mg5  1  0.03839600  0.35825100  0.79301300  1
  Mg  Mg6  1  0.46160400  0.85825100  0.79301300  1
  Mg  Mg7  1  0.96160400  0.76583500  0.78274500  1
  Mg  Mg8  1  0.16681800  0.24544600  0.66936800  1
  Mg  Mg9  1  0.66681800  0.74227500  0.72457100  1
  Mg  Mg10  1  0.83318200  0.24227500  0.72457100  1
  Mg  Mg11  1  0.33318200  0.74544600  0.66936800  1
  Mg  Mg12  1  0.53839600  0.44765300  0.69183500  1
  Mg  Mg13  1  0.03839600  0.54006900  0.70210400  1
  Mg  Mg14  1  0.46160400  0.04006900  0.70210400  1
  Mg  Mg15  1  0.96160400  0.94765300  0.69183500  1
  Mg  Mg16  1  0.16681800  0.42726400  0.57845900  1
  Mg  Mg17  1  0.66681800  0.92409400  0.63366200  1
  Mg  Mg18  1  0.83318200  0.42409400  0.63366200  1
  Mg  Mg19  1  0.33318200  0.92726400  0.57845900  1
  Mg  Mg20  1  0.53839600  0.62947100  0.60092600  1
  Mg  Mg21  1  0.03839600  0.72188700  0.61119500  1
  Mg  Mg22  1  0.46160400  0.22188700  0.61119500  1
  Mg  Mg23  1  0.96160400  0.12947100  0.60092600  1
  Mg  Mg24  1  0.16681800  0.60908200  0.48755000  1
  Mg  Mg25  1  0.66681800  0.10591200  0.54275300  1
  Mg  Mg26  1  0.83318200  0.60591200  0.54275300  1
  Mg  Mg27  1  0.33318200  0.10908200  0.48755000  1
  Mg  Mg28  1  0.53839600  0.81128900  0.51001700  1
  Mg  Mg29  1  0.03839600  0.90370500  0.52028600  1
  Mg  Mg30  1  0.46160400  0.40370500  0.52028600  1
  Mg  Mg31  1  0.96160400  0.31128900  0.51001700  1
  Mg  Mg32  1  0.16681800  0.79090100  0.39664100  1
  Mg  Mg33  1  0.66681800  0.28773000  0.45184400  1
  Mg  Mg34  1  0.83318200  0.78773000  0.45184400  1
  Mg  Mg35  1  0.33318200  0.29090100  0.39664100  1
  Mg  Mg36  1  0.53839600  0.99310700  0.41910800  1
  Mg  Mg37  1  0.03839600  0.08552300  0.42937700  1
  Mg  Mg38  1  0.46160400  0.58552300  0.42937700  1
  Mg  Mg39  1  0.96160400  0.49310700  0.41910800  1
  Mg  Mg40  1  0.16681800  0.97271900  0.30573200  1
  Mg  Mg41  1  0.66681800  0.46954800  0.36093500  1
  Mg  Mg42  1  0.83318200  0.96954800  0.36093500  1
  Mg  Mg43  1  0.33318200  0.47271900  0.30573200  1
  Mg  Mg44  1  0.53839600  0.17492500  0.32819900  1
  Mg  Mg45  1  0.03839600  0.26734100  0.33846800  1
  Mg  Mg46  1  0.46160400  0.76734100  0.33846800  1
  Mg  Mg47  1  0.96160400  0.67492500  0.32819900  1
  Mg  Mg48  1  0.16681800  0.15453700  0.21482300  1
  Mg  Mg49  1  0.66681800  0.65136600  0.27002600  1
  Mg  Mg50  1  0.83318200  0.15136600  0.27002600  1
  Mg  Mg51  1  0.33318200  0.65453700  0.21482300  1
  Mg  Mg52  1  0.53839600  0.35674400  0.23729000  1
  Mg  Mg53  1  0.03839600  0.44916000  0.24755800  1
  Mg  Mg54  1  0.46160400  0.94916000  0.24755800  1
  Mg  Mg55  1  0.96160400  0.85674400  0.23729000  1
  Au  Au56  1  0.73655600  0.00171800  0.75339800  1
  Au  Au57  1  0.23655600  0.80418600  0.73145000  1
  Au  Au58  1  0.26344400  0.30418600  0.73145000  1
  Au  Au59  1  0.76344400  0.50171800  0.75339800  1
  Au  Au60  1  0.73655600  0.18353600  0.66248900  1
  Au  Au61  1  0.23655600  0.98600400  0.64054100  1
  Au  Au62  1  0.26344400  0.48600400  0.64054100  1
  Au  Au63  1  0.76344400  0.68353600  0.66248900  1
  Au  Au64  1  0.73655600  0.36535400  0.57158000  1
  Au  Au65  1  0.23655600  0.16782200  0.54963200  1
  Au  Au66  1  0.26344400  0.66782200  0.54963200  1
  Au  Au67  1  0.76344400  0.86535400  0.57158000  1
  Au  Au68  1  0.73655600  0.54717200  0.48067100  1
  Au  Au69  1  0.23655600  0.34964000  0.45872300  1
  Au  Au70  1  0.26344400  0.84964000  0.45872300  1
  Au  Au71  1  0.76344400  0.04717200  0.48067100  1
  Au  Au72  1  0.73655600  0.72899000  0.38976200  1
  Au  Au73  1  0.23655600  0.53145800  0.36781400  1
  Au  Au74  1  0.26344400  0.03145800  0.36781400  1
  Au  Au75  1  0.76344400  0.22899000  0.38976200  1
  Au  Au76  1  0.73655600  0.91080900  0.29885300  1
  Au  Au77  1  0.23655600  0.71327700  0.27690500  1
  Au  Au78  1  0.26344400  0.21327700  0.27690500  1
  Au  Au79  1  0.76344400  0.41080900  0.29885300  1
