# generated using pymatgen
data_Yb20Mg9
_symmetry_space_group_name_H-M   'P 1'
_cell_length_a   3.76282700
_cell_length_b   19.46963027
_cell_length_c   45.10541200
_cell_angle_alpha   96.74616046
_cell_angle_beta   90.00000000
_cell_angle_gamma   90.00000000
_symmetry_Int_Tables_number   1
_chemical_formula_structural   Yb20Mg9
_chemical_formula_sum   'Yb40 Mg18'
_cell_volume   3281.58185130
_cell_formula_units_Z   2
loop_
 _symmetry_equiv_pos_site_id
 _symmetry_equiv_pos_as_xyz
  1  'x, y, z'
loop_
 _atom_site_type_symbol
 _atom_site_label
 _atom_site_symmetry_multiplicity
 _atom_site_fract_x
 _atom_site_fract_y
 _atom_site_fract_z
 _atom_site_occupancy
  Yb  Yb0  1  0.50000000  0.92872000  0.20945500  1
  Yb  Yb1  1  0.00000000  0.76155600  0.23333500  1
  Yb  Yb2  1  0.00000000  0.71525500  0.31137800  1
  Yb  Yb3  1  0.50000000  0.88241800  0.28749800  1
  Yb  Yb4  1  0.00000000  0.49122000  0.27195500  1
  Yb  Yb5  1  0.50000000  0.32405600  0.29583500  1
  Yb  Yb6  1  0.50000000  0.15275500  0.24887800  1
  Yb  Yb7  1  1.00000000  0.31991800  0.22499800  1
  Yb  Yb8  1  0.50000000  0.05372000  0.33445500  1
  Yb  Yb9  1  0.00000000  0.88655600  0.35833500  1
  Yb  Yb10  1  0.00000000  0.84025500  0.43637800  1
  Yb  Yb11  1  0.50000000  0.00741800  0.41249800  1
  Yb  Yb12  1  0.00000000  0.61622000  0.39695500  1
  Yb  Yb13  1  0.50000000  0.44905600  0.42083500  1
  Yb  Yb14  1  0.50000000  0.27775500  0.37387800  1
  Yb  Yb15  1  0.00000000  0.44491800  0.34999800  1
  Yb  Yb16  1  0.50000000  0.17872000  0.45945500  1
  Yb  Yb17  1  0.00000000  0.01155600  0.48333500  1
  Yb  Yb18  1  0.00000000  0.96525500  0.56137800  1
  Yb  Yb19  1  0.50000000  0.13241800  0.53749800  1
  Yb  Yb20  1  0.00000000  0.74122000  0.52195500  1
  Yb  Yb21  1  0.50000000  0.57405600  0.54583500  1
  Yb  Yb22  1  0.50000000  0.40275500  0.49887800  1
  Yb  Yb23  1  0.00000000  0.56991800  0.47499800  1
  Yb  Yb24  1  0.50000000  0.30372000  0.58445500  1
  Yb  Yb25  1  0.00000000  0.13655600  0.60833500  1
  Yb  Yb26  1  0.00000000  0.09025500  0.68637800  1
  Yb  Yb27  1  0.50000000  0.25741800  0.66249800  1
  Yb  Yb28  1  0.00000000  0.86622000  0.64695500  1
  Yb  Yb29  1  0.50000000  0.69905600  0.67083500  1
  Yb  Yb30  1  0.50000000  0.52775500  0.62387800  1
  Yb  Yb31  1  0.00000000  0.69491800  0.59999800  1
  Yb  Yb32  1  0.50000000  0.42872000  0.70945500  1
  Yb  Yb33  1  0.00000000  0.26155600  0.73333500  1
  Yb  Yb34  1  0.00000000  0.21525500  0.81137800  1
  Yb  Yb35  1  0.50000000  0.38241800  0.78749800  1
  Yb  Yb36  1  0.00000000  0.99122000  0.77195500  1
  Yb  Yb37  1  0.50000000  0.82405600  0.79583500  1
  Yb  Yb38  1  0.50000000  0.65275500  0.74887800  1
  Yb  Yb39  1  0.00000000  0.81991800  0.72499800  1
  Mg  Mg40  1  0.50000000  0.62404300  0.25298000  1
  Mg  Mg41  1  0.00000000  0.01993100  0.26785300  1
  Mg  Mg42  1  0.50000000  0.74904300  0.37798000  1
  Mg  Mg43  1  0.00000000  0.14493100  0.39285300  1
  Mg  Mg44  1  0.00000000  0.18654300  0.31548000  1
  Mg  Mg45  1  0.50000000  0.58243100  0.33035300  1
  Mg  Mg46  1  0.50000000  0.87404300  0.50298000  1
  Mg  Mg47  1  1.00000000  0.26993100  0.51785300  1
  Mg  Mg48  1  1.00000000  0.31154300  0.44048000  1
  Mg  Mg49  1  0.50000000  0.70743100  0.45535300  1
  Mg  Mg50  1  0.50000000  0.99904300  0.62798000  1
  Mg  Mg51  1  0.00000000  0.39493100  0.64285300  1
  Mg  Mg52  1  0.00000000  0.43654300  0.56548000  1
  Mg  Mg53  1  0.50000000  0.83243100  0.58035300  1
  Mg  Mg54  1  0.50000000  0.12404300  0.75298000  1
  Mg  Mg55  1  1.00000000  0.51993100  0.76785300  1
  Mg  Mg56  1  0.00000000  0.56154300  0.69048000  1
  Mg  Mg57  1  0.50000000  0.95743100  0.70535300  1
