# generated using pymatgen
data_Mg90Ir143
_symmetry_space_group_name_H-M   'P 1'
_cell_length_a   8.54477400
_cell_length_b   18.72038930
_cell_length_c   41.97660000
_cell_angle_alpha   90.00000000
_cell_angle_beta   90.00000000
_cell_angle_gamma   97.06430799
_symmetry_Int_Tables_number   1
_chemical_formula_structural   Mg90Ir143
_chemical_formula_sum   'Mg90 Ir143'
_cell_volume   6663.66716223
_cell_formula_units_Z   1
loop_
 _symmetry_equiv_pos_site_id
 _symmetry_equiv_pos_as_xyz
  1  'x, y, z'
loop_
 _atom_site_type_symbol
 _atom_site_label
 _atom_site_symmetry_multiplicity
 _atom_site_fract_x
 _atom_site_fract_y
 _atom_site_fract_z
 _atom_site_occupancy
  Mg  Mg0  1  0.08466200  0.78013600  0.22875000  1
  Mg  Mg1  1  0.91533800  0.71986400  0.29125000  1
  Mg  Mg2  1  0.38330400  0.55456700  0.29125000  1
  Mg  Mg3  1  0.61669600  0.94543300  0.22875000  1
  Mg  Mg4  1  0.44450800  0.79076000  0.22875000  1
  Mg  Mg5  1  0.55549200  0.70924000  0.29125000  1
  Mg  Mg6  1  0.00211300  0.92230000  0.22875000  1
  Mg  Mg7  1  0.99788700  0.57770000  0.29125000  1
  Mg  Mg8  1  0.18144200  0.52103200  0.22875000  1
  Mg  Mg9  1  0.81855800  0.97896800  0.29125000  1
  Mg  Mg10  1  0.08466200  0.28013600  0.29125000  1
  Mg  Mg11  1  0.91533800  0.21986400  0.22875000  1
  Mg  Mg12  1  0.38330400  0.05456700  0.22875000  1
  Mg  Mg13  1  0.61669600  0.44543300  0.29125000  1
  Mg  Mg14  1  0.44450800  0.29076000  0.29125000  1
  Mg  Mg15  1  0.55549200  0.20924000  0.22875000  1
  Mg  Mg16  1  0.00211300  0.42230000  0.29125000  1
  Mg  Mg17  1  0.99788700  0.07770000  0.22875000  1
  Mg  Mg18  1  0.18144200  0.02103200  0.29125000  1
  Mg  Mg19  1  0.81855800  0.47896800  0.22875000  1
  Mg  Mg20  1  0.08466200  0.78013600  0.35375000  1
  Mg  Mg21  1  0.91533800  0.71986400  0.41625000  1
  Mg  Mg22  1  0.38330400  0.55456700  0.41625000  1
  Mg  Mg23  1  0.61669600  0.94543300  0.35375000  1
  Mg  Mg24  1  0.44450800  0.79076000  0.35375000  1
  Mg  Mg25  1  0.55549200  0.70924000  0.41625000  1
  Mg  Mg26  1  0.00211300  0.92230000  0.35375000  1
  Mg  Mg27  1  0.99788700  0.57770000  0.41625000  1
  Mg  Mg28  1  0.18144200  0.52103200  0.35375000  1
  Mg  Mg29  1  0.81855800  0.97896800  0.41625000  1
  Mg  Mg30  1  0.08466200  0.28013600  0.41625000  1
  Mg  Mg31  1  0.91533800  0.21986400  0.35375000  1
  Mg  Mg32  1  0.38330400  0.05456700  0.35375000  1
  Mg  Mg33  1  0.61669600  0.44543300  0.41625000  1
  Mg  Mg34  1  0.44450800  0.29076000  0.41625000  1
  Mg  Mg35  1  0.55549200  0.20924000  0.35375000  1
  Mg  Mg36  1  0.00211300  0.42230000  0.41625000  1
  Mg  Mg37  1  0.99788700  0.07770000  0.35375000  1
  Mg  Mg38  1  0.18144200  0.02103200  0.41625000  1
  Mg  Mg39  1  0.81855800  0.47896800  0.35375000  1
  Mg  Mg40  1  0.08466200  0.78013600  0.47875000  1
  Mg  Mg41  1  0.91533800  0.71986400  0.54125000  1
  Mg  Mg42  1  0.38330400  0.55456700  0.54125000  1
  Mg  Mg43  1  0.61669600  0.94543300  0.47875000  1
  Mg  Mg44  1  0.44450800  0.79076000  0.47875000  1
  Mg  Mg45  1  0.55549200  0.70924000  0.54125000  1
  Mg  Mg46  1  0.00211300  0.92230000  0.47875000  1
  Mg  Mg47  1  0.99788700  0.57770000  0.54125000  1
  Mg  Mg48  1  0.18144200  0.52103200  0.47875000  1
  Mg  Mg49  1  0.81855800  0.97896800  0.54125000  1
  Mg  Mg50  1  0.08466200  0.28013600  0.54125000  1
  Mg  Mg51  1  0.91533800  0.21986400  0.47875000  1
  Mg  Mg52  1  0.38330400  0.05456700  0.47875000  1
  Mg  Mg53  1  0.61669600  0.44543300  0.54125000  1
  Mg  Mg54  1  0.44450800  0.29076000  0.54125000  1
  Mg  Mg55  1  0.55549200  0.20924000  0.47875000  1
  Mg  Mg56  1  0.00211300  0.42230000  0.54125000  1
  Mg  Mg57  1  0.99788700  0.07770000  0.47875000  1
  Mg  Mg58  1  0.18144200  0.02103200  0.54125000  1
  Mg  Mg59  1  0.81855800  0.47896800  0.47875000  1
  Mg  Mg60  1  0.08466200  0.78013600  0.60375000  1
  Mg  Mg61  1  0.91533800  0.71986400  0.66625000  1
  Mg  Mg62  1  0.38330400  0.55456700  0.66625000  1
  Mg  Mg63  1  0.61669600  0.94543300  0.60375000  1
  Mg  Mg64  1  0.44450800  0.79076000  0.60375000  1
  Mg  Mg65  1  0.55549200  0.70924000  0.66625000  1
  Mg  Mg66  1  0.00211300  0.92230000  0.60375000  1
  Mg  Mg67  1  0.99788700  0.57770000  0.66625000  1
  Mg  Mg68  1  0.18144200  0.52103200  0.60375000  1
  Mg  Mg69  1  0.81855800  0.97896800  0.66625000  1
  Mg  Mg70  1  0.08466200  0.28013600  0.66625000  1
  Mg  Mg71  1  0.91533800  0.21986400  0.60375000  1
  Mg  Mg72  1  0.38330400  0.05456700  0.60375000  1
  Mg  Mg73  1  0.61669600  0.44543300  0.66625000  1
  Mg  Mg74  1  0.44450800  0.29076000  0.66625000  1
  Mg  Mg75  1  0.55549200  0.20924000  0.60375000  1
  Mg  Mg76  1  0.00211300  0.42230000  0.66625000  1
  Mg  Mg77  1  0.99788700  0.07770000  0.60375000  1
  Mg  Mg78  1  0.18144200  0.02103200  0.66625000  1
  Mg  Mg79  1  0.81855800  0.47896800  0.60375000  1
  Mg  Mg80  1  0.08466200  0.78013600  0.72875000  1
  Mg  Mg81  1  0.61669600  0.94543300  0.72875000  1
  Mg  Mg82  1  0.44450800  0.79076000  0.72875000  1
  Mg  Mg83  1  0.00211300  0.92230000  0.72875000  1
  Mg  Mg84  1  0.18144200  0.52103200  0.72875000  1
  Mg  Mg85  1  0.91533800  0.21986400  0.72875000  1
  Mg  Mg86  1  0.38330400  0.05456700  0.72875000  1
  Mg  Mg87  1  0.55549200  0.20924000  0.72875000  1
  Mg  Mg88  1  0.99788700  0.07770000  0.72875000  1
  Mg  Mg89  1  0.81855800  0.47896800  0.72875000  1
  Ir  Ir90  1  0.02832100  0.86887800  0.29125000  1
  Ir  Ir91  1  0.97167900  0.63112200  0.22875000  1
  Ir  Ir92  1  0.22952800  0.66794400  0.26006100  1
  Ir  Ir93  1  0.77047200  0.83205600  0.25993900  1
  Ir  Ir94  1  0.77047200  0.83205600  0.19756100  1
  Ir  Ir95  1  0.22952800  0.66794400  0.19743900  1
  Ir  Ir96  1  0.50000000  0.00000000  0.29125000  1
  Ir  Ir97  1  0.74302300  0.71596400  0.22875000  1
  Ir  Ir98  1  0.25697700  0.78403600  0.29125000  1
  Ir  Ir99  1  0.46688500  0.63582800  0.22875000  1
  Ir  Ir100  1  0.53311500  0.86417200  0.29125000  1
  Ir  Ir101  1  0.29590700  0.90923200  0.25799200  1
  Ir  Ir102  1  0.70409300  0.59076800  0.26200800  1
  Ir  Ir103  1  0.70409300  0.59076800  0.19549200  1
  Ir  Ir104  1  0.29590700  0.90923200  0.19950800  1
  Ir  Ir105  1  0.02832100  0.36887800  0.22875000  1
  Ir  Ir106  1  0.97167900  0.13112200  0.29125000  1
  Ir  Ir107  1  0.22952800  0.16794400  0.19756100  1
  Ir  Ir108  1  0.77047200  0.33205600  0.19743900  1
  Ir  Ir109  1  0.77047200  0.33205600  0.26006100  1
  Ir  Ir110  1  0.22952800  0.16794400  0.25993900  1
  Ir  Ir111  1  0.50000000  0.50000000  0.22875000  1
  Ir  Ir112  1  0.74302300  0.21596400  0.29125000  1
  Ir  Ir113  1  0.25697700  0.28403600  0.22875000  1
  Ir  Ir114  1  0.46688500  0.13582800  0.29125000  1
  Ir  Ir115  1  0.53311500  0.36417200  0.22875000  1
  Ir  Ir116  1  0.29590700  0.40923200  0.19549200  1
  Ir  Ir117  1  0.70409300  0.09076800  0.19950800  1
  Ir  Ir118  1  0.70409300  0.09076800  0.25799200  1
  Ir  Ir119  1  0.29590700  0.40923200  0.26200800  1
  Ir  Ir120  1  0.02832100  0.86887800  0.41625000  1
  Ir  Ir121  1  0.97167900  0.63112200  0.35375000  1
  Ir  Ir122  1  0.22952800  0.66794400  0.38506100  1
  Ir  Ir123  1  0.77047200  0.83205600  0.38493900  1
  Ir  Ir124  1  0.77047200  0.83205600  0.32256100  1
  Ir  Ir125  1  0.22952800  0.66794400  0.32243900  1
  Ir  Ir126  1  0.50000000  0.00000000  0.41625000  1
  Ir  Ir127  1  0.74302300  0.71596400  0.35375000  1
  Ir  Ir128  1  0.25697700  0.78403600  0.41625000  1
  Ir  Ir129  1  0.46688500  0.63582800  0.35375000  1
  Ir  Ir130  1  0.53311500  0.86417200  0.41625000  1
  Ir  Ir131  1  0.29590700  0.90923200  0.38299200  1
  Ir  Ir132  1  0.70409300  0.59076800  0.38700800  1
  Ir  Ir133  1  0.70409300  0.59076800  0.32049200  1
  Ir  Ir134  1  0.29590700  0.90923200  0.32450800  1
  Ir  Ir135  1  0.02832100  0.36887800  0.35375000  1
  Ir  Ir136  1  0.97167900  0.13112200  0.41625000  1
  Ir  Ir137  1  0.22952800  0.16794400  0.32256100  1
  Ir  Ir138  1  0.77047200  0.33205600  0.32243900  1
  Ir  Ir139  1  0.77047200  0.33205600  0.38506100  1
  Ir  Ir140  1  0.22952800  0.16794400  0.38493900  1
  Ir  Ir141  1  0.50000000  0.50000000  0.35375000  1
  Ir  Ir142  1  0.74302300  0.21596400  0.41625000  1
  Ir  Ir143  1  0.25697700  0.28403600  0.35375000  1
  Ir  Ir144  1  0.46688500  0.13582800  0.41625000  1
  Ir  Ir145  1  0.53311500  0.36417200  0.35375000  1
  Ir  Ir146  1  0.29590700  0.40923200  0.32049200  1
  Ir  Ir147  1  0.70409300  0.09076800  0.32450800  1
  Ir  Ir148  1  0.70409300  0.09076800  0.38299200  1
  Ir  Ir149  1  0.29590700  0.40923200  0.38700800  1
  Ir  Ir150  1  0.02832100  0.86887800  0.54125000  1
  Ir  Ir151  1  0.97167900  0.63112200  0.47875000  1
  Ir  Ir152  1  0.22952800  0.66794400  0.51006100  1
  Ir  Ir153  1  0.77047200  0.83205600  0.50993900  1
  Ir  Ir154  1  0.77047200  0.83205600  0.44756100  1
  Ir  Ir155  1  0.22952800  0.66794400  0.44743900  1
  Ir  Ir156  1  0.50000000  0.00000000  0.54125000  1
  Ir  Ir157  1  0.74302300  0.71596400  0.47875000  1
  Ir  Ir158  1  0.25697700  0.78403600  0.54125000  1
  Ir  Ir159  1  0.46688500  0.63582800  0.47875000  1
  Ir  Ir160  1  0.53311500  0.86417200  0.54125000  1
  Ir  Ir161  1  0.29590700  0.90923200  0.50799200  1
  Ir  Ir162  1  0.70409300  0.59076800  0.51200800  1
  Ir  Ir163  1  0.70409300  0.59076800  0.44549200  1
  Ir  Ir164  1  0.29590700  0.90923200  0.44950800  1
  Ir  Ir165  1  0.02832100  0.36887800  0.47875000  1
  Ir  Ir166  1  0.97167900  0.13112200  0.54125000  1
  Ir  Ir167  1  0.22952800  0.16794400  0.44756100  1
  Ir  Ir168  1  0.77047200  0.33205600  0.44743900  1
  Ir  Ir169  1  0.77047200  0.33205600  0.51006100  1
  Ir  Ir170  1  0.22952800  0.16794400  0.50993900  1
  Ir  Ir171  1  0.50000000  0.50000000  0.47875000  1
  Ir  Ir172  1  0.74302300  0.21596400  0.54125000  1
  Ir  Ir173  1  0.25697700  0.28403600  0.47875000  1
  Ir  Ir174  1  0.46688500  0.13582800  0.54125000  1
  Ir  Ir175  1  0.53311500  0.36417200  0.47875000  1
  Ir  Ir176  1  0.29590700  0.40923200  0.44549200  1
  Ir  Ir177  1  0.70409300  0.09076800  0.44950800  1
  Ir  Ir178  1  0.70409300  0.09076800  0.50799200  1
  Ir  Ir179  1  0.29590700  0.40923200  0.51200800  1
  Ir  Ir180  1  0.02832100  0.86887800  0.66625000  1
  Ir  Ir181  1  0.97167900  0.63112200  0.60375000  1
  Ir  Ir182  1  0.22952800  0.66794400  0.63506100  1
  Ir  Ir183  1  0.77047200  0.83205600  0.63493900  1
  Ir  Ir184  1  0.77047200  0.83205600  0.57256100  1
  Ir  Ir185  1  0.22952800  0.66794400  0.57243900  1
  Ir  Ir186  1  0.50000000  0.00000000  0.66625000  1
  Ir  Ir187  1  0.74302300  0.71596400  0.60375000  1
  Ir  Ir188  1  0.25697700  0.78403600  0.66625000  1
  Ir  Ir189  1  0.46688500  0.63582800  0.60375000  1
  Ir  Ir190  1  0.53311500  0.86417200  0.66625000  1
  Ir  Ir191  1  0.29590700  0.90923200  0.63299200  1
  Ir  Ir192  1  0.70409300  0.59076800  0.63700800  1
  Ir  Ir193  1  0.70409300  0.59076800  0.57049200  1
  Ir  Ir194  1  0.29590700  0.90923200  0.57450800  1
  Ir  Ir195  1  0.02832100  0.36887800  0.60375000  1
  Ir  Ir196  1  0.97167900  0.13112200  0.66625000  1
  Ir  Ir197  1  0.22952800  0.16794400  0.57256100  1
  Ir  Ir198  1  0.77047200  0.33205600  0.57243900  1
  Ir  Ir199  1  0.77047200  0.33205600  0.63506100  1
  Ir  Ir200  1  0.22952800  0.16794400  0.63493900  1
  Ir  Ir201  1  0.50000000  0.50000000  0.60375000  1
  Ir  Ir202  1  0.74302300  0.21596400  0.66625000  1
  Ir  Ir203  1  0.25697700  0.28403600  0.60375000  1
  Ir  Ir204  1  0.46688500  0.13582800  0.66625000  1
  Ir  Ir205  1  0.53311500  0.36417200  0.60375000  1
  Ir  Ir206  1  0.29590700  0.40923200  0.57049200  1
  Ir  Ir207  1  0.70409300  0.09076800  0.57450800  1
  Ir  Ir208  1  0.70409300  0.09076800  0.63299200  1
  Ir  Ir209  1  0.29590700  0.40923200  0.63700800  1
  Ir  Ir210  1  0.97167900  0.63112200  0.72875000  1
  Ir  Ir211  1  0.22952800  0.66794400  0.76006100  1
  Ir  Ir212  1  0.77047200  0.83205600  0.75993900  1
  Ir  Ir213  1  0.77047200  0.83205600  0.69756100  1
  Ir  Ir214  1  0.22952800  0.66794400  0.69743900  1
  Ir  Ir215  1  0.74302300  0.71596400  0.72875000  1
  Ir  Ir216  1  0.46688500  0.63582800  0.72875000  1
  Ir  Ir217  1  0.29590700  0.90923200  0.75799200  1
  Ir  Ir218  1  0.70409300  0.59076800  0.76200800  1
  Ir  Ir219  1  0.70409300  0.59076800  0.69549200  1
  Ir  Ir220  1  0.29590700  0.90923200  0.69950800  1
  Ir  Ir221  1  0.02832100  0.36887800  0.72875000  1
  Ir  Ir222  1  0.22952800  0.16794400  0.69756100  1
  Ir  Ir223  1  0.77047200  0.33205600  0.69743900  1
  Ir  Ir224  1  0.77047200  0.33205600  0.76006100  1
  Ir  Ir225  1  0.22952800  0.16794400  0.75993900  1
  Ir  Ir226  1  0.50000000  0.50000000  0.72875000  1
  Ir  Ir227  1  0.25697700  0.28403600  0.72875000  1
  Ir  Ir228  1  0.53311500  0.36417200  0.72875000  1
  Ir  Ir229  1  0.29590700  0.40923200  0.69549200  1
  Ir  Ir230  1  0.70409300  0.09076800  0.69950800  1
  Ir  Ir231  1  0.70409300  0.09076800  0.75799200  1
  Ir  Ir232  1  0.29590700  0.40923200  0.76200800  1
