# generated using pymatgen
data_Tm19Mg10
_symmetry_space_group_name_H-M   'P 1'
_cell_length_a   3.55930500
_cell_length_b   18.06956911
_cell_length_c   41.68439200
_cell_angle_alpha   96.96437607
_cell_angle_beta   90.00000000
_cell_angle_gamma   90.00000000
_symmetry_Int_Tables_number   1
_chemical_formula_structural   Tm19Mg10
_chemical_formula_sum   'Tm38 Mg20'
_cell_volume   2661.15549663
_cell_formula_units_Z   2
loop_
 _symmetry_equiv_pos_site_id
 _symmetry_equiv_pos_as_xyz
  1  'x, y, z'
loop_
 _atom_site_type_symbol
 _atom_site_label
 _atom_site_symmetry_multiplicity
 _atom_site_fract_x
 _atom_site_fract_y
 _atom_site_fract_z
 _atom_site_occupancy
  Tm  Tm0  1  0.00000000  0.99604500  0.28322000  1
  Tm  Tm1  1  0.50000000  0.84206200  0.30521800  1
  Tm  Tm2  1  0.50000000  0.66945700  0.25844700  1
  Tm  Tm3  1  0.00000000  0.82344000  0.23644900  1
  Tm  Tm4  1  0.50000000  0.43354500  0.22072000  1
  Tm  Tm5  1  0.00000000  0.27956200  0.24271800  1
  Tm  Tm6  1  0.00000000  0.10695700  0.19594700  1
  Tm  Tm7  1  0.50000000  0.38594000  0.29894900  1
  Tm  Tm8  1  0.00000000  0.12104500  0.40822000  1
  Tm  Tm9  1  0.50000000  0.96706200  0.43021800  1
  Tm  Tm10  1  0.50000000  0.79445700  0.38344700  1
  Tm  Tm11  1  0.00000000  0.94844000  0.36144900  1
  Tm  Tm12  1  0.50000000  0.55854500  0.34572000  1
  Tm  Tm13  1  0.00000000  0.40456200  0.36771800  1
  Tm  Tm14  1  0.00000000  0.23195700  0.32094700  1
  Tm  Tm15  1  0.50000000  0.51094000  0.42394900  1
  Tm  Tm16  1  0.00000000  0.24604500  0.53322000  1
  Tm  Tm17  1  0.50000000  0.09206200  0.55521800  1
  Tm  Tm18  1  0.50000000  0.91945700  0.50844700  1
  Tm  Tm19  1  0.00000000  0.07344000  0.48644900  1
  Tm  Tm20  1  0.50000000  0.68354500  0.47072000  1
  Tm  Tm21  1  0.00000000  0.52956200  0.49271800  1
  Tm  Tm22  1  0.00000000  0.35695700  0.44594700  1
  Tm  Tm23  1  0.50000000  0.63594000  0.54894900  1
  Tm  Tm24  1  0.00000000  0.37104500  0.65822000  1
  Tm  Tm25  1  0.50000000  0.21706200  0.68021800  1
  Tm  Tm26  1  0.50000000  0.04445700  0.63344700  1
  Tm  Tm27  1  0.00000000  0.19844000  0.61144900  1
  Tm  Tm28  1  0.50000000  0.80854500  0.59572000  1
  Tm  Tm29  1  0.00000000  0.65456200  0.61771800  1
  Tm  Tm30  1  0.00000000  0.48195700  0.57094700  1
  Tm  Tm31  1  0.50000000  0.76094000  0.67394900  1
  Tm  Tm32  1  0.00000000  0.49604500  0.78322000  1
  Tm  Tm33  1  0.50000000  0.16945700  0.75844700  1
  Tm  Tm34  1  0.00000000  0.32344000  0.73644900  1
  Tm  Tm35  1  0.50000000  0.93354500  0.72072000  1
  Tm  Tm36  1  0.00000000  0.77956200  0.74271800  1
  Tm  Tm37  1  0.00000000  0.60695700  0.69594700  1
  Mg  Mg38  1  0.00000000  0.57476400  0.20054600  1
  Mg  Mg39  1  0.50000000  0.96573800  0.21612100  1
  Mg  Mg40  1  0.50000000  0.13726400  0.26304600  1
  Mg  Mg41  1  0.00000000  0.52823800  0.27862100  1
  Mg  Mg42  1  0.00000000  0.69976400  0.32554600  1
  Mg  Mg43  1  0.50000000  0.09073800  0.34112100  1
  Mg  Mg44  1  0.50000000  0.26226400  0.38804600  1
  Mg  Mg45  1  0.00000000  0.65323800  0.40362100  1
  Mg  Mg46  1  0.00000000  0.82476400  0.45054600  1
  Mg  Mg47  1  0.50000000  0.21573800  0.46612100  1
  Mg  Mg48  1  0.50000000  0.38726400  0.51304600  1
  Mg  Mg49  1  0.00000000  0.77823800  0.52862100  1
  Mg  Mg50  1  0.00000000  0.94976400  0.57554600  1
  Mg  Mg51  1  0.50000000  0.34073800  0.59112100  1
  Mg  Mg52  1  0.50000000  0.51226400  0.63804600  1
  Mg  Mg53  1  0.00000000  0.90323800  0.65362100  1
  Mg  Mg54  1  0.00000000  0.07476400  0.70054600  1
  Mg  Mg55  1  0.50000000  0.46573800  0.71612100  1
  Mg  Mg56  1  0.50000000  0.63726400  0.76304600  1
  Mg  Mg57  1  0.00000000  0.02823800  0.77862100  1
