# generated using pymatgen
data_Tm2Mg
_symmetry_space_group_name_H-M   'P 1'
_cell_length_a   3.55930500
_cell_length_b   5.42194500
_cell_length_c   51.71079800
_cell_angle_alpha   90.00000000
_cell_angle_beta   90.00000000
_cell_angle_gamma   90.00000000
_symmetry_Int_Tables_number   1
_chemical_formula_structural   Tm2Mg
_chemical_formula_sum   'Tm16 Mg8'
_cell_volume   997.93338617
_cell_formula_units_Z   8
loop_
 _symmetry_equiv_pos_site_id
 _symmetry_equiv_pos_as_xyz
  1  'x, y, z'
loop_
 _atom_site_type_symbol
 _atom_site_label
 _atom_site_symmetry_multiplicity
 _atom_site_fract_x
 _atom_site_fract_y
 _atom_site_fract_z
 _atom_site_occupancy
  Tm  Tm0  1  0.00000000  0.75000000  0.19969800  1
  Tm  Tm1  1  0.50000000  0.75000000  0.25835800  1
  Tm  Tm2  1  0.50000000  0.25000000  0.30030200  1
  Tm  Tm3  1  0.00000000  0.25000000  0.24164200  1
  Tm  Tm4  1  0.50000000  0.75000000  0.36636400  1
  Tm  Tm5  1  0.00000000  0.75000000  0.42502400  1
  Tm  Tm6  1  0.00000000  0.25000000  0.46696900  1
  Tm  Tm7  1  0.50000000  0.25000000  0.40830900  1
  Tm  Tm8  1  0.00000000  0.75000000  0.53303100  1
  Tm  Tm9  1  0.50000000  0.75000000  0.59169100  1
  Tm  Tm10  1  0.50000000  0.25000000  0.63363600  1
  Tm  Tm11  1  0.00000000  0.25000000  0.57497600  1
  Tm  Tm12  1  0.50000000  0.75000000  0.69969800  1
  Tm  Tm13  1  0.00000000  0.75000000  0.75835800  1
  Tm  Tm14  1  0.00000000  0.25000000  0.80030200  1
  Tm  Tm15  1  0.50000000  0.25000000  0.74164200  1
  Mg  Mg16  1  0.00000000  0.75000000  0.31256600  1
  Mg  Mg17  1  0.50000000  0.25000000  0.18743400  1
  Mg  Mg18  1  0.50000000  0.75000000  0.47923300  1
  Mg  Mg19  1  0.00000000  0.25000000  0.35410000  1
  Mg  Mg20  1  0.00000000  0.75000000  0.64590000  1
  Mg  Mg21  1  0.50000000  0.25000000  0.52076700  1
  Mg  Mg22  1  0.50000000  0.75000000  0.81256600  1
  Mg  Mg23  1  0.00000000  0.25000000  0.68743400  1
