# generated using pymatgen
data_Mg3Zn5
_symmetry_space_group_name_H-M   'P 1'
_cell_length_a   5.07402260
_cell_length_b   13.26606241
_cell_length_c   57.00757700
_cell_angle_alpha   92.18610401
_cell_angle_beta   87.66012493
_cell_angle_gamma   100.62858194
_symmetry_Int_Tables_number   1
_chemical_formula_structural   Mg3Zn5
_chemical_formula_sum   'Mg30 Zn50'
_cell_volume   3766.49990850
_cell_formula_units_Z   10
loop_
 _symmetry_equiv_pos_site_id
 _symmetry_equiv_pos_as_xyz
  1  'x, y, z'
loop_
 _atom_site_type_symbol
 _atom_site_label
 _atom_site_symmetry_multiplicity
 _atom_site_fract_x
 _atom_site_fract_y
 _atom_site_fract_z
 _atom_site_occupancy
  Mg  Mg0  1  0.21549000  0.58869500  0.40677300  1
  Mg  Mg1  1  0.42499100  0.95552200  0.36017400  1
  Mg  Mg2  1  0.77691500  0.58634400  0.26989700  1
  Mg  Mg3  1  0.76538400  0.70941300  0.42092300  1
  Mg  Mg4  1  0.89802200  0.88342500  0.33235700  1
  Mg  Mg5  1  0.09090100  0.37938200  0.43883200  1
  Mg  Mg6  1  0.78141000  0.63904300  0.32595400  1
  Mg  Mg7  1  0.86390400  0.91987600  0.44271400  1
  Mg  Mg8  1  0.21810000  0.53896200  0.35086400  1
  Mg  Mg9  1  0.98126700  0.99586400  0.28127900  1
  Mg  Mg10  1  0.10237400  0.29294400  0.34373900  1
  Mg  Mg11  1  0.66118800  0.34032700  0.26277200  1
  Mg  Mg12  1  0.34662200  0.85202500  0.40804600  1
  Mg  Mg13  1  0.09295300  0.43344800  0.49461100  1
  Mg  Mg14  1  0.53633600  0.19584000  0.36902500  1
  Mg  Mg15  1  0.09787800  0.24024500  0.28768200  1
  Mg  Mg16  1  0.41379800  0.04059400  0.45686300  1
  Mg  Mg17  1  0.53838700  0.24990600  0.42480500  1
  Mg  Mg18  1  0.45429800  0.92376600  0.25346200  1
  Mg  Mg19  1  0.28266700  0.77726300  0.45559000  1
  Mg  Mg20  1  0.17499100  0.70552200  0.61017400  1
  Mg  Mg21  1  0.52691500  0.33634400  0.51989700  1
  Mg  Mg22  1  0.64802200  0.63342500  0.58235700  1
  Mg  Mg23  1  0.53141000  0.38904300  0.57595400  1
  Mg  Mg24  1  0.96810000  0.28896200  0.60086400  1
  Mg  Mg25  1  0.73126700  0.74586400  0.53127900  1
  Mg  Mg26  1  0.85237400  0.04294400  0.59373900  1
  Mg  Mg27  1  0.41118800  0.09032700  0.51277200  1
  Mg  Mg28  1  0.84787800  0.99024500  0.53768200  1
  Mg  Mg29  1  0.20429800  0.67376600  0.50346200  1
  Zn  Zn30  1  0.34527600  0.76577700  0.32989100  1
  Zn  Zn31  1  0.87890600  0.89605500  0.38616500  1
  Zn  Zn32  1  0.65221300  0.41252000  0.34753100  1
  Zn  Zn33  1  0.07554000  0.89729800  0.49389600  1
  Zn  Zn34  1  0.76457900  0.09901800  0.32600900  1
  Zn  Zn35  1  0.05966000  0.73638800  0.36943500  1
  Zn  Zn36  1  0.93964400  0.43964400  0.30681800  1
  Zn  Zn37  1  0.53401300  0.11351100  0.28374600  1
  Zn  Zn38  1  0.03559500  0.22388500  0.39754500  1
  Zn  Zn39  1  0.62096000  0.77992100  0.28759900  1
  Zn  Zn40  1  0.87737100  0.38939900  0.38793700  1
  Zn  Zn41  1  0.65412700  0.48265800  0.42261700  1
  Zn  Zn42  1  0.27910000  0.61098600  0.29841800  1
  Zn  Zn43  1  0.89663900  0.80655700  0.24872400  1
  Zn  Zn44  1  0.75038300  0.73323400  0.47747100  1
  Zn  Zn45  1  0.59369300  0.40540300  0.46609200  1
  Zn  Zn46  1  0.42472500  0.57802700  0.45673200  1
  Zn  Zn47  1  0.25832900  0.09936700  0.32603700  1
  Zn  Zn48  1  0.56962900  0.89290100  0.49420100  1
  Zn  Zn49  1  0.60018900  0.26830200  0.31521800  1
  Zn  Zn50  1  0.20456300  0.05126200  0.40690400  1
  Zn  Zn51  1  0.11471000  0.78027000  0.28762700  1
  Zn  Zn52  1  0.43964400  0.43964400  0.30681800  1
  Zn  Zn53  1  0.72262300  0.56563500  0.37795300  1
  Zn  Zn54  1  0.37242400  0.38776200  0.38806900  1
  Zn  Zn55  1  0.93990000  0.58112200  0.45627800  1
  Zn  Zn56  1  0.90666600  0.06365400  0.48568400  1
  Zn  Zn57  1  0.68938800  0.04816600  0.40735900  1
  Zn  Zn58  1  0.98264900  0.07273100  0.36491200  1
  Zn  Zn59  1  0.25686400  0.24152600  0.47556800  1
  Zn  Zn60  1  0.55374900  0.73199000  0.36974100  1
  Zn  Zn61  1  0.43964400  0.93964400  0.30681800  1
  Zn  Zn62  1  0.75191800  0.23989000  0.47569900  1
  Zn  Zn63  1  0.97516200  0.14663100  0.44101900  1
  Zn  Zn64  1  0.22707600  0.46676900  0.26610500  1
  Zn  Zn65  1  0.09527600  0.51577700  0.57989100  1
  Zn  Zn66  1  0.40221300  0.16252000  0.59753100  1
  Zn  Zn67  1  0.51457900  0.84901800  0.57600900  1
  Zn  Zn68  1  0.68964400  0.18964400  0.55681800  1
  Zn  Zn69  1  0.28401300  0.86351100  0.53374600  1
  Zn  Zn70  1  0.37096000  0.52992100  0.53759900  1
  Zn  Zn71  1  0.02910000  0.36098600  0.54841800  1
  Zn  Zn72  1  0.64663900  0.55655700  0.49872400  1
  Zn  Zn73  1  0.00832900  0.84936700  0.57603700  1
  Zn  Zn74  1  0.35018900  0.01830200  0.56521800  1
  Zn  Zn75  1  0.86471000  0.53027000  0.53762700  1
  Zn  Zn76  1  0.18964400  0.18964400  0.55681800  1
  Zn  Zn77  1  0.73264900  0.82273100  0.61491200  1
  Zn  Zn78  1  0.18964400  0.68964400  0.55681800  1
  Zn  Zn79  1  0.97707600  0.21676900  0.51610500  1
