# generated using pymatgen
data_Mg9Au26
_symmetry_space_group_name_H-M   'P 1'
_cell_length_a   9.58286600
_cell_length_b   10.43041211
_cell_length_c   46.00314700
_cell_angle_alpha   94.13499482
_cell_angle_beta   90.00000000
_cell_angle_gamma   90.00000000
_symmetry_Int_Tables_number   1
_chemical_formula_structural   Mg9Au26
_chemical_formula_sum   'Mg36 Au104'
_cell_volume   4586.19431584
_cell_formula_units_Z   4
loop_
 _symmetry_equiv_pos_site_id
 _symmetry_equiv_pos_as_xyz
  1  'x, y, z'
loop_
 _atom_site_type_symbol
 _atom_site_label
 _atom_site_symmetry_multiplicity
 _atom_site_fract_x
 _atom_site_fract_y
 _atom_site_fract_z
 _atom_site_occupancy
  Mg  Mg0  1  0.49920200  0.14628000  0.72642000  1
  Mg  Mg1  1  0.50079800  0.68179100  0.69545500  1
  Mg  Mg2  1  0.99920200  0.68179100  0.69545500  1
  Mg  Mg3  1  0.00079800  0.14628000  0.72642000  1
  Mg  Mg4  1  0.49920200  0.27128000  0.60142000  1
  Mg  Mg5  1  0.50079800  0.80679100  0.57045500  1
  Mg  Mg6  1  0.99920200  0.80679100  0.57045500  1
  Mg  Mg7  1  0.00079800  0.27128000  0.60142000  1
  Mg  Mg8  1  0.25000000  0.90667200  0.64378000  1
  Mg  Mg9  1  0.75000000  0.04639900  0.65309500  1
  Mg  Mg10  1  0.25000000  0.37073800  0.67471800  1
  Mg  Mg11  1  0.75000000  0.58233300  0.62215700  1
  Mg  Mg12  1  0.49920200  0.39628000  0.47642000  1
  Mg  Mg13  1  0.50079800  0.93179100  0.44545500  1
  Mg  Mg14  1  0.99920200  0.93179100  0.44545500  1
  Mg  Mg15  1  0.00079800  0.39628000  0.47642000  1
  Mg  Mg16  1  0.25000000  0.03167200  0.51878000  1
  Mg  Mg17  1  0.75000000  0.17139900  0.52809500  1
  Mg  Mg18  1  0.25000000  0.49573800  0.54971800  1
  Mg  Mg19  1  0.75000000  0.70733300  0.49715700  1
  Mg  Mg20  1  0.49920200  0.52128000  0.35142000  1
  Mg  Mg21  1  0.50079800  0.05679100  0.32045500  1
  Mg  Mg22  1  0.99920200  0.05679100  0.32045500  1
  Mg  Mg23  1  0.00079800  0.52128000  0.35142000  1
  Mg  Mg24  1  0.25000000  0.15667200  0.39378000  1
  Mg  Mg25  1  0.75000000  0.29639900  0.40309500  1
  Mg  Mg26  1  0.25000000  0.62073800  0.42471800  1
  Mg  Mg27  1  0.75000000  0.83233300  0.37215700  1
  Mg  Mg28  1  0.49920200  0.64628000  0.22642000  1
  Mg  Mg29  1  0.50079800  0.18179100  0.19545500  1
  Mg  Mg30  1  0.99920200  0.18179100  0.19545500  1
  Mg  Mg31  1  0.00079800  0.64628000  0.22642000  1
  Mg  Mg32  1  0.25000000  0.28167200  0.26878000  1
  Mg  Mg33  1  0.75000000  0.42139900  0.27809500  1
  Mg  Mg34  1  0.25000000  0.74573800  0.29971800  1
  Mg  Mg35  1  0.75000000  0.95733300  0.24715700  1
  Au  Au36  1  0.25000000  0.57693400  0.72152500  1
  Au  Au37  1  0.75000000  0.25113700  0.70035000  1
  Au  Au38  1  0.75000000  0.71959000  0.73136800  1
  Au  Au39  1  0.25000000  0.10848100  0.69050700  1
  Au  Au40  1  0.50000000  0.41403500  0.71093700  1
  Au  Au41  1  0.00000000  0.41403500  0.71093700  1
  Au  Au42  1  0.25000000  0.83793900  0.70586400  1
  Au  Au43  1  0.75000000  0.99013100  0.71601100  1
  Au  Au44  1  0.00000000  0.00764500  0.61732800  1
  Au  Au45  1  0.50000000  0.94542600  0.67954700  1
  Au  Au46  1  0.00000000  0.94542600  0.67954700  1
  Au  Au47  1  0.50000000  0.00764500  0.61732800  1
  Au  Au48  1  0.00054900  0.74021400  0.63268300  1
  Au  Au49  1  0.99945100  0.21285700  0.66419200  1
  Au  Au50  1  0.50054900  0.21285700  0.66419200  1
  Au  Au51  1  0.49945100  0.74021400  0.63268300  1
  Au  Au52  1  0.75000000  0.31414800  0.63733900  1
  Au  Au53  1  0.25000000  0.70193400  0.59652500  1
  Au  Au54  1  0.25000000  0.63892300  0.65953600  1
  Au  Au55  1  0.75000000  0.37613700  0.57535000  1
  Au  Au56  1  0.75000000  0.84459000  0.60636800  1
  Au  Au57  1  0.25000000  0.17086900  0.62812000  1
  Au  Au58  1  0.25000000  0.23348100  0.56550700  1
  Au  Au59  1  0.75000000  0.78220200  0.66875500  1
  Au  Au60  1  0.50000000  0.53903500  0.58593800  1
  Au  Au61  1  0.50000000  0.47653500  0.64843800  1
  Au  Au62  1  0.00000000  0.53903500  0.58593800  1
  Au  Au63  1  0.00000000  0.47653500  0.64843800  1
  Au  Au64  1  0.25000000  0.43611500  0.61240900  1
  Au  Au65  1  0.75000000  0.51695600  0.68446600  1
  Au  Au66  1  0.25000000  0.96293900  0.58086400  1
  Au  Au67  1  0.75000000  0.11513100  0.59101100  1
  Au  Au68  1  0.00000000  0.13264500  0.49232800  1
  Au  Au69  1  0.50000000  0.07042600  0.55454700  1
  Au  Au70  1  0.00000000  0.07042600  0.55454700  1
  Au  Au71  1  0.50000000  0.13264500  0.49232800  1
  Au  Au72  1  0.00054900  0.86521400  0.50768300  1
  Au  Au73  1  0.99945100  0.33785700  0.53919200  1
  Au  Au74  1  0.50054900  0.33785700  0.53919200  1
  Au  Au75  1  0.49945100  0.86521400  0.50768300  1
  Au  Au76  1  0.75000000  0.43914800  0.51233900  1
  Au  Au77  1  0.25000000  0.82693400  0.47152500  1
  Au  Au78  1  0.25000000  0.76392300  0.53453600  1
  Au  Au79  1  0.75000000  0.50113700  0.45035000  1
  Au  Au80  1  0.75000000  0.96959000  0.48136800  1
  Au  Au81  1  0.25000000  0.29586900  0.50312000  1
  Au  Au82  1  0.25000000  0.35848100  0.44050700  1
  Au  Au83  1  0.75000000  0.90720200  0.54375500  1
  Au  Au84  1  0.50000000  0.66403500  0.46093800  1
  Au  Au85  1  0.50000000  0.60153500  0.52343700  1
  Au  Au86  1  0.00000000  0.66403500  0.46093800  1
  Au  Au87  1  0.00000000  0.60153500  0.52343700  1
  Au  Au88  1  0.25000000  0.56111500  0.48740900  1
  Au  Au89  1  0.75000000  0.64195600  0.55946600  1
  Au  Au90  1  0.25000000  0.08793900  0.45586400  1
  Au  Au91  1  0.75000000  0.24013100  0.46601100  1
  Au  Au92  1  0.00000000  0.25764500  0.36732800  1
  Au  Au93  1  0.50000000  0.19542600  0.42954700  1
  Au  Au94  1  0.00000000  0.19542600  0.42954700  1
  Au  Au95  1  0.50000000  0.25764500  0.36732800  1
  Au  Au96  1  0.00054900  0.99021400  0.38268300  1
  Au  Au97  1  0.99945100  0.46285700  0.41419200  1
  Au  Au98  1  0.50054900  0.46285700  0.41419200  1
  Au  Au99  1  0.49945100  0.99021400  0.38268300  1
  Au  Au100  1  0.75000000  0.56414800  0.38733900  1
  Au  Au101  1  0.25000000  0.95193400  0.34652500  1
  Au  Au102  1  0.25000000  0.88892300  0.40953600  1
  Au  Au103  1  0.75000000  0.62613700  0.32535000  1
  Au  Au104  1  0.75000000  0.09459000  0.35636800  1
  Au  Au105  1  0.25000000  0.42086900  0.37812000  1
  Au  Au106  1  0.25000000  0.48348100  0.31550700  1
  Au  Au107  1  0.75000000  0.03220200  0.41875500  1
  Au  Au108  1  0.50000000  0.78903500  0.33593700  1
  Au  Au109  1  0.50000000  0.72653500  0.39843700  1
  Au  Au110  1  0.00000000  0.78903500  0.33593800  1
  Au  Au111  1  0.00000000  0.72653500  0.39843800  1
  Au  Au112  1  0.25000000  0.68611500  0.36240900  1
  Au  Au113  1  0.75000000  0.76695600  0.43446600  1
  Au  Au114  1  0.25000000  0.21293900  0.33086400  1
  Au  Au115  1  0.75000000  0.36513100  0.34101100  1
  Au  Au116  1  0.00000000  0.38264500  0.24232800  1
  Au  Au117  1  0.50000000  0.32042600  0.30454700  1
  Au  Au118  1  0.00000000  0.32042600  0.30454700  1
  Au  Au119  1  0.50000000  0.38264500  0.24232800  1
  Au  Au120  1  0.00054900  0.11521400  0.25768300  1
  Au  Au121  1  0.99945100  0.58785700  0.28919200  1
  Au  Au122  1  0.50054900  0.58785700  0.28919200  1
  Au  Au123  1  0.49945100  0.11521400  0.25768300  1
  Au  Au124  1  0.75000000  0.68914800  0.26233900  1
  Au  Au125  1  0.25000000  0.07693400  0.22152500  1
  Au  Au126  1  0.25000000  0.01392300  0.28453600  1
  Au  Au127  1  0.75000000  0.75113700  0.20035000  1
  Au  Au128  1  0.75000000  0.21959000  0.23136800  1
  Au  Au129  1  0.25000000  0.54586900  0.25312000  1
  Au  Au130  1  0.25000000  0.60848100  0.19050700  1
  Au  Au131  1  0.75000000  0.15720200  0.29375500  1
  Au  Au132  1  0.50000000  0.91403500  0.21093700  1
  Au  Au133  1  0.50000000  0.85153500  0.27343800  1
  Au  Au134  1  0.00000000  0.91403500  0.21093700  1
  Au  Au135  1  0.00000000  0.85153500  0.27343800  1
  Au  Au136  1  0.25000000  0.81111500  0.23740900  1
  Au  Au137  1  0.75000000  0.89195600  0.30946600  1
  Au  Au138  1  0.25000000  0.33793900  0.20586400  1
  Au  Au139  1  0.75000000  0.49013100  0.21601100  1
