# generated using pymatgen
data_Mg116Ir167
_symmetry_space_group_name_H-M   'P 1'
_cell_length_a   10.02721118
_cell_length_b   18.72038941
_cell_length_c   44.79036200
_cell_angle_alpha   94.03613252
_cell_angle_beta   86.64075209
_cell_angle_gamma   96.01571897
_symmetry_Int_Tables_number   1
_chemical_formula_structural   Mg116Ir167
_chemical_formula_sum   'Mg116 Ir167'
_cell_volume   8329.58426924
_cell_formula_units_Z   1
loop_
 _symmetry_equiv_pos_site_id
 _symmetry_equiv_pos_as_xyz
  1  'x, y, z'
loop_
 _atom_site_type_symbol
 _atom_site_label
 _atom_site_symmetry_multiplicity
 _atom_site_fract_x
 _atom_site_fract_y
 _atom_site_fract_z
 _atom_site_occupancy
  Mg  Mg0  1  0.93125800  0.78013600  0.24146600  1
  Mg  Mg1  1  0.66273100  0.71986400  0.27453400  1
  Mg  Mg2  1  0.29030700  0.55456700  0.22133000  1
  Mg  Mg3  1  0.60368200  0.94543300  0.19467000  1
  Mg  Mg4  1  0.18315000  0.79076000  0.27745100  1
  Mg  Mg5  1  0.41083900  0.70924000  0.23854900  1
  Mg  Mg6  1  0.87347400  0.92230000  0.23321100  1
  Mg  Mg7  1  0.72051600  0.57770000  0.28278900  1
  Mg  Mg8  1  0.99900400  0.52103200  0.25114400  1
  Mg  Mg9  1  0.59498500  0.97896800  0.26485600  1
  Mg  Mg10  1  0.08125800  0.28013600  0.19146600  1
  Mg  Mg11  1  0.81273100  0.21986400  0.22453400  1
  Mg  Mg12  1  0.14030700  0.05456700  0.27133000  1
  Mg  Mg13  1  0.45368200  0.44543300  0.24467000  1
  Mg  Mg14  1  0.33315000  0.29076000  0.22745100  1
  Mg  Mg15  1  0.26083900  0.20924000  0.28854900  1
  Mg  Mg16  1  0.72347400  0.42230000  0.28321100  1
  Mg  Mg17  1  0.87051600  0.07770000  0.23278900  1
  Mg  Mg18  1  0.14900400  0.02103200  0.20114400  1
  Mg  Mg19  1  0.74498500  0.47896800  0.21485600  1
  Mg  Mg20  1  0.63125800  0.78013600  0.34146600  1
  Mg  Mg21  1  0.36273100  0.71986400  0.37453400  1
  Mg  Mg22  1  0.99030700  0.55456700  0.32133000  1
  Mg  Mg23  1  0.30368200  0.94543300  0.29467000  1
  Mg  Mg24  1  0.88315000  0.79076000  0.37745100  1
  Mg  Mg25  1  0.11083900  0.70924000  0.33854900  1
  Mg  Mg26  1  0.57347400  0.92230000  0.33321100  1
  Mg  Mg27  1  0.42051600  0.57770000  0.38278900  1
  Mg  Mg28  1  0.69900400  0.52103200  0.35114400  1
  Mg  Mg29  1  0.29498500  0.97896800  0.36485600  1
  Mg  Mg30  1  0.78125800  0.28013600  0.29146600  1
  Mg  Mg31  1  0.51273100  0.21986400  0.32453400  1
  Mg  Mg32  1  0.84030700  0.05456700  0.37133000  1
  Mg  Mg33  1  0.15368200  0.44543300  0.34467000  1
  Mg  Mg34  1  0.03315000  0.29076000  0.32745100  1
  Mg  Mg35  1  0.96083900  0.20924000  0.38854900  1
  Mg  Mg36  1  0.42347400  0.42230000  0.38321100  1
  Mg  Mg37  1  0.57051600  0.07770000  0.33278900  1
  Mg  Mg38  1  0.84900400  0.02103200  0.30114400  1
  Mg  Mg39  1  0.44498500  0.47896800  0.31485600  1
  Mg  Mg40  1  0.33125800  0.78013600  0.44146600  1
  Mg  Mg41  1  0.06273100  0.71986400  0.47453400  1
  Mg  Mg42  1  0.69030700  0.55456700  0.42133000  1
  Mg  Mg43  1  0.00368200  0.94543300  0.39467000  1
  Mg  Mg44  1  0.58315000  0.79076000  0.47745100  1
  Mg  Mg45  1  0.81083900  0.70924000  0.43854900  1
  Mg  Mg46  1  0.27347400  0.92230000  0.43321100  1
  Mg  Mg47  1  0.12051600  0.57770000  0.48278900  1
  Mg  Mg48  1  0.39900400  0.52103200  0.45114400  1
  Mg  Mg49  1  0.99498500  0.97896800  0.46485600  1
  Mg  Mg50  1  0.48125800  0.28013600  0.39146600  1
  Mg  Mg51  1  0.21273100  0.21986400  0.42453400  1
  Mg  Mg52  1  0.54030700  0.05456700  0.47133000  1
  Mg  Mg53  1  0.85368200  0.44543300  0.44467000  1
  Mg  Mg54  1  0.73315000  0.29076000  0.42745100  1
  Mg  Mg55  1  0.66083900  0.20924000  0.48854900  1
  Mg  Mg56  1  0.12347400  0.42230000  0.48321100  1
  Mg  Mg57  1  0.27051600  0.07770000  0.43278900  1
  Mg  Mg58  1  0.54900400  0.02103200  0.40114400  1
  Mg  Mg59  1  0.14498500  0.47896800  0.41485600  1
  Mg  Mg60  1  0.03125800  0.78013600  0.54146600  1
  Mg  Mg61  1  0.76273100  0.71986400  0.57453400  1
  Mg  Mg62  1  0.39030700  0.55456700  0.52133000  1
  Mg  Mg63  1  0.70368200  0.94543300  0.49467000  1
  Mg  Mg64  1  0.28315000  0.79076000  0.57745100  1
  Mg  Mg65  1  0.51083900  0.70924000  0.53854900  1
  Mg  Mg66  1  0.97347400  0.92230000  0.53321100  1
  Mg  Mg67  1  0.82051600  0.57770000  0.58278900  1
  Mg  Mg68  1  0.09900400  0.52103200  0.55114400  1
  Mg  Mg69  1  0.69498500  0.97896800  0.56485600  1
  Mg  Mg70  1  0.18125800  0.28013600  0.49146600  1
  Mg  Mg71  1  0.91273100  0.21986400  0.52453400  1
  Mg  Mg72  1  0.24030700  0.05456700  0.57133000  1
  Mg  Mg73  1  0.55368200  0.44543300  0.54467000  1
  Mg  Mg74  1  0.43315000  0.29076000  0.52745100  1
  Mg  Mg75  1  0.36083900  0.20924000  0.58854900  1
  Mg  Mg76  1  0.82347400  0.42230000  0.58321100  1
  Mg  Mg77  1  0.97051600  0.07770000  0.53278900  1
  Mg  Mg78  1  0.24900400  0.02103200  0.50114400  1
  Mg  Mg79  1  0.84498500  0.47896800  0.51485600  1
  Mg  Mg80  1  0.73125800  0.78013600  0.64146600  1
  Mg  Mg81  1  0.46273100  0.71986400  0.67453400  1
  Mg  Mg82  1  0.09030700  0.55456700  0.62133000  1
  Mg  Mg83  1  0.40368200  0.94543300  0.59467000  1
  Mg  Mg84  1  0.98315000  0.79076000  0.67745100  1
  Mg  Mg85  1  0.21083900  0.70924000  0.63854900  1
  Mg  Mg86  1  0.67347400  0.92230000  0.63321100  1
  Mg  Mg87  1  0.52051600  0.57770000  0.68278900  1
  Mg  Mg88  1  0.79900400  0.52103200  0.65114400  1
  Mg  Mg89  1  0.39498500  0.97896800  0.66485600  1
  Mg  Mg90  1  0.88125800  0.28013600  0.59146600  1
  Mg  Mg91  1  0.61273100  0.21986400  0.62453400  1
  Mg  Mg92  1  0.94030700  0.05456700  0.67133000  1
  Mg  Mg93  1  0.25368200  0.44543300  0.64467000  1
  Mg  Mg94  1  0.13315000  0.29076000  0.62745100  1
  Mg  Mg95  1  0.06083900  0.20924000  0.68854900  1
  Mg  Mg96  1  0.52347400  0.42230000  0.68321100  1
  Mg  Mg97  1  0.67051600  0.07770000  0.63278900  1
  Mg  Mg98  1  0.94900400  0.02103200  0.60114400  1
  Mg  Mg99  1  0.54498500  0.47896800  0.61485600  1
  Mg  Mg100  1  0.43125800  0.78013600  0.74146600  1
  Mg  Mg101  1  0.16273100  0.71986400  0.77453400  1
  Mg  Mg102  1  0.79030700  0.55456700  0.72133000  1
  Mg  Mg103  1  0.10368200  0.94543300  0.69467000  1
  Mg  Mg104  1  0.91083900  0.70924000  0.73854900  1
  Mg  Mg105  1  0.37347400  0.92230000  0.73321100  1
  Mg  Mg106  1  0.49900400  0.52103200  0.75114400  1
  Mg  Mg107  1  0.09498500  0.97896800  0.76485600  1
  Mg  Mg108  1  0.58125800  0.28013600  0.69146600  1
  Mg  Mg109  1  0.31273100  0.21986400  0.72453400  1
  Mg  Mg110  1  0.64030700  0.05456700  0.77133000  1
  Mg  Mg111  1  0.95368200  0.44543300  0.74467000  1
  Mg  Mg112  1  0.83315000  0.29076000  0.72745100  1
  Mg  Mg113  1  0.37051600  0.07770000  0.73278900  1
  Mg  Mg114  1  0.64900400  0.02103200  0.70114400  1
  Mg  Mg115  1  0.24498500  0.47896800  0.71485600  1
  Ir  Ir116  1  0.74181900  0.86887800  0.28583200  1
  Ir  Ir117  1  0.85217000  0.63112200  0.23016800  1
  Ir  Ir118  1  0.95751800  0.66794400  0.28100200  1
  Ir  Ir119  1  0.63647100  0.83205600  0.23499800  1
  Ir  Ir120  1  0.48617900  0.83205600  0.28509600  1
  Ir  Ir121  1  0.10781000  0.66794400  0.23090400  1
  Ir  Ir122  1  0.37199500  0.00000000  0.23300000  1
  Ir  Ir123  1  0.69211100  0.71596400  0.20730200  1
  Ir  Ir124  1  0.20187900  0.78403600  0.20869800  1
  Ir  Ir125  1  0.19881400  0.63582800  0.27968800  1
  Ir  Ir126  1  0.39517500  0.86417200  0.23631200  1
  Ir  Ir127  1  0.00894800  0.90923200  0.28598500  1
  Ir  Ir128  1  0.58504100  0.59076800  0.23001500  1
  Ir  Ir129  1  0.44467800  0.59076800  0.27680300  1
  Ir  Ir130  1  0.14931100  0.90923200  0.23919700  1
  Ir  Ir131  1  0.89181900  0.36887800  0.23583200  1
  Ir  Ir132  1  0.70217000  0.13112200  0.28016800  1
  Ir  Ir133  1  0.10751800  0.16794400  0.23100200  1
  Ir  Ir134  1  0.48647100  0.33205600  0.28499800  1
  Ir  Ir135  1  0.63617900  0.33205600  0.23509600  1
  Ir  Ir136  1  0.95781000  0.16794400  0.28090400  1
  Ir  Ir137  1  0.22199500  0.50000000  0.28300000  1
  Ir  Ir138  1  0.54211100  0.21596400  0.25730200  1
  Ir  Ir139  1  0.05187900  0.28403600  0.25869800  1
  Ir  Ir140  1  0.34881400  0.13582800  0.22968800  1
  Ir  Ir141  1  0.24517500  0.36417200  0.28631200  1
  Ir  Ir142  1  0.15894800  0.40923200  0.23598500  1
  Ir  Ir143  1  0.43504100  0.09076800  0.28001500  1
  Ir  Ir144  1  0.59467800  0.09076800  0.22680300  1
  Ir  Ir145  1  0.99931100  0.40923200  0.28919700  1
  Ir  Ir146  1  0.44181900  0.86887800  0.38583200  1
  Ir  Ir147  1  0.55217000  0.63112200  0.33016800  1
  Ir  Ir148  1  0.65751800  0.66794400  0.38100200  1
  Ir  Ir149  1  0.33647100  0.83205600  0.33499800  1
  Ir  Ir150  1  0.18617900  0.83205600  0.38509600  1
  Ir  Ir151  1  0.80781000  0.66794400  0.33090400  1
  Ir  Ir152  1  0.07199500  0.00000000  0.33300000  1
  Ir  Ir153  1  0.39211100  0.71596400  0.30730200  1
  Ir  Ir154  1  0.90187900  0.78403600  0.30869800  1
  Ir  Ir155  1  0.89881400  0.63582800  0.37968800  1
  Ir  Ir156  1  0.09517500  0.86417200  0.33631200  1
  Ir  Ir157  1  0.70894800  0.90923200  0.38598500  1
  Ir  Ir158  1  0.28504100  0.59076800  0.33001500  1
  Ir  Ir159  1  0.14467800  0.59076800  0.37680300  1
  Ir  Ir160  1  0.84931100  0.90923200  0.33919700  1
  Ir  Ir161  1  0.59181900  0.36887800  0.33583200  1
  Ir  Ir162  1  0.40217000  0.13112200  0.38016800  1
  Ir  Ir163  1  0.80751800  0.16794400  0.33100200  1
  Ir  Ir164  1  0.18647100  0.33205600  0.38499800  1
  Ir  Ir165  1  0.33617900  0.33205600  0.33509600  1
  Ir  Ir166  1  0.65781000  0.16794400  0.38090400  1
  Ir  Ir167  1  0.92199500  0.50000000  0.38300000  1
  Ir  Ir168  1  0.24211100  0.21596400  0.35730200  1
  Ir  Ir169  1  0.75187900  0.28403600  0.35869800  1
  Ir  Ir170  1  0.04881400  0.13582800  0.32968800  1
  Ir  Ir171  1  0.94517500  0.36417200  0.38631200  1
  Ir  Ir172  1  0.85894800  0.40923200  0.33598500  1
  Ir  Ir173  1  0.13504100  0.09076800  0.38001500  1
  Ir  Ir174  1  0.29467800  0.09076800  0.32680300  1
  Ir  Ir175  1  0.69931100  0.40923200  0.38919700  1
  Ir  Ir176  1  0.14181900  0.86887800  0.48583200  1
  Ir  Ir177  1  0.25217000  0.63112200  0.43016800  1
  Ir  Ir178  1  0.35751800  0.66794400  0.48100200  1
  Ir  Ir179  1  0.03647100  0.83205600  0.43499800  1
  Ir  Ir180  1  0.88617900  0.83205600  0.48509600  1
  Ir  Ir181  1  0.50781000  0.66794400  0.43090400  1
  Ir  Ir182  1  0.77199500  0.00000000  0.43300000  1
  Ir  Ir183  1  0.09211100  0.71596400  0.40730200  1
  Ir  Ir184  1  0.60187900  0.78403600  0.40869800  1
  Ir  Ir185  1  0.59881400  0.63582800  0.47968800  1
  Ir  Ir186  1  0.79517500  0.86417200  0.43631200  1
  Ir  Ir187  1  0.40894800  0.90923200  0.48598500  1
  Ir  Ir188  1  0.98504100  0.59076800  0.43001500  1
  Ir  Ir189  1  0.84467800  0.59076800  0.47680300  1
  Ir  Ir190  1  0.54931100  0.90923200  0.43919700  1
  Ir  Ir191  1  0.29181900  0.36887800  0.43583200  1
  Ir  Ir192  1  0.10217000  0.13112200  0.48016800  1
  Ir  Ir193  1  0.50751800  0.16794400  0.43100200  1
  Ir  Ir194  1  0.88647100  0.33205600  0.48499800  1
  Ir  Ir195  1  0.03617900  0.33205600  0.43509600  1
  Ir  Ir196  1  0.35781000  0.16794400  0.48090400  1
  Ir  Ir197  1  0.62199500  0.50000000  0.48300000  1
  Ir  Ir198  1  0.94211100  0.21596400  0.45730200  1
  Ir  Ir199  1  0.45187900  0.28403600  0.45869800  1
  Ir  Ir200  1  0.74881400  0.13582800  0.42968800  1
  Ir  Ir201  1  0.64517500  0.36417200  0.48631200  1
  Ir  Ir202  1  0.55894800  0.40923200  0.43598500  1
  Ir  Ir203  1  0.83504100  0.09076800  0.48001500  1
  Ir  Ir204  1  0.99467800  0.09076800  0.42680300  1
  Ir  Ir205  1  0.39931100  0.40923200  0.48919700  1
  Ir  Ir206  1  0.84181900  0.86887800  0.58583200  1
  Ir  Ir207  1  0.95217000  0.63112200  0.53016800  1
  Ir  Ir208  1  0.05751800  0.66794400  0.58100200  1
  Ir  Ir209  1  0.73647100  0.83205600  0.53499800  1
  Ir  Ir210  1  0.58617900  0.83205600  0.58509600  1
  Ir  Ir211  1  0.20781000  0.66794400  0.53090400  1
  Ir  Ir212  1  0.47199500  0.00000000  0.53300000  1
  Ir  Ir213  1  0.79211100  0.71596400  0.50730200  1
  Ir  Ir214  1  0.30187900  0.78403600  0.50869800  1
  Ir  Ir215  1  0.29881400  0.63582800  0.57968800  1
  Ir  Ir216  1  0.49517500  0.86417200  0.53631200  1
  Ir  Ir217  1  0.10894800  0.90923200  0.58598500  1
  Ir  Ir218  1  0.68504100  0.59076800  0.53001500  1
  Ir  Ir219  1  0.54467800  0.59076800  0.57680300  1
  Ir  Ir220  1  0.24931100  0.90923200  0.53919700  1
  Ir  Ir221  1  0.99181900  0.36887800  0.53583200  1
  Ir  Ir222  1  0.80217000  0.13112200  0.58016800  1
  Ir  Ir223  1  0.20751800  0.16794400  0.53100200  1
  Ir  Ir224  1  0.58647100  0.33205600  0.58499800  1
  Ir  Ir225  1  0.73617900  0.33205600  0.53509600  1
  Ir  Ir226  1  0.05781000  0.16794400  0.58090400  1
  Ir  Ir227  1  0.32199500  0.50000000  0.58300000  1
  Ir  Ir228  1  0.64211100  0.21596400  0.55730200  1
  Ir  Ir229  1  0.15187900  0.28403600  0.55869800  1
  Ir  Ir230  1  0.44881400  0.13582800  0.52968800  1
  Ir  Ir231  1  0.34517500  0.36417200  0.58631200  1
  Ir  Ir232  1  0.25894800  0.40923200  0.53598500  1
  Ir  Ir233  1  0.53504100  0.09076800  0.58001500  1
  Ir  Ir234  1  0.69467800  0.09076800  0.52680300  1
  Ir  Ir235  1  0.09931100  0.40923200  0.58919700  1
  Ir  Ir236  1  0.54181900  0.86887800  0.68583200  1
  Ir  Ir237  1  0.65217000  0.63112200  0.63016800  1
  Ir  Ir238  1  0.75751800  0.66794400  0.68100200  1
  Ir  Ir239  1  0.43647100  0.83205600  0.63499800  1
  Ir  Ir240  1  0.28617900  0.83205600  0.68509600  1
  Ir  Ir241  1  0.90781000  0.66794400  0.63090400  1
  Ir  Ir242  1  0.17199500  0.00000000  0.63300000  1
  Ir  Ir243  1  0.49211100  0.71596400  0.60730200  1
  Ir  Ir244  1  0.00187900  0.78403600  0.60869800  1
  Ir  Ir245  1  0.99881400  0.63582800  0.67968800  1
  Ir  Ir246  1  0.19517500  0.86417200  0.63631200  1
  Ir  Ir247  1  0.80894800  0.90923200  0.68598500  1
  Ir  Ir248  1  0.38504100  0.59076800  0.63001500  1
  Ir  Ir249  1  0.24467800  0.59076800  0.67680300  1
  Ir  Ir250  1  0.94931100  0.90923200  0.63919700  1
  Ir  Ir251  1  0.69181900  0.36887800  0.63583200  1
  Ir  Ir252  1  0.50217000  0.13112200  0.68016800  1
  Ir  Ir253  1  0.90751800  0.16794400  0.63100200  1
  Ir  Ir254  1  0.28647100  0.33205600  0.68499800  1
  Ir  Ir255  1  0.43617900  0.33205600  0.63509600  1
  Ir  Ir256  1  0.75781000  0.16794400  0.68090400  1
  Ir  Ir257  1  0.02199500  0.50000000  0.68300000  1
  Ir  Ir258  1  0.34211100  0.21596400  0.65730200  1
  Ir  Ir259  1  0.85187900  0.28403600  0.65869800  1
  Ir  Ir260  1  0.14881400  0.13582800  0.62968800  1
  Ir  Ir261  1  0.04517500  0.36417200  0.68631200  1
  Ir  Ir262  1  0.95894800  0.40923200  0.63598500  1
  Ir  Ir263  1  0.23504100  0.09076800  0.68001500  1
  Ir  Ir264  1  0.39467800  0.09076800  0.62680300  1
  Ir  Ir265  1  0.79931100  0.40923200  0.68919700  1
  Ir  Ir266  1  0.35217000  0.63112200  0.73016800  1
  Ir  Ir267  1  0.13647100  0.83205600  0.73499800  1
  Ir  Ir268  1  0.60781000  0.66794400  0.73090400  1
  Ir  Ir269  1  0.87199500  0.00000000  0.73300000  1
  Ir  Ir270  1  0.19211100  0.71596400  0.70730200  1
  Ir  Ir271  1  0.70187900  0.78403600  0.70869800  1
  Ir  Ir272  1  0.89517500  0.86417200  0.73631200  1
  Ir  Ir273  1  0.08504100  0.59076800  0.73001500  1
  Ir  Ir274  1  0.64931100  0.90923200  0.73919700  1
  Ir  Ir275  1  0.39181900  0.36887800  0.73583200  1
  Ir  Ir276  1  0.60751800  0.16794400  0.73100200  1
  Ir  Ir277  1  0.13617900  0.33205600  0.73509600  1
  Ir  Ir278  1  0.04211100  0.21596400  0.75730200  1
  Ir  Ir279  1  0.55187900  0.28403600  0.75869800  1
  Ir  Ir280  1  0.84881400  0.13582800  0.72968800  1
  Ir  Ir281  1  0.65894800  0.40923200  0.73598500  1
  Ir  Ir282  1  0.09467800  0.09076800  0.72680300  1
