# generated using pymatgen
data_Mg4Co7
_symmetry_space_group_name_H-M   'P 1'
_cell_length_a   4.82826400
_cell_length_b   7.88793400
_cell_length_c   41.81399200
_cell_angle_alpha   90.00000000
_cell_angle_beta   90.00000000
_cell_angle_gamma   90.00000000
_symmetry_Int_Tables_number   1
_chemical_formula_structural   Mg4Co7
_chemical_formula_sum   'Mg24 Co42'
_cell_volume   1592.48704635
_cell_formula_units_Z   6
loop_
 _symmetry_equiv_pos_site_id
 _symmetry_equiv_pos_as_xyz
  1  'x, y, z'
loop_
 _atom_site_type_symbol
 _atom_site_label
 _atom_site_symmetry_multiplicity
 _atom_site_fract_x
 _atom_site_fract_y
 _atom_site_fract_z
 _atom_site_occupancy
  Mg  Mg0  1  0.12795600  0.56324900  0.24166700  1
  Mg  Mg1  1  0.12795600  0.93675100  0.24166700  1
  Mg  Mg2  1  0.62795600  0.06324900  0.20833300  1
  Mg  Mg3  1  0.62795600  0.43675100  0.20833300  1
  Mg  Mg4  1  0.62795600  0.56324900  0.34166700  1
  Mg  Mg5  1  0.62795600  0.93675100  0.34166700  1
  Mg  Mg6  1  0.12795600  0.06324900  0.30833300  1
  Mg  Mg7  1  0.12795600  0.43675100  0.30833300  1
  Mg  Mg8  1  0.12795600  0.56324900  0.44166700  1
  Mg  Mg9  1  0.12795600  0.93675100  0.44166700  1
  Mg  Mg10  1  0.62795600  0.06324900  0.40833300  1
  Mg  Mg11  1  0.62795600  0.43675100  0.40833300  1
  Mg  Mg12  1  0.62795600  0.56324900  0.54166700  1
  Mg  Mg13  1  0.62795600  0.93675100  0.54166700  1
  Mg  Mg14  1  0.12795600  0.06324900  0.50833300  1
  Mg  Mg15  1  0.12795600  0.43675100  0.50833300  1
  Mg  Mg16  1  0.12795600  0.56324900  0.64166700  1
  Mg  Mg17  1  0.12795600  0.93675100  0.64166700  1
  Mg  Mg18  1  0.62795600  0.06324900  0.60833300  1
  Mg  Mg19  1  0.62795600  0.43675100  0.60833300  1
  Mg  Mg20  1  0.62795600  0.56324900  0.74166700  1
  Mg  Mg21  1  0.62795600  0.93675100  0.74166700  1
  Mg  Mg22  1  0.12795600  0.06324900  0.70833300  1
  Mg  Mg23  1  0.12795600  0.43675100  0.70833300  1
  Co  Co24  1  0.62795600  0.50000000  0.27500000  1
  Co  Co25  1  0.37204400  0.75000000  0.29206100  1
  Co  Co26  1  0.88386700  0.75000000  0.29206100  1
  Co  Co27  1  0.62795600  0.75000000  0.24087800  1
  Co  Co28  1  0.62795600  0.00000000  0.27500000  1
  Co  Co29  1  0.12795600  0.25000000  0.20912200  1
  Co  Co30  1  0.37204400  0.25000000  0.25793900  1
  Co  Co31  1  0.88386700  0.25000000  0.25793900  1
  Co  Co32  1  0.12795600  0.50000000  0.37500000  1
  Co  Co33  1  0.87204400  0.75000000  0.39206100  1
  Co  Co34  1  0.38386700  0.75000000  0.39206100  1
  Co  Co35  1  0.12795600  0.75000000  0.34087800  1
  Co  Co36  1  0.12795600  0.00000000  0.37500000  1
  Co  Co37  1  0.62795600  0.25000000  0.30912200  1
  Co  Co38  1  0.87204400  0.25000000  0.35793900  1
  Co  Co39  1  0.38386700  0.25000000  0.35793900  1
  Co  Co40  1  0.62795600  0.50000000  0.47500000  1
  Co  Co41  1  0.37204400  0.75000000  0.49206100  1
  Co  Co42  1  0.88386700  0.75000000  0.49206100  1
  Co  Co43  1  0.62795600  0.75000000  0.44087800  1
  Co  Co44  1  0.62795600  0.00000000  0.47500000  1
  Co  Co45  1  0.12795600  0.25000000  0.40912200  1
  Co  Co46  1  0.37204400  0.25000000  0.45793900  1
  Co  Co47  1  0.88386700  0.25000000  0.45793900  1
  Co  Co48  1  0.12795600  0.50000000  0.57500000  1
  Co  Co49  1  0.87204400  0.75000000  0.59206100  1
  Co  Co50  1  0.38386700  0.75000000  0.59206100  1
  Co  Co51  1  0.12795600  0.75000000  0.54087800  1
  Co  Co52  1  0.12795600  0.00000000  0.57500000  1
  Co  Co53  1  0.62795600  0.25000000  0.50912200  1
  Co  Co54  1  0.87204400  0.25000000  0.55793900  1
  Co  Co55  1  0.38386700  0.25000000  0.55793900  1
  Co  Co56  1  0.62795600  0.50000000  0.67500000  1
  Co  Co57  1  0.37204400  0.75000000  0.69206100  1
  Co  Co58  1  0.88386700  0.75000000  0.69206100  1
  Co  Co59  1  0.62795600  0.75000000  0.64087800  1
  Co  Co60  1  0.62795600  0.00000000  0.67500000  1
  Co  Co61  1  0.12795600  0.25000000  0.60912200  1
  Co  Co62  1  0.37204400  0.25000000  0.65793900  1
  Co  Co63  1  0.88386700  0.25000000  0.65793900  1
  Co  Co64  1  0.12795600  0.75000000  0.74087800  1
  Co  Co65  1  0.62795600  0.25000000  0.70912200  1
