# generated using pymatgen
data_La4Mg
_symmetry_space_group_name_H-M   'P 1'
_cell_length_a   3.76223900
_cell_length_b   24.62731600
_cell_length_c   41.38462900
_cell_angle_alpha   90.00000000
_cell_angle_beta   90.00000000
_cell_angle_gamma   90.00000000
_symmetry_Int_Tables_number   1
_chemical_formula_structural   La4Mg
_chemical_formula_sum   'La56 Mg14'
_cell_volume   3834.44515472
_cell_formula_units_Z   14
loop_
 _symmetry_equiv_pos_site_id
 _symmetry_equiv_pos_as_xyz
  1  'x, y, z'
loop_
 _atom_site_type_symbol
 _atom_site_label
 _atom_site_symmetry_multiplicity
 _atom_site_fract_x
 _atom_site_fract_y
 _atom_site_fract_z
 _atom_site_occupancy
  La  La0  1  0.50000000  0.09003400  0.20454500  1
  La  La1  1  0.00000000  0.19673400  0.25000000  1
  La  La2  1  0.50000000  0.30326600  0.20454500  1
  La  La3  1  0.00000000  0.40996600  0.25000000  1
  La  La4  1  0.00000000  0.59003400  0.25000000  1
  La  La5  1  0.50000000  0.69673400  0.20454500  1
  La  La6  1  0.00000000  0.80326600  0.25000000  1
  La  La7  1  0.50000000  0.90996600  0.20454500  1
  La  La8  1  0.50000000  0.09003400  0.29545500  1
  La  La9  1  0.00000000  0.19673400  0.34090900  1
  La  La10  1  0.50000000  0.30326600  0.29545500  1
  La  La11  1  0.00000000  0.40996600  0.34090900  1
  La  La12  1  0.00000000  0.59003400  0.34090900  1
  La  La13  1  0.50000000  0.69673400  0.29545500  1
  La  La14  1  0.00000000  0.80326600  0.34090900  1
  La  La15  1  0.50000000  0.90996600  0.29545500  1
  La  La16  1  0.50000000  0.09003400  0.38636400  1
  La  La17  1  0.00000000  0.19673400  0.43181800  1
  La  La18  1  0.50000000  0.30326600  0.38636400  1
  La  La19  1  0.00000000  0.40996600  0.43181800  1
  La  La20  1  0.00000000  0.59003400  0.43181800  1
  La  La21  1  0.50000000  0.69673400  0.38636400  1
  La  La22  1  0.00000000  0.80326600  0.43181800  1
  La  La23  1  0.50000000  0.90996600  0.38636400  1
  La  La24  1  0.50000000  0.09003400  0.47727300  1
  La  La25  1  0.00000000  0.19673400  0.52272700  1
  La  La26  1  0.50000000  0.30326600  0.47727300  1
  La  La27  1  0.00000000  0.40996600  0.52272700  1
  La  La28  1  0.00000000  0.59003400  0.52272700  1
  La  La29  1  0.50000000  0.69673400  0.47727300  1
  La  La30  1  0.00000000  0.80326600  0.52272700  1
  La  La31  1  0.50000000  0.90996600  0.47727300  1
  La  La32  1  0.50000000  0.09003400  0.56818200  1
  La  La33  1  0.00000000  0.19673400  0.61363600  1
  La  La34  1  0.50000000  0.30326600  0.56818200  1
  La  La35  1  0.00000000  0.40996600  0.61363600  1
  La  La36  1  0.00000000  0.59003400  0.61363600  1
  La  La37  1  0.50000000  0.69673400  0.56818200  1
  La  La38  1  0.00000000  0.80326600  0.61363600  1
  La  La39  1  0.50000000  0.90996600  0.56818200  1
  La  La40  1  0.50000000  0.09003400  0.65909100  1
  La  La41  1  0.00000000  0.19673400  0.70454500  1
  La  La42  1  0.50000000  0.30326600  0.65909100  1
  La  La43  1  0.00000000  0.40996600  0.70454500  1
  La  La44  1  0.00000000  0.59003400  0.70454500  1
  La  La45  1  0.50000000  0.69673400  0.65909100  1
  La  La46  1  0.00000000  0.80326600  0.70454500  1
  La  La47  1  0.50000000  0.90996600  0.65909100  1
  La  La48  1  0.50000000  0.09003400  0.75000000  1
  La  La49  1  0.00000000  0.19673400  0.79545500  1
  La  La50  1  0.50000000  0.30326600  0.75000000  1
  La  La51  1  0.00000000  0.40996600  0.79545500  1
  La  La52  1  0.00000000  0.59003400  0.79545500  1
  La  La53  1  0.50000000  0.69673400  0.75000000  1
  La  La54  1  0.00000000  0.80326600  0.79545500  1
  La  La55  1  0.50000000  0.90996600  0.75000000  1
  Mg  Mg56  1  0.00000000  0.00000000  0.25000000  1
  Mg  Mg57  1  0.50000000  0.50000000  0.20454500  1
  Mg  Mg58  1  0.00000000  0.00000000  0.34090900  1
  Mg  Mg59  1  0.50000000  0.50000000  0.29545500  1
  Mg  Mg60  1  0.00000000  0.00000000  0.43181800  1
  Mg  Mg61  1  0.50000000  0.50000000  0.38636400  1
  Mg  Mg62  1  0.00000000  0.00000000  0.52272700  1
  Mg  Mg63  1  0.50000000  0.50000000  0.47727300  1
  Mg  Mg64  1  0.00000000  0.00000000  0.61363600  1
  Mg  Mg65  1  0.50000000  0.50000000  0.56818200  1
  Mg  Mg66  1  0.00000000  0.00000000  0.70454500  1
  Mg  Mg67  1  0.50000000  0.50000000  0.65909100  1
  Mg  Mg68  1  0.00000000  0.00000000  0.79545500  1
  Mg  Mg69  1  0.50000000  0.50000000  0.75000000  1
