# generated using pymatgen
data_MgP4
_symmetry_space_group_name_H-M   'P 1'
_cell_length_a   5.12288200
_cell_length_b   9.82138709
_cell_length_c   43.74732700
_cell_angle_alpha   86.74896466
_cell_angle_beta   90.00000000
_cell_angle_gamma   90.00000000
_symmetry_Int_Tables_number   1
_chemical_formula_structural   MgP4
_chemical_formula_sum   'Mg13 P52'
_cell_volume   2197.55223283
_cell_formula_units_Z   13
loop_
 _symmetry_equiv_pos_site_id
 _symmetry_equiv_pos_as_xyz
  1  'x, y, z'
loop_
 _atom_site_type_symbol
 _atom_site_label
 _atom_site_symmetry_multiplicity
 _atom_site_fract_x
 _atom_site_fract_y
 _atom_site_fract_z
 _atom_site_occupancy
  Mg  Mg0  1  0.00000000  0.72727300  0.25000000  1
  Mg  Mg1  1  0.50000000  0.40909100  0.20454500  1
  Mg  Mg2  1  0.00000000  0.36363600  0.34090900  1
  Mg  Mg3  1  0.50000000  0.04545500  0.29545500  1
  Mg  Mg4  1  0.00000000  0.00000000  0.43181800  1
  Mg  Mg5  1  0.50000000  0.68181800  0.38636400  1
  Mg  Mg6  1  0.00000000  0.63636400  0.52272700  1
  Mg  Mg7  1  0.50000000  0.31818200  0.47727300  1
  Mg  Mg8  1  0.00000000  0.27272700  0.61363600  1
  Mg  Mg9  1  0.50000000  0.95454500  0.56818200  1
  Mg  Mg10  1  0.00000000  0.90909100  0.70454500  1
  Mg  Mg11  1  0.50000000  0.59090900  0.65909100  1
  Mg  Mg12  1  0.50000000  0.22727300  0.75000000  1
  P  P13  1  0.29223200  0.16035800  0.20514800  1
  P  P14  1  0.79223200  0.97600600  0.24939700  1
  P  P15  1  0.70776800  0.65782400  0.20394200  1
  P  P16  1  0.20776800  0.47854000  0.25060300  1
  P  P17  1  0.89159400  0.32811100  0.24967500  1
  P  P18  1  0.39159400  0.80825200  0.20487000  1
  P  P19  1  0.10840600  0.12643400  0.25032500  1
  P  P20  1  0.60840600  0.00992900  0.20422100  1
  P  P21  1  0.29223200  0.79672100  0.29605800  1
  P  P22  1  0.79223200  0.61237000  0.34030600  1
  P  P23  1  0.70776800  0.29418800  0.29485200  1
  P  P24  1  0.20776800  0.11490300  0.34151200  1
  P  P25  1  0.89159400  0.96447500  0.34058400  1
  P  P26  1  0.39159400  0.44461600  0.29577900  1
  P  P27  1  0.10840600  0.76279800  0.34123400  1
  P  P28  1  0.60840600  0.64629300  0.29513000  1
  P  P29  1  0.29223200  0.43308500  0.38696700  1
  P  P30  1  0.79223200  0.24873300  0.43121500  1
  P  P31  1  0.70776800  0.93055100  0.38576100  1
  P  P32  1  0.20776800  0.75126700  0.43242100  1
  P  P33  1  0.89159400  0.60083800  0.43149300  1
  P  P34  1  0.39159400  0.08098000  0.38668800  1
  P  P35  1  0.10840600  0.39916200  0.43214300  1
  P  P36  1  0.60840600  0.28265700  0.38603900  1
  P  P37  1  0.29223200  0.06944900  0.47787600  1
  P  P38  1  0.79223200  0.88509700  0.52212400  1
  P  P39  1  0.70776800  0.56691500  0.47667000  1
  P  P40  1  0.20776800  0.38763000  0.52333000  1
  P  P41  1  0.89159400  0.23720200  0.52240300  1
  P  P42  1  0.39159400  0.71734300  0.47759700  1
  P  P43  1  0.10840600  0.03552500  0.52305200  1
  P  P44  1  0.60840600  0.91902000  0.47694800  1
  P  P45  1  0.29223200  0.70581200  0.56878500  1
  P  P46  1  0.79223200  0.52146000  0.61303300  1
  P  P47  1  0.70776800  0.20327900  0.56757900  1
  P  P48  1  0.20776800  0.02399400  0.61423900  1
  P  P49  1  0.89159400  0.87356600  0.61331200  1
  P  P50  1  0.39159400  0.35370700  0.56850700  1
  P  P51  1  0.10840600  0.67188900  0.61396100  1
  P  P52  1  0.60840600  0.55538400  0.56785700  1
  P  P53  1  0.29223200  0.34217600  0.65969400  1
  P  P54  1  0.79223200  0.15782400  0.70394200  1
  P  P55  1  0.70776800  0.83964200  0.65848800  1
  P  P56  1  0.20776800  0.66035800  0.70514800  1
  P  P57  1  0.89159400  0.50992900  0.70422100  1
  P  P58  1  0.39159400  0.99007100  0.65941600  1
  P  P59  1  0.10840600  0.30825200  0.70487000  1
  P  P60  1  0.60840600  0.19174800  0.65876600  1
  P  P61  1  0.29223200  0.97854000  0.75060300  1
  P  P62  1  0.70776800  0.47600600  0.74939700  1
  P  P63  1  0.39159400  0.62643400  0.75032500  1
  P  P64  1  0.60840600  0.82811100  0.74967500  1
