# generated using pymatgen
data_Mg17Bi11
_symmetry_space_group_name_H-M   'P 1'
_cell_length_a   8.19369232
_cell_length_b   8.82222126
_cell_length_c   43.07514200
_cell_angle_alpha   90.14909405
_cell_angle_beta   95.45760833
_cell_angle_gamma   62.33002037
_symmetry_Int_Tables_number   1
_chemical_formula_structural   Mg17Bi11
_chemical_formula_sum   'Mg34 Bi22'
_cell_volume   2742.10263200
_cell_formula_units_Z   2
loop_
 _symmetry_equiv_pos_site_id
 _symmetry_equiv_pos_as_xyz
  1  'x, y, z'
loop_
 _atom_site_type_symbol
 _atom_site_label
 _atom_site_symmetry_multiplicity
 _atom_site_fract_x
 _atom_site_fract_y
 _atom_site_fract_z
 _atom_site_occupancy
  Mg  Mg0  1  0.62527000  0.90631700  0.23157900  1
  Mg  Mg1  1  0.02764400  0.46793800  0.26461500  1
  Mg  Mg2  1  0.20421700  0.80105400  0.28421100  1
  Mg  Mg3  1  0.80184200  0.23943300  0.25117400  1
  Mg  Mg4  1  0.60659100  0.36267500  0.31724700  1
  Mg  Mg5  1  0.78316400  0.69579100  0.33684200  1
  Mg  Mg6  1  0.38079000  0.13417000  0.30380600  1
  Mg  Mg7  1  0.18553900  0.25741200  0.36987900  1
  Mg  Mg8  1  0.36211200  0.59052800  0.38947400  1
  Mg  Mg9  1  0.95973700  0.02890700  0.35643700  1
  Mg  Mg10  1  0.76448600  0.15214900  0.42251000  1
  Mg  Mg11  1  0.94105900  0.48526500  0.44210500  1
  Mg  Mg12  1  0.53868500  0.92364400  0.40906900  1
  Mg  Mg13  1  0.34343300  0.04688600  0.47514200  1
  Mg  Mg14  1  0.52000600  0.38000200  0.49473700  1
  Mg  Mg15  1  0.11763200  0.81838100  0.46170000  1
  Mg  Mg16  1  0.92238100  0.94162300  0.52777300  1
  Mg  Mg17  1  0.09895400  0.27473800  0.54736800  1
  Mg  Mg18  1  0.69657900  0.71311700  0.51433200  1
  Mg  Mg19  1  0.50132800  0.83635900  0.58040500  1
  Mg  Mg20  1  0.67790100  0.16947500  0.60000000  1
  Mg  Mg21  1  0.27552700  0.60785400  0.56696300  1
  Mg  Mg22  1  0.08027600  0.73109600  0.63303700  1
  Mg  Mg23  1  0.25684900  0.06421200  0.65263200  1
  Mg  Mg24  1  0.85447400  0.50259100  0.61959500  1
  Mg  Mg25  1  0.65922300  0.62583300  0.68566800  1
  Mg  Mg26  1  0.83579600  0.95894900  0.70526300  1
  Mg  Mg27  1  0.43342100  0.39732800  0.67222700  1
  Mg  Mg28  1  0.23817000  0.52057000  0.73830000  1
  Mg  Mg29  1  0.41474300  0.85368600  0.75789500  1
  Mg  Mg30  1  0.01236900  0.29206500  0.72485800  1
  Mg  Mg31  1  0.81711800  0.41530700  0.79093100  1
  Mg  Mg32  1  0.99369100  0.74842300  0.81052600  1
  Mg  Mg33  1  0.59131600  0.18680200  0.77749000  1
  Bi  Bi34  1  0.19929200  0.10318700  0.24315900  1
  Bi  Bi35  1  0.63019500  0.60418500  0.27263000  1
  Bi  Bi36  1  0.77823900  0.99792400  0.29579100  1
  Bi  Bi37  1  0.20914200  0.49892200  0.32526200  1
  Bi  Bi38  1  0.35718700  0.89266000  0.34842300  1
  Bi  Bi39  1  0.78808900  0.39365900  0.37789300  1
  Bi  Bi40  1  0.93613400  0.78739700  0.40105400  1
  Bi  Bi41  1  0.36703700  0.28839500  0.43052500  1
  Bi  Bi42  1  0.51508100  0.68213400  0.45368600  1
  Bi  Bi43  1  0.94598400  0.18313200  0.48315600  1
  Bi  Bi44  1  0.09402900  0.57687100  0.50631700  1
  Bi  Bi45  1  0.52493100  0.07786900  0.53578800  1
  Bi  Bi46  1  0.67297600  0.47160800  0.55894900  1
  Bi  Bi47  1  0.10387900  0.97260600  0.58841900  1
  Bi  Bi48  1  0.25192300  0.36634500  0.61158100  1
  Bi  Bi49  1  0.68282600  0.86734300  0.64105100  1
  Bi  Bi50  1  0.83087100  0.26108100  0.66421200  1
  Bi  Bi51  1  0.26177400  0.76208000  0.69368300  1
  Bi  Bi52  1  0.40981800  0.15581800  0.71684400  1
  Bi  Bi53  1  0.84072100  0.65681700  0.74631400  1
  Bi  Bi54  1  0.98876600  0.05055500  0.76947500  1
  Bi  Bi55  1  0.41966800  0.55155300  0.79894600  1
