# generated using pymatgen
data_Mg3Cd
_symmetry_space_group_name_H-M   'P 1'
_cell_length_a   5.12256600
_cell_length_b   6.30670400
_cell_length_c   43.69412700
_cell_angle_alpha   90.00000000
_cell_angle_beta   90.00000000
_cell_angle_gamma   90.00000000
_symmetry_Int_Tables_number   1
_chemical_formula_structural   Mg3Cd
_chemical_formula_sum   'Mg30 Cd10'
_cell_volume   1411.60464087
_cell_formula_units_Z   10
loop_
 _symmetry_equiv_pos_site_id
 _symmetry_equiv_pos_as_xyz
  1  'x, y, z'
loop_
 _atom_site_type_symbol
 _atom_site_label
 _atom_site_symmetry_multiplicity
 _atom_site_fract_x
 _atom_site_fract_y
 _atom_site_fract_z
 _atom_site_occupancy
  Mg  Mg0  1  0.75000000  0.00194900  0.27099600  1
  Mg  Mg1  1  0.75000000  0.75000000  0.20800800  1
  Mg  Mg2  1  0.75000000  0.49805100  0.27099600  1
  Mg  Mg3  1  0.25000000  0.49805100  0.22900400  1
  Mg  Mg4  1  0.25000000  0.75000000  0.29199200  1
  Mg  Mg5  1  0.25000000  0.00194900  0.22900400  1
  Mg  Mg6  1  0.75000000  0.50194900  0.39599600  1
  Mg  Mg7  1  0.75000000  0.25000000  0.33300800  1
  Mg  Mg8  1  0.75000000  0.99805100  0.39599600  1
  Mg  Mg9  1  0.25000000  0.99805100  0.35400400  1
  Mg  Mg10  1  0.25000000  0.25000000  0.41699200  1
  Mg  Mg11  1  0.25000000  0.50194900  0.35400400  1
  Mg  Mg12  1  0.75000000  0.00194900  0.52099600  1
  Mg  Mg13  1  0.75000000  0.75000000  0.45800800  1
  Mg  Mg14  1  0.75000000  0.49805100  0.52099600  1
  Mg  Mg15  1  0.25000000  0.49805100  0.47900400  1
  Mg  Mg16  1  0.25000000  0.75000000  0.54199200  1
  Mg  Mg17  1  0.25000000  0.00194900  0.47900400  1
  Mg  Mg18  1  0.75000000  0.50194900  0.64599600  1
  Mg  Mg19  1  0.75000000  0.25000000  0.58300800  1
  Mg  Mg20  1  0.75000000  0.99805100  0.64599600  1
  Mg  Mg21  1  0.25000000  0.99805100  0.60400400  1
  Mg  Mg22  1  0.25000000  0.25000000  0.66699200  1
  Mg  Mg23  1  0.25000000  0.50194900  0.60400400  1
  Mg  Mg24  1  0.75000000  0.00194900  0.77099600  1
  Mg  Mg25  1  0.75000000  0.75000000  0.70800800  1
  Mg  Mg26  1  0.75000000  0.49805100  0.77099600  1
  Mg  Mg27  1  0.25000000  0.49805100  0.72900400  1
  Mg  Mg28  1  0.25000000  0.75000000  0.79199200  1
  Mg  Mg29  1  0.25000000  0.00194900  0.72900400  1
  Cd  Cd30  1  0.75000000  0.25000000  0.20833300  1
  Cd  Cd31  1  0.25000000  0.25000000  0.29166700  1
  Cd  Cd32  1  0.75000000  0.75000000  0.33333300  1
  Cd  Cd33  1  0.25000000  0.75000000  0.41666700  1
  Cd  Cd34  1  0.75000000  0.25000000  0.45833300  1
  Cd  Cd35  1  0.25000000  0.25000000  0.54166700  1
  Cd  Cd36  1  0.75000000  0.75000000  0.58333300  1
  Cd  Cd37  1  0.25000000  0.75000000  0.66666700  1
  Cd  Cd38  1  0.75000000  0.25000000  0.70833300  1
  Cd  Cd39  1  0.25000000  0.25000000  0.79166700  1
