# generated using pymatgen
data_Mg32Zn67
_symmetry_space_group_name_H-M   'P 1'
_cell_length_a   5.07402229
_cell_length_b   14.70723601
_cell_length_c   50.49845100
_cell_angle_alpha   88.21601723
_cell_angle_beta   89.67566990
_cell_angle_gamma   90.29193359
_symmetry_Int_Tables_number   1
_chemical_formula_structural   Mg32Zn67
_chemical_formula_sum   'Mg32 Zn67'
_cell_volume   3766.49971225
_cell_formula_units_Z   1
loop_
 _symmetry_equiv_pos_site_id
 _symmetry_equiv_pos_as_xyz
  1  'x, y, z'
loop_
 _atom_site_type_symbol
 _atom_site_label
 _atom_site_symmetry_multiplicity
 _atom_site_fract_x
 _atom_site_fract_y
 _atom_site_fract_z
 _atom_site_occupancy
  Mg  Mg0  1  0.56391600  0.07003800  0.28774900  1
  Mg  Mg1  1  0.06112900  0.08649100  0.45769100  1
  Mg  Mg2  1  0.06975500  0.58273500  0.32255500  1
  Mg  Mg3  1  0.56730700  0.79715700  0.50403200  1
  Mg  Mg4  1  0.56595800  0.17278200  0.48267000  1
  Mg  Mg5  1  0.56782000  0.89749200  0.33206200  1
  Mg  Mg6  1  0.06358000  0.38569700  0.29536600  1
  Mg  Mg7  1  0.56312300  0.76805700  0.44596800  1
  Mg  Mg8  1  0.56439500  0.26726400  0.31415900  1
  Mg  Mg9  1  0.56447100  0.39243200  0.46733000  1
  Mg  Mg10  1  0.56067500  0.23248000  0.37744500  1
  Mg  Mg11  1  0.06603500  0.54795100  0.38584100  1
  Mg  Mg12  1  0.06381400  0.88109800  0.47159800  1
  Mg  Mg13  1  0.56491200  0.70183600  0.30460100  1
  Mg  Mg14  1  0.06551800  0.11337900  0.39539900  1
  Mg  Mg15  1  0.56684900  0.42951800  0.40463400  1
  Mg  Mg16  1  0.06651300  0.74517600  0.41225100  1
  Mg  Mg17  1  0.06260900  0.91772300  0.36793800  1
  Mg  Mg18  1  0.06930000  0.47872400  0.49230900  1
  Mg  Mg19  1  0.06661600  0.68411700  0.47840200  1
  Mg  Mg20  1  0.06391600  0.82003800  0.53774900  1
  Mg  Mg21  1  0.56975500  0.33273500  0.57255500  1
  Mg  Mg22  1  0.06782000  0.64749200  0.58206200  1
  Mg  Mg23  1  0.56358000  0.13569700  0.54536600  1
  Mg  Mg24  1  0.06439500  0.01726400  0.56415900  1
  Mg  Mg25  1  0.06067500  0.98248000  0.62744500  1
  Mg  Mg26  1  0.56603500  0.29795100  0.63584100  1
  Mg  Mg27  1  0.06491200  0.45183600  0.55460100  1
  Mg  Mg28  1  0.56551800  0.86337900  0.64539900  1
  Mg  Mg29  1  0.06684900  0.17951800  0.65463400  1
  Mg  Mg30  1  0.56651300  0.49517600  0.66225100  1
  Mg  Mg31  1  0.56260900  0.66772300  0.61793800  1
  Zn  Zn32  1  0.56111300  0.40261900  0.26269900  1
  Zn  Zn33  1  0.56448500  0.97415900  0.46606100  1
  Zn  Zn34  1  0.06872700  0.24815200  0.34660300  1
  Zn  Zn35  1  0.31460700  0.57048000  0.43881700  1
  Zn  Zn36  1  0.81037200  0.25048500  0.43035900  1
  Zn  Zn37  1  0.81226200  0.24697900  0.26016000  1
  Zn  Zn38  1  0.81521500  0.40760700  0.35000000  1
  Zn  Zn39  1  0.06931600  0.41259600  0.43730100  1
  Zn  Zn40  1  0.56602100  0.01344300  0.38125800  1
  Zn  Zn41  1  0.31364700  0.56474900  0.26973600  1
  Zn  Zn42  1  0.81180600  0.09084900  0.34228200  1
  Zn  Zn43  1  0.06434000  0.98411400  0.31029700  1
  Zn  Zn44  1  0.56563000  0.48194400  0.30926500  1
  Zn  Zn45  1  0.07072300  0.71718900  0.27279500  1
  Zn  Zn46  1  0.56594400  0.59105500  0.48393900  1
  Zn  Zn47  1  0.06440800  0.80177200  0.31874200  1
  Zn  Zn48  1  0.32436700  0.88002500  0.27792600  1
  Zn  Zn49  1  0.31678200  0.25046600  0.43026400  1
  Zn  Zn50  1  0.81816700  0.56823600  0.43984000  1
  Zn  Zn51  1  0.06479900  0.33327100  0.39073500  1
  Zn  Zn52  1  0.30606200  0.93519000  0.42207400  1
  Zn  Zn53  1  0.82005800  0.56473000  0.26964100  1
  Zn  Zn54  1  0.31521500  0.40760700  0.35000000  1
  Zn  Zn55  1  0.05966400  0.17235100  0.30071900  1
  Zn  Zn56  1  0.31586900  0.08994700  0.34265800  1
  Zn  Zn57  1  0.81096800  0.88250300  0.27726600  1
  Zn  Zn58  1  0.57076500  0.64286400  0.39928100  1
  Zn  Zn59  1  0.81946100  0.93271100  0.42273400  1
  Zn  Zn60  1  0.55970600  0.09802500  0.42720500  1
  Zn  Zn61  1  0.31456100  0.72526700  0.35734200  1
  Zn  Zn62  1  0.31582200  0.24473500  0.26118300  1
  Zn  Zn63  1  0.06521500  0.28260700  0.47500000  1
  Zn  Zn64  1  0.81862300  0.72436500  0.35771800  1
  Zn  Zn65  1  0.56609000  0.83110000  0.38970300  1
  Zn  Zn66  1  0.56170200  0.56706200  0.35339700  1
  Zn  Zn67  1  0.06111300  0.15261900  0.51269900  1
  Zn  Zn68  1  0.56872700  0.99815200  0.59660300  1
  Zn  Zn69  1  0.81460700  0.32048000  0.68881700  1
  Zn  Zn70  1  0.31037200  0.00048500  0.68035900  1
  Zn  Zn71  1  0.31226200  0.99697900  0.51016000  1
  Zn  Zn72  1  0.31521500  0.15760700  0.60000000  1
  Zn  Zn73  1  0.56931600  0.16259600  0.68730100  1
  Zn  Zn74  1  0.06602100  0.76344300  0.63125800  1
  Zn  Zn75  1  0.81364700  0.31474900  0.51973600  1
  Zn  Zn76  1  0.31180600  0.84084900  0.59228200  1
  Zn  Zn77  1  0.56434000  0.73411400  0.56029700  1
  Zn  Zn78  1  0.06563000  0.23194400  0.55926500  1
  Zn  Zn79  1  0.57072300  0.46718900  0.52279500  1
  Zn  Zn80  1  0.56440800  0.55177200  0.56874200  1
  Zn  Zn81  1  0.82436700  0.63002500  0.52792600  1
  Zn  Zn82  1  0.81678200  0.00046600  0.68026400  1
  Zn  Zn83  1  0.31816700  0.31823600  0.68984000  1
  Zn  Zn84  1  0.56479900  0.08327100  0.64073500  1
  Zn  Zn85  1  0.80606200  0.68519000  0.67207400  1
  Zn  Zn86  1  0.32005800  0.31473000  0.51964100  1
  Zn  Zn87  1  0.81521500  0.15760700  0.60000000  1
  Zn  Zn88  1  0.55966400  0.92235100  0.55071900  1
  Zn  Zn89  1  0.81586900  0.83994700  0.59265800  1
  Zn  Zn90  1  0.31096800  0.63250300  0.52726600  1
  Zn  Zn91  1  0.07076500  0.39286400  0.64928100  1
  Zn  Zn92  1  0.31946100  0.68271100  0.67273400  1
  Zn  Zn93  1  0.05970600  0.84802500  0.67720500  1
  Zn  Zn94  1  0.81456100  0.47526700  0.60734200  1
  Zn  Zn95  1  0.81582200  0.99473500  0.51118300  1
  Zn  Zn96  1  0.31862300  0.47436500  0.60771800  1
  Zn  Zn97  1  0.06609000  0.58110000  0.63970300  1
  Zn  Zn98  1  0.06170200  0.31706200  0.60339700  1
