# generated using pymatgen
data_Mg34Zn59
_symmetry_space_group_name_H-M   'P 1'
_cell_length_a   15.05205963
_cell_length_b   15.58232832
_cell_length_c   44.40935000
_cell_angle_alpha   95.28205411
_cell_angle_beta   87.96000798
_cell_angle_gamma   92.33702888
_symmetry_Int_Tables_number   1
_chemical_formula_structural   Mg34Zn59
_chemical_formula_sum   'Mg136 Zn236'
_cell_volume   10357.87463183
_cell_formula_units_Z   4
loop_
 _symmetry_equiv_pos_site_id
 _symmetry_equiv_pos_as_xyz
  1  'x, y, z'
loop_
 _atom_site_type_symbol
 _atom_site_label
 _atom_site_symmetry_multiplicity
 _atom_site_fract_x
 _atom_site_fract_y
 _atom_site_fract_z
 _atom_site_occupancy
  Mg  Mg0  1  0.66939300  0.86001400  0.21876800  1
  Mg  Mg1  1  0.93567000  0.64664300  0.24574400  1
  Mg  Mg2  1  0.57783600  0.33634600  0.19493300  1
  Mg  Mg3  1  0.84871300  0.93883800  0.19654100  1
  Mg  Mg4  1  0.79320400  0.51409700  0.26701900  1
  Mg  Mg5  1  0.51787600  0.00111500  0.20589900  1
  Mg  Mg6  1  0.61504000  0.52479700  0.23070900  1
  Mg  Mg7  1  0.00101700  0.98602700  0.23651700  1
  Mg  Mg8  1  0.63331000  0.67115800  0.18398800  1
  Mg  Mg9  1  0.87470800  0.31985900  0.25694800  1
  Mg  Mg10  1  0.27189400  0.58851900  0.23812500  1
  Mg  Mg11  1  0.21642000  0.25370700  0.24907000  1
  Mg  Mg12  1  0.86088700  0.82855100  0.25532200  1
  Mg  Mg13  1  0.55666700  0.18870600  0.24142600  1
  Mg  Mg14  1  0.29306300  0.73615900  0.19163200  1
  Mg  Mg15  1  0.23469000  0.40006800  0.20234900  1
  Mg  Mg16  1  0.18033700  0.06485100  0.21429000  1
  Mg  Mg17  1  0.33185400  0.92375000  0.22715800  1
  Mg  Mg18  1  0.91406000  0.27822200  0.18731400  1
  Mg  Mg19  1  0.80702400  0.00540500  0.26864500  1
  Mg  Mg20  1  0.48757500  0.76910500  0.30967700  1
  Mg  Mg21  1  0.75385200  0.55573400  0.33665300  1
  Mg  Mg22  1  0.39601800  0.24543600  0.28584200  1
  Mg  Mg23  1  0.66689500  0.84792900  0.28745000  1
  Mg  Mg24  1  0.61138600  0.42318800  0.35792800  1
  Mg  Mg25  1  0.33605700  0.91020600  0.29680800  1
  Mg  Mg26  1  0.43322200  0.43388800  0.32161800  1
  Mg  Mg27  1  0.81919800  0.89511800  0.32742600  1
  Mg  Mg28  1  0.45149200  0.58024900  0.27489700  1
  Mg  Mg29  1  0.69289000  0.22894900  0.34785700  1
  Mg  Mg30  1  0.09007600  0.49761000  0.32903400  1
  Mg  Mg31  1  0.03460100  0.16279800  0.33997900  1
  Mg  Mg32  1  0.67906900  0.73764200  0.34623100  1
  Mg  Mg33  1  0.37484900  0.09779700  0.33233500  1
  Mg  Mg34  1  0.11124400  0.64525000  0.28254100  1
  Mg  Mg35  1  0.05287200  0.30915900  0.29325800  1
  Mg  Mg36  1  0.99851900  0.97394200  0.30519900  1
  Mg  Mg37  1  0.15003600  0.83284100  0.31806800  1
  Mg  Mg38  1  0.73224200  0.18731300  0.27822300  1
  Mg  Mg39  1  0.62520600  0.91449600  0.35955400  1
  Mg  Mg40  1  0.30575700  0.67819600  0.40058600  1
  Mg  Mg41  1  0.57203300  0.46482500  0.42756200  1
  Mg  Mg42  1  0.21419900  0.15452700  0.37675100  1
  Mg  Mg43  1  0.48507700  0.75702000  0.37835900  1
  Mg  Mg44  1  0.42956800  0.33227900  0.44883700  1
  Mg  Mg45  1  0.15423900  0.81929700  0.38771800  1
  Mg  Mg46  1  0.25140400  0.34297900  0.41252700  1
  Mg  Mg47  1  0.63738000  0.80420900  0.41833500  1
  Mg  Mg48  1  0.26967400  0.48934000  0.36580600  1
  Mg  Mg49  1  0.51107100  0.13804000  0.43876600  1
  Mg  Mg50  1  0.90825800  0.40670100  0.41994300  1
  Mg  Mg51  1  0.85278300  0.07188900  0.43088800  1
  Mg  Mg52  1  0.49725100  0.64673300  0.43714000  1
  Mg  Mg53  1  0.19303100  0.00688800  0.42324400  1
  Mg  Mg54  1  0.92942600  0.55434100  0.37345000  1
  Mg  Mg55  1  0.87105400  0.21825000  0.38416700  1
  Mg  Mg56  1  0.81670100  0.88303300  0.39610800  1
  Mg  Mg57  1  0.96821800  0.74193100  0.40897700  1
  Mg  Mg58  1  0.55042400  0.09640400  0.36913200  1
  Mg  Mg59  1  0.44338800  0.82358700  0.45046300  1
  Mg  Mg60  1  0.12393800  0.58728700  0.49149500  1
  Mg  Mg61  1  0.39021500  0.37391600  0.51847100  1
  Mg  Mg62  1  0.03238100  0.06361800  0.46766000  1
  Mg  Mg63  1  0.30325900  0.66611100  0.46926900  1
  Mg  Mg64  1  0.24774900  0.24137000  0.53974600  1
  Mg  Mg65  1  0.97242100  0.72838800  0.47862700  1
  Mg  Mg66  1  0.06958500  0.25206900  0.50343600  1
  Mg  Mg67  1  0.45556200  0.71329900  0.50924400  1
  Mg  Mg68  1  0.08785600  0.39843100  0.45671500  1
  Mg  Mg69  1  0.32925300  0.04713100  0.52967500  1
  Mg  Mg70  1  0.72644000  0.31579200  0.51085200  1
  Mg  Mg71  1  0.67096500  0.98098000  0.52179700  1
  Mg  Mg72  1  0.31543300  0.55582400  0.52804900  1
  Mg  Mg73  1  0.01121300  0.91597900  0.51415300  1
  Mg  Mg74  1  0.74760800  0.46343200  0.46435900  1
  Mg  Mg75  1  0.68923500  0.12734100  0.47507600  1
  Mg  Mg76  1  0.63488300  0.79212400  0.48701700  1
  Mg  Mg77  1  0.78640000  0.65102200  0.49988600  1
  Mg  Mg78  1  0.36860600  0.00549500  0.46004100  1
  Mg  Mg79  1  0.26157000  0.73267800  0.54137200  1
  Mg  Mg80  1  0.94212000  0.49637800  0.58240400  1
  Mg  Mg81  1  0.20839700  0.28300600  0.60938000  1
  Mg  Mg82  1  0.85056300  0.97270900  0.55856900  1
  Mg  Mg83  1  0.12144100  0.57520200  0.56017800  1
  Mg  Mg84  1  0.06593100  0.15046100  0.63065500  1
  Mg  Mg85  1  0.79060300  0.63747900  0.56953600  1
  Mg  Mg86  1  0.88776700  0.16116000  0.59434500  1
  Mg  Mg87  1  0.27374400  0.62239000  0.60015300  1
  Mg  Mg88  1  0.90603800  0.30752100  0.54762400  1
  Mg  Mg89  1  0.14743500  0.95622200  0.62058400  1
  Mg  Mg90  1  0.54462100  0.22488300  0.60176100  1
  Mg  Mg91  1  0.48914700  0.89007100  0.61270600  1
  Mg  Mg92  1  0.13361500  0.46491500  0.61895900  1
  Mg  Mg93  1  0.82939500  0.82507000  0.60506200  1
  Mg  Mg94  1  0.56579000  0.37252200  0.55526800  1
  Mg  Mg95  1  0.50741700  0.03643200  0.56598500  1
  Mg  Mg96  1  0.45306400  0.70121500  0.57792600  1
  Mg  Mg97  1  0.60458200  0.56011300  0.59079500  1
  Mg  Mg98  1  0.18678700  0.91458600  0.55095100  1
  Mg  Mg99  1  0.07975200  0.64176900  0.63228100  1
  Mg  Mg100  1  0.76030200  0.40546800  0.67331300  1
  Mg  Mg101  1  0.02657900  0.19209700  0.70028900  1
  Mg  Mg102  1  0.66874500  0.88180000  0.64947900  1
  Mg  Mg103  1  0.93962200  0.48429300  0.65108700  1
  Mg  Mg104  1  0.88411300  0.05955200  0.72156400  1
  Mg  Mg105  1  0.60878500  0.54657000  0.66044500  1
  Mg  Mg106  1  0.70594900  0.07025100  0.68525500  1
  Mg  Mg107  1  0.09192600  0.53148100  0.69106200  1
  Mg  Mg108  1  0.72421900  0.21661200  0.63853300  1
  Mg  Mg109  1  0.96561700  0.86531300  0.71149300  1
  Mg  Mg110  1  0.36280300  0.13397400  0.69267000  1
  Mg  Mg111  1  0.30732900  0.79916200  0.70361500  1
  Mg  Mg112  1  0.95179600  0.37400500  0.70986800  1
  Mg  Mg113  1  0.64757600  0.73416100  0.69597200  1
  Mg  Mg114  1  0.38397200  0.28161300  0.64617700  1
  Mg  Mg115  1  0.32559900  0.94552300  0.65689400  1
  Mg  Mg116  1  0.27124600  0.61030600  0.66883600  1
  Mg  Mg117  1  0.42276400  0.46920400  0.68170400  1
  Mg  Mg118  1  0.00496900  0.82367700  0.64186000  1
  Mg  Mg119  1  0.89793400  0.55086000  0.72319000  1
  Mg  Mg120  1  0.57848400  0.31455900  0.76422200  1
  Mg  Mg121  1  0.84476100  0.10118800  0.79119800  1
  Mg  Mg122  1  0.48692700  0.79089100  0.74038800  1
  Mg  Mg123  1  0.75780400  0.39338400  0.74199600  1
  Mg  Mg124  1  0.42696600  0.45566100  0.75135400  1
  Mg  Mg125  1  0.52413100  0.97934200  0.77616400  1
  Mg  Mg126  1  0.91010800  0.44057200  0.78197100  1
  Mg  Mg127  1  0.54240100  0.12570300  0.72944300  1
  Mg  Mg128  1  0.18098500  0.04306500  0.78357900  1
  Mg  Mg129  1  0.12551100  0.70825300  0.79452400  1
  Mg  Mg130  1  0.46575800  0.64325200  0.78688100  1
  Mg  Mg131  1  0.20215400  0.19070400  0.73708600  1
  Mg  Mg132  1  0.14378100  0.85461400  0.74780300  1
  Mg  Mg133  1  0.08942800  0.51939700  0.75974500  1
  Mg  Mg134  1  0.24094500  0.37829500  0.77261300  1
  Mg  Mg135  1  0.82315100  0.73276800  0.73276900  1
  Zn  Zn136  1  0.79767000  0.56652200  0.20472900  1
  Zn  Zn137  1  0.98394000  0.79147900  0.20487000  1
  Zn  Zn138  1  0.45123100  0.63167400  0.21014000  1
  Zn  Zn139  1  0.12123000  0.23656000  0.19071200  1
  Zn  Zn140  1  0.17625700  0.57561000  0.18011600  1
  Zn  Zn141  1  0.82196000  0.73176800  0.19766200  1
  Zn  Zn142  1  0.42486500  0.46243200  0.21652900  1
  Zn  Zn143  1  0.05206000  0.35834300  0.22832900  1
  Zn  Zn144  1  0.22264100  0.78674300  0.25512400  1
  Zn  Zn145  1  0.76296300  0.39407600  0.20800900  1
  Zn  Zn146  1  0.38770300  0.75289100  0.25054700  1
  Zn  Zn147  1  0.50144300  0.88451100  0.25764600  1
  Zn  Zn148  1  0.50409800  0.38697700  0.25838300  1
  Zn  Zn149  1  0.73816700  0.23229700  0.21428700  1
  Zn  Zn150  1  0.86579000  0.13338600  0.22818800  1
  Zn  Zn151  1  0.44527000  0.04721300  0.26884200  1
  Zn  Zn152  1  0.61808000  0.01454900  0.26407000  1
  Zn  Zn153  1  0.08676700  0.53078900  0.22504900  1
  Zn  Zn154  1  0.02777000  0.19309700  0.23539600  1
  Zn  Zn155  1  0.16381400  0.44697900  0.26558400  1
  Zn  Zn156  1  0.04983200  0.81940700  0.25989700  1
  Zn  Zn157  1  0.67347300  0.34925500  0.25294200  1
  Zn  Zn158  1  0.33395600  0.41697800  0.26198300  1
  Zn  Zn159  1  0.56094000  0.71644500  0.24705400  1
  Zn  Zn160  1  0.47816100  0.79939800  0.20456500  1
  Zn  Zn161  1  0.70880400  0.05677200  0.22002800  1
  Zn  Zn162  1  0.28879000  0.20842000  0.18600400  1
  Zn  Zn163  1  0.14092600  0.86809300  0.21303000  1
  Zn  Zn164  1  0.11156300  0.69256800  0.21877100  1
  Zn  Zn165  1  0.37156900  0.12546700  0.22849200  1
  Zn  Zn166  1  0.72850000  0.68830500  0.24234600  1
  Zn  Zn167  1  0.92486500  0.46243200  0.21652900  1
  Zn  Zn168  1  0.46202700  0.17197400  0.18251100  1
  Zn  Zn169  1  0.16646900  0.94944400  0.26632100  1
  Zn  Zn170  1  0.39849900  0.29319100  0.22291800  1
  Zn  Zn171  1  0.61585200  0.47561300  0.29563800  1
  Zn  Zn172  1  0.80212200  0.70057000  0.29577900  1
  Zn  Zn173  1  0.26941300  0.54076400  0.30104900  1
  Zn  Zn174  1  0.93941200  0.14565100  0.28162100  1
  Zn  Zn175  1  0.99443800  0.48470100  0.27102500  1
  Zn  Zn176  1  0.64014200  0.64085900  0.28857100  1
  Zn  Zn177  1  0.24304700  0.37152300  0.30743800  1
  Zn  Zn178  1  0.87024100  0.26743400  0.31923800  1
  Zn  Zn179  1  0.04082300  0.69583400  0.34603400  1
  Zn  Zn180  1  0.58114500  0.30316600  0.29891800  1
  Zn  Zn181  1  0.20588500  0.66198200  0.34145600  1
  Zn  Zn182  1  0.31962500  0.79360200  0.34855500  1
  Zn  Zn183  1  0.32228000  0.29606800  0.34929200  1
  Zn  Zn184  1  0.55634900  0.14138800  0.30519600  1
  Zn  Zn185  1  0.68397200  0.04247700  0.31909700  1
  Zn  Zn186  1  0.26345200  0.95630400  0.35975200  1
  Zn  Zn187  1  0.43626200  0.92364000  0.35497900  1
  Zn  Zn188  1  0.90494800  0.43988000  0.31595800  1
  Zn  Zn189  1  0.84595200  0.10218800  0.32630500  1
  Zn  Zn190  1  0.98199500  0.35607000  0.35649300  1
  Zn  Zn191  1  0.86801400  0.72849800  0.35080600  1
  Zn  Zn192  1  0.49165500  0.25834600  0.34385100  1
  Zn  Zn193  1  0.15213800  0.32606900  0.35289300  1
  Zn  Zn194  1  0.37912200  0.62553600  0.33796300  1
  Zn  Zn195  1  0.29634200  0.70848900  0.29547400  1
  Zn  Zn196  1  0.52698600  0.96586300  0.31093700  1
  Zn  Zn197  1  0.10697200  0.11751100  0.27691300  1
  Zn  Zn198  1  0.95910800  0.77718400  0.30393900  1
  Zn  Zn199  1  0.92974500  0.60165900  0.30968000  1
  Zn  Zn200  1  0.18975100  0.03455800  0.31940200  1
  Zn  Zn201  1  0.54668200  0.59739600  0.33325500  1
  Zn  Zn202  1  0.74304700  0.37152300  0.30743800  1
  Zn  Zn203  1  0.28020900  0.08106500  0.27342000  1
  Zn  Zn204  1  0.98465100  0.85853500  0.35723000  1
  Zn  Zn205  1  0.21668000  0.20228200  0.31382700  1
  Zn  Zn206  1  0.43403400  0.38470400  0.38654700  1
  Zn  Zn207  1  0.62030400  0.60966100  0.38668800  1
  Zn  Zn208  1  0.08759500  0.44985500  0.39195800  1
  Zn  Zn209  1  0.75759400  0.05474200  0.37253000  1
  Zn  Zn210  1  0.81262000  0.39379200  0.36193400  1
  Zn  Zn211  1  0.45832300  0.54995000  0.37948000  1
  Zn  Zn212  1  0.06122900  0.28061400  0.39834700  1
  Zn  Zn213  1  0.68842300  0.17652400  0.41014700  1
  Zn  Zn214  1  0.85900500  0.60492500  0.43694300  1
  Zn  Zn215  1  0.39932700  0.21225700  0.38982700  1
  Zn  Zn216  1  0.02406700  0.57107300  0.43236500  1
  Zn  Zn217  1  0.13780600  0.70269300  0.43946400  1
  Zn  Zn218  1  0.14046200  0.20515900  0.44020100  1
  Zn  Zn219  1  0.37453100  0.05047900  0.39610500  1
  Zn  Zn220  1  0.50215400  0.95156800  0.41000600  1
  Zn  Zn221  1  0.08163400  0.86539500  0.45066100  1
  Zn  Zn222  1  0.25444300  0.83273000  0.44588800  1
  Zn  Zn223  1  0.72313000  0.34897100  0.40686700  1
  Zn  Zn224  1  0.66413400  0.01127900  0.41721400  1
  Zn  Zn225  1  0.80017700  0.26516000  0.44740200  1
  Zn  Zn226  1  0.68619600  0.63758900  0.44171500  1
  Zn  Zn227  1  0.30983700  0.16743700  0.43476000  1
  Zn  Zn228  1  0.97032000  0.23516000  0.44380200  1
  Zn  Zn229  1  0.19730400  0.53462700  0.42887200  1
  Zn  Zn230  1  0.11452400  0.61758000  0.38638400  1
  Zn  Zn231  1  0.34516800  0.87495400  0.40184600  1
  Zn  Zn232  1  0.92515400  0.02660200  0.36782200  1
  Zn  Zn233  1  0.77728900  0.68627500  0.39484800  1
  Zn  Zn234  1  0.74792700  0.51075000  0.40058900  1
  Zn  Zn235  1  0.00793300  0.94364900  0.41031100  1
  Zn  Zn236  1  0.36486300  0.50648700  0.42416400  1
  Zn  Zn237  1  0.56122900  0.28061400  0.39834700  1
  Zn  Zn238  1  0.09839100  0.99015600  0.36432900  1
  Zn  Zn239  1  0.80283300  0.76762600  0.44813900  1
  Zn  Zn240  1  0.03486200  0.11137300  0.40473600  1
  Zn  Zn241  1  0.25221600  0.29379500  0.47745600  1
  Zn  Zn242  1  0.43848600  0.51875100  0.47759700  1
  Zn  Zn243  1  0.90577700  0.35894600  0.48286700  1
  Zn  Zn244  1  0.57577600  0.96383300  0.46343900  1
  Zn  Zn245  1  0.63080200  0.30288300  0.45284300  1
  Zn  Zn246  1  0.27650500  0.45904100  0.47038900  1
  Zn  Zn247  1  0.87941000  0.18970500  0.48925600  1
  Zn  Zn248  1  0.50660500  0.08561500  0.50105600  1
  Zn  Zn249  1  0.67718700  0.51401600  0.52785200  1
  Zn  Zn250  1  0.21750900  0.12134800  0.48073600  1
  Zn  Zn251  1  0.84224800  0.48016400  0.52327400  1
  Zn  Zn252  1  0.95598800  0.61178400  0.53037300  1
  Zn  Zn253  1  0.95864400  0.11425000  0.53111000  1
  Zn  Zn254  1  0.19271200  0.95957000  0.48701500  1
  Zn  Zn255  1  0.32033500  0.86065900  0.50091500  1
  Zn  Zn256  1  0.89981600  0.77448500  0.54157000  1
  Zn  Zn257  1  0.07262500  0.74182100  0.53679700  1
  Zn  Zn258  1  0.54131200  0.25806200  0.49777600  1
  Zn  Zn259  1  0.48231600  0.92036900  0.50812300  1
  Zn  Zn260  1  0.61835900  0.17425100  0.53831100  1
  Zn  Zn261  1  0.50437700  0.54668000  0.53262400  1
  Zn  Zn262  1  0.12801900  0.07652800  0.52566900  1
  Zn  Zn263  1  0.78850100  0.14425100  0.53471100  1
  Zn  Zn264  1  0.01548500  0.44371800  0.51978100  1
  Zn  Zn265  1  0.93270600  0.52667100  0.47729300  1
  Zn  Zn266  1  0.16335000  0.78404500  0.49275500  1
  Zn  Zn267  1  0.74333500  0.93569300  0.45873100  1
  Zn  Zn268  1  0.59547100  0.59536600  0.48575700  1
  Zn  Zn269  1  0.56610800  0.41984100  0.49149800  1
  Zn  Zn270  1  0.82611500  0.85273900  0.50122000  1
  Zn  Zn271  1  0.18304500  0.41557800  0.51507300  1
  Zn  Zn272  1  0.37941000  0.18970500  0.48925600  1
  Zn  Zn273  1  0.91657200  0.89924700  0.45523800  1
  Zn  Zn274  1  0.62101400  0.67671700  0.53904800  1
  Zn  Zn275  1  0.85304400  0.02046400  0.49564500  1
  Zn  Zn276  1  0.07039800  0.20288600  0.56836500  1
  Zn  Zn277  1  0.25666700  0.42784200  0.56850700  1
  Zn  Zn278  1  0.72395900  0.26803700  0.57377600  1
  Zn  Zn279  1  0.39395700  0.87292400  0.55434900  1
  Zn  Zn280  1  0.44898400  0.21197300  0.54375200  1
  Zn  Zn281  1  0.09468700  0.36813200  0.56129800  1
  Zn  Zn282  1  0.69759200  0.09879600  0.58016500  1
  Zn  Zn283  1  0.32478700  0.99470600  0.59196500  1
  Zn  Zn284  1  0.49536900  0.42310700  0.61876100  1
  Zn  Zn285  1  0.03569100  0.03043900  0.57164500  1
  Zn  Zn286  1  0.66043000  0.38925500  0.61418300  1
  Zn  Zn287  1  0.77417000  0.52087500  0.62128300  1
  Zn  Zn288  1  0.77682600  0.02334100  0.62201900  1
  Zn  Zn289  1  0.01089400  0.86866100  0.57792400  1
  Zn  Zn290  1  0.13851700  0.76975000  0.59182400  1
  Zn  Zn291  1  0.71799800  0.68357600  0.63247900  1
  Zn  Zn292  1  0.89080700  0.65091200  0.62770600  1
  Zn  Zn293  1  0.35949400  0.16715300  0.58868600  1
  Zn  Zn294  1  0.30049700  0.82946000  0.59903200  1
  Zn  Zn295  1  0.43654100  0.08334200  0.62922000  1
  Zn  Zn296  1  0.32255900  0.45577100  0.62353400  1
  Zn  Zn297  1  0.94620100  0.98561900  0.61657800  1
  Zn  Zn298  1  0.60668300  0.05334200  0.62562000  1
  Zn  Zn299  1  0.83366700  0.35280900  0.61069000  1
  Zn  Zn300  1  0.75088800  0.43576200  0.56820200  1
  Zn  Zn301  1  0.98153200  0.69313500  0.58366500  1
  Zn  Zn302  1  0.56151700  0.84478400  0.54964000  1
  Zn  Zn303  1  0.41365300  0.50445700  0.57666600  1
  Zn  Zn304  1  0.38429000  0.32893200  0.58240700  1
  Zn  Zn305  1  0.64429700  0.76183000  0.59212900  1
  Zn  Zn306  1  0.00122700  0.32466900  0.60598200  1
  Zn  Zn307  1  0.19759200  0.09879600  0.58016500  1
  Zn  Zn308  1  0.73475400  0.80833800  0.54614800  1
  Zn  Zn309  1  0.43919600  0.58580800  0.62995700  1
  Zn  Zn310  1  0.67122600  0.92955500  0.58655400  1
  Zn  Zn311  1  0.88858000  0.11197700  0.65927400  1
  Zn  Zn312  1  0.07484900  0.33693300  0.65941600  1
  Zn  Zn313  1  0.54214000  0.17712800  0.66468600  1
  Zn  Zn314  1  0.21213900  0.78201500  0.64525800  1
  Zn  Zn315  1  0.26716600  0.12106400  0.63466100  1
  Zn  Zn316  1  0.91286900  0.27722300  0.65220700  1
  Zn  Zn317  1  0.51577400  0.00788700  0.67107400  1
  Zn  Zn318  1  0.14296900  0.90379700  0.68287400  1
  Zn  Zn319  1  0.31355000  0.33219800  0.70967000  1
  Zn  Zn320  1  0.85387200  0.93953000  0.66255400  1
  Zn  Zn321  1  0.47861200  0.29834600  0.70509200  1
  Zn  Zn322  1  0.59235200  0.42996600  0.71219200  1
  Zn  Zn323  1  0.59500700  0.93243200  0.71292800  1
  Zn  Zn324  1  0.82907600  0.77775100  0.66883300  1
  Zn  Zn325  1  0.95669900  0.67884100  0.68273300  1
  Zn  Zn326  1  0.53618000  0.59266700  0.72338800  1
  Zn  Zn327  1  0.70898900  0.56000300  0.71861500  1
  Zn  Zn328  1  0.17767600  0.07624400  0.67959500  1
  Zn  Zn329  1  0.11867900  0.73855100  0.68994100  1
  Zn  Zn330  1  0.25472300  0.99243300  0.72012900  1
  Zn  Zn331  1  0.14074100  0.36486200  0.71444300  1
  Zn  Zn332  1  0.76438200  0.89471000  0.70748800  1
  Zn  Zn333  1  0.42486500  0.96243200  0.71652900  1
  Zn  Zn334  1  0.65184900  0.26190000  0.70159900  1
  Zn  Zn335  1  0.56907000  0.34485300  0.65911100  1
  Zn  Zn336  1  0.79971300  0.60222600  0.67457400  1
  Zn  Zn337  1  0.37969900  0.75387400  0.64054900  1
  Zn  Zn338  1  0.23183500  0.41354800  0.66757500  1
  Zn  Zn339  1  0.20247200  0.23802300  0.67331600  1
  Zn  Zn340  1  0.46247900  0.67092100  0.68303800  1
  Zn  Zn341  1  0.81940900  0.23376000  0.69689100  1
  Zn  Zn342  1  0.01577400  0.00788700  0.67107400  1
  Zn  Zn343  1  0.55293600  0.71742800  0.63705700  1
  Zn  Zn344  1  0.25737800  0.49489900  0.72086600  1
  Zn  Zn345  1  0.48940800  0.83864600  0.67746300  1
  Zn  Zn346  1  0.70676100  0.02106800  0.75018300  1
  Zn  Zn347  1  0.89303100  0.24602400  0.75032500  1
  Zn  Zn348  1  0.36032200  0.08621900  0.75559500  1
  Zn  Zn349  1  0.03032100  0.69110500  0.73616700  1
  Zn  Zn350  1  0.08534700  0.03015500  0.72557000  1
  Zn  Zn351  1  0.73105100  0.18631400  0.74311600  1
  Zn  Zn352  1  0.33395600  0.91697800  0.76198300  1
  Zn  Zn353  1  0.96115000  0.81288800  0.77378400  1
  Zn  Zn354  1  0.67205400  0.84862100  0.75346300  1
  Zn  Zn355  1  0.29679400  0.20743600  0.79600100  1
  Zn  Zn356  1  0.64725800  0.68684200  0.75974200  1
  Zn  Zn357  1  0.77488100  0.58793200  0.77364200  1
  Zn  Zn358  1  0.99585700  0.98533500  0.77050400  1
  Zn  Zn359  1  0.93686100  0.64764200  0.78085100  1
  Zn  Zn360  1  0.58256400  0.80380100  0.79839700  1
  Zn  Zn361  1  0.47003100  0.17099100  0.79250900  1
  Zn  Zn362  1  0.38725100  0.25394400  0.75002000  1
  Zn  Zn363  1  0.61789500  0.51131700  0.76548300  1
  Zn  Zn364  1  0.19788100  0.66296500  0.73145800  1
  Zn  Zn365  1  0.05001700  0.32263900  0.75848400  1
  Zn  Zn366  1  0.02065400  0.14711400  0.76422500  1
  Zn  Zn367  1  0.28066000  0.58001200  0.77394700  1
  Zn  Zn368  1  0.63759100  0.14285000  0.78780000  1
  Zn  Zn369  1  0.83395600  0.91697800  0.76198300  1
  Zn  Zn370  1  0.37111800  0.62651900  0.72796600  1
  Zn  Zn371  1  0.30758900  0.74773700  0.76837200  1
