# generated using pymatgen
data_Y2Mg
_symmetry_space_group_name_H-M   'P 1'
_cell_length_a   5.49634900
_cell_length_b   17.17186500
_cell_length_c   44.71881700
_cell_angle_alpha   90.00000000
_cell_angle_beta   90.00000000
_cell_angle_gamma   90.00000000
_symmetry_Int_Tables_number   1
_chemical_formula_structural   Y2Mg
_chemical_formula_sum   'Y56 Mg28'
_cell_volume   4220.67656372
_cell_formula_units_Z   28
loop_
 _symmetry_equiv_pos_site_id
 _symmetry_equiv_pos_as_xyz
  1  'x, y, z'
loop_
 _atom_site_type_symbol
 _atom_site_label
 _atom_site_symmetry_multiplicity
 _atom_site_fract_x
 _atom_site_fract_y
 _atom_site_fract_z
 _atom_site_occupancy
  Y  Y0  1  0.75000000  0.90944400  0.22916700  1
  Y  Y1  1  0.75000000  0.72719800  0.27083300  1
  Y  Y2  1  0.25000000  0.59055600  0.27083300  1
  Y  Y3  1  0.25000000  0.77280200  0.22916700  1
  Y  Y4  1  0.75000000  0.40944400  0.27083300  1
  Y  Y5  1  0.75000000  0.22719800  0.22916700  1
  Y  Y6  1  0.25000000  0.09055600  0.22916700  1
  Y  Y7  1  0.25000000  0.27280200  0.27083300  1
  Y  Y8  1  0.75000000  0.90944400  0.31250000  1
  Y  Y9  1  0.75000000  0.72719800  0.35416700  1
  Y  Y10  1  0.25000000  0.59055600  0.35416700  1
  Y  Y11  1  0.25000000  0.77280200  0.31250000  1
  Y  Y12  1  0.75000000  0.40944400  0.35416700  1
  Y  Y13  1  0.75000000  0.22719800  0.31250000  1
  Y  Y14  1  0.25000000  0.09055600  0.31250000  1
  Y  Y15  1  0.25000000  0.27280200  0.35416700  1
  Y  Y16  1  0.75000000  0.90944400  0.39583300  1
  Y  Y17  1  0.75000000  0.72719800  0.43750000  1
  Y  Y18  1  0.25000000  0.59055600  0.43750000  1
  Y  Y19  1  0.25000000  0.77280200  0.39583300  1
  Y  Y20  1  0.75000000  0.40944400  0.43750000  1
  Y  Y21  1  0.75000000  0.22719800  0.39583300  1
  Y  Y22  1  0.25000000  0.09055600  0.39583300  1
  Y  Y23  1  0.25000000  0.27280200  0.43750000  1
  Y  Y24  1  0.75000000  0.90944400  0.47916700  1
  Y  Y25  1  0.75000000  0.72719800  0.52083300  1
  Y  Y26  1  0.25000000  0.59055600  0.52083300  1
  Y  Y27  1  0.25000000  0.77280200  0.47916700  1
  Y  Y28  1  0.75000000  0.40944400  0.52083300  1
  Y  Y29  1  0.75000000  0.22719800  0.47916700  1
  Y  Y30  1  0.25000000  0.09055600  0.47916700  1
  Y  Y31  1  0.25000000  0.27280200  0.52083300  1
  Y  Y32  1  0.75000000  0.90944400  0.56250000  1
  Y  Y33  1  0.75000000  0.72719800  0.60416700  1
  Y  Y34  1  0.25000000  0.59055600  0.60416700  1
  Y  Y35  1  0.25000000  0.77280200  0.56250000  1
  Y  Y36  1  0.75000000  0.40944400  0.60416700  1
  Y  Y37  1  0.75000000  0.22719800  0.56250000  1
  Y  Y38  1  0.25000000  0.09055600  0.56250000  1
  Y  Y39  1  0.25000000  0.27280200  0.60416700  1
  Y  Y40  1  0.75000000  0.90944400  0.64583300  1
  Y  Y41  1  0.75000000  0.72719800  0.68750000  1
  Y  Y42  1  0.25000000  0.59055600  0.68750000  1
  Y  Y43  1  0.25000000  0.77280200  0.64583300  1
  Y  Y44  1  0.75000000  0.40944400  0.68750000  1
  Y  Y45  1  0.75000000  0.22719800  0.64583300  1
  Y  Y46  1  0.25000000  0.09055600  0.64583300  1
  Y  Y47  1  0.25000000  0.27280200  0.68750000  1
  Y  Y48  1  0.75000000  0.90944400  0.72916700  1
  Y  Y49  1  0.75000000  0.72719800  0.77083300  1
  Y  Y50  1  0.25000000  0.59055600  0.77083300  1
  Y  Y51  1  0.25000000  0.77280200  0.72916700  1
  Y  Y52  1  0.75000000  0.40944400  0.77083300  1
  Y  Y53  1  0.75000000  0.22719800  0.72916700  1
  Y  Y54  1  0.25000000  0.09055600  0.72916700  1
  Y  Y55  1  0.25000000  0.27280200  0.77083300  1
  Mg  Mg56  1  0.75000000  0.56753000  0.22916700  1
  Mg  Mg57  1  0.25000000  0.93247000  0.27083300  1
  Mg  Mg58  1  0.75000000  0.06753000  0.27083300  1
  Mg  Mg59  1  0.25000000  0.43247000  0.22916700  1
  Mg  Mg60  1  0.75000000  0.56753000  0.31250000  1
  Mg  Mg61  1  0.25000000  0.93247000  0.35416700  1
  Mg  Mg62  1  0.75000000  0.06753000  0.35416700  1
  Mg  Mg63  1  0.25000000  0.43247000  0.31250000  1
  Mg  Mg64  1  0.75000000  0.56753000  0.39583300  1
  Mg  Mg65  1  0.25000000  0.93247000  0.43750000  1
  Mg  Mg66  1  0.75000000  0.06753000  0.43750000  1
  Mg  Mg67  1  0.25000000  0.43247000  0.39583300  1
  Mg  Mg68  1  0.75000000  0.56753000  0.47916700  1
  Mg  Mg69  1  0.25000000  0.93247000  0.52083300  1
  Mg  Mg70  1  0.75000000  0.06753000  0.52083300  1
  Mg  Mg71  1  0.25000000  0.43247000  0.47916700  1
  Mg  Mg72  1  0.75000000  0.56753000  0.56250000  1
  Mg  Mg73  1  0.25000000  0.93247000  0.60416700  1
  Mg  Mg74  1  0.75000000  0.06753000  0.60416700  1
  Mg  Mg75  1  0.25000000  0.43247000  0.56250000  1
  Mg  Mg76  1  0.75000000  0.56753000  0.64583300  1
  Mg  Mg77  1  0.25000000  0.93247000  0.68750000  1
  Mg  Mg78  1  0.75000000  0.06753000  0.68750000  1
  Mg  Mg79  1  0.25000000  0.43247000  0.64583300  1
  Mg  Mg80  1  0.75000000  0.56753000  0.72916700  1
  Mg  Mg81  1  0.25000000  0.93247000  0.77083300  1
  Mg  Mg82  1  0.75000000  0.06753000  0.77083300  1
  Mg  Mg83  1  0.25000000  0.43247000  0.72916700  1
