# generated using pymatgen
data_Sm3Mg2
_symmetry_space_group_name_H-M   'P 1'
_cell_length_a   3.79076100
_cell_length_b   5.59581600
_cell_length_c   52.10552400
_cell_angle_alpha   90.00000000
_cell_angle_beta   90.00000000
_cell_angle_gamma   90.00000000
_symmetry_Int_Tables_number   1
_chemical_formula_structural   Sm3Mg2
_chemical_formula_sum   'Sm12 Mg8'
_cell_volume   1105.28327232
_cell_formula_units_Z   4
loop_
 _symmetry_equiv_pos_site_id
 _symmetry_equiv_pos_as_xyz
  1  'x, y, z'
loop_
 _atom_site_type_symbol
 _atom_site_label
 _atom_site_symmetry_multiplicity
 _atom_site_fract_x
 _atom_site_fract_y
 _atom_site_fract_z
 _atom_site_occupancy
  Sm  Sm0  1  0.50000000  0.75000000  0.33528900  1
  Sm  Sm1  1  1.00000000  0.75000000  0.39605200  1
  Sm  Sm2  1  0.00000000  0.25000000  0.44248900  1
  Sm  Sm3  1  0.50000000  0.25000000  0.38172600  1
  Sm  Sm4  1  1.00000000  0.75000000  0.50195600  1
  Sm  Sm5  1  0.50000000  0.75000000  0.56271800  1
  Sm  Sm6  1  0.50000000  0.25000000  0.60915600  1
  Sm  Sm7  1  0.00000000  0.25000000  0.54839300  1
  Sm  Sm8  1  0.50000000  0.75000000  0.66862200  1
  Sm  Sm9  1  1.00000000  0.75000000  0.72938500  1
  Sm  Sm10  1  1.00000000  0.25000000  0.77582200  1
  Sm  Sm11  1  0.50000000  0.25000000  0.71505900  1
  Mg  Mg12  1  0.00000000  0.75000000  0.28280700  1
  Mg  Mg13  1  0.50000000  0.25000000  0.49497100  1
  Mg  Mg14  1  0.50000000  0.75000000  0.44947400  1
  Mg  Mg15  1  0.00000000  0.25000000  0.32830400  1
  Mg  Mg16  1  1.00000000  0.75000000  0.61614000  1
  Mg  Mg17  1  0.50000000  0.25000000  0.82830400  1
  Mg  Mg18  1  0.50000000  0.75000000  0.78280700  1
  Mg  Mg19  1  0.00000000  0.25000000  0.66163800  1
