# generated using pymatgen
data_Ce12Mg91
_symmetry_space_group_name_H-M   'P 1'
_cell_length_a   10.33012900
_cell_length_b   10.33012863
_cell_length_c   50.43243300
_cell_angle_alpha   90.00000000
_cell_angle_beta   90.00000000
_cell_angle_gamma   119.99999798
_symmetry_Int_Tables_number   1
_chemical_formula_structural   Ce12Mg91
_chemical_formula_sum   'Ce12 Mg91'
_cell_volume   4660.70950690
_cell_formula_units_Z   1
loop_
 _symmetry_equiv_pos_site_id
 _symmetry_equiv_pos_as_xyz
  1  'x, y, z'
loop_
 _atom_site_type_symbol
 _atom_site_label
 _atom_site_symmetry_multiplicity
 _atom_site_fract_x
 _atom_site_fract_y
 _atom_site_fract_z
 _atom_site_occupancy
  Ce  Ce0  1  0.00000000  0.00000000  0.32105300  1
  Ce  Ce1  1  0.00000000  0.00000000  0.22105300  1
  Ce  Ce2  1  0.33333300  0.66666700  0.32105300  1
  Ce  Ce3  1  0.66666700  0.33333300  0.22105300  1
  Ce  Ce4  1  0.00000000  0.00000000  0.52105300  1
  Ce  Ce5  1  0.00000000  0.00000000  0.42105300  1
  Ce  Ce6  1  0.33333300  0.66666700  0.52105300  1
  Ce  Ce7  1  0.66666700  0.33333300  0.42105300  1
  Ce  Ce8  1  0.00000000  0.00000000  0.72105300  1
  Ce  Ce9  1  0.00000000  0.00000000  0.62105300  1
  Ce  Ce10  1  0.33333300  0.66666700  0.72105300  1
  Ce  Ce11  1  0.66666700  0.33333300  0.62105300  1
  Mg  Mg12  1  1.00000000  0.50000000  0.37105300  1
  Mg  Mg13  1  0.50000000  0.00000000  0.37105300  1
  Mg  Mg14  1  0.16222000  0.32444000  0.36673500  1
  Mg  Mg15  1  0.16222000  0.83778000  0.27537100  1
  Mg  Mg16  1  0.32444000  0.16222000  0.37537100  1
  Mg  Mg17  1  0.63874300  0.96683000  0.22105300  1
  Mg  Mg18  1  0.33333300  0.66666700  0.25151500  1
  Mg  Mg19  1  0.66666700  0.33333300  0.35151500  1
  Mg  Mg20  1  0.83778000  0.16222000  0.26673500  1
  Mg  Mg21  1  0.32808700  0.96683000  0.22105300  1
  Mg  Mg22  1  0.36125700  0.32808700  0.32105300  1
  Mg  Mg23  1  0.16222000  0.32444000  0.27537100  1
  Mg  Mg24  1  0.96683000  0.32808700  0.32105300  1
  Mg  Mg25  1  0.63874300  0.67191300  0.22105300  1
  Mg  Mg26  1  0.16222000  0.83778000  0.36673500  1
  Mg  Mg27  1  0.67556000  0.83778000  0.36673500  1
  Mg  Mg28  1  0.32444000  0.16222000  0.26673500  1
  Mg  Mg29  1  0.67556000  0.83778000  0.27537100  1
  Mg  Mg30  1  0.33333300  0.66666700  0.39059000  1
  Mg  Mg31  1  0.83778000  0.16222000  0.37537100  1
  Mg  Mg32  1  0.50000000  0.50000000  0.27105300  1
  Mg  Mg33  1  0.96683000  0.63874300  0.32105300  1
  Mg  Mg34  1  0.36125700  0.03317000  0.32105300  1
  Mg  Mg35  1  0.66666700  0.33333300  0.29059000  1
  Mg  Mg36  1  0.83778000  0.67556000  0.37537100  1
  Mg  Mg37  1  0.67191300  0.63874300  0.32105300  1
  Mg  Mg38  1  0.03317000  0.36125700  0.22105300  1
  Mg  Mg39  1  0.83778000  0.67556000  0.26673500  1
  Mg  Mg40  1  0.67191300  0.03317000  0.32105300  1
  Mg  Mg41  1  0.50000000  0.00000000  0.27105300  1
  Mg  Mg42  1  0.32808700  0.36125700  0.22105300  1
  Mg  Mg43  1  0.03317000  0.67191300  0.22105300  1
  Mg  Mg44  1  0.50000000  0.50000000  0.37105300  1
  Mg  Mg45  1  1.00000000  0.50000000  0.27105300  1
  Mg  Mg46  1  1.00000000  0.50000000  0.57105300  1
  Mg  Mg47  1  0.50000000  0.00000000  0.57105300  1
  Mg  Mg48  1  0.16222000  0.32444000  0.56673500  1
  Mg  Mg49  1  0.16222000  0.83778000  0.47537100  1
  Mg  Mg50  1  0.32444000  0.16222000  0.57537100  1
  Mg  Mg51  1  0.63874300  0.96683000  0.42105300  1
  Mg  Mg52  1  0.33333300  0.66666700  0.45151500  1
  Mg  Mg53  1  0.66666700  0.33333300  0.55151500  1
  Mg  Mg54  1  0.83778000  0.16222000  0.46673500  1
  Mg  Mg55  1  0.32808700  0.96683000  0.42105300  1
  Mg  Mg56  1  0.36125700  0.32808700  0.52105300  1
  Mg  Mg57  1  0.16222000  0.32444000  0.47537100  1
  Mg  Mg58  1  0.96683000  0.32808700  0.52105300  1
  Mg  Mg59  1  0.63874300  0.67191300  0.42105300  1
  Mg  Mg60  1  0.16222000  0.83778000  0.56673500  1
  Mg  Mg61  1  0.67556000  0.83778000  0.56673500  1
  Mg  Mg62  1  0.32444000  0.16222000  0.46673500  1
  Mg  Mg63  1  0.67556000  0.83778000  0.47537100  1
  Mg  Mg64  1  0.33333300  0.66666700  0.59059000  1
  Mg  Mg65  1  0.83778000  0.16222000  0.57537100  1
  Mg  Mg66  1  0.50000000  0.50000000  0.47105300  1
  Mg  Mg67  1  0.96683000  0.63874300  0.52105300  1
  Mg  Mg68  1  0.36125700  0.03317000  0.52105300  1
  Mg  Mg69  1  0.66666700  0.33333300  0.49059000  1
  Mg  Mg70  1  0.83778000  0.67556000  0.57537100  1
  Mg  Mg71  1  0.67191300  0.63874300  0.52105300  1
  Mg  Mg72  1  0.03317000  0.36125700  0.42105300  1
  Mg  Mg73  1  0.83778000  0.67556000  0.46673500  1
  Mg  Mg74  1  0.67191300  0.03317000  0.52105300  1
  Mg  Mg75  1  0.50000000  0.00000000  0.47105300  1
  Mg  Mg76  1  0.32808700  0.36125700  0.42105300  1
  Mg  Mg77  1  0.03317000  0.67191300  0.42105300  1
  Mg  Mg78  1  0.50000000  0.50000000  0.57105300  1
  Mg  Mg79  1  1.00000000  0.50000000  0.47105300  1
  Mg  Mg80  1  0.16222000  0.83778000  0.67537100  1
  Mg  Mg81  1  0.63874300  0.96683000  0.62105300  1
  Mg  Mg82  1  0.33333300  0.66666700  0.65151500  1
  Mg  Mg83  1  0.83778000  0.16222000  0.66673500  1
  Mg  Mg84  1  0.32808700  0.96683000  0.62105300  1
  Mg  Mg85  1  0.36125700  0.32808700  0.72105300  1
  Mg  Mg86  1  0.16222000  0.32444000  0.67537100  1
  Mg  Mg87  1  0.96683000  0.32808700  0.72105300  1
  Mg  Mg88  1  0.63874300  0.67191300  0.62105300  1
  Mg  Mg89  1  0.32444000  0.16222000  0.66673500  1
  Mg  Mg90  1  0.67556000  0.83778000  0.67537100  1
  Mg  Mg91  1  0.50000000  0.50000000  0.67105300  1
  Mg  Mg92  1  0.96683000  0.63874300  0.72105300  1
  Mg  Mg93  1  0.36125700  0.03317000  0.72105300  1
  Mg  Mg94  1  0.66666700  0.33333300  0.69059000  1
  Mg  Mg95  1  0.67191300  0.63874300  0.72105300  1
  Mg  Mg96  1  0.03317000  0.36125700  0.62105300  1
  Mg  Mg97  1  0.83778000  0.67556000  0.66673500  1
  Mg  Mg98  1  0.67191300  0.03317000  0.72105300  1
  Mg  Mg99  1  0.50000000  0.00000000  0.67105300  1
  Mg  Mg100  1  0.32808700  0.36125700  0.62105300  1
  Mg  Mg101  1  0.03317000  0.67191300  0.62105300  1
  Mg  Mg102  1  1.00000000  0.50000000  0.67105300  1
