# generated using pymatgen
data_Mg38Si21
_symmetry_space_group_name_H-M   'P 1'
_cell_length_a   7.16868100
_cell_length_b   14.27249566
_cell_length_c   44.68541400
_cell_angle_alpha   83.39369965
_cell_angle_beta   90.00000000
_cell_angle_gamma   75.45524452
_symmetry_Int_Tables_number   1
_chemical_formula_structural   Mg38Si21
_chemical_formula_sum   'Mg76 Si42'
_cell_volume   4394.09300978
_cell_formula_units_Z   2
loop_
 _symmetry_equiv_pos_site_id
 _symmetry_equiv_pos_as_xyz
  1  'x, y, z'
loop_
 _atom_site_type_symbol
 _atom_site_label
 _atom_site_symmetry_multiplicity
 _atom_site_fract_x
 _atom_site_fract_y
 _atom_site_fract_z
 _atom_site_occupancy
  Mg  Mg0  1  0.95249300  0.99501900  0.23364600  1
  Mg  Mg1  1  0.39130900  0.39111900  0.28559600  1
  Mg  Mg2  1  0.30892600  0.51868600  0.22181300  1
  Mg  Mg3  1  0.37405800  0.93588600  0.26321300  1
  Mg  Mg4  1  0.29167600  0.06345200  0.19942900  1
  Mg  Mg5  1  0.73049200  0.45955200  0.25137900  1
  Mg  Mg6  1  0.60521000  0.71011600  0.29314000  1
  Mg  Mg7  1  0.16639400  0.31401600  0.24119000  1
  Mg  Mg8  1  0.24877600  0.18644900  0.30497300  1
  Mg  Mg9  1  0.18364400  0.76924900  0.26357300  1
  Mg  Mg10  1  0.64102700  0.89168300  0.20235600  1
  Mg  Mg11  1  0.82721100  0.24558300  0.27540600  1
  Mg  Mg12  1  0.04748700  0.73351600  0.19791900  1
  Mg  Mg13  1  0.54105900  0.12656900  0.25139200  1
  Mg  Mg14  1  0.00402900  0.02201400  0.30366900  1
  Mg  Mg15  1  0.55367400  0.68312100  0.22311600  1
  Mg  Mg16  1  0.01664300  0.57856600  0.27539400  1
  Mg  Mg17  1  0.88521500  0.22161900  0.20386700  1
  Mg  Mg18  1  0.57749300  0.74501900  0.35864600  1
  Mg  Mg19  1  0.01630900  0.14111900  0.41059600  1
  Mg  Mg20  1  0.93392600  0.26868600  0.34681300  1
  Mg  Mg21  1  0.99905800  0.68588600  0.38821300  1
  Mg  Mg22  1  0.91667600  0.81345200  0.32442900  1
  Mg  Mg23  1  0.35549200  0.20955200  0.37637900  1
  Mg  Mg24  1  0.23021000  0.46011600  0.41814000  1
  Mg  Mg25  1  0.79139400  0.06401600  0.36619000  1
  Mg  Mg26  1  0.87377600  0.93644900  0.42997300  1
  Mg  Mg27  1  0.80864400  0.51924900  0.38857300  1
  Mg  Mg28  1  0.26602700  0.64168300  0.32735600  1
  Mg  Mg29  1  0.45221100  0.99558300  0.40040600  1
  Mg  Mg30  1  0.67248700  0.48351600  0.32291900  1
  Mg  Mg31  1  0.16605900  0.87656900  0.37639200  1
  Mg  Mg32  1  0.62902900  0.77201400  0.42866900  1
  Mg  Mg33  1  0.17867400  0.43312100  0.34811600  1
  Mg  Mg34  1  0.64164300  0.32856600  0.40039400  1
  Mg  Mg35  1  0.51021500  0.97161900  0.32886700  1
  Mg  Mg36  1  0.20249300  0.49501900  0.48364600  1
  Mg  Mg37  1  0.64130900  0.89111900  0.53559600  1
  Mg  Mg38  1  0.55892600  0.01868600  0.47181300  1
  Mg  Mg39  1  0.62405800  0.43588600  0.51321300  1
  Mg  Mg40  1  0.54167600  0.56345200  0.44942900  1
  Mg  Mg41  1  0.98049200  0.95955200  0.50137900  1
  Mg  Mg42  1  0.85521000  0.21011600  0.54314000  1
  Mg  Mg43  1  0.41639400  0.81401600  0.49119000  1
  Mg  Mg44  1  0.49877600  0.68644900  0.55497300  1
  Mg  Mg45  1  0.43364400  0.26924900  0.51357300  1
  Mg  Mg46  1  0.89102700  0.39168300  0.45235600  1
  Mg  Mg47  1  0.07721100  0.74558300  0.52540600  1
  Mg  Mg48  1  0.29748700  0.23351600  0.44791900  1
  Mg  Mg49  1  0.79105900  0.62656900  0.50139200  1
  Mg  Mg50  1  0.25402900  0.52201400  0.55366900  1
  Mg  Mg51  1  0.80367400  0.18312100  0.47311600  1
  Mg  Mg52  1  0.26664300  0.07856600  0.52539400  1
  Mg  Mg53  1  0.13521500  0.72161900  0.45386700  1
  Mg  Mg54  1  0.82749300  0.24501900  0.60864600  1
  Mg  Mg55  1  0.26630900  0.64111900  0.66059600  1
  Mg  Mg56  1  0.18392600  0.76868600  0.59681300  1
  Mg  Mg57  1  0.24905800  0.18588600  0.63821300  1
  Mg  Mg58  1  0.16667600  0.31345200  0.57442900  1
  Mg  Mg59  1  0.60549200  0.70955200  0.62637900  1
  Mg  Mg60  1  0.48021000  0.96011600  0.66814000  1
  Mg  Mg61  1  0.04139400  0.56401600  0.61619000  1
  Mg  Mg62  1  0.12377600  0.43644900  0.67997300  1
  Mg  Mg63  1  0.05864400  0.01924900  0.63857300  1
  Mg  Mg64  1  0.51602700  0.14168300  0.57735600  1
  Mg  Mg65  1  0.70221100  0.49558300  0.65040600  1
  Mg  Mg66  1  0.92248700  0.98351600  0.57291900  1
  Mg  Mg67  1  0.41605900  0.37656900  0.62639200  1
  Mg  Mg68  1  0.87902900  0.27201400  0.67866900  1
  Mg  Mg69  1  0.42867400  0.93312100  0.59811600  1
  Mg  Mg70  1  0.89164300  0.82856600  0.65039400  1
  Mg  Mg71  1  0.76021500  0.47161900  0.57886700  1
  Mg  Mg72  1  0.79167600  0.06345200  0.69942900  1
  Mg  Mg73  1  0.14102700  0.89168300  0.70235600  1
  Mg  Mg74  1  0.54748700  0.73351600  0.69791900  1
  Mg  Mg75  1  0.38521500  0.22161900  0.70386700  1
  Si  Si76  1  0.81644800  0.77737400  0.25086100  1
  Si  Si77  1  0.62894800  0.15237400  0.31336100  1
  Si  Si78  1  0.74125400  0.92776100  0.27592500  1
  Si  Si79  1  0.92875400  0.55276100  0.21342500  1
  Si  Si80  1  0.41426800  0.58173400  0.27381000  1
  Si  Si81  1  0.14343500  0.12340100  0.25297600  1
  Si  Si82  1  0.01688500  0.37650000  0.29515900  1
  Si  Si83  1  0.66271900  0.08483300  0.19099300  1
  Si  Si84  1  0.54081700  0.32863500  0.23162600  1
  Si  Si85  1  0.26998400  0.87030200  0.21079300  1
  Si  Si86  1  0.44144800  0.52737400  0.37586100  1
  Si  Si87  1  0.25394800  0.90237400  0.43836100  1
  Si  Si88  1  0.36625400  0.67776100  0.40092500  1
  Si  Si89  1  0.55375400  0.30276100  0.33842500  1
  Si  Si90  1  0.03926800  0.33173400  0.39881000  1
  Si  Si91  1  0.76843500  0.87340100  0.37797600  1
  Si  Si92  1  0.64188500  0.12650000  0.42015900  1
  Si  Si93  1  0.28771900  0.83483300  0.31599300  1
  Si  Si94  1  0.16581700  0.07863500  0.35662600  1
  Si  Si95  1  0.89498400  0.62030200  0.33579300  1
  Si  Si96  1  0.06644800  0.27737400  0.50086100  1
  Si  Si97  1  0.87894800  0.65237400  0.56336100  1
  Si  Si98  1  0.99125400  0.42776100  0.52592500  1
  Si  Si99  1  0.17875400  0.05276100  0.46342500  1
  Si  Si100  1  0.66426800  0.08173400  0.52381000  1
  Si  Si101  1  0.39343500  0.62340100  0.50297600  1
  Si  Si102  1  0.26688500  0.87650000  0.54515900  1
  Si  Si103  1  0.91271900  0.58483300  0.44099300  1
  Si  Si104  1  0.79081700  0.82863500  0.48162600  1
  Si  Si105  1  0.51998400  0.37030200  0.46079300  1
  Si  Si106  1  0.69144800  0.02737400  0.62586100  1
  Si  Si107  1  0.50394800  0.40237400  0.68836100  1
  Si  Si108  1  0.61625400  0.17776100  0.65092500  1
  Si  Si109  1  0.80375400  0.80276100  0.58842500  1
  Si  Si110  1  0.28926800  0.83173400  0.64881000  1
  Si  Si111  1  0.01843500  0.37340100  0.62797600  1
  Si  Si112  1  0.89188500  0.62650000  0.67015900  1
  Si  Si113  1  0.53771900  0.33483300  0.56599300  1
  Si  Si114  1  0.41581700  0.57863500  0.60662600  1
  Si  Si115  1  0.14498400  0.12030200  0.58579300  1
  Si  Si116  1  0.16271900  0.08483300  0.69099300  1
  Si  Si117  1  0.76998400  0.87030200  0.71079300  1
