# generated using pymatgen
data_Ce11Mg136
_symmetry_space_group_name_H-M   'P 1'
_cell_length_a   11.88980944
_cell_length_b   11.88980897
_cell_length_c   45.94310200
_cell_angle_alpha   89.70796386
_cell_angle_beta   90.29203612
_cell_angle_gamma   104.33187700
_symmetry_Int_Tables_number   1
_chemical_formula_structural   Ce11Mg136
_chemical_formula_sum   'Ce11 Mg136'
_cell_volume   6292.60120360
_cell_formula_units_Z   1
loop_
 _symmetry_equiv_pos_site_id
 _symmetry_equiv_pos_as_xyz
  1  'x, y, z'
loop_
 _atom_site_type_symbol
 _atom_site_label
 _atom_site_symmetry_multiplicity
 _atom_site_fract_x
 _atom_site_fract_y
 _atom_site_fract_z
 _atom_site_occupancy
  Ce  Ce0  1  0.15374200  0.84625800  0.28269200  1
  Ce  Ce1  1  0.55374200  0.44625800  0.23269200  1
  Ce  Ce2  1  0.35374200  0.64625800  0.38269200  1
  Ce  Ce3  1  0.75374200  0.24625800  0.33269200  1
  Ce  Ce4  1  0.55374200  0.44625800  0.48269200  1
  Ce  Ce5  1  0.95374200  0.04625800  0.43269200  1
  Ce  Ce6  1  0.75374200  0.24625800  0.58269200  1
  Ce  Ce7  1  0.15374200  0.84625800  0.53269200  1
  Ce  Ce8  1  0.95374200  0.04625800  0.68269200  1
  Ce  Ce9  1  0.35374200  0.64625800  0.63269200  1
  Ce  Ce10  1  0.55374200  0.44625800  0.73269200  1
  Mg  Mg11  1  0.01122500  0.77619100  0.21143400  1
  Mg  Mg12  1  0.09625800  0.11632600  0.25395100  1
  Mg  Mg13  1  0.48367400  0.30374200  0.30395100  1
  Mg  Mg14  1  0.82380900  0.38877500  0.26143400  1
  Mg  Mg15  1  0.02398300  0.32722300  0.21781300  1
  Mg  Mg16  1  0.08350000  0.56529400  0.24757200  1
  Mg  Mg17  1  0.03470600  0.31650000  0.29757200  1
  Mg  Mg18  1  0.27277700  0.37601700  0.26781300  1
  Mg  Mg19  1  0.85374200  0.14625800  0.25769200  1
  Mg  Mg20  1  0.75374200  0.24625800  0.20769200  1
  Mg  Mg21  1  0.25374200  0.24625800  0.20769200  1
  Mg  Mg22  1  0.35374200  0.14625800  0.25769200  1
  Mg  Mg23  1  0.61122500  0.17619100  0.26143400  1
  Mg  Mg24  1  0.69625800  0.51632600  0.30395100  1
  Mg  Mg25  1  0.88367400  0.90374200  0.25395100  1
  Mg  Mg26  1  0.22380900  0.98877500  0.21143400  1
  Mg  Mg27  1  0.62398300  0.72722300  0.26781300  1
  Mg  Mg28  1  0.68350000  0.96529400  0.29757200  1
  Mg  Mg29  1  0.43470600  0.91650000  0.24757200  1
  Mg  Mg30  1  0.67277700  0.97601700  0.21781300  1
  Mg  Mg31  1  0.25374200  0.74625800  0.20769200  1
  Mg  Mg32  1  0.35374200  0.64625800  0.25769200  1
  Mg  Mg33  1  0.85374200  0.64625800  0.25769200  1
  Mg  Mg34  1  0.75374200  0.74625800  0.20769200  1
  Mg  Mg35  1  0.21122500  0.57619100  0.31143400  1
  Mg  Mg36  1  0.29625800  0.91632600  0.35395100  1
  Mg  Mg37  1  0.68367400  0.10374200  0.40395100  1
  Mg  Mg38  1  0.02380900  0.18877500  0.36143400  1
  Mg  Mg39  1  0.22398300  0.12722300  0.31781300  1
  Mg  Mg40  1  0.28350000  0.36529400  0.34757200  1
  Mg  Mg41  1  0.23470600  0.11650000  0.39757200  1
  Mg  Mg42  1  0.47277700  0.17601700  0.36781300  1
  Mg  Mg43  1  0.05374200  0.94625800  0.35769200  1
  Mg  Mg44  1  0.95374200  0.04625800  0.30769200  1
  Mg  Mg45  1  0.45374200  0.04625800  0.30769200  1
  Mg  Mg46  1  0.55374200  0.94625800  0.35769200  1
  Mg  Mg47  1  0.81122500  0.97619100  0.36143400  1
  Mg  Mg48  1  0.89625800  0.31632600  0.40395100  1
  Mg  Mg49  1  0.08367400  0.70374200  0.35395100  1
  Mg  Mg50  1  0.42380900  0.78877500  0.31143400  1
  Mg  Mg51  1  0.82398300  0.52722300  0.36781300  1
  Mg  Mg52  1  0.88350000  0.76529400  0.39757200  1
  Mg  Mg53  1  0.63470600  0.71650000  0.34757200  1
  Mg  Mg54  1  0.87277700  0.77601700  0.31781300  1
  Mg  Mg55  1  0.45374200  0.54625800  0.30769200  1
  Mg  Mg56  1  0.55374200  0.44625800  0.35769200  1
  Mg  Mg57  1  0.05374200  0.44625800  0.35769200  1
  Mg  Mg58  1  0.95374200  0.54625800  0.30769200  1
  Mg  Mg59  1  0.41122500  0.37619100  0.41143400  1
  Mg  Mg60  1  0.49625800  0.71632600  0.45395100  1
  Mg  Mg61  1  0.88367400  0.90374200  0.50395100  1
  Mg  Mg62  1  0.22380900  0.98877500  0.46143400  1
  Mg  Mg63  1  0.42398300  0.92722300  0.41781300  1
  Mg  Mg64  1  0.48350000  0.16529400  0.44757200  1
  Mg  Mg65  1  0.43470600  0.91650000  0.49757200  1
  Mg  Mg66  1  0.67277700  0.97601700  0.46781300  1
  Mg  Mg67  1  0.25374200  0.74625800  0.45769200  1
  Mg  Mg68  1  0.15374200  0.84625800  0.40769200  1
  Mg  Mg69  1  0.65374200  0.84625800  0.40769200  1
  Mg  Mg70  1  0.75374200  0.74625800  0.45769200  1
  Mg  Mg71  1  0.01122500  0.77619100  0.46143400  1
  Mg  Mg72  1  0.09625800  0.11632600  0.50395100  1
  Mg  Mg73  1  0.28367400  0.50374200  0.45395100  1
  Mg  Mg74  1  0.62380900  0.58877500  0.41143400  1
  Mg  Mg75  1  0.02398300  0.32722300  0.46781300  1
  Mg  Mg76  1  0.08350000  0.56529400  0.49757200  1
  Mg  Mg77  1  0.83470600  0.51650000  0.44757200  1
  Mg  Mg78  1  0.07277700  0.57601700  0.41781300  1
  Mg  Mg79  1  0.65374200  0.34625800  0.40769200  1
  Mg  Mg80  1  0.75374200  0.24625800  0.45769200  1
  Mg  Mg81  1  0.25374200  0.24625800  0.45769200  1
  Mg  Mg82  1  0.15374200  0.34625800  0.40769200  1
  Mg  Mg83  1  0.61122500  0.17619100  0.51143400  1
  Mg  Mg84  1  0.69625800  0.51632600  0.55395100  1
  Mg  Mg85  1  0.08367400  0.70374200  0.60395100  1
  Mg  Mg86  1  0.42380900  0.78877500  0.56143400  1
  Mg  Mg87  1  0.62398300  0.72722300  0.51781300  1
  Mg  Mg88  1  0.68350000  0.96529400  0.54757200  1
  Mg  Mg89  1  0.63470600  0.71650000  0.59757200  1
  Mg  Mg90  1  0.87277700  0.77601700  0.56781300  1
  Mg  Mg91  1  0.45374200  0.54625800  0.55769200  1
  Mg  Mg92  1  0.35374200  0.64625800  0.50769200  1
  Mg  Mg93  1  0.85374200  0.64625800  0.50769200  1
  Mg  Mg94  1  0.95374200  0.54625800  0.55769200  1
  Mg  Mg95  1  0.21122500  0.57619100  0.56143400  1
  Mg  Mg96  1  0.29625800  0.91632600  0.60395100  1
  Mg  Mg97  1  0.48367400  0.30374200  0.55395100  1
  Mg  Mg98  1  0.82380900  0.38877500  0.51143400  1
  Mg  Mg99  1  0.22398300  0.12722300  0.56781300  1
  Mg  Mg100  1  0.28350000  0.36529400  0.59757200  1
  Mg  Mg101  1  0.03470600  0.31650000  0.54757200  1
  Mg  Mg102  1  0.27277700  0.37601700  0.51781300  1
  Mg  Mg103  1  0.85374200  0.14625800  0.50769200  1
  Mg  Mg104  1  0.95374200  0.04625800  0.55769200  1
  Mg  Mg105  1  0.45374200  0.04625800  0.55769200  1
  Mg  Mg106  1  0.35374200  0.14625800  0.50769200  1
  Mg  Mg107  1  0.81122500  0.97619100  0.61143400  1
  Mg  Mg108  1  0.89625800  0.31632600  0.65395100  1
  Mg  Mg109  1  0.28367400  0.50374200  0.70395100  1
  Mg  Mg110  1  0.62380900  0.58877500  0.66143400  1
  Mg  Mg111  1  0.82398300  0.52722300  0.61781300  1
  Mg  Mg112  1  0.88350000  0.76529400  0.64757200  1
  Mg  Mg113  1  0.83470600  0.51650000  0.69757200  1
  Mg  Mg114  1  0.07277700  0.57601700  0.66781300  1
  Mg  Mg115  1  0.65374200  0.34625800  0.65769200  1
  Mg  Mg116  1  0.55374200  0.44625800  0.60769200  1
  Mg  Mg117  1  0.05374200  0.44625800  0.60769200  1
  Mg  Mg118  1  0.15374200  0.34625800  0.65769200  1
  Mg  Mg119  1  0.41122500  0.37619100  0.66143400  1
  Mg  Mg120  1  0.49625800  0.71632600  0.70395100  1
  Mg  Mg121  1  0.68367400  0.10374200  0.65395100  1
  Mg  Mg122  1  0.02380900  0.18877500  0.61143400  1
  Mg  Mg123  1  0.42398300  0.92722300  0.66781300  1
  Mg  Mg124  1  0.48350000  0.16529400  0.69757200  1
  Mg  Mg125  1  0.23470600  0.11650000  0.64757200  1
  Mg  Mg126  1  0.47277700  0.17601700  0.61781300  1
  Mg  Mg127  1  0.05374200  0.94625800  0.60769200  1
  Mg  Mg128  1  0.15374200  0.84625800  0.65769200  1
  Mg  Mg129  1  0.65374200  0.84625800  0.65769200  1
  Mg  Mg130  1  0.55374200  0.94625800  0.60769200  1
  Mg  Mg131  1  0.01122500  0.77619100  0.71143400  1
  Mg  Mg132  1  0.09625800  0.11632600  0.75395100  1
  Mg  Mg133  1  0.02398300  0.32722300  0.71781300  1
  Mg  Mg134  1  0.08350000  0.56529400  0.74757200  1
  Mg  Mg135  1  0.85374200  0.14625800  0.75769200  1
  Mg  Mg136  1  0.75374200  0.24625800  0.70769200  1
  Mg  Mg137  1  0.25374200  0.24625800  0.70769200  1
  Mg  Mg138  1  0.35374200  0.14625800  0.75769200  1
  Mg  Mg139  1  0.88367400  0.90374200  0.75395100  1
  Mg  Mg140  1  0.22380900  0.98877500  0.71143400  1
  Mg  Mg141  1  0.43470600  0.91650000  0.74757200  1
  Mg  Mg142  1  0.67277700  0.97601700  0.71781300  1
  Mg  Mg143  1  0.25374200  0.74625800  0.70769200  1
  Mg  Mg144  1  0.35374200  0.64625800  0.75769200  1
  Mg  Mg145  1  0.85374200  0.64625800  0.75769200  1
  Mg  Mg146  1  0.75374200  0.74625800  0.70769200  1
