# generated using pymatgen
data_MgGa
_symmetry_space_group_name_H-M   'P 1'
_cell_length_a   5.53544100
_cell_length_b   8.03816804
_cell_length_c   45.27987700
_cell_angle_alpha   90.00000000
_cell_angle_beta   90.00000000
_cell_angle_gamma   110.14043569
_symmetry_Int_Tables_number   1
_chemical_formula_structural   MgGa
_chemical_formula_sum   'Mg28 Ga28'
_cell_volume   1891.52220127
_cell_formula_units_Z   28
loop_
 _symmetry_equiv_pos_site_id
 _symmetry_equiv_pos_as_xyz
  1  'x, y, z'
loop_
 _atom_site_type_symbol
 _atom_site_label
 _atom_site_symmetry_multiplicity
 _atom_site_fract_x
 _atom_site_fract_y
 _atom_site_fract_z
 _atom_site_occupancy
  Mg  Mg0  1  0.73815600  0.94059200  0.70080600  1
  Mg  Mg1  1  0.33455900  0.20483900  0.67656800  1
  Mg  Mg2  1  0.16544100  0.29516100  0.74009900  1
  Mg  Mg3  1  0.76184400  0.55940800  0.71586000  1
  Mg  Mg4  1  0.12972100  0.79516100  0.65676500  1
  Mg  Mg5  1  0.23815600  0.94059200  0.53414000  1
  Mg  Mg6  1  0.79756400  0.05940800  0.63252700  1
  Mg  Mg7  1  0.83455900  0.20483900  0.50990100  1
  Mg  Mg8  1  0.66544100  0.29516100  0.57343200  1
  Mg  Mg9  1  0.20243600  0.44059200  0.61747300  1
  Mg  Mg10  1  0.26184400  0.55940800  0.54919400  1
  Mg  Mg11  1  0.87027900  0.70483900  0.59323500  1
  Mg  Mg12  1  0.62972100  0.79516100  0.49009900  1
  Mg  Mg13  1  0.73815600  0.94059200  0.36747300  1
  Mg  Mg14  1  0.29756400  0.05940800  0.46586000  1
  Mg  Mg15  1  0.33455900  0.20483900  0.34323500  1
  Mg  Mg16  1  0.16544100  0.29516100  0.40676500  1
  Mg  Mg17  1  0.70243600  0.44059200  0.45080600  1
  Mg  Mg18  1  0.76184400  0.55940800  0.38252700  1
  Mg  Mg19  1  0.37027900  0.70483900  0.42656800  1
  Mg  Mg20  1  0.12972100  0.79516100  0.32343200  1
  Mg  Mg21  1  0.23815600  0.94059200  0.20080600  1
  Mg  Mg22  1  0.79756400  0.05940800  0.29919400  1
  Mg  Mg23  1  0.83455900  0.20483900  0.17656800  1
  Mg  Mg24  1  0.66544100  0.29516100  0.24009900  1
  Mg  Mg25  1  0.20243600  0.44059200  0.28414000  1
  Mg  Mg26  1  0.26184400  0.55940800  0.21586000  1
  Mg  Mg27  1  0.87027900  0.70483900  0.25990100  1
  Ga  Ga28  1  0.20993600  0.90826300  0.71762400  1
  Ga  Ga29  1  0.60293200  0.19425500  0.73471100  1
  Ga  Ga30  1  0.89706800  0.30574500  0.68195600  1
  Ga  Ga31  1  0.29006400  0.59173700  0.69904300  1
  Ga  Ga32  1  0.40867700  0.80574500  0.59862300  1
  Ga  Ga33  1  0.70993600  0.90826300  0.55095700  1
  Ga  Ga34  1  0.30167300  0.09173700  0.61570900  1
  Ga  Ga35  1  0.10293200  0.19425500  0.56804400  1
  Ga  Ga36  1  0.39706800  0.30574500  0.51528900  1
  Ga  Ga37  1  0.69832700  0.40826300  0.63429100  1
  Ga  Ga38  1  0.79006400  0.59173700  0.53237600  1
  Ga  Ga39  1  0.59132300  0.69425500  0.65137700  1
  Ga  Ga40  1  0.90867700  0.80574500  0.43195600  1
  Ga  Ga41  1  0.20993600  0.90826300  0.38429100  1
  Ga  Ga42  1  0.80167300  0.09173700  0.44904300  1
  Ga  Ga43  1  0.60293200  0.19425500  0.40137700  1
  Ga  Ga44  1  0.89706800  0.30574500  0.34862300  1
  Ga  Ga45  1  0.19832700  0.40826300  0.46762400  1
  Ga  Ga46  1  0.29006400  0.59173700  0.36570900  1
  Ga  Ga47  1  0.09132300  0.69425500  0.48471100  1
  Ga  Ga48  1  0.40867700  0.80574500  0.26528900  1
  Ga  Ga49  1  0.70993600  0.90826300  0.21762400  1
  Ga  Ga50  1  0.30167300  0.09173700  0.28237600  1
  Ga  Ga51  1  0.10293200  0.19425500  0.23471100  1
  Ga  Ga52  1  0.39706800  0.30574500  0.18195600  1
  Ga  Ga53  1  0.69832700  0.40826300  0.30095700  1
  Ga  Ga54  1  0.79006400  0.59173700  0.19904300  1
  Ga  Ga55  1  0.59132300  0.69425500  0.31804400  1
