# generated using pymatgen
data_MgAu3
_symmetry_space_group_name_H-M   'P 1'
_cell_length_a   5.98733200
_cell_length_b   22.16206628
_cell_length_c   43.22761900
_cell_angle_alpha   91.91421088
_cell_angle_beta   90.00000000
_cell_angle_gamma   90.00000000
_symmetry_Int_Tables_number   1
_chemical_formula_structural   MgAu3
_chemical_formula_sum   'Mg46 Au138'
_cell_volume   5732.74315522
_cell_formula_units_Z   46
loop_
 _symmetry_equiv_pos_site_id
 _symmetry_equiv_pos_as_xyz
  1  'x, y, z'
loop_
 _atom_site_type_symbol
 _atom_site_label
 _atom_site_symmetry_multiplicity
 _atom_site_fract_x
 _atom_site_fract_y
 _atom_site_fract_z
 _atom_site_occupancy
  Mg  Mg0  1  0.50000000  0.78643500  0.36256800  1
  Mg  Mg1  1  0.00000000  0.98857200  0.31243200  1
  Mg  Mg2  1  0.00000000  0.88825300  0.21211300  1
  Mg  Mg3  1  0.50000000  0.68675400  0.26288700  1
  Mg  Mg4  1  0.50000000  0.00769500  0.24495200  1
  Mg  Mg5  1  0.00000000  0.56731200  0.23004800  1
  Mg  Mg6  1  0.00000000  0.80569600  0.29545200  1
  Mg  Mg7  1  0.50000000  0.96931000  0.37954800  1
  Mg  Mg8  1  0.00000000  0.18643500  0.26256800  1
  Mg  Mg9  1  0.50000000  0.38857200  0.21243200  1
  Mg  Mg10  1  0.50000000  0.48825300  0.31211300  1
  Mg  Mg11  1  0.00000000  0.28675400  0.36288700  1
  Mg  Mg12  1  0.00000000  0.60769500  0.34495200  1
  Mg  Mg13  1  0.50000000  0.16731200  0.33004800  1
  Mg  Mg14  1  0.50000000  0.40569600  0.39545200  1
  Mg  Mg15  1  0.00000000  0.36931000  0.27954800  1
  Mg  Mg16  1  0.50000000  0.98643500  0.56256800  1
  Mg  Mg17  1  0.00000000  0.18857200  0.51243200  1
  Mg  Mg18  1  0.00000000  0.08825300  0.41211300  1
  Mg  Mg19  1  0.50000000  0.88675400  0.46288700  1
  Mg  Mg20  1  0.50000000  0.20769500  0.44495200  1
  Mg  Mg21  1  0.00000000  0.76731200  0.43004800  1
  Mg  Mg22  1  0.00000000  0.00569600  0.49545200  1
  Mg  Mg23  1  0.50000000  0.16931000  0.57954800  1
  Mg  Mg24  1  0.00000000  0.38643500  0.46256800  1
  Mg  Mg25  1  0.50000000  0.58857200  0.41243200  1
  Mg  Mg26  1  0.50000000  0.68825300  0.51211300  1
  Mg  Mg27  1  0.00000000  0.48675400  0.56288700  1
  Mg  Mg28  1  0.00000000  0.80769500  0.54495200  1
  Mg  Mg29  1  0.50000000  0.36731200  0.53004800  1
  Mg  Mg30  1  0.50000000  0.60569600  0.59545200  1
  Mg  Mg31  1  0.00000000  0.56931000  0.47954800  1
  Mg  Mg32  1  0.50000000  0.18643500  0.76256800  1
  Mg  Mg33  1  0.00000000  0.38857200  0.71243200  1
  Mg  Mg34  1  0.00000000  0.28825300  0.61211300  1
  Mg  Mg35  1  0.50000000  0.08675400  0.66288700  1
  Mg  Mg36  1  0.50000000  0.40769500  0.64495200  1
  Mg  Mg37  1  0.00000000  0.96731200  0.63004800  1
  Mg  Mg38  1  0.00000000  0.20569600  0.69545200  1
  Mg  Mg39  1  0.00000000  0.58643500  0.66256800  1
  Mg  Mg40  1  0.50000000  0.78857200  0.61243200  1
  Mg  Mg41  1  0.50000000  0.88825300  0.71211300  1
  Mg  Mg42  1  0.00000000  0.68675400  0.76288700  1
  Mg  Mg43  1  0.00000000  0.00769500  0.74495200  1
  Mg  Mg44  1  0.50000000  0.56731200  0.73004800  1
  Mg  Mg45  1  0.00000000  0.76931000  0.67954800  1
  Au  Au46  1  0.74887800  0.18750300  0.38750000  1
  Au  Au47  1  0.25112200  0.08750300  0.28750000  1
  Au  Au48  1  0.25112200  0.18750300  0.38750000  1
  Au  Au49  1  0.74887800  0.08750300  0.28750000  1
  Au  Au50  1  0.50000000  0.88678300  0.21281700  1
  Au  Au51  1  0.00000000  0.68822400  0.26218300  1
  Au  Au52  1  0.00000000  0.78844400  0.36240200  1
  Au  Au53  1  0.50000000  0.98656300  0.31259800  1
  Au  Au54  1  0.25204300  0.66810900  0.20484900  1
  Au  Au55  1  0.75204300  0.90689800  0.27015100  1
  Au  Au56  1  0.24795700  0.90689800  0.27015100  1
  Au  Au57  1  0.74795700  0.66810900  0.20484900  1
  Au  Au58  1  0.74955100  0.06789700  0.35490200  1
  Au  Au59  1  0.24955100  0.70711000  0.32009800  1
  Au  Au60  1  0.75044900  0.70711000  0.32009800  1
  Au  Au61  1  0.25044900  0.06789700  0.35490200  1
  Au  Au62  1  0.75000000  0.88750300  0.33750000  1
  Au  Au63  1  0.25000000  0.88750300  0.33750000  1
  Au  Au64  1  0.75000000  0.78750300  0.23750000  1
  Au  Au65  1  0.25000000  0.78750300  0.23750000  1
  Au  Au66  1  0.50000000  0.80692400  0.29514500  1
  Au  Au67  1  0.00000000  0.96808300  0.37985500  1
  Au  Au68  1  0.00000000  0.00503600  0.24561700  1
  Au  Au69  1  0.50000000  0.56997100  0.22938300  1
  Au  Au70  1  0.24887800  0.58750300  0.28750000  1
  Au  Au71  1  0.75112200  0.68750300  0.38750000  1
  Au  Au72  1  0.75112200  0.58750300  0.28750000  1
  Au  Au73  1  0.24887800  0.68750300  0.38750000  1
  Au  Au74  1  0.00000000  0.48678300  0.31281700  1
  Au  Au75  1  0.50000000  0.28822400  0.36218300  1
  Au  Au76  1  0.50000000  0.18844400  0.26240200  1
  Au  Au77  1  0.00000000  0.38656300  0.21259800  1
  Au  Au78  1  0.75204300  0.26810900  0.30484900  1
  Au  Au79  1  0.25204300  0.50689800  0.37015100  1
  Au  Au80  1  0.74795700  0.50689800  0.37015100  1
  Au  Au81  1  0.24795700  0.26810900  0.30484900  1
  Au  Au82  1  0.24955100  0.46789700  0.25490200  1
  Au  Au83  1  0.74955100  0.10711000  0.22009800  1
  Au  Au84  1  0.25044900  0.10711000  0.22009800  1
  Au  Au85  1  0.75044900  0.46789700  0.25490200  1
  Au  Au86  1  0.25000000  0.28750300  0.23750000  1
  Au  Au87  1  0.75000000  0.28750300  0.23750000  1
  Au  Au88  1  0.25000000  0.38750300  0.33750000  1
  Au  Au89  1  0.75000000  0.38750300  0.33750000  1
  Au  Au90  1  0.00000000  0.40692400  0.39514500  1
  Au  Au91  1  0.50000000  0.36808300  0.27985500  1
  Au  Au92  1  0.50000000  0.60503600  0.34561700  1
  Au  Au93  1  0.00000000  0.16997100  0.32938300  1
  Au  Au94  1  0.74887800  0.38750300  0.58750000  1
  Au  Au95  1  0.25112200  0.28750300  0.48750000  1
  Au  Au96  1  0.25112200  0.38750300  0.58750000  1
  Au  Au97  1  0.74887800  0.28750300  0.48750000  1
  Au  Au98  1  0.50000000  0.08678300  0.41281700  1
  Au  Au99  1  0.00000000  0.88822400  0.46218300  1
  Au  Au100  1  0.00000000  0.98844400  0.56240200  1
  Au  Au101  1  0.50000000  0.18656300  0.51259800  1
  Au  Au102  1  0.25204300  0.86810900  0.40484900  1
  Au  Au103  1  0.75204300  0.10689800  0.47015100  1
  Au  Au104  1  0.24795700  0.10689800  0.47015100  1
  Au  Au105  1  0.74795700  0.86810900  0.40484900  1
  Au  Au106  1  0.74955100  0.26789700  0.55490200  1
  Au  Au107  1  0.24955100  0.90711000  0.52009800  1
  Au  Au108  1  0.75044900  0.90711000  0.52009800  1
  Au  Au109  1  0.25044900  0.26789700  0.55490200  1
  Au  Au110  1  0.75000000  0.08750300  0.53750000  1
  Au  Au111  1  0.25000000  0.08750300  0.53750000  1
  Au  Au112  1  0.75000000  0.98750300  0.43750000  1
  Au  Au113  1  0.25000000  0.98750300  0.43750000  1
  Au  Au114  1  0.50000000  0.00692400  0.49514500  1
  Au  Au115  1  0.00000000  0.16808300  0.57985500  1
  Au  Au116  1  0.00000000  0.20503600  0.44561700  1
  Au  Au117  1  0.50000000  0.76997100  0.42938300  1
  Au  Au118  1  0.24887800  0.78750300  0.48750000  1
  Au  Au119  1  0.75112200  0.88750300  0.58750000  1
  Au  Au120  1  0.75112200  0.78750300  0.48750000  1
  Au  Au121  1  0.24887800  0.88750300  0.58750000  1
  Au  Au122  1  0.00000000  0.68678300  0.51281700  1
  Au  Au123  1  0.50000000  0.48822400  0.56218300  1
  Au  Au124  1  0.50000000  0.38844400  0.46240200  1
  Au  Au125  1  0.00000000  0.58656300  0.41259800  1
  Au  Au126  1  0.75204300  0.46810900  0.50484900  1
  Au  Au127  1  0.25204300  0.70689800  0.57015100  1
  Au  Au128  1  0.74795700  0.70689800  0.57015100  1
  Au  Au129  1  0.24795700  0.46810900  0.50484900  1
  Au  Au130  1  0.24955100  0.66789700  0.45490200  1
  Au  Au131  1  0.74955100  0.30711000  0.42009800  1
  Au  Au132  1  0.25044900  0.30711000  0.42009800  1
  Au  Au133  1  0.75044900  0.66789700  0.45490200  1
  Au  Au134  1  0.25000000  0.48750300  0.43750000  1
  Au  Au135  1  0.75000000  0.48750300  0.43750000  1
  Au  Au136  1  0.25000000  0.58750300  0.53750000  1
  Au  Au137  1  0.75000000  0.58750300  0.53750000  1
  Au  Au138  1  0.00000000  0.60692400  0.59514500  1
  Au  Au139  1  0.50000000  0.56808300  0.47985500  1
  Au  Au140  1  0.50000000  0.80503600  0.54561700  1
  Au  Au141  1  0.00000000  0.36997100  0.52938300  1
  Au  Au142  1  0.25112200  0.48750300  0.68750000  1
  Au  Au143  1  0.74887800  0.48750300  0.68750000  1
  Au  Au144  1  0.50000000  0.28678300  0.61281700  1
  Au  Au145  1  0.00000000  0.08822400  0.66218300  1
  Au  Au146  1  0.00000000  0.18844400  0.76240200  1
  Au  Au147  1  0.50000000  0.38656300  0.71259800  1
  Au  Au148  1  0.25204300  0.06810900  0.60484900  1
  Au  Au149  1  0.75204300  0.30689800  0.67015100  1
  Au  Au150  1  0.24795700  0.30689800  0.67015100  1
  Au  Au151  1  0.74795700  0.06810900  0.60484900  1
  Au  Au152  1  0.74955100  0.46789700  0.75490200  1
  Au  Au153  1  0.24955100  0.10711000  0.72009800  1
  Au  Au154  1  0.75044900  0.10711000  0.72009800  1
  Au  Au155  1  0.25044900  0.46789700  0.75490200  1
  Au  Au156  1  0.75000000  0.28750300  0.73750000  1
  Au  Au157  1  0.25000000  0.28750300  0.73750000  1
  Au  Au158  1  0.75000000  0.18750300  0.63750000  1
  Au  Au159  1  0.25000000  0.18750300  0.63750000  1
  Au  Au160  1  0.50000000  0.20692400  0.69514500  1
  Au  Au161  1  0.00000000  0.40503600  0.64561700  1
  Au  Au162  1  0.50000000  0.96997100  0.62938300  1
  Au  Au163  1  0.24887800  0.98750300  0.68750000  1
  Au  Au164  1  0.75112200  0.98750300  0.68750000  1
  Au  Au165  1  0.00000000  0.88678300  0.71281700  1
  Au  Au166  1  0.50000000  0.68822400  0.76218300  1
  Au  Au167  1  0.50000000  0.58844400  0.66240200  1
  Au  Au168  1  0.00000000  0.78656300  0.61259800  1
  Au  Au169  1  0.75204300  0.66810900  0.70484900  1
  Au  Au170  1  0.25204300  0.90689800  0.77015100  1
  Au  Au171  1  0.74795700  0.90689800  0.77015100  1
  Au  Au172  1  0.24795700  0.66810900  0.70484900  1
  Au  Au173  1  0.24955100  0.86789700  0.65490200  1
  Au  Au174  1  0.74955100  0.50711000  0.62009800  1
  Au  Au175  1  0.25044900  0.50711000  0.62009800  1
  Au  Au176  1  0.75044900  0.86789700  0.65490200  1
  Au  Au177  1  0.25000000  0.68750300  0.63750000  1
  Au  Au178  1  0.75000000  0.68750300  0.63750000  1
  Au  Au179  1  0.25000000  0.78750300  0.73750000  1
  Au  Au180  1  0.75000000  0.78750300  0.73750000  1
  Au  Au181  1  0.50000000  0.76808300  0.67985500  1
  Au  Au182  1  0.50000000  0.00503600  0.74561700  1
  Au  Au183  1  0.00000000  0.56997100  0.72938300  1
