# generated using pymatgen
data_Mg25Zn42
_symmetry_space_group_name_H-M   'P 1'
_cell_length_a   5.07402237
_cell_length_b   17.20699092
_cell_length_c   54.58155700
_cell_angle_alpha   87.89733091
_cell_angle_beta   92.22235669
_cell_angle_gamma   98.42726965
_symmetry_Int_Tables_number   1
_chemical_formula_structural   Mg25Zn42
_chemical_formula_sum   'Mg50 Zn84'
_cell_volume   4708.12472958
_cell_formula_units_Z   2
loop_
 _symmetry_equiv_pos_site_id
 _symmetry_equiv_pos_as_xyz
  1  'x, y, z'
loop_
 _atom_site_type_symbol
 _atom_site_label
 _atom_site_symmetry_multiplicity
 _atom_site_fract_x
 _atom_site_fract_y
 _atom_site_fract_z
 _atom_site_occupancy
  Mg  Mg0  1  0.44156400  0.46544800  0.38652700  1
  Mg  Mg1  1  0.89317500  0.37754300  0.37087300  1
  Mg  Mg2  1  0.01502500  0.67160200  0.32796500  1
  Mg  Mg3  1  0.80188200  0.23234300  0.34185500  1
  Mg  Mg4  1  0.51846300  0.64188700  0.36292800  1
  Mg  Mg5  1  0.17659500  0.96799900  0.34979900  1
  Mg  Mg6  1  0.36106200  0.35655200  0.33462400  1
  Mg  Mg7  1  0.68003200  0.93828400  0.38476200  1
  Mg  Mg8  1  0.25349300  0.14443700  0.32620100  1
  Mg  Mg9  1  0.33399500  0.25333300  0.37810300  1
  Mg  Mg10  1  0.24156400  0.86544800  0.58652700  1
  Mg  Mg11  1  0.17998800  0.84919400  0.48520200  1
  Mg  Mg12  1  0.89867100  0.24964100  0.50487100  1
  Mg  Mg13  1  0.69317500  0.77754300  0.57087300  1
  Mg  Mg14  1  0.73704500  0.95592200  0.48293100  1
  Mg  Mg15  1  0.47299800  0.45941000  0.44762400  1
  Mg  Mg16  1  0.81502500  0.07160200  0.52796500  1
  Mg  Mg17  1  0.60188200  0.63234300  0.54185500  1
  Mg  Mg18  1  0.31846300  0.04188700  0.56292800  1
  Mg  Mg19  1  0.75801200  0.05396300  0.42979600  1
  Mg  Mg20  1  0.59638600  0.76024500  0.40785600  1
  Mg  Mg21  1  0.97659500  0.36799900  0.54979900  1
  Mg  Mg22  1  0.16106200  0.75655200  0.53462400  1
  Mg  Mg23  1  0.39251200  0.28160200  0.47027800  1
  Mg  Mg24  1  0.10254500  0.72828400  0.44244900  1
  Mg  Mg25  1  0.48003200  0.33828400  0.58476200  1
  Mg  Mg26  1  0.05349300  0.54443700  0.52620100  1
  Mg  Mg27  1  0.02205900  0.55047500  0.46510300  1
  Mg  Mg28  1  0.31506900  0.16069200  0.42752500  1
  Mg  Mg29  1  0.13399500  0.65333300  0.57810300  1
  Mg  Mg30  1  0.04156400  0.26544800  0.78652700  1
  Mg  Mg31  1  0.97998800  0.24919400  0.68520200  1
  Mg  Mg32  1  0.69867100  0.64964100  0.70487100  1
  Mg  Mg33  1  0.49317500  0.17754300  0.77087300  1
  Mg  Mg34  1  0.53704500  0.35592200  0.68293100  1
  Mg  Mg35  1  0.27299800  0.85941000  0.64762400  1
  Mg  Mg36  1  0.61502500  0.47160200  0.72796500  1
  Mg  Mg37  1  0.40188200  0.03234300  0.74185500  1
  Mg  Mg38  1  0.11846300  0.44188700  0.76292800  1
  Mg  Mg39  1  0.55801200  0.45396300  0.62979600  1
  Mg  Mg40  1  0.39638600  0.16024500  0.60785600  1
  Mg  Mg41  1  0.77659500  0.76799900  0.74979900  1
  Mg  Mg42  1  0.96106200  0.15655200  0.73462400  1
  Mg  Mg43  1  0.19251200  0.68160200  0.67027800  1
  Mg  Mg44  1  0.90254500  0.12828400  0.64244900  1
  Mg  Mg45  1  0.28003200  0.73828400  0.78476200  1
  Mg  Mg46  1  0.85349300  0.94443700  0.72620100  1
  Mg  Mg47  1  0.82205900  0.95047500  0.66510300  1
  Mg  Mg48  1  0.11506900  0.56069200  0.62752500  1
  Mg  Mg49  1  0.93399500  0.05333300  0.77810300  1
  Zn  Zn50  1  0.87259400  0.40020700  0.31269000  1
  Zn  Zn51  1  0.06439400  0.70179600  0.38621600  1
  Zn  Zn52  1  0.50383900  0.09806400  0.37707900  1
  Zn  Zn53  1  0.68667400  0.51091700  0.33458500  1
  Zn  Zn54  1  0.84752900  0.80494300  0.35636400  1
  Zn  Zn55  1  0.55578200  0.75992700  0.31705500  1
  Zn  Zn56  1  0.82246300  0.20967800  0.40003800  1
  Zn  Zn57  1  0.00838300  0.09896800  0.37814200  1
  Zn  Zn58  1  0.13927500  0.84995900  0.39567200  1
  Zn  Zn59  1  0.34752900  0.80494300  0.35636400  1
  Zn  Zn60  1  0.97593300  0.55537000  0.37384600  1
  Zn  Zn61  1  0.71912400  0.05451600  0.33888100  1
  Zn  Zn62  1  0.19121800  0.51182200  0.33564800  1
  Zn  Zn63  1  0.63066300  0.90809000  0.32651100  1
  Zn  Zn64  1  0.27020800  0.00988700  0.50498100  1
  Zn  Zn65  1  0.67259400  0.80020700  0.51269000  1
  Zn  Zn66  1  0.86439400  0.10179600  0.58621600  1
  Zn  Zn67  1  0.30383900  0.49806400  0.57707900  1
  Zn  Zn68  1  0.92376300  0.88745800  0.43600300  1
  Zn  Zn69  1  0.48667400  0.91091700  0.53458500  1
  Zn  Zn70  1  0.64752900  0.20494300  0.55636400  1
  Zn  Zn71  1  0.22484900  0.99999900  0.40774700  1
  Zn  Zn72  1  0.56326300  0.63721200  0.45395100  1
  Zn  Zn73  1  0.06501900  0.12264600  0.47677700  1
  Zn  Zn74  1  0.76996300  0.59790800  0.41508400  1
  Zn  Zn75  1  0.95637000  0.46350000  0.41724000  1
  Zn  Zn76  1  0.35578200  0.15992700  0.51705500  1
  Zn  Zn77  1  0.85686700  0.22084200  0.44812400  1
  Zn  Zn78  1  0.62246300  0.60967800  0.60003800  1
  Zn  Zn79  1  0.93179400  0.37267400  0.45877600  1
  Zn  Zn80  1  0.15026100  0.32983000  0.41863600  1
  Zn  Zn81  1  0.43003800  0.88724000  0.43595100  1
  Zn  Zn82  1  0.80838300  0.49896800  0.57814200  1
  Zn  Zn83  1  0.93927500  0.24995900  0.59567200  1
  Zn  Zn84  1  0.34479600  0.68005600  0.49409200  1
  Zn  Zn85  1  0.57129400  0.12242700  0.47672400  1
  Zn  Zn86  1  0.14752900  0.20494300  0.55636400  1
  Zn  Zn87  1  0.77593300  0.95537000  0.57384600  1
  Zn  Zn88  1  0.27437100  0.59819400  0.41549000  1
  Zn  Zn89  1  0.63643300  0.32986500  0.41774400  1
  Zn  Zn90  1  0.51912400  0.45451600  0.53888100  1
  Zn  Zn91  1  0.85862400  0.68002100  0.49498300  1
  Zn  Zn92  1  0.63819000  0.78904400  0.46460300  1
  Zn  Zn93  1  0.22068600  0.41169200  0.49723700  1
  Zn  Zn94  1  0.99121800  0.91182200  0.53564800  1
  Zn  Zn95  1  0.24752900  0.00494300  0.45636400  1
  Zn  Zn96  1  0.72509500  0.41197800  0.49764300  1
  Zn  Zn97  1  0.53868700  0.54638600  0.49548700  1
  Zn  Zn98  1  0.43066300  0.30809000  0.52651100  1
  Zn  Zn99  1  0.07020800  0.40988700  0.70498100  1
  Zn  Zn100  1  0.47259400  0.20020700  0.71269000  1
  Zn  Zn101  1  0.66439400  0.50179600  0.78621600  1
  Zn  Zn102  1  0.10383900  0.89806400  0.77707900  1
  Zn  Zn103  1  0.72376300  0.28745800  0.63600300  1
  Zn  Zn104  1  0.28667400  0.31091700  0.73458500  1
  Zn  Zn105  1  0.44752900  0.60494300  0.75636400  1
  Zn  Zn106  1  0.02484900  0.39999900  0.60774700  1
  Zn  Zn107  1  0.36326300  0.03721200  0.65395100  1
  Zn  Zn108  1  0.86501900  0.52264600  0.67677700  1
  Zn  Zn109  1  0.56996300  0.99790800  0.61508400  1
  Zn  Zn110  1  0.75637000  0.86350000  0.61724000  1
  Zn  Zn111  1  0.15578200  0.55992700  0.71705500  1
  Zn  Zn112  1  0.65686700  0.62084200  0.64812400  1
  Zn  Zn113  1  0.42246300  0.00967800  0.80003800  1
  Zn  Zn114  1  0.73179400  0.77267400  0.65877600  1
  Zn  Zn115  1  0.95026100  0.72983000  0.61863600  1
  Zn  Zn116  1  0.23003800  0.28724000  0.63595100  1
  Zn  Zn117  1  0.60838300  0.89896800  0.77814200  1
  Zn  Zn118  1  0.73927500  0.64995900  0.79567200  1
  Zn  Zn119  1  0.14479600  0.08005600  0.69409200  1
  Zn  Zn120  1  0.37129400  0.52242700  0.67672400  1
  Zn  Zn121  1  0.94752900  0.60494300  0.75636400  1
  Zn  Zn122  1  0.57593300  0.35537000  0.77384600  1
  Zn  Zn123  1  0.07437100  0.99819400  0.61549000  1
  Zn  Zn124  1  0.43643300  0.72986500  0.61774400  1
  Zn  Zn125  1  0.31912400  0.85451600  0.73888100  1
  Zn  Zn126  1  0.65862400  0.08002100  0.69498300  1
  Zn  Zn127  1  0.43819000  0.18904400  0.66460300  1
  Zn  Zn128  1  0.02068600  0.81169200  0.69723700  1
  Zn  Zn129  1  0.79121800  0.31182200  0.73564800  1
  Zn  Zn130  1  0.04752900  0.40494300  0.65636400  1
  Zn  Zn131  1  0.52509500  0.81197800  0.69764300  1
  Zn  Zn132  1  0.33868700  0.94638600  0.69548700  1
  Zn  Zn133  1  0.23066300  0.70809000  0.72651100  1
