# generated using pymatgen
data_MgPd2
_symmetry_space_group_name_H-M   'P 1'
_cell_length_a   4.19057600
_cell_length_b   5.53884600
_cell_length_c   49.07721500
_cell_angle_alpha   90.00000000
_cell_angle_beta   90.00000000
_cell_angle_gamma   90.00000000
_symmetry_Int_Tables_number   1
_chemical_formula_structural   MgPd2
_chemical_formula_sum   'Mg16 Pd32'
_cell_volume   1139.12903455
_cell_formula_units_Z   16
loop_
 _symmetry_equiv_pos_site_id
 _symmetry_equiv_pos_as_xyz
  1  'x, y, z'
loop_
 _atom_site_type_symbol
 _atom_site_label
 _atom_site_symmetry_multiplicity
 _atom_site_fract_x
 _atom_site_fract_y
 _atom_site_fract_z
 _atom_site_occupancy
  Mg  Mg0  1  0.75000000  0.16860900  0.23362100  1
  Mg  Mg1  1  0.25000000  0.83139100  0.26637900  1
  Mg  Mg2  1  0.75000000  0.66860900  0.18304600  1
  Mg  Mg3  1  0.25000000  0.33139100  0.31695400  1
  Mg  Mg4  1  0.75000000  0.16860900  0.40028800  1
  Mg  Mg5  1  0.25000000  0.83139100  0.43304600  1
  Mg  Mg6  1  0.75000000  0.66860900  0.34971200  1
  Mg  Mg7  1  0.25000000  0.33139100  0.48362100  1
  Mg  Mg8  1  0.75000000  0.16860900  0.56695400  1
  Mg  Mg9  1  0.25000000  0.83139100  0.59971200  1
  Mg  Mg10  1  0.75000000  0.66860900  0.51637900  1
  Mg  Mg11  1  0.25000000  0.33139100  0.65028800  1
  Mg  Mg12  1  0.75000000  0.16860900  0.73362100  1
  Mg  Mg13  1  0.25000000  0.83139100  0.76637900  1
  Mg  Mg14  1  0.75000000  0.66860900  0.68304600  1
  Mg  Mg15  1  0.25000000  0.33139100  0.81695400  1
  Pd  Pd16  1  0.75000000  0.15889900  0.17877000  1
  Pd  Pd17  1  0.25000000  0.84110100  0.32123000  1
  Pd  Pd18  1  0.75000000  0.65889900  0.23789600  1
  Pd  Pd19  1  0.25000000  0.34110100  0.26210400  1
  Pd  Pd20  1  0.75000000  0.06807400  0.28931400  1
  Pd  Pd21  1  0.25000000  0.93192600  0.21068600  1
  Pd  Pd22  1  0.75000000  0.56807400  0.29401900  1
  Pd  Pd23  1  0.25000000  0.43192600  0.20598100  1
  Pd  Pd24  1  0.75000000  0.15889900  0.34543700  1
  Pd  Pd25  1  0.25000000  0.84110100  0.48789600  1
  Pd  Pd26  1  0.75000000  0.65889900  0.40456300  1
  Pd  Pd27  1  0.25000000  0.34110100  0.42877000  1
  Pd  Pd28  1  0.75000000  0.06807400  0.45598100  1
  Pd  Pd29  1  0.25000000  0.93192600  0.37735200  1
  Pd  Pd30  1  0.75000000  0.56807400  0.46068600  1
  Pd  Pd31  1  0.25000000  0.43192600  0.37264800  1
  Pd  Pd32  1  0.75000000  0.15889900  0.51210400  1
  Pd  Pd33  1  0.25000000  0.84110100  0.65456300  1
  Pd  Pd34  1  0.75000000  0.65889900  0.57123000  1
  Pd  Pd35  1  0.25000000  0.34110100  0.59543700  1
  Pd  Pd36  1  0.75000000  0.06807400  0.62264800  1
  Pd  Pd37  1  0.25000000  0.93192600  0.54401900  1
  Pd  Pd38  1  0.75000000  0.56807400  0.62735200  1
  Pd  Pd39  1  0.25000000  0.43192600  0.53931400  1
  Pd  Pd40  1  0.75000000  0.15889900  0.67877000  1
  Pd  Pd41  1  0.25000000  0.84110100  0.82123000  1
  Pd  Pd42  1  0.75000000  0.65889900  0.73789600  1
  Pd  Pd43  1  0.25000000  0.34110100  0.76210400  1
  Pd  Pd44  1  0.75000000  0.06807400  0.78931400  1
  Pd  Pd45  1  0.25000000  0.93192600  0.71068600  1
  Pd  Pd46  1  0.75000000  0.56807400  0.79401900  1
  Pd  Pd47  1  0.25000000  0.43192600  0.70598100  1
