# generated using pymatgen
data_Mg16Pd7
_symmetry_space_group_name_H-M   'P 1'
_cell_length_a   8.83883700
_cell_length_b   8.02302000
_cell_length_c   45.92794300
_cell_angle_alpha   90.00000000
_cell_angle_beta   90.00000000
_cell_angle_gamma   90.00000000
_symmetry_Int_Tables_number   1
_chemical_formula_structural   Mg16Pd7
_chemical_formula_sum   'Mg64 Pd28'
_cell_volume   3256.94177521
_cell_formula_units_Z   4
loop_
 _symmetry_equiv_pos_site_id
 _symmetry_equiv_pos_as_xyz
  1  'x, y, z'
loop_
 _atom_site_type_symbol
 _atom_site_label
 _atom_site_symmetry_multiplicity
 _atom_site_fract_x
 _atom_site_fract_y
 _atom_site_fract_z
 _atom_site_occupancy
  Mg  Mg0  1  0.07903200  0.75000000  0.32251800  1
  Mg  Mg1  1  0.07903200  0.25000000  0.29652900  1
  Mg  Mg2  1  0.57903200  0.00000000  0.30952400  1
  Mg  Mg3  1  0.57903200  0.50000000  0.30952400  1
  Mg  Mg4  1  0.79170700  0.93540600  0.44426600  1
  Mg  Mg5  1  0.57903200  0.93540600  0.37337400  1
  Mg  Mg6  1  0.36635600  0.93540600  0.44426600  1
  Mg  Mg7  1  0.86635600  0.06459400  0.34144900  1
  Mg  Mg8  1  0.07903200  0.06459400  0.41234100  1
  Mg  Mg9  1  0.29170700  0.06459400  0.34144900  1
  Mg  Mg10  1  0.86635600  0.43540600  0.34144900  1
  Mg  Mg11  1  0.07903200  0.43540600  0.41234100  1
  Mg  Mg12  1  0.29170700  0.43540600  0.34144900  1
  Mg  Mg13  1  0.79170700  0.56459400  0.44426600  1
  Mg  Mg14  1  0.57903200  0.56459400  0.37337400  1
  Mg  Mg15  1  0.36635600  0.56459400  0.44426600  1
  Mg  Mg16  1  0.27055600  0.75000000  0.38636000  1
  Mg  Mg17  1  0.57903200  0.75000000  0.48918500  1
  Mg  Mg18  1  0.88750700  0.75000000  0.38636000  1
  Mg  Mg19  1  0.38750700  0.25000000  0.39935400  1
  Mg  Mg20  1  0.57903200  0.25000000  0.46319600  1
  Mg  Mg21  1  0.77055600  0.25000000  0.39935400  1
  Mg  Mg22  1  0.07903200  0.00000000  0.47619000  1
  Mg  Mg23  1  0.07903200  0.50000000  0.47619000  1
  Mg  Mg24  1  0.29170700  0.93540600  0.61093200  1
  Mg  Mg25  1  0.07903200  0.93540600  0.54004000  1
  Mg  Mg26  1  0.86635600  0.93540600  0.61093200  1
  Mg  Mg27  1  0.36635600  0.06459400  0.50811500  1
  Mg  Mg28  1  0.57903200  0.06459400  0.57900700  1
  Mg  Mg29  1  0.79170700  0.06459400  0.50811500  1
  Mg  Mg30  1  0.36635600  0.43540600  0.50811500  1
  Mg  Mg31  1  0.57903200  0.43540600  0.57900700  1
  Mg  Mg32  1  0.79170700  0.43540600  0.50811500  1
  Mg  Mg33  1  0.29170700  0.56459400  0.61093200  1
  Mg  Mg34  1  0.07903200  0.56459400  0.54004000  1
  Mg  Mg35  1  0.86635600  0.56459400  0.61093200  1
  Mg  Mg36  1  0.77055600  0.75000000  0.55302600  1
  Mg  Mg37  1  0.07903200  0.75000000  0.65585200  1
  Mg  Mg38  1  0.38750700  0.75000000  0.55302600  1
  Mg  Mg39  1  0.88750700  0.25000000  0.56602100  1
  Mg  Mg40  1  0.07903200  0.25000000  0.62986300  1
  Mg  Mg41  1  0.27055600  0.25000000  0.56602100  1
  Mg  Mg42  1  0.57903200  0.00000000  0.64285700  1
  Mg  Mg43  1  0.57903200  0.50000000  0.64285700  1
  Mg  Mg44  1  0.79170700  0.93540600  0.77759900  1
  Mg  Mg45  1  0.57903200  0.93540600  0.70670700  1
  Mg  Mg46  1  0.36635600  0.93540600  0.77759900  1
  Mg  Mg47  1  0.86635600  0.06459400  0.67478200  1
  Mg  Mg48  1  0.07903200  0.06459400  0.74567400  1
  Mg  Mg49  1  0.29170700  0.06459400  0.67478200  1
  Mg  Mg50  1  0.86635600  0.43540600  0.67478200  1
  Mg  Mg51  1  0.07903200  0.43540600  0.74567400  1
  Mg  Mg52  1  0.29170700  0.43540600  0.67478200  1
  Mg  Mg53  1  0.79170700  0.56459400  0.77759900  1
  Mg  Mg54  1  0.57903200  0.56459400  0.70670700  1
  Mg  Mg55  1  0.36635600  0.56459400  0.77759900  1
  Mg  Mg56  1  0.27055600  0.75000000  0.71969300  1
  Mg  Mg57  1  0.57903200  0.75000000  0.82251800  1
  Mg  Mg58  1  0.88750700  0.75000000  0.71969300  1
  Mg  Mg59  1  0.38750700  0.25000000  0.73268800  1
  Mg  Mg60  1  0.57903200  0.25000000  0.79652900  1
  Mg  Mg61  1  0.77055600  0.25000000  0.73268800  1
  Mg  Mg62  1  0.07903200  0.00000000  0.80952400  1
  Mg  Mg63  1  0.07903200  0.50000000  0.80952400  1
  Pd  Pd64  1  0.76589700  0.75000000  0.33028700  1
  Pd  Pd65  1  0.39216700  0.75000000  0.33028700  1
  Pd  Pd66  1  0.39216700  0.25000000  0.28876100  1
  Pd  Pd67  1  0.76589700  0.25000000  0.28876100  1
  Pd  Pd68  1  0.26589700  0.75000000  0.49695300  1
  Pd  Pd69  1  0.07903200  0.75000000  0.43466500  1
  Pd  Pd70  1  0.89216700  0.75000000  0.49695300  1
  Pd  Pd71  1  0.89216700  0.25000000  0.45542800  1
  Pd  Pd72  1  0.57903200  0.25000000  0.35104900  1
  Pd  Pd73  1  0.26589700  0.25000000  0.45542800  1
  Pd  Pd74  1  0.57903200  0.75000000  0.42063500  1
  Pd  Pd75  1  0.07903200  0.25000000  0.36507900  1
  Pd  Pd76  1  0.76589700  0.75000000  0.66362000  1
  Pd  Pd77  1  0.57903200  0.75000000  0.60133200  1
  Pd  Pd78  1  0.39216700  0.75000000  0.66362000  1
  Pd  Pd79  1  0.39216700  0.25000000  0.62209400  1
  Pd  Pd80  1  0.07903200  0.25000000  0.51771600  1
  Pd  Pd81  1  0.76589700  0.25000000  0.62209400  1
  Pd  Pd82  1  0.07903200  0.75000000  0.58730200  1
  Pd  Pd83  1  0.57903200  0.25000000  0.53174600  1
  Pd  Pd84  1  0.26589700  0.75000000  0.83028700  1
  Pd  Pd85  1  0.07903200  0.75000000  0.76799800  1
  Pd  Pd86  1  0.89216700  0.75000000  0.83028700  1
  Pd  Pd87  1  0.89216700  0.25000000  0.78876100  1
  Pd  Pd88  1  0.57903200  0.25000000  0.68438300  1
  Pd  Pd89  1  0.26589700  0.25000000  0.78876100  1
  Pd  Pd90  1  0.57903200  0.75000000  0.75396800  1
  Pd  Pd91  1  0.07903200  0.25000000  0.69841300  1
