# generated using pymatgen
data_Mg12Ni23
_symmetry_space_group_name_H-M   'P 1'
_cell_length_a   4.81848500
_cell_length_b   15.71815300
_cell_length_c   41.72930500
_cell_angle_alpha   90.00000000
_cell_angle_beta   90.00000000
_cell_angle_gamma   90.00000000
_symmetry_Int_Tables_number   1
_chemical_formula_structural   Mg12Ni23
_chemical_formula_sum   'Mg48 Ni92'
_cell_volume   3160.48093475
_cell_formula_units_Z   4
loop_
 _symmetry_equiv_pos_site_id
 _symmetry_equiv_pos_as_xyz
  1  'x, y, z'
loop_
 _atom_site_type_symbol
 _atom_site_label
 _atom_site_symmetry_multiplicity
 _atom_site_fract_x
 _atom_site_fract_y
 _atom_site_fract_z
 _atom_site_occupancy
  Mg  Mg0  1  0.70724500  0.90702400  0.25833300  1
  Mg  Mg1  1  0.70724500  0.09297600  0.25833300  1
  Mg  Mg2  1  0.70724500  0.40702400  0.25833300  1
  Mg  Mg3  1  0.70724500  0.59297600  0.25833300  1
  Mg  Mg4  1  0.20724500  0.15594900  0.22500000  1
  Mg  Mg5  1  0.20724500  0.84405100  0.29166700  1
  Mg  Mg6  1  0.20724500  0.65594900  0.29166700  1
  Mg  Mg7  1  0.20724500  0.34405100  0.22500000  1
  Mg  Mg8  1  0.20724500  0.90702400  0.35833300  1
  Mg  Mg9  1  0.20724500  0.09297600  0.35833300  1
  Mg  Mg10  1  0.20724500  0.40702400  0.35833300  1
  Mg  Mg11  1  0.20724500  0.59297600  0.35833300  1
  Mg  Mg12  1  0.70724500  0.15594900  0.32500000  1
  Mg  Mg13  1  0.70724500  0.84405100  0.39166700  1
  Mg  Mg14  1  0.70724500  0.65594900  0.39166700  1
  Mg  Mg15  1  0.70724500  0.34405100  0.32500000  1
  Mg  Mg16  1  0.70724500  0.90702400  0.45833300  1
  Mg  Mg17  1  0.70724500  0.09297600  0.45833300  1
  Mg  Mg18  1  0.70724500  0.40702400  0.45833300  1
  Mg  Mg19  1  0.70724500  0.59297600  0.45833300  1
  Mg  Mg20  1  0.20724500  0.15594900  0.42500000  1
  Mg  Mg21  1  0.20724500  0.84405100  0.49166700  1
  Mg  Mg22  1  0.20724500  0.65594900  0.49166700  1
  Mg  Mg23  1  0.20724500  0.34405100  0.42500000  1
  Mg  Mg24  1  0.20724500  0.90702400  0.55833300  1
  Mg  Mg25  1  0.20724500  0.09297600  0.55833300  1
  Mg  Mg26  1  0.20724500  0.40702400  0.55833300  1
  Mg  Mg27  1  0.20724500  0.59297600  0.55833300  1
  Mg  Mg28  1  0.70724500  0.15594900  0.52500000  1
  Mg  Mg29  1  0.70724500  0.84405100  0.59166700  1
  Mg  Mg30  1  0.70724500  0.65594900  0.59166700  1
  Mg  Mg31  1  0.70724500  0.34405100  0.52500000  1
  Mg  Mg32  1  0.70724500  0.90702400  0.65833300  1
  Mg  Mg33  1  0.70724500  0.09297600  0.65833300  1
  Mg  Mg34  1  0.70724500  0.40702400  0.65833300  1
  Mg  Mg35  1  0.70724500  0.59297600  0.65833300  1
  Mg  Mg36  1  0.20724500  0.15594900  0.62500000  1
  Mg  Mg37  1  0.20724500  0.84405100  0.69166700  1
  Mg  Mg38  1  0.20724500  0.65594900  0.69166700  1
  Mg  Mg39  1  0.20724500  0.34405100  0.62500000  1
  Mg  Mg40  1  0.20724500  0.90702400  0.75833300  1
  Mg  Mg41  1  0.20724500  0.09297600  0.75833300  1
  Mg  Mg42  1  0.20724500  0.40702400  0.75833300  1
  Mg  Mg43  1  0.20724500  0.59297600  0.75833300  1
  Mg  Mg44  1  0.70724500  0.15594900  0.72500000  1
  Mg  Mg45  1  0.70724500  0.84405100  0.79166700  1
  Mg  Mg46  1  0.70724500  0.65594900  0.79166700  1
  Mg  Mg47  1  0.70724500  0.34405100  0.72500000  1
  Ni  Ni48  1  0.20724500  0.87497400  0.22500000  1
  Ni  Ni49  1  0.20724500  0.12502600  0.29166700  1
  Ni  Ni50  1  0.20724500  0.37497400  0.29166700  1
  Ni  Ni51  1  0.20724500  0.62502600  0.22500000  1
  Ni  Ni52  1  0.20724500  0.00000000  0.25833300  1
  Ni  Ni53  1  0.20724500  0.50000000  0.25833300  1
  Ni  Ni54  1  0.46051000  0.75000000  0.24188400  1
  Ni  Ni55  1  0.70724500  0.75000000  0.29123100  1
  Ni  Ni56  1  0.95397900  0.75000000  0.24188400  1
  Ni  Ni57  1  0.95397900  0.25000000  0.27478200  1
  Ni  Ni58  1  0.70724500  0.25000000  0.22543500  1
  Ni  Ni59  1  0.46051000  0.25000000  0.27478200  1
  Ni  Ni60  1  0.70724500  0.87497400  0.32500000  1
  Ni  Ni61  1  0.70724500  0.12502600  0.39166700  1
  Ni  Ni62  1  0.70724500  0.37497400  0.39166700  1
  Ni  Ni63  1  0.70724500  0.62502600  0.32500000  1
  Ni  Ni64  1  0.45724500  0.00000000  0.30833300  1
  Ni  Ni65  1  0.70724500  0.00000000  0.35833300  1
  Ni  Ni66  1  0.95724500  0.00000000  0.30833300  1
  Ni  Ni67  1  0.45724500  0.50000000  0.30833300  1
  Ni  Ni68  1  0.70724500  0.50000000  0.35833300  1
  Ni  Ni69  1  0.95724500  0.50000000  0.30833300  1
  Ni  Ni70  1  0.96051000  0.75000000  0.34188400  1
  Ni  Ni71  1  0.20724500  0.75000000  0.39123100  1
  Ni  Ni72  1  0.45397900  0.75000000  0.34188400  1
  Ni  Ni73  1  0.45397900  0.25000000  0.37478200  1
  Ni  Ni74  1  0.20724500  0.25000000  0.32543500  1
  Ni  Ni75  1  0.96051000  0.25000000  0.37478200  1
  Ni  Ni76  1  0.20724500  0.87497400  0.42500000  1
  Ni  Ni77  1  0.20724500  0.12502600  0.49166700  1
  Ni  Ni78  1  0.20724500  0.37497400  0.49166700  1
  Ni  Ni79  1  0.20724500  0.62502600  0.42500000  1
  Ni  Ni80  1  0.95724500  0.00000000  0.40833300  1
  Ni  Ni81  1  0.20724500  0.00000000  0.45833300  1
  Ni  Ni82  1  0.45724500  0.00000000  0.40833300  1
  Ni  Ni83  1  0.95724500  0.50000000  0.40833300  1
  Ni  Ni84  1  0.20724500  0.50000000  0.45833300  1
  Ni  Ni85  1  0.45724500  0.50000000  0.40833300  1
  Ni  Ni86  1  0.46051000  0.75000000  0.44188400  1
  Ni  Ni87  1  0.70724500  0.75000000  0.49123100  1
  Ni  Ni88  1  0.95397900  0.75000000  0.44188400  1
  Ni  Ni89  1  0.95397900  0.25000000  0.47478200  1
  Ni  Ni90  1  0.70724500  0.25000000  0.42543500  1
  Ni  Ni91  1  0.46051000  0.25000000  0.47478200  1
  Ni  Ni92  1  0.70724500  0.87497400  0.52500000  1
  Ni  Ni93  1  0.70724500  0.12502600  0.59166700  1
  Ni  Ni94  1  0.70724500  0.37497400  0.59166700  1
  Ni  Ni95  1  0.70724500  0.62502600  0.52500000  1
  Ni  Ni96  1  0.45724500  0.00000000  0.50833300  1
  Ni  Ni97  1  0.70724500  0.00000000  0.55833300  1
  Ni  Ni98  1  0.95724500  0.00000000  0.50833300  1
  Ni  Ni99  1  0.45724500  0.50000000  0.50833300  1
  Ni  Ni100  1  0.70724500  0.50000000  0.55833300  1
  Ni  Ni101  1  0.95724500  0.50000000  0.50833300  1
  Ni  Ni102  1  0.96051000  0.75000000  0.54188400  1
  Ni  Ni103  1  0.20724500  0.75000000  0.59123100  1
  Ni  Ni104  1  0.45397900  0.75000000  0.54188400  1
  Ni  Ni105  1  0.45397900  0.25000000  0.57478200  1
  Ni  Ni106  1  0.20724500  0.25000000  0.52543500  1
  Ni  Ni107  1  0.96051000  0.25000000  0.57478200  1
  Ni  Ni108  1  0.20724500  0.87497400  0.62500000  1
  Ni  Ni109  1  0.20724500  0.12502600  0.69166700  1
  Ni  Ni110  1  0.20724500  0.37497400  0.69166700  1
  Ni  Ni111  1  0.20724500  0.62502600  0.62500000  1
  Ni  Ni112  1  0.95724500  0.00000000  0.60833300  1
  Ni  Ni113  1  0.20724500  0.00000000  0.65833300  1
  Ni  Ni114  1  0.45724500  0.00000000  0.60833300  1
  Ni  Ni115  1  0.95724500  0.50000000  0.60833300  1
  Ni  Ni116  1  0.20724500  0.50000000  0.65833300  1
  Ni  Ni117  1  0.45724500  0.50000000  0.60833300  1
  Ni  Ni118  1  0.46051000  0.75000000  0.64188400  1
  Ni  Ni119  1  0.70724500  0.75000000  0.69123100  1
  Ni  Ni120  1  0.95397900  0.75000000  0.64188400  1
  Ni  Ni121  1  0.95397900  0.25000000  0.67478200  1
  Ni  Ni122  1  0.70724500  0.25000000  0.62543500  1
  Ni  Ni123  1  0.46051000  0.25000000  0.67478200  1
  Ni  Ni124  1  0.70724500  0.87497400  0.72500000  1
  Ni  Ni125  1  0.70724500  0.12502600  0.79166700  1
  Ni  Ni126  1  0.70724500  0.37497400  0.79166700  1
  Ni  Ni127  1  0.70724500  0.62502600  0.72500000  1
  Ni  Ni128  1  0.45724500  0.00000000  0.70833300  1
  Ni  Ni129  1  0.70724500  0.00000000  0.75833300  1
  Ni  Ni130  1  0.95724500  0.00000000  0.70833300  1
  Ni  Ni131  1  0.45724500  0.50000000  0.70833300  1
  Ni  Ni132  1  0.70724500  0.50000000  0.75833300  1
  Ni  Ni133  1  0.95724500  0.50000000  0.70833300  1
  Ni  Ni134  1  0.96051000  0.75000000  0.74188400  1
  Ni  Ni135  1  0.20724500  0.75000000  0.79123100  1
  Ni  Ni136  1  0.45397900  0.75000000  0.74188400  1
  Ni  Ni137  1  0.45397900  0.25000000  0.77478200  1
  Ni  Ni138  1  0.20724500  0.25000000  0.72543500  1
  Ni  Ni139  1  0.96051000  0.25000000  0.77478200  1
