# generated using pymatgen
data_Mg7P30
_symmetry_space_group_name_H-M   'P 1'
_cell_length_a   5.19237572
_cell_length_b   5.12288200
_cell_length_c   45.09202800
_cell_angle_alpha   90.00000000
_cell_angle_beta   92.06614662
_cell_angle_gamma   90.00000000
_symmetry_Int_Tables_number   1
_chemical_formula_structural   Mg7P30
_chemical_formula_sum   'Mg7 P30'
_cell_volume   1198.66490812
_cell_formula_units_Z   1
loop_
 _symmetry_equiv_pos_site_id
 _symmetry_equiv_pos_as_xyz
  1  'x, y, z'
loop_
 _atom_site_type_symbol
 _atom_site_label
 _atom_site_symmetry_multiplicity
 _atom_site_fract_x
 _atom_site_fract_y
 _atom_site_fract_z
 _atom_site_occupancy
  Mg  Mg0  1  0.86215500  0.00000000  0.30833300  1
  Mg  Mg1  1  0.94548800  0.50000000  0.22500000  1
  Mg  Mg2  1  0.69548800  0.00000000  0.47500000  1
  Mg  Mg3  1  0.77882200  0.50000000  0.39166700  1
  Mg  Mg4  1  0.52882200  0.00000000  0.64166700  1
  Mg  Mg5  1  0.61215500  0.50000000  0.55833300  1
  Mg  Mg6  1  0.44548800  0.50000000  0.72500000  1
  P  P7  1  0.23949600  0.29223200  0.18394600  1
  P  P8  1  0.73481400  0.79223200  0.18272000  1
  P  P9  1  0.65148100  0.70776800  0.26605400  1
  P  P10  1  0.15616300  0.20776800  0.26728000  1
  P  P11  1  0.32578700  0.89159400  0.24159000  1
  P  P12  1  0.48185600  0.39159400  0.29174300  1
  P  P13  1  0.56519000  0.10840600  0.20841000  1
  P  P14  1  0.24245400  0.60840600  0.32492300  1
  P  P15  1  0.07282900  0.29223200  0.35061300  1
  P  P16  1  0.56814800  0.79223200  0.34938700  1
  P  P17  1  0.48481400  0.70776800  0.43272000  1
  P  P18  1  0.98949600  0.20776800  0.43394600  1
  P  P19  1  0.15912000  0.89159400  0.40825700  1
  P  P20  1  0.31519000  0.39159400  0.45841000  1
  P  P21  1  0.39852300  0.10840600  0.37507700  1
  P  P22  1  0.07578700  0.60840600  0.49159000  1
  P  P23  1  0.90616300  0.29223200  0.51728000  1
  P  P24  1  0.40148100  0.79223200  0.51605400  1
  P  P25  1  0.31814800  0.70776800  0.59938700  1
  P  P26  1  0.82282900  0.20776800  0.60061300  1
  P  P27  1  0.99245400  0.89159400  0.57492300  1
  P  P28  1  0.14852300  0.39159400  0.62507700  1
  P  P29  1  0.23185600  0.10840600  0.54174300  1
  P  P30  1  0.90912000  0.60840600  0.65825700  1
  P  P31  1  0.73949600  0.29223200  0.68394600  1
  P  P32  1  0.23481400  0.79223200  0.68272000  1
  P  P33  1  0.15148100  0.70776800  0.76605400  1
  P  P34  1  0.65616300  0.20776800  0.76728000  1
  P  P35  1  0.82578700  0.89159400  0.74159000  1
  P  P36  1  0.06519000  0.10840600  0.70841000  1
