# generated using pymatgen
data_Mg6Zn29
_symmetry_space_group_name_H-M   'P 1'
_cell_length_a   4.98183600
_cell_length_b   16.81026703
_cell_length_c   46.91195600
_cell_angle_alpha   88.98550742
_cell_angle_beta   90.00000000
_cell_angle_gamma   90.00000000
_symmetry_Int_Tables_number   1
_chemical_formula_structural   Mg6Zn29
_chemical_formula_sum   'Mg24 Zn116'
_cell_volume   3928.07253363
_cell_formula_units_Z   4
loop_
 _symmetry_equiv_pos_site_id
 _symmetry_equiv_pos_as_xyz
  1  'x, y, z'
loop_
 _atom_site_type_symbol
 _atom_site_label
 _atom_site_symmetry_multiplicity
 _atom_site_fract_x
 _atom_site_fract_y
 _atom_site_fract_z
 _atom_site_occupancy
  Mg  Mg0  1  0.50000000  0.78023700  0.36085900  1
  Mg  Mg1  1  0.00000000  0.71976300  0.32247400  1
  Mg  Mg2  1  0.50000000  0.97132800  0.35823900  1
  Mg  Mg3  1  1.00000000  0.52867200  0.32509500  1
  Mg  Mg4  1  0.00000000  0.28023700  0.26085900  1
  Mg  Mg5  1  0.50000000  0.21976300  0.22247400  1
  Mg  Mg6  1  0.00000000  0.47132800  0.25823900  1
  Mg  Mg7  1  0.50000000  0.02867200  0.22509500  1
  Mg  Mg8  1  0.50000000  0.78023700  0.56085900  1
  Mg  Mg9  1  0.00000000  0.71976300  0.52247400  1
  Mg  Mg10  1  0.50000000  0.97132800  0.55823900  1
  Mg  Mg11  1  1.00000000  0.52867200  0.52509500  1
  Mg  Mg12  1  0.00000000  0.28023700  0.46085900  1
  Mg  Mg13  1  0.50000000  0.21976300  0.42247400  1
  Mg  Mg14  1  0.00000000  0.47132800  0.45823900  1
  Mg  Mg15  1  0.50000000  0.02867200  0.42509500  1
  Mg  Mg16  1  0.50000000  0.78023700  0.76085900  1
  Mg  Mg17  1  0.00000000  0.71976300  0.72247400  1
  Mg  Mg18  1  0.50000000  0.97132800  0.75823900  1
  Mg  Mg19  1  1.00000000  0.52867200  0.72509500  1
  Mg  Mg20  1  0.00000000  0.28023700  0.66085900  1
  Mg  Mg21  1  0.50000000  0.21976300  0.62247400  1
  Mg  Mg22  1  0.00000000  0.47132800  0.65823900  1
  Mg  Mg23  1  0.50000000  0.02867200  0.62509500  1
  Zn  Zn24  1  0.50000000  0.00000000  0.29166700  1
  Zn  Zn25  1  0.50000000  0.53325400  0.22239400  1
  Zn  Zn26  1  0.50000000  0.70987800  0.22300500  1
  Zn  Zn27  1  0.50000000  0.62722100  0.32303800  1
  Zn  Zn28  1  0.00000000  0.87277900  0.36029500  1
  Zn  Zn29  1  0.74734900  0.87180400  0.21237000  1
  Zn  Zn30  1  0.75285600  0.87615900  0.31189700  1
  Zn  Zn31  1  0.00000000  0.96674600  0.26094000  1
  Zn  Zn32  1  0.00000000  0.74769600  0.39382300  1
  Zn  Zn33  1  0.25285600  0.62384100  0.37143700  1
  Zn  Zn34  1  0.24714400  0.87615900  0.31189700  1
  Zn  Zn35  1  0.74714400  0.62384100  0.37143700  1
  Zn  Zn36  1  0.24734900  0.62819600  0.27096300  1
  Zn  Zn37  1  0.00000000  0.79012200  0.26032800  1
  Zn  Zn38  1  0.25265100  0.87180400  0.21237000  1
  Zn  Zn39  1  0.75265100  0.62819600  0.27096300  1
  Zn  Zn40  1  0.00000000  0.00000000  0.39166700  1
  Zn  Zn41  1  0.50000000  0.88039100  0.25973100  1
  Zn  Zn42  1  0.00000000  0.61960900  0.22360200  1
  Zn  Zn43  1  0.50000000  0.75230400  0.28951100  1
  Zn  Zn44  1  0.00000000  0.50000000  0.39166700  1
  Zn  Zn45  1  0.00000000  0.03325400  0.32239400  1
  Zn  Zn46  1  0.00000000  0.20987800  0.32300500  1
  Zn  Zn47  1  0.00000000  0.12722100  0.22303800  1
  Zn  Zn48  1  0.50000000  0.37277900  0.26029500  1
  Zn  Zn49  1  0.24734900  0.37180400  0.31237000  1
  Zn  Zn50  1  0.25285600  0.37615900  0.21189700  1
  Zn  Zn51  1  0.50000000  0.46674600  0.36094000  1
  Zn  Zn52  1  0.50000000  0.24769600  0.29382300  1
  Zn  Zn53  1  0.75285600  0.12384100  0.27143700  1
  Zn  Zn54  1  0.74714400  0.37615900  0.21189700  1
  Zn  Zn55  1  0.24714400  0.12384100  0.27143700  1
  Zn  Zn56  1  0.74734900  0.12819600  0.37096300  1
  Zn  Zn57  1  0.50000000  0.29012200  0.36032800  1
  Zn  Zn58  1  0.75265100  0.37180400  0.31237000  1
  Zn  Zn59  1  0.25265100  0.12819600  0.37096300  1
  Zn  Zn60  1  0.50000000  0.50000000  0.29166700  1
  Zn  Zn61  1  0.00000000  0.38039100  0.35973100  1
  Zn  Zn62  1  0.50000000  0.11960900  0.32360200  1
  Zn  Zn63  1  0.00000000  0.25230400  0.38951100  1
  Zn  Zn64  1  0.50000000  0.00000000  0.49166700  1
  Zn  Zn65  1  0.50000000  0.53325400  0.42239400  1
  Zn  Zn66  1  0.50000000  0.70987800  0.42300500  1
  Zn  Zn67  1  0.50000000  0.62722100  0.52303800  1
  Zn  Zn68  1  0.00000000  0.87277900  0.56029500  1
  Zn  Zn69  1  0.74734900  0.87180400  0.41237000  1
  Zn  Zn70  1  0.75285600  0.87615900  0.51189700  1
  Zn  Zn71  1  0.00000000  0.96674600  0.46094000  1
  Zn  Zn72  1  0.00000000  0.74769600  0.59382300  1
  Zn  Zn73  1  0.25285600  0.62384100  0.57143700  1
  Zn  Zn74  1  0.24714400  0.87615900  0.51189700  1
  Zn  Zn75  1  0.74714400  0.62384100  0.57143700  1
  Zn  Zn76  1  0.24734900  0.62819600  0.47096300  1
  Zn  Zn77  1  0.00000000  0.79012200  0.46032800  1
  Zn  Zn78  1  0.25265100  0.87180400  0.41237000  1
  Zn  Zn79  1  0.75265100  0.62819600  0.47096300  1
  Zn  Zn80  1  0.00000000  0.00000000  0.59166700  1
  Zn  Zn81  1  0.50000000  0.88039100  0.45973100  1
  Zn  Zn82  1  0.00000000  0.61960900  0.42360200  1
  Zn  Zn83  1  0.50000000  0.75230400  0.48951100  1
  Zn  Zn84  1  0.00000000  0.50000000  0.59166700  1
  Zn  Zn85  1  0.00000000  0.03325400  0.52239400  1
  Zn  Zn86  1  0.00000000  0.20987800  0.52300500  1
  Zn  Zn87  1  0.00000000  0.12722100  0.42303800  1
  Zn  Zn88  1  0.50000000  0.37277900  0.46029500  1
  Zn  Zn89  1  0.24734900  0.37180400  0.51237000  1
  Zn  Zn90  1  0.25285600  0.37615900  0.41189700  1
  Zn  Zn91  1  0.50000000  0.46674600  0.56094000  1
  Zn  Zn92  1  0.50000000  0.24769600  0.49382300  1
  Zn  Zn93  1  0.75285600  0.12384100  0.47143700  1
  Zn  Zn94  1  0.74714400  0.37615900  0.41189700  1
  Zn  Zn95  1  0.24714400  0.12384100  0.47143700  1
  Zn  Zn96  1  0.74734900  0.12819600  0.57096300  1
  Zn  Zn97  1  0.50000000  0.29012200  0.56032800  1
  Zn  Zn98  1  0.75265100  0.37180400  0.51237000  1
  Zn  Zn99  1  0.25265100  0.12819600  0.57096300  1
  Zn  Zn100  1  0.50000000  0.50000000  0.49166700  1
  Zn  Zn101  1  0.00000000  0.38039100  0.55973100  1
  Zn  Zn102  1  0.50000000  0.11960900  0.52360200  1
  Zn  Zn103  1  0.00000000  0.25230400  0.58951100  1
  Zn  Zn104  1  0.50000000  0.00000000  0.69166700  1
  Zn  Zn105  1  0.50000000  0.53325400  0.62239400  1
  Zn  Zn106  1  0.50000000  0.70987800  0.62300500  1
  Zn  Zn107  1  0.50000000  0.62722100  0.72303800  1
  Zn  Zn108  1  0.00000000  0.87277900  0.76029500  1
  Zn  Zn109  1  0.74734900  0.87180400  0.61237000  1
  Zn  Zn110  1  0.75285600  0.87615900  0.71189700  1
  Zn  Zn111  1  0.00000000  0.96674600  0.66094000  1
  Zn  Zn112  1  0.25285600  0.62384100  0.77143700  1
  Zn  Zn113  1  0.24714400  0.87615900  0.71189700  1
  Zn  Zn114  1  0.74714400  0.62384100  0.77143700  1
  Zn  Zn115  1  0.24734900  0.62819600  0.67096300  1
  Zn  Zn116  1  0.00000000  0.79012200  0.66032800  1
  Zn  Zn117  1  0.25265100  0.87180400  0.61237000  1
  Zn  Zn118  1  0.75265100  0.62819600  0.67096300  1
  Zn  Zn119  1  0.50000000  0.88039100  0.65973100  1
  Zn  Zn120  1  0.00000000  0.61960900  0.62360200  1
  Zn  Zn121  1  0.50000000  0.75230400  0.68951100  1
  Zn  Zn122  1  0.00000000  0.03325400  0.72239400  1
  Zn  Zn123  1  0.00000000  0.20987800  0.72300500  1
  Zn  Zn124  1  0.00000000  0.12722100  0.62303800  1
  Zn  Zn125  1  0.50000000  0.37277900  0.66029500  1
  Zn  Zn126  1  0.24734900  0.37180400  0.71237000  1
  Zn  Zn127  1  0.25285600  0.37615900  0.61189700  1
  Zn  Zn128  1  0.50000000  0.46674600  0.76094000  1
  Zn  Zn129  1  0.50000000  0.24769600  0.69382300  1
  Zn  Zn130  1  0.75285600  0.12384100  0.67143700  1
  Zn  Zn131  1  0.74714400  0.37615900  0.61189700  1
  Zn  Zn132  1  0.24714400  0.12384100  0.67143700  1
  Zn  Zn133  1  0.74734900  0.12819600  0.77096300  1
  Zn  Zn134  1  0.50000000  0.29012200  0.76032800  1
  Zn  Zn135  1  0.75265100  0.37180400  0.71237000  1
  Zn  Zn136  1  0.25265100  0.12819600  0.77096300  1
  Zn  Zn137  1  0.50000000  0.50000000  0.69166700  1
  Zn  Zn138  1  0.00000000  0.38039100  0.75973100  1
  Zn  Zn139  1  0.50000000  0.11960900  0.72360200  1
