# generated using pymatgen
data_MgHg3
_symmetry_space_group_name_H-M   'P 1'
_cell_length_a   9.39727500
_cell_length_b   8.57724500
_cell_length_c   44.56867100
_cell_angle_alpha   90.00000000
_cell_angle_beta   90.00000000
_cell_angle_gamma   90.00000000
_symmetry_Int_Tables_number   1
_chemical_formula_structural   MgHg3
_chemical_formula_sum   'Mg22 Hg66'
_cell_volume   3592.35655540
_cell_formula_units_Z   22
loop_
 _symmetry_equiv_pos_site_id
 _symmetry_equiv_pos_as_xyz
  1  'x, y, z'
loop_
 _atom_site_type_symbol
 _atom_site_label
 _atom_site_symmetry_multiplicity
 _atom_site_fract_x
 _atom_site_fract_y
 _atom_site_fract_z
 _atom_site_occupancy
  Mg  Mg0  1  0.25000000  0.41666700  0.22222200  1
  Mg  Mg1  1  0.75000000  0.08333300  0.22222200  1
  Mg  Mg2  1  0.25000000  0.91666700  0.27777800  1
  Mg  Mg3  1  0.75000000  0.58333300  0.27777800  1
  Mg  Mg4  1  0.25000000  0.41666700  0.33333300  1
  Mg  Mg5  1  0.75000000  0.08333300  0.33333300  1
  Mg  Mg6  1  0.25000000  0.91666700  0.38888900  1
  Mg  Mg7  1  0.75000000  0.58333300  0.38888900  1
  Mg  Mg8  1  0.25000000  0.41666700  0.44444400  1
  Mg  Mg9  1  0.75000000  0.08333300  0.44444400  1
  Mg  Mg10  1  0.25000000  0.91666700  0.50000000  1
  Mg  Mg11  1  0.75000000  0.58333300  0.50000000  1
  Mg  Mg12  1  0.25000000  0.41666700  0.55555600  1
  Mg  Mg13  1  0.75000000  0.08333300  0.55555600  1
  Mg  Mg14  1  0.25000000  0.91666700  0.61111100  1
  Mg  Mg15  1  0.75000000  0.58333300  0.61111100  1
  Mg  Mg16  1  0.25000000  0.41666700  0.66666700  1
  Mg  Mg17  1  0.75000000  0.08333300  0.66666700  1
  Mg  Mg18  1  0.25000000  0.91666700  0.72222200  1
  Mg  Mg19  1  0.75000000  0.58333300  0.72222200  1
  Mg  Mg20  1  0.25000000  0.41666700  0.77777800  1
  Mg  Mg21  1  0.75000000  0.08333300  0.77777800  1
  Hg  Hg22  1  0.92681500  0.41666700  0.22222200  1
  Hg  Hg23  1  0.07318500  0.08333300  0.22222200  1
  Hg  Hg24  1  0.42681500  0.08333300  0.22222200  1
  Hg  Hg25  1  0.57318500  0.41666700  0.22222200  1
  Hg  Hg26  1  0.25000000  0.75000000  0.22222200  1
  Hg  Hg27  1  0.75000000  0.75000000  0.22222200  1
  Hg  Hg28  1  0.92681500  0.91666700  0.27777800  1
  Hg  Hg29  1  0.07318500  0.58333300  0.27777800  1
  Hg  Hg30  1  0.42681500  0.58333300  0.27777800  1
  Hg  Hg31  1  0.57318500  0.91666700  0.27777800  1
  Hg  Hg32  1  0.25000000  0.25000000  0.27777800  1
  Hg  Hg33  1  0.75000000  0.25000000  0.27777800  1
  Hg  Hg34  1  0.92681500  0.41666700  0.33333300  1
  Hg  Hg35  1  0.07318500  0.08333300  0.33333300  1
  Hg  Hg36  1  0.42681500  0.08333300  0.33333300  1
  Hg  Hg37  1  0.57318500  0.41666700  0.33333300  1
  Hg  Hg38  1  0.25000000  0.75000000  0.33333300  1
  Hg  Hg39  1  0.75000000  0.75000000  0.33333300  1
  Hg  Hg40  1  0.92681500  0.91666700  0.38888900  1
  Hg  Hg41  1  0.07318500  0.58333300  0.38888900  1
  Hg  Hg42  1  0.42681500  0.58333300  0.38888900  1
  Hg  Hg43  1  0.57318500  0.91666700  0.38888900  1
  Hg  Hg44  1  0.25000000  0.25000000  0.38888900  1
  Hg  Hg45  1  0.75000000  0.25000000  0.38888900  1
  Hg  Hg46  1  0.92681500  0.41666700  0.44444400  1
  Hg  Hg47  1  0.07318500  0.08333300  0.44444400  1
  Hg  Hg48  1  0.42681500  0.08333300  0.44444400  1
  Hg  Hg49  1  0.57318500  0.41666700  0.44444400  1
  Hg  Hg50  1  0.25000000  0.75000000  0.44444400  1
  Hg  Hg51  1  0.75000000  0.75000000  0.44444400  1
  Hg  Hg52  1  0.92681500  0.91666700  0.50000000  1
  Hg  Hg53  1  0.07318500  0.58333300  0.50000000  1
  Hg  Hg54  1  0.42681500  0.58333300  0.50000000  1
  Hg  Hg55  1  0.57318500  0.91666700  0.50000000  1
  Hg  Hg56  1  0.25000000  0.25000000  0.50000000  1
  Hg  Hg57  1  0.75000000  0.25000000  0.50000000  1
  Hg  Hg58  1  0.92681500  0.41666700  0.55555600  1
  Hg  Hg59  1  0.07318500  0.08333300  0.55555600  1
  Hg  Hg60  1  0.42681500  0.08333300  0.55555600  1
  Hg  Hg61  1  0.57318500  0.41666700  0.55555600  1
  Hg  Hg62  1  0.25000000  0.75000000  0.55555600  1
  Hg  Hg63  1  0.75000000  0.75000000  0.55555600  1
  Hg  Hg64  1  0.92681500  0.91666700  0.61111100  1
  Hg  Hg65  1  0.07318500  0.58333300  0.61111100  1
  Hg  Hg66  1  0.42681500  0.58333300  0.61111100  1
  Hg  Hg67  1  0.57318500  0.91666700  0.61111100  1
  Hg  Hg68  1  0.25000000  0.25000000  0.61111100  1
  Hg  Hg69  1  0.75000000  0.25000000  0.61111100  1
  Hg  Hg70  1  0.92681500  0.41666700  0.66666700  1
  Hg  Hg71  1  0.07318500  0.08333300  0.66666700  1
  Hg  Hg72  1  0.42681500  0.08333300  0.66666700  1
  Hg  Hg73  1  0.57318500  0.41666700  0.66666700  1
  Hg  Hg74  1  0.25000000  0.75000000  0.66666700  1
  Hg  Hg75  1  0.75000000  0.75000000  0.66666700  1
  Hg  Hg76  1  0.92681500  0.91666700  0.72222200  1
  Hg  Hg77  1  0.07318500  0.58333300  0.72222200  1
  Hg  Hg78  1  0.42681500  0.58333300  0.72222200  1
  Hg  Hg79  1  0.57318500  0.91666700  0.72222200  1
  Hg  Hg80  1  0.25000000  0.25000000  0.72222200  1
  Hg  Hg81  1  0.75000000  0.25000000  0.72222200  1
  Hg  Hg82  1  0.92681500  0.41666700  0.77777800  1
  Hg  Hg83  1  0.07318500  0.08333300  0.77777800  1
  Hg  Hg84  1  0.42681500  0.08333300  0.77777800  1
  Hg  Hg85  1  0.57318500  0.41666700  0.77777800  1
  Hg  Hg86  1  0.25000000  0.75000000  0.77777800  1
  Hg  Hg87  1  0.75000000  0.75000000  0.77777800  1
