# generated using pymatgen
data_Mg48P31
_symmetry_space_group_name_H-M   'P 1'
_cell_length_a   17.07071752
_cell_length_b   17.07071720
_cell_length_c   49.76926500
_cell_angle_alpha   99.87496192
_cell_angle_beta   99.87496173
_cell_angle_gamma   59.99999851
_symmetry_Int_Tables_number   1
_chemical_formula_structural   Mg48P31
_chemical_formula_sum   'Mg192 P124'
_cell_volume   12311.42566265
_cell_formula_units_Z   4
loop_
 _symmetry_equiv_pos_site_id
 _symmetry_equiv_pos_as_xyz
  1  'x, y, z'
loop_
 _atom_site_type_symbol
 _atom_site_label
 _atom_site_symmetry_multiplicity
 _atom_site_fract_x
 _atom_site_fract_y
 _atom_site_fract_z
 _atom_site_occupancy
  Mg  Mg0  1  0.19381400  0.95358500  0.31249700  1
  Mg  Mg1  1  0.67977700  0.70576200  0.30313900  1
  Mg  Mg2  1  0.43686500  0.93009700  0.30786400  1
  Mg  Mg3  1  0.17590900  0.44244800  0.30507200  1
  Mg  Mg4  1  0.34861900  0.58240500  0.23171000  1
  Mg  Mg5  1  0.96285000  0.43686500  0.30786400  1
  Mg  Mg6  1  0.44244800  0.70866200  0.30507200  1
  Mg  Mg7  1  0.18704500  0.19381400  0.31249700  1
  Mg  Mg8  1  0.59644200  0.82990300  0.24106800  1
  Mg  Mg9  1  0.58240500  0.32263400  0.23171000  1
  Mg  Mg10  1  0.57295400  0.60570700  0.23643500  1
  Mg  Mg11  1  0.35152000  0.81876600  0.23364400  1
  Mg  Mg12  1  0.01367500  0.25390400  0.26607500  1
  Mg  Mg13  1  0.52771200  0.50172700  0.27543300  1
  Mg  Mg14  1  0.77062400  0.27739200  0.27070700  1
  Mg  Mg15  1  0.03158000  0.76504100  0.27349900  1
  Mg  Mg16  1  0.85887000  0.62508400  0.34686100  1
  Mg  Mg17  1  0.24463900  0.77062400  0.27070700  1
  Mg  Mg18  1  0.76504100  0.49882600  0.27349900  1
  Mg  Mg19  1  0.02044300  0.01367500  0.26607500  1
  Mg  Mg20  1  0.61104700  0.37758600  0.33750300  1
  Mg  Mg21  1  0.62508400  0.88485500  0.34686100  1
  Mg  Mg22  1  0.63453500  0.60178200  0.34213600  1
  Mg  Mg23  1  0.85596900  0.38872300  0.34492800  1
  Mg  Mg24  1  0.83667100  0.59644200  0.24106800  1
  Mg  Mg25  1  0.32263400  0.34861900  0.23171000  1
  Mg  Mg26  1  0.07972200  0.57295400  0.23643500  1
  Mg  Mg27  1  0.81876600  0.08530600  0.23364400  1
  Mg  Mg28  1  0.70576200  0.93954800  0.30313900  1
  Mg  Mg29  1  0.60570700  0.07972200  0.23643500  1
  Mg  Mg30  1  0.08530600  0.35152000  0.23364400  1
  Mg  Mg31  1  0.82990300  0.83667100  0.24106800  1
  Mg  Mg32  1  0.95358500  0.18704500  0.31249700  1
  Mg  Mg33  1  0.93954800  0.67977700  0.30313900  1
  Mg  Mg34  1  0.93009700  0.96285000  0.30786400  1
  Mg  Mg35  1  0.70866200  0.17590900  0.30507200  1
  Mg  Mg36  1  0.37081800  0.61104700  0.33750300  1
  Mg  Mg37  1  0.88485500  0.85887000  0.34686100  1
  Mg  Mg38  1  0.12776700  0.63453500  0.34213600  1
  Mg  Mg39  1  0.38872300  0.12218300  0.34492800  1
  Mg  Mg40  1  0.50172700  0.26794100  0.27543300  1
  Mg  Mg41  1  0.60178200  0.12776700  0.34213600  1
  Mg  Mg42  1  0.12218300  0.85596900  0.34492800  1
  Mg  Mg43  1  0.37758600  0.37081800  0.33750300  1
  Mg  Mg44  1  0.25390400  0.02044300  0.26607500  1
  Mg  Mg45  1  0.26794100  0.52771200  0.27543300  1
  Mg  Mg46  1  0.27739200  0.24463900  0.27070700  1
  Mg  Mg47  1  0.49882600  0.03158000  0.27349900  1
  Mg  Mg48  1  0.90810000  0.66787000  0.45535400  1
  Mg  Mg49  1  0.39406300  0.42004700  0.44599600  1
  Mg  Mg50  1  0.15115100  0.64438200  0.45072100  1
  Mg  Mg51  1  0.89019500  0.15673400  0.44793000  1
  Mg  Mg52  1  0.06290400  0.29669000  0.37456700  1
  Mg  Mg53  1  0.67713600  0.15115100  0.45072100  1
  Mg  Mg54  1  0.15673400  0.42294800  0.44793000  1
  Mg  Mg55  1  0.90133100  0.90810000  0.45535400  1
  Mg  Mg56  1  0.31072800  0.54418800  0.38392500  1
  Mg  Mg57  1  0.29669000  0.03692000  0.37456700  1
  Mg  Mg58  1  0.28723900  0.31999300  0.37929300  1
  Mg  Mg59  1  0.06580500  0.53305200  0.37650100  1
  Mg  Mg60  1  0.72796100  0.96819000  0.40893200  1
  Mg  Mg61  1  0.24199800  0.21601300  0.41829000  1
  Mg  Mg62  1  0.48490900  0.99167800  0.41356500  1
  Mg  Mg63  1  0.74586500  0.47932600  0.41635600  1
  Mg  Mg64  1  0.57315600  0.33937000  0.48971900  1
  Mg  Mg65  1  0.95892500  0.48490900  0.41356500  1
  Mg  Mg66  1  0.47932600  0.21311200  0.41635600  1
  Mg  Mg67  1  0.73472900  0.72796100  0.40893200  1
  Mg  Mg68  1  0.32533300  0.09187200  0.48036100  1
  Mg  Mg69  1  0.33937000  0.59914100  0.48971900  1
  Mg  Mg70  1  0.34882100  0.31606800  0.48499300  1
  Mg  Mg71  1  0.57025500  0.10300800  0.48778500  1
  Mg  Mg72  1  0.55095700  0.31072800  0.38392500  1
  Mg  Mg73  1  0.03692000  0.06290400  0.37456700  1
  Mg  Mg74  1  0.79400800  0.28723900  0.37929300  1
  Mg  Mg75  1  0.53305200  0.79959100  0.37650100  1
  Mg  Mg76  1  0.42004700  0.65383300  0.44599600  1
  Mg  Mg77  1  0.31999300  0.79400800  0.37929300  1
  Mg  Mg78  1  0.79959100  0.06580500  0.37650100  1
  Mg  Mg79  1  0.54418800  0.55095700  0.38392500  1
  Mg  Mg80  1  0.66787000  0.90133100  0.45535400  1
  Mg  Mg81  1  0.65383300  0.39406300  0.44599600  1
  Mg  Mg82  1  0.64438200  0.67713600  0.45072100  1
  Mg  Mg83  1  0.42294800  0.89019500  0.44793000  1
  Mg  Mg84  1  0.08510300  0.32533300  0.48036100  1
  Mg  Mg85  1  0.59914100  0.57315600  0.48971900  1
  Mg  Mg86  1  0.84205200  0.34882100  0.48499300  1
  Mg  Mg87  1  0.10300800  0.83646900  0.48778500  1
  Mg  Mg88  1  0.21601300  0.98222700  0.41829000  1
  Mg  Mg89  1  0.31606800  0.84205200  0.48499300  1
  Mg  Mg90  1  0.83646900  0.57025500  0.48778500  1
  Mg  Mg91  1  0.09187200  0.08510300  0.48036100  1
  Mg  Mg92  1  0.96819000  0.73472900  0.40893200  1
  Mg  Mg93  1  0.98222700  0.24199800  0.41829000  1
  Mg  Mg94  1  0.99167800  0.95892500  0.41356500  1
  Mg  Mg95  1  0.21311200  0.74586500  0.41635600  1
  Mg  Mg96  1  0.62238500  0.38215600  0.59821100  1
  Mg  Mg97  1  0.10834800  0.13433300  0.58885300  1
  Mg  Mg98  1  0.86543700  0.35866800  0.59357800  1
  Mg  Mg99  1  0.60448100  0.87102000  0.59078700  1
  Mg  Mg100  1  0.77719000  0.01097600  0.51742400  1
  Mg  Mg101  1  0.39142100  0.86543700  0.59357800  1
  Mg  Mg102  1  0.87102000  0.13723400  0.59078700  1
  Mg  Mg103  1  0.61561700  0.62238500  0.59821100  1
  Mg  Mg104  1  0.02501300  0.25847400  0.52678200  1
  Mg  Mg105  1  0.01097600  0.75120600  0.51742400  1
  Mg  Mg106  1  0.00152500  0.03427800  0.52215000  1
  Mg  Mg107  1  0.78009100  0.24733800  0.51935800  1
  Mg  Mg108  1  0.44224600  0.68247600  0.55178900  1
  Mg  Mg109  1  0.95628300  0.93029900  0.56114700  1
  Mg  Mg110  1  0.19919500  0.70596400  0.55642200  1
  Mg  Mg111  1  0.46015100  0.19361200  0.55921300  1
  Mg  Mg112  1  0.28744200  0.05365600  0.63257600  1
  Mg  Mg113  1  0.67321000  0.19919500  0.55642200  1
  Mg  Mg114  1  0.19361200  0.92739800  0.55921300  1
  Mg  Mg115  1  0.44901500  0.44224600  0.55178900  1
  Mg  Mg116  1  0.03961900  0.80615800  0.62321800  1
  Mg  Mg117  1  0.05365600  0.31342600  0.63257600  1
  Mg  Mg118  1  0.06310700  0.03035300  0.62785000  1
  Mg  Mg119  1  0.28454100  0.81729400  0.63064200  1
  Mg  Mg120  1  0.26524300  0.02501300  0.52678200  1
  Mg  Mg121  1  0.75120600  0.77719000  0.51742400  1
  Mg  Mg122  1  0.50829400  0.00152500  0.52215000  1
  Mg  Mg123  1  0.24733800  0.51387700  0.51935800  1
  Mg  Mg124  1  0.13433300  0.36811900  0.58885300  1
  Mg  Mg125  1  0.03427800  0.50829400  0.52215000  1
  Mg  Mg126  1  0.51387700  0.78009100  0.51935800  1
  Mg  Mg127  1  0.25847400  0.26524300  0.52678200  1
  Mg  Mg128  1  0.38215600  0.61561700  0.59821100  1
  Mg  Mg129  1  0.36811900  0.10834800  0.58885300  1
  Mg  Mg130  1  0.35866800  0.39142100  0.59357800  1
  Mg  Mg131  1  0.13723400  0.60448100  0.59078700  1
  Mg  Mg132  1  0.79938900  0.03961900  0.62321800  1
  Mg  Mg133  1  0.31342600  0.28744200  0.63257600  1
  Mg  Mg134  1  0.55633800  0.06310700  0.62785000  1
  Mg  Mg135  1  0.81729400  0.55075500  0.63064200  1
  Mg  Mg136  1  0.93029900  0.69651300  0.56114700  1
  Mg  Mg137  1  0.03035300  0.55633800  0.62785000  1
  Mg  Mg138  1  0.55075500  0.28454100  0.63064200  1
  Mg  Mg139  1  0.80615800  0.79938900  0.62321800  1
  Mg  Mg140  1  0.68247600  0.44901500  0.55178900  1
  Mg  Mg141  1  0.69651300  0.95628300  0.56114700  1
  Mg  Mg142  1  0.70596400  0.67321000  0.55642200  1
  Mg  Mg143  1  0.92739800  0.46015100  0.55921300  1
  Mg  Mg144  1  0.33667100  0.09644200  0.74106800  1
  Mg  Mg145  1  0.82263400  0.84861900  0.73171000  1
  Mg  Mg146  1  0.57972200  0.07295400  0.73643500  1
  Mg  Mg147  1  0.31876600  0.58530600  0.73364400  1
  Mg  Mg148  1  0.49147600  0.72526200  0.66028100  1
  Mg  Mg149  1  0.10570700  0.57972200  0.73643500  1
  Mg  Mg150  1  0.58530600  0.85152000  0.73364400  1
  Mg  Mg151  1  0.32990300  0.33667100  0.74106800  1
  Mg  Mg152  1  0.73929900  0.97276000  0.66963900  1
  Mg  Mg153  1  0.72526200  0.46549100  0.66028100  1
  Mg  Mg154  1  0.71581100  0.74856400  0.66500700  1
  Mg  Mg155  1  0.49437700  0.96162300  0.66221500  1
  Mg  Mg156  1  0.15653200  0.39676100  0.69464600  1
  Mg  Mg157  1  0.67056900  0.64458400  0.70400400  1
  Mg  Mg158  1  0.91348100  0.42024900  0.69927900  1
  Mg  Mg159  1  0.17443700  0.90789800  0.70207000  1
  Mg  Mg160  1  0.00172700  0.76794100  0.77543300  1
  Mg  Mg161  1  0.38749600  0.91348100  0.69927900  1
  Mg  Mg162  1  0.90789800  0.64168400  0.70207000  1
  Mg  Mg163  1  0.16330100  0.15653200  0.69464600  1
  Mg  Mg164  1  0.75390400  0.52044300  0.76607500  1
  Mg  Mg165  1  0.76794100  0.02771200  0.77543300  1
  Mg  Mg166  1  0.77739200  0.74463900  0.77070700  1
  Mg  Mg167  1  0.99882600  0.53158000  0.77349900  1
  Mg  Mg168  1  0.97952800  0.73929900  0.66963900  1
  Mg  Mg169  1  0.46549100  0.49147600  0.66028100  1
  Mg  Mg170  1  0.22257900  0.71581100  0.66500700  1
  Mg  Mg171  1  0.96162300  0.22816300  0.66221500  1
  Mg  Mg172  1  0.84861900  0.08240500  0.73171000  1
  Mg  Mg173  1  0.74856400  0.22257900  0.66500700  1
  Mg  Mg174  1  0.22816300  0.49437700  0.66221500  1
  Mg  Mg175  1  0.97276000  0.97952800  0.66963900  1
  Mg  Mg176  1  0.09644200  0.32990300  0.74106800  1
  Mg  Mg177  1  0.08240500  0.82263400  0.73171000  1
  Mg  Mg178  1  0.07295400  0.10570700  0.73643500  1
  Mg  Mg179  1  0.85152000  0.31876600  0.73364400  1
  Mg  Mg180  1  0.51367500  0.75390400  0.76607500  1
  Mg  Mg181  1  0.02771200  0.00172700  0.77543300  1
  Mg  Mg182  1  0.27062400  0.77739200  0.77070700  1
  Mg  Mg183  1  0.53158000  0.26504100  0.77349900  1
  Mg  Mg184  1  0.64458400  0.41079800  0.70400400  1
  Mg  Mg185  1  0.74463900  0.27062400  0.77070700  1
  Mg  Mg186  1  0.26504100  0.99882600  0.77349900  1
  Mg  Mg187  1  0.52044300  0.51367500  0.76607500  1
  Mg  Mg188  1  0.39676100  0.16330100  0.69464600  1
  Mg  Mg189  1  0.41079800  0.67056900  0.70400400  1
  Mg  Mg190  1  0.42024900  0.38749600  0.69927900  1
  Mg  Mg191  1  0.64168400  0.17443700  0.70207000  1
  P  P192  1  0.10374400  0.10374400  0.28928600  1
  P  P193  1  0.60374400  0.60374400  0.28928600  1
  P  P194  1  0.10374400  0.60374400  0.28928600  1
  P  P195  1  0.33675200  0.36054100  0.28588700  1
  P  P196  1  0.98980500  0.73980500  0.22125600  1
  P  P197  1  0.09694800  0.87073700  0.29268400  1
  P  P198  1  0.36054100  0.61054100  0.28588700  1
  P  P199  1  0.96768400  0.69389500  0.35731600  1
  P  P200  1  0.87073700  0.34694800  0.29268400  1
  P  P201  1  0.87073700  0.84694800  0.29268400  1
  P  P202  1  0.21768400  0.46768400  0.35731600  1
  P  P203  1  0.11054100  0.33675200  0.28588700  1
  P  P204  1  0.84694800  0.59694800  0.29268400  1
  P  P205  1  0.23980500  0.51359400  0.22125600  1
  P  P206  1  0.33675200  0.86054100  0.28588700  1
  P  P207  1  0.60374400  0.10374400  0.28928600  1
  P  P208  1  0.69389500  0.71768400  0.35731600  1
  P  P209  1  0.34694800  0.09694800  0.29268400  1
  P  P210  1  0.73980500  0.51359400  0.22125600  1
  P  P211  1  0.71768400  0.96768400  0.35731600  1
  P  P212  1  0.61054100  0.33675200  0.28588700  1
  P  P213  1  0.51359400  0.98980500  0.22125600  1
  P  P214  1  0.51359400  0.48980500  0.22125600  1
  P  P215  1  0.86054100  0.11054100  0.28588700  1
  P  P216  1  0.46768400  0.69389500  0.35731600  1
  P  P217  1  0.48980500  0.23980500  0.22125600  1
  P  P218  1  0.59694800  0.87073700  0.29268400  1
  P  P219  1  0.69389500  0.21768400  0.35731600  1
  P  P220  1  0.81803000  0.81803000  0.43214300  1
  P  P221  1  0.31803000  0.31803000  0.43214300  1
  P  P222  1  0.81803000  0.31803000  0.43214300  1
  P  P223  1  0.96088700  0.46088700  0.36071400  1
  P  P224  1  0.05103800  0.07482700  0.42874400  1
  P  P225  1  0.70409000  0.45409000  0.36411300  1
  P  P226  1  0.81123300  0.58502200  0.43554100  1
  P  P227  1  0.07482700  0.32482700  0.42874400  1
  P  P228  1  0.68197000  0.40818100  0.50017300  1
  P  P229  1  0.58502200  0.06123300  0.43554100  1
  P  P230  1  0.58502200  0.56123300  0.43554100  1
  P  P231  1  0.93197000  0.18197000  0.50017300  1
  P  P232  1  0.82482700  0.05103800  0.42874400  1
  P  P233  1  0.56123300  0.31123300  0.43554100  1
  P  P234  1  0.95409000  0.22787900  0.36411300  1
  P  P235  1  0.05103800  0.57482700  0.42874400  1
  P  P236  1  0.46088700  0.46088700  0.36071400  1
  P  P237  1  0.96088700  0.96088700  0.36071400  1
  P  P238  1  0.46088700  0.96088700  0.36071400  1
  P  P239  1  0.31803000  0.81803000  0.43214300  1
  P  P240  1  0.40818100  0.43197000  0.50017300  1
  P  P241  1  0.06123300  0.81123300  0.43554100  1
  P  P242  1  0.45409000  0.22787900  0.36411300  1
  P  P243  1  0.43197000  0.68197000  0.50017300  1
  P  P244  1  0.32482700  0.05103800  0.42874400  1
  P  P245  1  0.22787900  0.70409000  0.36411300  1
  P  P246  1  0.22787900  0.20409000  0.36411300  1
  P  P247  1  0.57482700  0.82482700  0.42874400  1
  P  P248  1  0.18197000  0.40818100  0.50017300  1
  P  P249  1  0.20409000  0.95409000  0.36411300  1
  P  P250  1  0.31123300  0.58502200  0.43554100  1
  P  P251  1  0.40818100  0.93197000  0.50017300  1
  P  P252  1  0.53231600  0.53231600  0.57500000  1
  P  P253  1  0.03231600  0.03231600  0.57500000  1
  P  P254  1  0.53231600  0.03231600  0.57500000  1
  P  P255  1  0.67517300  0.17517300  0.50357100  1
  P  P256  1  0.76532400  0.78911300  0.57160200  1
  P  P257  1  0.41837600  0.16837600  0.50697000  1
  P  P258  1  0.52551900  0.29930800  0.57839800  1
  P  P259  1  0.78911300  0.03911300  0.57160200  1
  P  P260  1  0.39625600  0.12246700  0.64303000  1
  P  P261  1  0.29930800  0.77551900  0.57839800  1
  P  P262  1  0.29930800  0.27551900  0.57839800  1
  P  P263  1  0.64625600  0.89625600  0.64303000  1
  P  P264  1  0.53911300  0.76532400  0.57160200  1
  P  P265  1  0.27551900  0.02551900  0.57839800  1
  P  P266  1  0.66837600  0.94216500  0.50697000  1
  P  P267  1  0.76532400  0.28911300  0.57160200  1
  P  P268  1  0.17517300  0.17517300  0.50357100  1
  P  P269  1  0.67517300  0.67517300  0.50357100  1
  P  P270  1  0.17517300  0.67517300  0.50357100  1
  P  P271  1  0.03231600  0.53231600  0.57500000  1
  P  P272  1  0.12246700  0.14625600  0.64303000  1
  P  P273  1  0.77551900  0.52551900  0.57839800  1
  P  P274  1  0.16837600  0.94216500  0.50697000  1
  P  P275  1  0.14625600  0.39625600  0.64303000  1
  P  P276  1  0.03911300  0.76532400  0.57160200  1
  P  P277  1  0.94216500  0.41837600  0.50697000  1
  P  P278  1  0.94216500  0.91837600  0.50697000  1
  P  P279  1  0.28911300  0.53911300  0.57160200  1
  P  P280  1  0.89625600  0.12246700  0.64303000  1
  P  P281  1  0.91837600  0.66837600  0.50697000  1
  P  P282  1  0.02551900  0.29930800  0.57839800  1
  P  P283  1  0.12246700  0.64625600  0.64303000  1
  P  P284  1  0.24660200  0.24660200  0.71785700  1
  P  P285  1  0.74660200  0.74660200  0.71785700  1
  P  P286  1  0.24660200  0.74660200  0.71785700  1
  P  P287  1  0.38945900  0.88945900  0.64642900  1
  P  P288  1  0.47961000  0.50339800  0.71445900  1
  P  P289  1  0.13266200  0.88266200  0.64982700  1
  P  P290  1  0.23980500  0.01359400  0.72125600  1
  P  P291  1  0.50339800  0.75339800  0.71445900  1
  P  P292  1  0.11054100  0.83675200  0.78588700  1
  P  P293  1  0.01359400  0.48980500  0.72125600  1
  P  P294  1  0.01359400  0.98980500  0.72125600  1
  P  P295  1  0.36054100  0.61054100  0.78588700  1
  P  P296  1  0.25339800  0.47961000  0.71445900  1
  P  P297  1  0.98980500  0.73980500  0.72125600  1
  P  P298  1  0.38266200  0.65645100  0.64982700  1
  P  P299  1  0.47961000  0.00339800  0.71445900  1
  P  P300  1  0.88945900  0.88945900  0.64642900  1
  P  P301  1  0.38945900  0.38945900  0.64642900  1
  P  P302  1  0.88945900  0.38945900  0.64642900  1
  P  P303  1  0.74660200  0.24660200  0.71785700  1
  P  P304  1  0.83675200  0.86054100  0.78588700  1
  P  P305  1  0.48980500  0.23980500  0.72125600  1
  P  P306  1  0.88266200  0.65645100  0.64982700  1
  P  P307  1  0.86054100  0.11054100  0.78588700  1
  P  P308  1  0.75339800  0.47961000  0.71445900  1
  P  P309  1  0.65645100  0.13266200  0.64982700  1
  P  P310  1  0.65645100  0.63266200  0.64982700  1
  P  P311  1  0.00339800  0.25339800  0.71445900  1
  P  P312  1  0.61054100  0.83675200  0.78588700  1
  P  P313  1  0.63266200  0.38266200  0.64982700  1
  P  P314  1  0.73980500  0.01359400  0.72125600  1
  P  P315  1  0.83675200  0.36054100  0.78588700  1
