# generated using pymatgen
data_Sr2Mg
_symmetry_space_group_name_H-M   'P 1'
_cell_length_a   4.12481600
_cell_length_b   14.98824200
_cell_length_c   45.37297300
_cell_angle_alpha   90.00000000
_cell_angle_beta   90.00000000
_cell_angle_gamma   90.00000000
_symmetry_Int_Tables_number   1
_chemical_formula_structural   Sr2Mg
_chemical_formula_sum   'Sr28 Mg14'
_cell_volume   2805.12690454
_cell_formula_units_Z   14
loop_
 _symmetry_equiv_pos_site_id
 _symmetry_equiv_pos_as_xyz
  1  'x, y, z'
loop_
 _atom_site_type_symbol
 _atom_site_label
 _atom_site_symmetry_multiplicity
 _atom_site_fract_x
 _atom_site_fract_y
 _atom_site_fract_z
 _atom_site_occupancy
  Sr  Sr0  1  0.50000000  0.14200300  0.20454500  1
  Sr  Sr1  1  0.00000000  0.35799700  0.25000000  1
  Sr  Sr2  1  0.00000000  0.64200300  0.25000000  1
  Sr  Sr3  1  0.50000000  0.85799700  0.20454500  1
  Sr  Sr4  1  0.50000000  0.14200300  0.29545500  1
  Sr  Sr5  1  0.00000000  0.35799700  0.34090900  1
  Sr  Sr6  1  0.00000000  0.64200300  0.34090900  1
  Sr  Sr7  1  0.50000000  0.85799700  0.29545500  1
  Sr  Sr8  1  0.50000000  0.14200300  0.38636400  1
  Sr  Sr9  1  0.00000000  0.35799700  0.43181800  1
  Sr  Sr10  1  0.00000000  0.64200300  0.43181800  1
  Sr  Sr11  1  0.50000000  0.85799700  0.38636400  1
  Sr  Sr12  1  0.50000000  0.14200300  0.47727300  1
  Sr  Sr13  1  0.00000000  0.35799700  0.52272700  1
  Sr  Sr14  1  0.00000000  0.64200300  0.52272700  1
  Sr  Sr15  1  0.50000000  0.85799700  0.47727300  1
  Sr  Sr16  1  0.50000000  0.14200300  0.56818200  1
  Sr  Sr17  1  0.00000000  0.35799700  0.61363600  1
  Sr  Sr18  1  0.00000000  0.64200300  0.61363600  1
  Sr  Sr19  1  0.50000000  0.85799700  0.56818200  1
  Sr  Sr20  1  0.50000000  0.14200300  0.65909100  1
  Sr  Sr21  1  0.00000000  0.35799700  0.70454500  1
  Sr  Sr22  1  0.00000000  0.64200300  0.70454500  1
  Sr  Sr23  1  0.50000000  0.85799700  0.65909100  1
  Sr  Sr24  1  0.50000000  0.14200300  0.75000000  1
  Sr  Sr25  1  0.00000000  0.35799700  0.79545500  1
  Sr  Sr26  1  0.00000000  0.64200300  0.79545500  1
  Sr  Sr27  1  0.50000000  0.85799700  0.75000000  1
  Mg  Mg28  1  0.00000000  0.00000000  0.25000000  1
  Mg  Mg29  1  0.50000000  0.50000000  0.20454500  1
  Mg  Mg30  1  0.00000000  0.00000000  0.34090900  1
  Mg  Mg31  1  0.50000000  0.50000000  0.29545500  1
  Mg  Mg32  1  0.00000000  0.00000000  0.43181800  1
  Mg  Mg33  1  0.50000000  0.50000000  0.38636400  1
  Mg  Mg34  1  0.00000000  0.00000000  0.52272700  1
  Mg  Mg35  1  0.50000000  0.50000000  0.47727300  1
  Mg  Mg36  1  0.00000000  0.00000000  0.61363600  1
  Mg  Mg37  1  0.50000000  0.50000000  0.56818200  1
  Mg  Mg38  1  0.00000000  0.00000000  0.70454500  1
  Mg  Mg39  1  0.50000000  0.50000000  0.65909100  1
  Mg  Mg40  1  0.00000000  0.00000000  0.79545500  1
  Mg  Mg41  1  0.50000000  0.50000000  0.75000000  1
