# generated using pymatgen
data_Mg9Ga20
_symmetry_space_group_name_H-M   'P 1'
_cell_length_a   7.03330400
_cell_length_b   7.14992834
_cell_length_c   49.80257500
_cell_angle_alpha   90.00000000
_cell_angle_beta   90.00000000
_cell_angle_gamma   119.46187890
_symmetry_Int_Tables_number   1
_chemical_formula_structural   Mg9Ga20
_chemical_formula_sum   'Mg18 Ga40'
_cell_volume   2180.58493507
_cell_formula_units_Z   2
loop_
 _symmetry_equiv_pos_site_id
 _symmetry_equiv_pos_as_xyz
  1  'x, y, z'
loop_
 _atom_site_type_symbol
 _atom_site_label
 _atom_site_symmetry_multiplicity
 _atom_site_fract_x
 _atom_site_fract_y
 _atom_site_fract_z
 _atom_site_occupancy
  Mg  Mg0  1  0.82552200  0.65104400  0.79131500  1
  Mg  Mg1  1  0.02649800  0.05299600  0.74107100  1
  Mg  Mg2  1  0.62454700  0.24909300  0.74107100  1
  Mg  Mg3  1  0.32552200  0.65104400  0.81582800  1
  Mg  Mg4  1  0.32552200  0.65104400  0.66631500  1
  Mg  Mg5  1  0.52649800  0.05299600  0.61607100  1
  Mg  Mg6  1  0.12454700  0.24909300  0.61607100  1
  Mg  Mg7  1  0.82552200  0.65104400  0.69082800  1
  Mg  Mg8  1  0.82552200  0.65104400  0.54131500  1
  Mg  Mg9  1  0.02649800  0.05299600  0.49107100  1
  Mg  Mg10  1  0.62454700  0.24909300  0.49107100  1
  Mg  Mg11  1  0.32552200  0.65104400  0.56582800  1
  Mg  Mg12  1  0.32552200  0.65104400  0.41631500  1
  Mg  Mg13  1  0.52649800  0.05299600  0.36607100  1
  Mg  Mg14  1  0.12454700  0.24909300  0.36607100  1
  Mg  Mg15  1  0.82552200  0.65104400  0.44082800  1
  Mg  Mg16  1  0.82552200  0.65104400  0.29131500  1
  Mg  Mg17  1  0.32552200  0.65104400  0.31582800  1
  Ga  Ga18  1  0.28912700  0.94700400  0.70407600  1
  Ga  Ga19  1  0.28912700  0.94700400  0.77806600  1
  Ga  Ga20  1  0.99316800  0.35508500  0.70407600  1
  Ga  Ga21  1  0.99316800  0.35508500  0.77806600  1
  Ga  Ga22  1  0.61692300  0.65104400  0.74107100  1
  Ga  Ga23  1  0.03412200  0.65104400  0.74107100  1
  Ga  Ga24  1  0.36191700  0.35508500  0.70407600  1
  Ga  Ga25  1  0.36191700  0.35508500  0.77806600  1
  Ga  Ga26  1  0.65787700  0.94700400  0.70407600  1
  Ga  Ga27  1  0.65787700  0.94700400  0.77806600  1
  Ga  Ga28  1  0.78912700  0.94700400  0.57907600  1
  Ga  Ga29  1  0.78912700  0.94700400  0.65306600  1
  Ga  Ga30  1  0.49316800  0.35508500  0.57907600  1
  Ga  Ga31  1  0.49316800  0.35508500  0.65306600  1
  Ga  Ga32  1  0.11692300  0.65104400  0.61607100  1
  Ga  Ga33  1  0.53412200  0.65104400  0.61607100  1
  Ga  Ga34  1  0.86191700  0.35508500  0.57907600  1
  Ga  Ga35  1  0.86191700  0.35508500  0.65306600  1
  Ga  Ga36  1  0.15787700  0.94700400  0.57907600  1
  Ga  Ga37  1  0.15787700  0.94700400  0.65306600  1
  Ga  Ga38  1  0.28912700  0.94700400  0.45407600  1
  Ga  Ga39  1  0.28912700  0.94700400  0.52806600  1
  Ga  Ga40  1  0.99316800  0.35508500  0.45407600  1
  Ga  Ga41  1  0.99316800  0.35508500  0.52806600  1
  Ga  Ga42  1  0.61692300  0.65104400  0.49107100  1
  Ga  Ga43  1  0.03412200  0.65104400  0.49107100  1
  Ga  Ga44  1  0.36191700  0.35508500  0.45407600  1
  Ga  Ga45  1  0.36191700  0.35508500  0.52806600  1
  Ga  Ga46  1  0.65787700  0.94700400  0.45407600  1
  Ga  Ga47  1  0.65787700  0.94700400  0.52806600  1
  Ga  Ga48  1  0.78912700  0.94700400  0.32907600  1
  Ga  Ga49  1  0.78912700  0.94700400  0.40306600  1
  Ga  Ga50  1  0.49316800  0.35508500  0.32907600  1
  Ga  Ga51  1  0.49316800  0.35508500  0.40306600  1
  Ga  Ga52  1  0.11692300  0.65104400  0.36607100  1
  Ga  Ga53  1  0.53412200  0.65104400  0.36607100  1
  Ga  Ga54  1  0.86191700  0.35508500  0.32907600  1
  Ga  Ga55  1  0.86191700  0.35508500  0.40306600  1
  Ga  Ga56  1  0.15787700  0.94700400  0.32907600  1
  Ga  Ga57  1  0.15787700  0.94700400  0.40306600  1
