# generated using pymatgen
data_Mg3Zn
_symmetry_space_group_name_H-M   'P 1'
_cell_length_a   6.14549200
_cell_length_b   7.89728281
_cell_length_c   43.64987100
_cell_angle_alpha   93.71774774
_cell_angle_beta   90.00000000
_cell_angle_gamma   67.10217279
_symmetry_Int_Tables_number   1
_chemical_formula_structural   Mg3Zn
_chemical_formula_sum   'Mg42 Zn14'
_cell_volume   1946.67205951
_cell_formula_units_Z   14
loop_
 _symmetry_equiv_pos_site_id
 _symmetry_equiv_pos_as_xyz
  1  'x, y, z'
loop_
 _atom_site_type_symbol
 _atom_site_label
 _atom_site_symmetry_multiplicity
 _atom_site_fract_x
 _atom_site_fract_y
 _atom_site_fract_z
 _atom_site_occupancy
  Mg  Mg0  1  0.02562800  0.46025100  0.25662500  1
  Mg  Mg1  1  0.14775100  0.70449700  0.21591700  1
  Mg  Mg2  1  0.51412000  0.46025100  0.25662500  1
  Mg  Mg3  1  0.60224900  0.79550300  0.28408300  1
  Mg  Mg4  1  0.23588000  0.03974900  0.24337500  1
  Mg  Mg5  1  0.72437200  0.03974900  0.24337500  1
  Mg  Mg6  1  0.77562800  0.96025100  0.33995800  1
  Mg  Mg7  1  0.89775100  0.20449700  0.29925000  1
  Mg  Mg8  1  0.26412000  0.96025100  0.33995800  1
  Mg  Mg9  1  0.35224900  0.29550300  0.36741600  1
  Mg  Mg10  1  0.98588000  0.53974900  0.32670900  1
  Mg  Mg11  1  0.47437200  0.53974900  0.32670900  1
  Mg  Mg12  1  0.52562800  0.46025100  0.42329100  1
  Mg  Mg13  1  0.64775100  0.70449700  0.38258400  1
  Mg  Mg14  1  0.01412000  0.46025100  0.42329100  1
  Mg  Mg15  1  0.10224900  0.79550300  0.45075000  1
  Mg  Mg16  1  0.73588000  0.03974900  0.41004200  1
  Mg  Mg17  1  0.22437200  0.03974900  0.41004200  1
  Mg  Mg18  1  0.27562800  0.96025100  0.50662500  1
  Mg  Mg19  1  0.39775100  0.20449700  0.46591700  1
  Mg  Mg20  1  0.76412000  0.96025100  0.50662500  1
  Mg  Mg21  1  0.85224900  0.29550300  0.53408300  1
  Mg  Mg22  1  0.48588000  0.53974900  0.49337500  1
  Mg  Mg23  1  0.97437200  0.53974900  0.49337500  1
  Mg  Mg24  1  0.02562800  0.46025100  0.58995800  1
  Mg  Mg25  1  0.14775100  0.70449700  0.54925000  1
  Mg  Mg26  1  0.51412000  0.46025100  0.58995800  1
  Mg  Mg27  1  0.60224900  0.79550300  0.61741600  1
  Mg  Mg28  1  0.23588000  0.03974900  0.57670900  1
  Mg  Mg29  1  0.72437200  0.03974900  0.57670900  1
  Mg  Mg30  1  0.77562800  0.96025100  0.67329100  1
  Mg  Mg31  1  0.89775100  0.20449700  0.63258400  1
  Mg  Mg32  1  0.26412000  0.96025100  0.67329100  1
  Mg  Mg33  1  0.35224900  0.29550300  0.70075000  1
  Mg  Mg34  1  0.98588000  0.53974900  0.66004200  1
  Mg  Mg35  1  0.47437200  0.53974900  0.66004200  1
  Mg  Mg36  1  0.52562800  0.46025100  0.75662500  1
  Mg  Mg37  1  0.64775100  0.70449700  0.71591700  1
  Mg  Mg38  1  0.01412000  0.46025100  0.75662500  1
  Mg  Mg39  1  0.10224900  0.79550300  0.78408300  1
  Mg  Mg40  1  0.73588000  0.03974900  0.74337500  1
  Mg  Mg41  1  0.22437200  0.03974900  0.74337500  1
  Zn  Zn42  1  0.64583300  0.70833300  0.21527800  1
  Zn  Zn43  1  0.10416700  0.79166700  0.28472200  1
  Zn  Zn44  1  0.39583300  0.20833300  0.29861100  1
  Zn  Zn45  1  0.85416700  0.29166700  0.36805600  1
  Zn  Zn46  1  0.14583300  0.70833300  0.38194400  1
  Zn  Zn47  1  0.60416700  0.79166700  0.45138900  1
  Zn  Zn48  1  0.89583300  0.20833300  0.46527800  1
  Zn  Zn49  1  0.35416700  0.29166700  0.53472200  1
  Zn  Zn50  1  0.64583300  0.70833300  0.54861100  1
  Zn  Zn51  1  0.10416700  0.79166700  0.61805600  1
  Zn  Zn52  1  0.39583300  0.20833300  0.63194400  1
  Zn  Zn53  1  0.85416700  0.29166700  0.70138900  1
  Zn  Zn54  1  0.14583300  0.70833300  0.71527800  1
  Zn  Zn55  1  0.60416700  0.79166700  0.78472200  1
