# generated using pymatgen
data_Mg29Ir44
_symmetry_space_group_name_H-M   'P 1'
_cell_length_a   9.72091561
_cell_length_b   10.02721097
_cell_length_c   44.35051200
_cell_angle_alpha   96.44506080
_cell_angle_beta   93.67631499
_cell_angle_gamma   75.98716788
_symmetry_Int_Tables_number   1
_chemical_formula_structural   Mg29Ir44
_chemical_formula_sum   'Mg58 Ir88'
_cell_volume   4164.79217447
_cell_formula_units_Z   2
loop_
 _symmetry_equiv_pos_site_id
 _symmetry_equiv_pos_as_xyz
  1  'x, y, z'
loop_
 _atom_site_type_symbol
 _atom_site_label
 _atom_site_symmetry_multiplicity
 _atom_site_fract_x
 _atom_site_fract_y
 _atom_site_fract_z
 _atom_site_occupancy
  Mg  Mg0  1  0.34872400  0.90312300  0.78845300  1
  Mg  Mg1  1  0.16727600  0.88973200  0.72754700  1
  Mg  Mg2  1  0.90000800  0.61174400  0.79087400  1
  Mg  Mg3  1  0.61599200  0.18111000  0.72512600  1
  Mg  Mg4  1  0.30489500  0.34804400  0.72337500  1
  Mg  Mg5  1  0.11110500  0.14481100  0.69262500  1
  Mg  Mg6  1  0.61058100  0.91825900  0.76598100  1
  Mg  Mg7  1  0.90541900  0.87459600  0.75001900  1
  Mg  Mg8  1  0.76610500  0.61310800  0.72404100  1
  Mg  Mg9  1  0.74989500  0.17974700  0.79195900  1
  Mg  Mg10  1  0.24872400  0.60312300  0.68845300  1
  Mg  Mg11  1  0.06727600  0.58973200  0.62754700  1
  Mg  Mg12  1  0.80000800  0.31174400  0.69087400  1
  Mg  Mg13  1  0.51599200  0.88111000  0.62512600  1
  Mg  Mg14  1  0.20489500  0.04804400  0.62337500  1
  Mg  Mg15  1  0.01110500  0.84481100  0.59262500  1
  Mg  Mg16  1  0.51058100  0.61825900  0.66598100  1
  Mg  Mg17  1  0.80541900  0.57459600  0.65001900  1
  Mg  Mg18  1  0.66610500  0.31310800  0.62404100  1
  Mg  Mg19  1  0.64989500  0.87974700  0.69195900  1
  Mg  Mg20  1  0.14872400  0.30312300  0.58845300  1
  Mg  Mg21  1  0.96727600  0.28973200  0.52754700  1
  Mg  Mg22  1  0.70000800  0.01174400  0.59087400  1
  Mg  Mg23  1  0.41599200  0.58111000  0.52512600  1
  Mg  Mg24  1  0.10489500  0.74804400  0.52337500  1
  Mg  Mg25  1  0.91110500  0.54481100  0.49262500  1
  Mg  Mg26  1  0.41058100  0.31825900  0.56598100  1
  Mg  Mg27  1  0.70541900  0.27459600  0.55001900  1
  Mg  Mg28  1  0.56610500  0.01310800  0.52404100  1
  Mg  Mg29  1  0.54989500  0.57974700  0.59195900  1
  Mg  Mg30  1  0.04872400  0.00312300  0.48845300  1
  Mg  Mg31  1  0.86727600  0.98973200  0.42754700  1
  Mg  Mg32  1  0.60000800  0.71174400  0.49087400  1
  Mg  Mg33  1  0.31599200  0.28111000  0.42512600  1
  Mg  Mg34  1  0.00489500  0.44804400  0.42337500  1
  Mg  Mg35  1  0.81110500  0.24481100  0.39262500  1
  Mg  Mg36  1  0.31058100  0.01825900  0.46598100  1
  Mg  Mg37  1  0.60541900  0.97459600  0.45001900  1
  Mg  Mg38  1  0.46610500  0.71310800  0.42404100  1
  Mg  Mg39  1  0.44989500  0.27974700  0.49195900  1
  Mg  Mg40  1  0.94872400  0.70312300  0.38845300  1
  Mg  Mg41  1  0.76727600  0.68973200  0.32754700  1
  Mg  Mg42  1  0.50000800  0.41174400  0.39087400  1
  Mg  Mg43  1  0.21599200  0.98111000  0.32512600  1
  Mg  Mg44  1  0.90489500  0.14804400  0.32337500  1
  Mg  Mg45  1  0.71110500  0.94481100  0.29262500  1
  Mg  Mg46  1  0.21058100  0.71825900  0.36598100  1
  Mg  Mg47  1  0.50541900  0.67459600  0.35001900  1
  Mg  Mg48  1  0.36610500  0.41310800  0.32404100  1
  Mg  Mg49  1  0.34989500  0.97974700  0.39195900  1
  Mg  Mg50  1  0.84872400  0.40312300  0.28845300  1
  Mg  Mg51  1  0.66727600  0.38973200  0.22754700  1
  Mg  Mg52  1  0.40000800  0.11174400  0.29087400  1
  Mg  Mg53  1  0.11599200  0.68111000  0.22512600  1
  Mg  Mg54  1  0.11058100  0.41825900  0.26598100  1
  Mg  Mg55  1  0.40541900  0.37459600  0.25001900  1
  Mg  Mg56  1  0.26610500  0.11310800  0.22404100  1
  Mg  Mg57  1  0.24989500  0.67974700  0.29195900  1
  Ir  Ir58  1  0.46170100  0.76593900  0.72394400  1
  Ir  Ir59  1  0.05429900  0.02691500  0.79205600  1
  Ir  Ir60  1  0.12499700  0.76022900  0.78911000  1
  Ir  Ir61  1  0.39100300  0.03262600  0.72689000  1
  Ir  Ir62  1  0.44090600  0.18233400  0.77679300  1
  Ir  Ir63  1  0.07509400  0.61052100  0.73920700  1
  Ir  Ir64  1  0.75800000  0.39642700  0.75800000  1
  Ir  Ir65  1  0.19263300  0.16152200  0.76070600  1
  Ir  Ir66  1  0.32336700  0.63133300  0.75529400  1
  Ir  Ir67  1  0.01276200  0.37885900  0.74110600  1
  Ir  Ir68  1  0.50323800  0.41399500  0.77489400  1
  Ir  Ir69  1  0.59173800  0.64634100  0.77327400  1
  Ir  Ir70  1  0.92426200  0.14651400  0.74272600  1
  Ir  Ir71  1  0.87747400  0.00615100  0.69593900  1
  Ir  Ir72  1  0.53852600  0.48670400  0.72006100  1
  Ir  Ir73  1  0.36170100  0.46593900  0.62394400  1
  Ir  Ir74  1  0.95429900  0.72691500  0.69205600  1
  Ir  Ir75  1  0.02499700  0.46022900  0.68911000  1
  Ir  Ir76  1  0.29100300  0.73262600  0.62689000  1
  Ir  Ir77  1  0.34090600  0.88233400  0.67679300  1
  Ir  Ir78  1  0.97509400  0.31052100  0.63920700  1
  Ir  Ir79  1  0.65800000  0.09642700  0.65800000  1
  Ir  Ir80  1  0.09263300  0.86152200  0.66070600  1
  Ir  Ir81  1  0.22336700  0.33133300  0.65529400  1
  Ir  Ir82  1  0.91276200  0.07885900  0.64110600  1
  Ir  Ir83  1  0.40323800  0.11399500  0.67489400  1
  Ir  Ir84  1  0.49173800  0.34634100  0.67327400  1
  Ir  Ir85  1  0.82426200  0.84651400  0.64272600  1
  Ir  Ir86  1  0.77747400  0.70615100  0.59593900  1
  Ir  Ir87  1  0.43852600  0.18670400  0.62006100  1
  Ir  Ir88  1  0.26170100  0.16593900  0.52394400  1
  Ir  Ir89  1  0.85429900  0.42691500  0.59205600  1
  Ir  Ir90  1  0.92499700  0.16022900  0.58911000  1
  Ir  Ir91  1  0.19100300  0.43262600  0.52689000  1
  Ir  Ir92  1  0.24090600  0.58233400  0.57679300  1
  Ir  Ir93  1  0.87509400  0.01052100  0.53920700  1
  Ir  Ir94  1  0.55800000  0.79642700  0.55800000  1
  Ir  Ir95  1  0.99263300  0.56152200  0.56070600  1
  Ir  Ir96  1  0.12336700  0.03133300  0.55529400  1
  Ir  Ir97  1  0.81276200  0.77885900  0.54110600  1
  Ir  Ir98  1  0.30323800  0.81399500  0.57489400  1
  Ir  Ir99  1  0.39173800  0.04634100  0.57327400  1
  Ir  Ir100  1  0.72426200  0.54651400  0.54272600  1
  Ir  Ir101  1  0.67747400  0.40615100  0.49593900  1
  Ir  Ir102  1  0.33852600  0.88670400  0.52006100  1
  Ir  Ir103  1  0.16170100  0.86593900  0.42394400  1
  Ir  Ir104  1  0.75429900  0.12691500  0.49205600  1
  Ir  Ir105  1  0.82499700  0.86022900  0.48911000  1
  Ir  Ir106  1  0.09100300  0.13262600  0.42689000  1
  Ir  Ir107  1  0.14090600  0.28233400  0.47679300  1
  Ir  Ir108  1  0.77509400  0.71052100  0.43920700  1
  Ir  Ir109  1  0.45800000  0.49642700  0.45800000  1
  Ir  Ir110  1  0.89263300  0.26152200  0.46070600  1
  Ir  Ir111  1  0.02336700  0.73133300  0.45529400  1
  Ir  Ir112  1  0.71276200  0.47885900  0.44110600  1
  Ir  Ir113  1  0.20323800  0.51399500  0.47489400  1
  Ir  Ir114  1  0.29173800  0.74634100  0.47327400  1
  Ir  Ir115  1  0.62426200  0.24651400  0.44272600  1
  Ir  Ir116  1  0.57747400  0.10615100  0.39593900  1
  Ir  Ir117  1  0.23852600  0.58670400  0.42006100  1
  Ir  Ir118  1  0.06170100  0.56593900  0.32394400  1
  Ir  Ir119  1  0.65429900  0.82691500  0.39205600  1
  Ir  Ir120  1  0.72499700  0.56022900  0.38911000  1
  Ir  Ir121  1  0.99100300  0.83262600  0.32689000  1
  Ir  Ir122  1  0.04090600  0.98233400  0.37679300  1
  Ir  Ir123  1  0.67509400  0.41052100  0.33920700  1
  Ir  Ir124  1  0.35800000  0.19642700  0.35800000  1
  Ir  Ir125  1  0.79263300  0.96152200  0.36070600  1
  Ir  Ir126  1  0.92336700  0.43133300  0.35529400  1
  Ir  Ir127  1  0.61276200  0.17885900  0.34110600  1
  Ir  Ir128  1  0.10323800  0.21399500  0.37489400  1
  Ir  Ir129  1  0.19173800  0.44634100  0.37327400  1
  Ir  Ir130  1  0.52426200  0.94651400  0.34272600  1
  Ir  Ir131  1  0.47747400  0.80615100  0.29593900  1
  Ir  Ir132  1  0.13852600  0.28670400  0.32006100  1
  Ir  Ir133  1  0.96170100  0.26593900  0.22394400  1
  Ir  Ir134  1  0.55429900  0.52691500  0.29205600  1
  Ir  Ir135  1  0.62499700  0.26022900  0.28911000  1
  Ir  Ir136  1  0.89100300  0.53262600  0.22689000  1
  Ir  Ir137  1  0.94090600  0.68233400  0.27679300  1
  Ir  Ir138  1  0.57509400  0.11052100  0.23920700  1
  Ir  Ir139  1  0.25800000  0.89642700  0.25800000  1
  Ir  Ir140  1  0.69263300  0.66152200  0.26070600  1
  Ir  Ir141  1  0.82336700  0.13133300  0.25529400  1
  Ir  Ir142  1  0.51276200  0.87885900  0.24110600  1
  Ir  Ir143  1  0.00323800  0.91399500  0.27489400  1
  Ir  Ir144  1  0.09173800  0.14634100  0.27327400  1
  Ir  Ir145  1  0.42426200  0.64651400  0.24272600  1
