# generated using pymatgen
data_Mg22Al45
_symmetry_space_group_name_H-M   'P 1'
_cell_length_a   5.50999200
_cell_length_b   10.24190098
_cell_length_c   41.89781300
_cell_angle_alpha   94.42221519
_cell_angle_beta   90.00000000
_cell_angle_gamma   74.39566803
_symmetry_Int_Tables_number   1
_chemical_formula_structural   Mg22Al45
_chemical_formula_sum   'Mg22 Al45'
_cell_volume   2269.95445228
_cell_formula_units_Z   1
loop_
 _symmetry_equiv_pos_site_id
 _symmetry_equiv_pos_as_xyz
  1  'x, y, z'
loop_
 _atom_site_type_symbol
 _atom_site_label
 _atom_site_symmetry_multiplicity
 _atom_site_fract_x
 _atom_site_fract_y
 _atom_site_fract_z
 _atom_site_occupancy
  Mg  Mg0  1  0.96831300  0.38457600  0.29420900  1
  Mg  Mg1  1  0.48864900  0.34390500  0.24745800  1
  Mg  Mg2  1  0.56831300  0.18457600  0.39420900  1
  Mg  Mg3  1  0.23498000  0.85124300  0.31087500  1
  Mg  Mg4  1  0.08864900  0.14390500  0.34745800  1
  Mg  Mg5  1  0.82198200  0.67723800  0.33079100  1
  Mg  Mg6  1  0.16831300  0.98457600  0.49420900  1
  Mg  Mg7  1  0.83498000  0.65124300  0.41087500  1
  Mg  Mg8  1  0.68864900  0.94390500  0.44745800  1
  Mg  Mg9  1  0.42198200  0.47723800  0.43079100  1
  Mg  Mg10  1  0.76831300  0.78457600  0.59420900  1
  Mg  Mg11  1  0.43498000  0.45124300  0.51087500  1
  Mg  Mg12  1  0.28864900  0.74390500  0.54745800  1
  Mg  Mg13  1  0.02198200  0.27723800  0.53079100  1
  Mg  Mg14  1  0.36831300  0.58457600  0.69420900  1
  Mg  Mg15  1  0.03498000  0.25124300  0.61087500  1
  Mg  Mg16  1  0.88864900  0.54390500  0.64745800  1
  Mg  Mg17  1  0.62198200  0.07723800  0.63079100  1
  Mg  Mg18  1  0.96831300  0.38457600  0.79420900  1
  Mg  Mg19  1  0.63498000  0.05124300  0.71087500  1
  Mg  Mg20  1  0.48864900  0.34390500  0.74745800  1
  Mg  Mg21  1  0.22198200  0.87723800  0.73079100  1
  Al  Al22  1  0.72848100  0.86424000  0.27083300  1
  Al  Al23  1  0.10155900  0.63010600  0.26290100  1
  Al  Al24  1  0.58953700  0.63010600  0.26290100  1
  Al  Al25  1  0.86742500  0.09837500  0.27876600  1
  Al  Al26  1  0.35540200  0.09837500  0.27876600  1
  Al  Al27  1  0.52848100  0.26424000  0.32083300  1
  Al  Al28  1  0.32848100  0.66424000  0.37083300  1
  Al  Al29  1  0.66261600  0.99597100  0.32996800  1
  Al  Al30  1  0.70155900  0.43010600  0.36290100  1
  Al  Al31  1  0.18953700  0.43010600  0.36290100  1
  Al  Al32  1  0.46742500  0.89837500  0.37876600  1
  Al  Al33  1  0.95540200  0.89837500  0.37876600  1
  Al  Al34  1  0.39434600  0.53251000  0.31169900  1
  Al  Al35  1  0.12848100  0.06424000  0.42083300  1
  Al  Al36  1  0.92848100  0.46424000  0.47083300  1
  Al  Al37  1  0.26261600  0.79597100  0.42996800  1
  Al  Al38  1  0.30155900  0.23010600  0.46290100  1
  Al  Al39  1  0.78953700  0.23010600  0.46290100  1
  Al  Al40  1  0.06742500  0.69837500  0.47876600  1
  Al  Al41  1  0.55540200  0.69837500  0.47876600  1
  Al  Al42  1  0.99434600  0.33251000  0.41169900  1
  Al  Al43  1  0.72848100  0.86424000  0.52083300  1
  Al  Al44  1  0.52848100  0.26424000  0.57083300  1
  Al  Al45  1  0.86261600  0.59597100  0.52996800  1
  Al  Al46  1  0.90155900  0.03010600  0.56290100  1
  Al  Al47  1  0.38953700  0.03010600  0.56290100  1
  Al  Al48  1  0.66742500  0.49837500  0.57876600  1
  Al  Al49  1  0.15540200  0.49837500  0.57876600  1
  Al  Al50  1  0.59434600  0.13251000  0.51169900  1
  Al  Al51  1  0.32848100  0.66424000  0.62083300  1
  Al  Al52  1  0.12848100  0.06424000  0.67083300  1
  Al  Al53  1  0.46261600  0.39597100  0.62996800  1
  Al  Al54  1  0.50155900  0.83010600  0.66290100  1
  Al  Al55  1  0.98953700  0.83010600  0.66290100  1
  Al  Al56  1  0.26742500  0.29837500  0.67876600  1
  Al  Al57  1  0.75540200  0.29837500  0.67876600  1
  Al  Al58  1  0.19434600  0.93251000  0.61169900  1
  Al  Al59  1  0.92848100  0.46424000  0.72083300  1
  Al  Al60  1  0.72848100  0.86424000  0.77083300  1
  Al  Al61  1  0.06261600  0.19597100  0.72996800  1
  Al  Al62  1  0.10155900  0.63010600  0.76290100  1
  Al  Al63  1  0.58953700  0.63010600  0.76290100  1
  Al  Al64  1  0.86742500  0.09837500  0.77876600  1
  Al  Al65  1  0.35540200  0.09837500  0.77876600  1
  Al  Al66  1  0.79434600  0.73251000  0.71169900  1
