# generated using pymatgen
data_Li4Mg
_symmetry_space_group_name_H-M   'P 1'
_cell_length_a   5.31167075
_cell_length_b   12.84118490
_cell_length_c   41.48547500
_cell_angle_alpha   89.49424867
_cell_angle_beta   86.32950214
_cell_angle_gamma   82.07474598
_symmetry_Int_Tables_number   1
_chemical_formula_structural   Li4Mg
_chemical_formula_sum   'Li68 Mg17'
_cell_volume   2796.87180525
_cell_formula_units_Z   17
loop_
 _symmetry_equiv_pos_site_id
 _symmetry_equiv_pos_as_xyz
  1  'x, y, z'
loop_
 _atom_site_type_symbol
 _atom_site_label
 _atom_site_symmetry_multiplicity
 _atom_site_fract_x
 _atom_site_fract_y
 _atom_site_fract_z
 _atom_site_occupancy
  Li  Li0  1  0.66058000  0.79603900  0.79629600  1
  Li  Li1  1  0.05966900  0.59877000  0.79629600  1
  Li  Li2  1  0.45884900  0.40123000  0.79629600  1
  Li  Li3  1  0.85793900  0.20396100  0.79629600  1
  Li  Li4  1  0.17909800  0.79603900  0.75925900  1
  Li  Li5  1  0.57818800  0.59877000  0.75925900  1
  Li  Li6  1  0.97736800  0.40123000  0.75925900  1
  Li  Li7  1  0.37645700  0.20396100  0.75925900  1
  Li  Li8  1  0.69761700  0.79603900  0.72222200  1
  Li  Li9  1  0.09670600  0.59877000  0.72222200  1
  Li  Li10  1  0.49588600  0.40123000  0.72222200  1
  Li  Li11  1  0.89497600  0.20396100  0.72222200  1
  Li  Li12  1  0.21613500  0.79603900  0.68518500  1
  Li  Li13  1  0.61522500  0.59877000  0.68518500  1
  Li  Li14  1  0.01440500  0.40123000  0.68518500  1
  Li  Li15  1  0.41349400  0.20396100  0.68518500  1
  Li  Li16  1  0.73465400  0.79603900  0.64814800  1
  Li  Li17  1  0.13374300  0.59877000  0.64814800  1
  Li  Li18  1  0.53292300  0.40123000  0.64814800  1
  Li  Li19  1  0.93201300  0.20396100  0.64814800  1
  Li  Li20  1  0.25317200  0.79603900  0.61111100  1
  Li  Li21  1  0.65226200  0.59877000  0.61111100  1
  Li  Li22  1  0.05144200  0.40123000  0.61111100  1
  Li  Li23  1  0.45053100  0.20396100  0.61111100  1
  Li  Li24  1  0.77169100  0.79603900  0.57407400  1
  Li  Li25  1  0.17078000  0.59877000  0.57407400  1
  Li  Li26  1  0.56996000  0.40123000  0.57407400  1
  Li  Li27  1  0.96905000  0.20396100  0.57407400  1
  Li  Li28  1  0.29020900  0.79603900  0.53703700  1
  Li  Li29  1  0.68929900  0.59877000  0.53703700  1
  Li  Li30  1  0.08847900  0.40123000  0.53703700  1
  Li  Li31  1  0.48756800  0.20396100  0.53703700  1
  Li  Li32  1  0.80872800  0.79603900  0.50000000  1
  Li  Li33  1  0.20781800  0.59877000  0.50000000  1
  Li  Li34  1  0.60699700  0.40123000  0.50000000  1
  Li  Li35  1  0.00608700  0.20396100  0.50000000  1
  Li  Li36  1  0.32724600  0.79603900  0.46296300  1
  Li  Li37  1  0.72633600  0.59877000  0.46296300  1
  Li  Li38  1  0.12551600  0.40123000  0.46296300  1
  Li  Li39  1  0.52460500  0.20396100  0.46296300  1
  Li  Li40  1  0.84576500  0.79603900  0.42592600  1
  Li  Li41  1  0.24485500  0.59877000  0.42592600  1
  Li  Li42  1  0.64403400  0.40123000  0.42592600  1
  Li  Li43  1  0.04312400  0.20396100  0.42592600  1
  Li  Li44  1  0.36428300  0.79603900  0.38888900  1
  Li  Li45  1  0.76337300  0.59877000  0.38888900  1
  Li  Li46  1  0.16255300  0.40123000  0.38888900  1
  Li  Li47  1  0.56164300  0.20396100  0.38888900  1
  Li  Li48  1  0.88280200  0.79603900  0.35185200  1
  Li  Li49  1  0.28189200  0.59877000  0.35185200  1
  Li  Li50  1  0.68107100  0.40123000  0.35185200  1
  Li  Li51  1  0.08016100  0.20396100  0.35185200  1
  Li  Li52  1  0.40132000  0.79603900  0.31481500  1
  Li  Li53  1  0.80041000  0.59877000  0.31481500  1
  Li  Li54  1  0.19959000  0.40123000  0.31481500  1
  Li  Li55  1  0.59868000  0.20396100  0.31481500  1
  Li  Li56  1  0.91983900  0.79603900  0.27777800  1
  Li  Li57  1  0.31892900  0.59877000  0.27777800  1
  Li  Li58  1  0.71810800  0.40123000  0.27777800  1
  Li  Li59  1  0.11719800  0.20396100  0.27777800  1
  Li  Li60  1  0.43835700  0.79603900  0.24074100  1
  Li  Li61  1  0.83744700  0.59877000  0.24074100  1
  Li  Li62  1  0.23662700  0.40123000  0.24074100  1
  Li  Li63  1  0.63571700  0.20396100  0.24074100  1
  Li  Li64  1  0.95687600  0.79603900  0.20370400  1
  Li  Li65  1  0.35596600  0.59877000  0.20370400  1
  Li  Li66  1  0.75514500  0.40123000  0.20370400  1
  Li  Li67  1  0.15423500  0.20396100  0.20370400  1
  Mg  Mg68  1  0.25925900  0.00000000  0.79629600  1
  Mg  Mg69  1  0.77777800  1.00000000  0.75925900  1
  Mg  Mg70  1  0.29629600  1.00000000  0.72222200  1
  Mg  Mg71  1  0.81481500  1.00000000  0.68518500  1
  Mg  Mg72  1  0.33333300  0.00000000  0.64814800  1
  Mg  Mg73  1  0.85185200  1.00000000  0.61111100  1
  Mg  Mg74  1  0.37037000  1.00000000  0.57407400  1
  Mg  Mg75  1  0.88888900  1.00000000  0.53703700  1
  Mg  Mg76  1  0.40740700  0.00000000  0.50000000  1
  Mg  Mg77  1  0.92592600  1.00000000  0.46296300  1
  Mg  Mg78  1  0.44444400  1.00000000  0.42592600  1
  Mg  Mg79  1  0.96296300  1.00000000  0.38888900  1
  Mg  Mg80  1  0.48148100  1.00000000  0.35185200  1
  Mg  Mg81  1  1.00000000  1.00000000  0.31481500  1
  Mg  Mg82  1  0.51851900  1.00000000  0.27777800  1
  Mg  Mg83  1  0.03703700  0.00000000  0.24074100  1
  Mg  Mg84  1  0.55555600  0.00000000  0.20370400  1
