# generated using pymatgen
data_Mg2Hg
_symmetry_space_group_name_H-M   'P 1'
_cell_length_a   6.40514000
_cell_length_b   9.83847238
_cell_length_c   45.98578800
_cell_angle_alpha   84.71414465
_cell_angle_beta   90.00000000
_cell_angle_gamma   90.00000000
_symmetry_Int_Tables_number   1
_chemical_formula_structural   Mg2Hg
_chemical_formula_sum   'Mg56 Hg28'
_cell_volume   2885.55357962
_cell_formula_units_Z   28
loop_
 _symmetry_equiv_pos_site_id
 _symmetry_equiv_pos_as_xyz
  1  'x, y, z'
loop_
 _atom_site_type_symbol
 _atom_site_label
 _atom_site_symmetry_multiplicity
 _atom_site_fract_x
 _atom_site_fract_y
 _atom_site_fract_z
 _atom_site_occupancy
  Mg  Mg0  1  0.46739600  0.94924100  0.26922300  1
  Mg  Mg1  1  0.53260400  0.77803100  0.18532200  1
  Mg  Mg2  1  0.96739600  0.27803100  0.18532200  1
  Mg  Mg3  1  0.03260400  0.44924100  0.26922300  1
  Mg  Mg4  1  0.67749800  0.25037800  0.24436500  1
  Mg  Mg5  1  0.32250200  0.47689500  0.21018000  1
  Mg  Mg6  1  0.17749800  0.97689500  0.21018000  1
  Mg  Mg7  1  0.82250200  0.75037800  0.24436500  1
  Mg  Mg8  1  0.46739600  0.67651400  0.36013200  1
  Mg  Mg9  1  0.53260400  0.50530400  0.27623100  1
  Mg  Mg10  1  0.96739600  0.00530400  0.27623100  1
  Mg  Mg11  1  0.03260400  0.17651400  0.36013200  1
  Mg  Mg12  1  0.67749800  0.97765100  0.33527500  1
  Mg  Mg13  1  0.32250200  0.20416700  0.30108900  1
  Mg  Mg14  1  0.17749800  0.70416700  0.30108900  1
  Mg  Mg15  1  0.82250200  0.47765100  0.33527500  1
  Mg  Mg16  1  0.46739600  0.40378700  0.45104200  1
  Mg  Mg17  1  0.53260400  0.23257700  0.36714000  1
  Mg  Mg18  1  0.96739600  0.73257700  0.36714000  1
  Mg  Mg19  1  0.03260400  0.90378700  0.45104200  1
  Mg  Mg20  1  0.67749800  0.70492400  0.42618400  1
  Mg  Mg21  1  0.32250200  0.93144000  0.39199800  1
  Mg  Mg22  1  0.17749800  0.43144000  0.39199800  1
  Mg  Mg23  1  0.82250200  0.20492400  0.42618400  1
  Mg  Mg24  1  0.46739600  0.13106000  0.54195100  1
  Mg  Mg25  1  0.53260400  0.95985000  0.45804900  1
  Mg  Mg26  1  0.96739600  0.45985000  0.45804900  1
  Mg  Mg27  1  0.03260400  0.63106000  0.54195100  1
  Mg  Mg28  1  0.67749800  0.43219600  0.51709300  1
  Mg  Mg29  1  0.32250200  0.65871300  0.48290700  1
  Mg  Mg30  1  0.17749800  0.15871300  0.48290700  1
  Mg  Mg31  1  0.82250200  0.93219600  0.51709300  1
  Mg  Mg32  1  0.46739600  0.85833200  0.63286000  1
  Mg  Mg33  1  0.53260400  0.68712200  0.54895800  1
  Mg  Mg34  1  0.96739600  0.18712200  0.54895800  1
  Mg  Mg35  1  0.03260400  0.35833200  0.63286000  1
  Mg  Mg36  1  0.67749800  0.15946900  0.60800200  1
  Mg  Mg37  1  0.32250200  0.38598500  0.57381600  1
  Mg  Mg38  1  0.17749800  0.88598500  0.57381600  1
  Mg  Mg39  1  0.82250200  0.65946900  0.60800200  1
  Mg  Mg40  1  0.46739600  0.58560500  0.72376900  1
  Mg  Mg41  1  0.53260400  0.41439500  0.63986800  1
  Mg  Mg42  1  0.96739600  0.91439500  0.63986800  1
  Mg  Mg43  1  0.03260400  0.08560500  0.72376900  1
  Mg  Mg44  1  0.67749800  0.88674200  0.69891100  1
  Mg  Mg45  1  0.32250200  0.11325800  0.66472500  1
  Mg  Mg46  1  0.17749800  0.61325800  0.66472500  1
  Mg  Mg47  1  0.82250200  0.38674200  0.69891100  1
  Mg  Mg48  1  0.46739600  0.31287800  0.81467800  1
  Mg  Mg49  1  0.53260400  0.14166800  0.73077700  1
  Mg  Mg50  1  0.96739600  0.64166800  0.73077700  1
  Mg  Mg51  1  0.03260400  0.81287800  0.81467800  1
  Mg  Mg52  1  0.67749800  0.61401500  0.78982000  1
  Mg  Mg53  1  0.32250200  0.84053100  0.75563500  1
  Mg  Mg54  1  0.17749800  0.34053100  0.75563500  1
  Mg  Mg55  1  0.82250200  0.11401500  0.78982000  1
  Hg  Hg56  1  0.27973800  0.71657300  0.24014000  1
  Hg  Hg57  1  0.72026200  0.01070000  0.21440600  1
  Hg  Hg58  1  0.77973800  0.51070000  0.21440600  1
  Hg  Hg59  1  0.22026200  0.21657300  0.24014000  1
  Hg  Hg60  1  0.27973800  0.44384600  0.33104900  1
  Hg  Hg61  1  0.72026200  0.73797200  0.30531500  1
  Hg  Hg62  1  0.77973800  0.23797200  0.30531500  1
  Hg  Hg63  1  0.22026200  0.94384600  0.33104900  1
  Hg  Hg64  1  0.27973800  0.17111900  0.42195800  1
  Hg  Hg65  1  0.72026200  0.46524500  0.39622400  1
  Hg  Hg66  1  0.77973800  0.96524500  0.39622400  1
  Hg  Hg67  1  0.22026200  0.67111900  0.42195800  1
  Hg  Hg68  1  0.27973800  0.89839100  0.51286700  1
  Hg  Hg69  1  0.72026200  0.19251800  0.48713300  1
  Hg  Hg70  1  0.77973800  0.69251800  0.48713300  1
  Hg  Hg71  1  0.22026200  0.39839100  0.51286700  1
  Hg  Hg72  1  0.27973800  0.62566400  0.60377600  1
  Hg  Hg73  1  0.72026200  0.91979100  0.57804200  1
  Hg  Hg74  1  0.77973800  0.41979100  0.57804200  1
  Hg  Hg75  1  0.22026200  0.12566400  0.60377600  1
  Hg  Hg76  1  0.27973800  0.35293700  0.69468500  1
  Hg  Hg77  1  0.72026200  0.64706300  0.66895100  1
  Hg  Hg78  1  0.77973800  0.14706300  0.66895100  1
  Hg  Hg79  1  0.22026200  0.85293700  0.69468500  1
  Hg  Hg80  1  0.27973800  0.08020900  0.78559400  1
  Hg  Hg81  1  0.72026200  0.37433600  0.75986000  1
  Hg  Hg82  1  0.77973800  0.87433600  0.75986000  1
  Hg  Hg83  1  0.22026200  0.58020900  0.78559400  1
