# generated using pymatgen
data_Yb3Mg
_symmetry_space_group_name_H-M   'P 1'
_cell_length_a   5.99982500
_cell_length_b   7.34873287
_cell_length_c   44.70059500
_cell_angle_alpha   94.71500301
_cell_angle_beta   90.00000000
_cell_angle_gamma   90.00000000
_symmetry_Int_Tables_number   1
_chemical_formula_structural   Yb3Mg
_chemical_formula_sum   'Yb24 Mg8'
_cell_volume   1964.22917931
_cell_formula_units_Z   8
loop_
 _symmetry_equiv_pos_site_id
 _symmetry_equiv_pos_as_xyz
  1  'x, y, z'
loop_
 _atom_site_type_symbol
 _atom_site_label
 _atom_site_symmetry_multiplicity
 _atom_site_fract_x
 _atom_site_fract_y
 _atom_site_fract_z
 _atom_site_occupancy
  Yb  Yb0  1  0.75000000  0.02431100  0.26290700  1
  Yb  Yb1  1  0.75000000  0.30401200  0.33283200  1
  Yb  Yb2  1  0.75000000  0.81453500  0.33283200  1
  Yb  Yb3  1  0.25000000  0.75689400  0.23859600  1
  Yb  Yb4  1  0.25000000  0.26741700  0.23859600  1
  Yb  Yb5  1  0.25000000  0.54711800  0.30852200  1
  Yb  Yb6  1  0.75000000  0.59573900  0.40576400  1
  Yb  Yb7  1  0.75000000  0.87544000  0.47568900  1
  Yb  Yb8  1  0.75000000  0.38596300  0.47568900  1
  Yb  Yb9  1  0.25000000  0.32832200  0.38145300  1
  Yb  Yb10  1  0.25000000  0.83884500  0.38145300  1
  Yb  Yb11  1  0.25000000  0.11854700  0.45137900  1
  Yb  Yb12  1  0.75000000  0.16716800  0.54862100  1
  Yb  Yb13  1  0.75000000  0.44686900  0.61854700  1
  Yb  Yb14  1  0.75000000  0.95739200  0.61854700  1
  Yb  Yb15  1  0.25000000  0.89975100  0.52431100  1
  Yb  Yb16  1  0.25000000  0.41027400  0.52431100  1
  Yb  Yb17  1  0.25000000  0.68997500  0.59423600  1
  Yb  Yb18  1  0.75000000  0.73859600  0.69147800  1
  Yb  Yb19  1  0.75000000  0.01829700  0.76140400  1
  Yb  Yb20  1  0.75000000  0.52882000  0.76140400  1
  Yb  Yb21  1  0.25000000  0.47118000  0.66716800  1
  Yb  Yb22  1  0.25000000  0.98170300  0.66716800  1
  Yb  Yb23  1  0.25000000  0.26140400  0.73709300  1
  Mg  Mg24  1  0.75000000  0.52381000  0.26190500  1
  Mg  Mg25  1  0.25000000  0.04761900  0.30952400  1
  Mg  Mg26  1  0.75000000  0.09523800  0.40476200  1
  Mg  Mg27  1  0.25000000  0.61904800  0.45238100  1
  Mg  Mg28  1  0.75000000  0.66666700  0.54761900  1
  Mg  Mg29  1  0.25000000  0.19047600  0.59523800  1
  Mg  Mg30  1  0.75000000  0.23809500  0.69047600  1
  Mg  Mg31  1  0.25000000  0.76190500  0.73809500  1
