# generated using pymatgen
data_Mg110Zn181
_symmetry_space_group_name_H-M   'P 1'
_cell_length_a   15.05205970
_cell_length_b   15.53344962
_cell_length_c   44.08704400
_cell_angle_alpha   96.16286714
_cell_angle_beta   84.01794547
_cell_angle_gamma   68.44884142
_symmetry_Int_Tables_number   1
_chemical_formula_structural   Mg110Zn181
_chemical_formula_sum   'Mg110 Zn181'
_cell_volume   9416.24976546
_cell_formula_units_Z   1
loop_
 _symmetry_equiv_pos_site_id
 _symmetry_equiv_pos_as_xyz
  1  'x, y, z'
loop_
 _atom_site_type_symbol
 _atom_site_label
 _atom_site_symmetry_multiplicity
 _atom_site_fract_x
 _atom_site_fract_y
 _atom_site_fract_z
 _atom_site_occupancy
  Mg  Mg0  1  0.16095400  0.37829500  0.29600300  1
  Mg  Mg1  1  0.68516900  0.72307300  0.27967300  1
  Mg  Mg2  1  0.97831400  0.13802300  0.29872500  1
  Mg  Mg3  1  0.67022600  0.07042100  0.30275800  1
  Mg  Mg4  1  0.79941700  0.50433700  0.28516500  1
  Mg  Mg5  1  0.18402800  0.02431900  0.27218400  1
  Mg  Mg6  1  0.47717300  0.43926900  0.29123600  1
  Mg  Mg7  1  0.36292500  0.65800500  0.28574400  1
  Mg  Mg8  1  0.49211600  0.09192100  0.26815100  1
  Mg  Mg9  1  0.00138800  0.78404700  0.27490600  1
  Mg  Mg10  1  0.90767800  0.25885200  0.36295600  1
  Mg  Mg11  1  0.26095400  0.47829500  0.39600300  1
  Mg  Mg12  1  0.78516900  0.82307300  0.37967300  1
  Mg  Mg13  1  0.07831400  0.23802300  0.39872500  1
  Mg  Mg14  1  0.11538200  0.54390800  0.35034700  1
  Mg  Mg15  1  0.77022600  0.17042100  0.40275800  1
  Mg  Mg16  1  0.89941700  0.60433700  0.38516500  1
  Mg  Mg17  1  0.28402800  0.12431900  0.37218400  1
  Mg  Mg18  1  0.79556600  0.47601900  0.35648600  1
  Mg  Mg19  1  0.14696000  0.71843400  0.32056300  1
  Mg  Mg20  1  0.57717300  0.53926900  0.39123600  1
  Mg  Mg21  1  0.46677600  0.78632400  0.31442300  1
  Mg  Mg22  1  0.13309000  0.21456900  0.32376400  1
  Mg  Mg23  1  0.78561500  0.85284700  0.30830200  1
  Mg  Mg24  1  0.47672700  0.40949500  0.36260700  1
  Mg  Mg25  1  0.46292500  0.75800500  0.38574400  1
  Mg  Mg26  1  0.35466400  0.00349000  0.30795300  1
  Mg  Mg27  1  0.59211600  0.19192100  0.36815100  1
  Mg  Mg28  1  0.10138800  0.88404700  0.37490600  1
  Mg  Mg29  1  0.12925200  0.04777300  0.34714500  1
  Mg  Mg30  1  0.00767800  0.35885200  0.46295600  1
  Mg  Mg31  1  0.36095400  0.57829500  0.49600300  1
  Mg  Mg32  1  0.88516900  0.92307300  0.47967300  1
  Mg  Mg33  1  0.17831400  0.33802300  0.49872500  1
  Mg  Mg34  1  0.21538200  0.64390800  0.45034700  1
  Mg  Mg35  1  0.87022600  0.27042100  0.50275800  1
  Mg  Mg36  1  0.99941700  0.70433700  0.48516500  1
  Mg  Mg37  1  0.38402800  0.22431900  0.47218400  1
  Mg  Mg38  1  0.89556600  0.57601900  0.45648600  1
  Mg  Mg39  1  0.24696000  0.81843400  0.42056300  1
  Mg  Mg40  1  0.67717300  0.63926900  0.49123600  1
  Mg  Mg41  1  0.56677600  0.88632400  0.41442300  1
  Mg  Mg42  1  0.23309000  0.31456900  0.42376400  1
  Mg  Mg43  1  0.88561500  0.95284700  0.40830200  1
  Mg  Mg44  1  0.57672700  0.50949500  0.46260700  1
  Mg  Mg45  1  0.56292500  0.85800500  0.48574400  1
  Mg  Mg46  1  0.45466400  0.10349000  0.40795300  1
  Mg  Mg47  1  0.69211600  0.29192100  0.46815100  1
  Mg  Mg48  1  0.20138800  0.98404700  0.47490600  1
  Mg  Mg49  1  0.22925200  0.14777300  0.44714500  1
  Mg  Mg50  1  0.10767800  0.45885200  0.56295600  1
  Mg  Mg51  1  0.46095400  0.67829500  0.59600300  1
  Mg  Mg52  1  0.98516900  0.02307300  0.57967300  1
  Mg  Mg53  1  0.27831400  0.43802300  0.59872500  1
  Mg  Mg54  1  0.31538200  0.74390800  0.55034700  1
  Mg  Mg55  1  0.97022600  0.37042100  0.60275800  1
  Mg  Mg56  1  0.09941700  0.80433700  0.58516500  1
  Mg  Mg57  1  0.48402800  0.32431900  0.57218400  1
  Mg  Mg58  1  0.99556600  0.67601900  0.55648600  1
  Mg  Mg59  1  0.34696000  0.91843400  0.52056300  1
  Mg  Mg60  1  0.77717300  0.73926900  0.59123600  1
  Mg  Mg61  1  0.66677600  0.98632400  0.51442300  1
  Mg  Mg62  1  0.33309000  0.41456900  0.52376400  1
  Mg  Mg63  1  0.98561500  0.05284700  0.50830200  1
  Mg  Mg64  1  0.67672700  0.60949500  0.56260700  1
  Mg  Mg65  1  0.66292500  0.95800500  0.58574400  1
  Mg  Mg66  1  0.55466400  0.20349000  0.50795300  1
  Mg  Mg67  1  0.79211600  0.39192100  0.56815100  1
  Mg  Mg68  1  0.30138800  0.08404700  0.57490600  1
  Mg  Mg69  1  0.32925200  0.24777300  0.54714500  1
  Mg  Mg70  1  0.20767800  0.55885200  0.66295600  1
  Mg  Mg71  1  0.56095400  0.77829500  0.69600300  1
  Mg  Mg72  1  0.08516900  0.12307300  0.67967300  1
  Mg  Mg73  1  0.37831400  0.53802300  0.69872500  1
  Mg  Mg74  1  0.41538200  0.84390800  0.65034700  1
  Mg  Mg75  1  0.07022600  0.47042100  0.70275800  1
  Mg  Mg76  1  0.19941700  0.90433700  0.68516500  1
  Mg  Mg77  1  0.58402800  0.42431900  0.67218400  1
  Mg  Mg78  1  0.09556600  0.77601900  0.65648600  1
  Mg  Mg79  1  0.44696000  0.01843400  0.62056300  1
  Mg  Mg80  1  0.87717300  0.83926900  0.69123600  1
  Mg  Mg81  1  0.76677600  0.08632400  0.61442300  1
  Mg  Mg82  1  0.43309000  0.51456900  0.62376400  1
  Mg  Mg83  1  0.08561500  0.15284700  0.60830200  1
  Mg  Mg84  1  0.77672700  0.70949500  0.66260700  1
  Mg  Mg85  1  0.76292500  0.05800500  0.68574400  1
  Mg  Mg86  1  0.65466400  0.30349000  0.60795300  1
  Mg  Mg87  1  0.89211600  0.49192100  0.66815100  1
  Mg  Mg88  1  0.40138800  0.18404700  0.67490600  1
  Mg  Mg89  1  0.42925200  0.34777300  0.64714500  1
  Mg  Mg90  1  0.30767800  0.65885200  0.76295600  1
  Mg  Mg91  1  0.66095400  0.87829500  0.79600300  1
  Mg  Mg92  1  0.18516900  0.22307300  0.77967300  1
  Mg  Mg93  1  0.47831400  0.63802300  0.79872500  1
  Mg  Mg94  1  0.51538200  0.94390800  0.75034700  1
  Mg  Mg95  1  0.17022600  0.57042100  0.80275800  1
  Mg  Mg96  1  0.29941700  0.00433700  0.78516500  1
  Mg  Mg97  1  0.68402800  0.52431900  0.77218400  1
  Mg  Mg98  1  0.19556600  0.87601900  0.75648600  1
  Mg  Mg99  1  0.54696000  0.11843400  0.72056300  1
  Mg  Mg100  1  0.97717300  0.93926900  0.79123600  1
  Mg  Mg101  1  0.86677600  0.18632400  0.71442300  1
  Mg  Mg102  1  0.53309000  0.61456900  0.72376400  1
  Mg  Mg103  1  0.18561500  0.25284700  0.70830200  1
  Mg  Mg104  1  0.87672700  0.80949500  0.76260700  1
  Mg  Mg105  1  0.86292500  0.15800500  0.78574400  1
  Mg  Mg106  1  0.75466400  0.40349000  0.70795300  1
  Mg  Mg107  1  0.99211600  0.59192100  0.76815100  1
  Mg  Mg108  1  0.50138800  0.28404700  0.77490600  1
  Mg  Mg109  1  0.52925200  0.44777300  0.74714500  1
  Zn  Zn110  1  0.58117100  0.58117100  0.28545500  1
  Zn  Zn111  1  0.89622600  0.65204500  0.27945100  1
  Zn  Zn112  1  0.26611600  0.51029700  0.29145800  1
  Zn  Zn113  1  0.88782700  0.99905100  0.30117300  1
  Zn  Zn114  1  0.27451500  0.16329100  0.26973600  1
  Zn  Zn115  1  0.08117100  0.58117100  0.28545500  1
  Zn  Zn116  1  0.96181400  0.52031900  0.31689300  1
  Zn  Zn117  1  0.19323100  0.34008600  0.36175700  1
  Zn  Zn118  1  0.63435800  0.45791700  0.32505300  1
  Zn  Zn119  1  0.30396300  0.91092100  0.36351500  1
  Zn  Zn120  1  0.31514400  0.55981400  0.34086200  1
  Zn  Zn121  1  0.01137900  0.40155000  0.35630200  1
  Zn  Zn122  1  0.68117100  0.68117100  0.38545500  1
  Zn  Zn123  1  0.30052800  0.74202300  0.35401600  1
  Zn  Zn124  1  0.48626500  0.24839100  0.31558100  1
  Zn  Zn125  1  0.99622600  0.75204500  0.37945100  1
  Zn  Zn126  1  0.63952000  0.28417000  0.31293000  1
  Zn  Zn127  1  0.78739400  0.16538500  0.33286500  1
  Zn  Zn128  1  0.79135300  0.66201200  0.33269500  1
  Zn  Zn129  1  0.94598000  0.86953900  0.34144500  1
  Zn  Zn130  1  0.06911100  0.92225600  0.30915200  1
  Zn  Zn131  1  0.77607700  0.01395100  0.35532800  1
  Zn  Zn132  1  0.93710400  0.04915100  0.35309100  1
  Zn  Zn133  1  0.36611600  0.61029700  0.39145800  1
  Zn  Zn134  1  0.25096300  0.86079200  0.31460700  1
  Zn  Zn135  1  0.47098900  0.60033000  0.33821400  1
  Zn  Zn136  1  0.32523800  0.21319100  0.31781800  1
  Zn  Zn137  1  0.94719900  0.70252800  0.33004700  1
  Zn  Zn138  1  0.63117100  0.63117100  0.33545500  1
  Zn  Zn139  1  0.80162600  0.31996300  0.30878500  1
  Zn  Zn140  1  0.68870000  0.33432900  0.36361500  1
  Zn  Zn141  1  0.98782700  0.09905100  0.40117300  1
  Zn  Zn142  1  0.46071600  0.94237900  0.36212500  1
  Zn  Zn143  1  0.37451500  0.26329100  0.36973600  1
  Zn  Zn144  1  0.31636200  0.39280300  0.32946400  1
  Zn  Zn145  1  0.57364200  0.92801300  0.30729400  1
  Zn  Zn146  1  0.95837900  0.35142100  0.30739400  1
  Zn  Zn147  1  0.18117100  0.68117100  0.38545500  1
  Zn  Zn148  1  0.62282200  0.97817200  0.35797900  1
  Zn  Zn149  1  0.47494800  0.09695700  0.33804400  1
  Zn  Zn150  1  0.62798400  0.80442500  0.34585600  1
  Zn  Zn151  1  0.06181400  0.62031900  0.41689300  1
  Zn  Zn152  1  0.29323100  0.44008600  0.46175700  1
  Zn  Zn153  1  0.73435800  0.55791700  0.42505300  1
  Zn  Zn154  1  0.40396300  0.01092100  0.46351500  1
  Zn  Zn155  1  0.41514400  0.65981400  0.44086200  1
  Zn  Zn156  1  0.11137900  0.50155000  0.45630200  1
  Zn  Zn157  1  0.78117100  0.78117100  0.48545500  1
  Zn  Zn158  1  0.40052800  0.84202300  0.45401600  1
  Zn  Zn159  1  0.58626500  0.34839100  0.41558100  1
  Zn  Zn160  1  0.09622600  0.85204500  0.47945100  1
  Zn  Zn161  1  0.73952000  0.38417000  0.41293000  1
  Zn  Zn162  1  0.88739400  0.26538500  0.43286500  1
  Zn  Zn163  1  0.89135300  0.76201200  0.43269500  1
  Zn  Zn164  1  0.04598000  0.96953900  0.44144500  1
  Zn  Zn165  1  0.16911100  0.02225600  0.40915200  1
  Zn  Zn166  1  0.87607700  0.11395100  0.45532800  1
  Zn  Zn167  1  0.03710400  0.14915100  0.45309100  1
  Zn  Zn168  1  0.46611600  0.71029700  0.49145800  1
  Zn  Zn169  1  0.35096300  0.96079200  0.41460700  1
  Zn  Zn170  1  0.57098900  0.70033000  0.43821400  1
  Zn  Zn171  1  0.42523800  0.31319100  0.41781800  1
  Zn  Zn172  1  0.04719900  0.80252800  0.43004700  1
  Zn  Zn173  1  0.73117100  0.73117100  0.43545500  1
  Zn  Zn174  1  0.90162600  0.41996300  0.40878500  1
  Zn  Zn175  1  0.78870000  0.43432900  0.46361500  1
  Zn  Zn176  1  0.08782700  0.19905100  0.50117300  1
  Zn  Zn177  1  0.56071600  0.04237900  0.46212500  1
  Zn  Zn178  1  0.47451500  0.36329100  0.46973600  1
  Zn  Zn179  1  0.41636200  0.49280300  0.42946400  1
  Zn  Zn180  1  0.67364200  0.02801300  0.40729400  1
  Zn  Zn181  1  0.05837900  0.45142100  0.40739400  1
  Zn  Zn182  1  0.28117100  0.78117100  0.48545500  1
  Zn  Zn183  1  0.72282200  0.07817200  0.45797900  1
  Zn  Zn184  1  0.57494800  0.19695700  0.43804400  1
  Zn  Zn185  1  0.72798400  0.90442500  0.44585600  1
  Zn  Zn186  1  0.16181400  0.72031900  0.51689300  1
  Zn  Zn187  1  0.39323100  0.54008600  0.56175700  1
  Zn  Zn188  1  0.83435800  0.65791700  0.52505300  1
  Zn  Zn189  1  0.50396300  0.11092100  0.56351500  1
  Zn  Zn190  1  0.51514400  0.75981400  0.54086200  1
  Zn  Zn191  1  0.21137900  0.60155000  0.55630200  1
  Zn  Zn192  1  0.88117100  0.88117100  0.58545500  1
  Zn  Zn193  1  0.50052800  0.94202300  0.55401600  1
  Zn  Zn194  1  0.68626500  0.44839100  0.51558100  1
  Zn  Zn195  1  0.19622600  0.95204500  0.57945100  1
  Zn  Zn196  1  0.83952000  0.48417000  0.51293000  1
  Zn  Zn197  1  0.98739400  0.36538500  0.53286500  1
  Zn  Zn198  1  0.99135300  0.86201200  0.53269500  1
  Zn  Zn199  1  0.14598000  0.06953900  0.54144500  1
  Zn  Zn200  1  0.26911100  0.12225600  0.50915200  1
  Zn  Zn201  1  0.97607700  0.21395100  0.55532800  1
  Zn  Zn202  1  0.13710400  0.24915100  0.55309100  1
  Zn  Zn203  1  0.56611600  0.81029700  0.59145800  1
  Zn  Zn204  1  0.45096300  0.06079200  0.51460700  1
  Zn  Zn205  1  0.67098900  0.80033000  0.53821400  1
  Zn  Zn206  1  0.52523800  0.41319100  0.51781800  1
  Zn  Zn207  1  0.14719900  0.90252800  0.53004700  1
  Zn  Zn208  1  0.83117100  0.83117100  0.53545500  1
  Zn  Zn209  1  0.00162600  0.51996300  0.50878500  1
  Zn  Zn210  1  0.88870000  0.53432900  0.56361500  1
  Zn  Zn211  1  0.18782700  0.29905100  0.60117300  1
  Zn  Zn212  1  0.66071600  0.14237900  0.56212500  1
  Zn  Zn213  1  0.57451500  0.46329100  0.56973600  1
  Zn  Zn214  1  0.51636200  0.59280300  0.52946400  1
  Zn  Zn215  1  0.77364200  0.12801300  0.50729400  1
  Zn  Zn216  1  0.15837900  0.55142100  0.50739400  1
  Zn  Zn217  1  0.38117100  0.88117100  0.58545500  1
  Zn  Zn218  1  0.82282200  0.17817200  0.55797900  1
  Zn  Zn219  1  0.67494800  0.29695700  0.53804400  1
  Zn  Zn220  1  0.82798400  0.00442500  0.54585600  1
  Zn  Zn221  1  0.26181400  0.82031900  0.61689300  1
  Zn  Zn222  1  0.49323100  0.64008600  0.66175700  1
  Zn  Zn223  1  0.93435800  0.75791700  0.62505300  1
  Zn  Zn224  1  0.60396300  0.21092100  0.66351500  1
  Zn  Zn225  1  0.61514400  0.85981400  0.64086200  1
  Zn  Zn226  1  0.31137900  0.70155000  0.65630200  1
  Zn  Zn227  1  0.98117100  0.98117100  0.68545500  1
  Zn  Zn228  1  0.60052800  0.04202300  0.65401600  1
  Zn  Zn229  1  0.78626500  0.54839100  0.61558100  1
  Zn  Zn230  1  0.29622600  0.05204500  0.67945100  1
  Zn  Zn231  1  0.93952000  0.58417000  0.61293000  1
  Zn  Zn232  1  0.08739400  0.46538500  0.63286500  1
  Zn  Zn233  1  0.09135300  0.96201200  0.63269500  1
  Zn  Zn234  1  0.24598000  0.16953900  0.64144500  1
  Zn  Zn235  1  0.36911100  0.22225600  0.60915200  1
  Zn  Zn236  1  0.07607700  0.31395100  0.65532800  1
  Zn  Zn237  1  0.23710400  0.34915100  0.65309100  1
  Zn  Zn238  1  0.66611600  0.91029700  0.69145800  1
  Zn  Zn239  1  0.55096300  0.16079200  0.61460700  1
  Zn  Zn240  1  0.77098900  0.90033000  0.63821400  1
  Zn  Zn241  1  0.62523800  0.51319100  0.61781800  1
  Zn  Zn242  1  0.24719900  0.00252800  0.63004700  1
  Zn  Zn243  1  0.93117100  0.93117100  0.63545500  1
  Zn  Zn244  1  0.10162600  0.61996300  0.60878500  1
  Zn  Zn245  1  0.98870000  0.63432900  0.66361500  1
  Zn  Zn246  1  0.28782700  0.39905100  0.70117300  1
  Zn  Zn247  1  0.76071600  0.24237900  0.66212500  1
  Zn  Zn248  1  0.67451500  0.56329100  0.66973600  1
  Zn  Zn249  1  0.61636200  0.69280300  0.62946400  1
  Zn  Zn250  1  0.87364200  0.22801300  0.60729400  1
  Zn  Zn251  1  0.25837900  0.65142100  0.60739400  1
  Zn  Zn252  1  0.48117100  0.98117100  0.68545500  1
  Zn  Zn253  1  0.92282200  0.27817200  0.65797900  1
  Zn  Zn254  1  0.77494800  0.39695700  0.63804400  1
  Zn  Zn255  1  0.92798400  0.10442500  0.64585600  1
  Zn  Zn256  1  0.36181400  0.92031900  0.71689300  1
  Zn  Zn257  1  0.59323100  0.74008600  0.76175700  1
  Zn  Zn258  1  0.03435800  0.85791700  0.72505300  1
  Zn  Zn259  1  0.70396300  0.31092100  0.76351500  1
  Zn  Zn260  1  0.71514400  0.95981400  0.74086200  1
  Zn  Zn261  1  0.41137900  0.80155000  0.75630200  1
  Zn  Zn262  1  0.08117100  0.08117100  0.78545500  1
  Zn  Zn263  1  0.70052800  0.14202300  0.75401600  1
  Zn  Zn264  1  0.88626500  0.64839100  0.71558100  1
  Zn  Zn265  1  0.39622600  0.15204500  0.77945100  1
  Zn  Zn266  1  0.03952000  0.68417000  0.71293000  1
  Zn  Zn267  1  0.18739400  0.56538500  0.73286500  1
  Zn  Zn268  1  0.19135300  0.06201200  0.73269500  1
  Zn  Zn269  1  0.34598000  0.26953900  0.74144500  1
  Zn  Zn270  1  0.46911100  0.32225600  0.70915200  1
  Zn  Zn271  1  0.17607700  0.41395100  0.75532800  1
  Zn  Zn272  1  0.33710400  0.44915100  0.75309100  1
  Zn  Zn273  1  0.76611600  0.01029700  0.79145800  1
  Zn  Zn274  1  0.65096300  0.26079200  0.71460700  1
  Zn  Zn275  1  0.87098900  0.00033000  0.73821400  1
  Zn  Zn276  1  0.72523800  0.61319100  0.71781800  1
  Zn  Zn277  1  0.34719900  0.10252800  0.73004700  1
  Zn  Zn278  1  0.03117100  0.03117100  0.73545500  1
  Zn  Zn279  1  0.20162600  0.71996300  0.70878500  1
  Zn  Zn280  1  0.08870000  0.73432900  0.76361500  1
  Zn  Zn281  1  0.38782700  0.49905100  0.80117300  1
  Zn  Zn282  1  0.86071600  0.34237900  0.76212500  1
  Zn  Zn283  1  0.77451500  0.66329100  0.76973600  1
  Zn  Zn284  1  0.71636200  0.79280300  0.72946400  1
  Zn  Zn285  1  0.97364200  0.32801300  0.70729400  1
  Zn  Zn286  1  0.35837900  0.75142100  0.70739400  1
  Zn  Zn287  1  0.58117100  0.08117100  0.78545500  1
  Zn  Zn288  1  0.02282200  0.37817200  0.75797900  1
  Zn  Zn289  1  0.87494800  0.49695700  0.73804400  1
  Zn  Zn290  1  0.02798400  0.20442500  0.74585600  1
