# generated using pymatgen
data_Mg59Zn104
_symmetry_space_group_name_H-M   'P 1'
_cell_length_a   13.26606221
_cell_length_b   15.53344873
_cell_length_c   48.04736100
_cell_angle_alpha   89.05057746
_cell_angle_beta   95.72936823
_cell_angle_gamma   107.07914806
_symmetry_Int_Tables_number   1
_chemical_formula_structural   Mg59Zn104
_chemical_formula_sum   'Mg118 Zn208'
_cell_volume   9416.24909417
_cell_formula_units_Z   2
loop_
 _symmetry_equiv_pos_site_id
 _symmetry_equiv_pos_as_xyz
  1  'x, y, z'
loop_
 _atom_site_type_symbol
 _atom_site_label
 _atom_site_symmetry_multiplicity
 _atom_site_fract_x
 _atom_site_fract_y
 _atom_site_fract_z
 _atom_site_occupancy
  Mg  Mg0  1  0.74900600  0.94482500  0.24396200  1
  Mg  Mg1  1  0.06923400  0.79335900  0.27889100  1
  Mg  Mg2  1  0.60977900  0.39452700  0.24116700  1
  Mg  Mg3  1  0.88387300  0.05216700  0.29470600  1
  Mg  Mg4  1  0.96931900  0.63773700  0.23454000  1
  Mg  Mg5  1  0.57175100  0.05098100  0.22188500  1
  Mg  Mg6  1  0.71853500  0.60238600  0.22479900  1
  Mg  Mg7  1  0.11612700  0.14264500  0.29802100  1
  Mg  Mg8  1  0.64336400  0.73822200  0.26099500  1
  Mg  Mg9  1  0.03068100  0.45707500  0.25818700  1
  Mg  Mg10  1  0.39022100  0.70028600  0.25156000  1
  Mg  Mg11  1  0.35663600  0.35659000  0.23173200  1
  Mg  Mg12  1  0.01360900  0.96264700  0.25669300  1
  Mg  Mg13  1  0.68159700  0.25757000  0.20535700  1
  Mg  Mg14  1  0.31840300  0.83724200  0.28737100  1
  Mg  Mg15  1  0.28146500  0.49242600  0.26792800  1
  Mg  Mg16  1  0.25099400  0.14998800  0.24876600  1
  Mg  Mg17  1  0.42824900  0.04383100  0.27084200  1
  Mg  Mg18  1  0.93076600  0.30145300  0.21383600  1
  Mg  Mg19  1  0.98639100  0.13216500  0.23603400  1
  Mg  Mg20  1  0.74900600  0.04482500  0.34396200  1
  Mg  Mg21  1  0.06923400  0.89335900  0.37889100  1
  Mg  Mg22  1  0.60977900  0.49452700  0.34116700  1
  Mg  Mg23  1  0.88387300  0.15216700  0.39470600  1
  Mg  Mg24  1  0.96931900  0.73773700  0.33454000  1
  Mg  Mg25  1  0.57175100  0.15098100  0.32188500  1
  Mg  Mg26  1  0.71853500  0.70238600  0.32479900  1
  Mg  Mg27  1  0.11612700  0.24264500  0.39802100  1
  Mg  Mg28  1  0.64336400  0.83822200  0.36099500  1
  Mg  Mg29  1  0.03068100  0.55707500  0.35818700  1
  Mg  Mg30  1  0.39022100  0.80028600  0.35156000  1
  Mg  Mg31  1  0.35663600  0.45659000  0.33173200  1
  Mg  Mg32  1  0.01360900  0.06264700  0.35669300  1
  Mg  Mg33  1  0.68159700  0.35757000  0.30535700  1
  Mg  Mg34  1  0.31840300  0.93724200  0.38737100  1
  Mg  Mg35  1  0.28146500  0.59242600  0.36792800  1
  Mg  Mg36  1  0.25099400  0.24998800  0.34876600  1
  Mg  Mg37  1  0.42824900  0.14383100  0.37084200  1
  Mg  Mg38  1  0.93076600  0.40145300  0.31383600  1
  Mg  Mg39  1  0.98639100  0.23216500  0.33603400  1
  Mg  Mg40  1  0.74900600  0.14482500  0.44396200  1
  Mg  Mg41  1  0.06923400  0.99335900  0.47889100  1
  Mg  Mg42  1  0.60977900  0.59452700  0.44116700  1
  Mg  Mg43  1  0.88387300  0.25216700  0.49470600  1
  Mg  Mg44  1  0.96931900  0.83773700  0.43454000  1
  Mg  Mg45  1  0.57175100  0.25098100  0.42188500  1
  Mg  Mg46  1  0.71853500  0.80238600  0.42479900  1
  Mg  Mg47  1  0.11612700  0.34264500  0.49802100  1
  Mg  Mg48  1  0.64336400  0.93822200  0.46099500  1
  Mg  Mg49  1  0.03068100  0.65707500  0.45818700  1
  Mg  Mg50  1  0.39022100  0.90028600  0.45156000  1
  Mg  Mg51  1  0.35663600  0.55659000  0.43173200  1
  Mg  Mg52  1  0.01360900  0.16264700  0.45669300  1
  Mg  Mg53  1  0.68159700  0.45757000  0.40535700  1
  Mg  Mg54  1  0.31840300  0.03724200  0.48737100  1
  Mg  Mg55  1  0.28146500  0.69242600  0.46792800  1
  Mg  Mg56  1  0.25099400  0.34998800  0.44876600  1
  Mg  Mg57  1  0.42824900  0.24383100  0.47084200  1
  Mg  Mg58  1  0.93076600  0.50145300  0.41383600  1
  Mg  Mg59  1  0.98639100  0.33216500  0.43603400  1
  Mg  Mg60  1  0.74900600  0.24482500  0.54396200  1
  Mg  Mg61  1  0.06923400  0.09335900  0.57889100  1
  Mg  Mg62  1  0.60977900  0.69452700  0.54116700  1
  Mg  Mg63  1  0.88387300  0.35216700  0.59470600  1
  Mg  Mg64  1  0.96931900  0.93773700  0.53454000  1
  Mg  Mg65  1  0.57175100  0.35098100  0.52188500  1
  Mg  Mg66  1  0.71853500  0.90238600  0.52479900  1
  Mg  Mg67  1  0.11612700  0.44264500  0.59802100  1
  Mg  Mg68  1  0.64336400  0.03822200  0.56099500  1
  Mg  Mg69  1  0.03068100  0.75707500  0.55818700  1
  Mg  Mg70  1  0.39022100  0.00028600  0.55156000  1
  Mg  Mg71  1  0.35663600  0.65659000  0.53173200  1
  Mg  Mg72  1  0.01360900  0.26264700  0.55669300  1
  Mg  Mg73  1  0.68159700  0.55757000  0.50535700  1
  Mg  Mg74  1  0.31840300  0.13724200  0.58737100  1
  Mg  Mg75  1  0.28146500  0.79242600  0.56792800  1
  Mg  Mg76  1  0.25099400  0.44998800  0.54876600  1
  Mg  Mg77  1  0.42824900  0.34383100  0.57084200  1
  Mg  Mg78  1  0.93076600  0.60145300  0.51383600  1
  Mg  Mg79  1  0.98639100  0.43216500  0.53603400  1
  Mg  Mg80  1  0.74900600  0.34482500  0.64396200  1
  Mg  Mg81  1  0.06923400  0.19335900  0.67889100  1
  Mg  Mg82  1  0.60977900  0.79452700  0.64116700  1
  Mg  Mg83  1  0.88387300  0.45216700  0.69470600  1
  Mg  Mg84  1  0.96931900  0.03773700  0.63454000  1
  Mg  Mg85  1  0.57175100  0.45098100  0.62188500  1
  Mg  Mg86  1  0.71853500  0.00238600  0.62479900  1
  Mg  Mg87  1  0.11612700  0.54264500  0.69802100  1
  Mg  Mg88  1  0.64336400  0.13822200  0.66099500  1
  Mg  Mg89  1  0.03068100  0.85707500  0.65818700  1
  Mg  Mg90  1  0.39022100  0.10028600  0.65156000  1
  Mg  Mg91  1  0.35663600  0.75659000  0.63173200  1
  Mg  Mg92  1  0.01360900  0.36264700  0.65669300  1
  Mg  Mg93  1  0.68159700  0.65757000  0.60535700  1
  Mg  Mg94  1  0.31840300  0.23724200  0.68737100  1
  Mg  Mg95  1  0.28146500  0.89242600  0.66792800  1
  Mg  Mg96  1  0.25099400  0.54998800  0.64876600  1
  Mg  Mg97  1  0.42824900  0.44383100  0.67084200  1
  Mg  Mg98  1  0.93076600  0.70145300  0.61383600  1
  Mg  Mg99  1  0.98639100  0.53216500  0.63603400  1
  Mg  Mg100  1  0.74900600  0.44482500  0.74396200  1
  Mg  Mg101  1  0.06923400  0.29335900  0.77889100  1
  Mg  Mg102  1  0.60977900  0.89452700  0.74116700  1
  Mg  Mg103  1  0.96931900  0.13773700  0.73454000  1
  Mg  Mg104  1  0.57175100  0.55098100  0.72188500  1
  Mg  Mg105  1  0.71853500  0.10238600  0.72479900  1
  Mg  Mg106  1  0.64336400  0.23822200  0.76099500  1
  Mg  Mg107  1  0.03068100  0.95707500  0.75818700  1
  Mg  Mg108  1  0.39022100  0.20028600  0.75156000  1
  Mg  Mg109  1  0.35663600  0.85659000  0.73173200  1
  Mg  Mg110  1  0.01360900  0.46264700  0.75669300  1
  Mg  Mg111  1  0.68159700  0.75757000  0.70535700  1
  Mg  Mg112  1  0.31840300  0.33724200  0.78737100  1
  Mg  Mg113  1  0.28146500  0.99242600  0.76792800  1
  Mg  Mg114  1  0.25099400  0.64998800  0.74876600  1
  Mg  Mg115  1  0.42824900  0.54383100  0.77084200  1
  Mg  Mg116  1  0.93076600  0.80145300  0.71383600  1
  Mg  Mg117  1  0.98639100  0.63216500  0.73603400  1
  Zn  Zn118  1  0.84920500  0.67333700  0.28000500  1
  Zn  Zn119  1  0.03575800  0.83491600  0.21648600  1
  Zn  Zn120  1  0.51358900  0.66930100  0.20540700  1
  Zn  Zn121  1  0.14473200  0.25318300  0.20383000  1
  Zn  Zn122  1  0.17856500  0.60090600  0.22310000  1
  Zn  Zn123  1  0.85936100  0.79109100  0.23958000  1
  Zn  Zn124  1  0.50000000  0.54740600  0.24636400  1
  Zn  Zn125  1  0.15079500  0.42147500  0.21272200  1
  Zn  Zn126  1  0.37496700  0.89268900  0.22874100  1
  Zn  Zn127  1  0.82105800  0.44442600  0.22026100  1
  Zn  Zn128  1  0.53087400  0.84131900  0.21580100  1
  Zn  Zn129  1  0.65881200  0.04731100  0.28307200  1
  Zn  Zn130  1  0.66294100  0.55027100  0.28282900  1
  Zn  Zn131  1  0.80881900  0.32815700  0.25949100  1
  Zn  Zn132  1  0.96424200  0.25989700  0.27624200  1
  Zn  Zn133  1  0.62503300  0.20212300  0.26398700  1
  Zn  Zn134  1  0.78829600  0.15059700  0.24989700  1
  Zn  Zn135  1  0.17894200  0.65038600  0.27246600  1
  Zn  Zn136  1  0.14063900  0.30372100  0.25314700  1
  Zn  Zn137  1  0.33705900  0.54454200  0.20989800  1
  Zn  Zn138  1  0.21170400  0.94421500  0.24283000  1
  Zn  Zn139  1  0.82143500  0.49390600  0.26962700  1
  Zn  Zn140  1  0.50000000  0.59740600  0.29636400  1
  Zn  Zn141  1  0.69712500  0.78890100  0.20332100  1
  Zn  Zn142  1  0.52936800  0.89131100  0.26526600  1
  Zn  Zn143  1  0.79093800  0.10043200  0.20155100  1
  Zn  Zn144  1  0.30287500  0.30591100  0.28940600  1
  Zn  Zn145  1  0.20906200  0.99438000  0.29117600  1
  Zn  Zn146  1  0.19118100  0.76665600  0.23323600  1
  Zn  Zn147  1  0.47063200  0.20350100  0.22746100  1
  Zn  Zn148  1  0.85526800  0.84162900  0.28889700  1
  Zn  Zn149  1  0.00000000  0.59740600  0.29636400  1
  Zn  Zn150  1  0.46912600  0.25349300  0.27692700  1
  Zn  Zn151  1  0.34118800  0.04750100  0.20965500  1
  Zn  Zn152  1  0.48641100  0.42551100  0.28732100  1
  Zn  Zn153  1  0.84920500  0.77333700  0.38000500  1
  Zn  Zn154  1  0.03575800  0.93491600  0.31648600  1
  Zn  Zn155  1  0.51358900  0.76930100  0.30540700  1
  Zn  Zn156  1  0.14473200  0.35318300  0.30383000  1
  Zn  Zn157  1  0.17856500  0.70090600  0.32310000  1
  Zn  Zn158  1  0.85936100  0.89109100  0.33958000  1
  Zn  Zn159  1  0.50000000  0.64740600  0.34636400  1
  Zn  Zn160  1  0.15079500  0.52147500  0.31272200  1
  Zn  Zn161  1  0.37496700  0.99268900  0.32874100  1
  Zn  Zn162  1  0.82105800  0.54442600  0.32026100  1
  Zn  Zn163  1  0.53087400  0.94131900  0.31580100  1
  Zn  Zn164  1  0.65881200  0.14731100  0.38307200  1
  Zn  Zn165  1  0.66294100  0.65027100  0.38282900  1
  Zn  Zn166  1  0.80881900  0.42815700  0.35949100  1
  Zn  Zn167  1  0.96424200  0.35989700  0.37624200  1
  Zn  Zn168  1  0.62503300  0.30212300  0.36398700  1
  Zn  Zn169  1  0.78829600  0.25059700  0.34989700  1
  Zn  Zn170  1  0.17894200  0.75038600  0.37246600  1
  Zn  Zn171  1  0.14063900  0.40372100  0.35314700  1
  Zn  Zn172  1  0.33705900  0.64454200  0.30989800  1
  Zn  Zn173  1  0.21170400  0.04421500  0.34283000  1
  Zn  Zn174  1  0.82143500  0.59390600  0.36962700  1
  Zn  Zn175  1  0.50000000  0.69740600  0.39636400  1
  Zn  Zn176  1  0.69712500  0.88890100  0.30332100  1
  Zn  Zn177  1  0.52936800  0.99131100  0.36526600  1
  Zn  Zn178  1  0.79093800  0.20043200  0.30155100  1
  Zn  Zn179  1  0.30287500  0.40591100  0.38940600  1
  Zn  Zn180  1  0.20906200  0.09438000  0.39117600  1
  Zn  Zn181  1  0.19118100  0.86665600  0.33323600  1
  Zn  Zn182  1  0.47063200  0.30350100  0.32746100  1
  Zn  Zn183  1  0.85526800  0.94162900  0.38889700  1
  Zn  Zn184  1  0.00000000  0.69740600  0.39636400  1
  Zn  Zn185  1  0.46912600  0.35349300  0.37692700  1
  Zn  Zn186  1  0.34118800  0.14750100  0.30965500  1
  Zn  Zn187  1  0.48641100  0.52551100  0.38732100  1
  Zn  Zn188  1  0.84920500  0.87333700  0.48000500  1
  Zn  Zn189  1  0.03575800  0.03491600  0.41648600  1
  Zn  Zn190  1  0.51358900  0.86930100  0.40540700  1
  Zn  Zn191  1  0.14473200  0.45318300  0.40383000  1
  Zn  Zn192  1  0.17856500  0.80090600  0.42310000  1
  Zn  Zn193  1  0.85936100  0.99109100  0.43958000  1
  Zn  Zn194  1  0.50000000  0.74740600  0.44636400  1
  Zn  Zn195  1  0.15079500  0.62147500  0.41272200  1
  Zn  Zn196  1  0.37496700  0.09268900  0.42874100  1
  Zn  Zn197  1  0.82105800  0.64442600  0.42026100  1
  Zn  Zn198  1  0.53087400  0.04131900  0.41580100  1
  Zn  Zn199  1  0.65881200  0.24731100  0.48307200  1
  Zn  Zn200  1  0.66294100  0.75027100  0.48282900  1
  Zn  Zn201  1  0.80881900  0.52815700  0.45949100  1
  Zn  Zn202  1  0.96424200  0.45989700  0.47624200  1
  Zn  Zn203  1  0.62503300  0.40212300  0.46398700  1
  Zn  Zn204  1  0.78829600  0.35059700  0.44989700  1
  Zn  Zn205  1  0.17894200  0.85038600  0.47246600  1
  Zn  Zn206  1  0.14063900  0.50372100  0.45314700  1
  Zn  Zn207  1  0.33705900  0.74454200  0.40989800  1
  Zn  Zn208  1  0.21170400  0.14421500  0.44283000  1
  Zn  Zn209  1  0.82143500  0.69390600  0.46962700  1
  Zn  Zn210  1  0.50000000  0.79740600  0.49636400  1
  Zn  Zn211  1  0.69712500  0.98890100  0.40332100  1
  Zn  Zn212  1  0.52936800  0.09131100  0.46526600  1
  Zn  Zn213  1  0.79093800  0.30043200  0.40155100  1
  Zn  Zn214  1  0.30287500  0.50591100  0.48940600  1
  Zn  Zn215  1  0.20906200  0.19438000  0.49117600  1
  Zn  Zn216  1  0.19118100  0.96665600  0.43323600  1
  Zn  Zn217  1  0.47063200  0.40350100  0.42746100  1
  Zn  Zn218  1  0.85526800  0.04162900  0.48889700  1
  Zn  Zn219  1  0.00000000  0.79740600  0.49636400  1
  Zn  Zn220  1  0.46912600  0.45349300  0.47692700  1
  Zn  Zn221  1  0.34118800  0.24750100  0.40965500  1
  Zn  Zn222  1  0.48641100  0.62551100  0.48732100  1
  Zn  Zn223  1  0.84920500  0.97333700  0.58000500  1
  Zn  Zn224  1  0.03575800  0.13491600  0.51648600  1
  Zn  Zn225  1  0.51358900  0.96930100  0.50540700  1
  Zn  Zn226  1  0.14473200  0.55318300  0.50383000  1
  Zn  Zn227  1  0.17856500  0.90090600  0.52310000  1
  Zn  Zn228  1  0.85936100  0.09109100  0.53958000  1
  Zn  Zn229  1  0.50000000  0.84740600  0.54636400  1
  Zn  Zn230  1  0.15079500  0.72147500  0.51272200  1
  Zn  Zn231  1  0.37496700  0.19268900  0.52874100  1
  Zn  Zn232  1  0.82105800  0.74442600  0.52026100  1
  Zn  Zn233  1  0.53087400  0.14131900  0.51580100  1
  Zn  Zn234  1  0.65881200  0.34731100  0.58307200  1
  Zn  Zn235  1  0.66294100  0.85027100  0.58282900  1
  Zn  Zn236  1  0.80881900  0.62815700  0.55949100  1
  Zn  Zn237  1  0.96424200  0.55989700  0.57624200  1
  Zn  Zn238  1  0.62503300  0.50212300  0.56398700  1
  Zn  Zn239  1  0.78829600  0.45059700  0.54989700  1
  Zn  Zn240  1  0.17894200  0.95038600  0.57246600  1
  Zn  Zn241  1  0.14063900  0.60372100  0.55314700  1
  Zn  Zn242  1  0.33705900  0.84454200  0.50989800  1
  Zn  Zn243  1  0.21170400  0.24421500  0.54283000  1
  Zn  Zn244  1  0.82143500  0.79390600  0.56962700  1
  Zn  Zn245  1  0.50000000  0.89740600  0.59636400  1
  Zn  Zn246  1  0.69712500  0.08890100  0.50332100  1
  Zn  Zn247  1  0.52936800  0.19131100  0.56526600  1
  Zn  Zn248  1  0.79093800  0.40043200  0.50155100  1
  Zn  Zn249  1  0.30287500  0.60591100  0.58940600  1
  Zn  Zn250  1  0.20906200  0.29438000  0.59117600  1
  Zn  Zn251  1  0.19118100  0.06665600  0.53323600  1
  Zn  Zn252  1  0.47063200  0.50350100  0.52746100  1
  Zn  Zn253  1  0.85526800  0.14162900  0.58889700  1
  Zn  Zn254  1  0.00000000  0.89740600  0.59636400  1
  Zn  Zn255  1  0.46912600  0.55349300  0.57692700  1
  Zn  Zn256  1  0.34118800  0.34750100  0.50965500  1
  Zn  Zn257  1  0.48641100  0.72551100  0.58732100  1
  Zn  Zn258  1  0.84920500  0.07333700  0.68000500  1
  Zn  Zn259  1  0.03575800  0.23491600  0.61648600  1
  Zn  Zn260  1  0.51358900  0.06930100  0.60540700  1
  Zn  Zn261  1  0.14473200  0.65318300  0.60383000  1
  Zn  Zn262  1  0.17856500  0.00090600  0.62310000  1
  Zn  Zn263  1  0.85936100  0.19109100  0.63958000  1
  Zn  Zn264  1  0.50000000  0.94740600  0.64636400  1
  Zn  Zn265  1  0.15079500  0.82147500  0.61272200  1
  Zn  Zn266  1  0.37496700  0.29268900  0.62874100  1
  Zn  Zn267  1  0.82105800  0.84442600  0.62026100  1
  Zn  Zn268  1  0.53087400  0.24131900  0.61580100  1
  Zn  Zn269  1  0.65881200  0.44731100  0.68307200  1
  Zn  Zn270  1  0.66294100  0.95027100  0.68282900  1
  Zn  Zn271  1  0.80881900  0.72815700  0.65949100  1
  Zn  Zn272  1  0.96424200  0.65989700  0.67624200  1
  Zn  Zn273  1  0.62503300  0.60212300  0.66398700  1
  Zn  Zn274  1  0.78829600  0.55059700  0.64989700  1
  Zn  Zn275  1  0.17894200  0.05038600  0.67246600  1
  Zn  Zn276  1  0.14063900  0.70372100  0.65314700  1
  Zn  Zn277  1  0.33705900  0.94454200  0.60989800  1
  Zn  Zn278  1  0.21170400  0.34421500  0.64283000  1
  Zn  Zn279  1  0.82143500  0.89390600  0.66962700  1
  Zn  Zn280  1  0.50000000  0.99740600  0.69636400  1
  Zn  Zn281  1  0.69712500  0.18890100  0.60332100  1
  Zn  Zn282  1  0.52936800  0.29131100  0.66526600  1
  Zn  Zn283  1  0.79093800  0.50043200  0.60155100  1
  Zn  Zn284  1  0.30287500  0.70591100  0.68940600  1
  Zn  Zn285  1  0.20906200  0.39438000  0.69117600  1
  Zn  Zn286  1  0.19118100  0.16665600  0.63323600  1
  Zn  Zn287  1  0.47063200  0.60350100  0.62746100  1
  Zn  Zn288  1  0.85526800  0.24162900  0.68889700  1
  Zn  Zn289  1  0.00000000  0.99740600  0.69636400  1
  Zn  Zn290  1  0.46912600  0.65349300  0.67692700  1
  Zn  Zn291  1  0.34118800  0.44750100  0.60965500  1
  Zn  Zn292  1  0.48641100  0.82551100  0.68732100  1
  Zn  Zn293  1  0.84920500  0.17333700  0.78000500  1
  Zn  Zn294  1  0.03575800  0.33491600  0.71648600  1
  Zn  Zn295  1  0.51358900  0.16930100  0.70540700  1
  Zn  Zn296  1  0.14473200  0.75318300  0.70383000  1
  Zn  Zn297  1  0.17856500  0.10090600  0.72310000  1
  Zn  Zn298  1  0.85936100  0.29109100  0.73958000  1
  Zn  Zn299  1  0.50000000  0.04740600  0.74636400  1
  Zn  Zn300  1  0.15079500  0.92147500  0.71272200  1
  Zn  Zn301  1  0.37496700  0.39268900  0.72874100  1
  Zn  Zn302  1  0.82105800  0.94442600  0.72026100  1
  Zn  Zn303  1  0.53087400  0.34131900  0.71580100  1
  Zn  Zn304  1  0.65881200  0.54731100  0.78307200  1
  Zn  Zn305  1  0.66294100  0.05027100  0.78282900  1
  Zn  Zn306  1  0.80881900  0.82815700  0.75949100  1
  Zn  Zn307  1  0.96424200  0.75989700  0.77624200  1
  Zn  Zn308  1  0.62503300  0.70212300  0.76398700  1
  Zn  Zn309  1  0.78829600  0.65059700  0.74989700  1
  Zn  Zn310  1  0.17894200  0.15038600  0.77246600  1
  Zn  Zn311  1  0.14063900  0.80372100  0.75314700  1
  Zn  Zn312  1  0.33705900  0.04454200  0.70989800  1
  Zn  Zn313  1  0.21170400  0.44421500  0.74283000  1
  Zn  Zn314  1  0.82143500  0.99390600  0.76962700  1
  Zn  Zn315  1  0.69712500  0.28890100  0.70332100  1
  Zn  Zn316  1  0.52936800  0.39131100  0.76526600  1
  Zn  Zn317  1  0.79093800  0.60043200  0.70155100  1
  Zn  Zn318  1  0.30287500  0.80591100  0.78940600  1
  Zn  Zn319  1  0.20906200  0.49438000  0.79117600  1
  Zn  Zn320  1  0.19118100  0.26665600  0.73323600  1
  Zn  Zn321  1  0.47063200  0.70350100  0.72746100  1
  Zn  Zn322  1  0.85526800  0.34162900  0.78889700  1
  Zn  Zn323  1  0.46912600  0.75349300  0.77692700  1
  Zn  Zn324  1  0.34118800  0.54750100  0.70965500  1
  Zn  Zn325  1  0.48641100  0.92551100  0.78732100  1
