# generated using pymatgen
data_Mg2Hg
_symmetry_space_group_name_H-M   'P 1'
_cell_length_a   4.75496500
_cell_length_b   6.40514000
_cell_length_c   43.06560200
_cell_angle_alpha   90.00000000
_cell_angle_beta   90.00000000
_cell_angle_gamma   90.00000000
_symmetry_Int_Tables_number   1
_chemical_formula_structural   Mg2Hg
_chemical_formula_sum   'Mg24 Hg12'
_cell_volume   1311.61529908
_cell_formula_units_Z   12
loop_
 _symmetry_equiv_pos_site_id
 _symmetry_equiv_pos_as_xyz
  1  'x, y, z'
loop_
 _atom_site_type_symbol
 _atom_site_label
 _atom_site_symmetry_multiplicity
 _atom_site_fract_x
 _atom_site_fract_y
 _atom_site_fract_z
 _atom_site_occupancy
  Mg  Mg0  1  0.25000000  0.46739600  0.24229100  1
  Mg  Mg1  1  0.75000000  0.53260400  0.35770900  1
  Mg  Mg2  1  0.25000000  0.96739600  0.25770900  1
  Mg  Mg3  1  0.75000000  0.03260400  0.34229100  1
  Mg  Mg4  1  0.75000000  0.67749800  0.28760400  1
  Mg  Mg5  1  0.25000000  0.32250200  0.31239600  1
  Mg  Mg6  1  0.75000000  0.17749800  0.21239600  1
  Mg  Mg7  1  0.25000000  0.82250200  0.38760400  1
  Mg  Mg8  1  0.25000000  0.46739600  0.44229100  1
  Mg  Mg9  1  0.75000000  0.53260400  0.55770900  1
  Mg  Mg10  1  0.25000000  0.96739600  0.45770900  1
  Mg  Mg11  1  0.75000000  0.03260400  0.54229100  1
  Mg  Mg12  1  0.75000000  0.67749800  0.48760400  1
  Mg  Mg13  1  0.25000000  0.32250200  0.51239600  1
  Mg  Mg14  1  0.75000000  0.17749800  0.41239600  1
  Mg  Mg15  1  0.25000000  0.82250200  0.58760400  1
  Mg  Mg16  1  0.25000000  0.46739600  0.64229100  1
  Mg  Mg17  1  0.75000000  0.53260400  0.75770900  1
  Mg  Mg18  1  0.25000000  0.96739600  0.65770900  1
  Mg  Mg19  1  0.75000000  0.03260400  0.74229100  1
  Mg  Mg20  1  0.75000000  0.67749800  0.68760400  1
  Mg  Mg21  1  0.25000000  0.32250200  0.71239600  1
  Mg  Mg22  1  0.75000000  0.17749800  0.61239600  1
  Mg  Mg23  1  0.25000000  0.82250200  0.78760400  1
  Hg  Hg24  1  0.25000000  0.27973800  0.37830800  1
  Hg  Hg25  1  0.75000000  0.72026200  0.22169200  1
  Hg  Hg26  1  0.25000000  0.77973800  0.32169200  1
  Hg  Hg27  1  0.75000000  0.22026200  0.27830800  1
  Hg  Hg28  1  0.25000000  0.27973800  0.57830800  1
  Hg  Hg29  1  0.75000000  0.72026200  0.42169200  1
  Hg  Hg30  1  0.25000000  0.77973800  0.52169200  1
  Hg  Hg31  1  0.75000000  0.22026200  0.47830800  1
  Hg  Hg32  1  0.25000000  0.27973800  0.77830800  1
  Hg  Hg33  1  0.75000000  0.72026200  0.62169200  1
  Hg  Hg34  1  0.25000000  0.77973800  0.72169200  1
  Hg  Hg35  1  0.75000000  0.22026200  0.67830800  1
