# generated using pymatgen
data_Sr14Mg129
_symmetry_space_group_name_H-M   'P 1'
_cell_length_a   10.60291300
_cell_length_b   14.66206680
_cell_length_c   47.66603800
_cell_angle_alpha   92.42755603
_cell_angle_beta   90.00000000
_cell_angle_gamma   68.80296164
_symmetry_Int_Tables_number   1
_chemical_formula_structural   Sr14Mg129
_chemical_formula_sum   'Sr14 Mg129'
_cell_volume   6901.70350145
_cell_formula_units_Z   1
loop_
 _symmetry_equiv_pos_site_id
 _symmetry_equiv_pos_as_xyz
  1  'x, y, z'
loop_
 _atom_site_type_symbol
 _atom_site_label
 _atom_site_symmetry_multiplicity
 _atom_site_fract_x
 _atom_site_fract_y
 _atom_site_fract_z
 _atom_site_occupancy
  Sr  Sr0  1  0.39409100  0.21181900  0.35213000  1
  Sr  Sr1  1  0.10837600  0.78324700  0.32832100  1
  Sr  Sr2  1  0.96551900  0.06896200  0.23308300  1
  Sr  Sr3  1  0.82266200  0.35467600  0.30451100  1
  Sr  Sr4  1  0.10837600  0.78324700  0.49498700  1
  Sr  Sr5  1  0.82266200  0.35467600  0.47117800  1
  Sr  Sr6  1  0.67980500  0.64039000  0.37594000  1
  Sr  Sr7  1  0.53694800  0.92610400  0.44736800  1
  Sr  Sr8  1  0.82266200  0.35467600  0.63784500  1
  Sr  Sr9  1  0.53694800  0.92610400  0.61403500  1
  Sr  Sr10  1  0.39409100  0.21181900  0.51879700  1
  Sr  Sr11  1  0.25123300  0.49753300  0.59022600  1
  Sr  Sr12  1  0.10837600  0.78324700  0.66165400  1
  Sr  Sr13  1  0.96551900  0.06896200  0.73308300  1
  Mg  Mg14  1  0.10135500  0.79729100  0.24749200  1
  Mg  Mg15  1  0.95677200  0.58041700  0.31978300  1
  Mg  Mg16  1  0.46281200  0.58041700  0.31978300  1
  Mg  Mg17  1  0.17019500  0.15357100  0.29539800  1
  Mg  Mg18  1  0.29463300  0.41073400  0.23519300  1
  Mg  Mg19  1  0.58034700  0.83930600  0.25900200  1
  Mg  Mg20  1  0.49354800  0.01290300  0.30240100  1
  Mg  Mg21  1  0.20783400  0.58433200  0.27859200  1
  Mg  Mg22  1  0.39409100  0.21181900  0.26879700  1
  Mg  Mg23  1  0.89409100  0.71181900  0.26879700  1
  Mg  Mg24  1  0.39409100  0.71181900  0.26879700  1
  Mg  Mg25  1  0.25123300  0.99753300  0.34022600  1
  Mg  Mg26  1  0.75123300  0.99753300  0.34022600  1
  Mg  Mg27  1  0.25123300  0.49753300  0.34022600  1
  Mg  Mg28  1  0.46770600  0.37054800  0.29922100  1
  Mg  Mg29  1  0.83462700  0.92817500  0.28001200  1
  Mg  Mg30  1  0.45574200  0.79704900  0.32372000  1
  Mg  Mg31  1  0.04672500  0.19801700  0.35673100  1
  Mg  Mg32  1  0.95355500  0.49546300  0.25758200  1
  Mg  Mg33  1  0.62643500  0.05309000  0.23837300  1
  Mg  Mg34  1  0.74720900  0.79704900  0.32372000  1
  Mg  Mg35  1  0.32047500  0.05309000  0.23837300  1
  Mg  Mg36  1  0.23719800  0.92817500  0.28001200  1
  Mg  Mg37  1  0.55098300  0.49546300  0.25758200  1
  Mg  Mg38  1  0.16174600  0.37054800  0.29922100  1
  Mg  Mg39  1  0.75525700  0.19801700  0.35673100  1
  Mg  Mg40  1  0.61798700  0.27006700  0.24219600  1
  Mg  Mg41  1  0.83141000  0.84322100  0.21781100  1
  Mg  Mg42  1  0.68682700  0.62634700  0.29010200  1
  Mg  Mg43  1  0.97081500  0.05837000  0.31276100  1
  Mg  Mg44  1  0.11194700  0.27006700  0.24219600  1
  Mg  Mg45  1  0.67623500  0.15357100  0.29539800  1
  Mg  Mg46  1  0.81736600  0.36526800  0.22483300  1
  Mg  Mg47  1  0.32536900  0.84322100  0.21781100  1
  Mg  Mg48  1  0.81564000  0.36871900  0.39034900  1
  Mg  Mg49  1  0.67105700  0.15184500  0.46264000  1
  Mg  Mg50  1  0.17709700  0.15184500  0.46264000  1
  Mg  Mg51  1  0.88448000  0.72499900  0.43825500  1
  Mg  Mg52  1  0.00891800  0.98216300  0.37805000  1
  Mg  Mg53  1  0.29463300  0.41073400  0.40185900  1
  Mg  Mg54  1  0.20783400  0.58433200  0.44525900  1
  Mg  Mg55  1  0.92212000  0.15576000  0.42144900  1
  Mg  Mg56  1  0.10837600  0.78324700  0.41165400  1
  Mg  Mg57  1  0.60837600  0.28324700  0.41165400  1
  Mg  Mg58  1  0.10837600  0.28324700  0.41165400  1
  Mg  Mg59  1  0.96551900  0.56896200  0.48308300  1
  Mg  Mg60  1  0.46551900  0.56896200  0.48308300  1
  Mg  Mg61  1  0.96551900  0.06896200  0.48308300  1
  Mg  Mg62  1  0.18199200  0.94197600  0.44207800  1
  Mg  Mg63  1  0.54891200  0.49960300  0.42286900  1
  Mg  Mg64  1  0.17002700  0.36847800  0.46657700  1
  Mg  Mg65  1  0.76101100  0.76944600  0.49958800  1
  Mg  Mg66  1  0.66784000  0.06689100  0.40043900  1
  Mg  Mg67  1  0.34072100  0.62451800  0.38123100  1
  Mg  Mg68  1  0.46149500  0.36847800  0.46657700  1
  Mg  Mg69  1  0.03476100  0.62451800  0.38123100  1
  Mg  Mg70  1  0.95148400  0.49960300  0.42286900  1
  Mg  Mg71  1  0.26526800  0.06689100  0.40043900  1
  Mg  Mg72  1  0.87603200  0.94197600  0.44207800  1
  Mg  Mg73  1  0.46954300  0.76944600  0.49958800  1
  Mg  Mg74  1  0.33227200  0.84149500  0.38505300  1
  Mg  Mg75  1  0.54569500  0.41465000  0.36066800  1
  Mg  Mg76  1  0.40111200  0.19777500  0.43295900  1
  Mg  Mg77  1  0.68510100  0.62979800  0.45561800  1
  Mg  Mg78  1  0.82623200  0.84149500  0.38505300  1
  Mg  Mg79  1  0.39052000  0.72499900  0.43825500  1
  Mg  Mg80  1  0.53165200  0.93669700  0.36769000  1
  Mg  Mg81  1  0.03965500  0.41465000  0.36066800  1
  Mg  Mg82  1  0.52992600  0.94014800  0.53320600  1
  Mg  Mg83  1  0.38534300  0.72327400  0.60549700  1
  Mg  Mg84  1  0.89138300  0.72327400  0.60549700  1
  Mg  Mg85  1  0.59876600  0.29642800  0.58111300  1
  Mg  Mg86  1  0.72320400  0.55359200  0.52090700  1
  Mg  Mg87  1  0.00891800  0.98216300  0.54471600  1
  Mg  Mg88  1  0.92212000  0.15576000  0.58811600  1
  Mg  Mg89  1  0.63640600  0.72718900  0.56430600  1
  Mg  Mg90  1  0.82266200  0.35467600  0.55451100  1
  Mg  Mg91  1  0.32266200  0.85467600  0.55451100  1
  Mg  Mg92  1  0.82266200  0.85467600  0.55451100  1
  Mg  Mg93  1  0.67980500  0.14039000  0.62594000  1
  Mg  Mg94  1  0.17980500  0.14039000  0.62594000  1
  Mg  Mg95  1  0.67980500  0.64039000  0.62594000  1
  Mg  Mg96  1  0.89627800  0.51340500  0.58493500  1
  Mg  Mg97  1  0.26319800  0.07103200  0.56572600  1
  Mg  Mg98  1  0.88431300  0.93990600  0.60943500  1
  Mg  Mg99  1  0.47529700  0.34087400  0.64244500  1
  Mg  Mg100  1  0.38212600  0.63832000  0.54329700  1
  Mg  Mg101  1  0.05500700  0.19594700  0.52408800  1
  Mg  Mg102  1  0.17578100  0.93990600  0.60943500  1
  Mg  Mg103  1  0.74904600  0.19594700  0.52408800  1
  Mg  Mg104  1  0.66577000  0.07103200  0.56572600  1
  Mg  Mg105  1  0.97955400  0.63832000  0.54329700  1
  Mg  Mg106  1  0.59031700  0.51340500  0.58493500  1
  Mg  Mg107  1  0.18382900  0.34087400  0.64244500  1
  Mg  Mg108  1  0.04655800  0.41292400  0.52791000  1
  Mg  Mg109  1  0.25998100  0.98607800  0.50352500  1
  Mg  Mg110  1  0.11539800  0.76920400  0.57581700  1
  Mg  Mg111  1  0.39938700  0.20122700  0.59847600  1
  Mg  Mg112  1  0.54051800  0.41292400  0.52791000  1
  Mg  Mg113  1  0.10480600  0.29642800  0.58111300  1
  Mg  Mg114  1  0.24593700  0.50812500  0.51054700  1
  Mg  Mg115  1  0.75394100  0.98607800  0.50352500  1
  Mg  Mg116  1  0.24421200  0.51157700  0.67606300  1
  Mg  Mg117  1  0.09962900  0.29470200  0.74835500  1
  Mg  Mg118  1  0.60566900  0.29470200  0.74835500  1
  Mg  Mg119  1  0.31305200  0.86785700  0.72397000  1
  Mg  Mg120  1  0.43749000  0.12502000  0.66376400  1
  Mg  Mg121  1  0.72320400  0.55359200  0.68757400  1
  Mg  Mg122  1  0.63640600  0.72718900  0.73097300  1
  Mg  Mg123  1  0.35069100  0.29861700  0.70716300  1
  Mg  Mg124  1  0.53694800  0.92610400  0.69736800  1
  Mg  Mg125  1  0.03694800  0.42610400  0.69736800  1
  Mg  Mg126  1  0.53694800  0.42610400  0.69736800  1
  Mg  Mg127  1  0.61056300  0.08483400  0.72779200  1
  Mg  Mg128  1  0.97748400  0.64246100  0.70858300  1
  Mg  Mg129  1  0.09641200  0.20974800  0.68615400  1
  Mg  Mg130  1  0.76929300  0.76737500  0.66694500  1
  Mg  Mg131  1  0.46333200  0.76737500  0.66694500  1
  Mg  Mg132  1  0.38005600  0.64246100  0.70858300  1
  Mg  Mg133  1  0.69384000  0.20974800  0.68615400  1
  Mg  Mg134  1  0.30460300  0.08483400  0.72779200  1
  Mg  Mg135  1  0.76084400  0.98435200  0.67076700  1
  Mg  Mg136  1  0.97426700  0.55750700  0.64638200  1
  Mg  Mg137  1  0.82968400  0.34063200  0.71867400  1
  Mg  Mg138  1  0.11367200  0.77265500  0.74133300  1
  Mg  Mg139  1  0.25480400  0.98435200  0.67076700  1
  Mg  Mg140  1  0.81909200  0.86785700  0.72397000  1
  Mg  Mg141  1  0.96022300  0.07955400  0.65340400  1
  Mg  Mg142  1  0.46822700  0.55750700  0.64638200  1
