# generated using pymatgen
data_Ba3Mg26
_symmetry_space_group_name_H-M   'P 1'
_cell_length_a   8.04420318
_cell_length_b   8.04420367
_cell_length_c   47.60074400
_cell_angle_alpha   86.88333695
_cell_angle_beta   86.88333676
_cell_angle_gamma   82.20349510
_symmetry_Int_Tables_number   1
_chemical_formula_structural   Ba3Mg26
_chemical_formula_sum   'Ba6 Mg52'
_cell_volume   3043.77964963
_cell_formula_units_Z   2
loop_
 _symmetry_equiv_pos_site_id
 _symmetry_equiv_pos_as_xyz
  1  'x, y, z'
loop_
 _atom_site_type_symbol
 _atom_site_label
 _atom_site_symmetry_multiplicity
 _atom_site_fract_x
 _atom_site_fract_y
 _atom_site_fract_z
 _atom_site_occupancy
  Ba  Ba0  1  0.64751500  0.06989100  0.68945300  1
  Ba  Ba1  1  0.86125700  0.28363300  0.80177500  1
  Ba  Ba2  1  0.81418200  0.23655800  0.52278600  1
  Ba  Ba3  1  0.02792400  0.45030000  0.63510900  1
  Ba  Ba4  1  0.98084800  0.40322500  0.35611900  1
  Ba  Ba5  1  0.19459000  0.61696700  0.46844200  1
  Mg  Mg6  1  0.30314100  0.43298900  0.69685900  1
  Mg  Mg7  1  0.57421500  0.99659200  0.77053700  1
  Mg  Mg8  1  0.85217400  0.76884400  0.80307300  1
  Mg  Mg9  1  0.36730300  0.78968000  0.72948300  1
  Mg  Mg10  1  0.01061300  0.72551700  0.69685900  1
  Mg  Mg11  1  0.20563100  0.92053600  0.79436900  1
  Mg  Mg12  1  0.16230400  0.07897400  0.68815500  1
  Mg  Mg13  1  0.14146800  0.56384500  0.76174500  1
  Mg  Mg14  1  0.54691400  0.38423400  0.74561400  1
  Mg  Mg15  1  0.75438600  0.67676200  0.74561400  1
  Mg  Mg16  1  0.49815900  0.62800800  0.79436900  1
  Mg  Mg17  1  0.65659700  0.58468000  0.68815500  1
  Mg  Mg18  1  0.93455700  0.35693300  0.72069100  1
  Mg  Mg19  1  0.34646800  0.27455100  0.80307300  1
  Mg  Mg20  1  0.17105300  0.59342900  0.82894700  1
  Mg  Mg21  1  0.96185800  0.96929000  0.74561400  1
  Mg  Mg22  1  0.25438600  0.17676200  0.74561400  1
  Mg  Mg23  1  0.46980700  0.59965600  0.53019300  1
  Mg  Mg24  1  0.74088200  0.16325800  0.60387100  1
  Mg  Mg25  1  0.01884100  0.93551100  0.63640600  1
  Mg  Mg26  1  0.53397000  0.95634700  0.56281600  1
  Mg  Mg27  1  0.17727900  0.89218400  0.53019300  1
  Mg  Mg28  1  0.37229800  0.08720200  0.62770200  1
  Mg  Mg29  1  0.32897100  0.24564000  0.52148900  1
  Mg  Mg30  1  0.30813500  0.73051100  0.59507800  1
  Mg  Mg31  1  0.71358100  0.55090100  0.57894700  1
  Mg  Mg32  1  0.92105300  0.84342900  0.57894700  1
  Mg  Mg33  1  0.66482600  0.79467400  0.62770200  1
  Mg  Mg34  1  0.82326400  0.75134700  0.52148900  1
  Mg  Mg35  1  0.10122300  0.52360000  0.55402400  1
  Mg  Mg36  1  0.51313500  0.44121700  0.63640600  1
  Mg  Mg37  1  0.33771900  0.76009600  0.66228100  1
  Mg  Mg38  1  0.12852400  0.13595700  0.57894700  1
  Mg  Mg39  1  0.42105300  0.34342900  0.57894700  1
  Mg  Mg40  1  0.63647400  0.76632200  0.36352600  1
  Mg  Mg41  1  0.90754900  0.32992500  0.43720400  1
  Mg  Mg42  1  0.18550800  0.10217800  0.46973900  1
  Mg  Mg43  1  0.70063700  0.12301300  0.39615000  1
  Mg  Mg44  1  0.34394600  0.05885000  0.36352600  1
  Mg  Mg45  1  0.53896500  0.25386900  0.46103500  1
  Mg  Mg46  1  0.49563700  0.41230700  0.35482200  1
  Mg  Mg47  1  0.47480200  0.89717800  0.42841200  1
  Mg  Mg48  1  0.88024700  0.71756800  0.41228100  1
  Mg  Mg49  1  0.08771900  0.01009600  0.41228100  1
  Mg  Mg50  1  0.83149300  0.96134100  0.46103500  1
  Mg  Mg51  1  0.98993100  0.91801400  0.35482200  1
  Mg  Mg52  1  0.26789000  0.69026600  0.38735700  1
  Mg  Mg53  1  0.67980100  0.60788400  0.46973900  1
  Mg  Mg54  1  0.50438600  0.92676200  0.49561400  1
  Mg  Mg55  1  0.29519100  0.30262400  0.41228100  1
  Mg  Mg56  1  0.58771900  0.51009600  0.41228100  1
  Mg  Mg57  1  0.67105300  0.09342900  0.32894700  1
