# generated using pymatgen
data_Mg12Cu23
_symmetry_space_group_name_H-M   'P 1'
_cell_length_a   4.97853700
_cell_length_b   7.04071500
_cell_length_c   49.78537100
_cell_angle_alpha   90.00000000
_cell_angle_beta   90.00000000
_cell_angle_gamma   90.00000000
_symmetry_Int_Tables_number   1
_chemical_formula_structural   Mg12Cu23
_chemical_formula_sum   'Mg24 Cu46'
_cell_volume   1745.09973223
_cell_formula_units_Z   2
loop_
 _symmetry_equiv_pos_site_id
 _symmetry_equiv_pos_as_xyz
  1  'x, y, z'
loop_
 _atom_site_type_symbol
 _atom_site_label
 _atom_site_symmetry_multiplicity
 _atom_site_fract_x
 _atom_site_fract_y
 _atom_site_fract_z
 _atom_site_occupancy
  Mg  Mg0  1  0.37500000  0.25000000  0.28333300  1
  Mg  Mg1  1  0.87500000  0.00000000  0.28333300  1
  Mg  Mg2  1  0.87500000  0.75000000  0.23333300  1
  Mg  Mg3  1  0.37500000  0.50000000  0.23333300  1
  Mg  Mg4  1  0.37500000  0.25000000  0.38333300  1
  Mg  Mg5  1  0.87500000  0.00000000  0.38333300  1
  Mg  Mg6  1  0.87500000  0.75000000  0.33333300  1
  Mg  Mg7  1  0.37500000  0.50000000  0.33333300  1
  Mg  Mg8  1  0.37500000  0.25000000  0.48333300  1
  Mg  Mg9  1  0.87500000  0.00000000  0.48333300  1
  Mg  Mg10  1  0.87500000  0.75000000  0.43333300  1
  Mg  Mg11  1  0.37500000  0.50000000  0.43333300  1
  Mg  Mg12  1  0.37500000  0.25000000  0.58333300  1
  Mg  Mg13  1  0.87500000  0.00000000  0.58333300  1
  Mg  Mg14  1  0.87500000  0.75000000  0.53333300  1
  Mg  Mg15  1  0.37500000  0.50000000  0.53333300  1
  Mg  Mg16  1  0.37500000  0.25000000  0.68333300  1
  Mg  Mg17  1  0.87500000  0.00000000  0.68333300  1
  Mg  Mg18  1  0.87500000  0.75000000  0.63333300  1
  Mg  Mg19  1  0.37500000  0.50000000  0.63333300  1
  Mg  Mg20  1  0.37500000  0.25000000  0.78333300  1
  Mg  Mg21  1  0.87500000  0.00000000  0.78333300  1
  Mg  Mg22  1  0.87500000  0.75000000  0.73333300  1
  Mg  Mg23  1  0.37500000  0.50000000  0.73333300  1
  Cu  Cu24  1  0.62500000  0.12500000  0.23333300  1
  Cu  Cu25  1  0.87500000  0.37500000  0.25833300  1
  Cu  Cu26  1  0.12500000  0.12500000  0.23333300  1
  Cu  Cu27  1  0.12500000  0.62500000  0.28333300  1
  Cu  Cu28  1  0.62500000  0.62500000  0.28333300  1
  Cu  Cu29  1  0.37500000  0.87500000  0.25833300  1
  Cu  Cu30  1  0.62500000  0.12500000  0.33333300  1
  Cu  Cu31  1  0.87500000  0.37500000  0.35833300  1
  Cu  Cu32  1  0.12500000  0.12500000  0.33333300  1
  Cu  Cu33  1  0.87500000  0.37500000  0.30833300  1
  Cu  Cu34  1  0.12500000  0.62500000  0.38333300  1
  Cu  Cu35  1  0.37500000  0.87500000  0.30833300  1
  Cu  Cu36  1  0.62500000  0.62500000  0.38333300  1
  Cu  Cu37  1  0.37500000  0.87500000  0.35833300  1
  Cu  Cu38  1  0.62500000  0.12500000  0.43333300  1
  Cu  Cu39  1  0.87500000  0.37500000  0.45833300  1
  Cu  Cu40  1  0.12500000  0.12500000  0.43333300  1
  Cu  Cu41  1  0.87500000  0.37500000  0.40833300  1
  Cu  Cu42  1  0.12500000  0.62500000  0.48333300  1
  Cu  Cu43  1  0.37500000  0.87500000  0.40833300  1
  Cu  Cu44  1  0.62500000  0.62500000  0.48333300  1
  Cu  Cu45  1  0.37500000  0.87500000  0.45833300  1
  Cu  Cu46  1  0.62500000  0.12500000  0.53333300  1
  Cu  Cu47  1  0.87500000  0.37500000  0.55833300  1
  Cu  Cu48  1  0.12500000  0.12500000  0.53333300  1
  Cu  Cu49  1  0.87500000  0.37500000  0.50833300  1
  Cu  Cu50  1  0.12500000  0.62500000  0.58333300  1
  Cu  Cu51  1  0.37500000  0.87500000  0.50833300  1
  Cu  Cu52  1  0.62500000  0.62500000  0.58333300  1
  Cu  Cu53  1  0.37500000  0.87500000  0.55833300  1
  Cu  Cu54  1  0.62500000  0.12500000  0.63333300  1
  Cu  Cu55  1  0.87500000  0.37500000  0.65833300  1
  Cu  Cu56  1  0.12500000  0.12500000  0.63333300  1
  Cu  Cu57  1  0.87500000  0.37500000  0.60833300  1
  Cu  Cu58  1  0.12500000  0.62500000  0.68333300  1
  Cu  Cu59  1  0.37500000  0.87500000  0.60833300  1
  Cu  Cu60  1  0.62500000  0.62500000  0.68333300  1
  Cu  Cu61  1  0.37500000  0.87500000  0.65833300  1
  Cu  Cu62  1  0.62500000  0.12500000  0.73333300  1
  Cu  Cu63  1  0.87500000  0.37500000  0.75833300  1
  Cu  Cu64  1  0.12500000  0.12500000  0.73333300  1
  Cu  Cu65  1  0.87500000  0.37500000  0.70833300  1
  Cu  Cu66  1  0.12500000  0.62500000  0.78333300  1
  Cu  Cu67  1  0.37500000  0.87500000  0.70833300  1
  Cu  Cu68  1  0.62500000  0.62500000  0.78333300  1
  Cu  Cu69  1  0.37500000  0.87500000  0.75833300  1
