# generated using pymatgen
data_Mg14Co29
_symmetry_space_group_name_H-M   'P 1'
_cell_length_a   8.36279800
_cell_length_b   9.24833153
_cell_length_c   41.72354900
_cell_angle_alpha   85.36367228
_cell_angle_beta   90.00000000
_cell_angle_gamma   63.11991639
_symmetry_Int_Tables_number   1
_chemical_formula_structural   Mg14Co29
_chemical_formula_sum   'Mg42 Co87'
_cell_volume   2866.47659142
_cell_formula_units_Z   3
loop_
 _symmetry_equiv_pos_site_id
 _symmetry_equiv_pos_as_xyz
  1  'x, y, z'
loop_
 _atom_site_type_symbol
 _atom_site_label
 _atom_site_symmetry_multiplicity
 _atom_site_fract_x
 _atom_site_fract_y
 _atom_site_fract_z
 _atom_site_occupancy
  Mg  Mg0  1  0.15261100  0.51806900  0.21879200  1
  Mg  Mg1  1  0.98661100  0.85007000  0.23954200  1
  Mg  Mg2  1  0.26372200  0.96251300  0.24656900  1
  Mg  Mg3  1  0.54216600  0.40562600  0.21176400  1
  Mg  Mg4  1  0.70816700  0.40695700  0.27434700  1
  Mg  Mg5  1  0.54216600  0.73895900  0.29509700  1
  Mg  Mg6  1  0.81927800  0.85140200  0.30212500  1
  Mg  Mg7  1  0.09772200  0.29451500  0.26731900  1
  Mg  Mg8  1  0.26372200  0.29584600  0.32990300  1
  Mg  Mg9  1  0.09772200  0.62784800  0.35065300  1
  Mg  Mg10  1  0.37483400  0.74029100  0.35768100  1
  Mg  Mg11  1  0.65327700  0.18340400  0.32287500  1
  Mg  Mg12  1  0.81927800  0.18473500  0.38545800  1
  Mg  Mg13  1  0.65327700  0.51673700  0.40620800  1
  Mg  Mg14  1  0.93038900  0.62918000  0.41323600  1
  Mg  Mg15  1  0.20883300  0.07229200  0.37843100  1
  Mg  Mg16  1  0.37483400  0.07362400  0.44101400  1
  Mg  Mg17  1  0.20883300  0.40562600  0.46176400  1
  Mg  Mg18  1  0.48594500  0.51806900  0.46879200  1
  Mg  Mg19  1  0.76438800  0.96118100  0.43398600  1
  Mg  Mg20  1  0.93038900  0.96251300  0.49656900  1
  Mg  Mg21  1  0.76438800  0.29451500  0.51731900  1
  Mg  Mg22  1  0.04150000  0.40695700  0.52434700  1
  Mg  Mg23  1  0.31994400  0.85007000  0.48954200  1
  Mg  Mg24  1  0.48594500  0.85140200  0.55212500  1
  Mg  Mg25  1  0.31994400  0.18340400  0.57287500  1
  Mg  Mg26  1  0.59705600  0.29584600  0.57990300  1
  Mg  Mg27  1  0.87549900  0.73895900  0.54509700  1
  Mg  Mg28  1  0.04150000  0.74029100  0.60768100  1
  Mg  Mg29  1  0.87549900  0.07229200  0.62843100  1
  Mg  Mg30  1  0.15261100  0.18473500  0.63545800  1
  Mg  Mg31  1  0.43105500  0.62784800  0.60065300  1
  Mg  Mg32  1  0.59705600  0.62918000  0.66323600  1
  Mg  Mg33  1  0.43105500  0.96118100  0.68398600  1
  Mg  Mg34  1  0.70816700  0.07362400  0.69101400  1
  Mg  Mg35  1  0.98661100  0.51673700  0.65620800  1
  Mg  Mg36  1  0.15261100  0.51806900  0.71879200  1
  Mg  Mg37  1  0.98661100  0.85007000  0.73954200  1
  Mg  Mg38  1  0.26372200  0.96251300  0.74656900  1
  Mg  Mg39  1  0.54216600  0.40562600  0.71176400  1
  Mg  Mg40  1  0.70816700  0.40695700  0.77434700  1
  Mg  Mg41  1  0.09772200  0.29451500  0.76731900  1
  Co  Co42  1  0.84738900  0.46184700  0.21527800  1
  Co  Co43  1  0.56567000  0.68406900  0.22916700  1
  Co  Co44  1  0.29446000  0.73831100  0.20204600  1
  Co  Co45  1  0.79314700  0.74093900  0.20073200  1
  Co  Co46  1  0.62516600  0.90629200  0.24305600  1
  Co  Co47  1  0.90163100  0.18275600  0.22982400  1
  Co  Co48  1  0.40031700  0.18538300  0.22851000  1
  Co  Co49  1  0.12910700  0.23962500  0.20138900  1
  Co  Co50  1  0.40294400  0.35073600  0.27083300  1
  Co  Co51  1  0.12122500  0.57295800  0.28472200  1
  Co  Co52  1  0.85001600  0.62720000  0.25760100  1
  Co  Co53  1  0.34870200  0.62982800  0.25628800  1
  Co  Co54  1  0.18072200  0.79518100  0.29861100  1
  Co  Co55  1  0.45718600  0.07164500  0.28537900  1
  Co  Co56  1  0.95587200  0.07427200  0.28406500  1
  Co  Co57  1  0.68466300  0.12851400  0.25694400  1
  Co  Co58  1  0.95850000  0.23962500  0.32638900  1
  Co  Co59  1  0.67678100  0.46184700  0.34027800  1
  Co  Co60  1  0.40557200  0.51608900  0.31315700  1
  Co  Co61  1  0.90425800  0.51871600  0.31184300  1
  Co  Co62  1  0.73627800  0.68406900  0.35416700  1
  Co  Co63  1  0.01274200  0.96053300  0.34093500  1
  Co  Co64  1  0.51142800  0.96316100  0.33962100  1
  Co  Co65  1  0.24021900  0.01740300  0.31250000  1
  Co  Co66  1  0.51405500  0.12851400  0.38194400  1
  Co  Co67  1  0.23233700  0.35073600  0.39583300  1
  Co  Co68  1  0.96112700  0.40497800  0.36871200  1
  Co  Co69  1  0.45981300  0.40760500  0.36739900  1
  Co  Co70  1  0.29183300  0.57295800  0.40972200  1
  Co  Co71  1  0.56829700  0.84942200  0.39649000  1
  Co  Co72  1  0.06698400  0.85205000  0.39517600  1
  Co  Co73  1  0.79577400  0.90629200  0.36805600  1
  Co  Co74  1  0.06961100  0.01740300  0.43750000  1
  Co  Co75  1  0.78789200  0.23962500  0.45138900  1
  Co  Co76  1  0.51668300  0.29386700  0.42426800  1
  Co  Co77  1  0.01536900  0.29649400  0.42295400  1
  Co  Co78  1  0.84738900  0.46184700  0.46527800  1
  Co  Co79  1  0.12385300  0.73831100  0.45204600  1
  Co  Co80  1  0.62253900  0.74093900  0.45073200  1
  Co  Co81  1  0.35133000  0.79518100  0.42361100  1
  Co  Co82  1  0.62516600  0.90629200  0.49305600  1
  Co  Co83  1  0.34344800  0.12851400  0.50694400  1
  Co  Co84  1  0.07223800  0.18275600  0.47982400  1
  Co  Co85  1  0.57092500  0.18538300  0.47851000  1
  Co  Co86  1  0.40294400  0.35073600  0.52083300  1
  Co  Co87  1  0.67940800  0.62720000  0.50760100  1
  Co  Co88  1  0.17809500  0.62982800  0.50628800  1
  Co  Co89  1  0.90688500  0.68406900  0.47916700  1
  Co  Co90  1  0.18072200  0.79518100  0.54861100  1
  Co  Co91  1  0.89900300  0.01740300  0.56250000  1
  Co  Co92  1  0.62779400  0.07164500  0.53537900  1
  Co  Co93  1  0.12648000  0.07427200  0.53406500  1
  Co  Co94  1  0.95850000  0.23962500  0.57638900  1
  Co  Co95  1  0.23496400  0.51608900  0.56315700  1
  Co  Co96  1  0.73365000  0.51871600  0.56184300  1
  Co  Co97  1  0.46244100  0.57295800  0.53472200  1
  Co  Co98  1  0.73627800  0.68406900  0.60416700  1
  Co  Co99  1  0.45455900  0.90629200  0.61805600  1
  Co  Co100  1  0.18334900  0.96053300  0.59093500  1
  Co  Co101  1  0.68203600  0.96316100  0.58962100  1
  Co  Co102  1  0.51405500  0.12851400  0.63194400  1
  Co  Co103  1  0.79051900  0.40497800  0.61871200  1
  Co  Co104  1  0.28920600  0.40760500  0.61739900  1
  Co  Co105  1  0.01799600  0.46184700  0.59027800  1
  Co  Co106  1  0.29183300  0.57295800  0.65972200  1
  Co  Co107  1  0.01011400  0.79518100  0.67361100  1
  Co  Co108  1  0.73890500  0.84942200  0.64649000  1
  Co  Co109  1  0.23759100  0.85205000  0.64517600  1
  Co  Co110  1  0.06961100  0.01740300  0.68750000  1
  Co  Co111  1  0.34607500  0.29386700  0.67426800  1
  Co  Co112  1  0.84476100  0.29649400  0.67295400  1
  Co  Co113  1  0.57355200  0.35073600  0.64583300  1
  Co  Co114  1  0.84738900  0.46184700  0.71527800  1
  Co  Co115  1  0.56567000  0.68406900  0.72916700  1
  Co  Co116  1  0.29446000  0.73831100  0.70204600  1
  Co  Co117  1  0.79314700  0.74093900  0.70073200  1
  Co  Co118  1  0.62516600  0.90629200  0.74305600  1
  Co  Co119  1  0.90163100  0.18275600  0.72982400  1
  Co  Co120  1  0.40031700  0.18538300  0.72851000  1
  Co  Co121  1  0.12910700  0.23962500  0.70138900  1
  Co  Co122  1  0.40294400  0.35073600  0.77083300  1
  Co  Co123  1  0.12122500  0.57295800  0.78472200  1
  Co  Co124  1  0.85001600  0.62720000  0.75760100  1
  Co  Co125  1  0.34870200  0.62982800  0.75628800  1
  Co  Co126  1  0.45718600  0.07164500  0.78537900  1
  Co  Co127  1  0.95587200  0.07427200  0.78406500  1
  Co  Co128  1  0.68466300  0.12851400  0.75694400  1
