# generated using pymatgen
data_Mg38Hg21
_symmetry_space_group_name_H-M   'P 1'
_cell_length_a   10.23075603
_cell_length_b   10.23075545
_cell_length_c   44.68034300
_cell_angle_alpha   95.12420684
_cell_angle_beta   84.87579346
_cell_angle_gamma   90.69651047
_symmetry_Int_Tables_number   1
_chemical_formula_structural   Mg38Hg21
_chemical_formula_sum   'Mg76 Hg42'
_cell_volume   4639.27093619
_cell_formula_units_Z   2
loop_
 _symmetry_equiv_pos_site_id
 _symmetry_equiv_pos_as_xyz
  1  'x, y, z'
loop_
 _atom_site_type_symbol
 _atom_site_label
 _atom_site_symmetry_multiplicity
 _atom_site_fract_x
 _atom_site_fract_y
 _atom_site_fract_z
 _atom_site_occupancy
  Mg  Mg0  1  0.03846200  0.20947000  0.20657200  1
  Mg  Mg1  1  0.28766600  0.96026500  0.20689000  1
  Mg  Mg2  1  0.02066300  0.97933700  0.26410500  1
  Mg  Mg3  1  0.36522500  0.63477500  0.22628000  1
  Mg  Mg4  1  0.79053000  0.96153800  0.20657200  1
  Mg  Mg5  1  0.03973500  0.71233400  0.20689000  1
  Mg  Mg6  1  0.37243100  0.29423500  0.20673100  1
  Mg  Mg7  1  0.85961100  0.47372200  0.24519200  1
  Mg  Mg8  1  0.70576500  0.62756900  0.20673100  1
  Mg  Mg9  1  0.52627800  0.14038900  0.24519200  1
  Mg  Mg10  1  0.34615400  0.90177700  0.28349500  1
  Mg  Mg11  1  0.59535800  0.65257300  0.28381300  1
  Mg  Mg12  1  0.32835500  0.67164500  0.34102800  1
  Mg  Mg13  1  0.67291800  0.32708200  0.30320300  1
  Mg  Mg14  1  0.09822300  0.65384600  0.28349500  1
  Mg  Mg15  1  0.34742700  0.40464200  0.28381300  1
  Mg  Mg16  1  0.68012400  0.98654300  0.28365400  1
  Mg  Mg17  1  0.16730300  0.16603000  0.32211500  1
  Mg  Mg18  1  0.01345700  0.31987600  0.28365400  1
  Mg  Mg19  1  0.83397000  0.83269700  0.32211500  1
  Mg  Mg20  1  0.65384600  0.59408500  0.36041800  1
  Mg  Mg21  1  0.90305000  0.34488100  0.36073600  1
  Mg  Mg22  1  0.63604800  0.36395200  0.41795100  1
  Mg  Mg23  1  0.98061000  0.01939000  0.38012600  1
  Mg  Mg24  1  0.40591500  0.34615400  0.36041800  1
  Mg  Mg25  1  0.65511900  0.09695000  0.36073600  1
  Mg  Mg26  1  0.98781600  0.67885100  0.36057700  1
  Mg  Mg27  1  0.47499600  0.85833800  0.39903800  1
  Mg  Mg28  1  0.32114900  0.01218400  0.36057700  1
  Mg  Mg29  1  0.14166200  0.52500400  0.39903800  1
  Mg  Mg30  1  0.96153800  0.28639300  0.43734100  1
  Mg  Mg31  1  0.21074300  0.03718800  0.43765900  1
  Mg  Mg32  1  0.94374000  0.05626000  0.49487400  1
  Mg  Mg33  1  0.28830200  0.71169800  0.45704900  1
  Mg  Mg34  1  0.71360700  0.03846200  0.43734100  1
  Mg  Mg35  1  0.96281200  0.78925700  0.43765900  1
  Mg  Mg36  1  0.29550800  0.37115800  0.43750000  1
  Mg  Mg37  1  0.78268800  0.55064500  0.47596200  1
  Mg  Mg38  1  0.62884200  0.70449200  0.43750000  1
  Mg  Mg39  1  0.44935500  0.21731200  0.47596200  1
  Mg  Mg40  1  0.26923100  0.97870000  0.51426400  1
  Mg  Mg41  1  0.51843500  0.72949600  0.51458200  1
  Mg  Mg42  1  0.25143200  0.74856800  0.57179700  1
  Mg  Mg43  1  0.59599500  0.40400500  0.53397200  1
  Mg  Mg44  1  0.02130000  0.73076900  0.51426400  1
  Mg  Mg45  1  0.27050400  0.48156500  0.51458200  1
  Mg  Mg46  1  0.60320100  0.06346600  0.51442300  1
  Mg  Mg47  1  0.09038000  0.24295300  0.55288500  1
  Mg  Mg48  1  0.93653400  0.39679900  0.51442300  1
  Mg  Mg49  1  0.75704700  0.90962000  0.55288500  1
  Mg  Mg50  1  0.57692300  0.67100800  0.59118700  1
  Mg  Mg51  1  0.82612700  0.42180400  0.59150500  1
  Mg  Mg52  1  0.55912500  0.44087500  0.64872000  1
  Mg  Mg53  1  0.90368700  0.09631300  0.61089500  1
  Mg  Mg54  1  0.32899200  0.42307700  0.59118700  1
  Mg  Mg55  1  0.57819600  0.17387300  0.59150500  1
  Mg  Mg56  1  0.91089300  0.75577400  0.59134600  1
  Mg  Mg57  1  0.39807200  0.93526100  0.62980800  1
  Mg  Mg58  1  0.24422600  0.08910700  0.59134600  1
  Mg  Mg59  1  0.06473900  0.60192800  0.62980800  1
  Mg  Mg60  1  0.88461500  0.36331600  0.66811000  1
  Mg  Mg61  1  0.13382000  0.11411100  0.66842800  1
  Mg  Mg62  1  0.86681700  0.13318300  0.72564300  1
  Mg  Mg63  1  0.21137900  0.78862100  0.68781800  1
  Mg  Mg64  1  0.63668400  0.11538500  0.66811000  1
  Mg  Mg65  1  0.88588900  0.86618000  0.66842800  1
  Mg  Mg66  1  0.21858500  0.44808100  0.66826900  1
  Mg  Mg67  1  0.70576500  0.62756900  0.70673100  1
  Mg  Mg68  1  0.55191900  0.78141500  0.66826900  1
  Mg  Mg69  1  0.37243100  0.29423500  0.70673100  1
  Mg  Mg70  1  0.19230800  0.05562300  0.74503300  1
  Mg  Mg71  1  0.44151200  0.80641900  0.74535100  1
  Mg  Mg72  1  0.94437700  0.80769200  0.74503300  1
  Mg  Mg73  1  0.19358100  0.55848800  0.74535100  1
  Mg  Mg74  1  0.52627800  0.14038900  0.74519200  1
  Mg  Mg75  1  0.85961100  0.47372200  0.74519200  1
  Hg  Hg76  1  0.14998400  0.46039500  0.23445200  1
  Hg  Hg77  1  0.84628300  0.76409500  0.25593200  1
  Hg  Hg78  1  0.57356800  0.42643200  0.24294300  1
  Hg  Hg79  1  0.81232100  0.18767900  0.24744200  1
  Hg  Hg80  1  0.53960500  0.85001600  0.23445200  1
  Hg  Hg81  1  0.23590500  0.15371700  0.25593200  1
  Hg  Hg82  1  0.45767600  0.15270300  0.31137500  1
  Hg  Hg83  1  0.15397600  0.45640300  0.33285500  1
  Hg  Hg84  1  0.88126000  0.11874000  0.31986600  1
  Hg  Hg85  1  0.12001300  0.87998700  0.32436500  1
  Hg  Hg86  1  0.84729700  0.54232400  0.31137500  1
  Hg  Hg87  1  0.54359700  0.84602400  0.33285500  1
  Hg  Hg88  1  0.76536800  0.84501000  0.38829800  1
  Hg  Hg89  1  0.46166800  0.14871100  0.40977900  1
  Hg  Hg90  1  0.18895200  0.81104800  0.39678900  1
  Hg  Hg91  1  0.42770500  0.57229500  0.40128800  1
  Hg  Hg92  1  0.15499000  0.23463200  0.38829800  1
  Hg  Hg93  1  0.85128900  0.53833200  0.40977900  1
  Hg  Hg94  1  0.07306100  0.53731800  0.46522100  1
  Hg  Hg95  1  0.76936000  0.84101800  0.48670200  1
  Hg  Hg96  1  0.49664500  0.50335500  0.47371200  1
  Hg  Hg97  1  0.73539800  0.26460200  0.47821100  1
  Hg  Hg98  1  0.46268200  0.92693900  0.46522100  1
  Hg  Hg99  1  0.15898200  0.23064000  0.48670200  1
  Hg  Hg100  1  0.38075300  0.22962600  0.54214500  1
  Hg  Hg101  1  0.07705300  0.53332600  0.56362500  1
  Hg  Hg102  1  0.80433700  0.19566300  0.55063500  1
  Hg  Hg103  1  0.04309000  0.95691000  0.55513400  1
  Hg  Hg104  1  0.77037400  0.61924700  0.54214500  1
  Hg  Hg105  1  0.46667400  0.92294700  0.56362500  1
  Hg  Hg106  1  0.68844500  0.92193300  0.61906800  1
  Hg  Hg107  1  0.38474500  0.22563400  0.64054800  1
  Hg  Hg108  1  0.11202900  0.88797100  0.62755800  1
  Hg  Hg109  1  0.35078200  0.64921800  0.63205700  1
  Hg  Hg110  1  0.07806700  0.31155500  0.61906800  1
  Hg  Hg111  1  0.77436600  0.61525500  0.64054800  1
  Hg  Hg112  1  0.99613800  0.61424100  0.69599100  1
  Hg  Hg113  1  0.69243700  0.91794100  0.71747100  1
  Hg  Hg114  1  0.41972200  0.58027800  0.70448100  1
  Hg  Hg115  1  0.65847500  0.34152500  0.70898000  1
  Hg  Hg116  1  0.38575900  0.00386200  0.69599100  1
  Hg  Hg117  1  0.08205900  0.30756300  0.71747100  1
