# generated using pymatgen
data_Ho8Mg37
_symmetry_space_group_name_H-M   'P 1'
_cell_length_a   6.18220983
_cell_length_b   7.97297260
_cell_length_c   41.97117300
_cell_angle_alpha   92.57119793
_cell_angle_beta   91.98153646
_cell_angle_gamma   112.06633649
_symmetry_Int_Tables_number   1
_chemical_formula_structural   Ho8Mg37
_chemical_formula_sum   'Ho8 Mg37'
_cell_volume   1912.35664128
_cell_formula_units_Z   1
loop_
 _symmetry_equiv_pos_site_id
 _symmetry_equiv_pos_as_xyz
  1  'x, y, z'
loop_
 _atom_site_type_symbol
 _atom_site_label
 _atom_site_symmetry_multiplicity
 _atom_site_fract_x
 _atom_site_fract_y
 _atom_site_fract_z
 _atom_site_occupancy
  Ho  Ho0  1  0.48426700  0.61713300  0.75000000  1
  Ho  Ho1  1  0.71503600  0.77098000  0.67307700  1
  Ho  Ho2  1  0.94580500  0.92482600  0.59615400  1
  Ho  Ho3  1  0.17657500  0.07867200  0.51923100  1
  Ho  Ho4  1  0.40734400  0.23251800  0.44230800  1
  Ho  Ho5  1  0.63811300  0.38636400  0.36538500  1
  Ho  Ho6  1  0.86888200  0.54021000  0.28846200  1
  Ho  Ho7  1  0.09965200  0.69405700  0.21153800  1
  Mg  Mg8  1  0.04448800  0.81164500  0.73832100  1
  Mg  Mg9  1  0.92404600  0.42262200  0.76167900  1
  Mg  Mg10  1  0.27525700  0.96549100  0.66139800  1
  Mg  Mg11  1  0.56185600  0.01384500  0.72496700  1
  Mg  Mg12  1  0.09965200  0.19405700  0.71153800  1
  Mg  Mg13  1  0.63744700  0.37426800  0.69811000  1
  Mg  Mg14  1  0.15481500  0.57646800  0.68475600  1
  Mg  Mg15  1  0.50602700  0.11933700  0.58447400  1
  Mg  Mg16  1  0.79262500  0.16769200  0.64804400  1
  Mg  Mg17  1  0.33042100  0.34790300  0.63461500  1
  Mg  Mg18  1  0.86821600  0.52811400  0.62118700  1
  Mg  Mg19  1  0.38558400  0.73031500  0.60783300  1
  Mg  Mg20  1  0.73679600  0.27318300  0.50755100  1
  Mg  Mg21  1  0.02339400  0.32153800  0.57112100  1
  Mg  Mg22  1  0.56119000  0.50174900  0.55769200  1
  Mg  Mg23  1  0.09898600  0.68196000  0.54426400  1
  Mg  Mg24  1  0.61635300  0.88416100  0.53091000  1
  Mg  Mg25  1  0.96756500  0.42702900  0.43062800  1
  Mg  Mg26  1  0.25416400  0.47538400  0.49419700  1
  Mg  Mg27  1  0.79195900  0.65559500  0.48076900  1
  Mg  Mg28  1  0.32975500  0.83580600  0.46734100  1
  Mg  Mg29  1  0.84712300  0.03800700  0.45398700  1
  Mg  Mg30  1  0.19833400  0.58087500  0.35370500  1
  Mg  Mg31  1  0.48493300  0.62923000  0.41727400  1
  Mg  Mg32  1  0.02272800  0.80944100  0.40384600  1
  Mg  Mg33  1  0.56052400  0.98965200  0.39041800  1
  Mg  Mg34  1  0.07789200  0.19185300  0.37706400  1
  Mg  Mg35  1  0.42910400  0.73472200  0.27678200  1
  Mg  Mg36  1  0.71570200  0.78307600  0.34035100  1
  Mg  Mg37  1  0.25349800  0.96328700  0.32692300  1
  Mg  Mg38  1  0.79129300  0.14349800  0.31349500  1
  Mg  Mg39  1  0.30866100  0.34569900  0.30014100  1
  Mg  Mg40  1  0.65987300  0.88856800  0.19985900  1
  Mg  Mg41  1  0.94647100  0.93692200  0.26342800  1
  Mg  Mg42  1  0.48426700  0.11713300  0.25000000  1
  Mg  Mg43  1  0.02206200  0.29734500  0.23657200  1
  Mg  Mg44  1  0.53943000  0.49954500  0.22321800  1
