# generated using pymatgen
data_Pr12Mg7
_symmetry_space_group_name_H-M   'P 1'
_cell_length_a   5.72809200
_cell_length_b   8.96230627
_cell_length_c   41.55273300
_cell_angle_alpha   89.69346189
_cell_angle_beta   90.00000000
_cell_angle_gamma   90.00000000
_symmetry_Int_Tables_number   1
_chemical_formula_structural   Pr12Mg7
_chemical_formula_sum   'Pr24 Mg14'
_cell_volume   2133.15858512
_cell_formula_units_Z   2
loop_
 _symmetry_equiv_pos_site_id
 _symmetry_equiv_pos_as_xyz
  1  'x, y, z'
loop_
 _atom_site_type_symbol
 _atom_site_label
 _atom_site_symmetry_multiplicity
 _atom_site_fract_x
 _atom_site_fract_y
 _atom_site_fract_z
 _atom_site_occupancy
  Pr  Pr0  1  0.25000000  0.28509900  0.74975200  1
  Pr  Pr1  1  0.25000000  0.67399700  0.77885200  1
  Pr  Pr2  1  0.75000000  0.95651300  0.76539900  1
  Pr  Pr3  1  0.75000000  0.56761600  0.73629900  1
  Pr  Pr4  1  0.25000000  0.19419000  0.65884300  1
  Pr  Pr5  1  0.25000000  0.58308800  0.68794300  1
  Pr  Pr6  1  0.75000000  0.86560400  0.67449000  1
  Pr  Pr7  1  0.75000000  0.47670700  0.64539000  1
  Pr  Pr8  1  0.25000000  0.10328100  0.56793400  1
  Pr  Pr9  1  0.25000000  0.49217900  0.59703400  1
  Pr  Pr10  1  0.75000000  0.77469500  0.58358100  1
  Pr  Pr11  1  0.75000000  0.38579700  0.55448100  1
  Pr  Pr12  1  0.25000000  0.01237200  0.47702500  1
  Pr  Pr13  1  0.25000000  0.40127000  0.50612500  1
  Pr  Pr14  1  0.75000000  0.68378600  0.49267200  1
  Pr  Pr15  1  0.75000000  0.29488800  0.46357200  1
  Pr  Pr16  1  0.25000000  0.92146300  0.38611600  1
  Pr  Pr17  1  0.25000000  0.31036100  0.41521600  1
  Pr  Pr18  1  0.75000000  0.59287700  0.40176300  1
  Pr  Pr19  1  0.75000000  0.20397900  0.37266300  1
  Pr  Pr20  1  0.25000000  0.83055400  0.29520700  1
  Pr  Pr21  1  0.25000000  0.21945200  0.32430700  1
  Pr  Pr22  1  0.75000000  0.50196800  0.31085400  1
  Pr  Pr23  1  0.75000000  0.11307000  0.28175400  1
  Mg  Mg24  1  0.25000000  0.02911100  0.80956100  1
  Mg  Mg25  1  0.75000000  0.30341000  0.79649900  1
  Mg  Mg26  1  0.25000000  0.93820200  0.71865200  1
  Mg  Mg27  1  0.75000000  0.21250100  0.70559000  1
  Mg  Mg28  1  0.25000000  0.84729300  0.62774300  1
  Mg  Mg29  1  0.75000000  0.12159200  0.61468100  1
  Mg  Mg30  1  0.25000000  0.75638400  0.53683400  1
  Mg  Mg31  1  0.75000000  0.03068300  0.52377200  1
  Mg  Mg32  1  0.25000000  0.66547500  0.44592500  1
  Mg  Mg33  1  0.75000000  0.93977400  0.43286300  1
  Mg  Mg34  1  0.25000000  0.57456600  0.35501600  1
  Mg  Mg35  1  0.75000000  0.84886500  0.34195400  1
  Mg  Mg36  1  0.25000000  0.48365700  0.26410700  1
  Mg  Mg37  1  0.75000000  0.75795600  0.25104500  1
