# generated using pymatgen
data_Ba28Mg249
_symmetry_space_group_name_H-M   'P 1'
_cell_length_a   18.31901762
_cell_length_b   18.93828385
_cell_length_c   41.24323200
_cell_angle_alpha   80.05199511
_cell_angle_beta   77.16846902
_cell_angle_gamma   61.07591055
_symmetry_Int_Tables_number   1
_chemical_formula_structural   Ba28Mg249
_chemical_formula_sum   'Ba28 Mg249'
_cell_volume   12175.11810506
_cell_formula_units_Z   1
loop_
 _symmetry_equiv_pos_site_id
 _symmetry_equiv_pos_as_xyz
  1  'x, y, z'
loop_
 _atom_site_type_symbol
 _atom_site_label
 _atom_site_symmetry_multiplicity
 _atom_site_fract_x
 _atom_site_fract_y
 _atom_site_fract_z
 _atom_site_occupancy
  Ba  Ba0  1  0.17505100  0.88073000  0.30418200  1
  Ba  Ba1  1  0.51201900  0.29103700  0.21994000  1
  Ba  Ba2  1  0.84171700  0.29739700  0.22084900  1
  Ba  Ba3  1  0.67868500  0.58270400  0.26160700  1
  Ba  Ba4  1  0.00838400  0.58906400  0.26251600  1
  Ba  Ba5  1  0.84535200  0.87437000  0.30327400  1
  Ba  Ba6  1  0.67505100  0.75573000  0.42918200  1
  Ba  Ba7  1  0.01201900  0.16603700  0.34494000  1
  Ba  Ba8  1  0.34171700  0.17239700  0.34584900  1
  Ba  Ba9  1  0.17868500  0.45770400  0.38660700  1
  Ba  Ba10  1  0.50838400  0.46406400  0.38751600  1
  Ba  Ba11  1  0.34535200  0.74937000  0.42827400  1
  Ba  Ba12  1  0.17505100  0.63073000  0.55418200  1
  Ba  Ba13  1  0.51201900  0.04103700  0.46994000  1
  Ba  Ba14  1  0.84171700  0.04739700  0.47084900  1
  Ba  Ba15  1  0.67868500  0.33270400  0.51160700  1
  Ba  Ba16  1  0.00838400  0.33906400  0.51251600  1
  Ba  Ba17  1  0.84535200  0.62437000  0.55327400  1
  Ba  Ba18  1  0.67505100  0.50573000  0.67918200  1
  Ba  Ba19  1  0.01201900  0.91603700  0.59494000  1
  Ba  Ba20  1  0.34171700  0.92239700  0.59584900  1
  Ba  Ba21  1  0.17868500  0.20770400  0.63660700  1
  Ba  Ba22  1  0.50838400  0.21406400  0.63751600  1
  Ba  Ba23  1  0.34535200  0.49937000  0.67827400  1
  Ba  Ba24  1  0.51201900  0.79103700  0.71994000  1
  Ba  Ba25  1  0.84171700  0.79739700  0.72084900  1
  Ba  Ba26  1  0.67868500  0.08270400  0.76160700  1
  Ba  Ba27  1  0.00838400  0.08906400  0.76251600  1
  Mg  Mg28  1  0.86393700  0.96598400  0.21529400  1
  Mg  Mg29  1  0.50258900  0.09682700  0.26444000  1
  Mg  Mg30  1  0.43162700  0.13672700  0.19789600  1
  Mg  Mg31  1  0.29514100  0.67057200  0.27416000  1
  Mg  Mg32  1  0.01020100  0.92941800  0.25186000  1
  Mg  Mg33  1  0.65646500  0.91411600  0.26716200  1
  Mg  Mg34  1  0.00258900  0.09825300  0.26301300  1
  Mg  Mg35  1  0.39192800  0.50119600  0.24996300  1
  Mg  Mg36  1  0.03060400  0.33078300  0.18382900  1
  Mg  Mg37  1  0.34353500  0.08588400  0.26206100  1
  Mg  Mg38  1  0.51020100  0.95068200  0.23059600  1
  Mg  Mg39  1  0.75544300  0.16004000  0.20122700  1
  Mg  Mg40  1  0.18448000  0.07494100  0.25968300  1
  Mg  Mg41  1  0.68448000  0.07351400  0.26111000  1
  Mg  Mg42  1  0.67686800  0.79421700  0.22039500  1
  Mg  Mg43  1  0.32313200  0.25765100  0.25696100  1
  Mg  Mg44  1  0.09353500  0.14838400  0.19956100  1
  Mg  Mg45  1  0.03060400  0.25765100  0.25696100  1
  Mg  Mg46  1  0.66925600  0.38849300  0.30610700  1
  Mg  Mg47  1  0.59829300  0.42839400  0.23956300  1
  Mg  Mg48  1  0.96180800  0.08723800  0.19082600  1
  Mg  Mg49  1  0.17686800  0.22108500  0.29352700  1
  Mg  Mg50  1  0.32313200  0.33078300  0.18382900  1
  Mg  Mg51  1  0.16925600  0.38992000  0.30468000  1
  Mg  Mg52  1  0.55859500  0.79286200  0.29163000  1
  Mg  Mg53  1  0.19727100  0.62245000  0.22549500  1
  Mg  Mg54  1  0.51020100  0.37755000  0.30372800  1
  Mg  Mg55  1  0.67686800  0.24234900  0.27226300  1
  Mg  Mg56  1  0.92210900  0.45170700  0.24289300  1
  Mg  Mg57  1  0.35114700  0.36660700  0.30135000  1
  Mg  Mg58  1  0.85114700  0.36518100  0.30277600  1
  Mg  Mg59  1  0.84353500  0.08588400  0.26206100  1
  Mg  Mg60  1  0.48979900  0.54931800  0.29862700  1
  Mg  Mg61  1  0.26020100  0.44005000  0.24122800  1
  Mg  Mg62  1  0.19727100  0.54931800  0.29862700  1
  Mg  Mg63  1  0.33592300  0.80516000  0.22277300  1
  Mg  Mg64  1  0.76496000  0.72006100  0.28123000  1
  Mg  Mg65  1  0.12847500  0.37890500  0.23249300  1
  Mg  Mg66  1  0.84353500  0.63775200  0.21019300  1
  Mg  Mg67  1  0.48979900  0.62245000  0.22549500  1
  Mg  Mg68  1  0.83592300  0.80658700  0.22134700  1
  Mg  Mg69  1  0.22526100  0.20952900  0.20829600  1
  Mg  Mg70  1  0.36393700  0.91411600  0.26716200  1
  Mg  Mg71  1  0.17686800  0.79421700  0.22039500  1
  Mg  Mg72  1  0.34353500  0.65901600  0.18892900  1
  Mg  Mg73  1  0.08877600  0.74337300  0.28456000  1
  Mg  Mg74  1  0.01781300  0.78327400  0.21801600  1
  Mg  Mg75  1  0.51781300  0.78184700  0.21944300  1
  Mg  Mg76  1  0.01020100  0.37755000  0.30372800  1
  Mg  Mg77  1  0.15646500  0.96598400  0.21529400  1
  Mg  Mg78  1  0.42686800  0.73171700  0.28289500  1
  Mg  Mg79  1  0.36393700  0.84098400  0.34029400  1
  Mg  Mg80  1  0.00258900  0.97182700  0.38944000  1
  Mg  Mg81  1  0.93162700  0.01172700  0.32289600  1
  Mg  Mg82  1  0.79514100  0.54557200  0.39916000  1
  Mg  Mg83  1  0.51020100  0.80441800  0.37686000  1
  Mg  Mg84  1  0.15646500  0.78911600  0.39216200  1
  Mg  Mg85  1  0.50258900  0.97325300  0.38801300  1
  Mg  Mg86  1  0.89192800  0.37619600  0.37496300  1
  Mg  Mg87  1  0.53060400  0.20578300  0.30882900  1
  Mg  Mg88  1  0.84353500  0.96088400  0.38706100  1
  Mg  Mg89  1  0.01020100  0.82568200  0.35559600  1
  Mg  Mg90  1  0.25544300  0.03504000  0.32622700  1
  Mg  Mg91  1  0.68448000  0.94994100  0.38468300  1
  Mg  Mg92  1  0.18448000  0.94851400  0.38611000  1
  Mg  Mg93  1  0.17686800  0.66921700  0.34539500  1
  Mg  Mg94  1  0.82313200  0.13265100  0.38196100  1
  Mg  Mg95  1  0.59353500  0.02338400  0.32456100  1
  Mg  Mg96  1  0.53060400  0.13265100  0.38196100  1
  Mg  Mg97  1  0.16925600  0.26349300  0.43110700  1
  Mg  Mg98  1  0.09829300  0.30339400  0.36456300  1
  Mg  Mg99  1  0.46180800  0.96223800  0.31582600  1
  Mg  Mg100  1  0.67686800  0.09608500  0.41852700  1
  Mg  Mg101  1  0.82313200  0.20578300  0.30882900  1
  Mg  Mg102  1  0.66925600  0.26492000  0.42968000  1
  Mg  Mg103  1  0.05859500  0.66786200  0.41663000  1
  Mg  Mg104  1  0.69727100  0.49745000  0.35049500  1
  Mg  Mg105  1  0.01020100  0.25255000  0.42872800  1
  Mg  Mg106  1  0.17686800  0.11734900  0.39726300  1
  Mg  Mg107  1  0.42210900  0.32670700  0.36789300  1
  Mg  Mg108  1  0.85114700  0.24160700  0.42635000  1
  Mg  Mg109  1  0.35114700  0.24018100  0.42777600  1
  Mg  Mg110  1  0.34353500  0.96088400  0.38706100  1
  Mg  Mg111  1  0.98979900  0.42431800  0.42362700  1
  Mg  Mg112  1  0.76020100  0.31505000  0.36622800  1
  Mg  Mg113  1  0.69727100  0.42431800  0.42362700  1
  Mg  Mg114  1  0.83592300  0.68016000  0.34777300  1
  Mg  Mg115  1  0.26496000  0.59506100  0.40623000  1
  Mg  Mg116  1  0.62847500  0.25390500  0.35749300  1
  Mg  Mg117  1  0.34353500  0.51275200  0.33519300  1
  Mg  Mg118  1  0.98979900  0.49745000  0.35049500  1
  Mg  Mg119  1  0.33592300  0.68158700  0.34634700  1
  Mg  Mg120  1  0.72526100  0.08452900  0.33329600  1
  Mg  Mg121  1  0.86393700  0.78911600  0.39216200  1
  Mg  Mg122  1  0.67686800  0.66921700  0.34539500  1
  Mg  Mg123  1  0.84353500  0.53401600  0.31392900  1
  Mg  Mg124  1  0.58877600  0.61837300  0.40956000  1
  Mg  Mg125  1  0.51781300  0.65827400  0.34301600  1
  Mg  Mg126  1  0.01781300  0.65684700  0.34444300  1
  Mg  Mg127  1  0.51020100  0.25255000  0.42872800  1
  Mg  Mg128  1  0.65646500  0.84098400  0.34029400  1
  Mg  Mg129  1  0.92686800  0.60671700  0.40789500  1
  Mg  Mg130  1  0.86393700  0.71598400  0.46529400  1
  Mg  Mg131  1  0.50258900  0.84682700  0.51444000  1
  Mg  Mg132  1  0.43162700  0.88672700  0.44789600  1
  Mg  Mg133  1  0.29514100  0.42057200  0.52416000  1
  Mg  Mg134  1  0.01020100  0.67941800  0.50186000  1
  Mg  Mg135  1  0.65646500  0.66411600  0.51716200  1
  Mg  Mg136  1  0.00258900  0.84825300  0.51301300  1
  Mg  Mg137  1  0.39192800  0.25119600  0.49996300  1
  Mg  Mg138  1  0.03060400  0.08078300  0.43382900  1
  Mg  Mg139  1  0.34353500  0.83588400  0.51206100  1
  Mg  Mg140  1  0.51020100  0.70068200  0.48059600  1
  Mg  Mg141  1  0.75544300  0.91004000  0.45122700  1
  Mg  Mg142  1  0.18448000  0.82494100  0.50968300  1
  Mg  Mg143  1  0.68448000  0.82351400  0.51111000  1
  Mg  Mg144  1  0.67686800  0.54421700  0.47039500  1
  Mg  Mg145  1  0.32313200  0.00765100  0.50696100  1
  Mg  Mg146  1  0.09353500  0.89838400  0.44956100  1
  Mg  Mg147  1  0.03060400  0.00765100  0.50696100  1
  Mg  Mg148  1  0.66925600  0.13849300  0.55610700  1
  Mg  Mg149  1  0.59829300  0.17839400  0.48956300  1
  Mg  Mg150  1  0.96180800  0.83723800  0.44082600  1
  Mg  Mg151  1  0.17686800  0.97108500  0.54352700  1
  Mg  Mg152  1  0.32313200  0.08078300  0.43382900  1
  Mg  Mg153  1  0.16925600  0.13992000  0.55468000  1
  Mg  Mg154  1  0.55859500  0.54286200  0.54163000  1
  Mg  Mg155  1  0.19727100  0.37245000  0.47549500  1
  Mg  Mg156  1  0.51020100  0.12755000  0.55372800  1
  Mg  Mg157  1  0.67686800  0.99234900  0.52226300  1
  Mg  Mg158  1  0.92210900  0.20170700  0.49289300  1
  Mg  Mg159  1  0.35114700  0.11660700  0.55135000  1
  Mg  Mg160  1  0.85114700  0.11518100  0.55277600  1
  Mg  Mg161  1  0.84353500  0.83588400  0.51206100  1
  Mg  Mg162  1  0.48979900  0.29931800  0.54862700  1
  Mg  Mg163  1  0.26020100  0.19005000  0.49122800  1
  Mg  Mg164  1  0.19727100  0.29931800  0.54862700  1
  Mg  Mg165  1  0.33592300  0.55516000  0.47277300  1
  Mg  Mg166  1  0.76496000  0.47006100  0.53123000  1
  Mg  Mg167  1  0.12847500  0.12890500  0.48249300  1
  Mg  Mg168  1  0.84353500  0.38775200  0.46019300  1
  Mg  Mg169  1  0.48979900  0.37245000  0.47549500  1
  Mg  Mg170  1  0.83592300  0.55658700  0.47134700  1
  Mg  Mg171  1  0.22526100  0.95952900  0.45829600  1
  Mg  Mg172  1  0.36393700  0.66411600  0.51716200  1
  Mg  Mg173  1  0.17686800  0.54421700  0.47039500  1
  Mg  Mg174  1  0.34353500  0.40901600  0.43892900  1
  Mg  Mg175  1  0.08877600  0.49337300  0.53456000  1
  Mg  Mg176  1  0.01781300  0.53327400  0.46801600  1
  Mg  Mg177  1  0.51781300  0.53184700  0.46944300  1
  Mg  Mg178  1  0.01020100  0.12755000  0.55372800  1
  Mg  Mg179  1  0.15646500  0.71598400  0.46529400  1
  Mg  Mg180  1  0.42686800  0.48171700  0.53289500  1
  Mg  Mg181  1  0.36393700  0.59098400  0.59029400  1
  Mg  Mg182  1  0.00258900  0.72182700  0.63944000  1
  Mg  Mg183  1  0.93162700  0.76172700  0.57289600  1
  Mg  Mg184  1  0.79514100  0.29557200  0.64916000  1
  Mg  Mg185  1  0.51020100  0.55441800  0.62686000  1
  Mg  Mg186  1  0.15646500  0.53911600  0.64216200  1
  Mg  Mg187  1  0.50258900  0.72325300  0.63801300  1
  Mg  Mg188  1  0.89192800  0.12619600  0.62496300  1
  Mg  Mg189  1  0.53060400  0.95578300  0.55882900  1
  Mg  Mg190  1  0.84353500  0.71088400  0.63706100  1
  Mg  Mg191  1  0.01020100  0.57568200  0.60559600  1
  Mg  Mg192  1  0.25544300  0.78504000  0.57622700  1
  Mg  Mg193  1  0.68448000  0.69994100  0.63468300  1
  Mg  Mg194  1  0.18448000  0.69851400  0.63611000  1
  Mg  Mg195  1  0.17686800  0.41921700  0.59539500  1
  Mg  Mg196  1  0.82313200  0.88265100  0.63196100  1
  Mg  Mg197  1  0.59353500  0.77338400  0.57456100  1
  Mg  Mg198  1  0.53060400  0.88265100  0.63196100  1
  Mg  Mg199  1  0.16925600  0.01349300  0.68110700  1
  Mg  Mg200  1  0.09829300  0.05339400  0.61456300  1
  Mg  Mg201  1  0.46180800  0.71223800  0.56582600  1
  Mg  Mg202  1  0.67686800  0.84608500  0.66852700  1
  Mg  Mg203  1  0.82313200  0.95578300  0.55882900  1
  Mg  Mg204  1  0.66925600  0.01492000  0.67968000  1
  Mg  Mg205  1  0.05859500  0.41786200  0.66663000  1
  Mg  Mg206  1  0.69727100  0.24745000  0.60049500  1
  Mg  Mg207  1  0.01020100  0.00255000  0.67872800  1
  Mg  Mg208  1  0.17686800  0.86734900  0.64726300  1
  Mg  Mg209  1  0.42210900  0.07670700  0.61789300  1
  Mg  Mg210  1  0.85114700  0.99160700  0.67635000  1
  Mg  Mg211  1  0.35114700  0.99018100  0.67777600  1
  Mg  Mg212  1  0.34353500  0.71088400  0.63706100  1
  Mg  Mg213  1  0.98979900  0.17431800  0.67362700  1
  Mg  Mg214  1  0.76020100  0.06505000  0.61622800  1
  Mg  Mg215  1  0.69727100  0.17431800  0.67362700  1
  Mg  Mg216  1  0.83592300  0.43016000  0.59777300  1
  Mg  Mg217  1  0.26496000  0.34506100  0.65623000  1
  Mg  Mg218  1  0.62847500  0.00390500  0.60749300  1
  Mg  Mg219  1  0.34353500  0.26275200  0.58519300  1
  Mg  Mg220  1  0.98979900  0.24745000  0.60049500  1
  Mg  Mg221  1  0.33592300  0.43158700  0.59634700  1
  Mg  Mg222  1  0.72526100  0.83452900  0.58329600  1
  Mg  Mg223  1  0.86393700  0.53911600  0.64216200  1
  Mg  Mg224  1  0.67686800  0.41921700  0.59539500  1
  Mg  Mg225  1  0.84353500  0.28401600  0.56392900  1
  Mg  Mg226  1  0.58877600  0.36837300  0.65956000  1
  Mg  Mg227  1  0.51781300  0.40827400  0.59301600  1
  Mg  Mg228  1  0.01781300  0.40684700  0.59444300  1
  Mg  Mg229  1  0.51020100  0.00255000  0.67872800  1
  Mg  Mg230  1  0.65646500  0.59098400  0.59029400  1
  Mg  Mg231  1  0.92686800  0.35671700  0.65789500  1
  Mg  Mg232  1  0.86393700  0.46598400  0.71529400  1
  Mg  Mg233  1  0.50258900  0.59682700  0.76444000  1
  Mg  Mg234  1  0.43162700  0.63672700  0.69789600  1
  Mg  Mg235  1  0.29514100  0.17057200  0.77416000  1
  Mg  Mg236  1  0.01020100  0.42941800  0.75186000  1
  Mg  Mg237  1  0.65646500  0.41411600  0.76716200  1
  Mg  Mg238  1  0.00258900  0.59825300  0.76301300  1
  Mg  Mg239  1  0.39192800  0.00119600  0.74996300  1
  Mg  Mg240  1  0.03060400  0.83078300  0.68382900  1
  Mg  Mg241  1  0.34353500  0.58588400  0.76206100  1
  Mg  Mg242  1  0.51020100  0.45068200  0.73059600  1
  Mg  Mg243  1  0.75544300  0.66004000  0.70122700  1
  Mg  Mg244  1  0.18448000  0.57494100  0.75968300  1
  Mg  Mg245  1  0.68448000  0.57351400  0.76111000  1
  Mg  Mg246  1  0.67686800  0.29421700  0.72039500  1
  Mg  Mg247  1  0.32313200  0.75765100  0.75696100  1
  Mg  Mg248  1  0.09353500  0.64838400  0.69956100  1
  Mg  Mg249  1  0.03060400  0.75765100  0.75696100  1
  Mg  Mg250  1  0.59829300  0.92839400  0.73956300  1
  Mg  Mg251  1  0.96180800  0.58723800  0.69082600  1
  Mg  Mg252  1  0.17686800  0.72108500  0.79352700  1
  Mg  Mg253  1  0.32313200  0.83078300  0.68382900  1
  Mg  Mg254  1  0.55859500  0.29286200  0.79163000  1
  Mg  Mg255  1  0.19727100  0.12245000  0.72549500  1
  Mg  Mg256  1  0.67686800  0.74234900  0.77226300  1
  Mg  Mg257  1  0.92210900  0.95170700  0.74289300  1
  Mg  Mg258  1  0.84353500  0.58588400  0.76206100  1
  Mg  Mg259  1  0.48979900  0.04931800  0.79862700  1
  Mg  Mg260  1  0.26020100  0.94005000  0.74122800  1
  Mg  Mg261  1  0.19727100  0.04931800  0.79862700  1
  Mg  Mg262  1  0.33592300  0.30516000  0.72277300  1
  Mg  Mg263  1  0.76496000  0.22006100  0.78123000  1
  Mg  Mg264  1  0.12847500  0.87890500  0.73249300  1
  Mg  Mg265  1  0.84353500  0.13775200  0.71019300  1
  Mg  Mg266  1  0.48979900  0.12245000  0.72549500  1
  Mg  Mg267  1  0.83592300  0.30658700  0.72134700  1
  Mg  Mg268  1  0.22526100  0.70952900  0.70829600  1
  Mg  Mg269  1  0.36393700  0.41411600  0.76716200  1
  Mg  Mg270  1  0.17686800  0.29421700  0.72039500  1
  Mg  Mg271  1  0.34353500  0.15901600  0.68892900  1
  Mg  Mg272  1  0.08877600  0.24337300  0.78456000  1
  Mg  Mg273  1  0.01781300  0.28327400  0.71801600  1
  Mg  Mg274  1  0.51781300  0.28184700  0.71944300  1
  Mg  Mg275  1  0.15646500  0.46598400  0.71529400  1
  Mg  Mg276  1  0.42686800  0.23171700  0.78289500  1
