# generated using pymatgen
data_La4Mg
_symmetry_space_group_name_H-M   'P 1'
_cell_length_a   5.32060900
_cell_length_b   12.59775361
_cell_length_c   42.56487600
_cell_angle_alpha   90.00000000
_cell_angle_beta   90.00000000
_cell_angle_gamma   102.19109992
_symmetry_Int_Tables_number   1
_chemical_formula_structural   La4Mg
_chemical_formula_sum   'La40 Mg10'
_cell_volume   2788.68720842
_cell_formula_units_Z   10
loop_
 _symmetry_equiv_pos_site_id
 _symmetry_equiv_pos_as_xyz
  1  'x, y, z'
loop_
 _atom_site_type_symbol
 _atom_site_label
 _atom_site_symmetry_multiplicity
 _atom_site_fract_x
 _atom_site_fract_y
 _atom_site_fract_z
 _atom_site_occupancy
  La  La0  1  0.65996600  0.81993300  0.21875000  1
  La  La1  1  0.05326600  0.60653300  0.21875000  1
  La  La2  1  0.44673400  0.39346700  0.21875000  1
  La  La3  1  0.84003400  0.18006700  0.21875000  1
  La  La4  1  0.15996600  0.81993300  0.28125000  1
  La  La5  1  0.55326600  0.60653300  0.28125000  1
  La  La6  1  0.94673400  0.39346700  0.28125000  1
  La  La7  1  0.34003400  0.18006700  0.28125000  1
  La  La8  1  0.65996600  0.81993300  0.34375000  1
  La  La9  1  0.05326600  0.60653300  0.34375000  1
  La  La10  1  0.44673400  0.39346700  0.34375000  1
  La  La11  1  0.84003400  0.18006700  0.34375000  1
  La  La12  1  0.15996600  0.81993300  0.40625000  1
  La  La13  1  0.55326600  0.60653300  0.40625000  1
  La  La14  1  0.94673400  0.39346700  0.40625000  1
  La  La15  1  0.34003400  0.18006700  0.40625000  1
  La  La16  1  0.65996600  0.81993300  0.46875000  1
  La  La17  1  0.05326600  0.60653300  0.46875000  1
  La  La18  1  0.44673400  0.39346700  0.46875000  1
  La  La19  1  0.84003400  0.18006700  0.46875000  1
  La  La20  1  0.15996600  0.81993300  0.53125000  1
  La  La21  1  0.55326600  0.60653300  0.53125000  1
  La  La22  1  0.94673400  0.39346700  0.53125000  1
  La  La23  1  0.34003400  0.18006700  0.53125000  1
  La  La24  1  0.65996600  0.81993300  0.59375000  1
  La  La25  1  0.05326600  0.60653300  0.59375000  1
  La  La26  1  0.44673400  0.39346700  0.59375000  1
  La  La27  1  0.84003400  0.18006700  0.59375000  1
  La  La28  1  0.15996600  0.81993300  0.65625000  1
  La  La29  1  0.55326600  0.60653300  0.65625000  1
  La  La30  1  0.94673400  0.39346700  0.65625000  1
  La  La31  1  0.34003400  0.18006700  0.65625000  1
  La  La32  1  0.65996600  0.81993300  0.71875000  1
  La  La33  1  0.05326600  0.60653300  0.71875000  1
  La  La34  1  0.44673400  0.39346700  0.71875000  1
  La  La35  1  0.84003400  0.18006700  0.71875000  1
  La  La36  1  0.15996600  0.81993300  0.78125000  1
  La  La37  1  0.55326600  0.60653300  0.78125000  1
  La  La38  1  0.94673400  0.39346700  0.78125000  1
  La  La39  1  0.34003400  0.18006700  0.78125000  1
  Mg  Mg40  1  0.25000000  1.00000000  0.21875000  1
  Mg  Mg41  1  0.75000000  0.00000000  0.28125000  1
  Mg  Mg42  1  0.25000000  0.00000000  0.34375000  1
  Mg  Mg43  1  0.75000000  0.00000000  0.40625000  1
  Mg  Mg44  1  0.25000000  0.00000000  0.46875000  1
  Mg  Mg45  1  0.75000000  0.00000000  0.53125000  1
  Mg  Mg46  1  0.25000000  0.00000000  0.59375000  1
  Mg  Mg47  1  0.75000000  0.00000000  0.65625000  1
  Mg  Mg48  1  0.25000000  0.00000000  0.71875000  1
  Mg  Mg49  1  0.75000000  0.00000000  0.78125000  1
