# generated using pymatgen
data_Sm10Mg23
_symmetry_space_group_name_H-M   'P 1'
_cell_length_a   6.11422282
_cell_length_b   6.11422285
_cell_length_c   50.04706800
_cell_angle_alpha   86.49791930
_cell_angle_beta   86.49791928
_cell_angle_gamma   60.00000022
_symmetry_Int_Tables_number   1
_chemical_formula_structural   Sm10Mg23
_chemical_formula_sum   'Sm10 Mg23'
_cell_volume   1616.25084317
_cell_formula_units_Z   1
loop_
 _symmetry_equiv_pos_site_id
 _symmetry_equiv_pos_as_xyz
  1  'x, y, z'
loop_
 _atom_site_type_symbol
 _atom_site_label
 _atom_site_symmetry_multiplicity
 _atom_site_fract_x
 _atom_site_fract_y
 _atom_site_fract_z
 _atom_site_occupancy
  Sm  Sm0  1  0.26250000  0.22500000  0.28750000  1
  Sm  Sm1  1  0.93750000  0.90000000  0.26250000  1
  Sm  Sm2  1  0.56250000  0.52500000  0.38750000  1
  Sm  Sm3  1  0.23750000  0.20000000  0.36250000  1
  Sm  Sm4  1  0.86250000  0.82500000  0.48750000  1
  Sm  Sm5  1  0.53750000  0.50000000  0.46250000  1
  Sm  Sm6  1  0.16250000  0.12500000  0.58750000  1
  Sm  Sm7  1  0.83750000  0.80000000  0.56250000  1
  Sm  Sm8  1  0.46250000  0.42500000  0.68750000  1
  Sm  Sm9  1  0.13750000  0.10000000  0.66250000  1
  Mg  Mg10  1  0.60000000  0.56250000  0.27500000  1
  Mg  Mg11  1  0.95000000  0.41250000  0.22500000  1
  Mg  Mg12  1  0.45000000  0.91250000  0.22500000  1
  Mg  Mg13  1  0.45000000  0.41250000  0.22500000  1
  Mg  Mg14  1  0.90000000  0.86250000  0.37500000  1
  Mg  Mg15  1  0.25000000  0.71250000  0.32500000  1
  Mg  Mg16  1  0.75000000  0.21250000  0.32500000  1
  Mg  Mg17  1  0.75000000  0.71250000  0.32500000  1
  Mg  Mg18  1  0.20000000  0.16250000  0.47500000  1
  Mg  Mg19  1  0.55000000  0.01250000  0.42500000  1
  Mg  Mg20  1  0.05000000  0.51250000  0.42500000  1
  Mg  Mg21  1  0.05000000  0.01250000  0.42500000  1
  Mg  Mg22  1  0.50000000  0.46250000  0.57500000  1
  Mg  Mg23  1  0.85000000  0.31250000  0.52500000  1
  Mg  Mg24  1  0.35000000  0.81250000  0.52500000  1
  Mg  Mg25  1  0.35000000  0.31250000  0.52500000  1
  Mg  Mg26  1  0.80000000  0.76250000  0.67500000  1
  Mg  Mg27  1  0.15000000  0.61250000  0.62500000  1
  Mg  Mg28  1  0.65000000  0.11250000  0.62500000  1
  Mg  Mg29  1  0.65000000  0.61250000  0.62500000  1
  Mg  Mg30  1  0.45000000  0.91250000  0.72500000  1
  Mg  Mg31  1  0.95000000  0.41250000  0.72500000  1
  Mg  Mg32  1  0.95000000  0.91250000  0.72500000  1
