# generated using pymatgen
data_MgB4
_symmetry_space_group_name_H-M   'P 1'
_cell_length_a   5.48489200
_cell_length_b   8.63140273
_cell_length_c   41.64186800
_cell_angle_alpha   88.27871752
_cell_angle_beta   90.00000000
_cell_angle_gamma   90.00000000
_symmetry_Int_Tables_number   1
_chemical_formula_structural   MgB4
_chemical_formula_sum   'Mg28 B112'
_cell_volume   1970.53273726
_cell_formula_units_Z   28
loop_
 _symmetry_equiv_pos_site_id
 _symmetry_equiv_pos_as_xyz
  1  'x, y, z'
loop_
 _atom_site_type_symbol
 _atom_site_label
 _atom_site_symmetry_multiplicity
 _atom_site_fract_x
 _atom_site_fract_y
 _atom_site_fract_z
 _atom_site_occupancy
  Mg  Mg0  1  0.45432300  0.53202600  0.21707100  1
  Mg  Mg1  1  0.54567700  0.19524700  0.23747400  1
  Mg  Mg2  1  0.95432300  0.69524700  0.23747400  1
  Mg  Mg3  1  0.04567700  0.03202600  0.21707100  1
  Mg  Mg4  1  0.45432300  0.25929900  0.30798100  1
  Mg  Mg5  1  0.54567700  0.92252000  0.32838300  1
  Mg  Mg6  1  0.95432300  0.42252000  0.32838300  1
  Mg  Mg7  1  0.04567700  0.75929900  0.30798100  1
  Mg  Mg8  1  0.45432300  0.98657100  0.39889000  1
  Mg  Mg9  1  0.54567700  0.64979200  0.41929200  1
  Mg  Mg10  1  0.95432300  0.14979200  0.41929200  1
  Mg  Mg11  1  0.04567700  0.48657100  0.39889000  1
  Mg  Mg12  1  0.45432300  0.71384400  0.48979900  1
  Mg  Mg13  1  0.54567700  0.37706500  0.51020100  1
  Mg  Mg14  1  0.95432300  0.87706500  0.51020100  1
  Mg  Mg15  1  0.04567700  0.21384400  0.48979900  1
  Mg  Mg16  1  0.45432300  0.44111700  0.58070800  1
  Mg  Mg17  1  0.54567700  0.10433800  0.60111000  1
  Mg  Mg18  1  0.95432300  0.60433800  0.60111000  1
  Mg  Mg19  1  0.04567700  0.94111700  0.58070800  1
  Mg  Mg20  1  0.45432300  0.16839000  0.67161700  1
  Mg  Mg21  1  0.54567700  0.83161000  0.69201900  1
  Mg  Mg22  1  0.95432300  0.33161000  0.69201900  1
  Mg  Mg23  1  0.04567700  0.66839000  0.67161700  1
  Mg  Mg24  1  0.45432300  0.89566200  0.76252600  1
  Mg  Mg25  1  0.54567700  0.55888300  0.78292900  1
  Mg  Mg26  1  0.95432300  0.05888300  0.78292900  1
  Mg  Mg27  1  0.04567700  0.39566200  0.76252600  1
  B  B28  1  0.77761600  0.90722800  0.26397200  1
  B  B29  1  0.22238400  0.82004500  0.19057400  1
  B  B30  1  0.27761600  0.32004500  0.19057400  1
  B  B31  1  0.72238400  0.40722800  0.26397200  1
  B  B32  1  0.94662700  0.32495200  0.19118700  1
  B  B33  1  0.05337300  0.40232100  0.26335800  1
  B  B34  1  0.44662700  0.90232100  0.26335800  1
  B  B35  1  0.55337300  0.82495200  0.19118700  1
  B  B36  1  0.36767100  0.69711400  0.26170700  1
  B  B37  1  0.63232900  0.92543400  0.22774700  1
  B  B38  1  0.86767100  0.53015900  0.19283900  1
  B  B39  1  0.13232900  0.30183900  0.22679900  1
  B  B40  1  0.63232900  0.03015900  0.19283900  1
  B  B41  1  0.36767100  0.80183900  0.22679900  1
  B  B42  1  0.13232900  0.19711400  0.26170700  1
  B  B43  1  0.86767100  0.42543400  0.22774700  1
  B  B44  1  0.77761600  0.63450100  0.35488100  1
  B  B45  1  0.22238400  0.54731700  0.28148300  1
  B  B46  1  0.27761600  0.04731700  0.28148300  1
  B  B47  1  0.72238400  0.13450100  0.35488100  1
  B  B48  1  0.94662700  0.05222400  0.28209600  1
  B  B49  1  0.05337300  0.12959400  0.35426700  1
  B  B50  1  0.44662700  0.62959400  0.35426700  1
  B  B51  1  0.55337300  0.55222400  0.28209600  1
  B  B52  1  0.36767100  0.42438700  0.35261600  1
  B  B53  1  0.63232900  0.65270700  0.31865600  1
  B  B54  1  0.86767100  0.25743100  0.28374800  1
  B  B55  1  0.13232900  0.02911200  0.31770800  1
  B  B56  1  0.63232900  0.75743100  0.28374800  1
  B  B57  1  0.36767100  0.52911200  0.31770800  1
  B  B58  1  0.13232900  0.92438700  0.35261600  1
  B  B59  1  0.86767100  0.15270700  0.31865600  1
  B  B60  1  0.77761600  0.36177400  0.44579000  1
  B  B61  1  0.22238400  0.27459000  0.37239200  1
  B  B62  1  0.27761600  0.77459000  0.37239200  1
  B  B63  1  0.72238400  0.86177400  0.44579000  1
  B  B64  1  0.94662700  0.77949700  0.37300500  1
  B  B65  1  0.05337300  0.85686600  0.44517600  1
  B  B66  1  0.44662700  0.35686600  0.44517600  1
  B  B67  1  0.55337300  0.27949700  0.37300500  1
  B  B68  1  0.36767100  0.15166000  0.44352500  1
  B  B69  1  0.63232900  0.37997900  0.40956500  1
  B  B70  1  0.86767100  0.98470400  0.37465700  1
  B  B71  1  0.13232900  0.75638400  0.40861700  1
  B  B72  1  0.63232900  0.48470400  0.37465700  1
  B  B73  1  0.36767100  0.25638400  0.40861700  1
  B  B74  1  0.13232900  0.65166000  0.44352500  1
  B  B75  1  0.86767100  0.87997900  0.40956500  1
  B  B76  1  0.77761600  0.08904600  0.53669900  1
  B  B77  1  0.22238400  0.00186300  0.46330100  1
  B  B78  1  0.27761600  0.50186300  0.46330100  1
  B  B79  1  0.72238400  0.58904600  0.53669900  1
  B  B80  1  0.94662700  0.50677000  0.46391400  1
  B  B81  1  0.05337300  0.58413900  0.53608600  1
  B  B82  1  0.44662700  0.08413900  0.53608600  1
  B  B83  1  0.55337300  0.00677000  0.46391400  1
  B  B84  1  0.36767100  0.87893200  0.53443400  1
  B  B85  1  0.63232900  0.10725200  0.50047400  1
  B  B86  1  0.86767100  0.71197700  0.46556600  1
  B  B87  1  0.13232900  0.48365700  0.49952600  1
  B  B88  1  0.63232900  0.21197700  0.46556600  1
  B  B89  1  0.36767100  0.98365700  0.49952600  1
  B  B90  1  0.13232900  0.37893200  0.53443400  1
  B  B91  1  0.86767100  0.60725200  0.50047400  1
  B  B92  1  0.77761600  0.81631900  0.62760800  1
  B  B93  1  0.22238400  0.72913600  0.55421000  1
  B  B94  1  0.27761600  0.22913600  0.55421000  1
  B  B95  1  0.72238400  0.31631900  0.62760800  1
  B  B96  1  0.94662700  0.23404300  0.55482400  1
  B  B97  1  0.05337300  0.31141200  0.62699500  1
  B  B98  1  0.44662700  0.81141200  0.62699500  1
  B  B99  1  0.55337300  0.73404300  0.55482400  1
  B  B100  1  0.36767100  0.60620500  0.62534300  1
  B  B101  1  0.63232900  0.83452500  0.59138300  1
  B  B102  1  0.86767100  0.43924900  0.55647500  1
  B  B103  1  0.13232900  0.21093000  0.59043500  1
  B  B104  1  0.63232900  0.93924900  0.55647500  1
  B  B105  1  0.36767100  0.71093000  0.59043500  1
  B  B106  1  0.13232900  0.10620500  0.62534300  1
  B  B107  1  0.86767100  0.33452500  0.59138300  1
  B  B108  1  0.77761600  0.54359200  0.71851700  1
  B  B109  1  0.22238400  0.45640800  0.64511900  1
  B  B110  1  0.27761600  0.95640800  0.64511900  1
  B  B111  1  0.72238400  0.04359200  0.71851700  1
  B  B112  1  0.94662700  0.96131500  0.64573300  1
  B  B113  1  0.05337300  0.03868500  0.71790400  1
  B  B114  1  0.44662700  0.53868500  0.71790400  1
  B  B115  1  0.55337300  0.46131500  0.64573300  1
  B  B116  1  0.36767100  0.33347800  0.71625200  1
  B  B117  1  0.63232900  0.56179800  0.68229200  1
  B  B118  1  0.86767100  0.16652200  0.64738400  1
  B  B119  1  0.13232900  0.93820200  0.68134400  1
  B  B120  1  0.63232900  0.66652200  0.64738400  1
  B  B121  1  0.36767100  0.43820200  0.68134400  1
  B  B122  1  0.13232900  0.83347800  0.71625200  1
  B  B123  1  0.86767100  0.06179800  0.68229200  1
  B  B124  1  0.77761600  0.27086400  0.80942600  1
  B  B125  1  0.22238400  0.18368100  0.73602800  1
  B  B126  1  0.27761600  0.68368100  0.73602800  1
  B  B127  1  0.72238400  0.77086400  0.80942600  1
  B  B128  1  0.94662700  0.68858800  0.73664200  1
  B  B129  1  0.05337300  0.76595700  0.80881300  1
  B  B130  1  0.44662700  0.26595700  0.80881300  1
  B  B131  1  0.55337300  0.18858800  0.73664200  1
  B  B132  1  0.36767100  0.06075100  0.80716100  1
  B  B133  1  0.63232900  0.28907000  0.77320100  1
  B  B134  1  0.86767100  0.89379500  0.73829300  1
  B  B135  1  0.13232900  0.66547500  0.77225300  1
  B  B136  1  0.63232900  0.39379500  0.73829300  1
  B  B137  1  0.36767100  0.16547500  0.77225300  1
  B  B138  1  0.13232900  0.56075100  0.80716100  1
  B  B139  1  0.86767100  0.78907000  0.77320100  1
