# generated using pymatgen
data_MgZn
_symmetry_space_group_name_H-M   'P 1'
_cell_length_a   5.65220468
_cell_length_b   5.81071439
_cell_length_c   42.02870200
_cell_angle_alpha   90.90998255
_cell_angle_beta   87.55997189
_cell_angle_gamma   71.00987415
_symmetry_Int_Tables_number   1
_chemical_formula_structural   MgZn
_chemical_formula_sum   'Mg22 Zn22'
_cell_volume   1303.40698458
_cell_formula_units_Z   22
loop_
 _symmetry_equiv_pos_site_id
 _symmetry_equiv_pos_as_xyz
  1  'x, y, z'
loop_
 _atom_site_type_symbol
 _atom_site_label
 _atom_site_symmetry_multiplicity
 _atom_site_fract_x
 _atom_site_fract_y
 _atom_site_fract_z
 _atom_site_occupancy
  Mg  Mg0  1  0.48361400  0.99588100  0.24772200  1
  Mg  Mg1  1  0.23860800  0.78189700  0.19672300  1
  Mg  Mg2  1  0.20583600  0.77365900  0.30327700  1
  Mg  Mg3  1  0.96083100  0.55967400  0.25227800  1
  Mg  Mg4  1  0.92805800  0.55143700  0.35883300  1
  Mg  Mg5  1  0.68305300  0.33745200  0.30783400  1
  Mg  Mg6  1  0.65028100  0.32921500  0.41438800  1
  Mg  Mg7  1  0.40527500  0.11523000  0.36338900  1
  Mg  Mg8  1  0.37250300  0.10699200  0.46994400  1
  Mg  Mg9  1  0.12749700  0.89300800  0.41894500  1
  Mg  Mg10  1  0.09472500  0.88477000  0.52549900  1
  Mg  Mg11  1  0.84971900  0.67078500  0.47450100  1
  Mg  Mg12  1  0.81694700  0.66254800  0.58105500  1
  Mg  Mg13  1  0.57194200  0.44856300  0.53005600  1
  Mg  Mg14  1  0.53916900  0.44032600  0.63661100  1
  Mg  Mg15  1  0.29416400  0.22634100  0.58561200  1
  Mg  Mg16  1  0.26139200  0.21810300  0.69216600  1
  Mg  Mg17  1  0.01638600  0.00411900  0.64116700  1
  Mg  Mg18  1  0.98361400  0.99588100  0.74772200  1
  Mg  Mg19  1  0.73860800  0.78189700  0.69672300  1
  Mg  Mg20  1  0.70583600  0.77365900  0.80327700  1
  Mg  Mg21  1  0.46083100  0.55967400  0.75227800  1
  Zn  Zn22  1  0.48836300  0.48258400  0.24677200  1
  Zn  Zn23  1  0.23385900  0.29519400  0.19767300  1
  Zn  Zn24  1  0.21058500  0.26036200  0.30232700  1
  Zn  Zn25  1  0.95608200  0.07297200  0.25322800  1
  Zn  Zn26  1  0.93280700  0.03814000  0.35788300  1
  Zn  Zn27  1  0.67830400  0.85074900  0.30878400  1
  Zn  Zn28  1  0.65503000  0.81591700  0.41343900  1
  Zn  Zn29  1  0.40052600  0.62852700  0.36433900  1
  Zn  Zn30  1  0.37725200  0.59369500  0.46899400  1
  Zn  Zn31  1  0.12274800  0.40630500  0.41989500  1
  Zn  Zn32  1  0.09947400  0.37147300  0.52455000  1
  Zn  Zn33  1  0.84497000  0.18408300  0.47545000  1
  Zn  Zn34  1  0.82169600  0.14925100  0.58010500  1
  Zn  Zn35  1  0.56719300  0.96186000  0.53100600  1
  Zn  Zn36  1  0.54391800  0.92702800  0.63566100  1
  Zn  Zn37  1  0.28941500  0.73963800  0.58656100  1
  Zn  Zn38  1  0.26614100  0.70480600  0.69121600  1
  Zn  Zn39  1  0.01163700  0.51741600  0.64211700  1
  Zn  Zn40  1  0.98836300  0.48258400  0.74677200  1
  Zn  Zn41  1  0.73385900  0.29519400  0.69767300  1
  Zn  Zn42  1  0.71058500  0.26036200  0.80232700  1
  Zn  Zn43  1  0.45608200  0.07297200  0.75322800  1
