# generated using pymatgen
data_Mg60Ir89
_symmetry_space_group_name_H-M   'P 1'
_cell_length_a   9.72091470
_cell_length_b   10.02721169
_cell_length_c   42.99921300
_cell_angle_alpha   94.02267208
_cell_angle_beta   94.30460560
_cell_angle_gamma   92.31047724
_symmetry_Int_Tables_number   1
_chemical_formula_structural   Mg60Ir89
_chemical_formula_sum   'Mg60 Ir89'
_cell_volume   4164.79203527
_cell_formula_units_Z   1
loop_
 _symmetry_equiv_pos_site_id
 _symmetry_equiv_pos_as_xyz
  1  'x, y, z'
loop_
 _atom_site_type_symbol
 _atom_site_label
 _atom_site_symmetry_multiplicity
 _atom_site_fract_x
 _atom_site_fract_y
 _atom_site_fract_z
 _atom_site_occupancy
  Mg  Mg0  1  0.62532900  0.12954300  0.21552000  1
  Mg  Mg1  1  0.67291100  0.17909700  0.28848000  1
  Mg  Mg2  1  0.03377300  0.55626300  0.25821300  1
  Mg  Mg3  1  0.26446700  0.75237700  0.24578700  1
  Mg  Mg4  1  0.54112700  0.67824700  0.27847300  1
  Mg  Mg5  1  0.75711300  0.63039200  0.22552700  1
  Mg  Mg6  1  0.34696200  0.02910900  0.20955900  1
  Mg  Mg7  1  0.95127800  0.27953100  0.29444100  1
  Mg  Mg8  1  0.12730400  0.27502000  0.23175300  1
  Mg  Mg9  1  0.17093600  0.03362000  0.27224700  1
  Mg  Mg10  1  0.52532900  0.42954300  0.31552000  1
  Mg  Mg11  1  0.57291100  0.47909700  0.38848000  1
  Mg  Mg12  1  0.93377300  0.85626300  0.35821300  1
  Mg  Mg13  1  0.16446700  0.05237700  0.34578700  1
  Mg  Mg14  1  0.44112700  0.97824700  0.37847300  1
  Mg  Mg15  1  0.65711300  0.93039200  0.32552700  1
  Mg  Mg16  1  0.24696200  0.32910900  0.30955900  1
  Mg  Mg17  1  0.85127800  0.57953100  0.39444100  1
  Mg  Mg18  1  0.02730400  0.57502000  0.33175300  1
  Mg  Mg19  1  0.07093600  0.33362000  0.37224700  1
  Mg  Mg20  1  0.42532900  0.72954300  0.41552000  1
  Mg  Mg21  1  0.47291100  0.77909700  0.48848000  1
  Mg  Mg22  1  0.83377300  0.15626300  0.45821300  1
  Mg  Mg23  1  0.06446700  0.35237700  0.44578700  1
  Mg  Mg24  1  0.34112700  0.27824700  0.47847300  1
  Mg  Mg25  1  0.55711300  0.23039200  0.42552700  1
  Mg  Mg26  1  0.14696200  0.62910900  0.40955900  1
  Mg  Mg27  1  0.75127800  0.87953100  0.49444100  1
  Mg  Mg28  1  0.92730400  0.87502000  0.43175300  1
  Mg  Mg29  1  0.97093600  0.63362000  0.47224700  1
  Mg  Mg30  1  0.32532900  0.02954300  0.51552000  1
  Mg  Mg31  1  0.37291100  0.07909700  0.58848000  1
  Mg  Mg32  1  0.73377300  0.45626300  0.55821300  1
  Mg  Mg33  1  0.96446700  0.65237700  0.54578700  1
  Mg  Mg34  1  0.24112700  0.57824700  0.57847300  1
  Mg  Mg35  1  0.45711300  0.53039200  0.52552700  1
  Mg  Mg36  1  0.04696200  0.92910900  0.50955900  1
  Mg  Mg37  1  0.65127800  0.17953100  0.59444100  1
  Mg  Mg38  1  0.82730400  0.17502000  0.53175300  1
  Mg  Mg39  1  0.87093600  0.93362000  0.57224700  1
  Mg  Mg40  1  0.22532900  0.32954300  0.61552000  1
  Mg  Mg41  1  0.27291100  0.37909700  0.68848000  1
  Mg  Mg42  1  0.63377300  0.75626300  0.65821300  1
  Mg  Mg43  1  0.86446700  0.95237700  0.64578700  1
  Mg  Mg44  1  0.14112700  0.87824700  0.67847300  1
  Mg  Mg45  1  0.35711300  0.83039200  0.62552700  1
  Mg  Mg46  1  0.94696200  0.22910900  0.60955900  1
  Mg  Mg47  1  0.55127800  0.47953100  0.69444100  1
  Mg  Mg48  1  0.72730400  0.47502000  0.63175300  1
  Mg  Mg49  1  0.77093600  0.23362000  0.67224700  1
  Mg  Mg50  1  0.12532900  0.62954300  0.71552000  1
  Mg  Mg51  1  0.17291100  0.67909700  0.78848000  1
  Mg  Mg52  1  0.53377300  0.05626300  0.75821300  1
  Mg  Mg53  1  0.76446700  0.25237700  0.74578700  1
  Mg  Mg54  1  0.04112700  0.17824700  0.77847300  1
  Mg  Mg55  1  0.25711300  0.13039200  0.72552700  1
  Mg  Mg56  1  0.84696200  0.52910900  0.70955900  1
  Mg  Mg57  1  0.45127800  0.77953100  0.79444100  1
  Mg  Mg58  1  0.62730400  0.77502000  0.73175300  1
  Mg  Mg59  1  0.67093600  0.53362000  0.77224700  1
  Ir  Ir60  1  0.40108300  0.21348100  0.26228000  1
  Ir  Ir61  1  0.89715700  0.09515900  0.24172000  1
  Ir  Ir62  1  0.77802900  0.48946000  0.28720400  1
  Ir  Ir63  1  0.52021100  0.81918000  0.21679600  1
  Ir  Ir64  1  0.47030900  0.96888700  0.26669800  1
  Ir  Ir65  1  0.82793100  0.33975200  0.23730200  1
  Ir  Ir66  1  0.71309100  0.90964700  0.25610100  1
  Ir  Ir67  1  0.58514900  0.39899300  0.24789900  1
  Ir  Ir68  1  0.83773500  0.74039100  0.29172900  1
  Ir  Ir69  1  0.46050600  0.56824900  0.21227100  1
  Ir  Ir70  1  0.32456300  0.46850400  0.25809200  1
  Ir  Ir71  1  0.97367700  0.84013600  0.24590800  1
  Ir  Ir72  1  0.92046500  0.99977300  0.29912000  1
  Ir  Ir73  1  0.37777500  0.30886700  0.20488000  1
  Ir  Ir74  1  0.30108300  0.51348100  0.36228000  1
  Ir  Ir75  1  0.79715700  0.39515900  0.34172000  1
  Ir  Ir76  1  0.67802900  0.78946000  0.38720400  1
  Ir  Ir77  1  0.42021100  0.11918000  0.31679600  1
  Ir  Ir78  1  0.37030900  0.26888700  0.36669800  1
  Ir  Ir79  1  0.72793100  0.63975200  0.33730200  1
  Ir  Ir80  1  0.09912000  0.80432000  0.30200000  1
  Ir  Ir81  1  0.61309100  0.20964700  0.35610100  1
  Ir  Ir82  1  0.48514900  0.69899300  0.34789900  1
  Ir  Ir83  1  0.73773500  0.04039100  0.39172900  1
  Ir  Ir84  1  0.36050600  0.86824900  0.31227100  1
  Ir  Ir85  1  0.22456300  0.76850400  0.35809200  1
  Ir  Ir86  1  0.87367700  0.14013600  0.34590800  1
  Ir  Ir87  1  0.82046500  0.29977300  0.39912000  1
  Ir  Ir88  1  0.27777500  0.60886700  0.30488000  1
  Ir  Ir89  1  0.20108300  0.81348100  0.46228000  1
  Ir  Ir90  1  0.69715700  0.69515900  0.44172000  1
  Ir  Ir91  1  0.57802900  0.08946000  0.48720400  1
  Ir  Ir92  1  0.32021100  0.41918000  0.41679600  1
  Ir  Ir93  1  0.27030900  0.56888700  0.46669800  1
  Ir  Ir94  1  0.62793100  0.93975200  0.43730200  1
  Ir  Ir95  1  0.99912000  0.10432000  0.40200000  1
  Ir  Ir96  1  0.51309100  0.50964700  0.45610100  1
  Ir  Ir97  1  0.38514900  0.99899300  0.44789900  1
  Ir  Ir98  1  0.63773500  0.34039100  0.49172900  1
  Ir  Ir99  1  0.26050600  0.16824900  0.41227100  1
  Ir  Ir100  1  0.12456300  0.06850400  0.45809200  1
  Ir  Ir101  1  0.77367700  0.44013600  0.44590800  1
  Ir  Ir102  1  0.72046500  0.59977300  0.49912000  1
  Ir  Ir103  1  0.17777500  0.90886700  0.40488000  1
  Ir  Ir104  1  0.10108300  0.11348100  0.56228000  1
  Ir  Ir105  1  0.59715700  0.99515900  0.54172000  1
  Ir  Ir106  1  0.47802900  0.38946000  0.58720400  1
  Ir  Ir107  1  0.22021100  0.71918000  0.51679600  1
  Ir  Ir108  1  0.17030900  0.86888700  0.56669800  1
  Ir  Ir109  1  0.52793100  0.23975200  0.53730200  1
  Ir  Ir110  1  0.89912000  0.40432000  0.50200000  1
  Ir  Ir111  1  0.41309100  0.80964700  0.55610100  1
  Ir  Ir112  1  0.28514900  0.29899300  0.54789900  1
  Ir  Ir113  1  0.53773500  0.64039100  0.59172900  1
  Ir  Ir114  1  0.16050600  0.46824900  0.51227100  1
  Ir  Ir115  1  0.02456300  0.36850400  0.55809200  1
  Ir  Ir116  1  0.67367700  0.74013600  0.54590800  1
  Ir  Ir117  1  0.62046500  0.89977300  0.59912000  1
  Ir  Ir118  1  0.07777500  0.20886700  0.50488000  1
  Ir  Ir119  1  0.00108300  0.41348100  0.66228000  1
  Ir  Ir120  1  0.49715700  0.29515900  0.64172000  1
  Ir  Ir121  1  0.37802900  0.68946000  0.68720400  1
  Ir  Ir122  1  0.12021100  0.01918000  0.61679600  1
  Ir  Ir123  1  0.07030900  0.16888700  0.66669800  1
  Ir  Ir124  1  0.42793100  0.53975200  0.63730200  1
  Ir  Ir125  1  0.79912000  0.70432000  0.60200000  1
  Ir  Ir126  1  0.31309100  0.10964700  0.65610100  1
  Ir  Ir127  1  0.18514900  0.59899300  0.64789900  1
  Ir  Ir128  1  0.43773500  0.94039100  0.69172900  1
  Ir  Ir129  1  0.06050600  0.76824900  0.61227100  1
  Ir  Ir130  1  0.92456300  0.66850400  0.65809200  1
  Ir  Ir131  1  0.57367700  0.04013600  0.64590800  1
  Ir  Ir132  1  0.52046500  0.19977300  0.69912000  1
  Ir  Ir133  1  0.97777500  0.50886700  0.60488000  1
  Ir  Ir134  1  0.90108300  0.71348100  0.76228000  1
  Ir  Ir135  1  0.39715700  0.59515900  0.74172000  1
  Ir  Ir136  1  0.27802900  0.98946000  0.78720400  1
  Ir  Ir137  1  0.02021100  0.31918000  0.71679600  1
  Ir  Ir138  1  0.97030900  0.46888700  0.76669800  1
  Ir  Ir139  1  0.32793100  0.83975200  0.73730200  1
  Ir  Ir140  1  0.69912000  0.00432000  0.70200000  1
  Ir  Ir141  1  0.21309100  0.40964700  0.75610100  1
  Ir  Ir142  1  0.08514900  0.89899300  0.74789900  1
  Ir  Ir143  1  0.33773500  0.24039100  0.79172900  1
  Ir  Ir144  1  0.96050600  0.06824900  0.71227100  1
  Ir  Ir145  1  0.82456300  0.96850400  0.75809200  1
  Ir  Ir146  1  0.47367700  0.34013600  0.74590800  1
  Ir  Ir147  1  0.42046500  0.49977300  0.79912000  1
  Ir  Ir148  1  0.87777500  0.80886700  0.70488000  1
