# generated using pymatgen
data_Mg23Zn39
_symmetry_space_group_name_H-M   'P 1'
_cell_length_a   5.07402237
_cell_length_b   17.20699092
_cell_length_c   54.58155700
_cell_angle_alpha   87.89733091
_cell_angle_beta   92.22235669
_cell_angle_gamma   98.42726965
_symmetry_Int_Tables_number   1
_chemical_formula_structural   Mg23Zn39
_chemical_formula_sum   'Mg46 Zn78'
_cell_volume   4708.12472958
_cell_formula_units_Z   2
loop_
 _symmetry_equiv_pos_site_id
 _symmetry_equiv_pos_as_xyz
  1  'x, y, z'
loop_
 _atom_site_type_symbol
 _atom_site_label
 _atom_site_symmetry_multiplicity
 _atom_site_fract_x
 _atom_site_fract_y
 _atom_site_fract_z
 _atom_site_occupancy
  Mg  Mg0  1  0.87146200  0.42096900  0.38905400  1
  Mg  Mg1  1  0.78016900  0.27576900  0.36003600  1
  Mg  Mg2  1  0.49675000  0.68531300  0.38111000  1
  Mg  Mg3  1  0.15488200  0.01142500  0.36798100  1
  Mg  Mg4  1  0.33934900  0.39997800  0.35280600  1
  Mg  Mg5  1  0.31228200  0.29676000  0.39628500  1
  Mg  Mg6  1  0.41985100  0.50887500  0.40470800  1
  Mg  Mg7  1  0.15827500  0.89262000  0.50338400  1
  Mg  Mg8  1  0.87695800  0.29306700  0.52305300  1
  Mg  Mg9  1  0.67146200  0.82096900  0.58905400  1
  Mg  Mg10  1  0.71533200  0.99934800  0.50111300  1
  Mg  Mg11  1  0.45128500  0.50283600  0.46580600  1
  Mg  Mg12  1  0.79331200  0.11502800  0.54614700  1
  Mg  Mg13  1  0.58016900  0.67576900  0.56003600  1
  Mg  Mg14  1  0.29675000  0.08531300  0.58111000  1
  Mg  Mg15  1  0.73629900  0.09738900  0.44797800  1
  Mg  Mg16  1  0.57467300  0.80367100  0.42603800  1
  Mg  Mg17  1  0.95488200  0.41142500  0.56798100  1
  Mg  Mg18  1  0.13934900  0.79997800  0.55280600  1
  Mg  Mg19  1  0.37079900  0.32502800  0.48846000  1
  Mg  Mg20  1  0.08083200  0.77171000  0.46063100  1
  Mg  Mg21  1  0.65831900  0.98171000  0.40294400  1
  Mg  Mg22  1  0.03178000  0.58786300  0.54438300  1
  Mg  Mg23  1  0.00034600  0.59390100  0.48328500  1
  Mg  Mg24  1  0.29335600  0.20411800  0.44570700  1
  Mg  Mg25  1  0.11228200  0.69676000  0.59628500  1
  Mg  Mg26  1  0.21985100  0.90887500  0.60470800  1
  Mg  Mg27  1  0.95827500  0.29262000  0.70338400  1
  Mg  Mg28  1  0.67695800  0.69306700  0.72305300  1
  Mg  Mg29  1  0.47146200  0.22096900  0.78905400  1
  Mg  Mg30  1  0.51533200  0.39934800  0.70111300  1
  Mg  Mg31  1  0.25128500  0.90283600  0.66580600  1
  Mg  Mg32  1  0.59331200  0.51502800  0.74614700  1
  Mg  Mg33  1  0.38016900  0.07576900  0.76003600  1
  Mg  Mg34  1  0.09675000  0.48531300  0.78111000  1
  Mg  Mg35  1  0.53629900  0.49738900  0.64797800  1
  Mg  Mg36  1  0.37467300  0.20367100  0.62603800  1
  Mg  Mg37  1  0.75488200  0.81142500  0.76798100  1
  Mg  Mg38  1  0.93934900  0.19997800  0.75280600  1
  Mg  Mg39  1  0.17079900  0.72502800  0.68846000  1
  Mg  Mg40  1  0.88083200  0.17171000  0.66063100  1
  Mg  Mg41  1  0.45831900  0.38171000  0.60294400  1
  Mg  Mg42  1  0.83178000  0.98786300  0.74438300  1
  Mg  Mg43  1  0.80034600  0.99390100  0.68328500  1
  Mg  Mg44  1  0.09335600  0.60411800  0.64570700  1
  Mg  Mg45  1  0.91228200  0.09676000  0.79628500  1
  Zn  Zn46  1  0.48212600  0.14149000  0.39526100  1
  Zn  Zn47  1  0.66496100  0.55434300  0.35276700  1
  Zn  Zn48  1  0.82581600  0.84836900  0.37454500  1
  Zn  Zn49  1  0.98667000  0.14239400  0.39632400  1
  Zn  Zn50  1  0.32581600  0.84836900  0.37454500  1
  Zn  Zn51  1  0.95422000  0.59879600  0.39202800  1
  Zn  Zn52  1  0.69741100  0.09794200  0.35706300  1
  Zn  Zn53  1  0.16950500  0.55524800  0.35383000  1
  Zn  Zn54  1  0.24849500  0.05331300  0.52316200  1
  Zn  Zn55  1  0.65088100  0.84363300  0.53087100  1
  Zn  Zn56  1  0.04268100  0.74522200  0.40439800  1
  Zn  Zn57  1  0.28212600  0.54149000  0.59526100  1
  Zn  Zn58  1  0.90205000  0.93088400  0.45418500  1
  Zn  Zn59  1  0.46496100  0.95434300  0.55276700  1
  Zn  Zn60  1  0.62581600  0.24836900  0.57454500  1
  Zn  Zn61  1  0.20313600  0.04342500  0.42592900  1
  Zn  Zn62  1  0.54155000  0.68063800  0.47213300  1
  Zn  Zn63  1  0.04330600  0.16607200  0.49495800  1
  Zn  Zn64  1  0.74825000  0.64133400  0.43326600  1
  Zn  Zn65  1  0.93465700  0.50692600  0.43542200  1
  Zn  Zn66  1  0.33406900  0.20335300  0.53523700  1
  Zn  Zn67  1  0.83515400  0.26426800  0.46630600  1
  Zn  Zn68  1  0.80075000  0.25310400  0.41821900  1
  Zn  Zn69  1  0.91008100  0.41610000  0.47695800  1
  Zn  Zn70  1  0.12854800  0.37325600  0.43681800  1
  Zn  Zn71  1  0.40832500  0.93066600  0.45413200  1
  Zn  Zn72  1  0.78667000  0.54239400  0.59632400  1
  Zn  Zn73  1  0.11756200  0.89338500  0.41385400  1
  Zn  Zn74  1  0.32308300  0.72348200  0.51227300  1
  Zn  Zn75  1  0.54958100  0.16585300  0.49490600  1
  Zn  Zn76  1  0.12581600  0.24836900  0.57454500  1
  Zn  Zn77  1  0.75422000  0.99879600  0.59202800  1
  Zn  Zn78  1  0.25265800  0.64162000  0.43367200  1
  Zn  Zn79  1  0.61472000  0.37329100  0.43592600  1
  Zn  Zn80  1  0.49741100  0.49794200  0.55706300  1
  Zn  Zn81  1  0.83691100  0.72344700  0.51316500  1
  Zn  Zn82  1  0.61647700  0.83247000  0.48278500  1
  Zn  Zn83  1  0.19897300  0.45511800  0.51541900  1
  Zn  Zn84  1  0.96950500  0.95524800  0.55383000  1
  Zn  Zn85  1  0.22581600  0.04836900  0.47454500  1
  Zn  Zn86  1  0.70338200  0.45540400  0.51582500  1
  Zn  Zn87  1  0.51697400  0.58981200  0.51366900  1
  Zn  Zn88  1  0.40895000  0.35151600  0.54469300  1
  Zn  Zn89  1  0.04849500  0.45331300  0.72316200  1
  Zn  Zn90  1  0.45088100  0.24363300  0.73087100  1
  Zn  Zn91  1  0.84268100  0.14522200  0.60439800  1
  Zn  Zn92  1  0.08212600  0.94149000  0.79526100  1
  Zn  Zn93  1  0.70205000  0.33088400  0.65418500  1
  Zn  Zn94  1  0.26496100  0.35434300  0.75276700  1
  Zn  Zn95  1  0.42581600  0.64836900  0.77454500  1
  Zn  Zn96  1  0.00313600  0.44342500  0.62592900  1
  Zn  Zn97  1  0.34155000  0.08063800  0.67213300  1
  Zn  Zn98  1  0.84330600  0.56607200  0.69495800  1
  Zn  Zn99  1  0.54825000  0.04133400  0.63326600  1
  Zn  Zn100  1  0.73465700  0.90692600  0.63542200  1
  Zn  Zn101  1  0.13406900  0.60335300  0.73523700  1
  Zn  Zn102  1  0.63515400  0.66426800  0.66630600  1
  Zn  Zn103  1  0.60075000  0.65310400  0.61821900  1
  Zn  Zn104  1  0.71008100  0.81610000  0.67695800  1
  Zn  Zn105  1  0.92854800  0.77325600  0.63681800  1
  Zn  Zn106  1  0.20832500  0.33066600  0.65413200  1
  Zn  Zn107  1  0.58667000  0.94239400  0.79632400  1
  Zn  Zn108  1  0.91756200  0.29338500  0.61385400  1
  Zn  Zn109  1  0.12308300  0.12348200  0.71227300  1
  Zn  Zn110  1  0.34958100  0.56585300  0.69490600  1
  Zn  Zn111  1  0.92581600  0.64836900  0.77454500  1
  Zn  Zn112  1  0.55422000  0.39879600  0.79202800  1
  Zn  Zn113  1  0.05265800  0.04162000  0.63367200  1
  Zn  Zn114  1  0.41472000  0.77329100  0.63592600  1
  Zn  Zn115  1  0.29741100  0.89794200  0.75706300  1
  Zn  Zn116  1  0.63691100  0.12344700  0.71316500  1
  Zn  Zn117  1  0.41647700  0.23247000  0.68278500  1
  Zn  Zn118  1  0.99897300  0.85511800  0.71541900  1
  Zn  Zn119  1  0.76950500  0.35524800  0.75383000  1
  Zn  Zn120  1  0.02581600  0.44836900  0.67454500  1
  Zn  Zn121  1  0.50338200  0.85540400  0.71582500  1
  Zn  Zn122  1  0.31697400  0.98981200  0.71366900  1
  Zn  Zn123  1  0.20895000  0.75151600  0.74469300  1
