# generated using pymatgen
data_MgHg3
_symmetry_space_group_name_H-M   'P 1'
_cell_length_a   4.95207504
_cell_length_b   10.62223185
_cell_length_c   43.00163600
_cell_angle_alpha   89.37829739
_cell_angle_beta   93.30092273
_cell_angle_gamma   76.52037499
_symmetry_Int_Tables_number   1
_chemical_formula_structural   MgHg3
_chemical_formula_sum   'Mg14 Hg42'
_cell_volume   2195.32902800
_cell_formula_units_Z   14
loop_
 _symmetry_equiv_pos_site_id
 _symmetry_equiv_pos_as_xyz
  1  'x, y, z'
loop_
 _atom_site_type_symbol
 _atom_site_label
 _atom_site_symmetry_multiplicity
 _atom_site_fract_x
 _atom_site_fract_y
 _atom_site_fract_z
 _atom_site_occupancy
  Mg  Mg0  1  0.00000000  0.58333300  0.26515200  1
  Mg  Mg1  1  0.63636400  0.23484800  0.18939400  1
  Mg  Mg2  1  0.63636400  0.40151500  0.35606100  1
  Mg  Mg3  1  0.27272700  0.05303000  0.28030300  1
  Mg  Mg4  1  0.27272700  0.21969700  0.44697000  1
  Mg  Mg5  1  0.90909100  0.87121200  0.37121200  1
  Mg  Mg6  1  0.90909100  0.03787900  0.53787900  1
  Mg  Mg7  1  0.54545500  0.68939400  0.46212100  1
  Mg  Mg8  1  0.54545500  0.85606100  0.62878800  1
  Mg  Mg9  1  0.18181800  0.50757600  0.55303000  1
  Mg  Mg10  1  0.18181800  0.67424200  0.71969700  1
  Mg  Mg11  1  0.81818200  0.32575800  0.64393900  1
  Mg  Mg12  1  0.81818200  0.49242400  0.81060600  1
  Mg  Mg13  1  0.45454500  0.14393900  0.73484800  1
  Hg  Hg14  1  0.24611500  0.02957600  0.20362300  1
  Hg  Hg15  1  0.39024900  0.78860600  0.25092300  1
  Hg  Hg16  1  0.51884200  0.49927300  0.21877400  1
  Hg  Hg17  1  0.11752200  0.31890900  0.23577100  1
  Hg  Hg18  1  0.90909100  0.70454500  0.20454500  1
  Hg  Hg19  1  0.72727300  0.11363600  0.25000000  1
  Hg  Hg20  1  0.88247800  0.84775700  0.29453200  1
  Hg  Hg21  1  0.02661300  0.60678800  0.34183200  1
  Hg  Hg22  1  0.15520500  0.31745400  0.30968300  1
  Hg  Hg23  1  0.75388500  0.13709100  0.32668000  1
  Hg  Hg24  1  0.54545500  0.52272700  0.29545500  1
  Hg  Hg25  1  0.36363600  0.93181800  0.34090900  1
  Hg  Hg26  1  0.51884200  0.66593900  0.38544100  1
  Hg  Hg27  1  0.66297600  0.42497000  0.43274100  1
  Hg  Hg28  1  0.79156900  0.13563600  0.40059300  1
  Hg  Hg29  1  0.39024900  0.95527300  0.41758900  1
  Hg  Hg30  1  0.18181800  0.34090900  0.38636400  1
  Hg  Hg31  1  0.00000000  0.75000000  0.43181800  1
  Hg  Hg32  1  0.15520500  0.48412100  0.47635000  1
  Hg  Hg33  1  0.29934000  0.24315200  0.52365000  1
  Hg  Hg34  1  0.42793300  0.95381800  0.49150200  1
  Hg  Hg35  1  0.02661300  0.77345500  0.50849800  1
  Hg  Hg36  1  0.81818200  0.15909100  0.47727300  1
  Hg  Hg37  1  0.63636400  0.56818200  0.52272700  1
  Hg  Hg38  1  0.79156900  0.30230300  0.56725900  1
  Hg  Hg39  1  0.93570400  0.06133300  0.61455900  1
  Hg  Hg40  1  0.06429600  0.77200000  0.58241100  1
  Hg  Hg41  1  0.66297600  0.59163600  0.59940700  1
  Hg  Hg42  1  0.45454500  0.97727300  0.56818200  1
  Hg  Hg43  1  0.27272700  0.38636400  0.61363600  1
  Hg  Hg44  1  0.42793300  0.12048500  0.65816800  1
  Hg  Hg45  1  0.57206700  0.87951500  0.70546800  1
  Hg  Hg46  1  0.70066000  0.59018200  0.67332000  1
  Hg  Hg47  1  0.29934000  0.40981800  0.69031700  1
  Hg  Hg48  1  0.09090900  0.79545500  0.65909100  1
  Hg  Hg49  1  0.90909100  0.20454500  0.70454500  1
  Hg  Hg50  1  0.06429600  0.93866700  0.74907700  1
  Hg  Hg51  1  0.20843100  0.69769700  0.79637700  1
  Hg  Hg52  1  0.33702400  0.40836400  0.76422900  1
  Hg  Hg53  1  0.93570400  0.22800000  0.78122600  1
  Hg  Hg54  1  0.72727300  0.61363600  0.75000000  1
  Hg  Hg55  1  0.54545500  0.02272700  0.79545500  1
