# generated using pymatgen
data_MgCd2
_symmetry_space_group_name_H-M   'P 1'
_cell_length_a   6.07439151
_cell_length_b   8.35399647
_cell_length_c   42.16682800
_cell_angle_alpha   91.94696428
_cell_angle_beta   90.39794456
_cell_angle_gamma   95.44863217
_symmetry_Int_Tables_number   1
_chemical_formula_structural   MgCd2
_chemical_formula_sum   'Mg20 Cd40'
_cell_volume   2128.76541892
_cell_formula_units_Z   20
loop_
 _symmetry_equiv_pos_site_id
 _symmetry_equiv_pos_as_xyz
  1  'x, y, z'
loop_
 _atom_site_type_symbol
 _atom_site_label
 _atom_site_symmetry_multiplicity
 _atom_site_fract_x
 _atom_site_fract_y
 _atom_site_fract_z
 _atom_site_occupancy
  Mg  Mg0  1  0.21489300  0.41542000  0.19627700  1
  Mg  Mg1  1  0.53510700  0.02208000  0.24122300  1
  Mg  Mg2  1  0.96489300  0.47792000  0.25877700  1
  Mg  Mg3  1  0.28510700  0.08458000  0.30372300  1
  Mg  Mg4  1  0.71489300  0.54042000  0.32127700  1
  Mg  Mg5  1  0.03510700  0.14708000  0.36622300  1
  Mg  Mg6  1  0.46489300  0.60292000  0.38377700  1
  Mg  Mg7  1  0.78510700  0.20958000  0.42872300  1
  Mg  Mg8  1  0.21489300  0.66542000  0.44627700  1
  Mg  Mg9  1  0.53510700  0.27208000  0.49122300  1
  Mg  Mg10  1  0.96489300  0.72792000  0.50877700  1
  Mg  Mg11  1  0.28510700  0.33458000  0.55372300  1
  Mg  Mg12  1  0.71489300  0.79042000  0.57127700  1
  Mg  Mg13  1  0.03510700  0.39708000  0.61622300  1
  Mg  Mg14  1  0.46489300  0.85292000  0.63377700  1
  Mg  Mg15  1  0.78510700  0.45958000  0.67872300  1
  Mg  Mg16  1  0.21489300  0.91542000  0.69627700  1
  Mg  Mg17  1  0.53510700  0.52208000  0.74122300  1
  Mg  Mg18  1  0.96489300  0.97792000  0.75877700  1
  Mg  Mg19  1  0.28510700  0.58458000  0.80372300  1
  Cd  Cd20  1  0.04836800  0.12485500  0.23790800  1
  Cd  Cd21  1  0.13157300  0.76968900  0.21710700  1
  Cd  Cd22  1  0.61842700  0.66781100  0.22039300  1
  Cd  Cd23  1  0.70163200  0.31264500  0.19959200  1
  Cd  Cd24  1  0.79836800  0.18735500  0.30040800  1
  Cd  Cd25  1  0.88157300  0.83218900  0.27960700  1
  Cd  Cd26  1  0.36842700  0.73031100  0.28289300  1
  Cd  Cd27  1  0.45163200  0.37514500  0.26209200  1
  Cd  Cd28  1  0.54836800  0.24985500  0.36290800  1
  Cd  Cd29  1  0.63157300  0.89468900  0.34210700  1
  Cd  Cd30  1  0.11842700  0.79281100  0.34539300  1
  Cd  Cd31  1  0.20163200  0.43764500  0.32459200  1
  Cd  Cd32  1  0.29836800  0.31235500  0.42540800  1
  Cd  Cd33  1  0.38157300  0.95718900  0.40460700  1
  Cd  Cd34  1  0.86842700  0.85531100  0.40789300  1
  Cd  Cd35  1  0.95163200  0.50014500  0.38709200  1
  Cd  Cd36  1  0.04836800  0.37485500  0.48790800  1
  Cd  Cd37  1  0.13157300  0.01968900  0.46710700  1
  Cd  Cd38  1  0.61842700  0.91781100  0.47039300  1
  Cd  Cd39  1  0.70163200  0.56264500  0.44959200  1
  Cd  Cd40  1  0.79836800  0.43735500  0.55040800  1
  Cd  Cd41  1  0.88157300  0.08218900  0.52960700  1
  Cd  Cd42  1  0.36842700  0.98031100  0.53289300  1
  Cd  Cd43  1  0.45163200  0.62514500  0.51209200  1
  Cd  Cd44  1  0.54836800  0.49985500  0.61290800  1
  Cd  Cd45  1  0.63157300  0.14468900  0.59210700  1
  Cd  Cd46  1  0.11842700  0.04281100  0.59539300  1
  Cd  Cd47  1  0.20163200  0.68764500  0.57459200  1
  Cd  Cd48  1  0.29836800  0.56235500  0.67540800  1
  Cd  Cd49  1  0.38157300  0.20718900  0.65460700  1
  Cd  Cd50  1  0.86842700  0.10531100  0.65789300  1
  Cd  Cd51  1  0.95163200  0.75014500  0.63709200  1
  Cd  Cd52  1  0.04836800  0.62485500  0.73790800  1
  Cd  Cd53  1  0.13157300  0.26968900  0.71710700  1
  Cd  Cd54  1  0.61842700  0.16781100  0.72039300  1
  Cd  Cd55  1  0.70163200  0.81264500  0.69959200  1
  Cd  Cd56  1  0.79836800  0.68735500  0.80040800  1
  Cd  Cd57  1  0.88157300  0.33218900  0.77960700  1
  Cd  Cd58  1  0.36842700  0.23031100  0.78289300  1
  Cd  Cd59  1  0.45163200  0.87514500  0.76209200  1
