# generated using pymatgen
data_Tm2Mg
_symmetry_space_group_name_H-M   'P 1'
_cell_length_a   6.48584175
_cell_length_b   17.23693300
_cell_length_c   44.74150900
_cell_angle_alpha   90.00000000
_cell_angle_beta   85.98842084
_cell_angle_gamma   90.00000000
_symmetry_Int_Tables_number   1
_chemical_formula_structural   Tm2Mg
_chemical_formula_sum   'Tm72 Mg36'
_cell_volume   4989.66757329
_cell_formula_units_Z   36
loop_
 _symmetry_equiv_pos_site_id
 _symmetry_equiv_pos_as_xyz
  1  'x, y, z'
loop_
 _atom_site_type_symbol
 _atom_site_label
 _atom_site_symmetry_multiplicity
 _atom_site_fract_x
 _atom_site_fract_y
 _atom_site_fract_z
 _atom_site_occupancy
  Tm  Tm0  1  0.16666700  0.90090700  0.21666700  1
  Tm  Tm1  1  0.00000000  0.72492700  0.25000000  1
  Tm  Tm2  1  0.66666700  0.59909300  0.21666700  1
  Tm  Tm3  1  0.50000000  0.77507300  0.25000000  1
  Tm  Tm4  1  1.00000000  0.40090700  0.25000000  1
  Tm  Tm5  1  0.16666700  0.22492700  0.21666700  1
  Tm  Tm6  1  0.50000000  0.09909300  0.25000000  1
  Tm  Tm7  1  0.66666700  0.27507300  0.21666700  1
  Tm  Tm8  1  0.83333300  0.90090700  0.28333300  1
  Tm  Tm9  1  0.66666700  0.72492700  0.31666700  1
  Tm  Tm10  1  0.33333300  0.59909300  0.28333300  1
  Tm  Tm11  1  0.16666700  0.77507300  0.31666700  1
  Tm  Tm12  1  0.66666700  0.40090700  0.31666700  1
  Tm  Tm13  1  0.83333300  0.22492700  0.28333300  1
  Tm  Tm14  1  0.16666700  0.09909300  0.31666700  1
  Tm  Tm15  1  0.33333300  0.27507300  0.28333300  1
  Tm  Tm16  1  0.50000000  0.90090700  0.35000000  1
  Tm  Tm17  1  0.33333300  0.72492700  0.38333300  1
  Tm  Tm18  1  0.00000000  0.59909300  0.35000000  1
  Tm  Tm19  1  0.83333300  0.77507300  0.38333300  1
  Tm  Tm20  1  0.33333300  0.40090700  0.38333300  1
  Tm  Tm21  1  0.50000000  0.22492700  0.35000000  1
  Tm  Tm22  1  0.83333300  0.09909300  0.38333300  1
  Tm  Tm23  1  1.00000000  0.27507300  0.35000000  1
  Tm  Tm24  1  0.16666700  0.90090700  0.41666700  1
  Tm  Tm25  1  0.00000000  0.72492700  0.45000000  1
  Tm  Tm26  1  0.66666700  0.59909300  0.41666700  1
  Tm  Tm27  1  0.50000000  0.77507300  0.45000000  1
  Tm  Tm28  1  1.00000000  0.40090700  0.45000000  1
  Tm  Tm29  1  0.16666700  0.22492700  0.41666700  1
  Tm  Tm30  1  0.50000000  0.09909300  0.45000000  1
  Tm  Tm31  1  0.66666700  0.27507300  0.41666700  1
  Tm  Tm32  1  0.83333300  0.90090700  0.48333300  1
  Tm  Tm33  1  0.66666700  0.72492700  0.51666700  1
  Tm  Tm34  1  0.33333300  0.59909300  0.48333300  1
  Tm  Tm35  1  0.16666700  0.77507300  0.51666700  1
  Tm  Tm36  1  0.66666700  0.40090700  0.51666700  1
  Tm  Tm37  1  0.83333300  0.22492700  0.48333300  1
  Tm  Tm38  1  0.16666700  0.09909300  0.51666700  1
  Tm  Tm39  1  0.33333300  0.27507300  0.48333300  1
  Tm  Tm40  1  0.50000000  0.90090700  0.55000000  1
  Tm  Tm41  1  0.33333300  0.72492700  0.58333300  1
  Tm  Tm42  1  0.00000000  0.59909300  0.55000000  1
  Tm  Tm43  1  0.83333300  0.77507300  0.58333300  1
  Tm  Tm44  1  0.33333300  0.40090700  0.58333300  1
  Tm  Tm45  1  0.50000000  0.22492700  0.55000000  1
  Tm  Tm46  1  0.83333300  0.09909300  0.58333300  1
  Tm  Tm47  1  0.00000000  0.27507300  0.55000000  1
  Tm  Tm48  1  0.16666700  0.90090700  0.61666700  1
  Tm  Tm49  1  0.00000000  0.72492700  0.65000000  1
  Tm  Tm50  1  0.66666700  0.59909300  0.61666700  1
  Tm  Tm51  1  0.50000000  0.77507300  0.65000000  1
  Tm  Tm52  1  1.00000000  0.40090700  0.65000000  1
  Tm  Tm53  1  0.16666700  0.22492700  0.61666700  1
  Tm  Tm54  1  0.50000000  0.09909300  0.65000000  1
  Tm  Tm55  1  0.66666700  0.27507300  0.61666700  1
  Tm  Tm56  1  0.83333300  0.90090700  0.68333300  1
  Tm  Tm57  1  0.66666700  0.72492700  0.71666700  1
  Tm  Tm58  1  0.33333300  0.59909300  0.68333300  1
  Tm  Tm59  1  0.16666700  0.77507300  0.71666700  1
  Tm  Tm60  1  0.66666700  0.40090700  0.71666700  1
  Tm  Tm61  1  0.83333300  0.22492700  0.68333300  1
  Tm  Tm62  1  0.16666700  0.09909300  0.71666700  1
  Tm  Tm63  1  0.33333300  0.27507300  0.68333300  1
  Tm  Tm64  1  0.50000000  0.90090700  0.75000000  1
  Tm  Tm65  1  0.33333300  0.72492700  0.78333300  1
  Tm  Tm66  1  0.00000000  0.59909300  0.75000000  1
  Tm  Tm67  1  0.83333300  0.77507300  0.78333300  1
  Tm  Tm68  1  0.33333300  0.40090700  0.78333300  1
  Tm  Tm69  1  0.50000000  0.22492700  0.75000000  1
  Tm  Tm70  1  0.83333300  0.09909300  0.78333300  1
  Tm  Tm71  1  0.00000000  0.27507300  0.75000000  1
  Mg  Mg72  1  0.16666700  0.56230100  0.21666700  1
  Mg  Mg73  1  0.66666700  0.93769900  0.21666700  1
  Mg  Mg74  1  0.00000000  0.06230100  0.25000000  1
  Mg  Mg75  1  0.50000000  0.43769900  0.25000000  1
  Mg  Mg76  1  0.83333300  0.56230100  0.28333300  1
  Mg  Mg77  1  0.33333300  0.93769900  0.28333300  1
  Mg  Mg78  1  0.66666700  0.06230100  0.31666700  1
  Mg  Mg79  1  0.16666700  0.43769900  0.31666700  1
  Mg  Mg80  1  0.50000000  0.56230100  0.35000000  1
  Mg  Mg81  1  1.00000000  0.93769900  0.35000000  1
  Mg  Mg82  1  0.33333300  0.06230100  0.38333300  1
  Mg  Mg83  1  0.83333300  0.43769900  0.38333300  1
  Mg  Mg84  1  0.16666700  0.56230100  0.41666700  1
  Mg  Mg85  1  0.66666700  0.93769900  0.41666700  1
  Mg  Mg86  1  1.00000000  0.06230100  0.45000000  1
  Mg  Mg87  1  0.50000000  0.43769900  0.45000000  1
  Mg  Mg88  1  0.83333300  0.56230100  0.48333300  1
  Mg  Mg89  1  0.33333300  0.93769900  0.48333300  1
  Mg  Mg90  1  0.66666700  0.06230100  0.51666700  1
  Mg  Mg91  1  0.16666700  0.43769900  0.51666700  1
  Mg  Mg92  1  0.50000000  0.56230100  0.55000000  1
  Mg  Mg93  1  0.00000000  0.93769900  0.55000000  1
  Mg  Mg94  1  0.33333300  0.06230100  0.58333300  1
  Mg  Mg95  1  0.83333300  0.43769900  0.58333300  1
  Mg  Mg96  1  0.16666700  0.56230100  0.61666700  1
  Mg  Mg97  1  0.66666700  0.93769900  0.61666700  1
  Mg  Mg98  1  1.00000000  0.06230100  0.65000000  1
  Mg  Mg99  1  0.50000000  0.43769900  0.65000000  1
  Mg  Mg100  1  0.83333300  0.56230100  0.68333300  1
  Mg  Mg101  1  0.33333300  0.93769900  0.68333300  1
  Mg  Mg102  1  0.66666700  0.06230100  0.71666700  1
  Mg  Mg103  1  0.16666700  0.43769900  0.71666700  1
  Mg  Mg104  1  0.50000000  0.56230100  0.75000000  1
  Mg  Mg105  1  0.00000000  0.93769900  0.75000000  1
  Mg  Mg106  1  0.33333300  0.06230100  0.78333300  1
  Mg  Mg107  1  0.83333300  0.43769900  0.78333300  1
