# generated using pymatgen
data_Mg41Si23
_symmetry_space_group_name_H-M   'P 1'
_cell_length_a   7.16868100
_cell_length_b   14.27249566
_cell_length_c   44.68541400
_cell_angle_alpha   83.39369965
_cell_angle_beta   90.00000000
_cell_angle_gamma   75.45524452
_symmetry_Int_Tables_number   1
_chemical_formula_structural   Mg41Si23
_chemical_formula_sum   'Mg82 Si46'
_cell_volume   4394.09300978
_cell_formula_units_Z   2
loop_
 _symmetry_equiv_pos_site_id
 _symmetry_equiv_pos_as_xyz
  1  'x, y, z'
loop_
 _atom_site_type_symbol
 _atom_site_label
 _atom_site_symmetry_multiplicity
 _atom_site_fract_x
 _atom_site_fract_y
 _atom_site_fract_z
 _atom_site_occupancy
  Mg  Mg0  1  0.90670600  0.96449500  0.24703900  1
  Mg  Mg1  1  0.34552200  0.36059500  0.29898900  1
  Mg  Mg2  1  0.32827200  0.90536100  0.27660500  1
  Mg  Mg3  1  0.68470500  0.42902800  0.26477200  1
  Mg  Mg4  1  0.55942300  0.67959100  0.30653300  1
  Mg  Mg5  1  0.12060700  0.28349100  0.25458300  1
  Mg  Mg6  1  0.13785800  0.73872500  0.27696600  1
  Mg  Mg7  1  0.78142400  0.21505800  0.28879900  1
  Mg  Mg8  1  0.49527300  0.09604500  0.26478500  1
  Mg  Mg9  1  0.97085600  0.54804100  0.28878700  1
  Mg  Mg10  1  0.53170600  0.71449500  0.37203900  1
  Mg  Mg11  1  0.97052200  0.11059500  0.42398900  1
  Mg  Mg12  1  0.88813900  0.23816100  0.36020500  1
  Mg  Mg13  1  0.95327200  0.65536100  0.40160500  1
  Mg  Mg14  1  0.87088900  0.78292800  0.33782200  1
  Mg  Mg15  1  0.30970500  0.17902800  0.38977200  1
  Mg  Mg16  1  0.18442300  0.42959100  0.43153300  1
  Mg  Mg17  1  0.74560700  0.03349100  0.37958300  1
  Mg  Mg18  1  0.20299000  0.15592500  0.31836600  1
  Mg  Mg19  1  0.76285800  0.48872500  0.40196600  1
  Mg  Mg20  1  0.22024000  0.61115800  0.34074900  1
  Mg  Mg21  1  0.40642400  0.96505800  0.41379900  1
  Mg  Mg22  1  0.62670000  0.45299200  0.33631100  1
  Mg  Mg23  1  0.12027300  0.84604500  0.38978500  1
  Mg  Mg24  1  0.95824200  0.99149000  0.31706200  1
  Mg  Mg25  1  0.13288700  0.40259600  0.36150900  1
  Mg  Mg26  1  0.59585600  0.29804100  0.41378700  1
  Mg  Mg27  1  0.46442900  0.94109400  0.34226000  1
  Mg  Mg28  1  0.15670600  0.46449500  0.49703900  1
  Mg  Mg29  1  0.59552200  0.86059500  0.54898900  1
  Mg  Mg30  1  0.51313900  0.98816100  0.48520500  1
  Mg  Mg31  1  0.57827200  0.40536100  0.52660500  1
  Mg  Mg32  1  0.49588900  0.53292800  0.46282200  1
  Mg  Mg33  1  0.93470500  0.92902800  0.51477200  1
  Mg  Mg34  1  0.80942300  0.17959100  0.55653300  1
  Mg  Mg35  1  0.37060700  0.78349100  0.50458300  1
  Mg  Mg36  1  0.82799000  0.90592500  0.44336600  1
  Mg  Mg37  1  0.38785800  0.23872500  0.52696600  1
  Mg  Mg38  1  0.84524000  0.36115800  0.46574900  1
  Mg  Mg39  1  0.03142400  0.71505800  0.53879900  1
  Mg  Mg40  1  0.25170000  0.20299200  0.46131100  1
  Mg  Mg41  1  0.74527300  0.59604500  0.51478500  1
  Mg  Mg42  1  0.58324200  0.74149000  0.44206200  1
  Mg  Mg43  1  0.75788700  0.15259600  0.48650900  1
  Mg  Mg44  1  0.22085600  0.04804100  0.53878700  1
  Mg  Mg45  1  0.08942900  0.69109400  0.46726000  1
  Mg  Mg46  1  0.78170600  0.21449500  0.62203900  1
  Mg  Mg47  1  0.22052200  0.61059500  0.67398900  1
  Mg  Mg48  1  0.13813900  0.73816100  0.61020500  1
  Mg  Mg49  1  0.20327200  0.15536100  0.65160500  1
  Mg  Mg50  1  0.12088900  0.28292800  0.58782200  1
  Mg  Mg51  1  0.55970500  0.67902800  0.63977200  1
  Mg  Mg52  1  0.43442300  0.92959100  0.68153300  1
  Mg  Mg53  1  0.99560700  0.53349100  0.62958300  1
  Mg  Mg54  1  0.45299000  0.65592500  0.56836600  1
  Mg  Mg55  1  0.01285800  0.98872500  0.65196600  1
  Mg  Mg56  1  0.47024000  0.11115800  0.59074900  1
  Mg  Mg57  1  0.65642400  0.46505800  0.66379900  1
  Mg  Mg58  1  0.87670000  0.95299200  0.58631100  1
  Mg  Mg59  1  0.37027300  0.34604500  0.63978500  1
  Mg  Mg60  1  0.20824200  0.49149000  0.56706200  1
  Mg  Mg61  1  0.38288700  0.90259600  0.61150900  1
  Mg  Mg62  1  0.84585600  0.79804100  0.66378700  1
  Mg  Mg63  1  0.71442900  0.44109400  0.59226000  1
  Mg  Mg64  1  0.40670600  0.96449500  0.74703900  1
  Mg  Mg65  1  0.84552200  0.36059500  0.79898900  1
  Mg  Mg66  1  0.76313900  0.48816100  0.73520500  1
  Mg  Mg67  1  0.82827200  0.90536100  0.77660500  1
  Mg  Mg68  1  0.74588900  0.03292800  0.71282200  1
  Mg  Mg69  1  0.18470500  0.42902800  0.76477200  1
  Mg  Mg70  1  0.05942300  0.67959100  0.80653300  1
  Mg  Mg71  1  0.62060700  0.28349100  0.75458300  1
  Mg  Mg72  1  0.07799000  0.40592500  0.69336600  1
  Mg  Mg73  1  0.63785800  0.73872500  0.77696600  1
  Mg  Mg74  1  0.09524000  0.86115800  0.71574900  1
  Mg  Mg75  1  0.28142400  0.21505800  0.78879900  1
  Mg  Mg76  1  0.50170000  0.70299200  0.71131100  1
  Mg  Mg77  1  0.99527300  0.09604500  0.76478500  1
  Mg  Mg78  1  0.83324200  0.24149000  0.69206200  1
  Mg  Mg79  1  0.00788700  0.65259600  0.73650900  1
  Mg  Mg80  1  0.47085600  0.54804100  0.78878700  1
  Mg  Mg81  1  0.33942900  0.19109400  0.71726000  1
  Si  Si82  1  0.77066200  0.74684900  0.26425300  1
  Si  Si83  1  0.69546800  0.89723700  0.28931800  1
  Si  Si84  1  0.36848100  0.55121000  0.28720200  1
  Si  Si85  1  0.09764800  0.09287600  0.26636900  1
  Si  Si86  1  0.97109900  0.34597500  0.30855200  1
  Si  Si87  1  0.49503100  0.29811100  0.24501900  1
  Si  Si88  1  0.39566200  0.49684900  0.38925300  1
  Si  Si89  1  0.58316200  0.12184900  0.32675300  1
  Si  Si90  1  0.32046800  0.64723700  0.41431800  1
  Si  Si91  1  0.50796800  0.27223700  0.35181800  1
  Si  Si92  1  0.99348100  0.30121000  0.41220200  1
  Si  Si93  1  0.72264800  0.84287600  0.39136900  1
  Si  Si94  1  0.59609900  0.09597500  0.43355200  1
  Si  Si95  1  0.24193200  0.80430900  0.32938600  1
  Si  Si96  1  0.12003100  0.04811100  0.37001900  1
  Si  Si97  1  0.84919700  0.58977800  0.34918600  1
  Si  Si98  1  0.02066200  0.24684900  0.51425300  1
  Si  Si99  1  0.20816200  0.87184900  0.45175300  1
  Si  Si100  1  0.94546800  0.39723700  0.53931800  1
  Si  Si101  1  0.13296800  0.02223700  0.47681800  1
  Si  Si102  1  0.61848100  0.05121000  0.53720200  1
  Si  Si103  1  0.34764800  0.59287600  0.51636900  1
  Si  Si104  1  0.22109900  0.84597500  0.55855200  1
  Si  Si105  1  0.86693200  0.55430900  0.45438600  1
  Si  Si106  1  0.74503100  0.79811100  0.49501900  1
  Si  Si107  1  0.47419700  0.33977800  0.47418600  1
  Si  Si108  1  0.64566200  0.99684900  0.63925300  1
  Si  Si109  1  0.83316200  0.62184900  0.57675300  1
  Si  Si110  1  0.57046800  0.14723700  0.66431800  1
  Si  Si111  1  0.75796800  0.77223700  0.60181800  1
  Si  Si112  1  0.24348100  0.80121000  0.66220200  1
  Si  Si113  1  0.97264800  0.34287600  0.64136900  1
  Si  Si114  1  0.84609900  0.59597500  0.68355200  1
  Si  Si115  1  0.49193200  0.30430900  0.57938600  1
  Si  Si116  1  0.37003100  0.54811100  0.62001900  1
  Si  Si117  1  0.09919700  0.08977800  0.59918600  1
  Si  Si118  1  0.27066200  0.74684900  0.76425300  1
  Si  Si119  1  0.45816200  0.37184900  0.70175300  1
  Si  Si120  1  0.19546800  0.89723700  0.78931800  1
  Si  Si121  1  0.38296800  0.52223700  0.72681800  1
  Si  Si122  1  0.86848100  0.55121000  0.78720200  1
  Si  Si123  1  0.59764800  0.09287600  0.76636900  1
  Si  Si124  1  0.47109900  0.34597500  0.80855200  1
  Si  Si125  1  0.11693200  0.05430900  0.70438600  1
  Si  Si126  1  0.99503100  0.29811100  0.74501900  1
  Si  Si127  1  0.72419700  0.83977800  0.72418600  1
