# generated using pymatgen
data_MgNi
_symmetry_space_group_name_H-M   'P 1'
_cell_length_a   3.04525400
_cell_length_b   4.30664051
_cell_length_c   40.96970800
_cell_angle_alpha   86.98721250
_cell_angle_beta   90.00000000
_cell_angle_gamma   90.00000000
_symmetry_Int_Tables_number   1
_chemical_formula_structural   MgNi
_chemical_formula_sum   'Mg12 Ni12'
_cell_volume   536.56745587
_cell_formula_units_Z   12
loop_
 _symmetry_equiv_pos_site_id
 _symmetry_equiv_pos_as_xyz
  1  'x, y, z'
loop_
 _atom_site_type_symbol
 _atom_site_label
 _atom_site_symmetry_multiplicity
 _atom_site_fract_x
 _atom_site_fract_y
 _atom_site_fract_z
 _atom_site_occupancy
  Mg  Mg0  1  0.00000000  0.73684200  0.21052600  1
  Mg  Mg1  1  0.00000000  0.21052600  0.26315800  1
  Mg  Mg2  1  0.00000000  0.68421100  0.31578900  1
  Mg  Mg3  1  1.00000000  0.15789500  0.36842100  1
  Mg  Mg4  1  1.00000000  0.63157900  0.42105300  1
  Mg  Mg5  1  0.00000000  0.10526300  0.47368400  1
  Mg  Mg6  1  1.00000000  0.57894700  0.52631600  1
  Mg  Mg7  1  0.00000000  0.05263200  0.57894700  1
  Mg  Mg8  1  0.00000000  0.52631600  0.63157900  1
  Mg  Mg9  1  0.00000000  0.00000000  0.68421100  1
  Mg  Mg10  1  1.00000000  0.47368400  0.73684200  1
  Mg  Mg11  1  0.00000000  0.94736800  0.78947400  1
  Ni  Ni12  1  0.50000000  0.23684200  0.21052600  1
  Ni  Ni13  1  0.50000000  0.71052600  0.26315800  1
  Ni  Ni14  1  0.50000000  0.18421100  0.31578900  1
  Ni  Ni15  1  0.50000000  0.65789500  0.36842100  1
  Ni  Ni16  1  0.50000000  0.13157900  0.42105300  1
  Ni  Ni17  1  0.50000000  0.60526300  0.47368400  1
  Ni  Ni18  1  0.50000000  0.07894700  0.52631600  1
  Ni  Ni19  1  0.50000000  0.55263200  0.57894700  1
  Ni  Ni20  1  0.50000000  0.02631600  0.63157900  1
  Ni  Ni21  1  0.50000000  0.50000000  0.68421100  1
  Ni  Ni22  1  0.50000000  0.97368400  0.73684200  1
  Ni  Ni23  1  0.50000000  0.44736800  0.78947400  1
