# generated using pymatgen
data_Mg21In44
_symmetry_space_group_name_H-M   'P 1'
_cell_length_a   5.02728877
_cell_length_b   12.40585501
_cell_length_c   44.42529300
_cell_angle_alpha   87.13605415
_cell_angle_beta   93.24360728
_cell_angle_gamma   78.30993026
_symmetry_Int_Tables_number   1
_chemical_formula_structural   Mg21In44
_chemical_formula_sum   'Mg21 In44'
_cell_volume   2703.53942527
_cell_formula_units_Z   1
loop_
 _symmetry_equiv_pos_site_id
 _symmetry_equiv_pos_as_xyz
  1  'x, y, z'
loop_
 _atom_site_type_symbol
 _atom_site_label
 _atom_site_symmetry_multiplicity
 _atom_site_fract_x
 _atom_site_fract_y
 _atom_site_fract_z
 _atom_site_occupancy
  Mg  Mg0  1  0.59148900  0.94893600  0.24537000  1
  Mg  Mg1  1  0.31371100  0.47671400  0.21759300  1
  Mg  Mg2  1  0.14704400  0.89338100  0.30092600  1
  Mg  Mg3  1  0.86926700  0.42115800  0.27314800  1
  Mg  Mg4  1  0.70260000  0.83782500  0.35648100  1
  Mg  Mg5  1  0.42482200  0.36560300  0.32870400  1
  Mg  Mg6  1  0.25815500  0.78226900  0.41203700  1
  Mg  Mg7  1  0.98037800  0.31004700  0.38425900  1
  Mg  Mg8  1  0.81371100  0.72671400  0.46759300  1
  Mg  Mg9  1  0.53593300  0.25449200  0.43981500  1
  Mg  Mg10  1  0.36926700  0.67115800  0.52314800  1
  Mg  Mg11  1  0.09148900  0.19893600  0.49537000  1
  Mg  Mg12  1  0.92482200  0.61560300  0.57870400  1
  Mg  Mg13  1  0.64704400  0.14338100  0.55092600  1
  Mg  Mg14  1  0.48037800  0.56004700  0.63425900  1
  Mg  Mg15  1  0.20260000  0.08782500  0.60648100  1
  Mg  Mg16  1  0.03593300  0.50449200  0.68981500  1
  Mg  Mg17  1  0.75815500  0.03226900  0.66203700  1
  Mg  Mg18  1  0.59148900  0.44893600  0.74537000  1
  Mg  Mg19  1  0.31371100  0.97671400  0.71759300  1
  Mg  Mg20  1  0.86926700  0.92115800  0.77314800  1
  In  In21  1  0.46406700  0.15720800  0.19879800  1
  In  In22  1  0.88557700  0.32399800  0.20860900  1
  In  In23  1  0.74184500  0.62943000  0.22657600  1
  In  In24  1  0.16335500  0.79622000  0.23638700  1
  In  In25  1  0.01962200  0.10165200  0.25435400  1
  In  In26  1  0.44113300  0.26844200  0.26416500  1
  In  In27  1  0.29740000  0.57387400  0.28213100  1
  In  In28  1  0.71891100  0.74066400  0.29194300  1
  In  In29  1  0.57517800  0.04609700  0.30990900  1
  In  In30  1  0.99668800  0.21288700  0.31972000  1
  In  In31  1  0.85295600  0.51831900  0.33768700  1
  In  In32  1  0.27446600  0.68510900  0.34749800  1
  In  In33  1  0.13073300  0.99054100  0.36546500  1
  In  In34  1  0.55224400  0.15733100  0.37527600  1
  In  In35  1  0.40851100  0.46276300  0.39324300  1
  In  In36  1  0.83002200  0.62955300  0.40305400  1
  In  In37  1  0.68628900  0.93498600  0.42102000  1
  In  In38  1  0.10780000  0.10177600  0.43083200  1
  In  In39  1  0.96406700  0.40720800  0.44879800  1
  In  In40  1  0.38557700  0.57399800  0.45860900  1
  In  In41  1  0.24184500  0.87943000  0.47657600  1
  In  In42  1  0.66335500  0.04622000  0.48638700  1
  In  In43  1  0.51962200  0.35165200  0.50435400  1
  In  In44  1  0.94113300  0.51844200  0.51416500  1
  In  In45  1  0.79740000  0.82387400  0.53213100  1
  In  In46  1  0.21891100  0.99066400  0.54194300  1
  In  In47  1  0.07517800  0.29609700  0.55990900  1
  In  In48  1  0.49668800  0.46288700  0.56972000  1
  In  In49  1  0.35295600  0.76831900  0.58768700  1
  In  In50  1  0.77446600  0.93510900  0.59749800  1
  In  In51  1  0.63073300  0.24054100  0.61546500  1
  In  In52  1  0.05224400  0.40733100  0.62527600  1
  In  In53  1  0.90851100  0.71276300  0.64324300  1
  In  In54  1  0.33002200  0.87955300  0.65305400  1
  In  In55  1  0.18628900  0.18498600  0.67102000  1
  In  In56  1  0.60780000  0.35177600  0.68083200  1
  In  In57  1  0.46406700  0.65720800  0.69879800  1
  In  In58  1  0.88557700  0.82399800  0.70860900  1
  In  In59  1  0.74184500  0.12943000  0.72657600  1
  In  In60  1  0.16335500  0.29622000  0.73638700  1
  In  In61  1  0.01962200  0.60165200  0.75435400  1
  In  In62  1  0.44113300  0.76844200  0.76416500  1
  In  In63  1  0.29740000  0.07387400  0.78213100  1
  In  In64  1  0.71891100  0.24066400  0.79194300  1
