# generated using pymatgen
data_Ba5Mg6
_symmetry_space_group_name_H-M   'P 1'
_cell_length_a   4.40873600
_cell_length_b   4.29686800
_cell_length_c   44.08735600
_cell_angle_alpha   90.00000000
_cell_angle_beta   90.00000000
_cell_angle_gamma   90.00000000
_symmetry_Int_Tables_number   1
_chemical_formula_structural   Ba5Mg6
_chemical_formula_sum   'Ba5 Mg6'
_cell_volume   835.18014291
_cell_formula_units_Z   1
loop_
 _symmetry_equiv_pos_site_id
 _symmetry_equiv_pos_as_xyz
  1  'x, y, z'
loop_
 _atom_site_type_symbol
 _atom_site_label
 _atom_site_symmetry_multiplicity
 _atom_site_fract_x
 _atom_site_fract_y
 _atom_site_fract_z
 _atom_site_occupancy
  Ba  Ba0  1  0.50000000  0.00000000  0.32500000  1
  Ba  Ba1  1  0.50000000  0.00000000  0.42500000  1
  Ba  Ba2  1  0.50000000  0.00000000  0.52500000  1
  Ba  Ba3  1  0.50000000  0.00000000  0.62500000  1
  Ba  Ba4  1  0.50000000  0.00000000  0.72500000  1
  Mg  Mg5  1  1.00000000  0.50000000  0.27500000  1
  Mg  Mg6  1  0.00000000  0.50000000  0.37500000  1
  Mg  Mg7  1  0.00000000  0.50000000  0.47500000  1
  Mg  Mg8  1  0.00000000  0.50000000  0.57500000  1
  Mg  Mg9  1  0.00000000  0.50000000  0.67500000  1
  Mg  Mg10  1  1.00000000  0.50000000  0.77500000  1
