# generated using pymatgen
data_Mg14Zn69
_symmetry_space_group_name_H-M   'P 1'
_cell_length_a   9.87228519
_cell_length_b   10.62299195
_cell_length_c   43.15075500
_cell_angle_alpha   89.35999186
_cell_angle_beta   85.66423111
_cell_angle_gamma   73.25856991
_symmetry_Int_Tables_number   1
_chemical_formula_structural   Mg14Zn69
_chemical_formula_sum   'Mg28 Zn138'
_cell_volume   4320.87959756
_cell_formula_units_Z   2
loop_
 _symmetry_equiv_pos_site_id
 _symmetry_equiv_pos_as_xyz
  1  'x, y, z'
loop_
 _atom_site_type_symbol
 _atom_site_label
 _atom_site_symmetry_multiplicity
 _atom_site_fract_x
 _atom_site_fract_y
 _atom_site_fract_z
 _atom_site_occupancy
  Mg  Mg0  1  0.67702500  0.19897500  0.23956600  1
  Mg  Mg1  1  0.52205400  0.50240700  0.22255500  1
  Mg  Mg2  1  0.99210200  0.12164400  0.20601400  1
  Mg  Mg3  1  0.20697700  0.57973800  0.25610800  1
  Mg  Mg4  1  0.85884300  0.92624700  0.33047600  1
  Mg  Mg5  1  0.70387200  0.22968000  0.31346400  1
  Mg  Mg6  1  0.17392000  0.84891600  0.29692300  1
  Mg  Mg7  1  0.38879500  0.30701100  0.34701700  1
  Mg  Mg8  1  0.04066100  0.65352000  0.42138500  1
  Mg  Mg9  1  0.88569000  0.95695300  0.40437300  1
  Mg  Mg10  1  0.35573800  0.57618900  0.38783200  1
  Mg  Mg11  1  0.57061300  0.03428400  0.43792600  1
  Mg  Mg12  1  0.22248000  0.38079300  0.51229400  1
  Mg  Mg13  1  0.06750800  0.68422600  0.49528200  1
  Mg  Mg14  1  0.53755600  0.30346200  0.47874100  1
  Mg  Mg15  1  0.75243200  0.76155700  0.52883500  1
  Mg  Mg16  1  0.40429800  0.10806500  0.60320300  1
  Mg  Mg17  1  0.24932600  0.41149800  0.58619100  1
  Mg  Mg18  1  0.71937400  0.03073400  0.56965000  1
  Mg  Mg19  1  0.93425000  0.48882900  0.61974400  1
  Mg  Mg20  1  0.58611600  0.83533800  0.69411200  1
  Mg  Mg21  1  0.43114500  0.13877100  0.67710000  1
  Mg  Mg22  1  0.90119300  0.75800700  0.66055900  1
  Mg  Mg23  1  0.11606800  0.21610200  0.71065300  1
  Mg  Mg24  1  0.76793400  0.56261100  0.78502100  1
  Mg  Mg25  1  0.61296300  0.86604400  0.76800900  1
  Mg  Mg26  1  0.08301100  0.48528000  0.75146800  1
  Mg  Mg27  1  0.29788600  0.94337500  0.80156200  1
  Zn  Zn28  1  0.09953900  0.35069100  0.23106100  1
  Zn  Zn29  1  0.21693000  0.08747800  0.25650200  1
  Zn  Zn30  1  0.50539600  0.00497000  0.22411100  1
  Zn  Zn31  1  0.27920000  0.67878600  0.19367000  1
  Zn  Zn32  1  0.91987900  0.02259600  0.26845100  1
  Zn  Zn33  1  0.91688000  0.76477200  0.26792700  1
  Zn  Zn34  1  0.83252600  0.40238000  0.22139500  1
  Zn  Zn35  1  0.98214900  0.61390400  0.20561900  1
  Zn  Zn36  1  0.27460500  0.43692300  0.19475300  1
  Zn  Zn37  1  0.92447400  0.26445800  0.26736900  1
  Zn  Zn38  1  0.36655300  0.29900200  0.24072600  1
  Zn  Zn39  1  0.37407200  0.79880000  0.24013100  1
  Zn  Zn40  1  0.69368300  0.69641200  0.23801100  1
  Zn  Zn41  1  0.82500700  0.90258200  0.22199000  1
  Zn  Zn42  1  0.28219900  0.93661000  0.19419500  1
  Zn  Zn43  1  0.09953900  0.85069100  0.23106100  1
  Zn  Zn44  1  0.93284800  0.52118700  0.26732400  1
  Zn  Zn45  1  0.26623100  0.18019500  0.19479800  1
  Zn  Zn46  1  0.28135800  0.07796400  0.32197000  1
  Zn  Zn47  1  0.39874800  0.81475100  0.34741100  1
  Zn  Zn48  1  0.68721400  0.73224200  0.31502000  1
  Zn  Zn49  1  0.46101800  0.40605900  0.28457900  1
  Zn  Zn50  1  0.10169700  0.74986900  0.35936000  1
  Zn  Zn51  1  0.09869800  0.49204500  0.35883600  1
  Zn  Zn52  1  0.01434400  0.12965300  0.31230400  1
  Zn  Zn53  1  0.16396700  0.34117700  0.29652800  1
  Zn  Zn54  1  0.68471900  0.95753400  0.27595400  1
  Zn  Zn55  1  0.45642300  0.16419600  0.28566200  1
  Zn  Zn56  1  0.10629200  0.99173100  0.35827800  1
  Zn  Zn57  1  0.54837100  0.02627500  0.33163500  1
  Zn  Zn58  1  0.55589000  0.52607300  0.33104000  1
  Zn  Zn59  1  0.87550100  0.42368500  0.32892000  1
  Zn  Zn60  1  0.00682500  0.62985400  0.31289900  1
  Zn  Zn61  1  0.46401700  0.66388200  0.28510400  1
  Zn  Zn62  1  0.28135800  0.57796400  0.32197000  1
  Zn  Zn63  1  0.11466600  0.24846000  0.35823300  1
  Zn  Zn64  1  0.44804900  0.90746800  0.28570700  1
  Zn  Zn65  1  0.69617800  0.47112000  0.27707600  1
  Zn  Zn66  1  0.46317600  0.80523600  0.41287900  1
  Zn  Zn67  1  0.58056600  0.54202300  0.43832000  1
  Zn  Zn68  1  0.86903200  0.45951500  0.40592900  1
  Zn  Zn69  1  0.64283600  0.13333100  0.37548800  1
  Zn  Zn70  1  0.28351500  0.47714100  0.45027000  1
  Zn  Zn71  1  0.28051600  0.21931800  0.44974500  1
  Zn  Zn72  1  0.19616200  0.85692500  0.40321300  1
  Zn  Zn73  1  0.34578500  0.06844900  0.38743700  1
  Zn  Zn74  1  0.86653700  0.68480700  0.36686300  1
  Zn  Zn75  1  0.63824200  0.89146900  0.37657100  1
  Zn  Zn76  1  0.28811000  0.71900400  0.44918700  1
  Zn  Zn77  1  0.73018900  0.75354700  0.42254500  1
  Zn  Zn78  1  0.73770800  0.25334600  0.42194900  1
  Zn  Zn79  1  0.05731900  0.15095800  0.41982900  1
  Zn  Zn80  1  0.18864300  0.35712700  0.40380800  1
  Zn  Zn81  1  0.64583500  0.39115500  0.37601300  1
  Zn  Zn82  1  0.46317600  0.30523600  0.41287900  1
  Zn  Zn83  1  0.29648400  0.97573200  0.44914200  1
  Zn  Zn84  1  0.62986700  0.63474000  0.37661600  1
  Zn  Zn85  1  0.87799600  0.19839300  0.36798500  1
  Zn  Zn86  1  0.64499400  0.53250900  0.50378800  1
  Zn  Zn87  1  0.76238500  0.26929600  0.52923000  1
  Zn  Zn88  1  0.05085100  0.18678800  0.49683800  1
  Zn  Zn89  1  0.82465500  0.86060400  0.46639700  1
  Zn  Zn90  1  0.46533300  0.20441400  0.54117900  1
  Zn  Zn91  1  0.46233400  0.94659000  0.54065400  1
  Zn  Zn92  1  0.37798100  0.58419800  0.49412200  1
  Zn  Zn93  1  0.52760300  0.79572200  0.47834600  1
  Zn  Zn94  1  0.04835500  0.41208000  0.45777200  1
  Zn  Zn95  1  0.82006000  0.61874200  0.46748000  1
  Zn  Zn96  1  0.46992800  0.44627700  0.54009600  1
  Zn  Zn97  1  0.91200700  0.48082000  0.51345400  1
  Zn  Zn98  1  0.91952700  0.98061800  0.51285800  1
  Zn  Zn99  1  0.23913700  0.87823100  0.51073800  1
  Zn  Zn100  1  0.37046100  0.08440000  0.49471700  1
  Zn  Zn101  1  0.82765400  0.11842800  0.46692200  1
  Zn  Zn102  1  0.64499400  0.03250900  0.50378800  1
  Zn  Zn103  1  0.47830200  0.70300500  0.54005100  1
  Zn  Zn104  1  0.81168500  0.36201300  0.46752500  1
  Zn  Zn105  1  0.05981400  0.92566600  0.45889400  1
  Zn  Zn106  1  0.82681200  0.25978200  0.59469700  1
  Zn  Zn107  1  0.94420300  0.99656900  0.62013900  1
  Zn  Zn108  1  0.23266900  0.91406000  0.58774700  1
  Zn  Zn109  1  0.00647300  0.58787700  0.55730600  1
  Zn  Zn110  1  0.64715100  0.93168700  0.63208800  1
  Zn  Zn111  1  0.64415200  0.67386300  0.63156300  1
  Zn  Zn112  1  0.55979900  0.31147100  0.58503100  1
  Zn  Zn113  1  0.70942100  0.52299500  0.56925500  1
  Zn  Zn114  1  0.23017300  0.13935300  0.54868100  1
  Zn  Zn115  1  0.00187800  0.34601400  0.55838900  1
  Zn  Zn116  1  0.65174600  0.17354900  0.63100500  1
  Zn  Zn117  1  0.09382500  0.20809300  0.60436300  1
  Zn  Zn118  1  0.10134500  0.70789100  0.60376700  1
  Zn  Zn119  1  0.42095500  0.60550300  0.60164700  1
  Zn  Zn120  1  0.55227900  0.81167300  0.58562600  1
  Zn  Zn121  1  0.00947200  0.84570000  0.55783100  1
  Zn  Zn122  1  0.82681200  0.75978200  0.59469700  1
  Zn  Zn123  1  0.66012100  0.43027800  0.63096000  1
  Zn  Zn124  1  0.99350400  0.08928600  0.55843400  1
  Zn  Zn125  1  0.24163300  0.65293800  0.54980400  1
  Zn  Zn126  1  0.00863000  0.98705500  0.68560600  1
  Zn  Zn127  1  0.12602100  0.72384200  0.71104800  1
  Zn  Zn128  1  0.41448700  0.64133300  0.67865600  1
  Zn  Zn129  1  0.18829100  0.31515000  0.64821500  1
  Zn  Zn130  1  0.82897000  0.65895900  0.72299700  1
  Zn  Zn131  1  0.82597100  0.40113600  0.72247200  1
  Zn  Zn132  1  0.74161700  0.03874300  0.67594000  1
  Zn  Zn133  1  0.89124000  0.25026800  0.66016400  1
  Zn  Zn134  1  0.41199200  0.86662500  0.63959000  1
  Zn  Zn135  1  0.18369600  0.07328700  0.64929800  1
  Zn  Zn136  1  0.83356500  0.90082200  0.72191400  1
  Zn  Zn137  1  0.27564400  0.93536600  0.69527200  1
  Zn  Zn138  1  0.28316300  0.43516400  0.69467700  1
  Zn  Zn139  1  0.60277400  0.33277600  0.69255600  1
  Zn  Zn140  1  0.73409800  0.53894500  0.67653600  1
  Zn  Zn141  1  0.19129000  0.57297300  0.64874000  1
  Zn  Zn142  1  0.00863000  0.48705500  0.68560600  1
  Zn  Zn143  1  0.84193900  0.15755100  0.72186900  1
  Zn  Zn144  1  0.17532200  0.81655900  0.64934300  1
  Zn  Zn145  1  0.42345100  0.38021100  0.64071300  1
  Zn  Zn146  1  0.19044800  0.71432700  0.77651500  1
  Zn  Zn147  1  0.30783900  0.45111400  0.80195700  1
  Zn  Zn148  1  0.59630500  0.36860600  0.76956500  1
  Zn  Zn149  1  0.37010900  0.04242200  0.73912400  1
  Zn  Zn150  1  0.01078800  0.38623200  0.81390600  1
  Zn  Zn151  1  0.00778900  0.12840900  0.81338100  1
  Zn  Zn152  1  0.92343500  0.76601600  0.76684900  1
  Zn  Zn153  1  0.07305800  0.97754000  0.75107300  1
  Zn  Zn154  1  0.59381000  0.59389800  0.73049900  1
  Zn  Zn155  1  0.36551400  0.80056000  0.74020700  1
  Zn  Zn156  1  0.01538300  0.62809500  0.81282300  1
  Zn  Zn157  1  0.45746200  0.66263800  0.78618100  1
  Zn  Zn158  1  0.46498100  0.16243700  0.78558600  1
  Zn  Zn159  1  0.78459200  0.06004900  0.78346500  1
  Zn  Zn160  1  0.91591600  0.26621800  0.76744500  1
  Zn  Zn161  1  0.37310800  0.30024600  0.73964900  1
  Zn  Zn162  1  0.19044800  0.21432700  0.77651500  1
  Zn  Zn163  1  0.02375700  0.88482300  0.81277800  1
  Zn  Zn164  1  0.35714000  0.54383100  0.74025200  1
  Zn  Zn165  1  0.60526900  0.10748400  0.73162200  1
