# generated using pymatgen
data_Mg14Zn25
_symmetry_space_group_name_H-M   'P 1'
_cell_length_a   5.07402209
_cell_length_b   22.10207791
_cell_length_c   42.67993100
_cell_angle_alpha   98.00895109
_cell_angle_beta   93.24549340
_cell_angle_gamma   83.83945518
_symmetry_Int_Tables_number   1
_chemical_formula_structural   Mg14Zn25
_chemical_formula_sum   'Mg42 Zn75'
_cell_volume   4708.12433190
_cell_formula_units_Z   3
loop_
 _symmetry_equiv_pos_site_id
 _symmetry_equiv_pos_as_xyz
  1  'x, y, z'
loop_
 _atom_site_type_symbol
 _atom_site_label
 _atom_site_symmetry_multiplicity
 _atom_site_fract_x
 _atom_site_fract_y
 _atom_site_fract_z
 _atom_site_occupancy
  Mg  Mg0  1  0.43612100  0.72402400  0.38296200  1
  Mg  Mg1  1  0.29998600  0.96395200  0.35619500  1
  Mg  Mg2  1  0.07422700  0.39683500  0.32030800  1
  Mg  Mg3  1  0.91037100  0.74401200  0.34466900  1
  Mg  Mg4  1  0.01253500  0.39074800  0.19843300  1
  Mg  Mg5  1  0.51884800  0.57618200  0.39276600  1
  Mg  Mg6  1  0.08027100  0.30580100  0.25371100  1
  Mg  Mg7  1  0.85394300  0.78461500  0.28078500  1
  Mg  Mg8  1  0.62356500  0.21594800  0.24881800  1
  Mg  Mg9  1  0.95177800  0.53787900  0.22702200  1
  Mg  Mg10  1  0.69008700  0.13179200  0.30514700  1
  Mg  Mg11  1  0.14074900  0.31267900  0.37663700  1
  Mg  Mg12  1  0.35765500  0.82681000  0.32902300  1
  Mg  Mg13  1  0.52760900  0.48625000  0.32617400  1
  Mg  Mg14  1  0.23670500  0.04237800  0.29928100  1
  Mg  Mg15  1  0.68404300  0.22282600  0.37174300  1
  Mg  Mg16  1  0.32819300  0.80460400  0.24249200  1
  Mg  Mg17  1  0.24546600  0.95244500  0.23268800  1
  Mg  Mg18  1  0.46432800  0.56467500  0.26925900  1
  Mg  Mg19  1  0.40665800  0.70181700  0.29643100  1
  Mg  Mg20  1  0.23612100  0.32402400  0.58296200  1
  Mg  Mg21  1  0.09998600  0.56395200  0.55619500  1
  Mg  Mg22  1  0.87422700  0.99683500  0.52030800  1
  Mg  Mg23  1  0.71037100  0.34401200  0.54466900  1
  Mg  Mg24  1  0.81253500  0.99074800  0.39843300  1
  Mg  Mg25  1  0.31884800  0.17618200  0.59276600  1
  Mg  Mg26  1  0.88027100  0.90580100  0.45371100  1
  Mg  Mg27  1  0.65394300  0.38461500  0.48078500  1
  Mg  Mg28  1  0.42356500  0.81594800  0.44881800  1
  Mg  Mg29  1  0.75177800  0.13787900  0.42702200  1
  Mg  Mg30  1  0.49008700  0.73179200  0.50514700  1
  Mg  Mg31  1  0.94074900  0.91267900  0.57663700  1
  Mg  Mg32  1  0.15765500  0.42681000  0.52902300  1
  Mg  Mg33  1  0.32760900  0.08625000  0.52617400  1
  Mg  Mg34  1  0.03670500  0.64237800  0.49928100  1
  Mg  Mg35  1  0.48404300  0.82282600  0.57174300  1
  Mg  Mg36  1  0.12819300  0.40460400  0.44249200  1
  Mg  Mg37  1  0.04546600  0.55244500  0.43268800  1
  Mg  Mg38  1  0.26432800  0.16467500  0.46925900  1
  Mg  Mg39  1  0.20665800  0.30181700  0.49643100  1
  Mg  Mg40  1  0.61253500  0.59074800  0.59843300  1
  Mg  Mg41  1  0.55177800  0.73787900  0.62702200  1
  Zn  Zn42  1  0.54175200  0.34862200  0.22442800  1
  Zn  Zn43  1  0.83417700  0.88818400  0.34209800  1
  Zn  Zn44  1  0.16416300  0.17203800  0.27743900  1
  Zn  Zn45  1  0.63779200  0.67322000  0.23411900  1
  Zn  Zn46  1  0.98909700  0.08968100  0.36166100  1
  Zn  Zn47  1  0.62149000  0.85777700  0.39076100  1
  Zn  Zn48  1  0.88215700  0.26431400  0.31272700  1
  Zn  Zn49  1  0.42256200  0.58000500  0.20102600  1
  Zn  Zn50  1  0.74305400  0.99655700  0.26515300  1
  Zn  Zn51  1  0.26889700  0.43886300  0.26389100  1
  Zn  Zn52  1  0.93438100  0.08197700  0.24165700  1
  Zn  Zn53  1  0.97627700  0.64992100  0.38832600  1
  Zn  Zn54  1  0.57697000  0.34965100  0.28685900  1
  Zn  Zn55  1  0.99854500  0.52726800  0.29743900  1
  Zn  Zn56  1  0.93013600  0.64044300  0.28335600  1
  Zn  Zn57  1  0.02126000  0.53207000  0.36030200  1
  Zn  Zn58  1  0.22475200  0.61983800  0.33513700  1
  Zn  Zn59  1  0.49541700  0.08976400  0.36156300  1
  Zn  Zn60  1  0.14282400  0.67085100  0.23469300  1
  Zn  Zn61  1  0.18734400  0.17897600  0.33859500  1
  Zn  Zn62  1  0.53956200  0.90878900  0.29031800  1
  Zn  Zn63  1  0.77521600  0.43894600  0.26379300  1
  Zn  Zn64  1  0.38215700  0.26431400  0.31272700  1
  Zn  Zn65  1  0.12437600  0.17244100  0.21639500  1
  Zn  Zn66  1  0.43900100  0.08106000  0.24185300  1
  Zn  Zn67  1  0.71019600  0.62198600  0.33497200  1
  Zn  Zn68  1  0.83993700  0.75618600  0.20906000  1
  Zn  Zn69  1  0.05411700  0.90664200  0.29048300  1
  Zn  Zn70  1  0.76576900  0.00136000  0.32801600  1
  Zn  Zn71  1  0.32531300  0.44756800  0.38360100  1
  Zn  Zn72  1  0.12652200  0.85540700  0.39133600  1
  Zn  Zn73  1  0.48215700  0.46431400  0.21272700  1
  Zn  Zn74  1  0.82993200  0.44665000  0.38379700  1
  Zn  Zn75  1  0.78803600  0.87870700  0.23712900  1
  Zn  Zn76  1  0.60015000  0.35659000  0.34801500  1
  Zn  Zn77  1  0.34175200  0.94862200  0.42442800  1
  Zn  Zn78  1  0.63417700  0.48818400  0.54209800  1
  Zn  Zn79  1  0.96416300  0.77203800  0.47743900  1
  Zn  Zn80  1  0.43779200  0.27322000  0.43411900  1
  Zn  Zn81  1  0.78909700  0.68968100  0.56166100  1
  Zn  Zn82  1  0.42149000  0.45777700  0.59076100  1
  Zn  Zn83  1  0.68215700  0.86431400  0.51272700  1
  Zn  Zn84  1  0.22256200  0.18000500  0.40102600  1
  Zn  Zn85  1  0.54305400  0.59655700  0.46515300  1
  Zn  Zn86  1  0.06889700  0.03886300  0.46389100  1
  Zn  Zn87  1  0.73438100  0.68197700  0.44165700  1
  Zn  Zn88  1  0.77627700  0.24992100  0.58832600  1
  Zn  Zn89  1  0.37697000  0.94965100  0.48685900  1
  Zn  Zn90  1  0.79854500  0.12726800  0.49743900  1
  Zn  Zn91  1  0.73013600  0.24044300  0.48335600  1
  Zn  Zn92  1  0.82126000  0.13207000  0.56030200  1
  Zn  Zn93  1  0.02475200  0.21983800  0.53513700  1
  Zn  Zn94  1  0.29541700  0.68976400  0.56156300  1
  Zn  Zn95  1  0.94282400  0.27085100  0.43469300  1
  Zn  Zn96  1  0.98734400  0.77897600  0.53859500  1
  Zn  Zn97  1  0.33956200  0.50878900  0.49031800  1
  Zn  Zn98  1  0.57521600  0.03894600  0.46379300  1
  Zn  Zn99  1  0.18215700  0.86431400  0.51272700  1
  Zn  Zn100  1  0.92437600  0.77244100  0.41639500  1
  Zn  Zn101  1  0.23900100  0.68106000  0.44185300  1
  Zn  Zn102  1  0.51019600  0.22198600  0.53497200  1
  Zn  Zn103  1  0.63993700  0.35618600  0.40906000  1
  Zn  Zn104  1  0.85411700  0.50664200  0.49048300  1
  Zn  Zn105  1  0.56576900  0.60136000  0.52801600  1
  Zn  Zn106  1  0.12531300  0.04756800  0.58360100  1
  Zn  Zn107  1  0.92652200  0.45540700  0.59133600  1
  Zn  Zn108  1  0.28215700  0.06431400  0.41272700  1
  Zn  Zn109  1  0.62993200  0.04665000  0.58379700  1
  Zn  Zn110  1  0.58803600  0.47870700  0.43712900  1
  Zn  Zn111  1  0.40015000  0.95659000  0.54801500  1
  Zn  Zn112  1  0.14175200  0.54862200  0.62442800  1
  Zn  Zn113  1  0.02256200  0.78000500  0.60102600  1
  Zn  Zn114  1  0.72437600  0.37244100  0.61639500  1
  Zn  Zn115  1  0.43993700  0.95618600  0.60906000  1
  Zn  Zn116  1  0.08215700  0.66431400  0.61272700  1
