# generated using pymatgen
data_Mg2Hg
_symmetry_space_group_name_H-M   'P 1'
_cell_length_a   4.75496500
_cell_length_b   10.73367025
_cell_length_c   41.14994800
_cell_angle_alpha   87.73861022
_cell_angle_beta   90.00000000
_cell_angle_gamma   90.00000000
_symmetry_Int_Tables_number   1
_chemical_formula_structural   Mg2Hg
_chemical_formula_sum   'Mg40 Hg20'
_cell_volume   2098.58473503
_cell_formula_units_Z   20
loop_
 _symmetry_equiv_pos_site_id
 _symmetry_equiv_pos_as_xyz
  1  'x, y, z'
loop_
 _atom_site_type_symbol
 _atom_site_label
 _atom_site_symmetry_multiplicity
 _atom_site_fract_x
 _atom_site_fract_y
 _atom_site_fract_z
 _atom_site_occupancy
  Mg  Mg0  1  0.75000000  0.48061300  0.29014300  1
  Mg  Mg1  1  0.25000000  0.14438700  0.20985700  1
  Mg  Mg2  1  0.75000000  0.61993400  0.21800800  1
  Mg  Mg3  1  0.25000000  0.00506600  0.28199200  1
  Mg  Mg4  1  0.25000000  0.41779900  0.23556000  1
  Mg  Mg5  1  0.75000000  0.20720100  0.26444000  1
  Mg  Mg6  1  0.25000000  0.84032400  0.22006500  1
  Mg  Mg7  1  0.75000000  0.78467600  0.27993500  1
  Mg  Mg8  1  0.75000000  0.10561300  0.41514300  1
  Mg  Mg9  1  0.25000000  0.76938700  0.33485700  1
  Mg  Mg10  1  0.75000000  0.24493400  0.34300800  1
  Mg  Mg11  1  0.25000000  0.63006600  0.40699200  1
  Mg  Mg12  1  0.25000000  0.04279900  0.36056000  1
  Mg  Mg13  1  0.75000000  0.83220100  0.38944000  1
  Mg  Mg14  1  0.25000000  0.46532400  0.34506500  1
  Mg  Mg15  1  0.75000000  0.40967600  0.40493500  1
  Mg  Mg16  1  0.75000000  0.73061300  0.54014300  1
  Mg  Mg17  1  0.25000000  0.39438700  0.45985700  1
  Mg  Mg18  1  0.75000000  0.86993400  0.46800800  1
  Mg  Mg19  1  0.25000000  0.25506600  0.53199200  1
  Mg  Mg20  1  0.25000000  0.66779900  0.48556000  1
  Mg  Mg21  1  0.75000000  0.45720100  0.51444000  1
  Mg  Mg22  1  0.25000000  0.09032400  0.47006500  1
  Mg  Mg23  1  0.75000000  0.03467600  0.52993500  1
  Mg  Mg24  1  0.75000000  0.35561300  0.66514300  1
  Mg  Mg25  1  0.25000000  0.01938700  0.58485700  1
  Mg  Mg26  1  0.75000000  0.49493400  0.59300800  1
  Mg  Mg27  1  0.25000000  0.88006600  0.65699200  1
  Mg  Mg28  1  0.25000000  0.29279900  0.61056000  1
  Mg  Mg29  1  0.75000000  0.08220100  0.63944000  1
  Mg  Mg30  1  0.25000000  0.71532400  0.59506500  1
  Mg  Mg31  1  0.75000000  0.65967600  0.65493500  1
  Mg  Mg32  1  0.75000000  0.98061300  0.79014300  1
  Mg  Mg33  1  0.25000000  0.64438700  0.70985700  1
  Mg  Mg34  1  0.75000000  0.11993400  0.71800800  1
  Mg  Mg35  1  0.25000000  0.50506600  0.78199200  1
  Mg  Mg36  1  0.25000000  0.91779900  0.73556000  1
  Mg  Mg37  1  0.75000000  0.70720100  0.76444000  1
  Mg  Mg38  1  0.25000000  0.34032400  0.72006500  1
  Mg  Mg39  1  0.75000000  0.28467600  0.77993500  1
  Hg  Hg40  1  0.75000000  0.98519000  0.22859100  1
  Hg  Hg41  1  0.25000000  0.63981000  0.27140900  1
  Hg  Hg42  1  0.75000000  0.34961300  0.20147500  1
  Hg  Hg43  1  0.25000000  0.27538700  0.29852500  1
  Hg  Hg44  1  0.75000000  0.61019000  0.35359100  1
  Hg  Hg45  1  0.25000000  0.26481000  0.39640900  1
  Hg  Hg46  1  0.75000000  0.97461300  0.32647500  1
  Hg  Hg47  1  0.25000000  0.90038700  0.42352500  1
  Hg  Hg48  1  0.75000000  0.23519000  0.47859100  1
  Hg  Hg49  1  0.25000000  0.88981000  0.52140900  1
  Hg  Hg50  1  0.75000000  0.59961300  0.45147500  1
  Hg  Hg51  1  0.25000000  0.52538700  0.54852500  1
  Hg  Hg52  1  0.75000000  0.86019000  0.60359100  1
  Hg  Hg53  1  0.25000000  0.51481000  0.64640900  1
  Hg  Hg54  1  0.75000000  0.22461300  0.57647500  1
  Hg  Hg55  1  0.25000000  0.15038700  0.67352500  1
  Hg  Hg56  1  0.75000000  0.48519000  0.72859100  1
  Hg  Hg57  1  0.25000000  0.13981000  0.77140900  1
  Hg  Hg58  1  0.75000000  0.84961300  0.70147500  1
  Hg  Hg59  1  0.25000000  0.77538700  0.79852500  1
