# generated using pymatgen
data_Pr2Mg23
_symmetry_space_group_name_H-M   'P 1'
_cell_length_a   5.93281560
_cell_length_b   7.86707123
_cell_length_c   51.09080100
_cell_angle_alpha   88.74552175
_cell_angle_beta   86.67145082
_cell_angle_gamma   67.84791274
_symmetry_Int_Tables_number   1
_chemical_formula_structural   Pr2Mg23
_chemical_formula_sum   'Pr4 Mg46'
_cell_volume   2204.86341953
_cell_formula_units_Z   2
loop_
 _symmetry_equiv_pos_site_id
 _symmetry_equiv_pos_as_xyz
  1  'x, y, z'
loop_
 _atom_site_type_symbol
 _atom_site_label
 _atom_site_symmetry_multiplicity
 _atom_site_fract_x
 _atom_site_fract_y
 _atom_site_fract_z
 _atom_site_occupancy
  Pr  Pr0  1  0.32792900  0.64084600  0.70329700  1
  Pr  Pr1  1  0.89935700  0.64084600  0.56044000  1
  Pr  Pr2  1  0.47078600  0.64084600  0.41758200  1
  Pr  Pr3  1  0.04221400  0.64084600  0.27472500  1
  Mg  Mg4  1  0.82792900  0.14084600  0.70329700  1
  Mg  Mg5  1  0.32792900  0.14084600  0.70329700  1
  Mg  Mg6  1  0.52921400  0.28859600  0.65297500  1
  Mg  Mg7  1  0.47889300  0.28859600  0.75361800  1
  Mg  Mg8  1  0.17696500  0.99309500  0.65297500  1
  Mg  Mg9  1  0.12664300  0.99309500  0.75361800  1
  Mg  Mg10  1  0.70615700  0.85394600  0.73374000  1
  Mg  Mg11  1  0.73660000  0.85394600  0.67285400  1
  Mg  Mg12  1  0.91925700  0.42774600  0.73374000  1
  Mg  Mg13  1  0.94970000  0.42774600  0.67285400  1
  Mg  Mg14  1  0.39935700  0.14084600  0.56044000  1
  Mg  Mg15  1  0.11364300  0.64084600  0.63186800  1
  Mg  Mg16  1  0.61364300  0.64084600  0.63186800  1
  Mg  Mg17  1  0.89935700  0.14084600  0.56044000  1
  Mg  Mg18  1  0.10064300  0.28859600  0.51011800  1
  Mg  Mg19  1  0.05032100  0.28859600  0.61076100  1
  Mg  Mg20  1  0.74839300  0.99309500  0.51011800  1
  Mg  Mg21  1  0.69807200  0.99309500  0.61076100  1
  Mg  Mg22  1  0.27758600  0.85394600  0.59088200  1
  Mg  Mg23  1  0.30802900  0.85394600  0.52999700  1
  Mg  Mg24  1  0.49068600  0.42774600  0.59088200  1
  Mg  Mg25  1  0.52112900  0.42774600  0.52999700  1
  Mg  Mg26  1  0.97078600  0.14084600  0.41758200  1
  Mg  Mg27  1  0.68507200  0.64084600  0.48901100  1
  Mg  Mg28  1  0.18507200  0.64084600  0.48901100  1
  Mg  Mg29  1  0.47078600  0.14084600  0.41758200  1
  Mg  Mg30  1  0.67207100  0.28859600  0.36726100  1
  Mg  Mg31  1  0.62175000  0.28859600  0.46790400  1
  Mg  Mg32  1  0.31982200  0.99309500  0.36726100  1
  Mg  Mg33  1  0.26950000  0.99309500  0.46790400  1
  Mg  Mg34  1  0.84901400  0.85394600  0.44802500  1
  Mg  Mg35  1  0.87945700  0.85394600  0.38714000  1
  Mg  Mg36  1  0.06211400  0.42774600  0.44802500  1
  Mg  Mg37  1  0.09255700  0.42774600  0.38714000  1
  Mg  Mg38  1  0.54221400  0.14084600  0.27472500  1
  Mg  Mg39  1  0.25650000  0.64084600  0.34615400  1
  Mg  Mg40  1  0.75650000  0.64084600  0.34615400  1
  Mg  Mg41  1  0.04221400  0.14084600  0.27472500  1
  Mg  Mg42  1  0.24350000  0.28859600  0.22440400  1
  Mg  Mg43  1  0.19317800  0.28859600  0.32504700  1
  Mg  Mg44  1  0.89125000  0.99309500  0.22440400  1
  Mg  Mg45  1  0.84092900  0.99309500  0.32504700  1
  Mg  Mg46  1  0.42044300  0.85394600  0.30516800  1
  Mg  Mg47  1  0.45088600  0.85394600  0.24428200  1
  Mg  Mg48  1  0.63354300  0.42774600  0.30516800  1
  Mg  Mg49  1  0.66398600  0.42774600  0.24428200  1
