# generated using pymatgen
data_Mg22Zn43
_symmetry_space_group_name_H-M   'P 1'
_cell_length_a   5.07402229
_cell_length_b   14.70723601
_cell_length_c   50.49845100
_cell_angle_alpha   88.21601723
_cell_angle_beta   89.67566990
_cell_angle_gamma   90.29193359
_symmetry_Int_Tables_number   1
_chemical_formula_structural   Mg22Zn43
_chemical_formula_sum   'Mg22 Zn43'
_cell_volume   3766.49971225
_cell_formula_units_Z   1
loop_
 _symmetry_equiv_pos_site_id
 _symmetry_equiv_pos_as_xyz
  1  'x, y, z'
loop_
 _atom_site_type_symbol
 _atom_site_label
 _atom_site_symmetry_multiplicity
 _atom_site_fract_x
 _atom_site_fract_y
 _atom_site_fract_z
 _atom_site_occupancy
  Mg  Mg0  1  0.20331900  0.88974000  0.46047600  1
  Mg  Mg1  1  0.20053200  0.15619200  0.38041900  1
  Mg  Mg2  1  0.70915700  0.40243600  0.49528200  1
  Mg  Mg3  1  0.70671000  0.86685900  0.42675900  1
  Mg  Mg4  1  0.70536100  0.24248400  0.40539800  1
  Mg  Mg5  1  0.70722300  0.96719300  0.25478900  1
  Mg  Mg6  1  0.70298300  0.20539800  0.46809300  1
  Mg  Mg7  1  0.70252500  0.83775900  0.36869600  1
  Mg  Mg8  1  0.20379700  0.08696500  0.48688600  1
  Mg  Mg9  1  0.70387400  0.46213400  0.39005700  1
  Mg  Mg10  1  0.70007700  0.30218100  0.30017200  1
  Mg  Mg11  1  0.20543700  0.61765200  0.30856800  1
  Mg  Mg12  1  0.20321600  0.95079900  0.39432500  1
  Mg  Mg13  1  0.20431400  0.52153700  0.47732800  1
  Mg  Mg14  1  0.20492000  0.18308000  0.31812600  1
  Mg  Mg15  1  0.70625200  0.49921900  0.32736100  1
  Mg  Mg16  1  0.20591600  0.81487800  0.33497900  1
  Mg  Mg17  1  0.20201200  0.98742400  0.29066500  1
  Mg  Mg18  1  0.20870300  0.54842500  0.41503600  1
  Mg  Mg19  1  0.20601800  0.75381800  0.40113000  1
  Mg  Mg20  1  0.20722300  0.71719300  0.50478900  1
  Mg  Mg21  1  0.70201200  0.73742400  0.54066500  1
  Zn  Zn22  1  0.20051600  0.22232000  0.43542600  1
  Zn  Zn23  1  0.70388800  0.04386100  0.38878800  1
  Zn  Zn24  1  0.20813000  0.31785400  0.26933000  1
  Zn  Zn25  1  0.45401000  0.64018100  0.36154400  1
  Zn  Zn26  1  0.94977400  0.32018600  0.35308600  1
  Zn  Zn27  1  0.45166500  0.06668000  0.43288700  1
  Zn  Zn28  1  0.95461700  0.47730900  0.27272700  1
  Zn  Zn29  1  0.20871900  0.48229700  0.36002900  1
  Zn  Zn30  1  0.70542400  0.08314400  0.30398500  1
  Zn  Zn31  1  0.95305000  0.38445000  0.44246300  1
  Zn  Zn32  1  0.95120900  0.16055100  0.26500900  1
  Zn  Zn33  1  0.70374200  0.80381600  0.48302400  1
  Zn  Zn34  1  0.20503300  0.30164500  0.48199200  1
  Zn  Zn35  1  0.71012600  0.53689100  0.44552300  1
  Zn  Zn36  1  0.70534700  0.66075700  0.40666700  1
  Zn  Zn37  1  0.70381100  0.62147300  0.49146900  1
  Zn  Zn38  1  0.96377000  0.69972600  0.45065300  1
  Zn  Zn39  1  0.45618500  0.32016700  0.35299200  1
  Zn  Zn40  1  0.95757000  0.63793700  0.36256700  1
  Zn  Zn41  1  0.20420200  0.40297200  0.31346300  1
  Zn  Zn42  1  0.44546500  0.00489100  0.34480100  1
  Zn  Zn43  1  0.45946000  0.38443100  0.44236900  1
  Zn  Zn44  1  0.45461700  0.47730900  0.27272700  1
  Zn  Zn45  1  0.69906700  0.99205200  0.47344600  1
  Zn  Zn46  1  0.45527100  0.15964900  0.26538500  1
  Zn  Zn47  1  0.45037100  0.70220500  0.44999300  1
  Zn  Zn48  1  0.71016800  0.71256500  0.32200900  1
  Zn  Zn49  1  0.95886400  0.00241300  0.34546200  1
  Zn  Zn50  1  0.69910900  0.16772700  0.34993200  1
  Zn  Zn51  1  0.45396400  0.79496900  0.28006900  1
  Zn  Zn52  1  0.95522500  0.06443600  0.43391000  1
  Zn  Zn53  1  0.20461700  0.35230900  0.39772700  1
  Zn  Zn54  1  0.95802600  0.79406700  0.28044600  1
  Zn  Zn55  1  0.70549200  0.90080200  0.31243000  1
  Zn  Zn56  1  0.70110500  0.63676400  0.27612400  1
  Zn  Zn57  1  0.70813000  0.06785400  0.51933000  1
  Zn  Zn58  1  0.45461700  0.22730900  0.52272700  1
  Zn  Zn59  1  0.45120900  0.91055100  0.51500900  1
  Zn  Zn60  1  0.95461700  0.22730900  0.52272700  1
  Zn  Zn61  1  0.95527100  0.90964900  0.51538500  1
  Zn  Zn62  1  0.95396400  0.54496900  0.53006900  1
  Zn  Zn63  1  0.45802600  0.54406700  0.53044600  1
  Zn  Zn64  1  0.20110500  0.38676400  0.52612400  1
