# generated using pymatgen
data_Mg17Tl8
_symmetry_space_group_name_H-M   'P 1'
_cell_length_a   6.32911700
_cell_length_b   7.14576700
_cell_length_c   58.90696300
_cell_angle_alpha   90.00000000
_cell_angle_beta   90.00000000
_cell_angle_gamma   90.00000000
_symmetry_Int_Tables_number   1
_chemical_formula_structural   Mg17Tl8
_chemical_formula_sum   'Mg34 Tl16'
_cell_volume   2664.14960032
_cell_formula_units_Z   2
loop_
 _symmetry_equiv_pos_site_id
 _symmetry_equiv_pos_as_xyz
  1  'x, y, z'
loop_
 _atom_site_type_symbol
 _atom_site_label
 _atom_site_symmetry_multiplicity
 _atom_site_fract_x
 _atom_site_fract_y
 _atom_site_fract_z
 _atom_site_occupancy
  Mg  Mg0  1  1.00000000  0.16481900  0.49445200  1
  Mg  Mg1  1  0.75000000  0.00000000  0.28937400  1
  Mg  Mg2  1  0.25000000  0.50000000  0.47321400  1
  Mg  Mg3  1  1.00000000  0.66481900  0.32697700  1
  Mg  Mg4  1  0.50000000  0.33518100  0.32697700  1
  Mg  Mg5  1  0.75000000  0.50000000  0.28205400  1
  Mg  Mg6  1  0.25000000  0.50000000  0.28205400  1
  Mg  Mg7  1  0.25000000  0.00000000  0.28937400  1
  Mg  Mg8  1  0.50000000  0.83518100  0.49445200  1
  Mg  Mg9  1  0.75000000  0.50000000  0.47321400  1
  Mg  Mg10  1  0.50000000  0.66481900  0.36945200  1
  Mg  Mg11  1  0.25000000  0.50000000  0.41437400  1
  Mg  Mg12  1  0.75000000  0.00000000  0.34821400  1
  Mg  Mg13  1  0.50000000  0.16481900  0.45197700  1
  Mg  Mg14  1  1.00000000  0.83518100  0.45197700  1
  Mg  Mg15  1  0.25000000  0.00000000  0.40705400  1
  Mg  Mg16  1  0.75000000  0.00000000  0.40705400  1
  Mg  Mg17  1  0.75000000  0.50000000  0.41437400  1
  Mg  Mg18  1  0.00000000  0.33518100  0.36945200  1
  Mg  Mg19  1  0.25000000  0.00000000  0.34821400  1
  Mg  Mg20  1  0.75000000  0.00000000  0.53937400  1
  Mg  Mg21  1  1.00000000  0.66481900  0.57697700  1
  Mg  Mg22  1  0.50000000  0.33518100  0.57697700  1
  Mg  Mg23  1  0.75000000  0.50000000  0.53205400  1
  Mg  Mg24  1  0.25000000  0.50000000  0.53205400  1
  Mg  Mg25  1  0.25000000  0.00000000  0.53937400  1
  Mg  Mg26  1  0.50000000  0.66481900  0.61945200  1
  Mg  Mg27  1  0.25000000  0.50000000  0.66437400  1
  Mg  Mg28  1  0.75000000  0.00000000  0.59821400  1
  Mg  Mg29  1  0.25000000  0.00000000  0.65705400  1
  Mg  Mg30  1  0.75000000  0.00000000  0.65705400  1
  Mg  Mg31  1  0.75000000  0.50000000  0.66437400  1
  Mg  Mg32  1  0.00000000  0.33518100  0.61945200  1
  Mg  Mg33  1  0.25000000  0.00000000  0.59821400  1
  Tl  Tl34  1  0.50000000  0.73666200  0.31775700  1
  Tl  Tl35  1  0.50000000  0.23666200  0.25367200  1
  Tl  Tl36  1  0.00000000  0.26333800  0.31775700  1
  Tl  Tl37  1  0.00000000  0.76333800  0.25367200  1
  Tl  Tl38  1  1.00000000  0.23666200  0.44275700  1
  Tl  Tl39  1  0.00000000  0.73666200  0.37867200  1
  Tl  Tl40  1  0.50000000  0.76333800  0.44275700  1
  Tl  Tl41  1  0.50000000  0.26333800  0.37867200  1
  Tl  Tl42  1  0.50000000  0.73666200  0.56775700  1
  Tl  Tl43  1  0.50000000  0.23666200  0.50367200  1
  Tl  Tl44  1  0.00000000  0.26333800  0.56775700  1
  Tl  Tl45  1  0.00000000  0.76333800  0.50367200  1
  Tl  Tl46  1  1.00000000  0.23666200  0.69275700  1
  Tl  Tl47  1  0.00000000  0.73666200  0.62867200  1
  Tl  Tl48  1  0.50000000  0.76333800  0.69275700  1
  Tl  Tl49  1  0.50000000  0.26333800  0.62867200  1
