# generated using pymatgen
data_Mg16Au49
_symmetry_space_group_name_H-M   'P 1'
_cell_length_a   9.58286600
_cell_length_b   10.43041211
_cell_length_c   46.00314700
_cell_angle_alpha   94.13499482
_cell_angle_beta   90.00000000
_cell_angle_gamma   90.00000000
_symmetry_Int_Tables_number   1
_chemical_formula_structural   Mg16Au49
_chemical_formula_sum   'Mg32 Au98'
_cell_volume   4586.19431584
_cell_formula_units_Z   2
loop_
 _symmetry_equiv_pos_site_id
 _symmetry_equiv_pos_as_xyz
  1  'x, y, z'
loop_
 _atom_site_type_symbol
 _atom_site_label
 _atom_site_symmetry_multiplicity
 _atom_site_fract_x
 _atom_site_fract_y
 _atom_site_fract_z
 _atom_site_occupancy
  Mg  Mg0  1  0.49920200  0.29357800  0.58188900  1
  Mg  Mg1  1  0.50079800  0.70408800  0.67592300  1
  Mg  Mg2  1  0.99920200  0.70408800  0.67592300  1
  Mg  Mg3  1  0.00079800  0.29357800  0.58188900  1
  Mg  Mg4  1  0.25000000  0.92897000  0.62424900  1
  Mg  Mg5  1  0.75000000  0.06869600  0.63356400  1
  Mg  Mg6  1  0.25000000  0.39303500  0.65518600  1
  Mg  Mg7  1  0.75000000  0.60463100  0.60262600  1
  Mg  Mg8  1  0.49920200  0.41857800  0.45688900  1
  Mg  Mg9  1  0.50079800  0.82908800  0.55092300  1
  Mg  Mg10  1  0.99920200  0.82908800  0.55092300  1
  Mg  Mg11  1  0.00079800  0.41857800  0.45688900  1
  Mg  Mg12  1  0.25000000  0.05397000  0.49924900  1
  Mg  Mg13  1  0.75000000  0.19369600  0.50856400  1
  Mg  Mg14  1  0.25000000  0.51803500  0.53018600  1
  Mg  Mg15  1  0.75000000  0.72963100  0.47762600  1
  Mg  Mg16  1  0.49920200  0.54357800  0.33188900  1
  Mg  Mg17  1  0.50079800  0.95408800  0.42592300  1
  Mg  Mg18  1  0.99920200  0.95408800  0.42592300  1
  Mg  Mg19  1  0.00079800  0.54357800  0.33188900  1
  Mg  Mg20  1  0.25000000  0.17897000  0.37424900  1
  Mg  Mg21  1  0.75000000  0.31869600  0.38356400  1
  Mg  Mg22  1  0.25000000  0.64303500  0.40518600  1
  Mg  Mg23  1  0.75000000  0.85463100  0.35262600  1
  Mg  Mg24  1  0.49920200  0.66857800  0.20688900  1
  Mg  Mg25  1  0.50079800  0.07908800  0.30092300  1
  Mg  Mg26  1  0.99920200  0.07908800  0.30092300  1
  Mg  Mg27  1  0.00079800  0.66857800  0.20688900  1
  Mg  Mg28  1  0.25000000  0.30397000  0.24924900  1
  Mg  Mg29  1  0.75000000  0.44369600  0.25856400  1
  Mg  Mg30  1  0.25000000  0.76803500  0.28018600  1
  Mg  Mg31  1  0.75000000  0.97963100  0.22762600  1
  Au  Au32  1  0.50000000  0.43633300  0.69140600  1
  Au  Au33  1  0.00000000  0.43633300  0.69140600  1
  Au  Au34  1  0.00000000  0.02994300  0.59779600  1
  Au  Au35  1  0.50000000  0.96772300  0.66001600  1
  Au  Au36  1  0.00000000  0.96772300  0.66001600  1
  Au  Au37  1  0.50000000  0.02994300  0.59779600  1
  Au  Au38  1  0.00054900  0.76251200  0.61315100  1
  Au  Au39  1  0.99945100  0.23515400  0.64466100  1
  Au  Au40  1  0.50054900  0.23515400  0.64466100  1
  Au  Au41  1  0.49945100  0.76251200  0.61315100  1
  Au  Au42  1  0.75000000  0.33644600  0.61780800  1
  Au  Au43  1  0.25000000  0.72423100  0.57699400  1
  Au  Au44  1  0.25000000  0.66122100  0.64000400  1
  Au  Au45  1  0.75000000  0.27343500  0.68081900  1
  Au  Au46  1  0.75000000  0.86688700  0.58683600  1
  Au  Au47  1  0.25000000  0.19316700  0.60858800  1
  Au  Au48  1  0.25000000  0.13077900  0.67097600  1
  Au  Au49  1  0.75000000  0.80449900  0.64922400  1
  Au  Au50  1  0.50000000  0.56133300  0.56640600  1
  Au  Au51  1  0.50000000  0.49883300  0.62890600  1
  Au  Au52  1  0.00000000  0.56133300  0.56640600  1
  Au  Au53  1  0.00000000  0.49883300  0.62890600  1
  Au  Au54  1  0.25000000  0.45841300  0.59287800  1
  Au  Au55  1  0.75000000  0.53925300  0.66493400  1
  Au  Au56  1  0.25000000  0.86023700  0.68633300  1
  Au  Au57  1  0.75000000  0.13742900  0.57147900  1
  Au  Au58  1  0.00000000  0.15494300  0.47279600  1
  Au  Au59  1  0.50000000  0.09272300  0.53501600  1
  Au  Au60  1  0.00000000  0.09272300  0.53501600  1
  Au  Au61  1  0.50000000  0.15494300  0.47279600  1
  Au  Au62  1  0.00054900  0.88751200  0.48815100  1
  Au  Au63  1  0.99945100  0.36015400  0.51966100  1
  Au  Au64  1  0.50054900  0.36015400  0.51966100  1
  Au  Au65  1  0.49945100  0.88751200  0.48815100  1
  Au  Au66  1  0.75000000  0.46144600  0.49280800  1
  Au  Au67  1  0.25000000  0.84923100  0.45199400  1
  Au  Au68  1  0.25000000  0.78622100  0.51500400  1
  Au  Au69  1  0.75000000  0.39843500  0.55581900  1
  Au  Au70  1  0.75000000  0.99188700  0.46183600  1
  Au  Au71  1  0.25000000  0.31816700  0.48358800  1
  Au  Au72  1  0.25000000  0.25577900  0.54597600  1
  Au  Au73  1  0.75000000  0.92949900  0.52422400  1
  Au  Au74  1  0.50000000  0.68633300  0.44140600  1
  Au  Au75  1  0.50000000  0.62383300  0.50390600  1
  Au  Au76  1  0.00000000  0.68633300  0.44140600  1
  Au  Au77  1  0.00000000  0.62383300  0.50390600  1
  Au  Au78  1  0.25000000  0.58341300  0.46787800  1
  Au  Au79  1  0.75000000  0.66425300  0.53993400  1
  Au  Au80  1  0.25000000  0.98523700  0.56133300  1
  Au  Au81  1  0.75000000  0.26242900  0.44647900  1
  Au  Au82  1  0.00000000  0.27994300  0.34779600  1
  Au  Au83  1  0.50000000  0.21772300  0.41001600  1
  Au  Au84  1  0.00000000  0.21772300  0.41001600  1
  Au  Au85  1  0.50000000  0.27994300  0.34779600  1
  Au  Au86  1  0.00054900  0.01251200  0.36315100  1
  Au  Au87  1  0.99945100  0.48515400  0.39466100  1
  Au  Au88  1  0.50054900  0.48515400  0.39466100  1
  Au  Au89  1  0.49945100  0.01251200  0.36315100  1
  Au  Au90  1  0.75000000  0.58644600  0.36780800  1
  Au  Au91  1  0.25000000  0.97423100  0.32699400  1
  Au  Au92  1  0.25000000  0.91122100  0.39000400  1
  Au  Au93  1  0.75000000  0.52343500  0.43081900  1
  Au  Au94  1  0.75000000  0.11688700  0.33683600  1
  Au  Au95  1  0.25000000  0.44316700  0.35858800  1
  Au  Au96  1  0.25000000  0.38077900  0.42097600  1
  Au  Au97  1  0.75000000  0.05449900  0.39922400  1
  Au  Au98  1  0.50000000  0.81133300  0.31640600  1
  Au  Au99  1  0.50000000  0.74883300  0.37890600  1
  Au  Au100  1  0.00000000  0.81133300  0.31640600  1
  Au  Au101  1  0.00000000  0.74883300  0.37890600  1
  Au  Au102  1  0.25000000  0.70841300  0.34287800  1
  Au  Au103  1  0.75000000  0.78925300  0.41493400  1
  Au  Au104  1  0.25000000  0.11023700  0.43633300  1
  Au  Au105  1  0.75000000  0.38742900  0.32147900  1
  Au  Au106  1  0.00000000  0.40494300  0.22279600  1
  Au  Au107  1  0.50000000  0.34272300  0.28501600  1
  Au  Au108  1  0.00000000  0.34272300  0.28501600  1
  Au  Au109  1  0.50000000  0.40494300  0.22279600  1
  Au  Au110  1  0.00054900  0.13751200  0.23815100  1
  Au  Au111  1  0.99945100  0.61015400  0.26966100  1
  Au  Au112  1  0.50054900  0.61015400  0.26966100  1
  Au  Au113  1  0.49945100  0.13751200  0.23815100  1
  Au  Au114  1  0.75000000  0.71144600  0.24280800  1
  Au  Au115  1  0.25000000  0.09923100  0.20199400  1
  Au  Au116  1  0.25000000  0.03622100  0.26500400  1
  Au  Au117  1  0.75000000  0.64843500  0.30581900  1
  Au  Au118  1  0.75000000  0.24188700  0.21183600  1
  Au  Au119  1  0.25000000  0.56816700  0.23358800  1
  Au  Au120  1  0.25000000  0.50577900  0.29597600  1
  Au  Au121  1  0.75000000  0.17949900  0.27422400  1
  Au  Au122  1  0.50000000  0.93633300  0.19140600  1
  Au  Au123  1  0.50000000  0.87383300  0.25390600  1
  Au  Au124  1  0.00000000  0.93633300  0.19140600  1
  Au  Au125  1  0.00000000  0.87383300  0.25390600  1
  Au  Au126  1  0.25000000  0.83341300  0.21787800  1
  Au  Au127  1  0.75000000  0.91425300  0.28993400  1
  Au  Au128  1  0.25000000  0.23523700  0.31133300  1
  Au  Au129  1  0.75000000  0.51242900  0.19647900  1
