# generated using pymatgen
data_Mg25Ir39
_symmetry_space_group_name_H-M   'P 1'
_cell_length_a   9.72091561
_cell_length_b   10.02721097
_cell_length_c   44.35051200
_cell_angle_alpha   96.44506080
_cell_angle_beta   93.67631499
_cell_angle_gamma   75.98716788
_symmetry_Int_Tables_number   1
_chemical_formula_structural   Mg25Ir39
_chemical_formula_sum   'Mg50 Ir78'
_cell_volume   4164.79217447
_cell_formula_units_Z   2
loop_
 _symmetry_equiv_pos_site_id
 _symmetry_equiv_pos_as_xyz
  1  'x, y, z'
loop_
 _atom_site_type_symbol
 _atom_site_label
 _atom_site_symmetry_multiplicity
 _atom_site_fract_x
 _atom_site_fract_y
 _atom_site_fract_z
 _atom_site_occupancy
  Mg  Mg0  1  0.28472400  0.69066500  0.72445300  1
  Mg  Mg1  1  0.20327600  0.97727300  0.76354700  1
  Mg  Mg2  1  0.83600800  0.39928600  0.72687400  1
  Mg  Mg3  1  0.65199200  0.26865200  0.76112600  1
  Mg  Mg4  1  0.34089500  0.43558600  0.75937500  1
  Mg  Mg5  1  0.14710500  0.23235300  0.72862500  1
  Mg  Mg6  1  0.54658100  0.70580000  0.70198100  1
  Mg  Mg7  1  0.94141900  0.96213800  0.78601900  1
  Mg  Mg8  1  0.80210500  0.70065000  0.76004100  1
  Mg  Mg9  1  0.68589500  0.96728800  0.72795900  1
  Mg  Mg10  1  0.18472400  0.39066500  0.62445300  1
  Mg  Mg11  1  0.10327600  0.67727300  0.66354700  1
  Mg  Mg12  1  0.73600800  0.09928600  0.62687400  1
  Mg  Mg13  1  0.55199200  0.96865200  0.66112600  1
  Mg  Mg14  1  0.24089500  0.13558600  0.65937500  1
  Mg  Mg15  1  0.04710500  0.93235300  0.62862500  1
  Mg  Mg16  1  0.44658100  0.40580000  0.60198100  1
  Mg  Mg17  1  0.84141900  0.66213800  0.68601900  1
  Mg  Mg18  1  0.70210500  0.40065000  0.66004100  1
  Mg  Mg19  1  0.58589500  0.66728800  0.62795900  1
  Mg  Mg20  1  0.08472400  0.09066500  0.52445300  1
  Mg  Mg21  1  0.00327600  0.37727300  0.56354700  1
  Mg  Mg22  1  0.63600800  0.79928600  0.52687400  1
  Mg  Mg23  1  0.45199200  0.66865200  0.56112600  1
  Mg  Mg24  1  0.14089500  0.83558600  0.55937500  1
  Mg  Mg25  1  0.94710500  0.63235300  0.52862500  1
  Mg  Mg26  1  0.34658100  0.10580000  0.50198100  1
  Mg  Mg27  1  0.74141900  0.36213800  0.58601900  1
  Mg  Mg28  1  0.60210500  0.10065000  0.56004100  1
  Mg  Mg29  1  0.48589500  0.36728800  0.52795900  1
  Mg  Mg30  1  0.98472400  0.79066500  0.42445300  1
  Mg  Mg31  1  0.90327600  0.07727300  0.46354700  1
  Mg  Mg32  1  0.53600800  0.49928600  0.42687400  1
  Mg  Mg33  1  0.35199200  0.36865200  0.46112600  1
  Mg  Mg34  1  0.04089500  0.53558600  0.45937500  1
  Mg  Mg35  1  0.84710500  0.33235300  0.42862500  1
  Mg  Mg36  1  0.24658100  0.80580000  0.40198100  1
  Mg  Mg37  1  0.64141900  0.06213800  0.48601900  1
  Mg  Mg38  1  0.50210500  0.80065000  0.46004100  1
  Mg  Mg39  1  0.38589500  0.06728800  0.42795900  1
  Mg  Mg40  1  0.88472400  0.49066500  0.32445300  1
  Mg  Mg41  1  0.80327600  0.77727300  0.36354700  1
  Mg  Mg42  1  0.43600800  0.19928600  0.32687400  1
  Mg  Mg43  1  0.25199200  0.06865200  0.36112600  1
  Mg  Mg44  1  0.94089500  0.23558600  0.35937500  1
  Mg  Mg45  1  0.74710500  0.03235300  0.32862500  1
  Mg  Mg46  1  0.14658100  0.50580000  0.30198100  1
  Mg  Mg47  1  0.54141900  0.76213800  0.38601900  1
  Mg  Mg48  1  0.40210500  0.50065000  0.36004100  1
  Mg  Mg49  1  0.28589500  0.76728800  0.32795900  1
  Ir  Ir50  1  0.49770100  0.85348100  0.75994400  1
  Ir  Ir51  1  0.99029900  0.81445700  0.72805600  1
  Ir  Ir52  1  0.06099700  0.54777000  0.72511000  1
  Ir  Ir53  1  0.42700300  0.12016800  0.76289000  1
  Ir  Ir54  1  0.37690600  0.96987600  0.71279300  1
  Ir  Ir55  1  0.11109400  0.69806300  0.77520700  1
  Ir  Ir56  1  0.79400000  0.48396900  0.79400000  1
  Ir  Ir57  1  0.22863300  0.24906400  0.79670600  1
  Ir  Ir58  1  0.35936700  0.71887400  0.79129400  1
  Ir  Ir59  1  0.04876200  0.46640100  0.77710600  1
  Ir  Ir60  1  0.43923800  0.20153700  0.71089400  1
  Ir  Ir61  1  0.52773800  0.43388300  0.70927400  1
  Ir  Ir62  1  0.96026200  0.23405500  0.77872600  1
  Ir  Ir63  1  0.91347400  0.09369200  0.73193900  1
  Ir  Ir64  1  0.57452600  0.57424600  0.75606100  1
  Ir  Ir65  1  0.39770100  0.55348100  0.65994400  1
  Ir  Ir66  1  0.89029900  0.51445700  0.62805600  1
  Ir  Ir67  1  0.96099700  0.24777000  0.62511000  1
  Ir  Ir68  1  0.32700300  0.82016800  0.66289000  1
  Ir  Ir69  1  0.27690600  0.66987600  0.61279300  1
  Ir  Ir70  1  0.01109400  0.39806300  0.67520700  1
  Ir  Ir71  1  0.69400000  0.18396900  0.69400000  1
  Ir  Ir72  1  0.12863300  0.94906400  0.69670600  1
  Ir  Ir73  1  0.25936700  0.41887400  0.69129400  1
  Ir  Ir74  1  0.94876200  0.16640100  0.67710600  1
  Ir  Ir75  1  0.33923800  0.90153700  0.61089400  1
  Ir  Ir76  1  0.42773800  0.13388300  0.60927400  1
  Ir  Ir77  1  0.86026200  0.93405500  0.67872600  1
  Ir  Ir78  1  0.81347400  0.79369200  0.63193900  1
  Ir  Ir79  1  0.47452600  0.27424600  0.65606100  1
  Ir  Ir80  1  0.29770100  0.25348100  0.55994400  1
  Ir  Ir81  1  0.79029900  0.21445700  0.52805600  1
  Ir  Ir82  1  0.86099700  0.94777000  0.52511000  1
  Ir  Ir83  1  0.22700300  0.52016800  0.56289000  1
  Ir  Ir84  1  0.17690600  0.36987600  0.51279300  1
  Ir  Ir85  1  0.91109400  0.09806300  0.57520700  1
  Ir  Ir86  1  0.59400000  0.88396900  0.59400000  1
  Ir  Ir87  1  0.02863300  0.64906400  0.59670600  1
  Ir  Ir88  1  0.15936700  0.11887400  0.59129400  1
  Ir  Ir89  1  0.84876200  0.86640100  0.57710600  1
  Ir  Ir90  1  0.23923800  0.60153700  0.51089400  1
  Ir  Ir91  1  0.32773800  0.83388300  0.50927400  1
  Ir  Ir92  1  0.76026200  0.63405500  0.57872600  1
  Ir  Ir93  1  0.71347400  0.49369200  0.53193900  1
  Ir  Ir94  1  0.37452600  0.97424600  0.55606100  1
  Ir  Ir95  1  0.19770100  0.95348100  0.45994400  1
  Ir  Ir96  1  0.69029900  0.91445700  0.42805600  1
  Ir  Ir97  1  0.76099700  0.64777000  0.42511000  1
  Ir  Ir98  1  0.12700300  0.22016800  0.46289000  1
  Ir  Ir99  1  0.07690600  0.06987600  0.41279300  1
  Ir  Ir100  1  0.81109400  0.79806300  0.47520700  1
  Ir  Ir101  1  0.49400000  0.58396900  0.49400000  1
  Ir  Ir102  1  0.92863300  0.34906400  0.49670600  1
  Ir  Ir103  1  0.05936700  0.81887400  0.49129400  1
  Ir  Ir104  1  0.74876200  0.56640100  0.47710600  1
  Ir  Ir105  1  0.13923800  0.30153700  0.41089400  1
  Ir  Ir106  1  0.22773800  0.53388300  0.40927400  1
  Ir  Ir107  1  0.66026200  0.33405500  0.47872600  1
  Ir  Ir108  1  0.61347400  0.19369200  0.43193900  1
  Ir  Ir109  1  0.27452600  0.67424600  0.45606100  1
  Ir  Ir110  1  0.09770100  0.65348100  0.35994400  1
  Ir  Ir111  1  0.59029900  0.61445700  0.32805600  1
  Ir  Ir112  1  0.66099700  0.34777000  0.32511000  1
  Ir  Ir113  1  0.02700300  0.92016800  0.36289000  1
  Ir  Ir114  1  0.97690600  0.76987600  0.31279300  1
  Ir  Ir115  1  0.71109400  0.49806300  0.37520700  1
  Ir  Ir116  1  0.39400000  0.28396900  0.39400000  1
  Ir  Ir117  1  0.82863300  0.04906400  0.39670600  1
  Ir  Ir118  1  0.95936700  0.51887400  0.39129400  1
  Ir  Ir119  1  0.64876200  0.26640100  0.37710600  1
  Ir  Ir120  1  0.03923800  0.00153700  0.31089400  1
  Ir  Ir121  1  0.12773800  0.23388300  0.30927400  1
  Ir  Ir122  1  0.56026200  0.03405500  0.37872600  1
  Ir  Ir123  1  0.51347400  0.89369200  0.33193900  1
  Ir  Ir124  1  0.17452600  0.37424600  0.35606100  1
  Ir  Ir125  1  0.29400000  0.98396900  0.29400000  1
  Ir  Ir126  1  0.72863300  0.74906400  0.29670600  1
  Ir  Ir127  1  0.85936700  0.21887400  0.29129400  1
