# generated using pymatgen
data_Mg3Pb
_symmetry_space_group_name_H-M   'P 1'
_cell_length_a   6.53025067
_cell_length_b   8.37231008
_cell_length_c   42.40860600
_cell_angle_alpha   90.94701037
_cell_angle_beta   94.41568601
_cell_angle_gamma   67.04605902
_symmetry_Int_Tables_number   1
_chemical_formula_structural   Mg3Pb
_chemical_formula_sum   'Mg42 Pb14'
_cell_volume   2128.45900269
_cell_formula_units_Z   14
loop_
 _symmetry_equiv_pos_site_id
 _symmetry_equiv_pos_as_xyz
  1  'x, y, z'
loop_
 _atom_site_type_symbol
 _atom_site_label
 _atom_site_symmetry_multiplicity
 _atom_site_fract_x
 _atom_site_fract_y
 _atom_site_fract_z
 _atom_site_occupancy
  Mg  Mg0  1  0.14903800  0.70879200  0.18868600  1
  Mg  Mg1  1  0.56768300  0.42969500  0.23520200  1
  Mg  Mg2  1  0.05600600  0.42969500  0.23520200  1
  Mg  Mg3  1  0.76217600  0.02485000  0.21934300  1
  Mg  Mg4  1  0.25049800  0.02485000  0.21934300  1
  Mg  Mg5  1  0.66914400  0.74575400  0.26585900  1
  Mg  Mg6  1  0.96722000  0.16333700  0.27959500  1
  Mg  Mg7  1  0.38586500  0.88424000  0.32611100  1
  Mg  Mg8  1  0.87418800  0.88424000  0.32611100  1
  Mg  Mg9  1  0.58035800  0.47939600  0.31025200  1
  Mg  Mg10  1  0.06868000  0.47939600  0.31025200  1
  Mg  Mg11  1  0.48732600  0.20029900  0.35676800  1
  Mg  Mg12  1  0.78540200  0.61788300  0.37050400  1
  Mg  Mg13  1  0.20404700  0.33878600  0.41702100  1
  Mg  Mg14  1  0.69236900  0.33878600  0.41702100  1
  Mg  Mg15  1  0.39854000  0.93394100  0.40116100  1
  Mg  Mg16  1  0.88686200  0.93394100  0.40116100  1
  Mg  Mg17  1  0.30550700  0.65484500  0.44767700  1
  Mg  Mg18  1  0.60358400  0.07242800  0.46141300  1
  Mg  Mg19  1  0.02222900  0.79333100  0.50793000  1
  Mg  Mg20  1  0.51055100  0.79333100  0.50793000  1
  Mg  Mg21  1  0.21672100  0.38848700  0.49207000  1
  Mg  Mg22  1  0.70504400  0.38848700  0.49207000  1
  Mg  Mg23  1  0.12368900  0.10939000  0.53858700  1
  Mg  Mg24  1  0.42176500  0.52697400  0.55232300  1
  Mg  Mg25  1  0.84041100  0.24787700  0.59883900  1
  Mg  Mg26  1  0.32873300  0.24787700  0.59883900  1
  Mg  Mg27  1  0.03490300  0.84303200  0.58297900  1
  Mg  Mg28  1  0.52322600  0.84303200  0.58297900  1
  Mg  Mg29  1  0.94187100  0.56393500  0.62949600  1
  Mg  Mg30  1  0.23994700  0.98151900  0.64323200  1
  Mg  Mg31  1  0.65859200  0.70242200  0.68974800  1
  Mg  Mg32  1  0.14691500  0.70242200  0.68974800  1
  Mg  Mg33  1  0.85308500  0.29757800  0.67388900  1
  Mg  Mg34  1  0.34140800  0.29757800  0.67388900  1
  Mg  Mg35  1  0.76005300  0.01848100  0.72040500  1
  Mg  Mg36  1  0.05812900  0.43606500  0.73414100  1
  Mg  Mg37  1  0.47677400  0.15696800  0.78065700  1
  Mg  Mg38  1  0.96509700  0.15696800  0.78065700  1
  Mg  Mg39  1  0.67126700  0.75212300  0.76479800  1
  Mg  Mg40  1  0.15958900  0.75212300  0.76479800  1
  Mg  Mg41  1  0.57823500  0.47302600  0.81131400  1
  Pb  Pb42  1  0.65151500  0.70454500  0.18939400  1
  Pb  Pb43  1  0.16666700  0.75000000  0.26515200  1
  Pb  Pb44  1  0.46969700  0.15909100  0.28030300  1
  Pb  Pb45  1  0.98484800  0.20454500  0.35606100  1
  Pb  Pb46  1  0.28787900  0.61363600  0.37121200  1
  Pb  Pb47  1  0.80303000  0.65909100  0.44697000  1
  Pb  Pb48  1  0.10606100  0.06818200  0.46212100  1
  Pb  Pb49  1  0.62121200  0.11363600  0.53787900  1
  Pb  Pb50  1  0.92424200  0.52272700  0.55303000  1
  Pb  Pb51  1  0.43939400  0.56818200  0.62878800  1
  Pb  Pb52  1  0.74242400  0.97727300  0.64393900  1
  Pb  Pb53  1  0.25757600  0.02272700  0.71969700  1
  Pb  Pb54  1  0.56060600  0.43181800  0.73484800  1
  Pb  Pb55  1  0.07575800  0.47727300  0.81060600  1
