# generated using pymatgen
data_Mg5Zn8
_symmetry_space_group_name_H-M   'P 1'
_cell_length_a   5.07402237
_cell_length_b   17.20699092
_cell_length_c   54.58155700
_cell_angle_alpha   87.89733091
_cell_angle_beta   92.22235669
_cell_angle_gamma   98.42726965
_symmetry_Int_Tables_number   1
_chemical_formula_structural   Mg5Zn8
_chemical_formula_sum   'Mg50 Zn80'
_cell_volume   4708.12472958
_cell_formula_units_Z   10
loop_
 _symmetry_equiv_pos_site_id
 _symmetry_equiv_pos_as_xyz
  1  'x, y, z'
loop_
 _atom_site_type_symbol
 _atom_site_label
 _atom_site_symmetry_multiplicity
 _atom_site_fract_x
 _atom_site_fract_y
 _atom_site_fract_z
 _atom_site_occupancy
  Mg  Mg0  1  0.42861600  0.49134400  0.39379900  1
  Mg  Mg1  1  0.88022700  0.40343900  0.37814500  1
  Mg  Mg2  1  0.00207700  0.69749800  0.33523800  1
  Mg  Mg3  1  0.78893400  0.25823900  0.34912700  1
  Mg  Mg4  1  0.50551500  0.66778300  0.37020100  1
  Mg  Mg5  1  0.16364700  0.99389500  0.35707200  1
  Mg  Mg6  1  0.34811500  0.38244800  0.34189700  1
  Mg  Mg7  1  0.66708400  0.96418000  0.39203500  1
  Mg  Mg8  1  0.24054500  0.17033300  0.33347300  1
  Mg  Mg9  1  0.32104700  0.27922900  0.38537600  1
  Mg  Mg10  1  0.22861600  0.89134400  0.59379900  1
  Mg  Mg11  1  0.16704000  0.87509000  0.49247500  1
  Mg  Mg12  1  0.88572300  0.27553700  0.51214400  1
  Mg  Mg13  1  0.68022700  0.80343900  0.57814500  1
  Mg  Mg14  1  0.72409700  0.98181800  0.49020400  1
  Mg  Mg15  1  0.46005000  0.48530600  0.45489700  1
  Mg  Mg16  1  0.80207700  0.09749800  0.53523800  1
  Mg  Mg17  1  0.58893400  0.65823900  0.54912700  1
  Mg  Mg18  1  0.30551500  0.06778300  0.57020100  1
  Mg  Mg19  1  0.74506400  0.07985900  0.43706900  1
  Mg  Mg20  1  0.58343800  0.78614100  0.41512900  1
  Mg  Mg21  1  0.96364700  0.39389500  0.55707200  1
  Mg  Mg22  1  0.14811500  0.78244800  0.54189700  1
  Mg  Mg23  1  0.37956400  0.30749800  0.47755100  1
  Mg  Mg24  1  0.08959700  0.75418000  0.44972200  1
  Mg  Mg25  1  0.46708400  0.36418000  0.59203500  1
  Mg  Mg26  1  0.04054500  0.57033300  0.53347300  1
  Mg  Mg27  1  0.00911100  0.57637100  0.47237600  1
  Mg  Mg28  1  0.30212200  0.18658700  0.43479800  1
  Mg  Mg29  1  0.12104700  0.67922900  0.58537600  1
  Mg  Mg30  1  0.02861600  0.29134400  0.79379900  1
  Mg  Mg31  1  0.96704000  0.27509000  0.69247500  1
  Mg  Mg32  1  0.68572300  0.67553700  0.71214400  1
  Mg  Mg33  1  0.48022700  0.20343900  0.77814500  1
  Mg  Mg34  1  0.52409700  0.38181800  0.69020400  1
  Mg  Mg35  1  0.26005000  0.88530600  0.65489700  1
  Mg  Mg36  1  0.60207700  0.49749800  0.73523800  1
  Mg  Mg37  1  0.38893400  0.05823900  0.74912700  1
  Mg  Mg38  1  0.10551500  0.46778300  0.77020100  1
  Mg  Mg39  1  0.54506400  0.47985900  0.63706900  1
  Mg  Mg40  1  0.38343800  0.18614100  0.61512900  1
  Mg  Mg41  1  0.76364700  0.79389500  0.75707200  1
  Mg  Mg42  1  0.94811500  0.18244800  0.74189700  1
  Mg  Mg43  1  0.17956400  0.70749800  0.67755100  1
  Mg  Mg44  1  0.88959700  0.15418000  0.64972200  1
  Mg  Mg45  1  0.26708400  0.76418000  0.79203500  1
  Mg  Mg46  1  0.84054500  0.97033300  0.73347300  1
  Mg  Mg47  1  0.80911100  0.97637100  0.67237600  1
  Mg  Mg48  1  0.10212200  0.58658700  0.63479800  1
  Mg  Mg49  1  0.92104700  0.07922900  0.78537600  1
  Zn  Zn50  1  0.05144600  0.72769200  0.39348900  1
  Zn  Zn51  1  0.49089100  0.12396000  0.38435200  1
  Zn  Zn52  1  0.67372600  0.53681300  0.34185800  1
  Zn  Zn53  1  0.83458100  0.83083900  0.36363600  1
  Zn  Zn54  1  0.99543500  0.12486400  0.38541500  1
  Zn  Zn55  1  0.33458100  0.83083900  0.36363600  1
  Zn  Zn56  1  0.96298500  0.58126600  0.38111900  1
  Zn  Zn57  1  0.70617600  0.08041100  0.34615400  1
  Zn  Zn58  1  0.17827000  0.53771800  0.34292100  1
  Zn  Zn59  1  0.61771500  0.93398600  0.33378400  1
  Zn  Zn60  1  0.25726000  0.03578300  0.51225300  1
  Zn  Zn61  1  0.65964600  0.82610300  0.51996200  1
  Zn  Zn62  1  0.85144600  0.12769200  0.59348900  1
  Zn  Zn63  1  0.29089100  0.52396000  0.58435200  1
  Zn  Zn64  1  0.91081500  0.91335400  0.44327600  1
  Zn  Zn65  1  0.47372600  0.93681300  0.54185800  1
  Zn  Zn66  1  0.63458100  0.23083900  0.56363600  1
  Zn  Zn67  1  0.21190200  0.02589500  0.41501900  1
  Zn  Zn68  1  0.55031500  0.66310800  0.46122400  1
  Zn  Zn69  1  0.05207200  0.14854200  0.48404900  1
  Zn  Zn70  1  0.75701500  0.62380400  0.42235700  1
  Zn  Zn71  1  0.94342300  0.48939600  0.42451300  1
  Zn  Zn72  1  0.34283400  0.18582300  0.52432800  1
  Zn  Zn73  1  0.84391900  0.24673800  0.45539700  1
  Zn  Zn74  1  0.80951500  0.23557400  0.40731000  1
  Zn  Zn75  1  0.91884600  0.39856900  0.46604900  1
  Zn  Zn76  1  0.13731300  0.35572600  0.42590800  1
  Zn  Zn77  1  0.41709000  0.91313600  0.44322300  1
  Zn  Zn78  1  0.79543500  0.52486400  0.58541500  1
  Zn  Zn79  1  0.12632700  0.87585500  0.40294500  1
  Zn  Zn80  1  0.33184800  0.70595200  0.50136400  1
  Zn  Zn81  1  0.55834600  0.14832300  0.48399700  1
  Zn  Zn82  1  0.13458100  0.23083900  0.56363600  1
  Zn  Zn83  1  0.76298500  0.98126600  0.58111900  1
  Zn  Zn84  1  0.26142300  0.62409000  0.42276300  1
  Zn  Zn85  1  0.62348500  0.35576000  0.42501700  1
  Zn  Zn86  1  0.50617600  0.48041100  0.54615400  1
  Zn  Zn87  1  0.84567600  0.70591700  0.50225600  1
  Zn  Zn88  1  0.62524200  0.81494000  0.47187600  1
  Zn  Zn89  1  0.20773800  0.43758700  0.50451000  1
  Zn  Zn90  1  0.97827000  0.93771800  0.54292100  1
  Zn  Zn91  1  0.23458100  0.03083900  0.46363600  1
  Zn  Zn92  1  0.71214700  0.43787400  0.50491600  1
  Zn  Zn93  1  0.52573900  0.57228100  0.50276000  1
  Zn  Zn94  1  0.41771500  0.33398600  0.53378400  1
  Zn  Zn95  1  0.05726000  0.43578300  0.71225300  1
  Zn  Zn96  1  0.45964600  0.22610300  0.71996200  1
  Zn  Zn97  1  0.65144600  0.52769200  0.79348900  1
  Zn  Zn98  1  0.09089100  0.92396000  0.78435200  1
  Zn  Zn99  1  0.71081500  0.31335400  0.64327600  1
  Zn  Zn100  1  0.27372600  0.33681300  0.74185800  1
  Zn  Zn101  1  0.43458100  0.63083900  0.76363600  1
  Zn  Zn102  1  0.01190200  0.42589500  0.61501900  1
  Zn  Zn103  1  0.35031500  0.06310800  0.66122400  1
  Zn  Zn104  1  0.85207200  0.54854200  0.68404900  1
  Zn  Zn105  1  0.55701500  0.02380400  0.62235700  1
  Zn  Zn106  1  0.74342300  0.88939600  0.62451300  1
  Zn  Zn107  1  0.14283400  0.58582300  0.72432800  1
  Zn  Zn108  1  0.64391900  0.64673800  0.65539700  1
  Zn  Zn109  1  0.60951500  0.63557400  0.60731000  1
  Zn  Zn110  1  0.71884600  0.79856900  0.66604900  1
  Zn  Zn111  1  0.93731300  0.75572600  0.62590800  1
  Zn  Zn112  1  0.21709000  0.31313600  0.64322300  1
  Zn  Zn113  1  0.59543500  0.92486400  0.78541500  1
  Zn  Zn114  1  0.92632700  0.27585500  0.60294500  1
  Zn  Zn115  1  0.13184800  0.10595200  0.70136400  1
  Zn  Zn116  1  0.35834600  0.54832300  0.68399700  1
  Zn  Zn117  1  0.93458100  0.63083900  0.76363600  1
  Zn  Zn118  1  0.56298500  0.38126600  0.78111900  1
  Zn  Zn119  1  0.06142300  0.02409000  0.62276300  1
  Zn  Zn120  1  0.42348500  0.75576000  0.62501700  1
  Zn  Zn121  1  0.30617600  0.88041100  0.74615400  1
  Zn  Zn122  1  0.64567600  0.10591700  0.70225600  1
  Zn  Zn123  1  0.42524200  0.21494000  0.67187600  1
  Zn  Zn124  1  0.00773800  0.83758700  0.70451000  1
  Zn  Zn125  1  0.77827000  0.33771800  0.74292100  1
  Zn  Zn126  1  0.03458100  0.43083900  0.66363600  1
  Zn  Zn127  1  0.51214700  0.83787400  0.70491600  1
  Zn  Zn128  1  0.32573900  0.97228100  0.70276000  1
  Zn  Zn129  1  0.21771500  0.73398600  0.73378400  1
