# generated using pymatgen
data_Mg10Al29
_symmetry_space_group_name_H-M   'P 1'
_cell_length_a   5.82244200
_cell_length_b   9.36598737
_cell_length_c   44.09337800
_cell_angle_alpha   86.82269723
_cell_angle_beta   90.00000000
_cell_angle_gamma   71.89079973
_symmetry_Int_Tables_number   1
_chemical_formula_structural   Mg10Al29
_chemical_formula_sum   'Mg20 Al58'
_cell_volume   2281.54444588
_cell_formula_units_Z   2
loop_
 _symmetry_equiv_pos_site_id
 _symmetry_equiv_pos_as_xyz
  1  'x, y, z'
loop_
 _atom_site_type_symbol
 _atom_site_label
 _atom_site_symmetry_multiplicity
 _atom_site_fract_x
 _atom_site_fract_y
 _atom_site_fract_z
 _atom_site_occupancy
  Mg  Mg0  1  0.49218800  0.89062500  0.24218800  1
  Mg  Mg1  1  0.21093800  0.45312500  0.21093800  1
  Mg  Mg2  1  0.05468800  0.76562500  0.30468800  1
  Mg  Mg3  1  0.77343800  0.32812500  0.27343800  1
  Mg  Mg4  1  0.61718800  0.64062500  0.36718800  1
  Mg  Mg5  1  0.33593800  0.20312500  0.33593800  1
  Mg  Mg6  1  0.17968800  0.51562500  0.42968800  1
  Mg  Mg7  1  0.89843800  0.07812500  0.39843800  1
  Mg  Mg8  1  0.74218800  0.39062500  0.49218800  1
  Mg  Mg9  1  0.46093800  0.95312500  0.46093800  1
  Mg  Mg10  1  0.30468800  0.26562500  0.55468800  1
  Mg  Mg11  1  0.02343800  0.82812500  0.52343800  1
  Mg  Mg12  1  0.86718800  0.14062500  0.61718800  1
  Mg  Mg13  1  0.58593800  0.70312500  0.58593800  1
  Mg  Mg14  1  0.42968800  0.01562500  0.67968800  1
  Mg  Mg15  1  0.14843800  0.57812500  0.64843800  1
  Mg  Mg16  1  0.99218800  0.89062500  0.74218700  1
  Mg  Mg17  1  0.71093800  0.45312500  0.71093800  1
  Mg  Mg18  1  0.55468800  0.76562500  0.80468800  1
  Mg  Mg19  1  0.27343800  0.32812500  0.77343800  1
  Al  Al20  1  0.99218800  0.89062500  0.24218800  1
  Al  Al21  1  0.60156200  0.17187500  0.22656200  1
  Al  Al22  1  0.10156300  0.17187500  0.22656300  1
  Al  Al23  1  0.71093800  0.45312500  0.21093800  1
  Al  Al24  1  0.55468800  0.76562500  0.30468800  1
  Al  Al25  1  0.16406300  0.04687500  0.28906200  1
  Al  Al26  1  0.66406200  0.04687500  0.28906200  1
  Al  Al27  1  0.27343800  0.32812500  0.27343800  1
  Al  Al28  1  0.88281200  0.60937500  0.25781200  1
  Al  Al29  1  0.38281200  0.60937500  0.25781200  1
  Al  Al30  1  0.11718800  0.64062500  0.36718800  1
  Al  Al31  1  0.72656300  0.92187500  0.35156300  1
  Al  Al32  1  0.22656300  0.92187500  0.35156200  1
  Al  Al33  1  0.83593800  0.20312500  0.33593800  1
  Al  Al34  1  0.44531200  0.48437500  0.32031200  1
  Al  Al35  1  0.94531200  0.48437500  0.32031200  1
  Al  Al36  1  0.67968800  0.51562500  0.42968800  1
  Al  Al37  1  0.28906200  0.79687500  0.41406200  1
  Al  Al38  1  0.78906200  0.79687500  0.41406200  1
  Al  Al39  1  0.39843800  0.07812500  0.39843800  1
  Al  Al40  1  0.00781300  0.35937500  0.38281300  1
  Al  Al41  1  0.50781200  0.35937500  0.38281300  1
  Al  Al42  1  0.24218800  0.39062500  0.49218800  1
  Al  Al43  1  0.85156200  0.67187500  0.47656200  1
  Al  Al44  1  0.35156200  0.67187500  0.47656200  1
  Al  Al45  1  0.96093700  0.95312500  0.46093800  1
  Al  Al46  1  0.57031200  0.23437500  0.44531300  1
  Al  Al47  1  0.07031300  0.23437500  0.44531300  1
  Al  Al48  1  0.80468700  0.26562500  0.55468800  1
  Al  Al49  1  0.41406200  0.54687500  0.53906200  1
  Al  Al50  1  0.91406200  0.54687500  0.53906200  1
  Al  Al51  1  0.52343800  0.82812500  0.52343800  1
  Al  Al52  1  0.13281200  0.10937500  0.50781200  1
  Al  Al53  1  0.63281300  0.10937500  0.50781200  1
  Al  Al54  1  0.36718800  0.14062500  0.61718800  1
  Al  Al55  1  0.97656300  0.42187500  0.60156200  1
  Al  Al56  1  0.47656200  0.42187500  0.60156200  1
  Al  Al57  1  0.08593800  0.70312500  0.58593800  1
  Al  Al58  1  0.69531200  0.98437500  0.57031200  1
  Al  Al59  1  0.19531300  0.98437500  0.57031200  1
  Al  Al60  1  0.92968800  0.01562500  0.67968800  1
  Al  Al61  1  0.53906300  0.29687500  0.66406200  1
  Al  Al62  1  0.03906300  0.29687500  0.66406200  1
  Al  Al63  1  0.64843800  0.57812500  0.64843800  1
  Al  Al64  1  0.25781200  0.85937500  0.63281200  1
  Al  Al65  1  0.75781300  0.85937500  0.63281200  1
  Al  Al66  1  0.49218800  0.89062500  0.74218800  1
  Al  Al67  1  0.10156200  0.17187500  0.72656200  1
  Al  Al68  1  0.60156200  0.17187500  0.72656200  1
  Al  Al69  1  0.21093800  0.45312500  0.71093800  1
  Al  Al70  1  0.82031200  0.73437500  0.69531200  1
  Al  Al71  1  0.32031200  0.73437500  0.69531200  1
  Al  Al72  1  0.05468800  0.76562500  0.80468800  1
  Al  Al73  1  0.66406200  0.04687500  0.78906200  1
  Al  Al74  1  0.16406200  0.04687500  0.78906200  1
  Al  Al75  1  0.77343800  0.32812500  0.77343800  1
  Al  Al76  1  0.38281200  0.60937500  0.75781200  1
  Al  Al77  1  0.88281200  0.60937500  0.75781200  1
