# generated using pymatgen
data_Yb2Mg
_symmetry_space_group_name_H-M   'P 1'
_cell_length_a   5.87266200
_cell_length_b   9.47017938
_cell_length_c   44.25669700
_cell_angle_alpha   90.64677827
_cell_angle_beta   90.00000000
_cell_angle_gamma   90.00000000
_symmetry_Int_Tables_number   1
_chemical_formula_structural   Yb2Mg
_chemical_formula_sum   'Yb28 Mg14'
_cell_volume   2461.18657757
_cell_formula_units_Z   14
loop_
 _symmetry_equiv_pos_site_id
 _symmetry_equiv_pos_as_xyz
  1  'x, y, z'
loop_
 _atom_site_type_symbol
 _atom_site_label
 _atom_site_symmetry_multiplicity
 _atom_site_fract_x
 _atom_site_fract_y
 _atom_site_fract_z
 _atom_site_occupancy
  Yb  Yb0  1  0.75000000  0.96858600  0.78397500  1
  Yb  Yb1  1  0.75000000  0.29308700  0.72638800  1
  Yb  Yb2  1  0.25000000  0.53141400  0.71602500  1
  Yb  Yb3  1  0.25000000  0.20691300  0.77361200  1
  Yb  Yb4  1  0.75000000  0.88525300  0.70064100  1
  Yb  Yb5  1  0.75000000  0.20975400  0.64305400  1
  Yb  Yb6  1  0.25000000  0.44808100  0.63269200  1
  Yb  Yb7  1  0.25000000  0.12358000  0.69027900  1
  Yb  Yb8  1  0.75000000  0.80191900  0.61730800  1
  Yb  Yb9  1  0.75000000  0.12642000  0.55972100  1
  Yb  Yb10  1  0.25000000  0.36474700  0.54935900  1
  Yb  Yb11  1  0.25000000  0.04024600  0.60694600  1
  Yb  Yb12  1  0.75000000  0.71858600  0.53397500  1
  Yb  Yb13  1  0.75000000  0.04308700  0.47638800  1
  Yb  Yb14  1  0.25000000  0.28141400  0.46602500  1
  Yb  Yb15  1  0.25000000  0.95691300  0.52361200  1
  Yb  Yb16  1  0.75000000  0.63525300  0.45064100  1
  Yb  Yb17  1  0.75000000  0.95975400  0.39305400  1
  Yb  Yb18  1  0.25000000  0.19808100  0.38269200  1
  Yb  Yb19  1  0.25000000  0.87358000  0.44027900  1
  Yb  Yb20  1  0.75000000  0.55191900  0.36730800  1
  Yb  Yb21  1  0.75000000  0.87642000  0.30972100  1
  Yb  Yb22  1  0.25000000  0.11474700  0.29935900  1
  Yb  Yb23  1  0.25000000  0.79024600  0.35694600  1
  Yb  Yb24  1  0.75000000  0.46858600  0.28397500  1
  Yb  Yb25  1  0.75000000  0.79308700  0.22638800  1
  Yb  Yb26  1  0.25000000  0.03141400  0.21602500  1
  Yb  Yb27  1  0.25000000  0.70691300  0.27361200  1
  Mg  Mg28  1  0.75000000  0.63597300  0.75495800  1
  Mg  Mg29  1  0.25000000  0.86402700  0.74504200  1
  Mg  Mg30  1  0.75000000  0.55263900  0.67162400  1
  Mg  Mg31  1  0.25000000  0.78069400  0.66170900  1
  Mg  Mg32  1  0.75000000  0.46930600  0.58829100  1
  Mg  Mg33  1  0.25000000  0.69736100  0.57837600  1
  Mg  Mg34  1  0.75000000  0.38597300  0.50495800  1
  Mg  Mg35  1  0.25000000  0.61402700  0.49504200  1
  Mg  Mg36  1  0.75000000  0.30263900  0.42162400  1
  Mg  Mg37  1  0.25000000  0.53069400  0.41170900  1
  Mg  Mg38  1  0.75000000  0.21930600  0.33829100  1
  Mg  Mg39  1  0.25000000  0.44736100  0.32837600  1
  Mg  Mg40  1  0.75000000  0.13597300  0.25495800  1
  Mg  Mg41  1  0.25000000  0.36402700  0.24504200  1
