# generated using pymatgen
data_Tb2Mg
_symmetry_space_group_name_H-M   'P 1'
_cell_length_a   5.22518300
_cell_length_b   6.93322463
_cell_length_c   41.80146400
_cell_angle_alpha   90.00000000
_cell_angle_beta   90.00000000
_cell_angle_gamma   112.13696330
_symmetry_Int_Tables_number   1
_chemical_formula_structural   Tb2Mg
_chemical_formula_sum   'Tb20 Mg10'
_cell_volume   1402.72726840
_cell_formula_units_Z   10
loop_
 _symmetry_equiv_pos_site_id
 _symmetry_equiv_pos_as_xyz
  1  'x, y, z'
loop_
 _atom_site_type_symbol
 _atom_site_label
 _atom_site_symmetry_multiplicity
 _atom_site_fract_x
 _atom_site_fract_y
 _atom_site_fract_z
 _atom_site_occupancy
  Tb  Tb0  1  0.90990100  0.31980200  0.21875000  1
  Tb  Tb1  1  0.59009900  0.68019800  0.21875000  1
  Tb  Tb2  1  0.40990100  0.31980200  0.28125000  1
  Tb  Tb3  1  0.09009900  0.68019800  0.28125000  1
  Tb  Tb4  1  0.90990100  0.31980200  0.34375000  1
  Tb  Tb5  1  0.59009900  0.68019800  0.34375000  1
  Tb  Tb6  1  0.40990100  0.31980200  0.40625000  1
  Tb  Tb7  1  0.09009900  0.68019800  0.40625000  1
  Tb  Tb8  1  0.90990100  0.31980200  0.46875000  1
  Tb  Tb9  1  0.59009900  0.68019800  0.46875000  1
  Tb  Tb10  1  0.40990100  0.31980200  0.53125000  1
  Tb  Tb11  1  0.09009900  0.68019800  0.53125000  1
  Tb  Tb12  1  0.90990100  0.31980200  0.59375000  1
  Tb  Tb13  1  0.59009900  0.68019800  0.59375000  1
  Tb  Tb14  1  0.40990100  0.31980200  0.65625000  1
  Tb  Tb15  1  0.09009900  0.68019800  0.65625000  1
  Tb  Tb16  1  0.90990100  0.31980200  0.71875000  1
  Tb  Tb17  1  0.59009900  0.68019800  0.71875000  1
  Tb  Tb18  1  0.40990100  0.31980200  0.78125000  1
  Tb  Tb19  1  0.09009900  0.68019800  0.78125000  1
  Mg  Mg20  1  0.25000000  1.00000000  0.21875000  1
  Mg  Mg21  1  0.75000000  0.00000000  0.28125000  1
  Mg  Mg22  1  0.25000000  0.00000000  0.34375000  1
  Mg  Mg23  1  0.75000000  0.00000000  0.40625000  1
  Mg  Mg24  1  0.25000000  0.00000000  0.46875000  1
  Mg  Mg25  1  0.75000000  0.00000000  0.53125000  1
  Mg  Mg26  1  0.25000000  1.00000000  0.59375000  1
  Mg  Mg27  1  0.75000000  0.00000000  0.65625000  1
  Mg  Mg28  1  0.25000000  0.00000000  0.71875000  1
  Mg  Mg29  1  0.75000000  0.00000000  0.78125000  1
