# generated using pymatgen
data_MgB4
_symmetry_space_group_name_H-M   'P 1'
_cell_length_a   7.03000979
_cell_length_b   8.63140288
_cell_length_c   43.82089200
_cell_angle_alpha   93.79448005
_cell_angle_beta   87.19767736
_cell_angle_gamma   71.41702184
_symmetry_Int_Tables_number   1
_chemical_formula_structural   MgB4
_chemical_formula_sum   'Mg34 B136'
_cell_volume   2507.95072880
_cell_formula_units_Z   34
loop_
 _symmetry_equiv_pos_site_id
 _symmetry_equiv_pos_as_xyz
  1  'x, y, z'
loop_
 _atom_site_type_symbol
 _atom_site_label
 _atom_site_symmetry_multiplicity
 _atom_site_fract_x
 _atom_site_fract_y
 _atom_site_fract_z
 _atom_site_occupancy
  Mg  Mg0  1  0.26416500  0.56172200  0.22086500  1
  Mg  Mg1  1  0.24274000  0.24103900  0.24342100  1
  Mg  Mg2  1  0.86258300  0.82551900  0.20118100  1
  Mg  Mg3  1  0.00146400  0.12010000  0.19167600  1
  Mg  Mg4  1  0.90702200  0.41886500  0.29229300  1
  Mg  Mg5  1  0.88559700  0.09818200  0.31484900  1
  Mg  Mg6  1  0.50544100  0.68266100  0.27261000  1
  Mg  Mg7  1  0.64432100  0.97724300  0.26310400  1
  Mg  Mg8  1  0.54987900  0.27600800  0.36372200  1
  Mg  Mg9  1  0.52845400  0.95532500  0.38627800  1
  Mg  Mg10  1  0.14829800  0.53980400  0.34403800  1
  Mg  Mg11  1  0.28717800  0.83438600  0.33453300  1
  Mg  Mg12  1  0.19273600  0.13315100  0.43515100  1
  Mg  Mg13  1  0.17131100  0.81246800  0.45770700  1
  Mg  Mg14  1  0.79115500  0.39694700  0.41546700  1
  Mg  Mg15  1  0.93003600  0.69152900  0.40596200  1
  Mg  Mg16  1  0.83559400  0.99029400  0.50657900  1
  Mg  Mg17  1  0.81416800  0.66961100  0.52913500  1
  Mg  Mg18  1  0.43401200  0.25409000  0.48689600  1
  Mg  Mg19  1  0.57289300  0.54867200  0.47739000  1
  Mg  Mg20  1  0.47845100  0.84743700  0.57800800  1
  Mg  Mg21  1  0.45702500  0.52675400  0.60056400  1
  Mg  Mg22  1  0.07686900  0.11123300  0.55832400  1
  Mg  Mg23  1  0.21575000  0.40581500  0.54881900  1
  Mg  Mg24  1  0.12130800  0.70458000  0.64943600  1
  Mg  Mg25  1  0.09988200  0.38389700  0.67199200  1
  Mg  Mg26  1  0.71972600  0.96837600  0.62975300  1
  Mg  Mg27  1  0.85860700  0.26295800  0.62024700  1
  Mg  Mg28  1  0.76416500  0.56172200  0.72086500  1
  Mg  Mg29  1  0.74274000  0.24103900  0.74342100  1
  Mg  Mg30  1  0.36258300  0.82551900  0.70118100  1
  Mg  Mg31  1  0.50146400  0.12010000  0.69167600  1
  Mg  Mg32  1  0.00544100  0.68266100  0.77261000  1
  Mg  Mg33  1  0.14432100  0.97724300  0.76310400  1
  B  B34  1  0.64488800  0.10059800  0.20937900  1
  B  B35  1  0.21916000  0.84502100  0.18347800  1
  B  B36  1  0.25466600  0.33713100  0.18742300  1
  B  B37  1  0.60938200  0.60848800  0.20543400  1
  B  B38  1  0.68233400  0.24734200  0.23569200  1
  B  B39  1  0.82457100  0.55542000  0.22859400  1
  B  B40  1  0.43451900  0.14209800  0.18525500  1
  B  B41  1  0.42952900  0.80352100  0.20760200  1
  B  B42  1  0.03310700  0.80295400  0.24974600  1
  B  B43  1  0.33665800  0.94495200  0.24196700  1
  B  B44  1  0.62508900  0.46618700  0.23135000  1
  B  B45  1  0.01895500  0.39143100  0.20550800  1
  B  B46  1  0.47379800  0.99980700  0.21454000  1
  B  B47  1  0.17024600  0.85781000  0.22231800  1
  B  B48  1  0.88181500  0.33657500  0.23293600  1
  B  B49  1  0.84509300  0.55418800  0.18734900  1
  B  B50  1  0.28774500  0.95774000  0.28080700  1
  B  B51  1  0.86201700  0.70216400  0.25490700  1
  B  B52  1  0.89752300  0.19427400  0.25885200  1
  B  B53  1  0.25223900  0.46563100  0.27686200  1
  B  B54  1  0.32519100  0.10448500  0.30712000  1
  B  B55  1  0.46742800  0.41256300  0.30002200  1
  B  B56  1  0.07737600  0.99924100  0.25668300  1
  B  B57  1  0.07238600  0.66066400  0.27903100  1
  B  B58  1  0.67596400  0.66009700  0.32117500  1
  B  B59  1  0.97951500  0.80209500  0.31339600  1
  B  B60  1  0.26794700  0.32333000  0.30277800  1
  B  B61  1  0.66181200  0.24857300  0.27693700  1
  B  B62  1  0.11665500  0.85695000  0.28596800  1
  B  B63  1  0.81310400  0.71495300  0.29374700  1
  B  B64  1  0.52467200  0.19371800  0.30436500  1
  B  B65  1  0.48795000  0.41133100  0.25877800  1
  B  B66  1  0.93060200  0.81488300  0.35223600  1
  B  B67  1  0.50487400  0.55930700  0.32633500  1
  B  B68  1  0.54038000  0.05141700  0.33028100  1
  B  B69  1  0.89509600  0.32277300  0.34829100  1
  B  B70  1  0.96804800  0.96162700  0.37854900  1
  B  B71  1  0.11028500  0.26970600  0.37145100  1
  B  B72  1  0.72023300  0.85638400  0.32811200  1
  B  B73  1  0.71524300  0.51780600  0.35045900  1
  B  B74  1  0.31882100  0.51724000  0.39260300  1
  B  B75  1  0.62237300  0.65923700  0.38482500  1
  B  B76  1  0.91080400  0.18047300  0.37420700  1
  B  B77  1  0.30466900  0.10571600  0.34836500  1
  B  B78  1  0.75951200  0.71409300  0.35739700  1
  B  B79  1  0.45596100  0.57209600  0.36517500  1
  B  B80  1  0.16753000  0.05086100  0.37579300  1
  B  B81  1  0.13080700  0.26847400  0.33020600  1
  B  B82  1  0.57345900  0.67202600  0.42366500  1
  B  B83  1  0.14773100  0.41645000  0.39776400  1
  B  B84  1  0.18323700  0.90856000  0.40170900  1
  B  B85  1  0.53795300  0.17991600  0.41971900  1
  B  B86  1  0.61090600  0.81877000  0.44997800  1
  B  B87  1  0.75314200  0.12684900  0.44288000  1
  B  B88  1  0.36309000  0.71352700  0.39954100  1
  B  B89  1  0.35810000  0.37494900  0.42188800  1
  B  B90  1  0.96167800  0.37438300  0.46403200  1
  B  B91  1  0.26523000  0.51638000  0.45625300  1
  B  B92  1  0.55366100  0.03761600  0.44563500  1
  B  B93  1  0.94752600  0.96285900  0.41979400  1
  B  B94  1  0.40236900  0.57123600  0.42882500  1
  B  B95  1  0.09881800  0.42923900  0.43660400  1
  B  B96  1  0.81038700  0.90800300  0.44722200  1
  B  B97  1  0.77366400  0.12561700  0.40163500  1
  B  B98  1  0.21631700  0.52916900  0.49509300  1
  B  B99  1  0.79058800  0.27359300  0.46919300  1
  B  B100  1  0.82609400  0.76570300  0.47313800  1
  B  B101  1  0.18081000  0.03705900  0.49114800  1
  B  B102  1  0.25376300  0.67591300  0.52140600  1
  B  B103  1  0.39599900  0.98399200  0.51430800  1
  B  B104  1  0.00594700  0.57067000  0.47096900  1
  B  B105  1  0.00095700  0.23209200  0.49331700  1
  B  B106  1  0.60453600  0.23152600  0.53546000  1
  B  B107  1  0.90808700  0.37352300  0.52768200  1
  B  B108  1  0.19651800  0.89475800  0.51706400  1
  B  B109  1  0.59038300  0.82000200  0.49122200  1
  B  B110  1  0.04522600  0.42837900  0.50025400  1
  B  B111  1  0.74167500  0.28638200  0.50803300  1
  B  B112  1  0.45324400  0.76514600  0.51865000  1
  B  B113  1  0.41652100  0.98276000  0.47306300  1
  B  B114  1  0.85917400  0.38631200  0.56652200  1
  B  B115  1  0.43344500  0.13073600  0.54062100  1
  B  B116  1  0.46895100  0.62284600  0.54456600  1
  B  B117  1  0.82366800  0.89420200  0.56257700  1
  B  B118  1  0.89662000  0.53305600  0.59283500  1
  B  B119  1  0.03885600  0.84113400  0.58573700  1
  B  B120  1  0.64880500  0.42781300  0.54239800  1
  B  B121  1  0.64381400  0.08923500  0.56474500  1
  B  B122  1  0.24739300  0.08866900  0.60688900  1
  B  B123  1  0.55094400  0.23066600  0.59911000  1
  B  B124  1  0.83937500  0.75190100  0.58849300  1
  B  B125  1  0.23324000  0.67714500  0.56265100  1
  B  B126  1  0.68808300  0.28552200  0.57168200  1
  B  B127  1  0.38453200  0.14352400  0.57946100  1
  B  B128  1  0.09610100  0.62228900  0.59007900  1
  B  B129  1  0.05937900  0.83990300  0.54449200  1
  B  B130  1  0.50203100  0.24345500  0.63795000  1
  B  B131  1  0.07630200  0.98787900  0.61205000  1
  B  B132  1  0.11180800  0.47998800  0.61599500  1
  B  B133  1  0.46652500  0.75134500  0.63400500  1
  B  B134  1  0.53947700  0.39019900  0.66426300  1
  B  B135  1  0.68171300  0.69827700  0.65716500  1
  B  B136  1  0.29166200  0.28495500  0.61382600  1
  B  B137  1  0.28667100  0.94637800  0.63617400  1
  B  B138  1  0.89025000  0.94581200  0.67831800  1
  B  B139  1  0.19380100  0.08780900  0.67053900  1
  B  B140  1  0.48223200  0.60904400  0.65992100  1
  B  B141  1  0.87609700  0.53428800  0.63408000  1
  B  B142  1  0.33094000  0.14266500  0.64311100  1
  B  B143  1  0.02738900  0.00066700  0.65089000  1
  B  B144  1  0.73895800  0.47943200  0.66150700  1
  B  B145  1  0.70223600  0.69704600  0.61592000  1
  B  B146  1  0.14488800  0.10059800  0.70937900  1
  B  B147  1  0.71916000  0.84502100  0.68347800  1
  B  B148  1  0.75466600  0.33713100  0.68742300  1
  B  B149  1  0.10938200  0.60848800  0.70543400  1
  B  B150  1  0.18233400  0.24734200  0.73569200  1
  B  B151  1  0.32457100  0.55542000  0.72859400  1
  B  B152  1  0.93451900  0.14209800  0.68525500  1
  B  B153  1  0.92952900  0.80352100  0.70760200  1
  B  B154  1  0.53310700  0.80295400  0.74974600  1
  B  B155  1  0.83665800  0.94495200  0.74196700  1
  B  B156  1  0.12508900  0.46618700  0.73135000  1
  B  B157  1  0.51895500  0.39143100  0.70550800  1
  B  B158  1  0.97379800  0.99980700  0.71454000  1
  B  B159  1  0.67024600  0.85781000  0.72231800  1
  B  B160  1  0.38181500  0.33657500  0.73293600  1
  B  B161  1  0.34509300  0.55418800  0.68734900  1
  B  B162  1  0.78774500  0.95774000  0.78080700  1
  B  B163  1  0.36201700  0.70216400  0.75490700  1
  B  B164  1  0.39752300  0.19427400  0.75885200  1
  B  B165  1  0.75223900  0.46563100  0.77686200  1
  B  B166  1  0.57737600  0.99924100  0.75668300  1
  B  B167  1  0.57238600  0.66066400  0.77903100  1
  B  B168  1  0.16181200  0.24857300  0.77693700  1
  B  B169  1  0.98795000  0.41133100  0.75877800  1
