# generated using pymatgen
data_Mg29Pd12
_symmetry_space_group_name_H-M   'P 1'
_cell_length_a   8.83883700
_cell_length_b   11.93708038
_cell_length_c   44.35540600
_cell_angle_alpha   87.49946255
_cell_angle_beta   90.00000000
_cell_angle_gamma   68.27044156
_symmetry_Int_Tables_number   1
_chemical_formula_structural   Mg29Pd12
_chemical_formula_sum   'Mg87 Pd36'
_cell_volume   4342.58916709
_cell_formula_units_Z   3
loop_
 _symmetry_equiv_pos_site_id
 _symmetry_equiv_pos_as_xyz
  1  'x, y, z'
loop_
 _atom_site_type_symbol
 _atom_site_label
 _atom_site_symmetry_multiplicity
 _atom_site_fract_x
 _atom_site_fract_y
 _atom_site_fract_z
 _atom_site_occupancy
  Mg  Mg0  1  0.50276700  0.41981600  0.24253600  1
  Mg  Mg1  1  0.18375500  0.63249100  0.18936700  1
  Mg  Mg2  1  0.07741700  0.41981600  0.24253600  1
  Mg  Mg3  1  0.14089500  0.29286000  0.30657200  1
  Mg  Mg4  1  0.70990800  0.58018400  0.23474000  1
  Mg  Mg5  1  0.56624500  0.29286000  0.30657200  1
  Mg  Mg6  1  0.29819200  0.97826600  0.22792300  1
  Mg  Mg7  1  0.61720500  0.76559100  0.28109200  1
  Mg  Mg8  1  0.72354200  0.97826600  0.22792300  1
  Mg  Mg9  1  0.59547100  0.23440900  0.19618400  1
  Mg  Mg10  1  0.02645800  0.94708500  0.26801500  1
  Mg  Mg11  1  0.17012000  0.23440900  0.19618400  1
  Mg  Mg12  1  0.69110900  0.00083000  0.30093100  1
  Mg  Mg13  1  0.40382300  0.19235400  0.25305000  1
  Mg  Mg14  1  0.30806100  0.00083000  0.30093100  1
  Mg  Mg15  1  0.95255300  0.71184600  0.24817700  1
  Mg  Mg16  1  0.23983900  0.52032200  0.29605800  1
  Mg  Mg17  1  0.33560100  0.71184600  0.24817700  1
  Mg  Mg18  1  0.82183100  0.35633800  0.27455400  1
  Mg  Mg19  1  0.94683100  0.10633800  0.21205400  1
  Mg  Mg20  1  0.25276700  0.91981600  0.36753600  1
  Mg  Mg21  1  0.93375500  0.13249100  0.31436700  1
  Mg  Mg22  1  0.82741700  0.91981600  0.36753600  1
  Mg  Mg23  1  0.89089500  0.79286000  0.43157200  1
  Mg  Mg24  1  0.45990800  0.08018400  0.35974000  1
  Mg  Mg25  1  0.31624500  0.79286000  0.43157200  1
  Mg  Mg26  1  0.04819200  0.47826600  0.35292300  1
  Mg  Mg27  1  0.36720500  0.26559100  0.40609200  1
  Mg  Mg28  1  0.47354200  0.47826600  0.35292300  1
  Mg  Mg29  1  0.34547100  0.73440900  0.32118400  1
  Mg  Mg30  1  0.77645800  0.44708500  0.39301500  1
  Mg  Mg31  1  0.92012000  0.73440900  0.32118400  1
  Mg  Mg32  1  0.44110900  0.50083000  0.42593100  1
  Mg  Mg33  1  0.15382300  0.69235400  0.37805000  1
  Mg  Mg34  1  0.05806100  0.50083000  0.42593100  1
  Mg  Mg35  1  0.70255300  0.21184600  0.37317700  1
  Mg  Mg36  1  0.98983900  0.02032200  0.42105800  1
  Mg  Mg37  1  0.08560100  0.21184600  0.37317700  1
  Mg  Mg38  1  0.57183100  0.85633800  0.39955400  1
  Mg  Mg39  1  0.69683100  0.60633800  0.33705400  1
  Mg  Mg40  1  0.00276700  0.41981600  0.49253600  1
  Mg  Mg41  1  0.68375500  0.63249100  0.43936700  1
  Mg  Mg42  1  0.57741700  0.41981600  0.49253600  1
  Mg  Mg43  1  0.64089500  0.29286000  0.55657200  1
  Mg  Mg44  1  0.20990800  0.58018400  0.48474000  1
  Mg  Mg45  1  0.06624500  0.29286000  0.55657200  1
  Mg  Mg46  1  0.79819200  0.97826600  0.47792300  1
  Mg  Mg47  1  0.11720500  0.76559100  0.53109200  1
  Mg  Mg48  1  0.22354200  0.97826600  0.47792300  1
  Mg  Mg49  1  0.09547100  0.23440900  0.44618400  1
  Mg  Mg50  1  0.52645800  0.94708500  0.51801500  1
  Mg  Mg51  1  0.67012000  0.23440900  0.44618400  1
  Mg  Mg52  1  0.19110900  0.00083000  0.55093100  1
  Mg  Mg53  1  0.90382300  0.19235400  0.50305000  1
  Mg  Mg54  1  0.80806100  0.00083000  0.55093100  1
  Mg  Mg55  1  0.45255300  0.71184600  0.49817700  1
  Mg  Mg56  1  0.73983900  0.52032200  0.54605800  1
  Mg  Mg57  1  0.83560100  0.71184600  0.49817700  1
  Mg  Mg58  1  0.32183100  0.35633800  0.52455400  1
  Mg  Mg59  1  0.44683100  0.10633800  0.46205400  1
  Mg  Mg60  1  0.75276700  0.91981600  0.61753600  1
  Mg  Mg61  1  0.43375500  0.13249100  0.56436700  1
  Mg  Mg62  1  0.32741700  0.91981600  0.61753600  1
  Mg  Mg63  1  0.39089500  0.79286000  0.68157200  1
  Mg  Mg64  1  0.95990800  0.08018400  0.60974000  1
  Mg  Mg65  1  0.81624500  0.79286000  0.68157200  1
  Mg  Mg66  1  0.54819200  0.47826600  0.60292300  1
  Mg  Mg67  1  0.86720500  0.26559100  0.65609200  1
  Mg  Mg68  1  0.97354200  0.47826600  0.60292300  1
  Mg  Mg69  1  0.84547100  0.73440900  0.57118400  1
  Mg  Mg70  1  0.27645800  0.44708500  0.64301500  1
  Mg  Mg71  1  0.42012000  0.73440900  0.57118400  1
  Mg  Mg72  1  0.94110900  0.50083000  0.67593100  1
  Mg  Mg73  1  0.65382300  0.69235400  0.62805000  1
  Mg  Mg74  1  0.55806100  0.50083000  0.67593100  1
  Mg  Mg75  1  0.20255300  0.21184600  0.62317700  1
  Mg  Mg76  1  0.48983900  0.02032200  0.67105800  1
  Mg  Mg77  1  0.58560100  0.21184600  0.62317700  1
  Mg  Mg78  1  0.07183100  0.85633800  0.64955400  1
  Mg  Mg79  1  0.19683100  0.60633800  0.58705400  1
  Mg  Mg80  1  0.18375500  0.63249100  0.68936700  1
  Mg  Mg81  1  0.70990800  0.58018400  0.73474000  1
  Mg  Mg82  1  0.29819200  0.97826600  0.72792300  1
  Mg  Mg83  1  0.72354200  0.97826600  0.72792300  1
  Mg  Mg84  1  0.59547100  0.23440900  0.69618400  1
  Mg  Mg85  1  0.17012000  0.23440900  0.69618400  1
  Mg  Mg86  1  0.94683100  0.10633800  0.71205400  1
  Pd  Pd87  1  0.10234000  0.16904900  0.25887600  1
  Pd  Pd88  1  0.82204300  0.35591400  0.21215900  1
  Pd  Pd89  1  0.72861000  0.16904900  0.25887600  1
  Pd  Pd90  1  0.54132200  0.54362600  0.29023100  1
  Pd  Pd91  1  0.07161900  0.85676100  0.21194800  1
  Pd  Pd92  1  0.91505200  0.54362600  0.29023100  1
  Pd  Pd93  1  0.30099800  0.39800400  0.20163700  1
  Pd  Pd94  1  0.59266500  0.81467100  0.22247000  1
  Pd  Pd95  1  0.85234000  0.66904900  0.38387600  1
  Pd  Pd96  1  0.57204300  0.85591400  0.33715900  1
  Pd  Pd97  1  0.47861000  0.66904900  0.38387600  1
  Pd  Pd98  1  0.29132200  0.04362600  0.41523100  1
  Pd  Pd99  1  0.82161900  0.35676100  0.33694800  1
  Pd  Pd100  1  0.66505200  0.04362600  0.41523100  1
  Pd  Pd101  1  0.05099800  0.89800400  0.32663700  1
  Pd  Pd102  1  0.34266500  0.31467100  0.34747000  1
  Pd  Pd103  1  0.60234000  0.16904900  0.50887600  1
  Pd  Pd104  1  0.32204300  0.35591400  0.46215900  1
  Pd  Pd105  1  0.22861000  0.16904900  0.50887600  1
  Pd  Pd106  1  0.04132200  0.54362600  0.54023100  1
  Pd  Pd107  1  0.57161900  0.85676100  0.46194800  1
  Pd  Pd108  1  0.41505200  0.54362600  0.54023100  1
  Pd  Pd109  1  0.80099800  0.39800400  0.45163700  1
  Pd  Pd110  1  0.09266500  0.81467100  0.47247000  1
  Pd  Pd111  1  0.35234000  0.66904900  0.63387600  1
  Pd  Pd112  1  0.07204300  0.85591400  0.58715900  1
  Pd  Pd113  1  0.97861000  0.66904900  0.63387600  1
  Pd  Pd114  1  0.79132200  0.04362600  0.66523100  1
  Pd  Pd115  1  0.32161900  0.35676100  0.58694800  1
  Pd  Pd116  1  0.16505200  0.04362600  0.66523100  1
  Pd  Pd117  1  0.55099800  0.89800400  0.57663700  1
  Pd  Pd118  1  0.84266500  0.31467100  0.59747000  1
  Pd  Pd119  1  0.82204300  0.35591400  0.71215900  1
  Pd  Pd120  1  0.07161900  0.85676100  0.71194800  1
  Pd  Pd121  1  0.30099800  0.39800400  0.70163700  1
  Pd  Pd122  1  0.59266500  0.81467100  0.72247000  1
