# generated using pymatgen
data_Mg12Zn61
_symmetry_space_group_name_H-M   'P 1'
_cell_length_a   9.87228519
_cell_length_b   10.62299195
_cell_length_c   43.15075500
_cell_angle_alpha   89.35999186
_cell_angle_beta   85.66423111
_cell_angle_gamma   73.25856991
_symmetry_Int_Tables_number   1
_chemical_formula_structural   Mg12Zn61
_chemical_formula_sum   'Mg24 Zn122'
_cell_volume   4320.87959756
_cell_formula_units_Z   2
loop_
 _symmetry_equiv_pos_site_id
 _symmetry_equiv_pos_as_xyz
  1  'x, y, z'
loop_
 _atom_site_type_symbol
 _atom_site_label
 _atom_site_symmetry_multiplicity
 _atom_site_fract_x
 _atom_site_fract_y
 _atom_site_fract_z
 _atom_site_occupancy
  Mg  Mg0  1  0.75235400  0.08598100  0.27744500  1
  Mg  Mg1  1  0.77920100  0.11668700  0.35134300  1
  Mg  Mg2  1  0.24924900  0.73592300  0.33480200  1
  Mg  Mg3  1  0.28230600  0.46674500  0.29398600  1
  Mg  Mg4  1  0.93417200  0.81325400  0.36835400  1
  Mg  Mg5  1  0.96101900  0.84396000  0.44225200  1
  Mg  Mg6  1  0.43106700  0.46319600  0.42571100  1
  Mg  Mg7  1  0.46412400  0.19401800  0.38489500  1
  Mg  Mg8  1  0.11599000  0.54052700  0.45926300  1
  Mg  Mg9  1  0.14283700  0.57123200  0.53316100  1
  Mg  Mg10  1  0.61288500  0.19046800  0.51662000  1
  Mg  Mg11  1  0.64594200  0.92129100  0.47580500  1
  Mg  Mg12  1  0.29780800  0.26779900  0.55017200  1
  Mg  Mg13  1  0.32465500  0.29850500  0.62407000  1
  Mg  Mg14  1  0.79470300  0.91774100  0.60752900  1
  Mg  Mg15  1  0.82776000  0.64856300  0.56671400  1
  Mg  Mg16  1  0.47962700  0.99507200  0.64108200  1
  Mg  Mg17  1  0.50647300  0.02577800  0.71497900  1
  Mg  Mg18  1  0.97652100  0.64501400  0.69843800  1
  Mg  Mg19  1  0.00957900  0.37583600  0.65762300  1
  Mg  Mg20  1  0.66144500  0.72234500  0.73199100  1
  Mg  Mg21  1  0.68829200  0.75305000  0.80588800  1
  Mg  Mg22  1  0.15834000  0.37228700  0.78934700  1
  Mg  Mg23  1  0.19139700  0.10310900  0.74853200  1
  Zn  Zn24  1  0.17486800  0.23769800  0.26893900  1
  Zn  Zn25  1  0.17486800  0.73769800  0.26893900  1
  Zn  Zn26  1  0.35668600  0.96497000  0.35984800  1
  Zn  Zn27  1  0.29225900  0.97448500  0.29438100  1
  Zn  Zn28  1  0.76254300  0.61924900  0.35289900  1
  Zn  Zn29  1  0.53634700  0.29306500  0.32245800  1
  Zn  Zn30  1  0.99520800  0.90960300  0.30633000  1
  Zn  Zn31  1  0.99220900  0.65177900  0.30580500  1
  Zn  Zn32  1  0.08967300  0.01665900  0.35018300  1
  Zn  Zn33  1  0.23929600  0.22818300  0.33440700  1
  Zn  Zn34  1  0.76004800  0.84454100  0.31383300  1
  Zn  Zn35  1  0.53175200  0.05120300  0.32354000  1
  Zn  Zn36  1  0.99980200  0.15146500  0.30524700  1
  Zn  Zn37  1  0.44188200  0.18600900  0.27860500  1
  Zn  Zn38  1  0.44940100  0.68580700  0.27801000  1
  Zn  Zn39  1  0.76901200  0.58341900  0.27588900  1
  Zn  Zn40  1  0.08215400  0.51686100  0.35077800  1
  Zn  Zn41  1  0.53934600  0.55088900  0.32298300  1
  Zn  Zn42  1  0.35668600  0.46497000  0.35984800  1
  Zn  Zn43  1  0.00817700  0.40819400  0.30520200  1
  Zn  Zn44  1  0.52337800  0.79447400  0.32358500  1
  Zn  Zn45  1  0.77150700  0.35812700  0.31495500  1
  Zn  Zn46  1  0.53850500  0.69224300  0.45075800  1
  Zn  Zn47  1  0.47407700  0.70175700  0.38529000  1
  Zn  Zn48  1  0.94436100  0.34652200  0.44380800  1
  Zn  Zn49  1  0.71816500  0.02033800  0.41336700  1
  Zn  Zn50  1  0.17702600  0.63687500  0.39723900  1
  Zn  Zn51  1  0.17402700  0.37905200  0.39671400  1
  Zn  Zn52  1  0.27149100  0.74393200  0.44109200  1
  Zn  Zn53  1  0.42111400  0.95545600  0.42531600  1
  Zn  Zn54  1  0.94186600  0.57181400  0.40474200  1
  Zn  Zn55  1  0.71357000  0.77847600  0.41445000  1
  Zn  Zn56  1  0.18162100  0.87873800  0.39615700  1
  Zn  Zn57  1  0.62370000  0.91328100  0.36951400  1
  Zn  Zn58  1  0.63121900  0.41308000  0.36891900  1
  Zn  Zn59  1  0.95083000  0.31069200  0.36679800  1
  Zn  Zn60  1  0.26397200  0.24413400  0.44168700  1
  Zn  Zn61  1  0.72116400  0.27816200  0.41389200  1
  Zn  Zn62  1  0.53850500  0.19224300  0.45075800  1
  Zn  Zn63  1  0.18999500  0.13546600  0.39611200  1
  Zn  Zn64  1  0.70519600  0.52174700  0.41449400  1
  Zn  Zn65  1  0.95332500  0.08540000  0.40586400  1
  Zn  Zn66  1  0.72032300  0.41951600  0.54166700  1
  Zn  Zn67  1  0.65589500  0.42903000  0.47619900  1
  Zn  Zn68  1  0.12617900  0.07379400  0.53471700  1
  Zn  Zn69  1  0.89998300  0.74761100  0.50427600  1
  Zn  Zn70  1  0.35884400  0.36414800  0.48814800  1
  Zn  Zn71  1  0.35584500  0.10632400  0.48762400  1
  Zn  Zn72  1  0.45330900  0.47120500  0.53200100  1
  Zn  Zn73  1  0.60293200  0.68272900  0.51622500  1
  Zn  Zn74  1  0.12368400  0.29908700  0.49565100  1
  Zn  Zn75  1  0.89538900  0.50574800  0.50535900  1
  Zn  Zn76  1  0.36343900  0.60601100  0.48706600  1
  Zn  Zn77  1  0.80551800  0.64055400  0.46042300  1
  Zn  Zn78  1  0.81303700  0.14035200  0.45982800  1
  Zn  Zn79  1  0.13264800  0.03796500  0.45770800  1
  Zn  Zn80  1  0.44579000  0.97140700  0.53259600  1
  Zn  Zn81  1  0.90298200  0.00543400  0.50480100  1
  Zn  Zn82  1  0.72032300  0.91951600  0.54166700  1
  Zn  Zn83  1  0.37181300  0.86273900  0.48702100  1
  Zn  Zn84  1  0.88701400  0.24902000  0.50540400  1
  Zn  Zn85  1  0.13514300  0.81267200  0.49677300  1
  Zn  Zn86  1  0.90214100  0.14678900  0.63257600  1
  Zn  Zn87  1  0.83771400  0.15630300  0.56710800  1
  Zn  Zn88  1  0.30799800  0.80106700  0.62562600  1
  Zn  Zn89  1  0.08180200  0.47488400  0.59518500  1
  Zn  Zn90  1  0.54066200  0.09142100  0.57905700  1
  Zn  Zn91  1  0.53766300  0.83359700  0.57853300  1
  Zn  Zn92  1  0.63512800  0.19847700  0.62291000  1
  Zn  Zn93  1  0.78475000  0.41000200  0.60713400  1
  Zn  Zn94  1  0.30550200  0.02635900  0.58656000  1
  Zn  Zn95  1  0.07720700  0.23302100  0.59626800  1
  Zn  Zn96  1  0.54525700  0.33328300  0.57797500  1
  Zn  Zn97  1  0.98733600  0.36782700  0.55133200  1
  Zn  Zn98  1  0.99485500  0.86762500  0.55073700  1
  Zn  Zn99  1  0.31446600  0.76523700  0.54861700  1
  Zn  Zn100  1  0.62760800  0.69867900  0.62350500  1
  Zn  Zn101  1  0.08480100  0.73270700  0.59571000  1
  Zn  Zn102  1  0.90214100  0.64678900  0.63257600  1
  Zn  Zn103  1  0.55363100  0.59001200  0.57793000  1
  Zn  Zn104  1  0.06883200  0.97629300  0.59631300  1
  Zn  Zn105  1  0.31696100  0.53994500  0.58768200  1
  Zn  Zn106  1  0.08395900  0.87406100  0.72348500  1
  Zn  Zn107  1  0.01953200  0.88357600  0.65801700  1
  Zn  Zn108  1  0.48981600  0.52834000  0.71653500  1
  Zn  Zn109  1  0.26362000  0.20215600  0.68609400  1
  Zn  Zn110  1  0.72248000  0.81869300  0.66996700  1
  Zn  Zn111  1  0.71948100  0.56087000  0.66944200  1
  Zn  Zn112  1  0.81694600  0.92575000  0.71381900  1
  Zn  Zn113  1  0.96656800  0.13727400  0.69804300  1
  Zn  Zn114  1  0.48732100  0.75363200  0.67746900  1
  Zn  Zn115  1  0.25902500  0.96029400  0.68717700  1
  Zn  Zn116  1  0.72707500  0.06055600  0.66888400  1
  Zn  Zn117  1  0.16915400  0.09510000  0.64224200  1
  Zn  Zn118  1  0.17667400  0.59489800  0.64164600  1
  Zn  Zn119  1  0.49628400  0.49251000  0.63952600  1
  Zn  Zn120  1  0.80942700  0.42595200  0.71441400  1
  Zn  Zn121  1  0.26661900  0.45998000  0.68661900  1
  Zn  Zn122  1  0.08395900  0.37406100  0.72348500  1
  Zn  Zn123  1  0.73544900  0.31728500  0.66883900  1
  Zn  Zn124  1  0.25065100  0.70356500  0.68722200  1
  Zn  Zn125  1  0.49878000  0.26721800  0.67859100  1
  Zn  Zn126  1  0.26577700  0.60133400  0.81439400  1
  Zn  Zn127  1  0.20135000  0.61084800  0.74892700  1
  Zn  Zn128  1  0.67163400  0.25561300  0.80744400  1
  Zn  Zn129  1  0.44543800  0.92942900  0.77700300  1
  Zn  Zn130  1  0.90429800  0.54596600  0.76087600  1
  Zn  Zn131  1  0.90129900  0.28814300  0.76035100  1
  Zn  Zn132  1  0.99876400  0.65302300  0.80472800  1
  Zn  Zn133  1  0.14838700  0.86454700  0.78895200  1
  Zn  Zn134  1  0.66913900  0.48090500  0.76837800  1
  Zn  Zn135  1  0.44084300  0.68756600  0.77808600  1
  Zn  Zn136  1  0.90889300  0.78782900  0.75979300  1
  Zn  Zn137  1  0.35097200  0.82237200  0.73315100  1
  Zn  Zn138  1  0.35849200  0.32217100  0.73255500  1
  Zn  Zn139  1  0.67810300  0.21978300  0.73043500  1
  Zn  Zn140  1  0.99124500  0.15322500  0.80532300  1
  Zn  Zn141  1  0.44843700  0.18725300  0.77752800  1
  Zn  Zn142  1  0.26577700  0.10133400  0.81439400  1
  Zn  Zn143  1  0.91726800  0.04455700  0.75974800  1
  Zn  Zn144  1  0.43246900  0.43083800  0.77813100  1
  Zn  Zn145  1  0.68059800  0.99449100  0.76950100  1
