# generated using pymatgen
data_Li10Mg19
_symmetry_space_group_name_H-M   'P 1'
_cell_length_a   5.91597348
_cell_length_b   8.55483817
_cell_length_c   41.39076100
_cell_angle_alpha   92.80394366
_cell_angle_beta   91.01073281
_cell_angle_gamma   95.27772267
_symmetry_Int_Tables_number   1
_chemical_formula_structural   Li10Mg19
_chemical_formula_sum   'Li20 Mg38'
_cell_volume   2082.90014689
_cell_formula_units_Z   2
loop_
 _symmetry_equiv_pos_site_id
 _symmetry_equiv_pos_as_xyz
  1  'x, y, z'
loop_
 _atom_site_type_symbol
 _atom_site_label
 _atom_site_symmetry_multiplicity
 _atom_site_fract_x
 _atom_site_fract_y
 _atom_site_fract_z
 _atom_site_occupancy
  Li  Li0  1  0.13264500  0.44483600  0.21683300  1
  Li  Li1  1  0.70064400  0.97183000  0.19983300  1
  Li  Li2  1  0.88264500  0.50733600  0.27933300  1
  Li  Li3  1  0.45064400  0.03433000  0.26233300  1
  Li  Li4  1  0.63264500  0.56983600  0.34183300  1
  Li  Li5  1  0.20064400  0.09683000  0.32483300  1
  Li  Li6  1  0.38264500  0.63233600  0.40433300  1
  Li  Li7  1  0.95064400  0.15933000  0.38733300  1
  Li  Li8  1  0.13264500  0.69483600  0.46683300  1
  Li  Li9  1  0.70064400  0.22183000  0.44983300  1
  Li  Li10  1  0.88264500  0.75733600  0.52933300  1
  Li  Li11  1  0.45064400  0.28433000  0.51233300  1
  Li  Li12  1  0.63264500  0.81983600  0.59183300  1
  Li  Li13  1  0.20064400  0.34683000  0.57483300  1
  Li  Li14  1  0.38264500  0.88233600  0.65433300  1
  Li  Li15  1  0.95064400  0.40933000  0.63733300  1
  Li  Li16  1  0.13264500  0.94483600  0.71683300  1
  Li  Li17  1  0.70064400  0.47183000  0.69983300  1
  Li  Li18  1  0.88264500  0.00733600  0.77933300  1
  Li  Li19  1  0.45064400  0.53433000  0.76233300  1
  Mg  Mg20  1  0.04965100  0.80163200  0.23758200  1
  Mg  Mg21  1  0.21636200  0.09364100  0.19590400  1
  Mg  Mg22  1  0.53363800  0.67753400  0.24158500  1
  Mg  Mg23  1  0.61692700  0.32302600  0.22076300  1
  Mg  Mg24  1  0.79965100  0.86413200  0.30008200  1
  Mg  Mg25  1  0.96636200  0.15614100  0.25840400  1
  Mg  Mg26  1  0.28363800  0.74003400  0.30408500  1
  Mg  Mg27  1  0.36692700  0.38552600  0.28326300  1
  Mg  Mg28  1  0.54965100  0.92663200  0.36258200  1
  Mg  Mg29  1  0.71636200  0.21864100  0.32090400  1
  Mg  Mg30  1  0.03363800  0.80253400  0.36658500  1
  Mg  Mg31  1  0.11692700  0.44802600  0.34576300  1
  Mg  Mg32  1  0.29965100  0.98913200  0.42508200  1
  Mg  Mg33  1  0.46636200  0.28114100  0.38340400  1
  Mg  Mg34  1  0.78363800  0.86503400  0.42908500  1
  Mg  Mg35  1  0.86692700  0.51052600  0.40826300  1
  Mg  Mg36  1  0.04965100  0.05163200  0.48758200  1
  Mg  Mg37  1  0.21636200  0.34364100  0.44590400  1
  Mg  Mg38  1  0.53363800  0.92753400  0.49158500  1
  Mg  Mg39  1  0.61692700  0.57302600  0.47076300  1
  Mg  Mg40  1  0.79965100  0.11413200  0.55008200  1
  Mg  Mg41  1  0.96636200  0.40614100  0.50840400  1
  Mg  Mg42  1  0.28363800  0.99003400  0.55408500  1
  Mg  Mg43  1  0.36692700  0.63552600  0.53326300  1
  Mg  Mg44  1  0.54965100  0.17663200  0.61258200  1
  Mg  Mg45  1  0.71636200  0.46864100  0.57090400  1
  Mg  Mg46  1  0.03363800  0.05253400  0.61658500  1
  Mg  Mg47  1  0.11692700  0.69802600  0.59576300  1
  Mg  Mg48  1  0.29965100  0.23913200  0.67508200  1
  Mg  Mg49  1  0.46636200  0.53114100  0.63340400  1
  Mg  Mg50  1  0.78363800  0.11503400  0.67908500  1
  Mg  Mg51  1  0.86692700  0.76052600  0.65826300  1
  Mg  Mg52  1  0.04965100  0.30163200  0.73758200  1
  Mg  Mg53  1  0.21636200  0.59364100  0.69590400  1
  Mg  Mg54  1  0.53363800  0.17753400  0.74158500  1
  Mg  Mg55  1  0.61692700  0.82302600  0.72076300  1
  Mg  Mg56  1  0.96636200  0.65614100  0.75840400  1
  Mg  Mg57  1  0.36692700  0.88552600  0.78326300  1
