# generated using pymatgen
data_Mg34Zn67
_symmetry_space_group_name_H-M   'P 1'
_cell_length_a   5.07402229
_cell_length_b   14.70723601
_cell_length_c   50.49845100
_cell_angle_alpha   88.21601723
_cell_angle_beta   89.67566990
_cell_angle_gamma   90.29193359
_symmetry_Int_Tables_number   1
_chemical_formula_structural   Mg34Zn67
_chemical_formula_sum   'Mg34 Zn67'
_cell_volume   3766.49971225
_cell_formula_units_Z   1
loop_
 _symmetry_equiv_pos_site_id
 _symmetry_equiv_pos_as_xyz
  1  'x, y, z'
loop_
 _atom_site_type_symbol
 _atom_site_label
 _atom_site_symmetry_multiplicity
 _atom_site_fract_x
 _atom_site_fract_y
 _atom_site_fract_z
 _atom_site_occupancy
  Mg  Mg0  1  0.54504200  0.06060100  0.29229400  1
  Mg  Mg1  1  0.04225500  0.07705400  0.46223700  1
  Mg  Mg2  1  0.05088000  0.57329800  0.32710100  1
  Mg  Mg3  1  0.04843200  0.03772000  0.25857700  1
  Mg  Mg4  1  0.54708400  0.16334500  0.48721600  1
  Mg  Mg5  1  0.54894600  0.88805500  0.33660800  1
  Mg  Mg6  1  0.04470600  0.37626000  0.29991200  1
  Mg  Mg7  1  0.54424800  0.75862000  0.45051400  1
  Mg  Mg8  1  0.54552000  0.25782700  0.31870500  1
  Mg  Mg9  1  0.54559700  0.38299500  0.47187500  1
  Mg  Mg10  1  0.54180000  0.22304300  0.38199000  1
  Mg  Mg11  1  0.04716000  0.53851400  0.39038600  1
  Mg  Mg12  1  0.04493900  0.87166100  0.47614300  1
  Mg  Mg13  1  0.54603700  0.69239800  0.30914600  1
  Mg  Mg14  1  0.04664300  0.10394200  0.39994500  1
  Mg  Mg15  1  0.54797500  0.42008100  0.40917900  1
  Mg  Mg16  1  0.04763900  0.73573900  0.41679700  1
  Mg  Mg17  1  0.04373500  0.90828600  0.37248300  1
  Mg  Mg18  1  0.05042600  0.46928700  0.49685400  1
  Mg  Mg19  1  0.04774100  0.67468000  0.48294800  1
  Mg  Mg20  1  0.04504200  0.81060100  0.54229400  1
  Mg  Mg21  1  0.55088000  0.32329800  0.57710100  1
  Mg  Mg22  1  0.54843200  0.78772000  0.50857700  1
  Mg  Mg23  1  0.04894600  0.63805500  0.58660800  1
  Mg  Mg24  1  0.54470600  0.12626000  0.54991200  1
  Mg  Mg25  1  0.04424800  0.50862000  0.70051400  1
  Mg  Mg26  1  0.04552000  0.00782700  0.56870500  1
  Mg  Mg27  1  0.04180000  0.97304300  0.63199000  1
  Mg  Mg28  1  0.54716000  0.28851400  0.64038600  1
  Mg  Mg29  1  0.04603700  0.44239800  0.55914600  1
  Mg  Mg30  1  0.54664300  0.85394200  0.64994500  1
  Mg  Mg31  1  0.04797500  0.17008100  0.65917900  1
  Mg  Mg32  1  0.54763900  0.48573900  0.66679700  1
  Mg  Mg33  1  0.54373500  0.65828600  0.62248300  1
  Zn  Zn34  1  0.54223900  0.39318200  0.26724400  1
  Zn  Zn35  1  0.54561100  0.96472200  0.47060600  1
  Zn  Zn36  1  0.04985300  0.23871500  0.35114800  1
  Zn  Zn37  1  0.29573300  0.56104200  0.44336300  1
  Zn  Zn38  1  0.79149700  0.24104700  0.43490400  1
  Zn  Zn39  1  0.79338800  0.23754200  0.26470500  1
  Zn  Zn40  1  0.79634000  0.39817000  0.35454500  1
  Zn  Zn41  1  0.05044200  0.40315900  0.44184700  1
  Zn  Zn42  1  0.54714700  0.00400600  0.38580400  1
  Zn  Zn43  1  0.29477300  0.55531200  0.27428100  1
  Zn  Zn44  1  0.79293200  0.08141200  0.34682700  1
  Zn  Zn45  1  0.04546500  0.97467700  0.31484200  1
  Zn  Zn46  1  0.54675600  0.47250700  0.31381000  1
  Zn  Zn47  1  0.05184900  0.70775200  0.27734100  1
  Zn  Zn48  1  0.54707000  0.58161800  0.48848500  1
  Zn  Zn49  1  0.04553400  0.79233400  0.32328700  1
  Zn  Zn50  1  0.30549300  0.87058700  0.28247100  1
  Zn  Zn51  1  0.29790800  0.24102800  0.43481000  1
  Zn  Zn52  1  0.79929300  0.55879900  0.44438600  1
  Zn  Zn53  1  0.04592500  0.32383400  0.39528100  1
  Zn  Zn54  1  0.28718800  0.92575300  0.42662000  1
  Zn  Zn55  1  0.80118300  0.55529300  0.27418700  1
  Zn  Zn56  1  0.29634000  0.39817000  0.35454500  1
  Zn  Zn57  1  0.04079000  0.16291400  0.30526400  1
  Zn  Zn58  1  0.29699400  0.08051000  0.34720300  1
  Zn  Zn59  1  0.79209400  0.87306600  0.28181100  1
  Zn  Zn60  1  0.55189100  0.63342700  0.40382700  1
  Zn  Zn61  1  0.80058700  0.92327400  0.42728000  1
  Zn  Zn62  1  0.54083200  0.08858800  0.43175000  1
  Zn  Zn63  1  0.29568600  0.71583000  0.36188800  1
  Zn  Zn64  1  0.29694800  0.23529800  0.26572800  1
  Zn  Zn65  1  0.04634000  0.27317000  0.47954500  1
  Zn  Zn66  1  0.79974900  0.71492800  0.36226400  1
  Zn  Zn67  1  0.54721500  0.82166300  0.39424900  1
  Zn  Zn68  1  0.54282800  0.55762500  0.35794300  1
  Zn  Zn69  1  0.04223900  0.14318200  0.51724400  1
  Zn  Zn70  1  0.54985300  0.98871500  0.60114800  1
  Zn  Zn71  1  0.79573300  0.31104200  0.69336300  1
  Zn  Zn72  1  0.29149700  0.99104700  0.68490400  1
  Zn  Zn73  1  0.29338800  0.98754200  0.51470500  1
  Zn  Zn74  1  0.29634000  0.14817000  0.60454500  1
  Zn  Zn75  1  0.55044200  0.15315900  0.69184700  1
  Zn  Zn76  1  0.04714700  0.75400600  0.63580400  1
  Zn  Zn77  1  0.79477300  0.30531200  0.52428100  1
  Zn  Zn78  1  0.29293200  0.83141200  0.59682700  1
  Zn  Zn79  1  0.54546500  0.72467700  0.56484200  1
  Zn  Zn80  1  0.04675600  0.22250700  0.56381000  1
  Zn  Zn81  1  0.55184900  0.45775200  0.52734100  1
  Zn  Zn82  1  0.54553400  0.54233400  0.57328700  1
  Zn  Zn83  1  0.80549300  0.62058700  0.53247100  1
  Zn  Zn84  1  0.79790800  0.99102800  0.68481000  1
  Zn  Zn85  1  0.29929300  0.30879900  0.69438600  1
  Zn  Zn86  1  0.54592500  0.07383400  0.64528100  1
  Zn  Zn87  1  0.78718800  0.67575300  0.67662000  1
  Zn  Zn88  1  0.30118300  0.30529300  0.52418700  1
  Zn  Zn89  1  0.79634000  0.14817000  0.60454500  1
  Zn  Zn90  1  0.54079000  0.91291400  0.55526400  1
  Zn  Zn91  1  0.79699400  0.83051000  0.59720300  1
  Zn  Zn92  1  0.29209400  0.62306600  0.53181100  1
  Zn  Zn93  1  0.05189100  0.38342700  0.65382700  1
  Zn  Zn94  1  0.30058700  0.67327400  0.67728000  1
  Zn  Zn95  1  0.04083200  0.83858800  0.68175000  1
  Zn  Zn96  1  0.79568600  0.46583000  0.61188800  1
  Zn  Zn97  1  0.79694800  0.98529800  0.51572800  1
  Zn  Zn98  1  0.29974900  0.46492800  0.61226400  1
  Zn  Zn99  1  0.04721500  0.57166300  0.64424900  1
  Zn  Zn100  1  0.04282800  0.30762500  0.60794300  1
