# generated using pymatgen
data_Y2Mg
_symmetry_space_group_name_H-M   'P 1'
_cell_length_a   3.72656800
_cell_length_b   18.03005265
_cell_length_c   42.13259500
_cell_angle_alpha   96.30333968
_cell_angle_beta   90.00000000
_cell_angle_gamma   90.00000000
_symmetry_Int_Tables_number   1
_chemical_formula_structural   Y2Mg
_chemical_formula_sum   'Y40 Mg20'
_cell_volume   2813.78417820
_cell_formula_units_Z   20
loop_
 _symmetry_equiv_pos_site_id
 _symmetry_equiv_pos_as_xyz
  1  'x, y, z'
loop_
 _atom_site_type_symbol
 _atom_site_label
 _atom_site_symmetry_multiplicity
 _atom_site_fract_x
 _atom_site_fract_y
 _atom_site_fract_z
 _atom_site_occupancy
  Y  Y0  1  0.50000000  0.95201300  0.23007000  1
  Y  Y1  1  0.00000000  0.79254900  0.25285000  1
  Y  Y2  1  1.00000000  0.61048700  0.20743000  1
  Y  Y3  1  0.50000000  0.89495100  0.30965000  1
  Y  Y4  1  0.00000000  0.51451300  0.29257000  1
  Y  Y5  1  0.50000000  0.23004900  0.19035000  1
  Y  Y6  1  0.50000000  0.17298700  0.26993000  1
  Y  Y7  1  0.00000000  0.33245100  0.24715000  1
  Y  Y8  1  0.50000000  0.07701300  0.35507000  1
  Y  Y9  1  0.00000000  0.91754900  0.37785000  1
  Y  Y10  1  0.00000000  0.73548700  0.33243000  1
  Y  Y11  1  0.50000000  0.01995100  0.43465000  1
  Y  Y12  1  0.00000000  0.63951300  0.41757000  1
  Y  Y13  1  0.50000000  0.35504900  0.31535000  1
  Y  Y14  1  0.50000000  0.29798700  0.39493000  1
  Y  Y15  1  0.00000000  0.45745100  0.37215000  1
  Y  Y16  1  0.50000000  0.20201300  0.48007000  1
  Y  Y17  1  0.00000000  0.04254900  0.50285000  1
  Y  Y18  1  0.00000000  0.86048700  0.45743000  1
  Y  Y19  1  0.50000000  0.14495100  0.55965000  1
  Y  Y20  1  0.00000000  0.76451300  0.54257000  1
  Y  Y21  1  0.50000000  0.48004900  0.44035000  1
  Y  Y22  1  0.50000000  0.42298700  0.51993000  1
  Y  Y23  1  0.00000000  0.58245100  0.49715000  1
  Y  Y24  1  0.50000000  0.32701300  0.60507000  1
  Y  Y25  1  0.00000000  0.16754900  0.62785000  1
  Y  Y26  1  0.00000000  0.98548700  0.58243000  1
  Y  Y27  1  0.50000000  0.26995100  0.68465000  1
  Y  Y28  1  1.00000000  0.88951300  0.66757000  1
  Y  Y29  1  0.50000000  0.60504900  0.56535000  1
  Y  Y30  1  0.50000000  0.54798700  0.64493000  1
  Y  Y31  1  0.00000000  0.70745100  0.62215000  1
  Y  Y32  1  0.50000000  0.45201300  0.73007000  1
  Y  Y33  1  0.00000000  0.29254900  0.75285000  1
  Y  Y34  1  0.00000000  0.11048700  0.70743000  1
  Y  Y35  1  0.50000000  0.39495100  0.80965000  1
  Y  Y36  1  0.00000000  0.01451300  0.79257000  1
  Y  Y37  1  0.50000000  0.73004900  0.69035000  1
  Y  Y38  1  0.50000000  0.67298700  0.76993000  1
  Y  Y39  1  1.00000000  0.83245100  0.74715000  1
  Mg  Mg40  1  0.50000000  0.65283900  0.27280900  1
  Mg  Mg41  1  0.00000000  0.03466100  0.28969100  1
  Mg  Mg42  1  0.00000000  0.09033900  0.21030900  1
  Mg  Mg43  1  0.50000000  0.47216100  0.22719100  1
  Mg  Mg44  1  0.50000000  0.77783900  0.39780900  1
  Mg  Mg45  1  0.00000000  0.15966100  0.41469100  1
  Mg  Mg46  1  0.00000000  0.21533900  0.33530900  1
  Mg  Mg47  1  0.50000000  0.59716100  0.35219100  1
  Mg  Mg48  1  0.50000000  0.90283900  0.52280900  1
  Mg  Mg49  1  0.00000000  0.28466100  0.53969100  1
  Mg  Mg50  1  0.00000000  0.34033900  0.46030900  1
  Mg  Mg51  1  0.50000000  0.72216100  0.47719100  1
  Mg  Mg52  1  0.50000000  0.02783900  0.64780900  1
  Mg  Mg53  1  0.00000000  0.40966100  0.66469100  1
  Mg  Mg54  1  0.00000000  0.46533900  0.58530900  1
  Mg  Mg55  1  0.50000000  0.84716100  0.60219100  1
  Mg  Mg56  1  0.50000000  0.15283900  0.77280900  1
  Mg  Mg57  1  0.00000000  0.53466100  0.78969100  1
  Mg  Mg58  1  0.00000000  0.59033900  0.71030900  1
  Mg  Mg59  1  0.50000000  0.97216100  0.72719100  1
