# generated using pymatgen
data_Mg17Zn31
_symmetry_space_group_name_H-M   'P 1'
_cell_length_a   15.05205970
_cell_length_b   15.53344962
_cell_length_c   44.08704400
_cell_angle_alpha   96.16286714
_cell_angle_beta   84.01794547
_cell_angle_gamma   68.44884142
_symmetry_Int_Tables_number   1
_chemical_formula_structural   Mg17Zn31
_chemical_formula_sum   'Mg102 Zn186'
_cell_volume   9416.24976546
_cell_formula_units_Z   6
loop_
 _symmetry_equiv_pos_site_id
 _symmetry_equiv_pos_as_xyz
  1  'x, y, z'
loop_
 _atom_site_type_symbol
 _atom_site_label
 _atom_site_symmetry_multiplicity
 _atom_site_fract_x
 _atom_site_fract_y
 _atom_site_fract_z
 _atom_site_occupancy
  Mg  Mg0  1  0.78915400  0.14032800  0.23932000  1
  Mg  Mg1  1  0.14243000  0.35977100  0.27236700  1
  Mg  Mg2  1  0.66664500  0.70454800  0.25603700  1
  Mg  Mg3  1  0.95979000  0.11949900  0.27508800  1
  Mg  Mg4  1  0.99685800  0.42538400  0.22671000  1
  Mg  Mg5  1  0.65170100  0.05189700  0.27912100  1
  Mg  Mg6  1  0.78089300  0.48581300  0.26152900  1
  Mg  Mg7  1  0.16550400  0.00579500  0.24854800  1
  Mg  Mg8  1  0.67704200  0.35749400  0.23285000  1
  Mg  Mg9  1  0.12843600  0.69991000  0.29692600  1
  Mg  Mg10  1  0.45864900  0.42074500  0.26759900  1
  Mg  Mg11  1  0.44825100  0.76779900  0.29078600  1
  Mg  Mg12  1  0.01456600  0.09604500  0.20012800  1
  Mg  Mg13  1  0.76709100  0.83432300  0.28466500  1
  Mg  Mg14  1  0.35820300  0.29097000  0.23897100  1
  Mg  Mg15  1  0.34440100  0.63948100  0.26210700  1
  Mg  Mg16  1  0.33614000  0.98496600  0.28431700  1
  Mg  Mg17  1  0.47359200  0.07339700  0.24451500  1
  Mg  Mg18  1  0.98286400  0.76552300  0.25126900  1
  Mg  Mg19  1  0.01072800  0.92924900  0.22350800  1
  Mg  Mg20  1  0.88915400  0.24032800  0.33932000  1
  Mg  Mg21  1  0.24243000  0.45977100  0.37236700  1
  Mg  Mg22  1  0.76664500  0.80454800  0.35603700  1
  Mg  Mg23  1  0.05979000  0.21949900  0.37508800  1
  Mg  Mg24  1  0.09685800  0.52538400  0.32671000  1
  Mg  Mg25  1  0.75170100  0.15189700  0.37912100  1
  Mg  Mg26  1  0.88089300  0.58581300  0.36152900  1
  Mg  Mg27  1  0.26550400  0.10579500  0.34854800  1
  Mg  Mg28  1  0.77704200  0.45749400  0.33285000  1
  Mg  Mg29  1  0.22843600  0.79991000  0.39692600  1
  Mg  Mg30  1  0.55864900  0.52074500  0.36759900  1
  Mg  Mg31  1  0.54825100  0.86779900  0.39078600  1
  Mg  Mg32  1  0.11456600  0.19604500  0.30012800  1
  Mg  Mg33  1  0.86709100  0.93432300  0.38466500  1
  Mg  Mg34  1  0.45820300  0.39097000  0.33897100  1
  Mg  Mg35  1  0.44440100  0.73948100  0.36210700  1
  Mg  Mg36  1  0.43614000  0.08496600  0.38431700  1
  Mg  Mg37  1  0.57359200  0.17339700  0.34451500  1
  Mg  Mg38  1  0.08286400  0.86552300  0.35126900  1
  Mg  Mg39  1  0.11072800  0.02924900  0.32350800  1
  Mg  Mg40  1  0.98915400  0.34032800  0.43932000  1
  Mg  Mg41  1  0.34243000  0.55977100  0.47236700  1
  Mg  Mg42  1  0.86664500  0.90454800  0.45603700  1
  Mg  Mg43  1  0.15979000  0.31949900  0.47508800  1
  Mg  Mg44  1  0.19685800  0.62538400  0.42671000  1
  Mg  Mg45  1  0.85170100  0.25189700  0.47912100  1
  Mg  Mg46  1  0.98089300  0.68581300  0.46152900  1
  Mg  Mg47  1  0.36550400  0.20579500  0.44854800  1
  Mg  Mg48  1  0.87704200  0.55749400  0.43285000  1
  Mg  Mg49  1  0.32843600  0.89991000  0.49692600  1
  Mg  Mg50  1  0.65864900  0.62074500  0.46759900  1
  Mg  Mg51  1  0.64825100  0.96779900  0.49078600  1
  Mg  Mg52  1  0.21456600  0.29604500  0.40012800  1
  Mg  Mg53  1  0.96709100  0.03432300  0.48466500  1
  Mg  Mg54  1  0.55820300  0.49097000  0.43897100  1
  Mg  Mg55  1  0.54440100  0.83948100  0.46210700  1
  Mg  Mg56  1  0.53614000  0.18496600  0.48431700  1
  Mg  Mg57  1  0.67359200  0.27339700  0.44451500  1
  Mg  Mg58  1  0.18286400  0.96552300  0.45126900  1
  Mg  Mg59  1  0.21072800  0.12924900  0.42350800  1
  Mg  Mg60  1  0.08915400  0.44032800  0.53932000  1
  Mg  Mg61  1  0.44243000  0.65977100  0.57236700  1
  Mg  Mg62  1  0.96664500  0.00454800  0.55603700  1
  Mg  Mg63  1  0.25979000  0.41949900  0.57508800  1
  Mg  Mg64  1  0.29685800  0.72538400  0.52671000  1
  Mg  Mg65  1  0.95170100  0.35189700  0.57912100  1
  Mg  Mg66  1  0.08089300  0.78581300  0.56152900  1
  Mg  Mg67  1  0.46550400  0.30579500  0.54854800  1
  Mg  Mg68  1  0.97704200  0.65749400  0.53285000  1
  Mg  Mg69  1  0.42843600  0.99991000  0.59692600  1
  Mg  Mg70  1  0.75864900  0.72074500  0.56759900  1
  Mg  Mg71  1  0.74825100  0.06779900  0.59078600  1
  Mg  Mg72  1  0.31456600  0.39604500  0.50012800  1
  Mg  Mg73  1  0.06709100  0.13432300  0.58466500  1
  Mg  Mg74  1  0.65820300  0.59097000  0.53897100  1
  Mg  Mg75  1  0.64440100  0.93948100  0.56210700  1
  Mg  Mg76  1  0.63614000  0.28496600  0.58431700  1
  Mg  Mg77  1  0.77359200  0.37339700  0.54451500  1
  Mg  Mg78  1  0.28286400  0.06552300  0.55126900  1
  Mg  Mg79  1  0.31072800  0.22924900  0.52350800  1
  Mg  Mg80  1  0.18915400  0.54032800  0.63932000  1
  Mg  Mg81  1  0.54243000  0.75977100  0.67236700  1
  Mg  Mg82  1  0.06664500  0.10454800  0.65603700  1
  Mg  Mg83  1  0.35979000  0.51949900  0.67508800  1
  Mg  Mg84  1  0.39685800  0.82538400  0.62671000  1
  Mg  Mg85  1  0.05170100  0.45189700  0.67912100  1
  Mg  Mg86  1  0.18089300  0.88581300  0.66152900  1
  Mg  Mg87  1  0.56550400  0.40579500  0.64854800  1
  Mg  Mg88  1  0.07704200  0.75749400  0.63285000  1
  Mg  Mg89  1  0.52843600  0.09991000  0.69692600  1
  Mg  Mg90  1  0.85864900  0.82074500  0.66759900  1
  Mg  Mg91  1  0.84825100  0.16779900  0.69078600  1
  Mg  Mg92  1  0.41456600  0.49604500  0.60012800  1
  Mg  Mg93  1  0.16709100  0.23432300  0.68466500  1
  Mg  Mg94  1  0.75820300  0.69097000  0.63897100  1
  Mg  Mg95  1  0.74440100  0.03948100  0.66210700  1
  Mg  Mg96  1  0.73614000  0.38496600  0.68431700  1
  Mg  Mg97  1  0.87359200  0.47339700  0.64451500  1
  Mg  Mg98  1  0.38286400  0.16552300  0.65126900  1
  Mg  Mg99  1  0.41072800  0.32924900  0.62350800  1
  Mg  Mg100  1  0.51456600  0.59604500  0.70012800  1
  Mg  Mg101  1  0.51072800  0.42924900  0.72350800  1
  Zn  Zn102  1  0.94329000  0.50179500  0.29325600  1
  Zn  Zn103  1  0.07470700  0.22156200  0.23812000  1
  Zn  Zn104  1  0.51583400  0.33939300  0.20141600  1
  Zn  Zn105  1  0.18543900  0.79239700  0.23987900  1
  Zn  Zn106  1  0.19661900  0.44129000  0.21722600  1
  Zn  Zn107  1  0.89285500  0.28302600  0.23266600  1
  Zn  Zn108  1  0.56264700  0.56264700  0.26181800  1
  Zn  Zn109  1  0.18200400  0.62349900  0.23038000  1
  Zn  Zn110  1  0.46774000  0.22986700  0.29194400  1
  Zn  Zn111  1  0.87770200  0.63352100  0.25581500  1
  Zn  Zn112  1  0.62099600  0.26564600  0.28929400  1
  Zn  Zn113  1  0.66887000  0.04686100  0.20922800  1
  Zn  Zn114  1  0.67282900  0.54348800  0.20905800  1
  Zn  Zn115  1  0.82745600  0.75101400  0.21780900  1
  Zn  Zn116  1  0.05058700  0.90373200  0.28551600  1
  Zn  Zn117  1  0.65755300  0.89542700  0.23169200  1
  Zn  Zn118  1  0.81858000  0.93062600  0.22945500  1
  Zn  Zn119  1  0.24759200  0.49177300  0.26782100  1
  Zn  Zn120  1  0.23243900  0.84226800  0.29097100  1
  Zn  Zn121  1  0.35246500  0.48180500  0.21457800  1
  Zn  Zn122  1  0.30671400  0.19466700  0.29418200  1
  Zn  Zn123  1  0.82867400  0.58400400  0.20641100  1
  Zn  Zn124  1  0.51264700  0.51264700  0.21181800  1
  Zn  Zn125  1  0.78310200  0.30143900  0.28514800  1
  Zn  Zn126  1  0.57017600  0.21580500  0.23997900  1
  Zn  Zn127  1  0.86930300  0.98052700  0.27753700  1
  Zn  Zn128  1  0.34219200  0.82385500  0.23848800  1
  Zn  Zn129  1  0.25599100  0.14476700  0.24610000  1
  Zn  Zn130  1  0.19783800  0.27427900  0.20582800  1
  Zn  Zn131  1  0.55511800  0.90948900  0.28365800  1
  Zn  Zn132  1  0.93985500  0.33289700  0.28375800  1
  Zn  Zn133  1  0.06264700  0.56264700  0.26181800  1
  Zn  Zn134  1  0.50429800  0.85964700  0.23434200  1
  Zn  Zn135  1  0.35642400  0.97843300  0.21440800  1
  Zn  Zn136  1  0.50946000  0.68590100  0.22222000  1
  Zn  Zn137  1  0.04329000  0.60179500  0.39325600  1
  Zn  Zn138  1  0.17470700  0.32156200  0.33812000  1
  Zn  Zn139  1  0.61583400  0.43939300  0.30141600  1
  Zn  Zn140  1  0.28543900  0.89239700  0.33987900  1
  Zn  Zn141  1  0.29661900  0.54129000  0.31722600  1
  Zn  Zn142  1  0.99285500  0.38302600  0.33266600  1
  Zn  Zn143  1  0.66264700  0.66264700  0.36181800  1
  Zn  Zn144  1  0.28200400  0.72349900  0.33038000  1
  Zn  Zn145  1  0.56774000  0.32986700  0.39194400  1
  Zn  Zn146  1  0.97770200  0.73352100  0.35581500  1
  Zn  Zn147  1  0.72099600  0.36564600  0.38929400  1
  Zn  Zn148  1  0.76887000  0.14686100  0.30922800  1
  Zn  Zn149  1  0.77282900  0.64348800  0.30905800  1
  Zn  Zn150  1  0.92745600  0.85101400  0.31780900  1
  Zn  Zn151  1  0.15058700  0.00373200  0.38551600  1
  Zn  Zn152  1  0.75755300  0.99542700  0.33169200  1
  Zn  Zn153  1  0.91858000  0.03062600  0.32945500  1
  Zn  Zn154  1  0.34759200  0.59177300  0.36782100  1
  Zn  Zn155  1  0.33243900  0.94226800  0.39097100  1
  Zn  Zn156  1  0.45246500  0.58180500  0.31457800  1
  Zn  Zn157  1  0.40671400  0.29466700  0.39418200  1
  Zn  Zn158  1  0.92867400  0.68400400  0.30641100  1
  Zn  Zn159  1  0.61264700  0.61264700  0.31181800  1
  Zn  Zn160  1  0.88310200  0.40143900  0.38514800  1
  Zn  Zn161  1  0.67017600  0.31580500  0.33997900  1
  Zn  Zn162  1  0.96930300  0.08052700  0.37753700  1
  Zn  Zn163  1  0.44219200  0.92385500  0.33848800  1
  Zn  Zn164  1  0.35599100  0.24476700  0.34610000  1
  Zn  Zn165  1  0.29783800  0.37427900  0.30582800  1
  Zn  Zn166  1  0.65511800  0.00948900  0.38365800  1
  Zn  Zn167  1  0.03985500  0.43289700  0.38375800  1
  Zn  Zn168  1  0.16264700  0.66264700  0.36181800  1
  Zn  Zn169  1  0.60429800  0.95964700  0.33434200  1
  Zn  Zn170  1  0.45642400  0.07843300  0.31440800  1
  Zn  Zn171  1  0.60946000  0.78590100  0.32222000  1
  Zn  Zn172  1  0.14329000  0.70179500  0.49325600  1
  Zn  Zn173  1  0.27470700  0.42156200  0.43812000  1
  Zn  Zn174  1  0.71583400  0.53939300  0.40141600  1
  Zn  Zn175  1  0.38543900  0.99239700  0.43987900  1
  Zn  Zn176  1  0.39661900  0.64129000  0.41722600  1
  Zn  Zn177  1  0.09285500  0.48302600  0.43266600  1
  Zn  Zn178  1  0.76264700  0.76264700  0.46181800  1
  Zn  Zn179  1  0.38200400  0.82349900  0.43038000  1
  Zn  Zn180  1  0.66774000  0.42986700  0.49194400  1
  Zn  Zn181  1  0.07770200  0.83352100  0.45581500  1
  Zn  Zn182  1  0.82099600  0.46564600  0.48929400  1
  Zn  Zn183  1  0.86887000  0.24686100  0.40922800  1
  Zn  Zn184  1  0.87282900  0.74348800  0.40905800  1
  Zn  Zn185  1  0.02745600  0.95101400  0.41780900  1
  Zn  Zn186  1  0.25058700  0.10373200  0.48551600  1
  Zn  Zn187  1  0.85755300  0.09542700  0.43169200  1
  Zn  Zn188  1  0.01858000  0.13062600  0.42945500  1
  Zn  Zn189  1  0.44759200  0.69177300  0.46782100  1
  Zn  Zn190  1  0.43243900  0.04226800  0.49097100  1
  Zn  Zn191  1  0.55246500  0.68180500  0.41457800  1
  Zn  Zn192  1  0.50671400  0.39466700  0.49418200  1
  Zn  Zn193  1  0.02867400  0.78400400  0.40641100  1
  Zn  Zn194  1  0.71264700  0.71264700  0.41181800  1
  Zn  Zn195  1  0.98310200  0.50143900  0.48514800  1
  Zn  Zn196  1  0.77017600  0.41580500  0.43997900  1
  Zn  Zn197  1  0.06930300  0.18052700  0.47753700  1
  Zn  Zn198  1  0.54219200  0.02385500  0.43848800  1
  Zn  Zn199  1  0.45599100  0.34476700  0.44610000  1
  Zn  Zn200  1  0.39783800  0.47427900  0.40582800  1
  Zn  Zn201  1  0.75511800  0.10948900  0.48365800  1
  Zn  Zn202  1  0.13985500  0.53289700  0.48375800  1
  Zn  Zn203  1  0.26264700  0.76264700  0.46181800  1
  Zn  Zn204  1  0.70429800  0.05964700  0.43434200  1
  Zn  Zn205  1  0.55642400  0.17843300  0.41440800  1
  Zn  Zn206  1  0.70946000  0.88590100  0.42222000  1
  Zn  Zn207  1  0.24329000  0.80179500  0.59325600  1
  Zn  Zn208  1  0.37470700  0.52156200  0.53812000  1
  Zn  Zn209  1  0.81583400  0.63939300  0.50141600  1
  Zn  Zn210  1  0.48543900  0.09239700  0.53987900  1
  Zn  Zn211  1  0.49661900  0.74129000  0.51722600  1
  Zn  Zn212  1  0.19285500  0.58302600  0.53266600  1
  Zn  Zn213  1  0.86264700  0.86264700  0.56181800  1
  Zn  Zn214  1  0.48200400  0.92349900  0.53038000  1
  Zn  Zn215  1  0.76774000  0.52986700  0.59194400  1
  Zn  Zn216  1  0.17770200  0.93352100  0.55581500  1
  Zn  Zn217  1  0.92099600  0.56564600  0.58929400  1
  Zn  Zn218  1  0.96887000  0.34686100  0.50922800  1
  Zn  Zn219  1  0.97282900  0.84348800  0.50905800  1
  Zn  Zn220  1  0.12745600  0.05101400  0.51780900  1
  Zn  Zn221  1  0.35058700  0.20373200  0.58551600  1
  Zn  Zn222  1  0.95755300  0.19542700  0.53169200  1
  Zn  Zn223  1  0.11858000  0.23062600  0.52945500  1
  Zn  Zn224  1  0.54759200  0.79177300  0.56782100  1
  Zn  Zn225  1  0.53243900  0.14226800  0.59097100  1
  Zn  Zn226  1  0.65246500  0.78180500  0.51457800  1
  Zn  Zn227  1  0.60671400  0.49466700  0.59418200  1
  Zn  Zn228  1  0.12867400  0.88400400  0.50641100  1
  Zn  Zn229  1  0.81264700  0.81264700  0.51181800  1
  Zn  Zn230  1  0.08310200  0.60143900  0.58514800  1
  Zn  Zn231  1  0.87017600  0.51580500  0.53997900  1
  Zn  Zn232  1  0.16930300  0.28052700  0.57753700  1
  Zn  Zn233  1  0.64219200  0.12385500  0.53848800  1
  Zn  Zn234  1  0.55599100  0.44476700  0.54610000  1
  Zn  Zn235  1  0.49783800  0.57427900  0.50582800  1
  Zn  Zn236  1  0.85511800  0.20948900  0.58365800  1
  Zn  Zn237  1  0.23985500  0.63289700  0.58375800  1
  Zn  Zn238  1  0.36264700  0.86264700  0.56181800  1
  Zn  Zn239  1  0.80429800  0.15964700  0.53434200  1
  Zn  Zn240  1  0.65642400  0.27843300  0.51440800  1
  Zn  Zn241  1  0.80946000  0.98590100  0.52222000  1
  Zn  Zn242  1  0.34329000  0.90179500  0.69325600  1
  Zn  Zn243  1  0.47470700  0.62156200  0.63812000  1
  Zn  Zn244  1  0.91583400  0.73939300  0.60141600  1
  Zn  Zn245  1  0.58543900  0.19239700  0.63987900  1
  Zn  Zn246  1  0.59661900  0.84129000  0.61722600  1
  Zn  Zn247  1  0.29285500  0.68302600  0.63266600  1
  Zn  Zn248  1  0.96264700  0.96264700  0.66181800  1
  Zn  Zn249  1  0.58200400  0.02349900  0.63038000  1
  Zn  Zn250  1  0.86774000  0.62986700  0.69194400  1
  Zn  Zn251  1  0.27770200  0.03352100  0.65581500  1
  Zn  Zn252  1  0.02099600  0.66564600  0.68929400  1
  Zn  Zn253  1  0.06887000  0.44686100  0.60922800  1
  Zn  Zn254  1  0.07282900  0.94348800  0.60905800  1
  Zn  Zn255  1  0.22745600  0.15101400  0.61780900  1
  Zn  Zn256  1  0.45058700  0.30373200  0.68551600  1
  Zn  Zn257  1  0.05755300  0.29542700  0.63169200  1
  Zn  Zn258  1  0.21858000  0.33062600  0.62945500  1
  Zn  Zn259  1  0.64759200  0.89177300  0.66782100  1
  Zn  Zn260  1  0.63243900  0.24226800  0.69097100  1
  Zn  Zn261  1  0.75246500  0.88180500  0.61457800  1
  Zn  Zn262  1  0.70671400  0.59466700  0.69418200  1
  Zn  Zn263  1  0.22867400  0.98400400  0.60641100  1
  Zn  Zn264  1  0.91264700  0.91264700  0.61181800  1
  Zn  Zn265  1  0.18310200  0.70143900  0.68514800  1
  Zn  Zn266  1  0.97017600  0.61580500  0.63997900  1
  Zn  Zn267  1  0.26930300  0.38052700  0.67753700  1
  Zn  Zn268  1  0.74219200  0.22385500  0.63848800  1
  Zn  Zn269  1  0.65599100  0.54476700  0.64610000  1
  Zn  Zn270  1  0.59783800  0.67427900  0.60582800  1
  Zn  Zn271  1  0.95511800  0.30948900  0.68365800  1
  Zn  Zn272  1  0.33985500  0.73289700  0.68375800  1
  Zn  Zn273  1  0.46264700  0.96264700  0.66181800  1
  Zn  Zn274  1  0.90429800  0.25964700  0.63434200  1
  Zn  Zn275  1  0.75642400  0.37843300  0.61440800  1
  Zn  Zn276  1  0.90946000  0.08590100  0.62222000  1
  Zn  Zn277  1  0.01583400  0.83939300  0.70141600  1
  Zn  Zn278  1  0.69661900  0.94129000  0.71722600  1
  Zn  Zn279  1  0.16887000  0.54686100  0.70922800  1
  Zn  Zn280  1  0.17282900  0.04348800  0.70905800  1
  Zn  Zn281  1  0.32745600  0.25101400  0.71780900  1
  Zn  Zn282  1  0.85246500  0.98180500  0.71457800  1
  Zn  Zn283  1  0.32867400  0.08400400  0.70641100  1
  Zn  Zn284  1  0.01264700  0.01264700  0.71181800  1
  Zn  Zn285  1  0.69783800  0.77427900  0.70582800  1
  Zn  Zn286  1  0.85642400  0.47843300  0.71440800  1
  Zn  Zn287  1  0.00946000  0.18590100  0.72222000  1
