# generated using pymatgen
data_Mg10Sc19
_symmetry_space_group_name_H-M   'P 1'
_cell_length_a   6.15802808
_cell_length_b   8.41162235
_cell_length_c   44.44502100
_cell_angle_alpha   88.64208176
_cell_angle_beta   86.82203302
_cell_angle_gamma   83.76368766
_symmetry_Int_Tables_number   1
_chemical_formula_structural   Mg10Sc19
_chemical_formula_sum   'Mg20 Sc38'
_cell_volume   2284.70234821
_cell_formula_units_Z   2
loop_
 _symmetry_equiv_pos_site_id
 _symmetry_equiv_pos_as_xyz
  1  'x, y, z'
loop_
 _atom_site_type_symbol
 _atom_site_label
 _atom_site_symmetry_multiplicity
 _atom_site_fract_x
 _atom_site_fract_y
 _atom_site_fract_z
 _atom_site_occupancy
  Mg  Mg0  1  0.40006700  0.09263800  0.78255800  1
  Mg  Mg1  1  0.01731600  0.36569500  0.75910800  1
  Mg  Mg2  1  0.71256700  0.15513800  0.72005800  1
  Mg  Mg3  1  0.32981600  0.42819500  0.69660800  1
  Mg  Mg4  1  0.02506700  0.21763800  0.65755800  1
  Mg  Mg5  1  0.64231600  0.49069500  0.63410800  1
  Mg  Mg6  1  0.33756700  0.28013800  0.59505800  1
  Mg  Mg7  1  0.95481600  0.55319500  0.57160800  1
  Mg  Mg8  1  0.65006700  0.34263800  0.53255800  1
  Mg  Mg9  1  0.26731600  0.61569500  0.50910800  1
  Mg  Mg10  1  0.96256700  0.40513800  0.47005800  1
  Mg  Mg11  1  0.57981600  0.67819500  0.44660800  1
  Mg  Mg12  1  0.27506700  0.46763800  0.40755800  1
  Mg  Mg13  1  0.89231600  0.74069500  0.38410800  1
  Mg  Mg14  1  0.58756700  0.53013800  0.34505800  1
  Mg  Mg15  1  0.20481600  0.80319500  0.32160800  1
  Mg  Mg16  1  0.90006700  0.59263800  0.28255800  1
  Mg  Mg17  1  0.51731600  0.86569500  0.25910800  1
  Mg  Mg18  1  0.21256700  0.65513800  0.22005800  1
  Mg  Mg19  1  0.82981600  0.92819500  0.19660800  1
  Sc  Sc20  1  0.50481700  0.44318900  0.76160800  1
  Sc  Sc21  1  0.91256600  0.01514400  0.78005800  1
  Sc  Sc22  1  0.81731700  0.50568900  0.69910800  1
  Sc  Sc23  1  0.60768400  0.80541000  0.74103500  1
  Sc  Sc24  1  0.22506600  0.07764400  0.71755800  1
  Sc  Sc25  1  0.12219800  0.71542300  0.73813200  1
  Sc  Sc26  1  0.12981700  0.56818900  0.63660800  1
  Sc  Sc27  1  0.92018400  0.86791000  0.67853500  1
  Sc  Sc28  1  0.53756600  0.14014400  0.65505800  1
  Sc  Sc29  1  0.43469800  0.77792300  0.67563200  1
  Sc  Sc30  1  0.44231700  0.63068900  0.57410800  1
  Sc  Sc31  1  0.23268400  0.93041000  0.61603500  1
  Sc  Sc32  1  0.85006600  0.20264400  0.59255800  1
  Sc  Sc33  1  0.74719800  0.84042300  0.61313200  1
  Sc  Sc34  1  0.75481700  0.69318900  0.51160800  1
  Sc  Sc35  1  0.54518400  0.99291000  0.55353500  1
  Sc  Sc36  1  0.16256600  0.26514400  0.53005800  1
  Sc  Sc37  1  0.05969800  0.90292300  0.55063200  1
  Sc  Sc38  1  0.06731700  0.75568900  0.44910800  1
  Sc  Sc39  1  0.85768400  0.05541000  0.49103500  1
  Sc  Sc40  1  0.47506600  0.32764400  0.46755800  1
  Sc  Sc41  1  0.37219800  0.96542300  0.48813200  1
  Sc  Sc42  1  0.37981700  0.81818900  0.38660800  1
  Sc  Sc43  1  0.17018400  0.11791000  0.42853500  1
  Sc  Sc44  1  0.78756600  0.39014400  0.40505800  1
  Sc  Sc45  1  0.68469800  0.02792300  0.42563200  1
  Sc  Sc46  1  0.69231700  0.88068900  0.32410800  1
  Sc  Sc47  1  0.48268400  0.18041000  0.36603500  1
  Sc  Sc48  1  0.10006600  0.45264400  0.34255800  1
  Sc  Sc49  1  0.99719800  0.09042300  0.36313200  1
  Sc  Sc50  1  0.00481700  0.94318900  0.26160800  1
  Sc  Sc51  1  0.79518400  0.24291000  0.30353500  1
  Sc  Sc52  1  0.41256600  0.51514400  0.28005800  1
  Sc  Sc53  1  0.30969800  0.15292300  0.30063200  1
  Sc  Sc54  1  0.31731700  0.00568900  0.19910800  1
  Sc  Sc55  1  0.10768400  0.30541000  0.24103500  1
  Sc  Sc56  1  0.72506600  0.57764400  0.21755800  1
  Sc  Sc57  1  0.62219800  0.21542300  0.23813200  1
