# generated using pymatgen
data_Pr2Mg
_symmetry_space_group_name_H-M   'P 1'
_cell_length_a   3.86864600
_cell_length_b   5.72809200
_cell_length_c   52.50645400
_cell_angle_alpha   90.00000000
_cell_angle_beta   90.00000000
_cell_angle_gamma   90.00000000
_symmetry_Int_Tables_number   1
_chemical_formula_structural   Pr2Mg
_chemical_formula_sum   'Pr16 Mg8'
_cell_volume   1163.54093106
_cell_formula_units_Z   8
loop_
 _symmetry_equiv_pos_site_id
 _symmetry_equiv_pos_as_xyz
  1  'x, y, z'
loop_
 _atom_site_type_symbol
 _atom_site_label
 _atom_site_symmetry_multiplicity
 _atom_site_fract_x
 _atom_site_fract_y
 _atom_site_fract_z
 _atom_site_occupancy
  Pr  Pr0  1  0.00000000  0.75000000  0.19535300  1
  Pr  Pr1  1  0.50000000  0.75000000  0.25531900  1
  Pr  Pr2  1  0.50000000  0.25000000  0.30464700  1
  Pr  Pr3  1  0.00000000  0.25000000  0.24468100  1
  Pr  Pr4  1  0.50000000  0.75000000  0.36201900  1
  Pr  Pr5  1  0.00000000  0.75000000  0.42198600  1
  Pr  Pr6  1  0.00000000  0.25000000  0.47131400  1
  Pr  Pr7  1  0.50000000  0.25000000  0.41134800  1
  Pr  Pr8  1  0.00000000  0.75000000  0.52868600  1
  Pr  Pr9  1  0.50000000  0.75000000  0.58865200  1
  Pr  Pr10  1  0.50000000  0.25000000  0.63798100  1
  Pr  Pr11  1  0.00000000  0.25000000  0.57801400  1
  Pr  Pr12  1  0.50000000  0.75000000  0.69535300  1
  Pr  Pr13  1  0.00000000  0.75000000  0.75531900  1
  Pr  Pr14  1  0.00000000  0.25000000  0.80464700  1
  Pr  Pr15  1  0.50000000  0.25000000  0.74468100  1
  Mg  Mg16  1  0.00000000  0.75000000  0.30938700  1
  Mg  Mg17  1  0.50000000  0.25000000  0.19061300  1
  Mg  Mg18  1  0.50000000  0.75000000  0.47605300  1
  Mg  Mg19  1  0.00000000  0.25000000  0.35728000  1
  Mg  Mg20  1  0.00000000  0.75000000  0.64272000  1
  Mg  Mg21  1  0.50000000  0.25000000  0.52394700  1
  Mg  Mg22  1  0.50000000  0.75000000  0.80938700  1
  Mg  Mg23  1  1.00000000  0.25000000  0.69061300  1
