# generated using pymatgen
data_MgZn2
_symmetry_space_group_name_H-M   'P 1'
_cell_length_a   5.07402260
_cell_length_b   13.26606241
_cell_length_c   57.00757700
_cell_angle_alpha   92.18610401
_cell_angle_beta   87.66012493
_cell_angle_gamma   100.62858194
_symmetry_Int_Tables_number   1
_chemical_formula_structural   MgZn2
_chemical_formula_sum   'Mg20 Zn40'
_cell_volume   3766.49990850
_cell_formula_units_Z   20
loop_
 _symmetry_equiv_pos_site_id
 _symmetry_equiv_pos_as_xyz
  1  'x, y, z'
loop_
 _atom_site_type_symbol
 _atom_site_label
 _atom_site_symmetry_multiplicity
 _atom_site_fract_x
 _atom_site_fract_y
 _atom_site_fract_z
 _atom_site_occupancy
  Mg  Mg0  1  0.26205100  0.63525500  0.36131900  1
  Mg  Mg1  1  0.47155100  0.00208200  0.31472000  1
  Mg  Mg2  1  0.57347500  0.38290400  0.47444300  1
  Mg  Mg3  1  0.81194400  0.75597300  0.37546800  1
  Mg  Mg4  1  0.94458200  0.92998500  0.28690200  1
  Mg  Mg5  1  0.13746100  0.42594200  0.39337700  1
  Mg  Mg6  1  0.82797000  0.68560300  0.28050000  1
  Mg  Mg7  1  0.91046500  0.96643600  0.39725900  1
  Mg  Mg8  1  0.26466000  0.58552200  0.30541000  1
  Mg  Mg9  1  0.77782700  0.79242400  0.48582500  1
  Mg  Mg10  1  0.14893400  0.33950400  0.29828400  1
  Mg  Mg11  1  0.45774900  0.13688700  0.46731800  1
  Mg  Mg12  1  0.39318200  0.89858500  0.36259200  1
  Mg  Mg13  1  0.13951300  0.48000800  0.44915600  1
  Mg  Mg14  1  0.58289600  0.24240000  0.32357100  1
  Mg  Mg15  1  0.89443900  0.03680500  0.49222800  1
  Mg  Mg16  1  0.46035800  0.08715400  0.41140900  1
  Mg  Mg17  1  0.58494700  0.29646600  0.37935000  1
  Mg  Mg18  1  0.25085800  0.72032600  0.45800700  1
  Mg  Mg19  1  0.32922700  0.82382300  0.41013600  1
  Zn  Zn20  1  0.39183600  0.81233700  0.28443600  1
  Zn  Zn21  1  0.92546600  0.94261500  0.34071100  1
  Zn  Zn22  1  0.69877300  0.45908000  0.30207700  1
  Zn  Zn23  1  0.12210000  0.94385800  0.44844100  1
  Zn  Zn24  1  0.81113900  0.14557800  0.28055500  1
  Zn  Zn25  1  0.10622000  0.78294800  0.32398100  1
  Zn  Zn26  1  0.98620400  0.48620400  0.26136400  1
  Zn  Zn27  1  0.33057300  0.91007200  0.48829100  1
  Zn  Zn28  1  0.08215500  0.27044500  0.35209000  1
  Zn  Zn29  1  0.41752000  0.57648100  0.49214400  1
  Zn  Zn30  1  0.92393100  0.43595900  0.34248300  1
  Zn  Zn31  1  0.70068700  0.52921800  0.37716300  1
  Zn  Zn32  1  0.32566000  0.65754600  0.25296300  1
  Zn  Zn33  1  0.69319900  0.60311700  0.45326900  1
  Zn  Zn34  1  0.79694300  0.77979400  0.43201700  1
  Zn  Zn35  1  0.64025300  0.45196300  0.42063700  1
  Zn  Zn36  1  0.47128600  0.62458700  0.41127800  1
  Zn  Zn37  1  0.30488900  0.14592700  0.28058300  1
  Zn  Zn38  1  0.61618900  0.93946100  0.44874600  1
  Zn  Zn39  1  0.64674900  0.31486300  0.26976400  1
  Zn  Zn40  1  0.25112300  0.09782200  0.36144900  1
  Zn  Zn41  1  0.91127000  0.57683000  0.49217300  1
  Zn  Zn42  1  0.48620400  0.48620400  0.26136400  1
  Zn  Zn43  1  0.76918300  0.61219500  0.33249800  1
  Zn  Zn44  1  0.41898400  0.43432200  0.34261400  1
  Zn  Zn45  1  0.98646000  0.62768300  0.41082300  1
  Zn  Zn46  1  0.95322600  0.11021400  0.44022900  1
  Zn  Zn47  1  0.73594800  0.09472600  0.36190400  1
  Zn  Zn48  1  0.02920900  0.11929100  0.31945800  1
  Zn  Zn49  1  0.30342400  0.28808600  0.43011300  1
  Zn  Zn50  1  0.60030900  0.77855000  0.32428600  1
  Zn  Zn51  1  0.48620400  0.98620400  0.26136400  1
  Zn  Zn52  1  0.79847800  0.28645000  0.43024500  1
  Zn  Zn53  1  0.02172200  0.19319100  0.39556500  1
  Zn  Zn54  1  0.02363600  0.26332900  0.47065100  1
  Zn  Zn55  1  0.73620400  0.23620400  0.51136400  1
  Zn  Zn56  1  0.07566000  0.40754600  0.50296300  1
  Zn  Zn57  1  0.39674900  0.06486300  0.51976400  1
  Zn  Zn58  1  0.23620400  0.23620400  0.51136400  1
  Zn  Zn59  1  0.23620400  0.73620400  0.51136400  1
