# generated using pymatgen
data_Ce3Mg7
_symmetry_space_group_name_H-M   'P 1'
_cell_length_a   3.18877500
_cell_length_b   5.20463200
_cell_length_c   53.43870200
_cell_angle_alpha   90.00000000
_cell_angle_beta   90.00000000
_cell_angle_gamma   90.00000000
_symmetry_Int_Tables_number   1
_chemical_formula_structural   Ce3Mg7
_chemical_formula_sum   'Ce6 Mg14'
_cell_volume   886.89009556
_cell_formula_units_Z   2
loop_
 _symmetry_equiv_pos_site_id
 _symmetry_equiv_pos_as_xyz
  1  'x, y, z'
loop_
 _atom_site_type_symbol
 _atom_site_label
 _atom_site_symmetry_multiplicity
 _atom_site_fract_x
 _atom_site_fract_y
 _atom_site_fract_z
 _atom_site_occupancy
  Ce  Ce0  1  0.00000000  0.75000000  0.26485700  1
  Ce  Ce1  1  0.50000000  0.25000000  0.45736600  1
  Ce  Ce2  1  0.50000000  0.75000000  0.43152300  1
  Ce  Ce3  1  0.00000000  0.25000000  0.29069900  1
  Ce  Ce4  1  0.00000000  0.75000000  0.59819000  1
  Ce  Ce5  1  0.00000000  0.25000000  0.62403200  1
  Mg  Mg6  1  0.00000000  0.75000000  0.48630900  1
  Mg  Mg7  1  0.50000000  0.75000000  0.20517400  1
  Mg  Mg8  1  0.00000000  0.25000000  0.18371500  1
  Mg  Mg9  1  0.50000000  0.25000000  0.23591300  1
  Mg  Mg10  1  0.50000000  0.75000000  0.31964200  1
  Mg  Mg11  1  0.00000000  0.75000000  0.37184000  1
  Mg  Mg12  1  0.50000000  0.25000000  0.35038200  1
  Mg  Mg13  1  0.00000000  0.25000000  0.40258000  1
  Mg  Mg14  1  0.50000000  0.75000000  0.53850700  1
  Mg  Mg15  1  0.00000000  0.25000000  0.51704900  1
  Mg  Mg16  1  0.50000000  0.25000000  0.56924700  1
  Mg  Mg17  1  0.50000000  0.75000000  0.65297500  1
  Mg  Mg18  1  0.00000000  0.75000000  0.70517400  1
  Mg  Mg19  1  0.50000000  0.25000000  0.68371500  1
