# generated using pymatgen
data_Mg7Zn36
_symmetry_space_group_name_H-M   'P 1'
_cell_length_a   4.98183600
_cell_length_b   24.97062623
_cell_length_c   44.22797300
_cell_angle_alpha   91.77467371
_cell_angle_beta   90.00000000
_cell_angle_gamma   90.00000000
_symmetry_Int_Tables_number   1
_chemical_formula_structural   Mg7Zn36
_chemical_formula_sum   'Mg28 Zn144'
_cell_volume   5499.30156751
_cell_formula_units_Z   4
loop_
 _symmetry_equiv_pos_site_id
 _symmetry_equiv_pos_as_xyz
  1  'x, y, z'
loop_
 _atom_site_type_symbol
 _atom_site_label
 _atom_site_symmetry_multiplicity
 _atom_site_fract_x
 _atom_site_fract_y
 _atom_site_fract_z
 _atom_site_occupancy
  Mg  Mg0  1  0.50000000  0.93626500  0.29312800  1
  Mg  Mg1  1  1.00000000  0.96518300  0.33782400  1
  Mg  Mg2  1  1.00000000  0.66476200  0.31183100  1
  Mg  Mg3  1  0.50000000  0.23668600  0.31912100  1
  Mg  Mg4  1  0.50000000  0.22197900  0.43598500  1
  Mg  Mg5  1  1.00000000  0.25089700  0.48068100  1
  Mg  Mg6  1  0.50000000  0.30761900  0.38326000  1
  Mg  Mg7  1  0.00000000  0.87954300  0.39055000  1
  Mg  Mg8  1  0.00000000  0.57912200  0.36455700  1
  Mg  Mg9  1  0.50000000  0.60804000  0.40925300  1
  Mg  Mg10  1  1.00000000  0.95047600  0.45468800  1
  Mg  Mg11  1  0.50000000  0.52240000  0.46197900  1
  Mg  Mg12  1  0.50000000  0.50769300  0.57884200  1
  Mg  Mg13  1  1.00000000  0.53661100  0.62353800  1
  Mg  Mg14  1  0.50000000  0.59333300  0.52611700  1
  Mg  Mg15  1  0.00000000  0.16525800  0.53340700  1
  Mg  Mg16  1  0.00000000  0.86483600  0.50741400  1
  Mg  Mg17  1  0.50000000  0.89375400  0.55211000  1
  Mg  Mg18  1  1.00000000  0.23619000  0.59754500  1
  Mg  Mg19  1  0.50000000  0.80811500  0.60483600  1
  Mg  Mg20  1  0.50000000  0.79340800  0.72170000  1
  Mg  Mg21  1  1.00000000  0.82232600  0.76639600  1
  Mg  Mg22  1  0.50000000  0.87904700  0.66897400  1
  Mg  Mg23  1  1.00000000  0.45097200  0.67626400  1
  Mg  Mg24  1  1.00000000  0.15055100  0.65027100  1
  Mg  Mg25  1  0.50000000  0.17946900  0.69496700  1
  Mg  Mg26  1  0.00000000  0.52190400  0.74040200  1
  Mg  Mg27  1  0.50000000  0.09382900  0.74769300  1
  Zn  Zn28  1  0.50000000  0.12929500  0.27976200  1
  Zn  Zn29  1  0.50000000  0.74250800  0.31974200  1
  Zn  Zn30  1  0.24714400  0.04732100  0.30069500  1
  Zn  Zn31  1  1.00000000  0.15893900  0.31121100  1
  Zn  Zn32  1  1.00000000  0.87522800  0.27888000  1
  Zn  Zn33  1  0.74714400  0.85412700  0.33025700  1
  Zn  Zn34  1  0.75285600  0.04732100  0.30069500  1
  Zn  Zn35  1  0.25285600  0.85412700  0.33025700  1
  Zn  Zn36  1  0.00000000  0.27215200  0.35119000  1
  Zn  Zn37  1  0.50000000  0.12365600  0.33674700  1
  Zn  Zn38  1  1.00000000  0.77779100  0.29420600  1
  Zn  Zn39  1  0.50000000  0.02622000  0.35207200  1
  Zn  Zn40  1  1.00000000  0.77215200  0.35119000  1
  Zn  Zn41  1  0.00000000  0.46018800  0.34026900  1
  Zn  Zn42  1  1.00000000  0.28186000  0.29243400  1
  Zn  Zn43  1  0.50000000  0.61958800  0.33851900  1
  Zn  Zn44  1  0.75265100  0.54477800  0.30160100  1
  Zn  Zn45  1  0.50000000  0.51808500  0.35030900  1
  Zn  Zn46  1  0.25265100  0.35667000  0.32935100  1
  Zn  Zn47  1  0.50000000  0.44126000  0.29068300  1
  Zn  Zn48  1  0.24734900  0.54477800  0.30160100  1
  Zn  Zn49  1  0.74734900  0.35667000  0.32935100  1
  Zn  Zn50  1  0.50000000  0.62929500  0.27976200  1
  Zn  Zn51  1  0.00000000  0.38336300  0.28064400  1
  Zn  Zn52  1  0.50000000  0.41501000  0.42261900  1
  Zn  Zn53  1  0.50000000  0.02822300  0.46259900  1
  Zn  Zn54  1  0.50000000  0.10304500  0.41169800  1
  Zn  Zn55  1  0.50000000  0.92471700  0.36386200  1
  Zn  Zn56  1  1.00000000  0.26244500  0.40994700  1
  Zn  Zn57  1  0.25265100  0.18763500  0.37303000  1
  Zn  Zn58  1  0.24714400  0.33303500  0.44355200  1
  Zn  Zn59  1  0.00000000  0.44465300  0.45406800  1
  Zn  Zn60  1  1.00000000  0.16094200  0.42173700  1
  Zn  Zn61  1  0.74714400  0.13984100  0.47311400  1
  Zn  Zn62  1  0.75285600  0.33303500  0.44355200  1
  Zn  Zn63  1  0.25285600  0.13984100  0.47311400  1
  Zn  Zn64  1  0.75265100  0.99952700  0.40078000  1
  Zn  Zn65  1  1.00000000  0.08411700  0.36211200  1
  Zn  Zn66  1  0.74734900  0.18763500  0.37303000  1
  Zn  Zn67  1  0.24734900  0.99952700  0.40078000  1
  Zn  Zn68  1  1.00000000  0.55786700  0.49404800  1
  Zn  Zn69  1  0.50000000  0.40937000  0.47960400  1
  Zn  Zn70  1  0.00000000  0.06350600  0.43706300  1
  Zn  Zn71  1  0.50000000  0.31193400  0.49492900  1
  Zn  Zn72  1  0.00000000  0.05786700  0.49404800  1
  Zn  Zn73  1  1.00000000  0.38536600  0.39117000  1
  Zn  Zn74  1  1.00000000  0.74590200  0.48312600  1
  Zn  Zn75  1  1.00000000  0.56757400  0.43529100  1
  Zn  Zn76  1  0.50000000  0.90530200  0.48137600  1
  Zn  Zn77  1  0.75265100  0.83049200  0.44445800  1
  Zn  Zn78  1  0.74714400  0.69017800  0.37212400  1
  Zn  Zn79  1  0.50000000  0.80179600  0.38263900  1
  Zn  Zn80  1  0.50000000  0.80379900  0.49316600  1
  Zn  Zn81  1  0.24714400  0.49698400  0.40168600  1
  Zn  Zn82  1  0.25285600  0.69017800  0.37212400  1
  Zn  Zn83  1  0.75285600  0.49698400  0.40168600  1
  Zn  Zn84  1  0.25265100  0.64238400  0.47220800  1
  Zn  Zn85  1  0.50000000  0.72697400  0.43354000  1
  Zn  Zn86  1  0.24734900  0.83049200  0.44445800  1
  Zn  Zn87  1  0.74734900  0.64238400  0.47220800  1
  Zn  Zn88  1  0.50000000  0.91501000  0.42261900  1
  Zn  Zn89  1  1.00000000  0.76651300  0.40817500  1
  Zn  Zn90  1  0.50000000  0.42064900  0.36563400  1
  Zn  Zn91  1  0.00000000  0.66907700  0.42350100  1
  Zn  Zn92  1  0.50000000  0.70072400  0.56547600  1
  Zn  Zn93  1  0.50000000  0.31393700  0.60545600  1
  Zn  Zn94  1  0.50000000  0.38875900  0.55455500  1
  Zn  Zn95  1  0.50000000  0.21043100  0.50671900  1
  Zn  Zn96  1  0.00000000  0.54815900  0.55280500  1
  Zn  Zn97  1  0.25265100  0.47334900  0.51588700  1
  Zn  Zn98  1  0.24714400  0.61874900  0.58640900  1
  Zn  Zn99  1  1.00000000  0.73036800  0.59692500  1
  Zn  Zn100  1  0.00000000  0.44665700  0.56459400  1
  Zn  Zn101  1  0.74714400  0.42555500  0.61597200  1
  Zn  Zn102  1  0.75285600  0.61874900  0.58640900  1
  Zn  Zn103  1  0.25285600  0.42555500  0.61597200  1
  Zn  Zn104  1  0.75265100  0.28524100  0.54363700  1
  Zn  Zn105  1  0.00000000  0.36983100  0.50496900  1
  Zn  Zn106  1  0.74734900  0.47334900  0.51588700  1
  Zn  Zn107  1  0.24734900  0.28524100  0.54363700  1
  Zn  Zn108  1  0.00000000  0.84358100  0.63690500  1
  Zn  Zn109  1  0.50000000  0.69508500  0.62246100  1
  Zn  Zn110  1  0.00000000  0.34922000  0.57992000  1
  Zn  Zn111  1  0.50000000  0.59764800  0.63778700  1
  Zn  Zn112  1  1.00000000  0.34358100  0.63690500  1
  Zn  Zn113  1  1.00000000  0.67108000  0.53402700  1
  Zn  Zn114  1  1.00000000  0.03161700  0.62598300  1
  Zn  Zn115  1  0.00000000  0.85328800  0.57814800  1
  Zn  Zn116  1  0.50000000  0.19101700  0.62423300  1
  Zn  Zn117  1  0.75265100  0.11620700  0.58731500  1
  Zn  Zn118  1  0.74714400  0.97589200  0.51498100  1
  Zn  Zn119  1  0.50000000  0.08751100  0.52549600  1
  Zn  Zn120  1  0.50000000  0.08951400  0.63602300  1
  Zn  Zn121  1  0.24714400  0.78269800  0.54454300  1
  Zn  Zn122  1  0.25285600  0.97589200  0.51498100  1
  Zn  Zn123  1  0.75285600  0.78269800  0.54454300  1
  Zn  Zn124  1  0.25265100  0.92809800  0.61506500  1
  Zn  Zn125  1  0.50000000  0.01268800  0.57639800  1
  Zn  Zn126  1  0.24734900  0.11620700  0.58731500  1
  Zn  Zn127  1  0.74734900  0.92809800  0.61506500  1
  Zn  Zn128  1  0.50000000  0.20072400  0.56547600  1
  Zn  Zn129  1  1.00000000  0.05222800  0.55103200  1
  Zn  Zn130  1  0.50000000  0.70636300  0.50849100  1
  Zn  Zn131  1  0.00000000  0.95479100  0.56635800  1
  Zn  Zn132  1  0.50000000  0.98643800  0.70833300  1
  Zn  Zn133  1  0.50000000  0.59965100  0.74831300  1
  Zn  Zn134  1  0.50000000  0.67447400  0.69741200  1
  Zn  Zn135  1  0.50000000  0.49614500  0.64957600  1
  Zn  Zn136  1  0.00000000  0.83387400  0.69566200  1
  Zn  Zn137  1  0.25265100  0.75906400  0.65874400  1
  Zn  Zn138  1  0.24714400  0.90446400  0.72926700  1
  Zn  Zn139  1  0.00000000  0.01608200  0.73978200  1
  Zn  Zn140  1  0.00000000  0.73237100  0.70745200  1
  Zn  Zn141  1  0.74714400  0.71127000  0.75882900  1
  Zn  Zn142  1  0.75285600  0.90446400  0.72926700  1
  Zn  Zn143  1  0.25285600  0.71127000  0.75882900  1
  Zn  Zn144  1  0.75265100  0.57095500  0.68649400  1
  Zn  Zn145  1  1.00000000  0.65554500  0.64782600  1
  Zn  Zn146  1  0.74734900  0.75906400  0.65874400  1
  Zn  Zn147  1  0.24734900  0.57095500  0.68649400  1
  Zn  Zn148  1  1.00000000  0.12929500  0.77976200  1
  Zn  Zn149  1  0.50000000  0.98079900  0.76531800  1
  Zn  Zn150  1  0.00000000  0.63493400  0.72277700  1
  Zn  Zn151  1  0.50000000  0.88336300  0.78064400  1
  Zn  Zn152  1  1.00000000  0.62929500  0.77976200  1
  Zn  Zn153  1  0.00000000  0.95679400  0.67688500  1
  Zn  Zn154  1  0.00000000  0.31733100  0.76884100  1
  Zn  Zn155  1  0.00000000  0.13900300  0.72100500  1
  Zn  Zn156  1  0.50000000  0.47673100  0.76709000  1
  Zn  Zn157  1  0.75265100  0.40192100  0.73017300  1
  Zn  Zn158  1  0.74714400  0.26160700  0.65783800  1
  Zn  Zn159  1  0.50000000  0.37322500  0.66835400  1
  Zn  Zn160  1  0.50000000  0.37522800  0.77888000  1
  Zn  Zn161  1  0.24714400  0.06841300  0.68740000  1
  Zn  Zn162  1  0.25285600  0.26160700  0.65783800  1
  Zn  Zn163  1  0.75285600  0.06841300  0.68740000  1
  Zn  Zn164  1  0.25265100  0.21381200  0.75792300  1
  Zn  Zn165  1  0.50000000  0.29840300  0.71925500  1
  Zn  Zn166  1  0.24734900  0.40192100  0.73017300  1
  Zn  Zn167  1  0.74734900  0.21381200  0.75792300  1
  Zn  Zn168  1  0.50000000  0.48643800  0.70833300  1
  Zn  Zn169  1  1.00000000  0.33794200  0.69389000  1
  Zn  Zn170  1  0.50000000  0.99207700  0.65134800  1
  Zn  Zn171  1  1.00000000  0.24050500  0.70921500  1
