# generated using pymatgen
data_Dy21Mg8
_symmetry_space_group_name_H-M   'P 1'
_cell_length_a   3.55906300
_cell_length_b   10.01189404
_cell_length_c   43.39335100
_cell_angle_alpha   85.27249872
_cell_angle_beta   90.00000000
_cell_angle_gamma   90.00000000
_symmetry_Int_Tables_number   1
_chemical_formula_structural   Dy21Mg8
_chemical_formula_sum   'Dy21 Mg8'
_cell_volume   1540.97323574
_cell_formula_units_Z   1
loop_
 _symmetry_equiv_pos_site_id
 _symmetry_equiv_pos_as_xyz
  1  'x, y, z'
loop_
 _atom_site_type_symbol
 _atom_site_label
 _atom_site_symmetry_multiplicity
 _atom_site_fract_x
 _atom_site_fract_y
 _atom_site_fract_z
 _atom_site_occupancy
  Dy  Dy0  1  0.50000000  0.58764300  0.27973900  1
  Dy  Dy1  1  0.00000000  0.28935500  0.29807700  1
  Dy  Dy2  1  0.50000000  0.99106700  0.31641400  1
  Dy  Dy3  1  0.50000000  0.43379700  0.35666300  1
  Dy  Dy4  1  0.00000000  0.13550900  0.37500000  1
  Dy  Dy5  1  0.50000000  0.83722000  0.39333700  1
  Dy  Dy6  1  0.50000000  0.27995100  0.43358600  1
  Dy  Dy7  1  1.00000000  0.98166300  0.45192300  1
  Dy  Dy8  1  0.50000000  0.68337400  0.47026100  1
  Dy  Dy9  1  0.50000000  0.12610500  0.51050900  1
  Dy  Dy10  1  1.00000000  0.82781600  0.52884600  1
  Dy  Dy11  1  0.50000000  0.52952800  0.54718400  1
  Dy  Dy12  1  0.50000000  0.97225900  0.58743200  1
  Dy  Dy13  1  0.00000000  0.67397000  0.60576900  1
  Dy  Dy14  1  0.50000000  0.37568200  0.62410700  1
  Dy  Dy15  1  0.50000000  0.81841200  0.66435500  1
  Dy  Dy16  1  0.00000000  0.52012400  0.68269200  1
  Dy  Dy17  1  0.50000000  0.22183600  0.70103000  1
  Dy  Dy18  1  0.50000000  0.66456600  0.74127800  1
  Dy  Dy19  1  1.00000000  0.36627800  0.75961500  1
  Dy  Dy20  1  0.50000000  0.06799000  0.77795300  1
  Mg  Mg21  1  1.00000000  0.86627800  0.25961500  1
  Mg  Mg22  1  0.00000000  0.71243200  0.33653800  1
  Mg  Mg23  1  0.00000000  0.55858600  0.41346200  1
  Mg  Mg24  1  1.00000000  0.40473900  0.49038500  1
  Mg  Mg25  1  0.00000000  0.25089300  0.56730800  1
  Mg  Mg26  1  1.00000000  0.09704700  0.64423100  1
  Mg  Mg27  1  0.00000000  0.94320100  0.72115400  1
  Mg  Mg28  1  0.00000000  0.78935500  0.79807700  1
