# generated using pymatgen
data_Pr11Mg140
_symmetry_space_group_name_H-M   'P 1'
_cell_length_a   11.89036443
_cell_length_b   11.89036505
_cell_length_c   46.00650700
_cell_angle_alpha   89.87692136
_cell_angle_beta   90.12307864
_cell_angle_gamma   104.41604234
_symmetry_Int_Tables_number   1
_chemical_formula_structural   Pr11Mg140
_chemical_formula_sum   'Pr11 Mg140'
_cell_volume   6299.61031861
_cell_formula_units_Z   1
loop_
 _symmetry_equiv_pos_site_id
 _symmetry_equiv_pos_as_xyz
  1  'x, y, z'
loop_
 _atom_site_type_symbol
 _atom_site_label
 _atom_site_symmetry_multiplicity
 _atom_site_fract_x
 _atom_site_fract_y
 _atom_site_fract_z
 _atom_site_occupancy
  Pr  Pr0  1  0.16391500  0.83608500  0.29038500  1
  Pr  Pr1  1  0.56391500  0.43608500  0.24038500  1
  Pr  Pr2  1  0.36391500  0.63608500  0.39038500  1
  Pr  Pr3  1  0.76391500  0.23608500  0.34038500  1
  Pr  Pr4  1  0.56391500  0.43608500  0.49038500  1
  Pr  Pr5  1  0.96391500  0.03608500  0.44038500  1
  Pr  Pr6  1  0.76391500  0.23608500  0.59038500  1
  Pr  Pr7  1  0.16391500  0.83608500  0.54038500  1
  Pr  Pr8  1  0.96391500  0.03608500  0.69038500  1
  Pr  Pr9  1  0.36391500  0.63608500  0.64038500  1
  Pr  Pr10  1  0.56391500  0.43608500  0.74038500  1
  Mg  Mg11  1  0.26391500  0.23608500  0.21538500  1
  Mg  Mg12  1  0.86391500  0.13608500  0.26538500  1
  Mg  Mg13  1  0.76391500  0.23608500  0.21538500  1
  Mg  Mg14  1  0.36391500  0.13608500  0.26538500  1
  Mg  Mg15  1  0.04571500  0.30653500  0.30516000  1
  Mg  Mg16  1  0.03436500  0.31788500  0.22561000  1
  Mg  Mg17  1  0.09346500  0.55428500  0.25516000  1
  Mg  Mg18  1  0.28211500  0.36563500  0.27561000  1
  Mg  Mg19  1  0.29343500  0.49346500  0.21169500  1
  Mg  Mg20  1  0.02129500  0.76560500  0.21907500  1
  Mg  Mg21  1  0.10653500  0.10656500  0.26169500  1
  Mg  Mg22  1  0.83439500  0.37870500  0.26907500  1
  Mg  Mg23  1  0.86391500  0.63608500  0.26538500  1
  Mg  Mg24  1  0.26391500  0.73608500  0.21538500  1
  Mg  Mg25  1  0.36391500  0.63608500  0.26538500  1
  Mg  Mg26  1  0.76391500  0.73608500  0.21538500  1
  Mg  Mg27  1  0.44571500  0.90653500  0.25516000  1
  Mg  Mg28  1  0.63436500  0.71788500  0.27561000  1
  Mg  Mg29  1  0.69346500  0.95428500  0.30516000  1
  Mg  Mg30  1  0.68211500  0.96563500  0.22561000  1
  Mg  Mg31  1  0.89343500  0.89346500  0.26169500  1
  Mg  Mg32  1  0.62129500  0.16560500  0.26907500  1
  Mg  Mg33  1  0.50653500  0.70656500  0.21169500  1
  Mg  Mg34  1  0.23439500  0.97870500  0.21907500  1
  Mg  Mg35  1  0.46391500  0.03608500  0.31538500  1
  Mg  Mg36  1  0.06391500  0.93608500  0.36538500  1
  Mg  Mg37  1  0.96391500  0.03608500  0.31538500  1
  Mg  Mg38  1  0.56391500  0.93608500  0.36538500  1
  Mg  Mg39  1  0.24571500  0.10653500  0.40516000  1
  Mg  Mg40  1  0.23436500  0.11788500  0.32561000  1
  Mg  Mg41  1  0.29346500  0.35428500  0.35516000  1
  Mg  Mg42  1  0.48211500  0.16563500  0.37561000  1
  Mg  Mg43  1  0.49343500  0.29346500  0.31169500  1
  Mg  Mg44  1  0.22129500  0.56560500  0.31907500  1
  Mg  Mg45  1  0.30653500  0.90656500  0.36169500  1
  Mg  Mg46  1  0.03439500  0.17870500  0.36907500  1
  Mg  Mg47  1  0.06391500  0.43608500  0.36538500  1
  Mg  Mg48  1  0.46391500  0.53608500  0.31538500  1
  Mg  Mg49  1  0.56391500  0.43608500  0.36538500  1
  Mg  Mg50  1  0.96391500  0.53608500  0.31538500  1
  Mg  Mg51  1  0.64571500  0.70653500  0.35516000  1
  Mg  Mg52  1  0.83436500  0.51788500  0.37561000  1
  Mg  Mg53  1  0.89346500  0.75428500  0.40516000  1
  Mg  Mg54  1  0.88211500  0.76563500  0.32561000  1
  Mg  Mg55  1  0.09343500  0.69346500  0.36169500  1
  Mg  Mg56  1  0.82129500  0.96560500  0.36907500  1
  Mg  Mg57  1  0.70653500  0.50656500  0.31169500  1
  Mg  Mg58  1  0.43439500  0.77870500  0.31907500  1
  Mg  Mg59  1  0.66391500  0.83608500  0.41538500  1
  Mg  Mg60  1  0.26391500  0.73608500  0.46538500  1
  Mg  Mg61  1  0.16391500  0.83608500  0.41538500  1
  Mg  Mg62  1  0.76391500  0.73608500  0.46538500  1
  Mg  Mg63  1  0.44571500  0.90653500  0.50516000  1
  Mg  Mg64  1  0.43436500  0.91788500  0.42561000  1
  Mg  Mg65  1  0.49346500  0.15428500  0.45516000  1
  Mg  Mg66  1  0.68211500  0.96563500  0.47561000  1
  Mg  Mg67  1  0.69343500  0.09346500  0.41169500  1
  Mg  Mg68  1  0.42129500  0.36560500  0.41907500  1
  Mg  Mg69  1  0.50653500  0.70656500  0.46169500  1
  Mg  Mg70  1  0.23439500  0.97870500  0.46907500  1
  Mg  Mg71  1  0.26391500  0.23608500  0.46538500  1
  Mg  Mg72  1  0.66391500  0.33608500  0.41538500  1
  Mg  Mg73  1  0.76391500  0.23608500  0.46538500  1
  Mg  Mg74  1  0.16391500  0.33608500  0.41538500  1
  Mg  Mg75  1  0.84571500  0.50653500  0.45516000  1
  Mg  Mg76  1  0.03436500  0.31788500  0.47561000  1
  Mg  Mg77  1  0.09346500  0.55428500  0.50516000  1
  Mg  Mg78  1  0.08211500  0.56563500  0.42561000  1
  Mg  Mg79  1  0.29343500  0.49346500  0.46169500  1
  Mg  Mg80  1  0.02129500  0.76560500  0.46907500  1
  Mg  Mg81  1  0.90653500  0.30656500  0.41169500  1
  Mg  Mg82  1  0.63439500  0.57870500  0.41907500  1
  Mg  Mg83  1  0.86391500  0.63608500  0.51538500  1
  Mg  Mg84  1  0.46391500  0.53608500  0.56538500  1
  Mg  Mg85  1  0.36391500  0.63608500  0.51538500  1
  Mg  Mg86  1  0.96391500  0.53608500  0.56538500  1
  Mg  Mg87  1  0.64571500  0.70653500  0.60516000  1
  Mg  Mg88  1  0.63436500  0.71788500  0.52561000  1
  Mg  Mg89  1  0.69346500  0.95428500  0.55516000  1
  Mg  Mg90  1  0.88211500  0.76563500  0.57561000  1
  Mg  Mg91  1  0.89343500  0.89346500  0.51169500  1
  Mg  Mg92  1  0.62129500  0.16560500  0.51907500  1
  Mg  Mg93  1  0.70653500  0.50656500  0.56169500  1
  Mg  Mg94  1  0.43439500  0.77870500  0.56907500  1
  Mg  Mg95  1  0.46391500  0.03608500  0.56538500  1
  Mg  Mg96  1  0.86391500  0.13608500  0.51538500  1
  Mg  Mg97  1  0.96391500  0.03608500  0.56538500  1
  Mg  Mg98  1  0.36391500  0.13608500  0.51538500  1
  Mg  Mg99  1  0.04571500  0.30653500  0.55516000  1
  Mg  Mg100  1  0.23436500  0.11788500  0.57561000  1
  Mg  Mg101  1  0.29346500  0.35428500  0.60516000  1
  Mg  Mg102  1  0.28211500  0.36563500  0.52561000  1
  Mg  Mg103  1  0.49343500  0.29346500  0.56169500  1
  Mg  Mg104  1  0.22129500  0.56560500  0.56907500  1
  Mg  Mg105  1  0.10653500  0.10656500  0.51169500  1
  Mg  Mg106  1  0.83439500  0.37870500  0.51907500  1
  Mg  Mg107  1  0.06391500  0.43608500  0.61538500  1
  Mg  Mg108  1  0.66391500  0.33608500  0.66538500  1
  Mg  Mg109  1  0.56391500  0.43608500  0.61538500  1
  Mg  Mg110  1  0.16391500  0.33608500  0.66538500  1
  Mg  Mg111  1  0.84571500  0.50653500  0.70516000  1
  Mg  Mg112  1  0.83436500  0.51788500  0.62561000  1
  Mg  Mg113  1  0.89346500  0.75428500  0.65516000  1
  Mg  Mg114  1  0.08211500  0.56563500  0.67561000  1
  Mg  Mg115  1  0.09343500  0.69346500  0.61169500  1
  Mg  Mg116  1  0.82129500  0.96560500  0.61907500  1
  Mg  Mg117  1  0.90653500  0.30656500  0.66169500  1
  Mg  Mg118  1  0.63439500  0.57870500  0.66907500  1
  Mg  Mg119  1  0.66391500  0.83608500  0.66538500  1
  Mg  Mg120  1  0.06391500  0.93608500  0.61538500  1
  Mg  Mg121  1  0.16391500  0.83608500  0.66538500  1
  Mg  Mg122  1  0.56391500  0.93608500  0.61538500  1
  Mg  Mg123  1  0.24571500  0.10653500  0.65516000  1
  Mg  Mg124  1  0.43436500  0.91788500  0.67561000  1
  Mg  Mg125  1  0.49346500  0.15428500  0.70516000  1
  Mg  Mg126  1  0.48211500  0.16563500  0.62561000  1
  Mg  Mg127  1  0.69343500  0.09346500  0.66169500  1
  Mg  Mg128  1  0.42129500  0.36560500  0.66907500  1
  Mg  Mg129  1  0.30653500  0.90656500  0.61169500  1
  Mg  Mg130  1  0.03439500  0.17870500  0.61907500  1
  Mg  Mg131  1  0.26391500  0.23608500  0.71538500  1
  Mg  Mg132  1  0.86391500  0.13608500  0.76538500  1
  Mg  Mg133  1  0.76391500  0.23608500  0.71538500  1
  Mg  Mg134  1  0.36391500  0.13608500  0.76538500  1
  Mg  Mg135  1  0.03436500  0.31788500  0.72561000  1
  Mg  Mg136  1  0.09346500  0.55428500  0.75516000  1
  Mg  Mg137  1  0.29343500  0.49346500  0.71169500  1
  Mg  Mg138  1  0.02129500  0.76560500  0.71907500  1
  Mg  Mg139  1  0.10653500  0.10656500  0.76169500  1
  Mg  Mg140  1  0.83439500  0.37870500  0.76907500  1
  Mg  Mg141  1  0.86391500  0.63608500  0.76538500  1
  Mg  Mg142  1  0.26391500  0.73608500  0.71538500  1
  Mg  Mg143  1  0.36391500  0.63608500  0.76538500  1
  Mg  Mg144  1  0.76391500  0.73608500  0.71538500  1
  Mg  Mg145  1  0.44571500  0.90653500  0.75516000  1
  Mg  Mg146  1  0.68211500  0.96563500  0.72561000  1
  Mg  Mg147  1  0.89343500  0.89346500  0.76169500  1
  Mg  Mg148  1  0.62129500  0.16560500  0.76907500  1
  Mg  Mg149  1  0.50653500  0.70656500  0.71169500  1
  Mg  Mg150  1  0.23439500  0.97870500  0.71907500  1
