# generated using pymatgen
data_Pr2Mg
_symmetry_space_group_name_H-M   'P 1'
_cell_length_a   6.91212396
_cell_length_b   8.96230632
_cell_length_c   41.02294500
_cell_angle_alpha   87.97771942
_cell_angle_beta   89.18576045
_cell_angle_gamma   83.06188699
_symmetry_Int_Tables_number   1
_chemical_formula_structural   Pr2Mg
_chemical_formula_sum   'Pr32 Mg16'
_cell_volume   2521.00542010
_cell_formula_units_Z   16
loop_
 _symmetry_equiv_pos_site_id
 _symmetry_equiv_pos_as_xyz
  1  'x, y, z'
loop_
 _atom_site_type_symbol
 _atom_site_label
 _atom_site_symmetry_multiplicity
 _atom_site_fract_x
 _atom_site_fract_y
 _atom_site_fract_z
 _atom_site_occupancy
  Pr  Pr0  1  0.80044400  0.37703500  0.79508100  1
  Pr  Pr1  1  0.89893600  0.76145600  0.77045800  1
  Pr  Pr2  1  0.50724900  0.08450300  0.74338000  1
  Pr  Pr3  1  0.40875600  0.70008300  0.76800300  1
  Pr  Pr4  1  0.10813600  0.45395800  0.71815800  1
  Pr  Pr5  1  0.20662900  0.83837900  0.69353500  1
  Pr  Pr6  1  0.81494100  0.16142700  0.66645700  1
  Pr  Pr7  1  0.71644800  0.77700600  0.69108000  1
  Pr  Pr8  1  0.41582800  0.53088100  0.64123500  1
  Pr  Pr9  1  0.51432100  0.91530200  0.61661200  1
  Pr  Pr10  1  0.12263300  0.23835000  0.58953400  1
  Pr  Pr11  1  0.02414100  0.85392900  0.61415700  1
  Pr  Pr12  1  0.72352100  0.60780400  0.56431200  1
  Pr  Pr13  1  0.82201300  0.99222500  0.53968900  1
  Pr  Pr14  1  0.43032600  0.31527300  0.51261100  1
  Pr  Pr15  1  0.33183300  0.93085200  0.53723400  1
  Pr  Pr16  1  0.03121300  0.68472700  0.48738900  1
  Pr  Pr17  1  0.12970600  0.06914800  0.46276600  1
  Pr  Pr18  1  0.73801800  0.39219600  0.43568800  1
  Pr  Pr19  1  0.63952500  0.00777500  0.46031100  1
  Pr  Pr20  1  0.33890500  0.76165000  0.41046600  1
  Pr  Pr21  1  0.43739800  0.14607100  0.38584300  1
  Pr  Pr22  1  0.04571000  0.46911900  0.35876500  1
  Pr  Pr23  1  0.94721800  0.08469800  0.38338800  1
  Pr  Pr24  1  0.64659700  0.83857300  0.33354300  1
  Pr  Pr25  1  0.74509000  0.22299400  0.30892000  1
  Pr  Pr26  1  0.35340300  0.54604200  0.28184200  1
  Pr  Pr27  1  0.25491000  0.16162100  0.30646500  1
  Pr  Pr28  1  0.95429000  0.91549700  0.25662000  1
  Pr  Pr29  1  0.05278200  0.29991700  0.23199700  1
  Pr  Pr30  1  0.66109500  0.62296500  0.20491900  1
  Pr  Pr31  1  0.56260200  0.23854400  0.22954200  1
  Mg  Mg32  1  0.00287400  0.11184600  0.74447400  1
  Mg  Mg33  1  0.30481800  0.34969300  0.79398800  1
  Mg  Mg34  1  0.31056600  0.18876900  0.66755100  1
  Mg  Mg35  1  0.61251100  0.42661600  0.71706500  1
  Mg  Mg36  1  0.61825900  0.26569200  0.59062800  1
  Mg  Mg37  1  0.92020300  0.50353900  0.64014200  1
  Mg  Mg38  1  0.92595100  0.34261500  0.51370500  1
  Mg  Mg39  1  0.22789500  0.58046200  0.56321800  1
  Mg  Mg40  1  0.23364300  0.41953800  0.43678200  1
  Mg  Mg41  1  0.53558800  0.65738500  0.48629500  1
  Mg  Mg42  1  0.54133500  0.49646100  0.35985800  1
  Mg  Mg43  1  0.84328000  0.73430800  0.40937200  1
  Mg  Mg44  1  0.84902800  0.57338400  0.28293500  1
  Mg  Mg45  1  0.15097200  0.81123100  0.33244900  1
  Mg  Mg46  1  0.15672000  0.65030700  0.20601200  1
  Mg  Mg47  1  0.45866500  0.88815400  0.25552600  1
