# generated using pymatgen
data_La2Mg
_symmetry_space_group_name_H-M   'P 1'
_cell_length_a   6.71963240
_cell_length_b   8.84034394
_cell_length_c   46.18455600
_cell_angle_alpha   91.59015848
_cell_angle_beta   92.03823334
_cell_angle_gamma   110.84168335
_symmetry_Int_Tables_number   1
_chemical_formula_structural   La2Mg
_chemical_formula_sum   'La32 Mg16'
_cell_volume   2560.00205237
_cell_formula_units_Z   16
loop_
 _symmetry_equiv_pos_site_id
 _symmetry_equiv_pos_as_xyz
  1  'x, y, z'
loop_
 _atom_site_type_symbol
 _atom_site_label
 _atom_site_symmetry_multiplicity
 _atom_site_fract_x
 _atom_site_fract_y
 _atom_site_fract_z
 _atom_site_occupancy
  La  La0  1  0.63965900  0.49360100  0.77557600  1
  La  La1  1  0.20649500  0.66024500  0.76288500  1
  La  La2  1  0.25260100  0.06163800  0.73657500  1
  La  La3  1  0.59355300  0.09220800  0.80188600  1
  La  La4  1  0.87042900  0.64744700  0.69865300  1
  La  La5  1  0.43726400  0.81409100  0.68596200  1
  La  La6  1  0.48337000  0.21548400  0.65965200  1
  La  La7  1  0.82432200  0.24605400  0.72496300  1
  La  La8  1  0.10119800  0.80129300  0.62173000  1
  La  La9  1  0.66803300  0.96793700  0.60903900  1
  La  La10  1  0.71413900  0.36933100  0.58272900  1
  La  La11  1  0.05509200  0.39990000  0.64804000  1
  La  La12  1  0.33196700  0.95514000  0.54480700  1
  La  La13  1  0.89880200  0.12178400  0.53211600  1
  La  La14  1  0.94490800  0.52317700  0.50580600  1
  La  La15  1  0.28586100  0.55374600  0.57111700  1
  La  La16  1  0.56273600  0.10898600  0.46788400  1
  La  La17  1  0.12957100  0.27563000  0.45519300  1
  La  La18  1  0.17567800  0.67702300  0.42888300  1
  La  La19  1  0.51663000  0.70759300  0.49419400  1
  La  La20  1  0.79350500  0.26283200  0.39096100  1
  La  La21  1  0.36034100  0.42947600  0.37827000  1
  La  La22  1  0.40644700  0.83086900  0.35196000  1
  La  La23  1  0.74739900  0.86143900  0.41727100  1
  La  La24  1  0.02427500  0.41667800  0.31403800  1
  La  La25  1  0.59111000  0.58332200  0.30134700  1
  La  La26  1  0.63721600  0.98471500  0.27503700  1
  La  La27  1  0.97816800  0.01528500  0.34034800  1
  La  La28  1  0.25504400  0.57052400  0.23711500  1
  La  La29  1  0.82187900  0.73716800  0.22442400  1
  La  La30  1  0.86798500  0.13856100  0.19811400  1
  La  La31  1  0.20893800  0.16913100  0.26342500  1
  Mg  Mg32  1  0.11918500  0.28534100  0.78849400  1
  Mg  Mg33  1  0.72696900  0.86850500  0.74996800  1
  Mg  Mg34  1  0.34995400  0.43918700  0.71157100  1
  Mg  Mg35  1  0.95773800  0.02235100  0.67304500  1
  Mg  Mg36  1  0.58072400  0.59303400  0.63464800  1
  Mg  Mg37  1  0.18850700  0.17619700  0.59612100  1
  Mg  Mg38  1  0.81149300  0.74688000  0.55772500  1
  Mg  Mg39  1  0.41927600  0.33004300  0.51919800  1
  Mg  Mg40  1  0.04226200  0.90072600  0.48080200  1
  Mg  Mg41  1  0.65004600  0.48388900  0.44227500  1
  Mg  Mg42  1  0.27303100  0.05457200  0.40387900  1
  Mg  Mg43  1  0.88081500  0.63773600  0.36535200  1
  Mg  Mg44  1  0.50380000  0.20841800  0.32695500  1
  Mg  Mg45  1  0.11158400  0.79158200  0.28842900  1
  Mg  Mg46  1  0.73457000  0.36226400  0.25003200  1
  Mg  Mg47  1  0.34235300  0.94542800  0.21150600  1
