# generated using pymatgen
data_Mg14Al13
_symmetry_space_group_name_H-M   'P 1'
_cell_length_a   4.16461200
_cell_length_b   5.32341011
_cell_length_c   41.46722100
_cell_angle_alpha   89.83938377
_cell_angle_beta   90.00000000
_cell_angle_gamma   66.97329218
_symmetry_Int_Tables_number   1
_chemical_formula_structural   Mg14Al13
_chemical_formula_sum   'Mg14 Al13'
_cell_volume   846.07231263
_cell_formula_units_Z   1
loop_
 _symmetry_equiv_pos_site_id
 _symmetry_equiv_pos_as_xyz
  1  'x, y, z'
loop_
 _atom_site_type_symbol
 _atom_site_label
 _atom_site_symmetry_multiplicity
 _atom_site_fract_x
 _atom_site_fract_y
 _atom_site_fract_z
 _atom_site_occupancy
  Mg  Mg0  1  0.39772700  0.45454500  0.19318200  1
  Mg  Mg1  1  0.98863600  0.27272700  0.23863600  1
  Mg  Mg2  1  0.57954500  0.09090900  0.28409100  1
  Mg  Mg3  1  0.17045500  0.90909100  0.32954500  1
  Mg  Mg4  1  0.76136400  0.72727300  0.37500000  1
  Mg  Mg5  1  0.35227300  0.54545500  0.42045500  1
  Mg  Mg6  1  0.94318200  0.36363600  0.46590900  1
  Mg  Mg7  1  0.53409100  0.18181800  0.51136400  1
  Mg  Mg8  1  0.12500000  0.00000000  0.55681800  1
  Mg  Mg9  1  0.71590900  0.81818200  0.60227300  1
  Mg  Mg10  1  0.30681800  0.63636400  0.64772700  1
  Mg  Mg11  1  0.89772700  0.45454500  0.69318200  1
  Mg  Mg12  1  0.48863600  0.27272700  0.73863600  1
  Mg  Mg13  1  0.07954500  0.09090900  0.78409100  1
  Al  Al14  1  0.69318200  0.86363600  0.21590900  1
  Al  Al15  1  0.28409100  0.68181800  0.26136400  1
  Al  Al16  1  0.87500000  0.50000000  0.30681800  1
  Al  Al17  1  0.46590900  0.31818200  0.35227300  1
  Al  Al18  1  0.05681800  0.13636400  0.39772700  1
  Al  Al19  1  0.64772700  0.95454500  0.44318200  1
  Al  Al20  1  0.23863600  0.77272700  0.48863600  1
  Al  Al21  1  0.82954500  0.59090900  0.53409100  1
  Al  Al22  1  0.42045500  0.40909100  0.57954500  1
  Al  Al23  1  0.01136400  0.22727300  0.62500000  1
  Al  Al24  1  0.60227300  0.04545500  0.67045500  1
  Al  Al25  1  0.19318200  0.86363600  0.71590900  1
  Al  Al26  1  0.78409100  0.68181800  0.76136400  1
