# generated using pymatgen
data_Mg54Ni103
_symmetry_space_group_name_H-M   'P 1'
_cell_length_a   4.81848500
_cell_length_b   16.44013798
_cell_length_c   44.59142500
_cell_angle_alpha   84.29083893
_cell_angle_beta   90.00000000
_cell_angle_gamma   81.57316207
_symmetry_Int_Tables_number   1
_chemical_formula_structural   Mg54Ni103
_chemical_formula_sum   'Mg54 Ni103'
_cell_volume   3476.52899218
_cell_formula_units_Z   1
loop_
 _symmetry_equiv_pos_site_id
 _symmetry_equiv_pos_as_xyz
  1  'x, y, z'
loop_
 _atom_site_type_symbol
 _atom_site_label
 _atom_site_symmetry_multiplicity
 _atom_site_fract_x
 _atom_site_fract_y
 _atom_site_fract_z
 _atom_site_occupancy
  Mg  Mg0  1  0.74821200  0.85666700  0.23965400  1
  Mg  Mg1  1  0.66368900  0.02571300  0.25655800  1
  Mg  Mg2  1  0.11991300  0.11326500  0.23198000  1
  Mg  Mg3  1  0.29198800  0.76911500  0.26423200  1
  Mg  Mg4  1  0.37748900  0.59811400  0.24713200  1
  Mg  Mg5  1  0.03441200  0.28426700  0.24908000  1
  Mg  Mg6  1  0.29366700  0.76575800  0.33056300  1
  Mg  Mg7  1  0.20914300  0.93480400  0.34746700  1
  Mg  Mg8  1  0.52093900  0.31121200  0.28510800  1
  Mg  Mg9  1  0.43641600  0.48025900  0.30201300  1
  Mg  Mg10  1  0.66536700  0.02235600  0.32288900  1
  Mg  Mg11  1  0.83744300  0.67820600  0.35514100  1
  Mg  Mg12  1  0.92294300  0.50720500  0.33804100  1
  Mg  Mg13  1  0.57986700  0.19335700  0.33998900  1
  Mg  Mg14  1  0.83912100  0.67484900  0.42147200  1
  Mg  Mg15  1  0.75459800  0.84389500  0.43837700  1
  Mg  Mg16  1  0.06639400  0.22030300  0.37601700  1
  Mg  Mg17  1  0.98187100  0.38935000  0.39292200  1
  Mg  Mg18  1  0.21082200  0.93144700  0.41379800  1
  Mg  Mg19  1  0.38289700  0.58729700  0.44605000  1
  Mg  Mg20  1  0.46839800  0.41629500  0.42895000  1
  Mg  Mg21  1  0.12532100  0.10244800  0.43089900  1
  Mg  Mg22  1  0.38457600  0.58393900  0.51238100  1
  Mg  Mg23  1  0.30005200  0.75298600  0.52928600  1
  Mg  Mg24  1  0.61184800  0.12939400  0.46692600  1
  Mg  Mg25  1  0.52732500  0.29844100  0.48383100  1
  Mg  Mg26  1  0.75627700  0.84053800  0.50470800  1
  Mg  Mg27  1  0.92835200  0.49638800  0.53695900  1
  Mg  Mg28  1  0.01385200  0.32538600  0.51985900  1
  Mg  Mg29  1  0.67077600  0.01153900  0.52180800  1
  Mg  Mg30  1  0.93003000  0.49303000  0.60329000  1
  Mg  Mg31  1  0.84550700  0.66207700  0.62019500  1
  Mg  Mg32  1  0.15730300  0.03848500  0.55783600  1
  Mg  Mg33  1  0.07278000  0.20753200  0.57474000  1
  Mg  Mg34  1  0.30173100  0.74962900  0.59561700  1
  Mg  Mg35  1  0.47380600  0.40547900  0.62786800  1
  Mg  Mg36  1  0.55930700  0.23447700  0.61076800  1
  Mg  Mg37  1  0.21623000  0.92063000  0.61271700  1
  Mg  Mg38  1  0.47548500  0.40212100  0.69419900  1
  Mg  Mg39  1  0.39096200  0.57116800  0.71110400  1
  Mg  Mg40  1  0.70275800  0.94757600  0.64874500  1
  Mg  Mg41  1  0.61823400  0.11662300  0.66564900  1
  Mg  Mg42  1  0.84718600  0.65872000  0.68652600  1
  Mg  Mg43  1  0.01926100  0.31457000  0.71877700  1
  Mg  Mg44  1  0.10476100  0.14356800  0.70167700  1
  Mg  Mg45  1  0.76168500  0.82972100  0.70362600  1
  Mg  Mg46  1  0.02093900  0.31121200  0.78510800  1
  Mg  Mg47  1  0.93641600  0.48025900  0.80201300  1
  Mg  Mg48  1  0.24821200  0.85666700  0.73965400  1
  Mg  Mg49  1  0.16368900  0.02571300  0.75655800  1
  Mg  Mg50  1  0.39264000  0.56781100  0.77743500  1
  Mg  Mg51  1  0.56471500  0.22366100  0.80968600  1
  Mg  Mg52  1  0.65021600  0.05265900  0.79258600  1
  Mg  Mg53  1  0.30713900  0.73881200  0.79453500  1
  Ni  Ni54  1  0.50520500  0.34268200  0.22158900  1
  Ni  Ni55  1  0.90669600  0.53969800  0.27462400  1
  Ni  Ni56  1  0.20595000  0.94119000  0.24810600  1
  Ni  Ni57  1  0.70595000  0.44119000  0.24810600  1
  Ni  Ni58  1  0.20595000  0.44119000  0.24810600  1
  Ni  Ni59  1  0.83454000  0.68401000  0.25528600  1
  Ni  Ni60  1  0.57736000  0.19837000  0.24092600  1
  Ni  Ni61  1  0.79308300  0.76692400  0.29734600  1
  Ni  Ni62  1  0.16427200  0.02454700  0.28977500  1
  Ni  Ni63  1  0.05065900  0.25177300  0.31249800  1
  Ni  Ni64  1  0.45215100  0.44878900  0.36553300  1
  Ni  Ni65  1  0.47867800  0.89573600  0.29356100  1
  Ni  Ni66  1  0.75140500  0.85028100  0.33901500  1
  Ni  Ni67  1  0.97867800  0.89573600  0.29356100  1
  Ni  Ni68  1  0.25140500  0.35028100  0.33901500  1
  Ni  Ni69  1  0.97867800  0.39573600  0.29356100  1
  Ni  Ni70  1  0.75140500  0.35028100  0.33901500  1
  Ni  Ni71  1  0.11083000  0.63796200  0.30133400  1
  Ni  Ni72  1  0.37999500  0.59310100  0.34619500  1
  Ni  Ni73  1  0.60429900  0.63796200  0.30133400  1
  Ni  Ni74  1  0.84652500  0.15350900  0.28578700  1
  Ni  Ni75  1  0.12281500  0.10746100  0.33183500  1
  Ni  Ni76  1  0.35305700  0.15350900  0.28578700  1
  Ni  Ni77  1  0.33853800  0.67601500  0.38825500  1
  Ni  Ni78  1  0.70972700  0.93363800  0.38068400  1
  Ni  Ni79  1  0.59611400  0.16086400  0.40340700  1
  Ni  Ni80  1  0.99760500  0.35788000  0.45644200  1
  Ni  Ni81  1  0.02413200  0.80482600  0.38447000  1
  Ni  Ni82  1  0.29686000  0.75937200  0.42992400  1
  Ni  Ni83  1  0.52413200  0.80482600  0.38447000  1
  Ni  Ni84  1  0.79686000  0.25937200  0.42992400  1
  Ni  Ni85  1  0.52413200  0.30482600  0.38447000  1
  Ni  Ni86  1  0.29686000  0.25937200  0.42992400  1
  Ni  Ni87  1  0.65628500  0.54705300  0.39224300  1
  Ni  Ni88  1  0.92544900  0.50219200  0.43710400  1
  Ni  Ni89  1  0.14975300  0.54705300  0.39224300  1
  Ni  Ni90  1  0.39198000  0.06260000  0.37669600  1
  Ni  Ni91  1  0.66827000  0.01655200  0.42274400  1
  Ni  Ni92  1  0.89851100  0.06260000  0.37669600  1
  Ni  Ni93  1  0.88399200  0.58510600  0.47916400  1
  Ni  Ni94  1  0.25518100  0.84272900  0.47159300  1
  Ni  Ni95  1  0.14156800  0.06995500  0.49431600  1
  Ni  Ni96  1  0.54306000  0.26697100  0.54735100  1
  Ni  Ni97  1  0.56958700  0.71391700  0.47537900  1
  Ni  Ni98  1  0.84231400  0.66846300  0.52083300  1
  Ni  Ni99  1  0.06958700  0.71391700  0.47537900  1
  Ni  Ni100  1  0.34231400  0.16846300  0.52083300  1
  Ni  Ni101  1  0.06958700  0.21391700  0.47537900  1
  Ni  Ni102  1  0.84231400  0.16846300  0.52083300  1
  Ni  Ni103  1  0.20173900  0.45614400  0.48315200  1
  Ni  Ni104  1  0.47090400  0.41128300  0.52801300  1
  Ni  Ni105  1  0.69520800  0.45614400  0.48315200  1
  Ni  Ni106  1  0.93743400  0.97169100  0.46760500  1
  Ni  Ni107  1  0.21372400  0.92564300  0.51365300  1
  Ni  Ni108  1  0.44396600  0.97169100  0.46760500  1
  Ni  Ni109  1  0.42944700  0.49419700  0.57007300  1
  Ni  Ni110  1  0.80063600  0.75182000  0.56250200  1
  Ni  Ni111  1  0.68702300  0.97904500  0.58522500  1
  Ni  Ni112  1  0.08851400  0.17606200  0.63826000  1
  Ni  Ni113  1  0.11504100  0.62300800  0.56628800  1
  Ni  Ni114  1  0.38776900  0.57755400  0.61174200  1
  Ni  Ni115  1  0.61504100  0.62300800  0.56628800  1
  Ni  Ni116  1  0.88776900  0.07755400  0.61174200  1
  Ni  Ni117  1  0.61504100  0.12300800  0.56628800  1
  Ni  Ni118  1  0.38776900  0.07755400  0.61174200  1
  Ni  Ni119  1  0.74719400  0.36523500  0.57406200  1
  Ni  Ni120  1  0.01635900  0.32037400  0.61892200  1
  Ni  Ni121  1  0.24066300  0.36523500  0.57406200  1
  Ni  Ni122  1  0.48288900  0.88078200  0.55851400  1
  Ni  Ni123  1  0.75917900  0.83473400  0.60456300  1
  Ni  Ni124  1  0.98942000  0.88078200  0.55851400  1
  Ni  Ni125  1  0.97490200  0.40328800  0.66098300  1
  Ni  Ni126  1  0.34609000  0.66091000  0.65341100  1
  Ni  Ni127  1  0.23247700  0.88813600  0.67613400  1
  Ni  Ni128  1  0.63396900  0.08515300  0.72916900  1
  Ni  Ni129  1  0.66049600  0.53209900  0.65719700  1
  Ni  Ni130  1  0.93322300  0.48664500  0.70265200  1
  Ni  Ni131  1  0.16049600  0.53209900  0.65719700  1
  Ni  Ni132  1  0.43322300  0.98664500  0.70265200  1
  Ni  Ni133  1  0.16049600  0.03209900  0.65719700  1
  Ni  Ni134  1  0.93322300  0.98664500  0.70265200  1
  Ni  Ni135  1  0.29264800  0.27432600  0.66497100  1
  Ni  Ni136  1  0.56181300  0.22946500  0.70983100  1
  Ni  Ni137  1  0.78611700  0.27432600  0.66497100  1
  Ni  Ni138  1  0.02834300  0.78987300  0.64942300  1
  Ni  Ni139  1  0.30463300  0.74382500  0.69547200  1
  Ni  Ni140  1  0.53487500  0.78987300  0.64942300  1
  Ni  Ni141  1  0.52035600  0.31237900  0.75189200  1
  Ni  Ni142  1  0.89154500  0.57000100  0.74432100  1
  Ni  Ni143  1  0.77793200  0.79722700  0.76704300  1
  Ni  Ni144  1  0.17942400  0.99424400  0.82007800  1
  Ni  Ni145  1  0.20595000  0.44119000  0.74810600  1
  Ni  Ni146  1  0.47867800  0.39573600  0.79356100  1
  Ni  Ni147  1  0.70595000  0.44119000  0.74810600  1
  Ni  Ni148  1  0.97867800  0.89573600  0.79356100  1
  Ni  Ni149  1  0.70595000  0.94119000  0.74810600  1
  Ni  Ni150  1  0.47867800  0.89573600  0.79356100  1
  Ni  Ni151  1  0.83810300  0.18341600  0.75588000  1
  Ni  Ni152  1  0.10726800  0.13855600  0.80074100  1
  Ni  Ni153  1  0.33157200  0.18341600  0.75588000  1
  Ni  Ni154  1  0.57379800  0.69896400  0.74033200  1
  Ni  Ni155  1  0.85008800  0.65291500  0.78638100  1
  Ni  Ni156  1  0.08032900  0.69896400  0.74033200  1
