# generated using pymatgen
data_Mg23B160
_symmetry_space_group_name_H-M   'P 1'
_cell_length_a   10.07244113
_cell_length_b   12.05234828
_cell_length_c   43.84258900
_cell_angle_alpha   85.56912893
_cell_angle_beta   87.53461614
_cell_angle_gamma   72.91219278
_symmetry_Int_Tables_number   1
_chemical_formula_structural   Mg23B160
_chemical_formula_sum   'Mg46 B320'
_cell_volume   5071.03078932
_cell_formula_units_Z   2
loop_
 _symmetry_equiv_pos_site_id
 _symmetry_equiv_pos_as_xyz
  1  'x, y, z'
loop_
 _atom_site_type_symbol
 _atom_site_label
 _atom_site_symmetry_multiplicity
 _atom_site_fract_x
 _atom_site_fract_y
 _atom_site_fract_z
 _atom_site_occupancy
  Mg  Mg0  1  0.22218600  0.73145700  0.21093700  1
  Mg  Mg1  1  0.07218600  0.63145700  0.26093700  1
  Mg  Mg2  1  0.07744300  0.05852700  0.29740300  1
  Mg  Mg3  1  0.41692900  0.60438800  0.27447200  1
  Mg  Mg4  1  0.57218600  0.13145700  0.26093700  1
  Mg  Mg5  1  0.72218600  0.23145700  0.21093800  1
  Mg  Mg6  1  0.72744300  0.65852700  0.24740300  1
  Mg  Mg7  1  0.06692900  0.20438800  0.22447200  1
  Mg  Mg8  1  0.92218600  0.53145700  0.31093700  1
  Mg  Mg9  1  0.77218600  0.43145700  0.36093700  1
  Mg  Mg10  1  0.77744300  0.85852700  0.39740300  1
  Mg  Mg11  1  0.11692900  0.40438800  0.37447200  1
  Mg  Mg12  1  0.27218600  0.93145700  0.36093700  1
  Mg  Mg13  1  0.42218600  0.03145700  0.31093700  1
  Mg  Mg14  1  0.42744300  0.45852700  0.34740300  1
  Mg  Mg15  1  0.76692900  0.00438800  0.32447200  1
  Mg  Mg16  1  0.62218600  0.33145700  0.41093800  1
  Mg  Mg17  1  0.47218600  0.23145700  0.46093700  1
  Mg  Mg18  1  0.47744300  0.65852700  0.49740300  1
  Mg  Mg19  1  0.81692900  0.20438800  0.47447200  1
  Mg  Mg20  1  0.97218600  0.73145700  0.46093800  1
  Mg  Mg21  1  0.12218600  0.83145700  0.41093800  1
  Mg  Mg22  1  0.12744300  0.25852700  0.44740300  1
  Mg  Mg23  1  0.46692900  0.80438800  0.42447200  1
  Mg  Mg24  1  0.32218600  0.13145700  0.51093700  1
  Mg  Mg25  1  0.17218600  0.03145700  0.56093700  1
  Mg  Mg26  1  0.17744300  0.45852700  0.59740300  1
  Mg  Mg27  1  0.51692900  0.00438800  0.57447200  1
  Mg  Mg28  1  0.67218600  0.53145700  0.56093700  1
  Mg  Mg29  1  0.82218600  0.63145700  0.51093700  1
  Mg  Mg30  1  0.82744300  0.05852700  0.54740300  1
  Mg  Mg31  1  0.16692900  0.60438800  0.52447200  1
  Mg  Mg32  1  0.02218600  0.93145700  0.61093700  1
  Mg  Mg33  1  0.87218600  0.83145700  0.66093700  1
  Mg  Mg34  1  0.87744300  0.25852700  0.69740300  1
  Mg  Mg35  1  0.21692900  0.80438800  0.67447200  1
  Mg  Mg36  1  0.37218600  0.33145700  0.66093800  1
  Mg  Mg37  1  0.52218600  0.43145700  0.61093800  1
  Mg  Mg38  1  0.52744300  0.85852700  0.64740300  1
  Mg  Mg39  1  0.86692900  0.40438800  0.62447200  1
  Mg  Mg40  1  0.72218600  0.73145700  0.71093800  1
  Mg  Mg41  1  0.57218600  0.63145700  0.76093800  1
  Mg  Mg42  1  0.07218600  0.13145700  0.76093800  1
  Mg  Mg43  1  0.22218600  0.23145700  0.71093800  1
  Mg  Mg44  1  0.22744300  0.65852700  0.74740300  1
  Mg  Mg45  1  0.56692900  0.20438800  0.72447200  1
  B  B46  1  0.58571800  0.12080700  0.21151400  1
  B  B47  1  0.47912400  0.03410300  0.22353200  1
  B  B48  1  0.33115800  0.93545800  0.27285400  1
  B  B49  1  0.29843600  0.90088800  0.21007400  1
  B  B50  1  0.33027600  0.06924000  0.25011200  1
  B  B51  1  0.31036800  0.04616900  0.21040500  1
  B  B52  1  0.21703300  0.98394500  0.24151600  1
  B  B53  1  0.04531400  0.83035200  0.24534200  1
  B  B54  1  0.52001900  0.29600400  0.23341300  1
  B  B55  1  0.27995600  0.20342900  0.26688600  1
  B  B56  1  0.37582500  0.30956800  0.25796500  1
  B  B57  1  0.52785800  0.41092300  0.20728700  1
  B  B58  1  0.03915200  0.98080200  0.24308800  1
  B  B59  1  0.94581700  0.91857800  0.27420000  1
  B  B60  1  0.54855500  0.74433600  0.29767500  1
  B  B61  1  0.75522000  0.88211300  0.22878700  1
  B  B62  1  0.26651400  0.45199100  0.26458800  1
  B  B63  1  0.41854700  0.55334700  0.21391000  1
  B  B64  1  0.51441600  0.65948600  0.20498900  1
  B  B65  1  0.27435300  0.56691100  0.23846200  1
  B  B66  1  0.74905800  0.03256300  0.22653300  1
  B  B67  1  0.57733900  0.87896900  0.23035900  1
  B  B68  1  0.48400400  0.81674600  0.26147000  1
  B  B69  1  0.46409600  0.79367400  0.22176300  1
  B  B70  1  0.49593600  0.96202700  0.26180100  1
  B  B71  1  0.16321400  0.72745600  0.29902100  1
  B  B72  1  0.31524800  0.82881200  0.24834300  1
  B  B73  1  0.20865400  0.74210800  0.26036100  1
  B  B74  1  0.93571800  0.52080700  0.26151400  1
  B  B75  1  0.82912400  0.43410300  0.27353200  1
  B  B76  1  0.98115800  0.53545800  0.22285400  1
  B  B77  1  0.64843600  0.30088800  0.26007400  1
  B  B78  1  0.68027600  0.46924000  0.30011200  1
  B  B79  1  0.66036800  0.44616900  0.26040500  1
  B  B80  1  0.56703300  0.38394500  0.29151600  1
  B  B81  1  0.39531400  0.23035200  0.29534200  1
  B  B82  1  0.87001900  0.69600400  0.28341300  1
  B  B83  1  0.92995600  0.80342900  0.21688600  1
  B  B84  1  0.02582500  0.90956800  0.20796500  1
  B  B85  1  0.87785800  0.81092300  0.25728700  1
  B  B86  1  0.38915200  0.38080200  0.29308800  1
  B  B87  1  0.59581700  0.51857800  0.22420000  1
  B  B88  1  0.19855500  0.34433600  0.24767500  1
  B  B89  1  0.10522000  0.28211300  0.27878700  1
  B  B90  1  0.91651400  0.05199100  0.21458800  1
  B  B91  1  0.76854700  0.95334700  0.26391000  1
  B  B92  1  0.86441600  0.05948600  0.25498900  1
  B  B93  1  0.62435300  0.96691100  0.28846200  1
  B  B94  1  0.09905800  0.43256300  0.27653300  1
  B  B95  1  0.92733900  0.27896900  0.28035900  1
  B  B96  1  0.13400400  0.41674600  0.21147000  1
  B  B97  1  0.81409600  0.19367400  0.27176300  1
  B  B98  1  0.14593600  0.56202700  0.21180100  1
  B  B99  1  0.81321400  0.32745600  0.24902100  1
  B  B100  1  0.66524800  0.22881200  0.29834300  1
  B  B101  1  0.85865400  0.34210800  0.21036100  1
  B  B102  1  0.28571800  0.92080700  0.31151400  1
  B  B103  1  0.17912400  0.83410300  0.32353200  1
  B  B104  1  0.03115800  0.73545800  0.37285400  1
  B  B105  1  0.99843600  0.70088800  0.31007400  1
  B  B106  1  0.03027600  0.86924000  0.35011200  1
  B  B107  1  0.01036800  0.84616900  0.31040500  1
  B  B108  1  0.91703300  0.78394500  0.34151600  1
  B  B109  1  0.74531400  0.63035200  0.34534200  1
  B  B110  1  0.22001900  0.09600400  0.33341300  1
  B  B111  1  0.97995600  0.00342900  0.36688600  1
  B  B112  1  0.07582500  0.10956800  0.35796500  1
  B  B113  1  0.22785800  0.21092300  0.30728700  1
  B  B114  1  0.73915200  0.78080200  0.34308800  1
  B  B115  1  0.64581700  0.71857800  0.37420000  1
  B  B116  1  0.24855500  0.54433600  0.39767500  1
  B  B117  1  0.45522000  0.68211300  0.32878700  1
  B  B118  1  0.96651400  0.25199100  0.36458800  1
  B  B119  1  0.11854700  0.35334700  0.31391000  1
  B  B120  1  0.21441600  0.45948600  0.30498900  1
  B  B121  1  0.97435300  0.36691100  0.33846200  1
  B  B122  1  0.44905800  0.83256300  0.32653300  1
  B  B123  1  0.27733900  0.67896900  0.33035900  1
  B  B124  1  0.18400400  0.61674600  0.36147000  1
  B  B125  1  0.16409600  0.59367400  0.32176300  1
  B  B126  1  0.19593600  0.76202700  0.36180100  1
  B  B127  1  0.86321400  0.52745600  0.39902100  1
  B  B128  1  0.01524800  0.62881200  0.34834300  1
  B  B129  1  0.90865400  0.54210800  0.36036100  1
  B  B130  1  0.63571800  0.32080700  0.36151400  1
  B  B131  1  0.52912400  0.23410300  0.37353200  1
  B  B132  1  0.68115800  0.33545800  0.32285400  1
  B  B133  1  0.34843600  0.10088800  0.36007400  1
  B  B134  1  0.38027600  0.26924000  0.40011200  1
  B  B135  1  0.36036800  0.24616900  0.36040500  1
  B  B136  1  0.26703300  0.18394500  0.39151600  1
  B  B137  1  0.09531400  0.03035200  0.39534200  1
  B  B138  1  0.57001900  0.49600400  0.38341300  1
  B  B139  1  0.62995600  0.60342900  0.31688600  1
  B  B140  1  0.72582500  0.70956800  0.30796500  1
  B  B141  1  0.57785800  0.61092300  0.35728700  1
  B  B142  1  0.08915200  0.18080200  0.39308800  1
  B  B143  1  0.29581700  0.31857800  0.32420000  1
  B  B144  1  0.89855500  0.14433600  0.34767500  1
  B  B145  1  0.80522000  0.08211300  0.37878700  1
  B  B146  1  0.61651400  0.85199100  0.31458800  1
  B  B147  1  0.46854700  0.75334700  0.36391000  1
  B  B148  1  0.56441600  0.85948600  0.35498900  1
  B  B149  1  0.32435300  0.76691100  0.38846200  1
  B  B150  1  0.79905800  0.23256300  0.37653300  1
  B  B151  1  0.62733900  0.07896900  0.38035900  1
  B  B152  1  0.83400400  0.21674600  0.31147000  1
  B  B153  1  0.51409600  0.99367400  0.37176300  1
  B  B154  1  0.84593600  0.36202700  0.31180100  1
  B  B155  1  0.51321400  0.12745600  0.34902100  1
  B  B156  1  0.36524800  0.02881200  0.39834300  1
  B  B157  1  0.55865400  0.14210800  0.31036100  1
  B  B158  1  0.98571800  0.72080700  0.41151400  1
  B  B159  1  0.87912400  0.63410300  0.42353200  1
  B  B160  1  0.73115800  0.53545800  0.47285400  1
  B  B161  1  0.69843600  0.50088800  0.41007400  1
  B  B162  1  0.73027600  0.66924000  0.45011200  1
  B  B163  1  0.71036800  0.64616900  0.41040500  1
  B  B164  1  0.61703300  0.58394500  0.44151600  1
  B  B165  1  0.44531400  0.43035200  0.44534200  1
  B  B166  1  0.92001900  0.89600400  0.43341300  1
  B  B167  1  0.67995600  0.80342900  0.46688600  1
  B  B168  1  0.77582500  0.90956800  0.45796500  1
  B  B169  1  0.92785800  0.01092300  0.40728700  1
  B  B170  1  0.43915200  0.58080200  0.44308800  1
  B  B171  1  0.34581700  0.51857800  0.47420000  1
  B  B172  1  0.94855500  0.34433600  0.49767500  1
  B  B173  1  0.15522000  0.48211300  0.42878700  1
  B  B174  1  0.66651400  0.05199100  0.46458800  1
  B  B175  1  0.81854700  0.15334700  0.41391000  1
  B  B176  1  0.91441600  0.25948600  0.40498900  1
  B  B177  1  0.67435300  0.16691100  0.43846200  1
  B  B178  1  0.14905800  0.63256300  0.42653300  1
  B  B179  1  0.97733900  0.47896900  0.43035900  1
  B  B180  1  0.88400400  0.41674600  0.46147000  1
  B  B181  1  0.86409600  0.39367400  0.42176300  1
  B  B182  1  0.89593600  0.56202700  0.46180100  1
  B  B183  1  0.56321400  0.32745600  0.49902100  1
  B  B184  1  0.71524800  0.42881200  0.44834300  1
  B  B185  1  0.60865400  0.34210800  0.46036100  1
  B  B186  1  0.33571800  0.12080700  0.46151400  1
  B  B187  1  0.22912400  0.03410300  0.47353200  1
  B  B188  1  0.38115800  0.13545800  0.42285400  1
  B  B189  1  0.04843600  0.90088800  0.46007400  1
  B  B190  1  0.08027600  0.06924000  0.50011200  1
  B  B191  1  0.06036800  0.04616900  0.46040500  1
  B  B192  1  0.96703300  0.98394500  0.49151600  1
  B  B193  1  0.79531400  0.83035200  0.49534200  1
  B  B194  1  0.27001900  0.29600400  0.48341300  1
  B  B195  1  0.32995600  0.40342900  0.41688600  1
  B  B196  1  0.42582500  0.50956800  0.40796500  1
  B  B197  1  0.27785800  0.41092300  0.45728700  1
  B  B198  1  0.78915200  0.98080200  0.49308800  1
  B  B199  1  0.99581700  0.11857800  0.42420000  1
  B  B200  1  0.59855500  0.94433600  0.44767500  1
  B  B201  1  0.50522000  0.88211300  0.47878700  1
  B  B202  1  0.31651400  0.65199100  0.41458800  1
  B  B203  1  0.16854700  0.55334700  0.46391000  1
  B  B204  1  0.26441600  0.65948600  0.45498900  1
  B  B205  1  0.02435300  0.56691100  0.48846200  1
  B  B206  1  0.49905800  0.03256300  0.47653300  1
  B  B207  1  0.32733900  0.87896900  0.48035900  1
  B  B208  1  0.53400400  0.01674600  0.41147000  1
  B  B209  1  0.21409600  0.79367400  0.47176300  1
  B  B210  1  0.54593600  0.16202700  0.41180100  1
  B  B211  1  0.21321400  0.92745600  0.44902100  1
  B  B212  1  0.06524800  0.82881200  0.49834300  1
  B  B213  1  0.25865400  0.94210800  0.41036100  1
  B  B214  1  0.68571800  0.52080700  0.51151400  1
  B  B215  1  0.57912400  0.43410300  0.52353200  1
  B  B216  1  0.43115800  0.33545800  0.57285400  1
  B  B217  1  0.39843600  0.30088800  0.51007400  1
  B  B218  1  0.43027600  0.46924000  0.55011200  1
  B  B219  1  0.41036800  0.44616900  0.51040500  1
  B  B220  1  0.31703300  0.38394500  0.54151600  1
  B  B221  1  0.14531400  0.23035200  0.54534200  1
  B  B222  1  0.62001900  0.69600400  0.53341300  1
  B  B223  1  0.37995600  0.60342900  0.56688600  1
  B  B224  1  0.47582500  0.70956800  0.55796500  1
  B  B225  1  0.62785800  0.81092300  0.50728700  1
  B  B226  1  0.13915200  0.38080200  0.54308800  1
  B  B227  1  0.04581700  0.31857800  0.57420000  1
  B  B228  1  0.64855500  0.14433600  0.59767500  1
  B  B229  1  0.85522000  0.28211300  0.52878700  1
  B  B230  1  0.36651400  0.85199100  0.56458800  1
  B  B231  1  0.51854700  0.95334700  0.51391000  1
  B  B232  1  0.61441600  0.05948600  0.50498900  1
  B  B233  1  0.37435300  0.96691100  0.53846200  1
  B  B234  1  0.84905800  0.43256300  0.52653300  1
  B  B235  1  0.67733900  0.27896900  0.53035900  1
  B  B236  1  0.58400400  0.21674600  0.56147000  1
  B  B237  1  0.56409600  0.19367400  0.52176300  1
  B  B238  1  0.59593600  0.36202700  0.56180100  1
  B  B239  1  0.26321400  0.12745600  0.59902100  1
  B  B240  1  0.41524800  0.22881200  0.54834300  1
  B  B241  1  0.30865400  0.14210800  0.56036100  1
  B  B242  1  0.03571800  0.92080700  0.56151400  1
  B  B243  1  0.92912400  0.83410300  0.57353200  1
  B  B244  1  0.08115800  0.93545800  0.52285400  1
  B  B245  1  0.74843600  0.70088800  0.56007400  1
  B  B246  1  0.78027600  0.86924000  0.60011200  1
  B  B247  1  0.76036800  0.84616900  0.56040500  1
  B  B248  1  0.66703300  0.78394500  0.59151600  1
  B  B249  1  0.49531400  0.63035200  0.59534200  1
  B  B250  1  0.97001900  0.09600400  0.58341300  1
  B  B251  1  0.02995600  0.20342900  0.51688600  1
  B  B252  1  0.12582500  0.30956800  0.50796500  1
  B  B253  1  0.97785800  0.21092300  0.55728700  1
  B  B254  1  0.48915200  0.78080200  0.59308800  1
  B  B255  1  0.69581700  0.91857800  0.52420000  1
  B  B256  1  0.29855500  0.74433600  0.54767500  1
  B  B257  1  0.20522000  0.68211300  0.57878700  1
  B  B258  1  0.01651400  0.45199100  0.51458800  1
  B  B259  1  0.86854700  0.35334700  0.56391000  1
  B  B260  1  0.96441600  0.45948600  0.55498900  1
  B  B261  1  0.72435300  0.36691100  0.58846200  1
  B  B262  1  0.19905800  0.83256300  0.57653300  1
  B  B263  1  0.02733900  0.67896900  0.58035900  1
  B  B264  1  0.23400400  0.81674600  0.51147000  1
  B  B265  1  0.91409600  0.59367400  0.57176300  1
  B  B266  1  0.24593600  0.96202700  0.51180100  1
  B  B267  1  0.91321400  0.72745600  0.54902100  1
  B  B268  1  0.76524800  0.62881200  0.59834300  1
  B  B269  1  0.95865400  0.74210800  0.51036100  1
  B  B270  1  0.38571800  0.32080700  0.61151400  1
  B  B271  1  0.27912400  0.23410300  0.62353200  1
  B  B272  1  0.13115800  0.13545800  0.67285400  1
  B  B273  1  0.09843600  0.10088800  0.61007400  1
  B  B274  1  0.13027600  0.26924000  0.65011200  1
  B  B275  1  0.11036800  0.24616900  0.61040500  1
  B  B276  1  0.01703300  0.18394500  0.64151600  1
  B  B277  1  0.84531400  0.03035200  0.64534200  1
  B  B278  1  0.32001900  0.49600400  0.63341300  1
  B  B279  1  0.07995600  0.40342900  0.66688600  1
  B  B280  1  0.17582500  0.50956800  0.65796500  1
  B  B281  1  0.32785800  0.61092300  0.60728700  1
  B  B282  1  0.83915200  0.18080200  0.64308800  1
  B  B283  1  0.74581700  0.11857800  0.67420000  1
  B  B284  1  0.34855500  0.94433600  0.69767500  1
  B  B285  1  0.55522000  0.08211300  0.62878700  1
  B  B286  1  0.06651400  0.65199100  0.66458800  1
  B  B287  1  0.21854700  0.75334700  0.61391000  1
  B  B288  1  0.31441600  0.85948600  0.60498900  1
  B  B289  1  0.07435300  0.76691100  0.63846200  1
  B  B290  1  0.54905800  0.23256300  0.62653300  1
  B  B291  1  0.37733900  0.07896900  0.63035900  1
  B  B292  1  0.28400400  0.01674600  0.66147000  1
  B  B293  1  0.26409600  0.99367400  0.62176300  1
  B  B294  1  0.29593600  0.16202700  0.66180100  1
  B  B295  1  0.96321400  0.92745600  0.69902100  1
  B  B296  1  0.11524800  0.02881200  0.64834300  1
  B  B297  1  0.00865400  0.94210800  0.66036100  1
  B  B298  1  0.73571800  0.72080700  0.66151400  1
  B  B299  1  0.62912400  0.63410300  0.67353200  1
  B  B300  1  0.78115800  0.73545800  0.62285400  1
  B  B301  1  0.44843600  0.50088800  0.66007400  1
  B  B302  1  0.48027600  0.66924000  0.70011200  1
  B  B303  1  0.46036800  0.64616900  0.66040500  1
  B  B304  1  0.36703300  0.58394500  0.69151600  1
  B  B305  1  0.19531400  0.43035200  0.69534200  1
  B  B306  1  0.67001900  0.89600400  0.68341300  1
  B  B307  1  0.72995600  0.00342900  0.61688600  1
  B  B308  1  0.82582500  0.10956800  0.60796500  1
  B  B309  1  0.67785800  0.01092300  0.65728700  1
  B  B310  1  0.18915200  0.58080200  0.69308800  1
  B  B311  1  0.39581700  0.71857800  0.62420000  1
  B  B312  1  0.99855500  0.54433600  0.64767500  1
  B  B313  1  0.90522000  0.48211300  0.67878700  1
  B  B314  1  0.71651400  0.25199100  0.61458800  1
  B  B315  1  0.56854700  0.15334700  0.66391000  1
  B  B316  1  0.66441600  0.25948600  0.65498900  1
  B  B317  1  0.42435300  0.16691100  0.68846200  1
  B  B318  1  0.89905800  0.63256300  0.67653300  1
  B  B319  1  0.72733900  0.47896900  0.68035900  1
  B  B320  1  0.93400400  0.61674600  0.61147000  1
  B  B321  1  0.61409600  0.39367400  0.67176300  1
  B  B322  1  0.94593600  0.76202700  0.61180100  1
  B  B323  1  0.61321400  0.52745600  0.64902100  1
  B  B324  1  0.46524800  0.42881200  0.69834300  1
  B  B325  1  0.65865400  0.54210800  0.61036100  1
  B  B326  1  0.08571800  0.12080700  0.71151400  1
  B  B327  1  0.97912400  0.03410300  0.72353200  1
  B  B328  1  0.79843600  0.90088800  0.71007400  1
  B  B329  1  0.83027600  0.06924000  0.75011200  1
  B  B330  1  0.81036800  0.04616900  0.71040500  1
  B  B331  1  0.71703300  0.98394500  0.74151600  1
  B  B332  1  0.54531400  0.83035200  0.74534200  1
  B  B333  1  0.02001900  0.29600400  0.73341300  1
  B  B334  1  0.77995600  0.20342900  0.76688600  1
  B  B335  1  0.87582500  0.30956800  0.75796500  1
  B  B336  1  0.02785800  0.41092300  0.70728700  1
  B  B337  1  0.53915200  0.98080200  0.74308800  1
  B  B338  1  0.25522000  0.88211300  0.72878700  1
  B  B339  1  0.76651400  0.45199100  0.76458800  1
  B  B340  1  0.91854700  0.55334700  0.71391000  1
  B  B341  1  0.01441600  0.65948600  0.70498900  1
  B  B342  1  0.77435300  0.56691100  0.73846200  1
  B  B343  1  0.24905800  0.03256300  0.72653300  1
  B  B344  1  0.07733900  0.87896900  0.73035900  1
  B  B345  1  0.98400400  0.81674600  0.76147000  1
  B  B346  1  0.96409600  0.79367400  0.72176300  1
  B  B347  1  0.99593600  0.96202700  0.76180100  1
  B  B348  1  0.81524800  0.82881200  0.74834300  1
  B  B349  1  0.70865400  0.74210800  0.76036100  1
  B  B350  1  0.43571800  0.52080700  0.76151400  1
  B  B351  1  0.48115800  0.53545800  0.72285400  1
  B  B352  1  0.14843600  0.30088800  0.76007400  1
  B  B353  1  0.16036800  0.44616900  0.76040500  1
  B  B354  1  0.42995600  0.80342900  0.71688600  1
  B  B355  1  0.52582500  0.90956800  0.70796500  1
  B  B356  1  0.37785800  0.81092300  0.75728700  1
  B  B357  1  0.09581700  0.51857800  0.72420000  1
  B  B358  1  0.69855500  0.34433600  0.74767500  1
  B  B359  1  0.41651400  0.05199100  0.71458800  1
  B  B360  1  0.26854700  0.95334700  0.76391000  1
  B  B361  1  0.36441600  0.05948600  0.75498900  1
  B  B362  1  0.63400400  0.41674600  0.71147000  1
  B  B363  1  0.64593600  0.56202700  0.71180100  1
  B  B364  1  0.31321400  0.32745600  0.74902100  1
  B  B365  1  0.35865400  0.34210800  0.71036100  1
