# generated using pymatgen
data_CeMg2
_symmetry_space_group_name_H-M   'P 1'
_cell_length_a   3.18877500
_cell_length_b   18.55768369
_cell_length_c   50.11430100
_cell_angle_alpha   94.53326837
_cell_angle_beta   90.00000000
_cell_angle_gamma   90.00000000
_symmetry_Int_Tables_number   1
_chemical_formula_structural   CeMg2
_chemical_formula_sum   'Ce24 Mg48'
_cell_volume   2956.30031137
_cell_formula_units_Z   24
loop_
 _symmetry_equiv_pos_site_id
 _symmetry_equiv_pos_as_xyz
  1  'x, y, z'
loop_
 _atom_site_type_symbol
 _atom_site_label
 _atom_site_symmetry_multiplicity
 _atom_site_fract_x
 _atom_site_fract_y
 _atom_site_fract_z
 _atom_site_occupancy
  Ce  Ce0  1  0.00000000  0.60988700  0.27112400  1
  Ce  Ce1  1  0.50000000  0.04011300  0.27887600  1
  Ce  Ce2  1  0.50000000  0.05988700  0.22112400  1
  Ce  Ce3  1  0.00000000  0.49011300  0.22887600  1
  Ce  Ce4  1  0.00000000  0.70988700  0.37112400  1
  Ce  Ce5  1  0.50000000  0.14011300  0.37887600  1
  Ce  Ce6  1  0.50000000  0.15988700  0.32112400  1
  Ce  Ce7  1  0.00000000  0.59011300  0.32887600  1
  Ce  Ce8  1  0.00000000  0.80988700  0.47112400  1
  Ce  Ce9  1  0.50000000  0.24011300  0.47887600  1
  Ce  Ce10  1  0.50000000  0.25988700  0.42112400  1
  Ce  Ce11  1  0.00000000  0.69011300  0.42887600  1
  Ce  Ce12  1  0.00000000  0.90988700  0.57112400  1
  Ce  Ce13  1  0.50000000  0.34011300  0.57887600  1
  Ce  Ce14  1  0.50000000  0.35988700  0.52112400  1
  Ce  Ce15  1  0.00000000  0.79011300  0.52887600  1
  Ce  Ce16  1  0.00000000  0.00988700  0.67112400  1
  Ce  Ce17  1  0.50000000  0.44011300  0.67887600  1
  Ce  Ce18  1  0.50000000  0.45988700  0.62112400  1
  Ce  Ce19  1  0.00000000  0.89011300  0.62887600  1
  Ce  Ce20  1  0.00000000  0.10988700  0.77112400  1
  Ce  Ce21  1  0.50000000  0.54011300  0.77887600  1
  Ce  Ce22  1  0.50000000  0.55988700  0.72112400  1
  Ce  Ce23  1  0.00000000  0.99011300  0.72887600  1
  Mg  Mg24  1  0.00000000  0.91196600  0.23755900  1
  Mg  Mg25  1  0.50000000  0.77103200  0.25321900  1
  Mg  Mg26  1  0.00000000  0.87896800  0.29678100  1
  Mg  Mg27  1  0.50000000  0.63803400  0.21244100  1
  Mg  Mg28  1  0.50000000  0.46196600  0.28755900  1
  Mg  Mg29  1  0.00000000  0.22103200  0.20321900  1
  Mg  Mg30  1  0.50000000  0.32896800  0.24678100  1
  Mg  Mg31  1  0.00000000  0.18803400  0.26244100  1
  Mg  Mg32  1  0.00000000  0.01196600  0.33755900  1
  Mg  Mg33  1  0.50000000  0.87103200  0.35321900  1
  Mg  Mg34  1  0.00000000  0.97896800  0.39678100  1
  Mg  Mg35  1  0.50000000  0.73803400  0.31244100  1
  Mg  Mg36  1  0.50000000  0.56196600  0.38755900  1
  Mg  Mg37  1  0.00000000  0.32103200  0.30321900  1
  Mg  Mg38  1  0.50000000  0.42896800  0.34678100  1
  Mg  Mg39  1  0.00000000  0.28803400  0.36244100  1
  Mg  Mg40  1  0.00000000  0.11196600  0.43755900  1
  Mg  Mg41  1  0.50000000  0.97103200  0.45321900  1
  Mg  Mg42  1  0.00000000  0.07896800  0.49678100  1
  Mg  Mg43  1  0.50000000  0.83803400  0.41244100  1
  Mg  Mg44  1  0.50000000  0.66196600  0.48755900  1
  Mg  Mg45  1  0.00000000  0.42103200  0.40321900  1
  Mg  Mg46  1  0.50000000  0.52896800  0.44678100  1
  Mg  Mg47  1  0.00000000  0.38803400  0.46244100  1
  Mg  Mg48  1  0.00000000  0.21196600  0.53755900  1
  Mg  Mg49  1  0.50000000  0.07103200  0.55321900  1
  Mg  Mg50  1  0.00000000  0.17896800  0.59678100  1
  Mg  Mg51  1  0.50000000  0.93803400  0.51244100  1
  Mg  Mg52  1  0.50000000  0.76196600  0.58755900  1
  Mg  Mg53  1  0.00000000  0.52103200  0.50321900  1
  Mg  Mg54  1  0.50000000  0.62896800  0.54678100  1
  Mg  Mg55  1  0.00000000  0.48803400  0.56244100  1
  Mg  Mg56  1  0.00000000  0.31196600  0.63755900  1
  Mg  Mg57  1  0.50000000  0.17103200  0.65321900  1
  Mg  Mg58  1  0.00000000  0.27896800  0.69678100  1
  Mg  Mg59  1  0.50000000  0.03803400  0.61244100  1
  Mg  Mg60  1  0.50000000  0.86196600  0.68755900  1
  Mg  Mg61  1  0.00000000  0.62103200  0.60321900  1
  Mg  Mg62  1  0.50000000  0.72896800  0.64678100  1
  Mg  Mg63  1  0.00000000  0.58803400  0.66244100  1
  Mg  Mg64  1  0.00000000  0.41196600  0.73755900  1
  Mg  Mg65  1  0.50000000  0.27103200  0.75321900  1
  Mg  Mg66  1  0.00000000  0.37896800  0.79678100  1
  Mg  Mg67  1  0.50000000  0.13803400  0.71244100  1
  Mg  Mg68  1  0.50000000  0.96196600  0.78755900  1
  Mg  Mg69  1  0.00000000  0.72103200  0.70321900  1
  Mg  Mg70  1  0.50000000  0.82896800  0.74678100  1
  Mg  Mg71  1  0.00000000  0.68803400  0.76244100  1
