# generated using pymatgen
data_Mg2Au
_symmetry_space_group_name_H-M   'P 1'
_cell_length_a   4.38771400
_cell_length_b   8.57805800
_cell_length_c   56.77467900
_cell_angle_alpha   90.00000000
_cell_angle_beta   90.00000000
_cell_angle_gamma   90.00000000
_symmetry_Int_Tables_number   1
_chemical_formula_structural   Mg2Au
_chemical_formula_sum   'Mg44 Au22'
_cell_volume   2136.88906874
_cell_formula_units_Z   22
loop_
 _symmetry_equiv_pos_site_id
 _symmetry_equiv_pos_as_xyz
  1  'x, y, z'
loop_
 _atom_site_type_symbol
 _atom_site_label
 _atom_site_symmetry_multiplicity
 _atom_site_fract_x
 _atom_site_fract_y
 _atom_site_fract_z
 _atom_site_occupancy
  Mg  Mg0  1  0.25000000  0.94817100  0.45363800  1
  Mg  Mg1  1  0.25000000  0.55182900  0.28697100  1
  Mg  Mg2  1  0.75000000  0.05182900  0.49080600  1
  Mg  Mg3  1  0.75000000  0.44817100  0.32414000  1
  Mg  Mg4  1  0.25000000  0.94796500  0.34296800  1
  Mg  Mg5  1  0.25000000  0.55203500  0.17630200  1
  Mg  Mg6  1  0.75000000  0.05203500  0.26814300  1
  Mg  Mg7  1  0.75000000  0.44796500  0.43480900  1
  Mg  Mg8  1  0.25000000  0.94300900  0.23112100  1
  Mg  Mg9  1  0.25000000  0.55699100  0.39778800  1
  Mg  Mg10  1  0.75000000  0.05699100  0.37999000  1
  Mg  Mg11  1  0.75000000  0.44300900  0.21332300  1
  Mg  Mg12  1  0.25000000  0.19798500  0.41266400  1
  Mg  Mg13  1  0.25000000  0.30201500  0.24599700  1
  Mg  Mg14  1  0.75000000  0.80201500  0.19844700  1
  Mg  Mg15  1  0.75000000  0.69798500  0.36511400  1
  Mg  Mg16  1  0.25000000  0.19071800  0.30128800  1
  Mg  Mg17  1  0.25000000  0.30928200  0.46795500  1
  Mg  Mg18  1  0.75000000  0.80928200  0.30982300  1
  Mg  Mg19  1  0.75000000  0.69071800  0.47649000  1
  Mg  Mg20  1  0.25000000  0.19186700  0.18991600  1
  Mg  Mg21  1  0.25000000  0.30813300  0.35658300  1
  Mg  Mg22  1  0.75000000  0.80813300  0.42119500  1
  Mg  Mg23  1  0.75000000  0.69186700  0.25452800  1
  Mg  Mg24  1  0.25000000  0.55182900  0.62030500  1
  Mg  Mg25  1  0.75000000  0.44817100  0.65747300  1
  Mg  Mg26  1  0.25000000  0.94796500  0.67630200  1
  Mg  Mg27  1  0.25000000  0.55203500  0.50963500  1
  Mg  Mg28  1  0.75000000  0.05203500  0.60147600  1
  Mg  Mg29  1  0.75000000  0.44796500  0.76814300  1
  Mg  Mg30  1  0.25000000  0.94300900  0.56445400  1
  Mg  Mg31  1  0.25000000  0.55699100  0.73112100  1
  Mg  Mg32  1  0.75000000  0.05699100  0.71332300  1
  Mg  Mg33  1  0.75000000  0.44300900  0.54665700  1
  Mg  Mg34  1  0.25000000  0.19798500  0.74599700  1
  Mg  Mg35  1  0.25000000  0.30201500  0.57933100  1
  Mg  Mg36  1  0.75000000  0.80201500  0.53178000  1
  Mg  Mg37  1  0.75000000  0.69798500  0.69844700  1
  Mg  Mg38  1  0.25000000  0.19071800  0.63462100  1
  Mg  Mg39  1  0.75000000  0.80928200  0.64315600  1
  Mg  Mg40  1  0.25000000  0.19186700  0.52324900  1
  Mg  Mg41  1  0.25000000  0.30813300  0.68991600  1
  Mg  Mg42  1  0.75000000  0.80813300  0.75452800  1
  Mg  Mg43  1  0.75000000  0.69186700  0.58786200  1
  Au  Au44  1  0.25000000  0.86848600  0.16809200  1
  Au  Au45  1  0.25000000  0.63151400  0.33475800  1
  Au  Au46  1  0.75000000  0.13151400  0.44301900  1
  Au  Au47  1  0.75000000  0.36848600  0.27635300  1
  Au  Au48  1  0.25000000  0.86913300  0.27891800  1
  Au  Au49  1  0.25000000  0.63086700  0.44558500  1
  Au  Au50  1  0.75000000  0.13086700  0.33219300  1
  Au  Au51  1  0.75000000  0.36913300  0.49885900  1
  Au  Au52  1  0.25000000  0.87452300  0.39080500  1
  Au  Au53  1  0.25000000  0.62547700  0.22413800  1
  Au  Au54  1  0.75000000  0.12547700  0.22030600  1
  Au  Au55  1  0.75000000  0.37452300  0.38697300  1
  Au  Au56  1  0.25000000  0.86848600  0.50142500  1
  Au  Au57  1  0.25000000  0.63151400  0.66809200  1
  Au  Au58  1  0.75000000  0.13151400  0.77635300  1
  Au  Au59  1  0.75000000  0.36848600  0.60968600  1
  Au  Au60  1  0.25000000  0.86913300  0.61225200  1
  Au  Au61  1  0.75000000  0.13086700  0.66552600  1
  Au  Au62  1  0.25000000  0.87452300  0.72413800  1
  Au  Au63  1  0.25000000  0.62547700  0.55747100  1
  Au  Au64  1  0.75000000  0.12547700  0.55364000  1
  Au  Au65  1  0.75000000  0.37452300  0.72030600  1
