# generated using pymatgen
data_Mg17In53
_symmetry_space_group_name_H-M   'P 1'
_cell_length_a   6.56770800
_cell_length_b   10.55151154
_cell_length_c   43.72551100
_cell_angle_alpha   83.76228018
_cell_angle_beta   90.00000000
_cell_angle_gamma   71.86715939
_symmetry_Int_Tables_number   1
_chemical_formula_structural   Mg17In53
_chemical_formula_sum   'Mg17 In53'
_cell_volume   2860.77737690
_cell_formula_units_Z   1
loop_
 _symmetry_equiv_pos_site_id
 _symmetry_equiv_pos_as_xyz
  1  'x, y, z'
loop_
 _atom_site_type_symbol
 _atom_site_label
 _atom_site_symmetry_multiplicity
 _atom_site_fract_x
 _atom_site_fract_y
 _atom_site_fract_z
 _atom_site_occupancy
  Mg  Mg0  1  0.62500000  0.87500000  0.24107100  1
  Mg  Mg1  1  0.33928600  0.44642900  0.20535700  1
  Mg  Mg2  1  0.19642900  0.73214300  0.31250000  1
  Mg  Mg3  1  0.91071400  0.30357100  0.27678600  1
  Mg  Mg4  1  0.76785700  0.58928600  0.38392900  1
  Mg  Mg5  1  0.48214300  0.16071400  0.34821400  1
  Mg  Mg6  1  0.33928600  0.44642900  0.45535700  1
  Mg  Mg7  1  0.05357100  0.01785700  0.41964300  1
  Mg  Mg8  1  0.91071400  0.30357100  0.52678600  1
  Mg  Mg9  1  0.62500000  0.87500000  0.49107100  1
  Mg  Mg10  1  0.48214300  0.16071400  0.59821400  1
  Mg  Mg11  1  0.19642900  0.73214300  0.56250000  1
  Mg  Mg12  1  0.05357100  0.01785700  0.66964300  1
  Mg  Mg13  1  0.76785700  0.58928600  0.63392900  1
  Mg  Mg14  1  0.62500000  0.87500000  0.74107100  1
  Mg  Mg15  1  0.33928600  0.44642900  0.70535700  1
  Mg  Mg16  1  0.91071400  0.30357100  0.77678600  1
  In  In17  1  0.12500000  0.87500000  0.24107100  1
  In  In18  1  0.23214300  0.16071400  0.22321400  1
  In  In19  1  0.73214300  0.16071400  0.22321400  1
  In  In20  1  0.83928600  0.44642900  0.20535700  1
  In  In21  1  0.94642900  0.73214300  0.18750000  1
  In  In22  1  0.44642900  0.73214300  0.18750000  1
  In  In23  1  0.69642900  0.73214300  0.31250000  1
  In  In24  1  0.80357100  0.01785700  0.29464300  1
  In  In25  1  0.30357100  0.01785700  0.29464300  1
  In  In26  1  0.41071400  0.30357100  0.27678600  1
  In  In27  1  0.51785700  0.58928600  0.25892900  1
  In  In28  1  0.01785700  0.58928600  0.25892900  1
  In  In29  1  0.26785700  0.58928600  0.38392900  1
  In  In30  1  0.37500000  0.87500000  0.36607100  1
  In  In31  1  0.87500000  0.87500000  0.36607100  1
  In  In32  1  0.98214300  0.16071400  0.34821400  1
  In  In33  1  0.08928600  0.44642900  0.33035700  1
  In  In34  1  0.58928600  0.44642900  0.33035700  1
  In  In35  1  0.83928600  0.44642900  0.45535700  1
  In  In36  1  0.94642900  0.73214300  0.43750000  1
  In  In37  1  0.44642900  0.73214300  0.43750000  1
  In  In38  1  0.55357100  0.01785700  0.41964300  1
  In  In39  1  0.66071400  0.30357100  0.40178600  1
  In  In40  1  0.16071400  0.30357100  0.40178600  1
  In  In41  1  0.41071400  0.30357100  0.52678600  1
  In  In42  1  0.51785700  0.58928600  0.50892900  1
  In  In43  1  0.01785700  0.58928600  0.50892900  1
  In  In44  1  0.12500000  0.87500000  0.49107100  1
  In  In45  1  0.23214300  0.16071400  0.47321400  1
  In  In46  1  0.73214300  0.16071400  0.47321400  1
  In  In47  1  0.98214300  0.16071400  0.59821400  1
  In  In48  1  0.08928600  0.44642900  0.58035700  1
  In  In49  1  0.58928600  0.44642900  0.58035700  1
  In  In50  1  0.69642900  0.73214300  0.56250000  1
  In  In51  1  0.80357100  0.01785700  0.54464300  1
  In  In52  1  0.30357100  0.01785700  0.54464300  1
  In  In53  1  0.55357100  0.01785700  0.66964300  1
  In  In54  1  0.66071400  0.30357100  0.65178600  1
  In  In55  1  0.16071400  0.30357100  0.65178600  1
  In  In56  1  0.26785700  0.58928600  0.63392900  1
  In  In57  1  0.37500000  0.87500000  0.61607100  1
  In  In58  1  0.87500000  0.87500000  0.61607100  1
  In  In59  1  0.12500000  0.87500000  0.74107100  1
  In  In60  1  0.23214300  0.16071400  0.72321400  1
  In  In61  1  0.73214300  0.16071400  0.72321400  1
  In  In62  1  0.83928600  0.44642900  0.70535700  1
  In  In63  1  0.94642900  0.73214300  0.68750000  1
  In  In64  1  0.44642900  0.73214300  0.68750000  1
  In  In65  1  0.80357100  0.01785700  0.79464300  1
  In  In66  1  0.30357100  0.01785700  0.79464300  1
  In  In67  1  0.41071400  0.30357100  0.77678600  1
  In  In68  1  0.51785700  0.58928600  0.75892900  1
  In  In69  1  0.01785700  0.58928600  0.75892900  1
