# generated using pymatgen
data_Mg6Au17
_symmetry_space_group_name_H-M   'P 1'
_cell_length_a   9.58286600
_cell_length_b   10.43041211
_cell_length_c   46.00314700
_cell_angle_alpha   94.13499482
_cell_angle_beta   90.00000000
_cell_angle_gamma   90.00000000
_symmetry_Int_Tables_number   1
_chemical_formula_structural   Mg6Au17
_chemical_formula_sum   'Mg36 Au102'
_cell_volume   4586.19431584
_cell_formula_units_Z   6
loop_
 _symmetry_equiv_pos_site_id
 _symmetry_equiv_pos_as_xyz
  1  'x, y, z'
loop_
 _atom_site_type_symbol
 _atom_site_label
 _atom_site_symmetry_multiplicity
 _atom_site_fract_x
 _atom_site_fract_y
 _atom_site_fract_z
 _atom_site_occupancy
  Mg  Mg0  1  0.49920200  0.15336300  0.72251400  1
  Mg  Mg1  1  0.50079800  0.68887300  0.69154800  1
  Mg  Mg2  1  0.99920200  0.68887300  0.69154800  1
  Mg  Mg3  1  0.00079800  0.15336300  0.72251400  1
  Mg  Mg4  1  0.49920200  0.27836300  0.59751400  1
  Mg  Mg5  1  0.50079800  0.81387300  0.56654800  1
  Mg  Mg6  1  0.99920200  0.81387300  0.56654800  1
  Mg  Mg7  1  0.00079800  0.27836300  0.59751400  1
  Mg  Mg8  1  0.25000000  0.91375500  0.63987400  1
  Mg  Mg9  1  0.75000000  0.05348100  0.64918900  1
  Mg  Mg10  1  0.25000000  0.37782000  0.67081100  1
  Mg  Mg11  1  0.75000000  0.58941600  0.61825100  1
  Mg  Mg12  1  0.49920200  0.40336300  0.47251400  1
  Mg  Mg13  1  0.50079800  0.93887300  0.44154800  1
  Mg  Mg14  1  0.99920200  0.93887300  0.44154800  1
  Mg  Mg15  1  0.00079800  0.40336300  0.47251400  1
  Mg  Mg16  1  0.25000000  0.03875500  0.51487400  1
  Mg  Mg17  1  0.75000000  0.17848100  0.52418900  1
  Mg  Mg18  1  0.25000000  0.50282000  0.54581100  1
  Mg  Mg19  1  0.75000000  0.71441600  0.49325100  1
  Mg  Mg20  1  0.49920200  0.52836300  0.34751400  1
  Mg  Mg21  1  0.50079800  0.06387300  0.31654800  1
  Mg  Mg22  1  0.99920200  0.06387300  0.31654800  1
  Mg  Mg23  1  0.00079800  0.52836300  0.34751400  1
  Mg  Mg24  1  0.25000000  0.16375500  0.38987400  1
  Mg  Mg25  1  0.75000000  0.30348100  0.39918900  1
  Mg  Mg26  1  0.25000000  0.62782000  0.42081100  1
  Mg  Mg27  1  0.75000000  0.83941600  0.36825100  1
  Mg  Mg28  1  0.49920200  0.65336300  0.22251400  1
  Mg  Mg29  1  0.50079800  0.18887300  0.19154800  1
  Mg  Mg30  1  0.99920200  0.18887300  0.19154800  1
  Mg  Mg31  1  0.00079800  0.65336300  0.22251400  1
  Mg  Mg32  1  0.25000000  0.28875500  0.26487400  1
  Mg  Mg33  1  0.75000000  0.42848100  0.27418900  1
  Mg  Mg34  1  0.25000000  0.75282000  0.29581100  1
  Mg  Mg35  1  0.75000000  0.96441600  0.24325100  1
  Au  Au36  1  0.25000000  0.58401600  0.71761900  1
  Au  Au37  1  0.75000000  0.25822000  0.69644400  1
  Au  Au38  1  0.50000000  0.42111800  0.70703100  1
  Au  Au39  1  0.00000000  0.42111800  0.70703100  1
  Au  Au40  1  0.25000000  0.84502200  0.70195800  1
  Au  Au41  1  0.75000000  0.99721400  0.71210400  1
  Au  Au42  1  0.00000000  0.01472800  0.61342100  1
  Au  Au43  1  0.50000000  0.95250800  0.67564100  1
  Au  Au44  1  0.00000000  0.95250800  0.67564100  1
  Au  Au45  1  0.50000000  0.01472800  0.61342100  1
  Au  Au46  1  0.00054900  0.74729700  0.62877600  1
  Au  Au47  1  0.99945100  0.21993900  0.66028600  1
  Au  Au48  1  0.50054900  0.21993900  0.66028600  1
  Au  Au49  1  0.49945100  0.74729700  0.62877600  1
  Au  Au50  1  0.75000000  0.32123100  0.63343300  1
  Au  Au51  1  0.25000000  0.70901600  0.59261900  1
  Au  Au52  1  0.25000000  0.64600600  0.65562900  1
  Au  Au53  1  0.75000000  0.38322000  0.57144400  1
  Au  Au54  1  0.75000000  0.85167200  0.60246100  1
  Au  Au55  1  0.25000000  0.17795200  0.62421300  1
  Au  Au56  1  0.25000000  0.11556400  0.68660100  1
  Au  Au57  1  0.75000000  0.78928400  0.66484900  1
  Au  Au58  1  0.50000000  0.54611800  0.58203100  1
  Au  Au59  1  0.50000000  0.48361800  0.64453100  1
  Au  Au60  1  0.00000000  0.54611800  0.58203100  1
  Au  Au61  1  0.00000000  0.48361800  0.64453100  1
  Au  Au62  1  0.25000000  0.44319800  0.60850300  1
  Au  Au63  1  0.75000000  0.52403800  0.68055900  1
  Au  Au64  1  0.25000000  0.97002200  0.57695800  1
  Au  Au65  1  0.75000000  0.12221400  0.58710400  1
  Au  Au66  1  0.00000000  0.13972800  0.48842100  1
  Au  Au67  1  0.50000000  0.07750800  0.55064100  1
  Au  Au68  1  0.00000000  0.07750800  0.55064100  1
  Au  Au69  1  0.50000000  0.13972800  0.48842100  1
  Au  Au70  1  0.00054900  0.87229700  0.50377600  1
  Au  Au71  1  0.99945100  0.34493900  0.53528600  1
  Au  Au72  1  0.50054900  0.34493900  0.53528600  1
  Au  Au73  1  0.49945100  0.87229700  0.50377600  1
  Au  Au74  1  0.75000000  0.44623100  0.50843300  1
  Au  Au75  1  0.25000000  0.83401600  0.46761900  1
  Au  Au76  1  0.25000000  0.77100600  0.53062900  1
  Au  Au77  1  0.75000000  0.50822000  0.44644400  1
  Au  Au78  1  0.75000000  0.97667200  0.47746100  1
  Au  Au79  1  0.25000000  0.30295200  0.49921300  1
  Au  Au80  1  0.25000000  0.24056400  0.56160100  1
  Au  Au81  1  0.75000000  0.91428400  0.53984900  1
  Au  Au82  1  0.50000000  0.67111800  0.45703100  1
  Au  Au83  1  0.50000000  0.60861800  0.51953100  1
  Au  Au84  1  0.00000000  0.67111800  0.45703100  1
  Au  Au85  1  0.00000000  0.60861800  0.51953100  1
  Au  Au86  1  0.25000000  0.56819800  0.48350300  1
  Au  Au87  1  0.75000000  0.64903800  0.55555900  1
  Au  Au88  1  0.25000000  0.09502200  0.45195800  1
  Au  Au89  1  0.75000000  0.24721400  0.46210400  1
  Au  Au90  1  0.00000000  0.26472800  0.36342100  1
  Au  Au91  1  0.50000000  0.20250800  0.42564100  1
  Au  Au92  1  0.00000000  0.20250800  0.42564100  1
  Au  Au93  1  0.50000000  0.26472800  0.36342100  1
  Au  Au94  1  0.00054900  0.99729700  0.37877600  1
  Au  Au95  1  0.99945100  0.46993900  0.41028600  1
  Au  Au96  1  0.50054900  0.46993900  0.41028600  1
  Au  Au97  1  0.49945100  0.99729700  0.37877600  1
  Au  Au98  1  0.75000000  0.57123100  0.38343300  1
  Au  Au99  1  0.25000000  0.95901600  0.34261900  1
  Au  Au100  1  0.25000000  0.89600600  0.40562900  1
  Au  Au101  1  0.75000000  0.63322000  0.32144400  1
  Au  Au102  1  0.75000000  0.10167200  0.35246100  1
  Au  Au103  1  0.25000000  0.42795200  0.37421300  1
  Au  Au104  1  0.25000000  0.36556400  0.43660100  1
  Au  Au105  1  0.75000000  0.03928400  0.41484900  1
  Au  Au106  1  0.50000000  0.79611800  0.33203100  1
  Au  Au107  1  0.50000000  0.73361800  0.39453100  1
  Au  Au108  1  0.00000000  0.79611800  0.33203100  1
  Au  Au109  1  0.00000000  0.73361800  0.39453100  1
  Au  Au110  1  0.25000000  0.69319800  0.35850300  1
  Au  Au111  1  0.75000000  0.77403800  0.43055900  1
  Au  Au112  1  0.25000000  0.22002200  0.32695800  1
  Au  Au113  1  0.75000000  0.37221400  0.33710400  1
  Au  Au114  1  0.00000000  0.38972800  0.23842100  1
  Au  Au115  1  0.50000000  0.32750800  0.30064100  1
  Au  Au116  1  0.00000000  0.32750800  0.30064100  1
  Au  Au117  1  0.50000000  0.38972800  0.23842100  1
  Au  Au118  1  0.00054900  0.12229700  0.25377600  1
  Au  Au119  1  0.99945100  0.59493900  0.28528600  1
  Au  Au120  1  0.50054900  0.59493900  0.28528600  1
  Au  Au121  1  0.49945100  0.12229700  0.25377600  1
  Au  Au122  1  0.75000000  0.69623100  0.25843300  1
  Au  Au123  1  0.25000000  0.08401600  0.21761900  1
  Au  Au124  1  0.25000000  0.02100600  0.28062900  1
  Au  Au125  1  0.75000000  0.75822000  0.19644400  1
  Au  Au126  1  0.75000000  0.22667200  0.22746100  1
  Au  Au127  1  0.25000000  0.55295200  0.24921300  1
  Au  Au128  1  0.25000000  0.49056400  0.31160100  1
  Au  Au129  1  0.75000000  0.16428400  0.28984900  1
  Au  Au130  1  0.50000000  0.92111800  0.20703100  1
  Au  Au131  1  0.50000000  0.85861800  0.26953100  1
  Au  Au132  1  0.00000000  0.92111800  0.20703100  1
  Au  Au133  1  0.00000000  0.85861800  0.26953100  1
  Au  Au134  1  0.25000000  0.81819800  0.23350300  1
  Au  Au135  1  0.75000000  0.89903800  0.30555900  1
  Au  Au136  1  0.25000000  0.34502200  0.20195800  1
  Au  Au137  1  0.75000000  0.49721400  0.21210400  1
