# generated using pymatgen
data_Mg68Au35
_symmetry_space_group_name_H-M   'P 1'
_cell_length_a   8.57805800
_cell_length_b   19.42687861
_cell_length_c   43.79002900
_cell_angle_alpha   77.44775440
_cell_angle_beta   90.00000000
_cell_angle_gamma   90.00000000
_symmetry_Int_Tables_number   1
_chemical_formula_structural   Mg68Au35
_chemical_formula_sum   'Mg136 Au70'
_cell_volume   7122.96428687
_cell_formula_units_Z   2
loop_
 _symmetry_equiv_pos_site_id
 _symmetry_equiv_pos_as_xyz
  1  'x, y, z'
loop_
 _atom_site_type_symbol
 _atom_site_label
 _atom_site_symmetry_multiplicity
 _atom_site_fract_x
 _atom_site_fract_y
 _atom_site_fract_z
 _atom_site_occupancy
  Mg  Mg0  1  0.94817100  0.94021500  0.20553600  1
  Mg  Mg1  1  0.55182900  0.39021500  0.25553600  1
  Mg  Mg2  1  0.05182900  0.99057000  0.26668600  1
  Mg  Mg3  1  0.44817100  0.54057000  0.21668600  1
  Mg  Mg4  1  0.94796500  0.54140700  0.27233500  1
  Mg  Mg5  1  0.55203500  0.09140700  0.22233500  1
  Mg  Mg6  1  0.05203500  0.28937800  0.29988700  1
  Mg  Mg7  1  0.44796500  0.83937800  0.24988700  1
  Mg  Mg8  1  0.94300900  0.23941900  0.23878100  1
  Mg  Mg9  1  0.55699100  0.68941900  0.28878100  1
  Mg  Mg10  1  0.05699100  0.69136600  0.23344100  1
  Mg  Mg11  1  0.44300900  0.14136600  0.28344100  1
  Mg  Mg12  1  0.19798500  0.72958500  0.29324400  1
  Mg  Mg13  1  0.30201500  0.27958500  0.24324400  1
  Mg  Mg14  1  0.80201500  0.10120000  0.27897900  1
  Mg  Mg15  1  0.69798500  0.65120000  0.22897900  1
  Mg  Mg16  1  0.19071800  0.42887000  0.25983100  1
  Mg  Mg17  1  0.30928200  0.97887000  0.20983100  1
  Mg  Mg18  1  0.80928200  0.50191500  0.21239100  1
  Mg  Mg19  1  0.69071800  0.95191500  0.26239100  1
  Mg  Mg20  1  0.19186700  0.12816600  0.22641900  1
  Mg  Mg21  1  0.30813300  0.57816600  0.27641900  1
  Mg  Mg22  1  0.80813300  0.80261900  0.24580300  1
  Mg  Mg23  1  0.69186700  0.25261900  0.29580300  1
  Mg  Mg24  1  0.94817100  0.84021500  0.30553600  1
  Mg  Mg25  1  0.55182900  0.29021500  0.35553600  1
  Mg  Mg26  1  0.05182900  0.89057000  0.36668600  1
  Mg  Mg27  1  0.44817100  0.44057000  0.31668600  1
  Mg  Mg28  1  0.94796500  0.44140700  0.37233500  1
  Mg  Mg29  1  0.55203500  0.99140700  0.32233500  1
  Mg  Mg30  1  0.05203500  0.18937800  0.39988700  1
  Mg  Mg31  1  0.44796500  0.73937800  0.34988700  1
  Mg  Mg32  1  0.94300900  0.13941900  0.33878100  1
  Mg  Mg33  1  0.55699100  0.58941900  0.38878100  1
  Mg  Mg34  1  0.05699100  0.59136600  0.33344100  1
  Mg  Mg35  1  0.44300900  0.04136600  0.38344100  1
  Mg  Mg36  1  0.19798500  0.62958500  0.39324400  1
  Mg  Mg37  1  0.30201500  0.17958500  0.34324400  1
  Mg  Mg38  1  0.80201500  0.00120000  0.37897900  1
  Mg  Mg39  1  0.69798500  0.55120000  0.32897900  1
  Mg  Mg40  1  0.19071800  0.32887000  0.35983100  1
  Mg  Mg41  1  0.30928200  0.87887000  0.30983100  1
  Mg  Mg42  1  0.80928200  0.40191500  0.31239100  1
  Mg  Mg43  1  0.69071800  0.85191500  0.36239100  1
  Mg  Mg44  1  0.19186700  0.02816600  0.32641900  1
  Mg  Mg45  1  0.30813300  0.47816600  0.37641900  1
  Mg  Mg46  1  0.80813300  0.70261900  0.34580300  1
  Mg  Mg47  1  0.69186700  0.15261900  0.39580300  1
  Mg  Mg48  1  0.94817100  0.74021500  0.40553600  1
  Mg  Mg49  1  0.55182900  0.19021500  0.45553600  1
  Mg  Mg50  1  0.05182900  0.79057000  0.46668600  1
  Mg  Mg51  1  0.44817100  0.34057000  0.41668600  1
  Mg  Mg52  1  0.94796500  0.34140700  0.47233500  1
  Mg  Mg53  1  0.55203500  0.89140700  0.42233500  1
  Mg  Mg54  1  0.05203500  0.08937800  0.49988700  1
  Mg  Mg55  1  0.44796500  0.63937800  0.44988700  1
  Mg  Mg56  1  0.94300900  0.03941900  0.43878100  1
  Mg  Mg57  1  0.55699100  0.48941900  0.48878100  1
  Mg  Mg58  1  0.05699100  0.49136600  0.43344100  1
  Mg  Mg59  1  0.44300900  0.94136600  0.48344100  1
  Mg  Mg60  1  0.19798500  0.52958500  0.49324400  1
  Mg  Mg61  1  0.30201500  0.07958500  0.44324400  1
  Mg  Mg62  1  0.80201500  0.90120000  0.47897900  1
  Mg  Mg63  1  0.69798500  0.45120000  0.42897900  1
  Mg  Mg64  1  0.19071800  0.22887000  0.45983100  1
  Mg  Mg65  1  0.30928200  0.77887000  0.40983100  1
  Mg  Mg66  1  0.80928200  0.30191500  0.41239100  1
  Mg  Mg67  1  0.69071800  0.75191500  0.46239100  1
  Mg  Mg68  1  0.19186700  0.92816600  0.42641900  1
  Mg  Mg69  1  0.30813300  0.37816600  0.47641900  1
  Mg  Mg70  1  0.80813300  0.60261900  0.44580300  1
  Mg  Mg71  1  0.69186700  0.05261900  0.49580300  1
  Mg  Mg72  1  0.94817100  0.64021500  0.50553600  1
  Mg  Mg73  1  0.55182900  0.09021500  0.55553600  1
  Mg  Mg74  1  0.05182900  0.69057000  0.56668600  1
  Mg  Mg75  1  0.44817100  0.24057000  0.51668600  1
  Mg  Mg76  1  0.94796500  0.24140700  0.57233500  1
  Mg  Mg77  1  0.55203500  0.79140700  0.52233500  1
  Mg  Mg78  1  0.05203500  0.98937800  0.59988700  1
  Mg  Mg79  1  0.44796500  0.53937800  0.54988700  1
  Mg  Mg80  1  0.94300900  0.93941900  0.53878100  1
  Mg  Mg81  1  0.55699100  0.38941900  0.58878100  1
  Mg  Mg82  1  0.05699100  0.39136600  0.53344100  1
  Mg  Mg83  1  0.44300900  0.84136600  0.58344100  1
  Mg  Mg84  1  0.19798500  0.42958500  0.59324400  1
  Mg  Mg85  1  0.30201500  0.97958500  0.54324400  1
  Mg  Mg86  1  0.80201500  0.80120000  0.57897900  1
  Mg  Mg87  1  0.69798500  0.35120000  0.52897900  1
  Mg  Mg88  1  0.19071800  0.12887000  0.55983100  1
  Mg  Mg89  1  0.30928200  0.67887000  0.50983100  1
  Mg  Mg90  1  0.80928200  0.20191500  0.51239100  1
  Mg  Mg91  1  0.69071800  0.65191500  0.56239100  1
  Mg  Mg92  1  0.19186700  0.82816600  0.52641900  1
  Mg  Mg93  1  0.30813300  0.27816600  0.57641900  1
  Mg  Mg94  1  0.80813300  0.50261900  0.54580300  1
  Mg  Mg95  1  0.69186700  0.95261900  0.59580300  1
  Mg  Mg96  1  0.94817100  0.54021500  0.60553600  1
  Mg  Mg97  1  0.55182900  0.99021500  0.65553600  1
  Mg  Mg98  1  0.05182900  0.59057000  0.66668600  1
  Mg  Mg99  1  0.44817100  0.14057000  0.61668600  1
  Mg  Mg100  1  0.94796500  0.14140700  0.67233500  1
  Mg  Mg101  1  0.55203500  0.69140700  0.62233500  1
  Mg  Mg102  1  0.05203500  0.88937800  0.69988700  1
  Mg  Mg103  1  0.44796500  0.43937800  0.64988700  1
  Mg  Mg104  1  0.94300900  0.83941900  0.63878100  1
  Mg  Mg105  1  0.55699100  0.28941900  0.68878100  1
  Mg  Mg106  1  0.05699100  0.29136600  0.63344100  1
  Mg  Mg107  1  0.44300900  0.74136600  0.68344100  1
  Mg  Mg108  1  0.19798500  0.32958500  0.69324400  1
  Mg  Mg109  1  0.30201500  0.87958500  0.64324400  1
  Mg  Mg110  1  0.80201500  0.70120000  0.67897900  1
  Mg  Mg111  1  0.69798500  0.25120000  0.62897900  1
  Mg  Mg112  1  0.19071800  0.02887000  0.65983100  1
  Mg  Mg113  1  0.30928200  0.57887000  0.60983100  1
  Mg  Mg114  1  0.80928200  0.10191500  0.61239100  1
  Mg  Mg115  1  0.69071800  0.55191500  0.66239100  1
  Mg  Mg116  1  0.19186700  0.72816600  0.62641900  1
  Mg  Mg117  1  0.30813300  0.17816600  0.67641900  1
  Mg  Mg118  1  0.80813300  0.40261900  0.64580300  1
  Mg  Mg119  1  0.69186700  0.85261900  0.69580300  1
  Mg  Mg120  1  0.94817100  0.44021500  0.70553600  1
  Mg  Mg121  1  0.55182900  0.89021500  0.75553600  1
  Mg  Mg122  1  0.05182900  0.49057000  0.76668600  1
  Mg  Mg123  1  0.44817100  0.04057000  0.71668600  1
  Mg  Mg124  1  0.55203500  0.59140700  0.72233500  1
  Mg  Mg125  1  0.44796500  0.33937800  0.74988700  1
  Mg  Mg126  1  0.94300900  0.73941900  0.73878100  1
  Mg  Mg127  1  0.05699100  0.19136600  0.73344100  1
  Mg  Mg128  1  0.30201500  0.77958500  0.74324400  1
  Mg  Mg129  1  0.69798500  0.15120000  0.72897900  1
  Mg  Mg130  1  0.19071800  0.92887000  0.75983100  1
  Mg  Mg131  1  0.30928200  0.47887000  0.70983100  1
  Mg  Mg132  1  0.80928200  0.00191500  0.71239100  1
  Mg  Mg133  1  0.69071800  0.45191500  0.76239100  1
  Mg  Mg134  1  0.19186700  0.62816600  0.72641900  1
  Mg  Mg135  1  0.80813300  0.30261900  0.74580300  1
  Au  Au136  1  0.86848600  0.06924000  0.21987200  1
  Au  Au137  1  0.63151400  0.51924000  0.26987200  1
  Au  Au138  1  0.13151400  0.86154500  0.25235000  1
  Au  Au139  1  0.36848600  0.41154500  0.20235000  1
  Au  Au140  1  0.86913300  0.36847200  0.25312000  1
  Au  Au141  1  0.63086700  0.91847200  0.20312000  1
  Au  Au142  1  0.13086700  0.56231300  0.21910200  1
  Au  Au143  1  0.36913300  0.01231300  0.26910200  1
  Au  Au144  1  0.87452300  0.67056500  0.28668600  1
  Au  Au145  1  0.62547700  0.22056500  0.23668600  1
  Au  Au146  1  0.12547700  0.16022000  0.28553600  1
  Au  Au147  1  0.37452300  0.71022000  0.23553600  1
  Au  Au148  1  0.86848600  0.96924000  0.31987200  1
  Au  Au149  1  0.63151400  0.41924000  0.36987200  1
  Au  Au150  1  0.13151400  0.76154500  0.35235000  1
  Au  Au151  1  0.36848600  0.31154500  0.30235000  1
  Au  Au152  1  0.86913300  0.26847200  0.35312000  1
  Au  Au153  1  0.63086700  0.81847200  0.30312000  1
  Au  Au154  1  0.13086700  0.46231300  0.31910200  1
  Au  Au155  1  0.36913300  0.91231300  0.36910200  1
  Au  Au156  1  0.87452300  0.57056500  0.38668600  1
  Au  Au157  1  0.62547700  0.12056500  0.33668600  1
  Au  Au158  1  0.12547700  0.06022000  0.38553600  1
  Au  Au159  1  0.37452300  0.61022000  0.33553600  1
  Au  Au160  1  0.86848600  0.86924000  0.41987200  1
  Au  Au161  1  0.63151400  0.31924000  0.46987200  1
  Au  Au162  1  0.13151400  0.66154500  0.45235000  1
  Au  Au163  1  0.36848600  0.21154500  0.40235000  1
  Au  Au164  1  0.86913300  0.16847200  0.45312000  1
  Au  Au165  1  0.63086700  0.71847200  0.40312000  1
  Au  Au166  1  0.13086700  0.36231300  0.41910200  1
  Au  Au167  1  0.36913300  0.81231300  0.46910200  1
  Au  Au168  1  0.87452300  0.47056500  0.48668600  1
  Au  Au169  1  0.62547700  0.02056500  0.43668600  1
  Au  Au170  1  0.12547700  0.96022000  0.48553600  1
  Au  Au171  1  0.37452300  0.51022000  0.43553600  1
  Au  Au172  1  0.86848600  0.76924000  0.51987200  1
  Au  Au173  1  0.63151400  0.21924000  0.56987200  1
  Au  Au174  1  0.13151400  0.56154500  0.55235000  1
  Au  Au175  1  0.36848600  0.11154500  0.50235000  1
  Au  Au176  1  0.86913300  0.06847200  0.55312000  1
  Au  Au177  1  0.63086700  0.61847200  0.50312000  1
  Au  Au178  1  0.13086700  0.26231300  0.51910200  1
  Au  Au179  1  0.36913300  0.71231300  0.56910200  1
  Au  Au180  1  0.87452300  0.37056500  0.58668600  1
  Au  Au181  1  0.62547700  0.92056500  0.53668600  1
  Au  Au182  1  0.12547700  0.86022000  0.58553600  1
  Au  Au183  1  0.37452300  0.41022000  0.53553600  1
  Au  Au184  1  0.86848600  0.66924000  0.61987200  1
  Au  Au185  1  0.63151400  0.11924000  0.66987200  1
  Au  Au186  1  0.13151400  0.46154500  0.65235000  1
  Au  Au187  1  0.36848600  0.01154500  0.60235000  1
  Au  Au188  1  0.86913300  0.96847200  0.65312000  1
  Au  Au189  1  0.63086700  0.51847200  0.60312000  1
  Au  Au190  1  0.13086700  0.16231300  0.61910200  1
  Au  Au191  1  0.36913300  0.61231300  0.66910200  1
  Au  Au192  1  0.87452300  0.27056500  0.68668600  1
  Au  Au193  1  0.62547700  0.82056500  0.63668600  1
  Au  Au194  1  0.12547700  0.76022000  0.68553600  1
  Au  Au195  1  0.37452300  0.31022000  0.63553600  1
  Au  Au196  1  0.86848600  0.56924000  0.71987200  1
  Au  Au197  1  0.63151400  0.01924000  0.76987200  1
  Au  Au198  1  0.13151400  0.36154500  0.75235000  1
  Au  Au199  1  0.36848600  0.91154500  0.70235000  1
  Au  Au200  1  0.86913300  0.86847200  0.75312000  1
  Au  Au201  1  0.63086700  0.41847200  0.70312000  1
  Au  Au202  1  0.13086700  0.06231300  0.71910200  1
  Au  Au203  1  0.36913300  0.51231300  0.76910200  1
  Au  Au204  1  0.62547700  0.72056500  0.73668600  1
  Au  Au205  1  0.37452300  0.21022000  0.73553600  1
