# generated using pymatgen
data_Mg13Hg6
_symmetry_space_group_name_H-M   'P 1'
_cell_length_a   6.40514000
_cell_length_b   9.83847238
_cell_length_c   45.98578800
_cell_angle_alpha   84.71414465
_cell_angle_beta   90.00000000
_cell_angle_gamma   90.00000000
_symmetry_Int_Tables_number   1
_chemical_formula_structural   Mg13Hg6
_chemical_formula_sum   'Mg52 Hg24'
_cell_volume   2885.55357962
_cell_formula_units_Z   4
loop_
 _symmetry_equiv_pos_site_id
 _symmetry_equiv_pos_as_xyz
  1  'x, y, z'
loop_
 _atom_site_type_symbol
 _atom_site_label
 _atom_site_symmetry_multiplicity
 _atom_site_fract_x
 _atom_site_fract_y
 _atom_site_fract_z
 _atom_site_occupancy
  Mg  Mg0  1  0.46739600  0.17417000  0.19346600  1
  Mg  Mg1  1  0.53260400  0.73023300  0.20047400  1
  Mg  Mg2  1  0.96739600  0.23023300  0.20047400  1
  Mg  Mg3  1  0.03260400  0.67417000  0.19346600  1
  Mg  Mg4  1  0.67749800  0.20258000  0.25951700  1
  Mg  Mg5  1  0.32250200  0.42909600  0.22533200  1
  Mg  Mg6  1  0.17749800  0.92909600  0.22533200  1
  Mg  Mg7  1  0.82250200  0.70258000  0.25951700  1
  Mg  Mg8  1  0.46739600  0.90144300  0.28437500  1
  Mg  Mg9  1  0.53260400  0.45750500  0.29138300  1
  Mg  Mg10  1  0.96739600  0.95750500  0.29138300  1
  Mg  Mg11  1  0.03260400  0.40144300  0.28437500  1
  Mg  Mg12  1  0.67749800  0.92985200  0.35042600  1
  Mg  Mg13  1  0.32250200  0.15636900  0.31624100  1
  Mg  Mg14  1  0.17749800  0.65636900  0.31624100  1
  Mg  Mg15  1  0.82250200  0.42985200  0.35042600  1
  Mg  Mg16  1  0.46739600  0.62871600  0.37528400  1
  Mg  Mg17  1  0.53260400  0.18477800  0.38229200  1
  Mg  Mg18  1  0.96739600  0.68477800  0.38229200  1
  Mg  Mg19  1  0.03260400  0.12871600  0.37528400  1
  Mg  Mg20  1  0.67749800  0.65712500  0.44133500  1
  Mg  Mg21  1  0.32250200  0.88364100  0.40715000  1
  Mg  Mg22  1  0.17749800  0.38364100  0.40715000  1
  Mg  Mg23  1  0.82250200  0.15712500  0.44133500  1
  Mg  Mg24  1  0.46739600  0.35598800  0.46619300  1
  Mg  Mg25  1  0.53260400  0.91205100  0.47320100  1
  Mg  Mg26  1  0.96739600  0.41205100  0.47320100  1
  Mg  Mg27  1  0.03260400  0.85598800  0.46619300  1
  Mg  Mg28  1  0.67749800  0.38439800  0.53224400  1
  Mg  Mg29  1  0.32250200  0.61091400  0.49805900  1
  Mg  Mg30  1  0.17749800  0.11091400  0.49805900  1
  Mg  Mg31  1  0.82250200  0.88439800  0.53224400  1
  Mg  Mg32  1  0.46739600  0.08326100  0.55710200  1
  Mg  Mg33  1  0.53260400  0.63932400  0.56411000  1
  Mg  Mg34  1  0.96739600  0.13932400  0.56411000  1
  Mg  Mg35  1  0.03260400  0.58326100  0.55710200  1
  Mg  Mg36  1  0.67749800  0.11167100  0.62315300  1
  Mg  Mg37  1  0.32250200  0.33818700  0.58896800  1
  Mg  Mg38  1  0.17749800  0.83818700  0.58896800  1
  Mg  Mg39  1  0.82250200  0.61167100  0.62315300  1
  Mg  Mg40  1  0.46739600  0.81053400  0.64801100  1
  Mg  Mg41  1  0.53260400  0.36659600  0.65501900  1
  Mg  Mg42  1  0.96739600  0.86659600  0.65501900  1
  Mg  Mg43  1  0.03260400  0.31053400  0.64801100  1
  Mg  Mg44  1  0.67749800  0.83894300  0.71406200  1
  Mg  Mg45  1  0.32250200  0.06546000  0.67987700  1
  Mg  Mg46  1  0.17749800  0.56546000  0.67987700  1
  Mg  Mg47  1  0.82250200  0.33894300  0.71406200  1
  Mg  Mg48  1  0.46739600  0.53780600  0.73892000  1
  Mg  Mg49  1  0.53260400  0.09386900  0.74592800  1
  Mg  Mg50  1  0.96739600  0.59386900  0.74592800  1
  Mg  Mg51  1  0.03260400  0.03780600  0.73892000  1
  Hg  Hg52  1  0.27973800  0.66877500  0.25529100  1
  Hg  Hg53  1  0.72026200  0.96290100  0.22955700  1
  Hg  Hg54  1  0.77973800  0.46290100  0.22955700  1
  Hg  Hg55  1  0.22026200  0.16877500  0.25529100  1
  Hg  Hg56  1  0.27973800  0.39604700  0.34620000  1
  Hg  Hg57  1  0.72026200  0.69017400  0.32046600  1
  Hg  Hg58  1  0.77973800  0.19017400  0.32046600  1
  Hg  Hg59  1  0.22026200  0.89604700  0.34620000  1
  Hg  Hg60  1  0.27973800  0.12332000  0.43711000  1
  Hg  Hg61  1  0.72026200  0.41744600  0.41137500  1
  Hg  Hg62  1  0.77973800  0.91744600  0.41137500  1
  Hg  Hg63  1  0.22026200  0.62332000  0.43711000  1
  Hg  Hg64  1  0.27973800  0.85059300  0.52801900  1
  Hg  Hg65  1  0.72026200  0.14471900  0.50228400  1
  Hg  Hg66  1  0.77973800  0.64471900  0.50228400  1
  Hg  Hg67  1  0.22026200  0.35059300  0.52801900  1
  Hg  Hg68  1  0.27973800  0.57786500  0.61892800  1
  Hg  Hg69  1  0.72026200  0.87199200  0.59319400  1
  Hg  Hg70  1  0.77973800  0.37199200  0.59319400  1
  Hg  Hg71  1  0.22026200  0.07786500  0.61892800  1
  Hg  Hg72  1  0.27973800  0.30513800  0.70983700  1
  Hg  Hg73  1  0.72026200  0.59926500  0.68410300  1
  Hg  Hg74  1  0.77973800  0.09926500  0.68410300  1
  Hg  Hg75  1  0.22026200  0.80513800  0.70983700  1
