# generated using pymatgen
data_Mg46Ir11
_symmetry_space_group_name_H-M   'P 1'
_cell_length_a   8.24582600
_cell_length_b   9.82944229
_cell_length_c   49.03777500
_cell_angle_alpha   90.00000000
_cell_angle_beta   90.00000000
_cell_angle_gamma   106.23813566
_symmetry_Int_Tables_number   1
_chemical_formula_structural   Mg46Ir11
_chemical_formula_sum   'Mg92 Ir22'
_cell_volume   3816.04764390
_cell_formula_units_Z   2
loop_
 _symmetry_equiv_pos_site_id
 _symmetry_equiv_pos_as_xyz
  1  'x, y, z'
loop_
 _atom_site_type_symbol
 _atom_site_label
 _atom_site_symmetry_multiplicity
 _atom_site_fract_x
 _atom_site_fract_y
 _atom_site_fract_z
 _atom_site_occupancy
  Mg  Mg0  1  0.64581200  0.43743600  0.71354200  1
  Mg  Mg1  1  0.14581200  0.43743600  0.71354200  1
  Mg  Mg2  1  0.39581200  0.43743600  0.75772200  1
  Mg  Mg3  1  0.89581200  0.43743600  0.66936100  1
  Mg  Mg4  1  0.89581200  0.93743600  0.71354200  1
  Mg  Mg5  1  0.39581200  0.93743600  0.71354200  1
  Mg  Mg6  1  0.31189800  0.19967200  0.69489900  1
  Mg  Mg7  1  0.15281600  0.72242500  0.67915700  1
  Mg  Mg8  1  0.63880800  0.15244800  0.67915700  1
  Mg  Mg9  1  0.47972600  0.67520000  0.69489900  1
  Mg  Mg10  1  0.97972600  0.67520000  0.73218500  1
  Mg  Mg11  1  0.13880800  0.15244800  0.74792600  1
  Mg  Mg12  1  0.65281600  0.72242500  0.74792600  1
  Mg  Mg13  1  0.81189800  0.19967200  0.73218500  1
  Mg  Mg14  1  0.39581200  0.68743600  0.63020800  1
  Mg  Mg15  1  0.14581200  0.93743600  0.54687500  1
  Mg  Mg16  1  0.89581200  0.18743600  0.63020800  1
  Mg  Mg17  1  0.89581200  0.68743600  0.63020800  1
  Mg  Mg18  1  0.64581200  0.93743600  0.54687500  1
  Mg  Mg19  1  0.39581200  0.18743600  0.63020800  1
  Mg  Mg20  1  0.57954100  0.98862400  0.60811800  1
  Mg  Mg21  1  0.89581200  0.93743600  0.59105600  1
  Mg  Mg22  1  0.21208300  0.88624900  0.60811800  1
  Mg  Mg23  1  0.21208300  0.38624900  0.65229900  1
  Mg  Mg24  1  0.39581200  0.93743600  0.50269400  1
  Mg  Mg25  1  0.57954100  0.48862400  0.65229900  1
  Mg  Mg26  1  0.39581200  0.43743600  0.54687500  1
  Mg  Mg27  1  0.89581200  0.43743600  0.54687500  1
  Mg  Mg28  1  0.81189800  0.69967200  0.52823200  1
  Mg  Mg29  1  0.65281600  0.22242500  0.51249000  1
  Mg  Mg30  1  0.70874500  0.39021200  0.59990200  1
  Mg  Mg31  1  0.08288000  0.48466100  0.59990200  1
  Mg  Mg32  1  0.13880800  0.65244800  0.51249000  1
  Mg  Mg33  1  0.97972600  0.17520000  0.52823200  1
  Mg  Mg34  1  0.47972600  0.17520000  0.56551800  1
  Mg  Mg35  1  0.63880800  0.65244800  0.58126000  1
  Mg  Mg36  1  0.08288000  0.98466100  0.66051400  1
  Mg  Mg37  1  0.70874500  0.89021200  0.66051400  1
  Mg  Mg38  1  0.15281600  0.22242500  0.58126000  1
  Mg  Mg39  1  0.31189800  0.69967200  0.56551800  1
  Mg  Mg40  1  0.89581200  0.18743600  0.46354200  1
  Mg  Mg41  1  0.64581200  0.43743600  0.38020800  1
  Mg  Mg42  1  0.39581200  0.68743600  0.46354200  1
  Mg  Mg43  1  0.39581200  0.18743600  0.46354200  1
  Mg  Mg44  1  0.14581200  0.43743600  0.38020800  1
  Mg  Mg45  1  0.89581200  0.68743600  0.46354200  1
  Mg  Mg46  1  0.07954100  0.48862400  0.44145100  1
  Mg  Mg47  1  0.39581200  0.43743600  0.42438900  1
  Mg  Mg48  1  0.71208300  0.38624900  0.44145100  1
  Mg  Mg49  1  0.71208300  0.88624900  0.48563200  1
  Mg  Mg50  1  0.89581200  0.43743600  0.33602800  1
  Mg  Mg51  1  0.07954100  0.98862400  0.48563200  1
  Mg  Mg52  1  0.89581200  0.93743600  0.38020800  1
  Mg  Mg53  1  0.39581200  0.93743600  0.38020800  1
  Mg  Mg54  1  0.31189800  0.19967200  0.36156500  1
  Mg  Mg55  1  0.15281600  0.72242500  0.34582400  1
  Mg  Mg56  1  0.20874500  0.89021200  0.43323600  1
  Mg  Mg57  1  0.58288000  0.98466100  0.43323600  1
  Mg  Mg58  1  0.63880800  0.15244800  0.34582400  1
  Mg  Mg59  1  0.47972600  0.67520000  0.36156500  1
  Mg  Mg60  1  0.97972600  0.67520000  0.39885100  1
  Mg  Mg61  1  0.13880800  0.15244800  0.41459300  1
  Mg  Mg62  1  0.58288000  0.48466100  0.49384800  1
  Mg  Mg63  1  0.20874500  0.39021200  0.49384800  1
  Mg  Mg64  1  0.65281600  0.72242500  0.41459300  1
  Mg  Mg65  1  0.81189800  0.19967200  0.39885100  1
  Mg  Mg66  1  0.39581200  0.68743600  0.29687500  1
  Mg  Mg67  1  0.14581200  0.93743600  0.21354200  1
  Mg  Mg68  1  0.89581200  0.18743600  0.29687500  1
  Mg  Mg69  1  0.89581200  0.68743600  0.29687500  1
  Mg  Mg70  1  0.64581200  0.93743600  0.21354200  1
  Mg  Mg71  1  0.39581200  0.18743600  0.29687500  1
  Mg  Mg72  1  0.57954100  0.98862400  0.27478500  1
  Mg  Mg73  1  0.89581200  0.93743600  0.25772200  1
  Mg  Mg74  1  0.21208300  0.88624900  0.27478500  1
  Mg  Mg75  1  0.21208300  0.38624900  0.31896500  1
  Mg  Mg76  1  0.39581200  0.93743600  0.16936100  1
  Mg  Mg77  1  0.57954100  0.48862400  0.31896500  1
  Mg  Mg78  1  0.39581200  0.43743600  0.21354200  1
  Mg  Mg79  1  0.89581200  0.43743600  0.21354200  1
  Mg  Mg80  1  0.81189800  0.69967200  0.19489900  1
  Mg  Mg81  1  0.65281600  0.22242500  0.17915700  1
  Mg  Mg82  1  0.70874500  0.39021200  0.26656900  1
  Mg  Mg83  1  0.08288000  0.48466100  0.26656900  1
  Mg  Mg84  1  0.13880800  0.65244800  0.17915700  1
  Mg  Mg85  1  0.97972600  0.17520000  0.19489900  1
  Mg  Mg86  1  0.47972600  0.17520000  0.23218500  1
  Mg  Mg87  1  0.63880800  0.65244800  0.24792600  1
  Mg  Mg88  1  0.08288000  0.98466100  0.32718100  1
  Mg  Mg89  1  0.70874500  0.89021200  0.32718100  1
  Mg  Mg90  1  0.15281600  0.22242500  0.24792600  1
  Mg  Mg91  1  0.31189800  0.69967200  0.23218500  1
  Ir  Ir92  1  0.30948700  0.67846000  0.74231700  1
  Ir  Ir93  1  0.48213700  0.19641200  0.74231700  1
  Ir  Ir94  1  0.98213700  0.19641200  0.68476700  1
  Ir  Ir95  1  0.80948700  0.67846000  0.68476700  1
  Ir  Ir96  1  0.80948700  0.17846000  0.57565000  1
  Ir  Ir97  1  0.39581200  0.93743600  0.65599100  1
  Ir  Ir98  1  0.98213700  0.69641200  0.57565000  1
  Ir  Ir99  1  0.48213700  0.69641200  0.51810000  1
  Ir  Ir100  1  0.39581200  0.43743600  0.60442500  1
  Ir  Ir101  1  0.30948700  0.17846000  0.51810000  1
  Ir  Ir102  1  0.30948700  0.67846000  0.40898300  1
  Ir  Ir103  1  0.89581200  0.43743600  0.48932500  1
  Ir  Ir104  1  0.48213700  0.19641200  0.40898300  1
  Ir  Ir105  1  0.98213700  0.19641200  0.35143300  1
  Ir  Ir106  1  0.89581200  0.93743600  0.43775900  1
  Ir  Ir107  1  0.80948700  0.67846000  0.35143300  1
  Ir  Ir108  1  0.80948700  0.17846000  0.24231700  1
  Ir  Ir109  1  0.39581200  0.93743600  0.32265800  1
  Ir  Ir110  1  0.98213700  0.69641200  0.24231700  1
  Ir  Ir111  1  0.48213700  0.69641200  0.18476700  1
  Ir  Ir112  1  0.39581200  0.43743600  0.27109200  1
  Ir  Ir113  1  0.30948700  0.17846000  0.18476700  1
