# generated using pymatgen
data_MgAg2
_symmetry_space_group_name_H-M   'P 1'
_cell_length_a   4.87780300
_cell_length_b   5.11669493
_cell_length_c   44.09373700
_cell_angle_alpha   90.48976460
_cell_angle_beta   90.00000000
_cell_angle_gamma   90.00000000
_symmetry_Int_Tables_number   1
_chemical_formula_structural   MgAg2
_chemical_formula_sum   'Mg12 Ag24'
_cell_volume   1100.46141929
_cell_formula_units_Z   12
loop_
 _symmetry_equiv_pos_site_id
 _symmetry_equiv_pos_as_xyz
  1  'x, y, z'
loop_
 _atom_site_type_symbol
 _atom_site_label
 _atom_site_symmetry_multiplicity
 _atom_site_fract_x
 _atom_site_fract_y
 _atom_site_fract_z
 _atom_site_occupancy
  Mg  Mg0  1  0.75000000  0.70164900  0.78033000  1
  Mg  Mg1  1  0.25000000  0.39835100  0.71967000  1
  Mg  Mg2  1  0.75000000  0.20164900  0.68033000  1
  Mg  Mg3  1  0.25000000  0.89835100  0.61967000  1
  Mg  Mg4  1  0.75000000  0.70164900  0.58033000  1
  Mg  Mg5  1  0.25000000  0.39835100  0.51967000  1
  Mg  Mg6  1  0.75000000  0.20164900  0.48033000  1
  Mg  Mg7  1  0.25000000  0.89835100  0.41967000  1
  Mg  Mg8  1  0.75000000  0.70164900  0.38033000  1
  Mg  Mg9  1  0.25000000  0.39835100  0.31967000  1
  Mg  Mg10  1  0.75000000  0.20164900  0.28033000  1
  Mg  Mg11  1  0.25000000  0.89835100  0.21967000  1
  Ag  Ag12  1  0.25000000  0.89232900  0.75188000  1
  Ag  Ag13  1  0.75000000  0.70706400  0.71482700  1
  Ag  Ag14  1  0.75000000  0.20767100  0.74812000  1
  Ag  Ag15  1  0.25000000  0.39293600  0.78517300  1
  Ag  Ag16  1  0.25000000  0.39232900  0.65188000  1
  Ag  Ag17  1  0.75000000  0.20706400  0.61482700  1
  Ag  Ag18  1  0.75000000  0.70767100  0.64812000  1
  Ag  Ag19  1  0.25000000  0.89293600  0.68517300  1
  Ag  Ag20  1  0.25000000  0.89232900  0.55188000  1
  Ag  Ag21  1  0.75000000  0.70706400  0.51482700  1
  Ag  Ag22  1  0.75000000  0.20767100  0.54812000  1
  Ag  Ag23  1  0.25000000  0.39293600  0.58517300  1
  Ag  Ag24  1  0.25000000  0.39232900  0.45188000  1
  Ag  Ag25  1  0.75000000  0.20706400  0.41482700  1
  Ag  Ag26  1  0.75000000  0.70767100  0.44812000  1
  Ag  Ag27  1  0.25000000  0.89293600  0.48517300  1
  Ag  Ag28  1  0.25000000  0.89232900  0.35188000  1
  Ag  Ag29  1  0.75000000  0.70706400  0.31482700  1
  Ag  Ag30  1  0.75000000  0.20767100  0.34812000  1
  Ag  Ag31  1  0.25000000  0.39293600  0.38517300  1
  Ag  Ag32  1  0.25000000  0.39232900  0.25188000  1
  Ag  Ag33  1  0.75000000  0.20706400  0.21482700  1
  Ag  Ag34  1  0.75000000  0.70767100  0.24812000  1
  Ag  Ag35  1  0.25000000  0.89293600  0.28517300  1
