# generated using pymatgen
data_Mg5In2
_symmetry_space_group_name_H-M   'P 1'
_cell_length_a   6.31272300
_cell_length_b   7.10486100
_cell_length_c   58.65194500
_cell_angle_alpha   90.00000000
_cell_angle_beta   90.00000000
_cell_angle_gamma   90.00000000
_symmetry_Int_Tables_number   1
_chemical_formula_structural   Mg5In2
_chemical_formula_sum   'Mg40 In16'
_cell_volume   2630.59952577
_cell_formula_units_Z   8
loop_
 _symmetry_equiv_pos_site_id
 _symmetry_equiv_pos_as_xyz
  1  'x, y, z'
loop_
 _atom_site_type_symbol
 _atom_site_label
 _atom_site_symmetry_multiplicity
 _atom_site_fract_x
 _atom_site_fract_y
 _atom_site_fract_z
 _atom_site_occupancy
  Mg  Mg0  1  1.00000000  0.16542200  0.45876900  1
  Mg  Mg1  1  0.50000000  0.33457800  0.29123100  1
  Mg  Mg2  1  1.00000000  0.66542200  0.29123100  1
  Mg  Mg3  1  0.50000000  0.83457800  0.45876900  1
  Mg  Mg4  1  0.25000000  0.50000000  0.43750000  1
  Mg  Mg5  1  0.75000000  0.50000000  0.43750000  1
  Mg  Mg6  1  0.75000000  0.00000000  0.25335800  1
  Mg  Mg7  1  0.25000000  0.50000000  0.49664200  1
  Mg  Mg8  1  0.75000000  0.50000000  0.49664200  1
  Mg  Mg9  1  0.25000000  0.00000000  0.25335800  1
  Mg  Mg10  1  0.50000000  0.66542200  0.33376900  1
  Mg  Mg11  1  1.00000000  0.83457800  0.41623100  1
  Mg  Mg12  1  0.50000000  0.16542200  0.41623100  1
  Mg  Mg13  1  0.00000000  0.33457800  0.33376900  1
  Mg  Mg14  1  0.75000000  0.00000000  0.31250000  1
  Mg  Mg15  1  0.25000000  0.00000000  0.31250000  1
  Mg  Mg16  1  0.25000000  0.50000000  0.37835800  1
  Mg  Mg17  1  0.75000000  0.00000000  0.37164200  1
  Mg  Mg18  1  0.25000000  0.00000000  0.37164200  1
  Mg  Mg19  1  0.75000000  0.50000000  0.37835800  1
  Mg  Mg20  1  1.00000000  0.16542200  0.70876900  1
  Mg  Mg21  1  0.50000000  0.33457800  0.54123100  1
  Mg  Mg22  1  1.00000000  0.66542200  0.54123100  1
  Mg  Mg23  1  0.50000000  0.83457800  0.70876900  1
  Mg  Mg24  1  0.25000000  0.50000000  0.68750000  1
  Mg  Mg25  1  0.75000000  0.50000000  0.68750000  1
  Mg  Mg26  1  0.75000000  0.00000000  0.50335800  1
  Mg  Mg27  1  0.25000000  0.50000000  0.74664200  1
  Mg  Mg28  1  0.75000000  0.50000000  0.74664200  1
  Mg  Mg29  1  0.25000000  0.00000000  0.50335800  1
  Mg  Mg30  1  0.50000000  0.66542200  0.58376900  1
  Mg  Mg31  1  1.00000000  0.83457800  0.66623100  1
  Mg  Mg32  1  0.50000000  0.16542200  0.66623100  1
  Mg  Mg33  1  0.00000000  0.33457800  0.58376900  1
  Mg  Mg34  1  0.75000000  0.00000000  0.56250000  1
  Mg  Mg35  1  0.25000000  0.00000000  0.56250000  1
  Mg  Mg36  1  0.25000000  0.50000000  0.62835800  1
  Mg  Mg37  1  0.75000000  0.00000000  0.62164200  1
  Mg  Mg38  1  0.25000000  0.00000000  0.62164200  1
  Mg  Mg39  1  0.75000000  0.50000000  0.62835800  1
  In  In40  1  1.00000000  0.76117200  0.46800900  1
  In  In41  1  0.50000000  0.73882800  0.28199100  1
  In  In42  1  0.00000000  0.26117200  0.28199100  1
  In  In43  1  0.50000000  0.23882800  0.46800900  1
  In  In44  1  0.50000000  0.26117200  0.34300900  1
  In  In45  1  1.00000000  0.23882800  0.40699100  1
  In  In46  1  0.50000000  0.76117200  0.40699100  1
  In  In47  1  0.00000000  0.73882800  0.34300900  1
  In  In48  1  1.00000000  0.76117200  0.71800900  1
  In  In49  1  0.50000000  0.73882800  0.53199100  1
  In  In50  1  0.00000000  0.26117200  0.53199100  1
  In  In51  1  0.50000000  0.23882800  0.71800900  1
  In  In52  1  0.50000000  0.26117200  0.59300900  1
  In  In53  1  1.00000000  0.23882800  0.65699100  1
  In  In54  1  0.50000000  0.76117200  0.65699100  1
  In  In55  1  0.00000000  0.73882800  0.59300900  1
