# generated using pymatgen
data_Sr12Mg113
_symmetry_space_group_name_H-M   'P 1'
_cell_length_a   10.60291300
_cell_length_b   14.66206680
_cell_length_c   47.66603800
_cell_angle_alpha   92.42755603
_cell_angle_beta   90.00000000
_cell_angle_gamma   68.80296164
_symmetry_Int_Tables_number   1
_chemical_formula_structural   Sr12Mg113
_chemical_formula_sum   'Sr12 Mg113'
_cell_volume   6901.70350145
_cell_formula_units_Z   1
loop_
 _symmetry_equiv_pos_site_id
 _symmetry_equiv_pos_as_xyz
  1  'x, y, z'
loop_
 _atom_site_type_symbol
 _atom_site_label
 _atom_site_symmetry_multiplicity
 _atom_site_fract_x
 _atom_site_fract_y
 _atom_site_fract_z
 _atom_site_occupancy
  Sr  Sr0  1  0.45209300  0.09581300  0.31829600  1
  Sr  Sr1  1  0.16637900  0.66724200  0.29448600  1
  Sr  Sr2  1  0.73780800  0.52438500  0.34210500  1
  Sr  Sr3  1  0.88066500  0.23867000  0.27067700  1
  Sr  Sr4  1  0.16637900  0.66724200  0.46115300  1
  Sr  Sr5  1  0.88066500  0.23867000  0.43734300  1
  Sr  Sr6  1  0.45209300  0.09581300  0.48496200  1
  Sr  Sr7  1  0.59495000  0.81009900  0.41353400  1
  Sr  Sr8  1  0.88066500  0.23867000  0.60401000  1
  Sr  Sr9  1  0.59495000  0.81009900  0.58020100  1
  Sr  Sr10  1  0.16637900  0.66724200  0.62782000  1
  Sr  Sr11  1  0.30923600  0.38152800  0.55639100  1
  Mg  Mg12  1  0.15935700  0.68128500  0.21365700  1
  Mg  Mg13  1  0.01477400  0.46441100  0.28594900  1
  Mg  Mg14  1  0.52081400  0.46441100  0.28594900  1
  Mg  Mg15  1  0.22819700  0.03756500  0.26156400  1
  Mg  Mg16  1  0.06692100  0.86615800  0.34421500  1
  Mg  Mg17  1  0.63835000  0.72330000  0.22516800  1
  Mg  Mg18  1  0.55155100  0.89689800  0.26856700  1
  Mg  Mg19  1  0.26583700  0.46832600  0.24475700  1
  Mg  Mg20  1  0.45209300  0.09581300  0.23496200  1
  Mg  Mg21  1  0.95209300  0.59581300  0.23496200  1
  Mg  Mg22  1  0.45209300  0.59581300  0.23496200  1
  Mg  Mg23  1  0.30923600  0.88152800  0.30639100  1
  Mg  Mg24  1  0.80923600  0.88152800  0.30639100  1
  Mg  Mg25  1  0.30923600  0.38152800  0.30639100  1
  Mg  Mg26  1  0.52570900  0.25454200  0.26538600  1
  Mg  Mg27  1  0.89262900  0.81216900  0.24617700  1
  Mg  Mg28  1  0.51374400  0.68104400  0.28988600  1
  Mg  Mg29  1  0.10472800  0.08201200  0.32289600  1
  Mg  Mg30  1  0.01155700  0.37945700  0.22374800  1
  Mg  Mg31  1  0.39872400  0.50851300  0.34739600  1
  Mg  Mg32  1  0.80521200  0.68104400  0.28988600  1
  Mg  Mg33  1  0.09276300  0.50851300  0.34739600  1
  Mg  Mg34  1  0.29520100  0.81216900  0.24617700  1
  Mg  Mg35  1  0.60898500  0.37945700  0.22374800  1
  Mg  Mg36  1  0.21974900  0.25454200  0.26538600  1
  Mg  Mg37  1  0.81326000  0.08201200  0.32289600  1
  Mg  Mg38  1  0.39027500  0.72549000  0.35121800  1
  Mg  Mg39  1  0.60369800  0.29864400  0.32683300  1
  Mg  Mg40  1  0.74482900  0.51034100  0.25626800  1
  Mg  Mg41  1  0.02881800  0.94236400  0.27892700  1
  Mg  Mg42  1  0.88423500  0.72549000  0.35121800  1
  Mg  Mg43  1  0.73423700  0.03756500  0.26156400  1
  Mg  Mg44  1  0.58965400  0.82069100  0.33385500  1
  Mg  Mg45  1  0.09765800  0.29864400  0.32683300  1
  Mg  Mg46  1  0.87364300  0.25271400  0.35651400  1
  Mg  Mg47  1  0.72906000  0.03584000  0.42880600  1
  Mg  Mg48  1  0.23510000  0.03584000  0.42880600  1
  Mg  Mg49  1  0.94248300  0.60899400  0.40442100  1
  Mg  Mg50  1  0.78120700  0.43758600  0.48707200  1
  Mg  Mg51  1  0.35263500  0.29472900  0.36802500  1
  Mg  Mg52  1  0.26583700  0.46832600  0.41142400  1
  Mg  Mg53  1  0.98012300  0.03975500  0.38761400  1
  Mg  Mg54  1  0.16637900  0.66724200  0.37782000  1
  Mg  Mg55  1  0.66637900  0.16724200  0.37782000  1
  Mg  Mg56  1  0.16637900  0.16724200  0.37782000  1
  Mg  Mg57  1  0.02352200  0.45295600  0.44924800  1
  Mg  Mg58  1  0.52352200  0.45295600  0.44924800  1
  Mg  Mg59  1  0.02352200  0.95295600  0.44924800  1
  Mg  Mg60  1  0.23999500  0.82597100  0.40824300  1
  Mg  Mg61  1  0.60691500  0.38359800  0.38903400  1
  Mg  Mg62  1  0.22803000  0.25247200  0.43274300  1
  Mg  Mg63  1  0.81901400  0.65344000  0.46575300  1
  Mg  Mg64  1  0.72584300  0.95088600  0.36660500  1
  Mg  Mg65  1  0.11301000  0.07994100  0.49025300  1
  Mg  Mg66  1  0.51949800  0.25247200  0.43274300  1
  Mg  Mg67  1  0.80704900  0.07994100  0.49025300  1
  Mg  Mg68  1  0.00948700  0.38359800  0.38903400  1
  Mg  Mg69  1  0.32327100  0.95088600  0.36660500  1
  Mg  Mg70  1  0.93403400  0.82597100  0.40824300  1
  Mg  Mg71  1  0.52754600  0.65344000  0.46575300  1
  Mg  Mg72  1  0.10456100  0.29691800  0.49407500  1
  Mg  Mg73  1  0.31798400  0.87007300  0.46969100  1
  Mg  Mg74  1  0.45911500  0.08177000  0.39912500  1
  Mg  Mg75  1  0.74310400  0.51379300  0.42178400  1
  Mg  Mg76  1  0.59852100  0.29691800  0.49407500  1
  Mg  Mg77  1  0.44852300  0.60899400  0.40442100  1
  Mg  Mg78  1  0.30394000  0.39212000  0.47671200  1
  Mg  Mg79  1  0.81194400  0.87007300  0.46969100  1
  Mg  Mg80  1  0.58792900  0.82414300  0.49937100  1
  Mg  Mg81  1  0.44334600  0.60726800  0.57166300  1
  Mg  Mg82  1  0.94938600  0.60726800  0.57166300  1
  Mg  Mg83  1  0.65676900  0.18042300  0.54727800  1
  Mg  Mg84  1  0.49549300  0.00901500  0.62992900  1
  Mg  Mg85  1  0.06692100  0.86615800  0.51088200  1
  Mg  Mg86  1  0.98012300  0.03975500  0.55428100  1
  Mg  Mg87  1  0.69440800  0.61118300  0.53047200  1
  Mg  Mg88  1  0.88066500  0.23867000  0.52067700  1
  Mg  Mg89  1  0.38066500  0.73867000  0.52067700  1
  Mg  Mg90  1  0.88066500  0.73867000  0.52067700  1
  Mg  Mg91  1  0.73780800  0.02438500  0.59210500  1
  Mg  Mg92  1  0.23780800  0.02438500  0.59210500  1
  Mg  Mg93  1  0.73780800  0.52438500  0.59210500  1
  Mg  Mg94  1  0.95428000  0.39740000  0.55110000  1
  Mg  Mg95  1  0.32120100  0.95502700  0.53189100  1
  Mg  Mg96  1  0.94231600  0.82390100  0.57560000  1
  Mg  Mg97  1  0.53330000  0.22486900  0.60861100  1
  Mg  Mg98  1  0.44012900  0.52231400  0.50946200  1
  Mg  Mg99  1  0.82729500  0.65137000  0.63311000  1
  Mg  Mg100  1  0.23378400  0.82390100  0.57560000  1
  Mg  Mg101  1  0.52133500  0.65137000  0.63311000  1
  Mg  Mg102  1  0.72377300  0.95502700  0.53189100  1
  Mg  Mg103  1  0.03755700  0.52231400  0.50946200  1
  Mg  Mg104  1  0.64832000  0.39740000  0.55110000  1
  Mg  Mg105  1  0.24183200  0.22486900  0.60861100  1
  Mg  Mg106  1  0.81884700  0.86834700  0.63693200  1
  Mg  Mg107  1  0.03226900  0.44150100  0.61254800  1
  Mg  Mg108  1  0.17340100  0.65319800  0.54198200  1
  Mg  Mg109  1  0.45738900  0.08522100  0.56464100  1
  Mg  Mg110  1  0.31280600  0.86834700  0.63693200  1
  Mg  Mg111  1  0.16280900  0.18042300  0.54727800  1
  Mg  Mg112  1  0.01822600  0.96354800  0.61956900  1
  Mg  Mg113  1  0.52622900  0.44150100  0.61254800  1
  Mg  Mg114  1  0.30221400  0.39557100  0.64222900  1
  Mg  Mg115  1  0.78120700  0.43758600  0.65373900  1
  Mg  Mg116  1  0.40869400  0.18261200  0.67332900  1
  Mg  Mg117  1  0.59495000  0.81009900  0.66353400  1
  Mg  Mg118  1  0.09495000  0.31009900  0.66353400  1
  Mg  Mg119  1  0.59495000  0.31009900  0.66353400  1
  Mg  Mg120  1  0.03548700  0.52645500  0.67474800  1
  Mg  Mg121  1  0.15441400  0.09374300  0.65231900  1
  Mg  Mg122  1  0.43805800  0.52645500  0.67474800  1
  Mg  Mg123  1  0.75184300  0.09374300  0.65231900  1
  Mg  Mg124  1  0.88768700  0.22462700  0.68483900  1
