# generated using pymatgen
data_CeMg2
_symmetry_space_group_name_H-M   'P 1'
_cell_length_a   6.10380826
_cell_length_b   9.04803440
_cell_length_c   43.09862600
_cell_angle_alpha   93.06597768
_cell_angle_beta   91.86959958
_cell_angle_gamma   95.28202900
_symmetry_Int_Tables_number   1
_chemical_formula_structural   CeMg2
_chemical_formula_sum   'Ce20 Mg40'
_cell_volume   2365.03990550
_cell_formula_units_Z   20
loop_
 _symmetry_equiv_pos_site_id
 _symmetry_equiv_pos_as_xyz
  1  'x, y, z'
loop_
 _atom_site_type_symbol
 _atom_site_label
 _atom_site_symmetry_multiplicity
 _atom_site_fract_x
 _atom_site_fract_y
 _atom_site_fract_z
 _atom_site_occupancy
  Ce  Ce0  1  0.17780900  0.12802100  0.20554800  1
  Ce  Ce1  1  0.57219100  0.30947900  0.23195200  1
  Ce  Ce2  1  0.92780900  0.19052100  0.26804800  1
  Ce  Ce3  1  0.32219100  0.37197900  0.29445200  1
  Ce  Ce4  1  0.67780900  0.25302100  0.33054800  1
  Ce  Ce5  1  0.07219100  0.43447900  0.35695200  1
  Ce  Ce6  1  0.42780900  0.31552100  0.39304800  1
  Ce  Ce7  1  0.82219100  0.49697900  0.41945200  1
  Ce  Ce8  1  0.17780900  0.37802100  0.45554800  1
  Ce  Ce9  1  0.57219100  0.55947900  0.48195200  1
  Ce  Ce10  1  0.92780900  0.44052100  0.51804800  1
  Ce  Ce11  1  0.32219100  0.62197900  0.54445200  1
  Ce  Ce12  1  0.67780900  0.50302100  0.58054800  1
  Ce  Ce13  1  0.07219100  0.68447900  0.60695200  1
  Ce  Ce14  1  0.42780900  0.56552100  0.64304800  1
  Ce  Ce15  1  0.82219100  0.74697900  0.66945200  1
  Ce  Ce16  1  0.17780900  0.62802100  0.70554800  1
  Ce  Ce17  1  0.57219100  0.80947900  0.73195200  1
  Ce  Ce18  1  0.92780900  0.69052100  0.76804800  1
  Ce  Ce19  1  0.32219100  0.87197900  0.79445200  1
  Mg  Mg20  1  0.09389800  0.47771100  0.22652500  1
  Mg  Mg21  1  0.00804700  0.81236300  0.24798800  1
  Mg  Mg22  1  0.74195300  0.62513700  0.18951200  1
  Mg  Mg23  1  0.65610200  0.95978900  0.21097500  1
  Mg  Mg24  1  0.84389800  0.54021100  0.28902500  1
  Mg  Mg25  1  0.75804700  0.87486300  0.31048800  1
  Mg  Mg26  1  0.49195300  0.68763700  0.25201200  1
  Mg  Mg27  1  0.40610200  0.02228900  0.27347500  1
  Mg  Mg28  1  0.59389800  0.60271100  0.35152500  1
  Mg  Mg29  1  0.50804700  0.93736300  0.37298800  1
  Mg  Mg30  1  0.24195300  0.75013700  0.31451200  1
  Mg  Mg31  1  0.15610200  0.08478900  0.33597500  1
  Mg  Mg32  1  0.34389800  0.66521100  0.41402500  1
  Mg  Mg33  1  0.25804700  0.99986300  0.43548800  1
  Mg  Mg34  1  0.99195300  0.81263700  0.37701200  1
  Mg  Mg35  1  0.90610200  0.14728900  0.39847500  1
  Mg  Mg36  1  0.09389800  0.72771100  0.47652500  1
  Mg  Mg37  1  0.00804700  0.06236300  0.49798800  1
  Mg  Mg38  1  0.74195300  0.87513700  0.43951200  1
  Mg  Mg39  1  0.65610200  0.20978900  0.46097500  1
  Mg  Mg40  1  0.84389800  0.79021100  0.53902500  1
  Mg  Mg41  1  0.75804700  0.12486300  0.56048800  1
  Mg  Mg42  1  0.49195300  0.93763700  0.50201200  1
  Mg  Mg43  1  0.40610200  0.27228900  0.52347500  1
  Mg  Mg44  1  0.59389800  0.85271100  0.60152500  1
  Mg  Mg45  1  0.50804700  0.18736300  0.62298800  1
  Mg  Mg46  1  0.24195300  0.00013700  0.56451200  1
  Mg  Mg47  1  0.15610200  0.33478900  0.58597500  1
  Mg  Mg48  1  0.34389800  0.91521100  0.66402500  1
  Mg  Mg49  1  0.25804700  0.24986300  0.68548800  1
  Mg  Mg50  1  0.99195300  0.06263700  0.62701200  1
  Mg  Mg51  1  0.90610200  0.39728900  0.64847500  1
  Mg  Mg52  1  0.09389800  0.97771100  0.72652500  1
  Mg  Mg53  1  0.00804700  0.31236300  0.74798800  1
  Mg  Mg54  1  0.74195300  0.12513700  0.68951200  1
  Mg  Mg55  1  0.65610200  0.45978900  0.71097500  1
  Mg  Mg56  1  0.84389800  0.04021100  0.78902500  1
  Mg  Mg57  1  0.75804700  0.37486300  0.81048800  1
  Mg  Mg58  1  0.49195300  0.18763700  0.75201200  1
  Mg  Mg59  1  0.40610200  0.52228900  0.77347500  1
