# generated using pymatgen
data_Mg57Zn97
_symmetry_space_group_name_H-M   'P 1'
_cell_length_a   14.70723629
_cell_length_b   15.05206002
_cell_length_c   44.20851200
_cell_angle_alpha   83.82995566
_cell_angle_beta   98.78068454
_cell_angle_gamma   102.44989049
_symmetry_Int_Tables_number   1
_chemical_formula_structural   Mg57Zn97
_chemical_formula_sum   'Mg114 Zn194'
_cell_volume   9416.24993022
_cell_formula_units_Z   2
loop_
 _symmetry_equiv_pos_site_id
 _symmetry_equiv_pos_as_xyz
  1  'x, y, z'
loop_
 _atom_site_type_symbol
 _atom_site_label
 _atom_site_symmetry_multiplicity
 _atom_site_fract_x
 _atom_site_fract_y
 _atom_site_fract_z
 _atom_site_occupancy
  Mg  Mg0  1  0.10018000  0.19563700  0.21751900  1
  Mg  Mg1  1  0.28657500  0.77203400  0.26920600  1
  Mg  Mg2  1  0.64768300  0.19192800  0.28898700  1
  Mg  Mg3  1  0.04358200  0.00055200  0.24762800  1
  Mg  Mg4  1  0.39784500  0.94100900  0.23467600  1
  Mg  Mg5  1  0.97194700  0.31893400  0.24449800  1
  Mg  Mg6  1  0.42345600  0.11703400  0.27205600  1
  Mg  Mg7  1  0.95641800  0.83881100  0.21237200  1
  Mg  Mg8  1  0.32381600  0.26949100  0.23341300  1
  Mg  Mg9  1  0.60215500  0.89835300  0.22532400  1
  Mg  Mg10  1  0.35231700  0.44743500  0.27101300  1
  Mg  Mg11  1  0.67618400  0.56987200  0.22658700  1
  Mg  Mg12  1  0.09508800  0.81043500  0.27781900  1
  Mg  Mg13  1  0.74882900  0.24262400  0.22773000  1
  Mg  Mg14  1  0.25117100  0.59673800  0.23227000  1
  Mg  Mg15  1  0.57654400  0.52232900  0.28794400  1
  Mg  Mg16  1  0.89982000  0.64372500  0.24248100  1
  Mg  Mg17  1  0.02805300  0.52042800  0.21550200  1
  Mg  Mg18  1  0.71342500  0.06732800  0.19079400  1
  Mg  Mg19  1  0.90491200  0.82892700  0.28218100  1
  Mg  Mg20  1  0.10018000  0.99563700  0.31751900  1
  Mg  Mg21  1  0.28657500  0.57203400  0.36920600  1
  Mg  Mg22  1  0.64768300  0.99192800  0.38898700  1
  Mg  Mg23  1  0.04358200  0.80055200  0.34762800  1
  Mg  Mg24  1  0.39784500  0.74100900  0.33467600  1
  Mg  Mg25  1  0.97194700  0.11893400  0.34449800  1
  Mg  Mg26  1  0.42345600  0.91703400  0.37205600  1
  Mg  Mg27  1  0.95641800  0.63881100  0.31237200  1
  Mg  Mg28  1  0.32381600  0.06949100  0.33341300  1
  Mg  Mg29  1  0.60215500  0.69835300  0.32532400  1
  Mg  Mg30  1  0.35231700  0.24743500  0.37101300  1
  Mg  Mg31  1  0.67618400  0.36987200  0.32658700  1
  Mg  Mg32  1  0.09508800  0.61043500  0.37781900  1
  Mg  Mg33  1  0.74882900  0.04262400  0.32773000  1
  Mg  Mg34  1  0.25117100  0.39673800  0.33227000  1
  Mg  Mg35  1  0.57654400  0.32232900  0.38794400  1
  Mg  Mg36  1  0.89982000  0.44372500  0.34248100  1
  Mg  Mg37  1  0.02805300  0.32042800  0.31550200  1
  Mg  Mg38  1  0.71342500  0.86732800  0.29079400  1
  Mg  Mg39  1  0.90491200  0.62892700  0.38218100  1
  Mg  Mg40  1  0.10018000  0.79563700  0.41751900  1
  Mg  Mg41  1  0.28657500  0.37203400  0.46920600  1
  Mg  Mg42  1  0.64768300  0.79192800  0.48898700  1
  Mg  Mg43  1  0.04358200  0.60055200  0.44762800  1
  Mg  Mg44  1  0.39784500  0.54100900  0.43467600  1
  Mg  Mg45  1  0.97194700  0.91893400  0.44449800  1
  Mg  Mg46  1  0.42345600  0.71703400  0.47205600  1
  Mg  Mg47  1  0.95641800  0.43881100  0.41237200  1
  Mg  Mg48  1  0.32381600  0.86949100  0.43341300  1
  Mg  Mg49  1  0.60215500  0.49835300  0.42532400  1
  Mg  Mg50  1  0.35231700  0.04743500  0.47101300  1
  Mg  Mg51  1  0.67618400  0.16987200  0.42658700  1
  Mg  Mg52  1  0.09508800  0.41043500  0.47781900  1
  Mg  Mg53  1  0.74882900  0.84262400  0.42773000  1
  Mg  Mg54  1  0.25117100  0.19673800  0.43227000  1
  Mg  Mg55  1  0.57654400  0.12232900  0.48794400  1
  Mg  Mg56  1  0.89982000  0.24372500  0.44248100  1
  Mg  Mg57  1  0.02805300  0.12042800  0.41550200  1
  Mg  Mg58  1  0.71342500  0.66732800  0.39079400  1
  Mg  Mg59  1  0.90491200  0.42892700  0.48218100  1
  Mg  Mg60  1  0.10018000  0.59563700  0.51751900  1
  Mg  Mg61  1  0.28657500  0.17203400  0.56920600  1
  Mg  Mg62  1  0.64768300  0.59192800  0.58898700  1
  Mg  Mg63  1  0.04358200  0.40055200  0.54762800  1
  Mg  Mg64  1  0.39784500  0.34100900  0.53467600  1
  Mg  Mg65  1  0.97194700  0.71893400  0.54449800  1
  Mg  Mg66  1  0.42345600  0.51703400  0.57205600  1
  Mg  Mg67  1  0.95641800  0.23881100  0.51237200  1
  Mg  Mg68  1  0.32381600  0.66949100  0.53341300  1
  Mg  Mg69  1  0.60215500  0.29835300  0.52532400  1
  Mg  Mg70  1  0.35231700  0.84743500  0.57101300  1
  Mg  Mg71  1  0.67618400  0.96987200  0.52658700  1
  Mg  Mg72  1  0.09508800  0.21043500  0.57781900  1
  Mg  Mg73  1  0.74882900  0.64262400  0.52773000  1
  Mg  Mg74  1  0.25117100  0.99673800  0.53227000  1
  Mg  Mg75  1  0.57654400  0.92232900  0.58794400  1
  Mg  Mg76  1  0.89982000  0.04372500  0.54248100  1
  Mg  Mg77  1  0.02805300  0.92042800  0.51550200  1
  Mg  Mg78  1  0.71342500  0.46732800  0.49079400  1
  Mg  Mg79  1  0.90491200  0.22892700  0.58218100  1
  Mg  Mg80  1  0.10018000  0.39563700  0.61751900  1
  Mg  Mg81  1  0.28657500  0.97203400  0.66920600  1
  Mg  Mg82  1  0.64768300  0.39192800  0.68898700  1
  Mg  Mg83  1  0.04358200  0.20055200  0.64762800  1
  Mg  Mg84  1  0.39784500  0.14100900  0.63467600  1
  Mg  Mg85  1  0.97194700  0.51893400  0.64449800  1
  Mg  Mg86  1  0.42345600  0.31703400  0.67205600  1
  Mg  Mg87  1  0.95641800  0.03881100  0.61237200  1
  Mg  Mg88  1  0.32381600  0.46949100  0.63341300  1
  Mg  Mg89  1  0.60215500  0.09835300  0.62532400  1
  Mg  Mg90  1  0.35231700  0.64743500  0.67101300  1
  Mg  Mg91  1  0.67618400  0.76987200  0.62658700  1
  Mg  Mg92  1  0.09508800  0.01043500  0.67781900  1
  Mg  Mg93  1  0.74882900  0.44262400  0.62773000  1
  Mg  Mg94  1  0.25117100  0.79673800  0.63227000  1
  Mg  Mg95  1  0.57654400  0.72232900  0.68794400  1
  Mg  Mg96  1  0.89982000  0.84372500  0.64248100  1
  Mg  Mg97  1  0.02805300  0.72042800  0.61550200  1
  Mg  Mg98  1  0.71342500  0.26732800  0.59079400  1
  Mg  Mg99  1  0.90491200  0.02892700  0.68218100  1
  Mg  Mg100  1  0.10018000  0.19563700  0.71751900  1
  Mg  Mg101  1  0.28657500  0.77203400  0.76920600  1
  Mg  Mg102  1  0.04358200  0.00055200  0.74762800  1
  Mg  Mg103  1  0.39784500  0.94100900  0.73467600  1
  Mg  Mg104  1  0.97194700  0.31893400  0.74449800  1
  Mg  Mg105  1  0.95641800  0.83881100  0.71237200  1
  Mg  Mg106  1  0.32381600  0.26949100  0.73341300  1
  Mg  Mg107  1  0.60215500  0.89835300  0.72532400  1
  Mg  Mg108  1  0.67618400  0.56987200  0.72658700  1
  Mg  Mg109  1  0.74882900  0.24262400  0.72773000  1
  Mg  Mg110  1  0.25117100  0.59673800  0.73227000  1
  Mg  Mg111  1  0.89982000  0.64372500  0.74248100  1
  Mg  Mg112  1  0.02805300  0.52042800  0.71550200  1
  Mg  Mg113  1  0.71342500  0.06732800  0.69079400  1
  Zn  Zn114  1  0.40771000  0.12605800  0.20220900  1
  Zn  Zn115  1  0.18261300  0.89479700  0.22456300  1
  Zn  Zn116  1  0.33714800  0.45946700  0.20331300  1
  Zn  Zn117  1  0.75168900  0.66849100  0.28322900  1
  Zn  Zn118  1  0.42323600  0.74565400  0.22773100  1
  Zn  Zn119  1  0.24953100  0.06871900  0.22580100  1
  Zn  Zn120  1  0.50000000  0.31968100  0.28000000  1
  Zn  Zn121  1  0.59229000  0.71330500  0.25779100  1
  Zn  Zn122  1  0.13709400  0.45704300  0.27383600  1
  Zn  Zn123  1  0.57687700  0.99525400  0.28168500  1
  Zn  Zn124  1  0.17552400  0.29875200  0.27502800  1
  Zn  Zn125  1  0.03680400  0.15868800  0.28109100  1
  Zn  Zn126  1  0.53360100  0.25553900  0.23060000  1
  Zn  Zn127  1  0.73237700  0.05240600  0.25922800  1
  Zn  Zn128  1  0.81738700  0.94456600  0.23543700  1
  Zn  Zn129  1  0.86290600  0.18232000  0.28616400  1
  Zn  Zn130  1  0.90034300  0.01604300  0.28767100  1
  Zn  Zn131  1  0.42312300  0.64410800  0.27831500  1
  Zn  Zn132  1  0.75046900  0.77064300  0.23419900  1
  Zn  Zn133  1  0.46639900  0.58382400  0.22940000  1
  Zn  Zn134  1  0.09965700  0.62331900  0.27232900  1
  Zn  Zn135  1  0.57676400  0.09370800  0.23226900  1
  Zn  Zn136  1  0.50000000  0.41968100  0.23000000  1
  Zn  Zn137  1  0.21546200  0.13280400  0.27487600  1
  Zn  Zn138  1  0.17499800  0.39899300  0.22566000  1
  Zn  Zn139  1  0.90216100  0.11687400  0.23593500  1
  Zn  Zn140  1  0.78453800  0.50655900  0.28512400  1
  Zn  Zn141  1  0.09783900  0.72248800  0.22406500  1
  Zn  Zn142  1  0.26762300  0.78695600  0.20077200  1
  Zn  Zn143  1  0.82500200  0.44037000  0.23434000  1
  Zn  Zn144  1  0.24831100  0.97087200  0.27677100  1
  Zn  Zn145  1  0.50000000  0.81968100  0.28000000  1
  Zn  Zn146  1  0.82447600  0.34061100  0.28497200  1
  Zn  Zn147  1  0.96319600  0.48067500  0.27890900  1
  Zn  Zn148  1  0.66285200  0.37989600  0.25668700  1
  Zn  Zn149  1  0.40771000  0.92605800  0.30220900  1
  Zn  Zn150  1  0.18261300  0.69479700  0.32456300  1
  Zn  Zn151  1  0.33714800  0.25946700  0.30331300  1
  Zn  Zn152  1  0.75168900  0.46849100  0.38322900  1
  Zn  Zn153  1  0.42323600  0.54565400  0.32773100  1
  Zn  Zn154  1  0.24953100  0.86871900  0.32580100  1
  Zn  Zn155  1  0.50000000  0.11968100  0.38000000  1
  Zn  Zn156  1  0.59229000  0.51330500  0.35779100  1
  Zn  Zn157  1  0.13709400  0.25704300  0.37383600  1
  Zn  Zn158  1  0.57687700  0.79525400  0.38168500  1
  Zn  Zn159  1  0.17552400  0.09875200  0.37502800  1
  Zn  Zn160  1  0.03680400  0.95868800  0.38109100  1
  Zn  Zn161  1  0.53360100  0.05553900  0.33060000  1
  Zn  Zn162  1  0.73237700  0.85240600  0.35922800  1
  Zn  Zn163  1  0.81738700  0.74456600  0.33543700  1
  Zn  Zn164  1  0.86290600  0.98232000  0.38616400  1
  Zn  Zn165  1  0.90034300  0.81604300  0.38767100  1
  Zn  Zn166  1  0.42312300  0.44410800  0.37831500  1
  Zn  Zn167  1  0.75046900  0.57064300  0.33419900  1
  Zn  Zn168  1  0.46639900  0.38382400  0.32940000  1
  Zn  Zn169  1  0.09965700  0.42331900  0.37232900  1
  Zn  Zn170  1  0.57676400  0.89370800  0.33226900  1
  Zn  Zn171  1  0.50000000  0.21968100  0.33000000  1
  Zn  Zn172  1  0.21546200  0.93280400  0.37487600  1
  Zn  Zn173  1  0.17499800  0.19899300  0.32566000  1
  Zn  Zn174  1  0.90216100  0.91687400  0.33593500  1
  Zn  Zn175  1  0.78453800  0.30655900  0.38512400  1
  Zn  Zn176  1  0.09783900  0.52248800  0.32406500  1
  Zn  Zn177  1  0.26762300  0.58695600  0.30077200  1
  Zn  Zn178  1  0.82500200  0.24037000  0.33434000  1
  Zn  Zn179  1  0.24831100  0.77087200  0.37677100  1
  Zn  Zn180  1  0.50000000  0.61968100  0.38000000  1
  Zn  Zn181  1  0.82447600  0.14061100  0.38497200  1
  Zn  Zn182  1  0.96319600  0.28067500  0.37890900  1
  Zn  Zn183  1  0.66285200  0.17989600  0.35668700  1
  Zn  Zn184  1  0.40771000  0.72605800  0.40220900  1
  Zn  Zn185  1  0.18261300  0.49479700  0.42456300  1
  Zn  Zn186  1  0.33714800  0.05946700  0.40331300  1
  Zn  Zn187  1  0.75168900  0.26849100  0.48322900  1
  Zn  Zn188  1  0.42323600  0.34565400  0.42773100  1
  Zn  Zn189  1  0.24953100  0.66871900  0.42580100  1
  Zn  Zn190  1  0.50000000  0.91968100  0.48000000  1
  Zn  Zn191  1  0.59229000  0.31330500  0.45779100  1
  Zn  Zn192  1  0.13709400  0.05704300  0.47383600  1
  Zn  Zn193  1  0.57687700  0.59525400  0.48168500  1
  Zn  Zn194  1  0.17552400  0.89875200  0.47502800  1
  Zn  Zn195  1  0.03680400  0.75868800  0.48109100  1
  Zn  Zn196  1  0.53360100  0.85553900  0.43060000  1
  Zn  Zn197  1  0.73237700  0.65240600  0.45922800  1
  Zn  Zn198  1  0.81738700  0.54456600  0.43543700  1
  Zn  Zn199  1  0.86290600  0.78232000  0.48616400  1
  Zn  Zn200  1  0.90034300  0.61604300  0.48767100  1
  Zn  Zn201  1  0.42312300  0.24410800  0.47831500  1
  Zn  Zn202  1  0.75046900  0.37064300  0.43419900  1
  Zn  Zn203  1  0.46639900  0.18382400  0.42940000  1
  Zn  Zn204  1  0.09965700  0.22331900  0.47232900  1
  Zn  Zn205  1  0.57676400  0.69370800  0.43226900  1
  Zn  Zn206  1  0.50000000  0.01968100  0.43000000  1
  Zn  Zn207  1  0.21546200  0.73280400  0.47487600  1
  Zn  Zn208  1  0.17499800  0.99899300  0.42566000  1
  Zn  Zn209  1  0.90216100  0.71687400  0.43593500  1
  Zn  Zn210  1  0.78453800  0.10655900  0.48512400  1
  Zn  Zn211  1  0.09783900  0.32248800  0.42406500  1
  Zn  Zn212  1  0.26762300  0.38695600  0.40077200  1
  Zn  Zn213  1  0.82500200  0.04037000  0.43434000  1
  Zn  Zn214  1  0.24831100  0.57087200  0.47677100  1
  Zn  Zn215  1  0.50000000  0.41968100  0.48000000  1
  Zn  Zn216  1  0.82447600  0.94061100  0.48497200  1
  Zn  Zn217  1  0.96319600  0.08067500  0.47890900  1
  Zn  Zn218  1  0.66285200  0.97989600  0.45668700  1
  Zn  Zn219  1  0.40771000  0.52605800  0.50220900  1
  Zn  Zn220  1  0.18261300  0.29479700  0.52456300  1
  Zn  Zn221  1  0.33714800  0.85946700  0.50331300  1
  Zn  Zn222  1  0.75168900  0.06849100  0.58322900  1
  Zn  Zn223  1  0.42323600  0.14565400  0.52773100  1
  Zn  Zn224  1  0.24953100  0.46871900  0.52580100  1
  Zn  Zn225  1  0.50000000  0.71968100  0.58000000  1
  Zn  Zn226  1  0.59229000  0.11330500  0.55779100  1
  Zn  Zn227  1  0.13709400  0.85704300  0.57383600  1
  Zn  Zn228  1  0.57687700  0.39525400  0.58168500  1
  Zn  Zn229  1  0.17552400  0.69875200  0.57502800  1
  Zn  Zn230  1  0.03680400  0.55868800  0.58109100  1
  Zn  Zn231  1  0.53360100  0.65553900  0.53060000  1
  Zn  Zn232  1  0.73237700  0.45240600  0.55922800  1
  Zn  Zn233  1  0.81738700  0.34456600  0.53543700  1
  Zn  Zn234  1  0.86290600  0.58232000  0.58616400  1
  Zn  Zn235  1  0.90034300  0.41604300  0.58767100  1
  Zn  Zn236  1  0.42312300  0.04410800  0.57831500  1
  Zn  Zn237  1  0.75046900  0.17064300  0.53419900  1
  Zn  Zn238  1  0.46639900  0.98382400  0.52940000  1
  Zn  Zn239  1  0.09965700  0.02331900  0.57232900  1
  Zn  Zn240  1  0.57676400  0.49370800  0.53226900  1
  Zn  Zn241  1  0.50000000  0.81968100  0.53000000  1
  Zn  Zn242  1  0.21546200  0.53280400  0.57487600  1
  Zn  Zn243  1  0.17499800  0.79899300  0.52566000  1
  Zn  Zn244  1  0.90216100  0.51687400  0.53593500  1
  Zn  Zn245  1  0.78453800  0.90655900  0.58512400  1
  Zn  Zn246  1  0.09783900  0.12248800  0.52406500  1
  Zn  Zn247  1  0.26762300  0.18695600  0.50077200  1
  Zn  Zn248  1  0.82500200  0.84037000  0.53434000  1
  Zn  Zn249  1  0.24831100  0.37087200  0.57677100  1
  Zn  Zn250  1  0.50000000  0.21968100  0.58000000  1
  Zn  Zn251  1  0.82447600  0.74061100  0.58497200  1
  Zn  Zn252  1  0.96319600  0.88067500  0.57890900  1
  Zn  Zn253  1  0.66285200  0.77989600  0.55668700  1
  Zn  Zn254  1  0.40771000  0.32605800  0.60220900  1
  Zn  Zn255  1  0.18261300  0.09479700  0.62456300  1
  Zn  Zn256  1  0.33714800  0.65946700  0.60331300  1
  Zn  Zn257  1  0.75168900  0.86849100  0.68322900  1
  Zn  Zn258  1  0.42323600  0.94565400  0.62773100  1
  Zn  Zn259  1  0.24953100  0.26871900  0.62580100  1
  Zn  Zn260  1  0.50000000  0.51968100  0.68000000  1
  Zn  Zn261  1  0.59229000  0.91330500  0.65779100  1
  Zn  Zn262  1  0.13709400  0.65704300  0.67383600  1
  Zn  Zn263  1  0.57687700  0.19525400  0.68168500  1
  Zn  Zn264  1  0.17552400  0.49875200  0.67502800  1
  Zn  Zn265  1  0.03680400  0.35868800  0.68109100  1
  Zn  Zn266  1  0.53360100  0.45553900  0.63060000  1
  Zn  Zn267  1  0.73237700  0.25240600  0.65922800  1
  Zn  Zn268  1  0.81738700  0.14456600  0.63543700  1
  Zn  Zn269  1  0.86290600  0.38232000  0.68616400  1
  Zn  Zn270  1  0.90034300  0.21604300  0.68767100  1
  Zn  Zn271  1  0.42312300  0.84410800  0.67831500  1
  Zn  Zn272  1  0.75046900  0.97064300  0.63419900  1
  Zn  Zn273  1  0.46639900  0.78382400  0.62940000  1
  Zn  Zn274  1  0.09965700  0.82331900  0.67232900  1
  Zn  Zn275  1  0.57676400  0.29370800  0.63226900  1
  Zn  Zn276  1  0.50000000  0.61968100  0.63000000  1
  Zn  Zn277  1  0.21546200  0.33280400  0.67487600  1
  Zn  Zn278  1  0.17499800  0.59899300  0.62566000  1
  Zn  Zn279  1  0.90216100  0.31687400  0.63593500  1
  Zn  Zn280  1  0.78453800  0.70655900  0.68512400  1
  Zn  Zn281  1  0.09783900  0.92248800  0.62406500  1
  Zn  Zn282  1  0.26762300  0.98695600  0.60077200  1
  Zn  Zn283  1  0.82500200  0.64037000  0.63434000  1
  Zn  Zn284  1  0.24831100  0.17087200  0.67677100  1
  Zn  Zn285  1  0.50000000  0.01968100  0.68000000  1
  Zn  Zn286  1  0.82447600  0.54061100  0.68497200  1
  Zn  Zn287  1  0.96319600  0.68067500  0.67890900  1
  Zn  Zn288  1  0.66285200  0.57989600  0.65668700  1
  Zn  Zn289  1  0.40771000  0.12605800  0.70220900  1
  Zn  Zn290  1  0.18261300  0.89479700  0.72456300  1
  Zn  Zn291  1  0.33714800  0.45946700  0.70331300  1
  Zn  Zn292  1  0.42323600  0.74565400  0.72773100  1
  Zn  Zn293  1  0.24953100  0.06871900  0.72580100  1
  Zn  Zn294  1  0.59229000  0.71330500  0.75779100  1
  Zn  Zn295  1  0.53360100  0.25553900  0.73060000  1
  Zn  Zn296  1  0.73237700  0.05240600  0.75922800  1
  Zn  Zn297  1  0.81738700  0.94456600  0.73543700  1
  Zn  Zn298  1  0.75046900  0.77064300  0.73419900  1
  Zn  Zn299  1  0.46639900  0.58382400  0.72940000  1
  Zn  Zn300  1  0.57676400  0.09370800  0.73226900  1
  Zn  Zn301  1  0.50000000  0.41968100  0.73000000  1
  Zn  Zn302  1  0.17499800  0.39899300  0.72566000  1
  Zn  Zn303  1  0.90216100  0.11687400  0.73593500  1
  Zn  Zn304  1  0.09783900  0.72248800  0.72406500  1
  Zn  Zn305  1  0.26762300  0.78695600  0.70077200  1
  Zn  Zn306  1  0.82500200  0.44037000  0.73434000  1
  Zn  Zn307  1  0.66285200  0.37989600  0.75668700  1
