# generated using pymatgen
data_Tm7Mg4
_symmetry_space_group_name_H-M   'P 1'
_cell_length_a   5.42194500
_cell_length_b   8.80029156
_cell_length_c   45.31837800
_cell_angle_alpha   90.70413999
_cell_angle_beta   90.00000000
_cell_angle_gamma   90.00000000
_symmetry_Int_Tables_number   1
_chemical_formula_structural   Tm7Mg4
_chemical_formula_sum   'Tm28 Mg16'
_cell_volume   2162.18937522
_cell_formula_units_Z   4
loop_
 _symmetry_equiv_pos_site_id
 _symmetry_equiv_pos_as_xyz
  1  'x, y, z'
loop_
 _atom_site_type_symbol
 _atom_site_label
 _atom_site_symmetry_multiplicity
 _atom_site_fract_x
 _atom_site_fract_y
 _atom_site_fract_z
 _atom_site_occupancy
  Tm  Tm0  1  0.75000000  0.66872300  0.74878800  1
  Tm  Tm1  1  0.75000000  0.29183600  0.77371200  1
  Tm  Tm2  1  0.25000000  0.04984800  0.76403300  1
  Tm  Tm3  1  0.25000000  0.42673400  0.73910800  1
  Tm  Tm4  1  0.75000000  0.74564600  0.67186500  1
  Tm  Tm5  1  0.75000000  0.36875900  0.69678900  1
  Tm  Tm6  1  0.25000000  0.12677100  0.68711000  1
  Tm  Tm7  1  0.25000000  0.50365700  0.66218500  1
  Tm  Tm8  1  0.75000000  0.82256900  0.59494200  1
  Tm  Tm9  1  0.75000000  0.44568200  0.61986600  1
  Tm  Tm10  1  0.25000000  0.20369400  0.61018700  1
  Tm  Tm11  1  0.25000000  0.58058000  0.58526200  1
  Tm  Tm12  1  0.75000000  0.89949200  0.51801900  1
  Tm  Tm13  1  0.75000000  0.52260500  0.54294300  1
  Tm  Tm14  1  0.25000000  0.28061700  0.53326400  1
  Tm  Tm15  1  0.25000000  0.65750300  0.50833900  1
  Tm  Tm16  1  0.75000000  0.97641500  0.44109500  1
  Tm  Tm17  1  0.75000000  0.59952900  0.46602000  1
  Tm  Tm18  1  0.25000000  0.35754000  0.45634000  1
  Tm  Tm19  1  0.25000000  0.73442600  0.43141600  1
  Tm  Tm20  1  0.75000000  0.05333800  0.36417200  1
  Tm  Tm21  1  0.75000000  0.67645200  0.38909700  1
  Tm  Tm22  1  0.25000000  0.43446300  0.37941700  1
  Tm  Tm23  1  0.25000000  0.81135000  0.35449300  1
  Tm  Tm24  1  0.75000000  0.13026100  0.28724900  1
  Tm  Tm25  1  0.75000000  0.75337500  0.31217400  1
  Tm  Tm26  1  0.25000000  0.51138600  0.30249400  1
  Tm  Tm27  1  0.25000000  0.88827300  0.27757000  1
  Mg  Mg28  1  0.75000000  0.94063300  0.79966400  1
  Mg  Mg29  1  0.25000000  0.70101500  0.79007900  1
  Mg  Mg30  1  0.75000000  0.01755600  0.72274100  1
  Mg  Mg31  1  0.25000000  0.77793800  0.71315600  1
  Mg  Mg32  1  0.75000000  0.09447900  0.64581800  1
  Mg  Mg33  1  0.25000000  0.85486100  0.63623300  1
  Mg  Mg34  1  0.75000000  0.17140200  0.56889500  1
  Mg  Mg35  1  0.25000000  0.93178400  0.55931000  1
  Mg  Mg36  1  0.75000000  0.24832500  0.49197200  1
  Mg  Mg37  1  0.25000000  0.00870700  0.48238700  1
  Mg  Mg38  1  0.75000000  0.32524800  0.41504900  1
  Mg  Mg39  1  0.25000000  0.08563000  0.40546400  1
  Mg  Mg40  1  0.75000000  0.40217100  0.33812600  1
  Mg  Mg41  1  0.25000000  0.16255300  0.32854100  1
  Mg  Mg42  1  0.75000000  0.47909400  0.26120300  1
  Mg  Mg43  1  0.25000000  0.23947600  0.25161800  1
