# generated using pymatgen
data_Mg7P31
_symmetry_space_group_name_H-M   'P 1'
_cell_length_a   7.29415427
_cell_length_b   8.53570463
_cell_length_c   44.35763700
_cell_angle_alpha   89.74177658
_cell_angle_beta   91.92332681
_cell_angle_gamma   70.22900655
_symmetry_Int_Tables_number   1
_chemical_formula_structural   Mg7P31
_chemical_formula_sum   'Mg14 P62'
_cell_volume   2597.10747389
_cell_formula_units_Z   2
loop_
 _symmetry_equiv_pos_site_id
 _symmetry_equiv_pos_as_xyz
  1  'x, y, z'
loop_
 _atom_site_type_symbol
 _atom_site_label
 _atom_site_symmetry_multiplicity
 _atom_site_fract_x
 _atom_site_fract_y
 _atom_site_fract_z
 _atom_site_occupancy
  Mg  Mg0  1  0.57065800  0.12266900  0.25384600  1
  Mg  Mg1  1  0.07065800  0.62266900  0.25384600  1
  Mg  Mg2  1  0.03219700  0.27651500  0.33076900  1
  Mg  Mg3  1  0.53219700  0.77651500  0.33076900  1
  Mg  Mg4  1  0.49373500  0.43036100  0.40769200  1
  Mg  Mg5  1  0.99373500  0.93036100  0.40769200  1
  Mg  Mg6  1  0.95527400  0.58420800  0.48461500  1
  Mg  Mg7  1  0.45527400  0.08420800  0.48461500  1
  Mg  Mg8  1  0.41681200  0.73805400  0.56153800  1
  Mg  Mg9  1  0.91681200  0.23805400  0.56153800  1
  Mg  Mg10  1  0.87835100  0.89190000  0.63846200  1
  Mg  Mg11  1  0.37835100  0.39190000  0.63846200  1
  Mg  Mg12  1  0.33988900  0.04574600  0.71538500  1
  Mg  Mg13  1  0.83988900  0.54574600  0.71538500  1
  P  P14  1  0.72834800  0.82414300  0.23142300  1
  P  P15  1  0.22767900  0.83127700  0.23131100  1
  P  P16  1  0.95143000  0.26734900  0.19934700  1
  P  P17  1  0.45209900  0.26021400  0.19945800  1
  P  P18  1  0.14427900  0.41713800  0.20085100  1
  P  P19  1  0.91875500  0.20770900  0.24659700  1
  P  P20  1  0.53549900  0.67435400  0.22991900  1
  P  P21  1  0.22256200  0.03762900  0.26109600  1
  P  P22  1  0.18988700  0.97798900  0.30834600  1
  P  P23  1  0.68921800  0.98512400  0.30823400  1
  P  P24  1  0.41296800  0.42119500  0.27627000  1
  P  P25  1  0.91363700  0.41406100  0.27638100  1
  P  P26  1  0.60581700  0.57098400  0.27777400  1
  P  P27  1  0.38029300  0.36155600  0.32352000  1
  P  P28  1  0.99703800  0.82820000  0.30684200  1
  P  P29  1  0.68410000  0.19147500  0.33801900  1
  P  P30  1  0.65142500  0.13183500  0.38526900  1
  P  P31  1  0.15075600  0.13897000  0.38515700  1
  P  P32  1  0.87450700  0.57504100  0.35319300  1
  P  P33  1  0.37517600  0.56790700  0.35330400  1
  P  P34  1  0.06735600  0.72483100  0.35469700  1
  P  P35  1  0.84183100  0.51540200  0.40044300  1
  P  P36  1  0.45857600  0.98204600  0.38376500  1
  P  P37  1  0.14563900  0.34532100  0.41494200  1
  P  P38  1  0.11296400  0.28568200  0.46219200  1
  P  P39  1  0.61229500  0.29281600  0.46208000  1
  P  P40  1  0.33604500  0.72888700  0.43011600  1
  P  P41  1  0.83671400  0.72175300  0.43022700  1
  P  P42  1  0.52889400  0.87867700  0.43162000  1
  P  P43  1  0.30337000  0.66924800  0.47736600  1
  P  P44  1  0.92011500  0.13589200  0.46068800  1
  P  P45  1  0.60717700  0.49916700  0.49186500  1
  P  P46  1  0.57450200  0.43952800  0.53911500  1
  P  P47  1  0.07383300  0.44666200  0.53900300  1
  P  P48  1  0.79758400  0.88273300  0.50703900  1
  P  P49  1  0.29825300  0.87559900  0.50715100  1
  P  P50  1  0.99043200  0.03252300  0.50854300  1
  P  P51  1  0.76490800  0.82309400  0.55428900  1
  P  P52  1  0.38165300  0.28973800  0.53761100  1
  P  P53  1  0.06871600  0.65301300  0.56878800  1
  P  P54  1  0.03604100  0.59337400  0.61603800  1
  P  P55  1  0.53537200  0.60050800  0.61592600  1
  P  P56  1  0.25912200  0.03658000  0.58396200  1
  P  P57  1  0.75979100  0.02944500  0.58407400  1
  P  P58  1  0.45197100  0.18636900  0.58546600  1
  P  P59  1  0.22644700  0.97694000  0.63121200  1
  P  P60  1  0.84319200  0.44358400  0.61453400  1
  P  P61  1  0.53025400  0.80685900  0.64571100  1
  P  P62  1  0.49757900  0.74722000  0.69296100  1
  P  P63  1  0.99691000  0.75435400  0.69284900  1
  P  P64  1  0.72066000  0.19042600  0.66088500  1
  P  P65  1  0.22132900  0.18329100  0.66099700  1
  P  P66  1  0.91350900  0.34021500  0.66238900  1
  P  P67  1  0.68798500  0.13078600  0.70813500  1
  P  P68  1  0.30473000  0.59743100  0.69145700  1
  P  P69  1  0.99179300  0.96070600  0.72263400  1
  P  P70  1  0.95911800  0.90106600  0.76988400  1
  P  P71  1  0.45844900  0.90820100  0.76977300  1
  P  P72  1  0.18219900  0.34427200  0.73780800  1
  P  P73  1  0.68286800  0.33713800  0.73792000  1
  P  P74  1  0.37504800  0.49406100  0.73931200  1
  P  P75  1  0.76626900  0.75127700  0.76838000  1
