# generated using pymatgen
data_Mg5Zn26
_symmetry_space_group_name_H-M   'P 1'
_cell_length_a   8.56229400
_cell_length_b   12.10891200
_cell_length_c   48.43564800
_cell_angle_alpha   90.00000000
_cell_angle_beta   90.00000000
_cell_angle_gamma   90.00000000
_symmetry_Int_Tables_number   1
_chemical_formula_structural   Mg5Zn26
_chemical_formula_sum   'Mg30 Zn156'
_cell_volume   5021.81111185
_cell_formula_units_Z   6
loop_
 _symmetry_equiv_pos_site_id
 _symmetry_equiv_pos_as_xyz
  1  'x, y, z'
loop_
 _atom_site_type_symbol
 _atom_site_label
 _atom_site_symmetry_multiplicity
 _atom_site_fract_x
 _atom_site_fract_y
 _atom_site_fract_z
 _atom_site_occupancy
  Mg  Mg0  1  0.50000000  0.71817800  0.26025800  1
  Mg  Mg1  1  0.00000000  0.66562700  0.19775800  1
  Mg  Mg2  1  0.69744900  0.31690200  0.23557700  1
  Mg  Mg3  1  0.00000000  0.96817800  0.27339600  1
  Mg  Mg4  1  0.30255100  0.31690200  0.23557700  1
  Mg  Mg5  1  0.50000000  0.91562700  0.21089600  1
  Mg  Mg6  1  0.50000000  0.21817800  0.38525800  1
  Mg  Mg7  1  0.00000000  0.16562700  0.32275800  1
  Mg  Mg8  1  0.69744900  0.81690200  0.36057700  1
  Mg  Mg9  1  0.00000000  0.46817800  0.39839600  1
  Mg  Mg10  1  0.30255100  0.81690200  0.36057700  1
  Mg  Mg11  1  0.50000000  0.41562700  0.33589600  1
  Mg  Mg12  1  0.50000000  0.71817800  0.51025800  1
  Mg  Mg13  1  0.00000000  0.66562700  0.44775800  1
  Mg  Mg14  1  0.69744900  0.31690200  0.48557700  1
  Mg  Mg15  1  0.00000000  0.96817800  0.52339600  1
  Mg  Mg16  1  0.30255100  0.31690200  0.48557700  1
  Mg  Mg17  1  0.50000000  0.91562700  0.46089600  1
  Mg  Mg18  1  0.50000000  0.21817800  0.63525800  1
  Mg  Mg19  1  0.00000000  0.16562700  0.57275800  1
  Mg  Mg20  1  0.69744900  0.81690200  0.61057700  1
  Mg  Mg21  1  0.00000000  0.46817800  0.64839600  1
  Mg  Mg22  1  0.30255100  0.81690200  0.61057700  1
  Mg  Mg23  1  0.50000000  0.41562700  0.58589600  1
  Mg  Mg24  1  0.50000000  0.71817800  0.76025800  1
  Mg  Mg25  1  0.00000000  0.66562700  0.69775800  1
  Mg  Mg26  1  0.69744900  0.31690200  0.73557700  1
  Mg  Mg27  1  0.00000000  0.96817800  0.77339600  1
  Mg  Mg28  1  0.30255100  0.31690200  0.73557700  1
  Mg  Mg29  1  0.50000000  0.91562700  0.71089600  1
  Zn  Zn30  1  0.50000000  0.06690200  0.29807700  1
  Zn  Zn31  1  0.00000000  0.68008900  0.26978000  1
  Zn  Zn32  1  0.00000000  0.45371600  0.26978000  1
  Zn  Zn33  1  0.77362700  0.56690200  0.29807700  1
  Zn  Zn34  1  0.00000000  0.18008900  0.20137400  1
  Zn  Zn35  1  0.22637300  0.56690200  0.29807700  1
  Zn  Zn36  1  0.00000000  0.95371600  0.20137400  1
  Zn  Zn37  1  0.00000000  0.39571200  0.21587400  1
  Zn  Zn38  1  0.50000000  0.48809200  0.27837400  1
  Zn  Zn39  1  0.84238000  0.81690200  0.23557700  1
  Zn  Zn40  1  0.50000000  0.14571200  0.19277900  1
  Zn  Zn41  1  0.15762000  0.81690200  0.23557700  1
  Zn  Zn42  1  0.00000000  0.23809200  0.25527900  1
  Zn  Zn43  1  0.78094500  0.56690200  0.24331300  1
  Zn  Zn44  1  0.78094500  0.06690200  0.22784100  1
  Zn  Zn45  1  0.21905500  0.78595800  0.29807700  1
  Zn  Zn46  1  0.21905500  0.34784700  0.29807700  1
  Zn  Zn47  1  0.21905500  0.06690200  0.22784100  1
  Zn  Zn48  1  0.21905500  0.56690200  0.24331300  1
  Zn  Zn49  1  0.78094500  0.34784700  0.29807700  1
  Zn  Zn50  1  0.78094500  0.78595800  0.29807700  1
  Zn  Zn51  1  0.65815800  0.70070700  0.20652800  1
  Zn  Zn52  1  0.76760900  0.48782300  0.19284700  1
  Zn  Zn53  1  0.50000000  0.51217700  0.22629800  1
  Zn  Zn54  1  0.50000000  0.12162800  0.24485600  1
  Zn  Zn55  1  0.23239100  0.48782300  0.19284700  1
  Zn  Zn56  1  0.50000000  0.27978600  0.28439600  1
  Zn  Zn57  1  0.76760900  0.14598100  0.27830700  1
  Zn  Zn58  1  0.23239100  0.14598100  0.27830700  1
  Zn  Zn59  1  0.50000000  0.85401900  0.31175800  1
  Zn  Zn60  1  0.34184200  0.93309800  0.26462600  1
  Zn  Zn61  1  0.34184200  0.70070700  0.20652800  1
  Zn  Zn62  1  0.65815800  0.93309800  0.26462600  1
  Zn  Zn63  1  0.50000000  0.56690200  0.42307700  1
  Zn  Zn64  1  0.00000000  0.18008900  0.39478000  1
  Zn  Zn65  1  0.00000000  0.95371600  0.39478000  1
  Zn  Zn66  1  0.77362700  0.06690200  0.42307700  1
  Zn  Zn67  1  0.00000000  0.68008900  0.32637400  1
  Zn  Zn68  1  0.22637300  0.06690200  0.42307700  1
  Zn  Zn69  1  0.00000000  0.45371600  0.32637400  1
  Zn  Zn70  1  0.00000000  0.89571200  0.34087400  1
  Zn  Zn71  1  0.50000000  0.98809200  0.40337400  1
  Zn  Zn72  1  0.84238000  0.31690200  0.36057700  1
  Zn  Zn73  1  0.50000000  0.64571200  0.31777900  1
  Zn  Zn74  1  0.15762000  0.31690200  0.36057700  1
  Zn  Zn75  1  0.00000000  0.73809200  0.38027900  1
  Zn  Zn76  1  0.78094500  0.06690200  0.36831300  1
  Zn  Zn77  1  0.78094500  0.56690200  0.35284100  1
  Zn  Zn78  1  0.21905500  0.28595800  0.42307700  1
  Zn  Zn79  1  0.21905500  0.84784700  0.42307700  1
  Zn  Zn80  1  0.21905500  0.56690200  0.35284100  1
  Zn  Zn81  1  0.21905500  0.06690200  0.36831300  1
  Zn  Zn82  1  0.78094500  0.84784700  0.42307700  1
  Zn  Zn83  1  0.78094500  0.28595800  0.42307700  1
  Zn  Zn84  1  0.65815800  0.20070700  0.33152800  1
  Zn  Zn85  1  0.76760900  0.98782300  0.31784700  1
  Zn  Zn86  1  0.50000000  0.01217700  0.35129800  1
  Zn  Zn87  1  0.50000000  0.62162800  0.36985600  1
  Zn  Zn88  1  0.23239100  0.98782300  0.31784700  1
  Zn  Zn89  1  0.50000000  0.77978600  0.40939600  1
  Zn  Zn90  1  0.76760900  0.64598100  0.40330700  1
  Zn  Zn91  1  0.23239100  0.64598100  0.40330700  1
  Zn  Zn92  1  0.50000000  0.35401900  0.43675800  1
  Zn  Zn93  1  0.34184200  0.43309800  0.38962600  1
  Zn  Zn94  1  0.34184200  0.20070700  0.33152800  1
  Zn  Zn95  1  0.65815800  0.43309800  0.38962600  1
  Zn  Zn96  1  0.50000000  0.06690200  0.54807700  1
  Zn  Zn97  1  0.00000000  0.68008900  0.51978000  1
  Zn  Zn98  1  0.00000000  0.45371600  0.51978000  1
  Zn  Zn99  1  0.77362700  0.56690200  0.54807700  1
  Zn  Zn100  1  0.00000000  0.18008900  0.45137400  1
  Zn  Zn101  1  0.22637300  0.56690200  0.54807700  1
  Zn  Zn102  1  0.00000000  0.95371600  0.45137400  1
  Zn  Zn103  1  0.00000000  0.39571200  0.46587400  1
  Zn  Zn104  1  0.50000000  0.48809200  0.52837400  1
  Zn  Zn105  1  0.84238000  0.81690200  0.48557700  1
  Zn  Zn106  1  0.50000000  0.14571200  0.44277900  1
  Zn  Zn107  1  0.15762000  0.81690200  0.48557700  1
  Zn  Zn108  1  0.00000000  0.23809200  0.50527900  1
  Zn  Zn109  1  0.78094500  0.56690200  0.49331300  1
  Zn  Zn110  1  0.78094500  0.06690200  0.47784100  1
  Zn  Zn111  1  0.21905500  0.78595800  0.54807700  1
  Zn  Zn112  1  0.21905500  0.34784700  0.54807700  1
  Zn  Zn113  1  0.21905500  0.06690200  0.47784100  1
  Zn  Zn114  1  0.21905500  0.56690200  0.49331300  1
  Zn  Zn115  1  0.78094500  0.34784700  0.54807700  1
  Zn  Zn116  1  0.78094500  0.78595800  0.54807700  1
  Zn  Zn117  1  0.65815800  0.70070700  0.45652800  1
  Zn  Zn118  1  0.76760900  0.48782300  0.44284700  1
  Zn  Zn119  1  0.50000000  0.51217700  0.47629800  1
  Zn  Zn120  1  0.50000000  0.12162800  0.49485600  1
  Zn  Zn121  1  0.23239100  0.48782300  0.44284700  1
  Zn  Zn122  1  0.50000000  0.27978600  0.53439600  1
  Zn  Zn123  1  0.76760900  0.14598100  0.52830700  1
  Zn  Zn124  1  0.23239100  0.14598100  0.52830700  1
  Zn  Zn125  1  0.50000000  0.85401900  0.56175800  1
  Zn  Zn126  1  0.34184200  0.93309800  0.51462600  1
  Zn  Zn127  1  0.34184200  0.70070700  0.45652800  1
  Zn  Zn128  1  0.65815800  0.93309800  0.51462600  1
  Zn  Zn129  1  0.50000000  0.56690200  0.67307700  1
  Zn  Zn130  1  0.00000000  0.18008900  0.64478000  1
  Zn  Zn131  1  0.00000000  0.95371600  0.64478000  1
  Zn  Zn132  1  0.77362700  0.06690200  0.67307700  1
  Zn  Zn133  1  0.00000000  0.68008900  0.57637400  1
  Zn  Zn134  1  0.22637300  0.06690200  0.67307700  1
  Zn  Zn135  1  0.00000000  0.45371600  0.57637400  1
  Zn  Zn136  1  0.00000000  0.89571200  0.59087400  1
  Zn  Zn137  1  0.50000000  0.98809200  0.65337400  1
  Zn  Zn138  1  0.84238000  0.31690200  0.61057700  1
  Zn  Zn139  1  0.50000000  0.64571200  0.56777900  1
  Zn  Zn140  1  0.15762000  0.31690200  0.61057700  1
  Zn  Zn141  1  0.00000000  0.73809200  0.63027900  1
  Zn  Zn142  1  0.78094500  0.06690200  0.61831300  1
  Zn  Zn143  1  0.78094500  0.56690200  0.60284100  1
  Zn  Zn144  1  0.21905500  0.28595800  0.67307700  1
  Zn  Zn145  1  0.21905500  0.84784700  0.67307700  1
  Zn  Zn146  1  0.21905500  0.56690200  0.60284100  1
  Zn  Zn147  1  0.21905500  0.06690200  0.61831300  1
  Zn  Zn148  1  0.78094500  0.84784700  0.67307700  1
  Zn  Zn149  1  0.78094500  0.28595800  0.67307700  1
  Zn  Zn150  1  0.65815800  0.20070700  0.58152800  1
  Zn  Zn151  1  0.76760900  0.98782300  0.56784700  1
  Zn  Zn152  1  0.50000000  0.01217700  0.60129800  1
  Zn  Zn153  1  0.50000000  0.62162800  0.61985600  1
  Zn  Zn154  1  0.23239100  0.98782300  0.56784700  1
  Zn  Zn155  1  0.50000000  0.77978600  0.65939600  1
  Zn  Zn156  1  0.76760900  0.64598100  0.65330700  1
  Zn  Zn157  1  0.23239100  0.64598100  0.65330700  1
  Zn  Zn158  1  0.50000000  0.35401900  0.68675800  1
  Zn  Zn159  1  0.34184200  0.43309800  0.63962600  1
  Zn  Zn160  1  0.34184200  0.20070700  0.58152800  1
  Zn  Zn161  1  0.65815800  0.43309800  0.63962600  1
  Zn  Zn162  1  0.00000000  0.68008900  0.76978000  1
  Zn  Zn163  1  0.00000000  0.45371600  0.76978000  1
  Zn  Zn164  1  0.00000000  0.18008900  0.70137400  1
  Zn  Zn165  1  0.00000000  0.95371600  0.70137400  1
  Zn  Zn166  1  0.00000000  0.39571200  0.71587400  1
  Zn  Zn167  1  0.50000000  0.48809200  0.77837400  1
  Zn  Zn168  1  0.84238000  0.81690200  0.73557700  1
  Zn  Zn169  1  0.50000000  0.14571200  0.69277900  1
  Zn  Zn170  1  0.15762000  0.81690200  0.73557700  1
  Zn  Zn171  1  0.00000000  0.23809200  0.75527900  1
  Zn  Zn172  1  0.78094500  0.56690200  0.74331300  1
  Zn  Zn173  1  0.78094500  0.06690200  0.72784100  1
  Zn  Zn174  1  0.21905500  0.06690200  0.72784100  1
  Zn  Zn175  1  0.21905500  0.56690200  0.74331300  1
  Zn  Zn176  1  0.65815800  0.70070700  0.70652800  1
  Zn  Zn177  1  0.76760900  0.48782300  0.69284700  1
  Zn  Zn178  1  0.50000000  0.51217700  0.72629800  1
  Zn  Zn179  1  0.50000000  0.12162800  0.74485600  1
  Zn  Zn180  1  0.23239100  0.48782300  0.69284700  1
  Zn  Zn181  1  0.76760900  0.14598100  0.77830700  1
  Zn  Zn182  1  0.23239100  0.14598100  0.77830700  1
  Zn  Zn183  1  0.34184200  0.93309800  0.76462600  1
  Zn  Zn184  1  0.34184200  0.70070700  0.70652800  1
  Zn  Zn185  1  0.65815800  0.93309800  0.76462600  1
