# generated using pymatgen
data_Mg45P32
_symmetry_space_group_name_H-M   'P 1'
_cell_length_a   17.07071752
_cell_length_b   17.07071720
_cell_length_c   49.76926500
_cell_angle_alpha   99.87496192
_cell_angle_beta   99.87496173
_cell_angle_gamma   59.99999851
_symmetry_Int_Tables_number   1
_chemical_formula_structural   Mg45P32
_chemical_formula_sum   'Mg180 P128'
_cell_volume   12311.42566265
_cell_formula_units_Z   4
loop_
 _symmetry_equiv_pos_site_id
 _symmetry_equiv_pos_as_xyz
  1  'x, y, z'
loop_
 _atom_site_type_symbol
 _atom_site_label
 _atom_site_symmetry_multiplicity
 _atom_site_fract_x
 _atom_site_fract_y
 _atom_site_fract_z
 _atom_site_occupancy
  Mg  Mg0  1  0.16284800  0.92261800  0.33392500  1
  Mg  Mg1  1  0.64881000  0.67479500  0.32456700  1
  Mg  Mg2  1  0.40589900  0.89913000  0.32929300  1
  Mg  Mg3  1  0.14494300  0.41148200  0.32650100  1
  Mg  Mg4  1  0.31765200  0.55143800  0.25313900  1
  Mg  Mg5  1  0.93188300  0.40589900  0.32929300  1
  Mg  Mg6  1  0.41148200  0.67769600  0.32650100  1
  Mg  Mg7  1  0.15607900  0.16284800  0.33392500  1
  Mg  Mg8  1  0.56547500  0.79893600  0.26249700  1
  Mg  Mg9  1  0.55143800  0.29166800  0.25313900  1
  Mg  Mg10  1  0.54198700  0.57474000  0.25786400  1
  Mg  Mg11  1  0.32055300  0.78780000  0.25507200  1
  Mg  Mg12  1  0.98270800  0.22293800  0.28750300  1
  Mg  Mg13  1  0.49674500  0.47076100  0.29686100  1
  Mg  Mg14  1  0.73965700  0.24642600  0.29213600  1
  Mg  Mg15  1  0.00061300  0.73407400  0.29492800  1
  Mg  Mg16  1  0.11361800  0.87983200  0.22543300  1
  Mg  Mg17  1  0.21367300  0.73965700  0.29213600  1
  Mg  Mg18  1  0.73407400  0.46786000  0.29492800  1
  Mg  Mg19  1  0.98947700  0.98270800  0.28750300  1
  Mg  Mg20  1  0.58008100  0.34662000  0.35893200  1
  Mg  Mg21  1  0.87983200  0.13960300  0.22543300  1
  Mg  Mg22  1  0.60356900  0.57081500  0.36356500  1
  Mg  Mg23  1  0.11071700  0.64347000  0.22349900  1
  Mg  Mg24  1  0.80570500  0.56547500  0.26249700  1
  Mg  Mg25  1  0.29166800  0.31765200  0.25313900  1
  Mg  Mg26  1  0.04875600  0.54198700  0.25786400  1
  Mg  Mg27  1  0.78780000  0.05433900  0.25507200  1
  Mg  Mg28  1  0.67479500  0.90858100  0.32456700  1
  Mg  Mg29  1  0.57474000  0.04875600  0.25786400  1
  Mg  Mg30  1  0.05433900  0.32055300  0.25507200  1
  Mg  Mg31  1  0.79893600  0.80570500  0.26249700  1
  Mg  Mg32  1  0.92261800  0.15607900  0.33392500  1
  Mg  Mg33  1  0.90858100  0.64881000  0.32456700  1
  Mg  Mg34  1  0.89913000  0.93188300  0.32929300  1
  Mg  Mg35  1  0.67769600  0.14494300  0.32650100  1
  Mg  Mg36  1  0.33985100  0.58008100  0.35893200  1
  Mg  Mg37  1  0.13960300  0.11361800  0.22543300  1
  Mg  Mg38  1  0.09680000  0.60356900  0.36356500  1
  Mg  Mg39  1  0.64347000  0.37693100  0.22349900  1
  Mg  Mg40  1  0.47076100  0.23697500  0.29686100  1
  Mg  Mg41  1  0.57081500  0.09680000  0.36356500  1
  Mg  Mg42  1  0.37693100  0.11071700  0.22349900  1
  Mg  Mg43  1  0.34662000  0.33985100  0.35893200  1
  Mg  Mg44  1  0.22293800  0.98947700  0.28750300  1
  Mg  Mg45  1  0.23697500  0.49674500  0.29686100  1
  Mg  Mg46  1  0.24642600  0.21367300  0.29213600  1
  Mg  Mg47  1  0.46786000  0.00061300  0.29492800  1
  Mg  Mg48  1  0.87713300  0.63690400  0.47678200  1
  Mg  Mg49  1  0.36309600  0.38908100  0.46742400  1
  Mg  Mg50  1  0.12018400  0.61341600  0.47215000  1
  Mg  Mg51  1  0.85922800  0.12576800  0.46935800  1
  Mg  Mg52  1  0.03193800  0.26572400  0.39599600  1
  Mg  Mg53  1  0.64616900  0.12018400  0.47215000  1
  Mg  Mg54  1  0.12576800  0.39198200  0.46935800  1
  Mg  Mg55  1  0.87036500  0.87713300  0.47678200  1
  Mg  Mg56  1  0.27976100  0.51322200  0.40535400  1
  Mg  Mg57  1  0.26572400  0.00595300  0.39599600  1
  Mg  Mg58  1  0.25627300  0.28902600  0.40072100  1
  Mg  Mg59  1  0.03483900  0.50208600  0.39793000  1
  Mg  Mg60  1  0.69699400  0.93722300  0.43036100  1
  Mg  Mg61  1  0.21103100  0.18504600  0.43971900  1
  Mg  Mg62  1  0.45394300  0.96071100  0.43499300  1
  Mg  Mg63  1  0.71489900  0.44836000  0.43778500  1
  Mg  Mg64  1  0.82790400  0.59411800  0.36829000  1
  Mg  Mg65  1  0.92795800  0.45394300  0.43499300  1
  Mg  Mg66  1  0.44836000  0.18214600  0.43778500  1
  Mg  Mg67  1  0.70376300  0.69699400  0.43036100  1
  Mg  Mg68  1  0.29436600  0.06090500  0.50178900  1
  Mg  Mg69  1  0.59411800  0.85388800  0.36829000  1
  Mg  Mg70  1  0.31785400  0.28510100  0.50642200  1
  Mg  Mg71  1  0.82500300  0.35775600  0.36635600  1
  Mg  Mg72  1  0.51999000  0.27976100  0.40535400  1
  Mg  Mg73  1  0.00595300  0.03193800  0.39599600  1
  Mg  Mg74  1  0.76304200  0.25627300  0.40072100  1
  Mg  Mg75  1  0.50208600  0.76862500  0.39793000  1
  Mg  Mg76  1  0.38908100  0.62286700  0.46742400  1
  Mg  Mg77  1  0.28902600  0.76304200  0.40072100  1
  Mg  Mg78  1  0.76862500  0.03483900  0.39793000  1
  Mg  Mg79  1  0.51322200  0.51999000  0.40535400  1
  Mg  Mg80  1  0.63690400  0.87036500  0.47678200  1
  Mg  Mg81  1  0.62286700  0.36309600  0.46742400  1
  Mg  Mg82  1  0.61341600  0.64616900  0.47215000  1
  Mg  Mg83  1  0.39198200  0.85922800  0.46935800  1
  Mg  Mg84  1  0.05413700  0.29436600  0.50178900  1
  Mg  Mg85  1  0.85388800  0.82790400  0.36829000  1
  Mg  Mg86  1  0.81108600  0.31785400  0.50642200  1
  Mg  Mg87  1  0.35775600  0.09121700  0.36635600  1
  Mg  Mg88  1  0.18504600  0.95126100  0.43971900  1
  Mg  Mg89  1  0.28510100  0.81108600  0.50642200  1
  Mg  Mg90  1  0.09121700  0.82500300  0.36635600  1
  Mg  Mg91  1  0.06090500  0.05413700  0.50178900  1
  Mg  Mg92  1  0.93722300  0.70376300  0.43036100  1
  Mg  Mg93  1  0.95126100  0.21103100  0.43971900  1
  Mg  Mg94  1  0.96071100  0.92795800  0.43499300  1
  Mg  Mg95  1  0.18214600  0.71489900  0.43778500  1
  Mg  Mg96  1  0.59141900  0.35119000  0.61963900  1
  Mg  Mg97  1  0.07738200  0.10336700  0.61028100  1
  Mg  Mg98  1  0.83447000  0.32770200  0.61500700  1
  Mg  Mg99  1  0.57351400  0.84005300  0.61221500  1
  Mg  Mg100  1  0.74622400  0.98001000  0.53885300  1
  Mg  Mg101  1  0.36045500  0.83447000  0.61500700  1
  Mg  Mg102  1  0.84005300  0.10626700  0.61221500  1
  Mg  Mg103  1  0.58465000  0.59141900  0.61963900  1
  Mg  Mg104  1  0.99404700  0.22750800  0.54821100  1
  Mg  Mg105  1  0.98001000  0.72023900  0.53885300  1
  Mg  Mg106  1  0.97055900  0.00331200  0.54357800  1
  Mg  Mg107  1  0.74912400  0.21637100  0.54078700  1
  Mg  Mg108  1  0.41128000  0.65150900  0.57321800  1
  Mg  Mg109  1  0.92531700  0.89933200  0.58257600  1
  Mg  Mg110  1  0.16822900  0.67499700  0.57785000  1
  Mg  Mg111  1  0.42918500  0.16264500  0.58064200  1
  Mg  Mg112  1  0.54218900  0.30840300  0.51114700  1
  Mg  Mg113  1  0.64224400  0.16822900  0.57785000  1
  Mg  Mg114  1  0.16264500  0.89643100  0.58064200  1
  Mg  Mg115  1  0.41804800  0.41128000  0.57321800  1
  Mg  Mg116  1  0.00865200  0.77519100  0.64464600  1
  Mg  Mg117  1  0.30840300  0.56817400  0.51114700  1
  Mg  Mg118  1  0.03214000  0.99938700  0.64927900  1
  Mg  Mg119  1  0.53928900  0.07204200  0.50921300  1
  Mg  Mg120  1  0.23427600  0.99404700  0.54821100  1
  Mg  Mg121  1  0.72023900  0.74622400  0.53885300  1
  Mg  Mg122  1  0.47732700  0.97055900  0.54357800  1
  Mg  Mg123  1  0.21637100  0.48291000  0.54078700  1
  Mg  Mg124  1  0.10336700  0.33715200  0.61028100  1
  Mg  Mg125  1  0.00331200  0.47732700  0.54357800  1
  Mg  Mg126  1  0.48291000  0.74912400  0.54078700  1
  Mg  Mg127  1  0.22750800  0.23427600  0.54821100  1
  Mg  Mg128  1  0.35119000  0.58465000  0.61963900  1
  Mg  Mg129  1  0.33715200  0.07738200  0.61028100  1
  Mg  Mg130  1  0.32770200  0.36045500  0.61500700  1
  Mg  Mg131  1  0.10626700  0.57351400  0.61221500  1
  Mg  Mg132  1  0.76842300  0.00865200  0.64464600  1
  Mg  Mg133  1  0.56817400  0.54218900  0.51114700  1
  Mg  Mg134  1  0.52537100  0.03214000  0.64927900  1
  Mg  Mg135  1  0.07204200  0.80550300  0.50921300  1
  Mg  Mg136  1  0.89933200  0.66554600  0.58257600  1
  Mg  Mg137  1  0.99938700  0.52537100  0.64927900  1
  Mg  Mg138  1  0.80550300  0.53928900  0.50921300  1
  Mg  Mg139  1  0.77519100  0.76842300  0.64464600  1
  Mg  Mg140  1  0.65150900  0.41804800  0.57321800  1
  Mg  Mg141  1  0.66554600  0.92531700  0.58257600  1
  Mg  Mg142  1  0.67499700  0.64224400  0.57785000  1
  Mg  Mg143  1  0.89643100  0.42918500  0.58064200  1
  Mg  Mg144  1  0.79166800  0.81765200  0.75313900  1
  Mg  Mg145  1  0.28780000  0.55433900  0.75507200  1
  Mg  Mg146  1  0.46050900  0.69429500  0.68171000  1
  Mg  Mg147  1  0.55433900  0.82055300  0.75507200  1
  Mg  Mg148  1  0.70833200  0.94179300  0.69106800  1
  Mg  Mg149  1  0.69429500  0.43452500  0.68171000  1
  Mg  Mg150  1  0.68484400  0.71759800  0.68643500  1
  Mg  Mg151  1  0.46341000  0.93065700  0.68364400  1
  Mg  Mg152  1  0.12556500  0.36579500  0.71607500  1
  Mg  Mg153  1  0.63960300  0.61361800  0.72543300  1
  Mg  Mg154  1  0.88251400  0.38928300  0.72070700  1
  Mg  Mg155  1  0.14347000  0.87693100  0.72349900  1
  Mg  Mg156  1  0.25647500  0.02268900  0.65400400  1
  Mg  Mg157  1  0.35653000  0.88251400  0.72070700  1
  Mg  Mg158  1  0.87693100  0.61071700  0.72349900  1
  Mg  Mg159  1  0.13233400  0.12556500  0.71607500  1
  Mg  Mg160  1  0.02268900  0.28246000  0.65400400  1
  Mg  Mg161  1  0.25357400  0.78632700  0.65207000  1
  Mg  Mg162  1  0.94856200  0.70833200  0.69106800  1
  Mg  Mg163  1  0.43452500  0.46050900  0.68171000  1
  Mg  Mg164  1  0.19161300  0.68484400  0.68643500  1
  Mg  Mg165  1  0.93065700  0.19719600  0.68364400  1
  Mg  Mg166  1  0.81765200  0.05143800  0.75313900  1
  Mg  Mg167  1  0.71759800  0.19161300  0.68643500  1
  Mg  Mg168  1  0.19719600  0.46341000  0.68364400  1
  Mg  Mg169  1  0.94179300  0.94856200  0.69106800  1
  Mg  Mg170  1  0.05143800  0.79166800  0.75313900  1
  Mg  Mg171  1  0.82055300  0.28780000  0.75507200  1
  Mg  Mg172  1  0.28246000  0.25647500  0.65400400  1
  Mg  Mg173  1  0.78632700  0.51978800  0.65207000  1
  Mg  Mg174  1  0.61361800  0.37983200  0.72543300  1
  Mg  Mg175  1  0.51978800  0.25357400  0.65207000  1
  Mg  Mg176  1  0.36579500  0.13233400  0.71607500  1
  Mg  Mg177  1  0.37983200  0.63960300  0.72543300  1
  Mg  Mg178  1  0.38928300  0.35653000  0.72070700  1
  Mg  Mg179  1  0.61071700  0.14347000  0.72349900  1
  P  P180  1  0.07277800  0.07277800  0.31071400  1
  P  P181  1  0.57277800  0.57277800  0.31071400  1
  P  P182  1  0.07277800  0.57277800  0.31071400  1
  P  P183  1  0.21563500  0.71563500  0.23928600  1
  P  P184  1  0.30578600  0.32957500  0.30731600  1
  P  P185  1  0.95883800  0.70883800  0.24268400  1
  P  P186  1  0.06598100  0.83977000  0.31411300  1
  P  P187  1  0.32957500  0.57957500  0.30731600  1
  P  P188  1  0.22243200  0.94864300  0.23588700  1
  P  P189  1  0.83977000  0.31598100  0.31411300  1
  P  P190  1  0.83977000  0.81598100  0.31411300  1
  P  P191  1  0.47243200  0.72243200  0.23588700  1
  P  P192  1  0.07957500  0.30578600  0.30731600  1
  P  P193  1  0.81598100  0.56598100  0.31411300  1
  P  P194  1  0.20883800  0.48262700  0.24268400  1
  P  P195  1  0.30578600  0.82957500  0.30731600  1
  P  P196  1  0.71563500  0.71563500  0.23928600  1
  P  P197  1  0.21563500  0.21563500  0.23928600  1
  P  P198  1  0.71563500  0.21563500  0.23928600  1
  P  P199  1  0.57277800  0.07277800  0.31071400  1
  P  P200  1  0.94864300  0.97243200  0.23588700  1
  P  P201  1  0.31598100  0.06598100  0.31411300  1
  P  P202  1  0.70883800  0.48262700  0.24268400  1
  P  P203  1  0.97243200  0.22243200  0.23588700  1
  P  P204  1  0.57957500  0.30578600  0.30731600  1
  P  P205  1  0.48262700  0.95883800  0.24268400  1
  P  P206  1  0.48262700  0.45883800  0.24268400  1
  P  P207  1  0.82957500  0.07957500  0.30731600  1
  P  P208  1  0.72243200  0.94864300  0.23588700  1
  P  P209  1  0.45883800  0.20883800  0.24268400  1
  P  P210  1  0.56598100  0.83977000  0.31411300  1
  P  P211  1  0.94864300  0.47243200  0.23588700  1
  P  P212  1  0.78706400  0.78706400  0.45357100  1
  P  P213  1  0.28706400  0.28706400  0.45357100  1
  P  P214  1  0.78706400  0.28706400  0.45357100  1
  P  P215  1  0.92992100  0.42992100  0.38214300  1
  P  P216  1  0.02007200  0.04386000  0.45017300  1
  P  P217  1  0.67312400  0.42312400  0.38554100  1
  P  P218  1  0.78026700  0.55405600  0.45697000  1
  P  P219  1  0.04386000  0.29386000  0.45017300  1
  P  P220  1  0.93671800  0.66292900  0.37874400  1
  P  P221  1  0.55405600  0.03026700  0.45697000  1
  P  P222  1  0.55405600  0.53026700  0.45697000  1
  P  P223  1  0.18671800  0.43671800  0.37874400  1
  P  P224  1  0.79386000  0.02007200  0.45017300  1
  P  P225  1  0.53026700  0.28026700  0.45697000  1
  P  P226  1  0.92312400  0.19691300  0.38554100  1
  P  P227  1  0.02007200  0.54386000  0.45017300  1
  P  P228  1  0.42992100  0.42992100  0.38214300  1
  P  P229  1  0.92992100  0.92992100  0.38214300  1
  P  P230  1  0.42992100  0.92992100  0.38214300  1
  P  P231  1  0.28706400  0.78706400  0.45357100  1
  P  P232  1  0.66292900  0.68671800  0.37874400  1
  P  P233  1  0.03026700  0.78026700  0.45697000  1
  P  P234  1  0.42312400  0.19691300  0.38554100  1
  P  P235  1  0.68671800  0.93671800  0.37874400  1
  P  P236  1  0.29386000  0.02007200  0.45017300  1
  P  P237  1  0.19691300  0.67312400  0.38554100  1
  P  P238  1  0.19691300  0.17312400  0.38554100  1
  P  P239  1  0.54386000  0.79386000  0.45017300  1
  P  P240  1  0.43671800  0.66292900  0.37874400  1
  P  P241  1  0.17312400  0.92312400  0.38554100  1
  P  P242  1  0.28026700  0.55405600  0.45697000  1
  P  P243  1  0.66292900  0.18671800  0.37874400  1
  P  P244  1  0.50134900  0.50134900  0.59642900  1
  P  P245  1  0.00134900  0.00134900  0.59642900  1
  P  P246  1  0.50134900  0.00134900  0.59642900  1
  P  P247  1  0.64420600  0.14420600  0.52500000  1
  P  P248  1  0.73435700  0.75814600  0.59303000  1
  P  P249  1  0.38741000  0.13741000  0.52839800  1
  P  P250  1  0.49455300  0.26834100  0.59982700  1
  P  P251  1  0.75814600  0.00814600  0.59303000  1
  P  P252  1  0.65100300  0.37721400  0.52160200  1
  P  P253  1  0.26834100  0.74455300  0.59982700  1
  P  P254  1  0.26834100  0.24455300  0.59982700  1
  P  P255  1  0.90100300  0.15100300  0.52160200  1
  P  P256  1  0.50814600  0.73435700  0.59303000  1
  P  P257  1  0.24455300  0.99455300  0.59982700  1
  P  P258  1  0.63741000  0.91119900  0.52839800  1
  P  P259  1  0.73435700  0.25814600  0.59303000  1
  P  P260  1  0.14420600  0.14420600  0.52500000  1
  P  P261  1  0.64420600  0.64420600  0.52500000  1
  P  P262  1  0.14420600  0.64420600  0.52500000  1
  P  P263  1  0.00134900  0.50134900  0.59642900  1
  P  P264  1  0.37721400  0.40100300  0.52160200  1
  P  P265  1  0.74455300  0.49455300  0.59982700  1
  P  P266  1  0.13741000  0.91119900  0.52839800  1
  P  P267  1  0.40100300  0.65100300  0.52160200  1
  P  P268  1  0.00814600  0.73435700  0.59303000  1
  P  P269  1  0.91119900  0.38741000  0.52839800  1
  P  P270  1  0.91119900  0.88741000  0.52839800  1
  P  P271  1  0.25814600  0.50814600  0.59303000  1
  P  P272  1  0.15100300  0.37721400  0.52160200  1
  P  P273  1  0.88741000  0.63741000  0.52839800  1
  P  P274  1  0.99455300  0.26834100  0.59982700  1
  P  P275  1  0.37721400  0.90100300  0.52160200  1
  P  P276  1  0.21563500  0.21563500  0.73928600  1
  P  P277  1  0.71563500  0.71563500  0.73928600  1
  P  P278  1  0.21563500  0.71563500  0.73928600  1
  P  P279  1  0.35849200  0.85849200  0.66785700  1
  P  P280  1  0.44864300  0.47243200  0.73588700  1
  P  P281  1  0.10169500  0.85169500  0.67125600  1
  P  P282  1  0.20883800  0.98262700  0.74268400  1
  P  P283  1  0.47243200  0.72243200  0.73588700  1
  P  P284  1  0.36528900  0.09150000  0.66445900  1
  P  P285  1  0.98262700  0.45883800  0.74268400  1
  P  P286  1  0.98262700  0.95883800  0.74268400  1
  P  P287  1  0.61528900  0.86528900  0.66445900  1
  P  P288  1  0.22243200  0.44864300  0.73588700  1
  P  P289  1  0.95883800  0.70883800  0.74268400  1
  P  P290  1  0.35169500  0.62548400  0.67125600  1
  P  P291  1  0.44864300  0.97243200  0.73588700  1
  P  P292  1  0.85849200  0.85849200  0.66785700  1
  P  P293  1  0.35849200  0.35849200  0.66785700  1
  P  P294  1  0.85849200  0.35849200  0.66785700  1
  P  P295  1  0.71563500  0.21563500  0.73928600  1
  P  P296  1  0.09150000  0.11528900  0.66445900  1
  P  P297  1  0.45883800  0.20883800  0.74268400  1
  P  P298  1  0.85169500  0.62548400  0.67125600  1
  P  P299  1  0.11528900  0.36528900  0.66445900  1
  P  P300  1  0.72243200  0.44864300  0.73588700  1
  P  P301  1  0.62548400  0.10169500  0.67125600  1
  P  P302  1  0.62548400  0.60169500  0.67125600  1
  P  P303  1  0.97243200  0.22243200  0.73588700  1
  P  P304  1  0.86528900  0.09150000  0.66445900  1
  P  P305  1  0.60169500  0.35169500  0.67125600  1
  P  P306  1  0.70883800  0.98262700  0.74268400  1
  P  P307  1  0.09150000  0.61528900  0.66445900  1
