# generated using pymatgen
data_Pm2Mg
_symmetry_space_group_name_H-M   'P 1'
_cell_length_a   3.81728300
_cell_length_b   18.28446347
_cell_length_c   43.05431600
_cell_angle_alpha   95.91282997
_cell_angle_beta   90.00000000
_cell_angle_gamma   90.00000000
_symmetry_Int_Tables_number   1
_chemical_formula_structural   Pm2Mg
_chemical_formula_sum   'Pm40 Mg20'
_cell_volume   2989.07326807
_cell_formula_units_Z   20
loop_
 _symmetry_equiv_pos_site_id
 _symmetry_equiv_pos_as_xyz
  1  'x, y, z'
loop_
 _atom_site_type_symbol
 _atom_site_label
 _atom_site_symmetry_multiplicity
 _atom_site_fract_x
 _atom_site_fract_y
 _atom_site_fract_z
 _atom_site_occupancy
  Pm  Pm0  1  0.00000000  0.01658700  0.29227300  1
  Pm  Pm1  1  0.50000000  0.73242800  0.19001000  1
  Pm  Pm2  1  0.50000000  0.67091300  0.27022700  1
  Pm  Pm3  1  0.00000000  0.83007200  0.24749000  1
  Pm  Pm4  1  0.50000000  0.45408700  0.22977300  1
  Pm  Pm5  1  0.00000000  0.29492800  0.25251000  1
  Pm  Pm6  1  0.00000000  0.10841300  0.20772700  1
  Pm  Pm7  1  0.50000000  0.39257200  0.30999000  1
  Pm  Pm8  1  1.00000000  0.14158700  0.41727300  1
  Pm  Pm9  1  0.50000000  0.85742800  0.31501000  1
  Pm  Pm10  1  0.50000000  0.79591300  0.39522700  1
  Pm  Pm11  1  0.00000000  0.95507200  0.37249000  1
  Pm  Pm12  1  0.50000000  0.57908700  0.35477300  1
  Pm  Pm13  1  0.00000000  0.41992800  0.37751000  1
  Pm  Pm14  1  0.00000000  0.23341300  0.33272700  1
  Pm  Pm15  1  0.50000000  0.51757200  0.43499000  1
  Pm  Pm16  1  0.00000000  0.26658700  0.54227300  1
  Pm  Pm17  1  0.50000000  0.98242800  0.44001000  1
  Pm  Pm18  1  0.50000000  0.92091300  0.52022700  1
  Pm  Pm19  1  0.00000000  0.08007200  0.49749000  1
  Pm  Pm20  1  0.50000000  0.70408700  0.47977300  1
  Pm  Pm21  1  0.00000000  0.54492800  0.50251000  1
  Pm  Pm22  1  1.00000000  0.35841300  0.45772700  1
  Pm  Pm23  1  0.50000000  0.64257200  0.55999000  1
  Pm  Pm24  1  0.00000000  0.39158700  0.66727300  1
  Pm  Pm25  1  0.50000000  0.10742800  0.56501000  1
  Pm  Pm26  1  0.50000000  0.04591300  0.64522700  1
  Pm  Pm27  1  0.00000000  0.20507200  0.62249000  1
  Pm  Pm28  1  0.50000000  0.82908700  0.60477300  1
  Pm  Pm29  1  0.00000000  0.66992800  0.62751000  1
  Pm  Pm30  1  0.00000000  0.48341300  0.58272700  1
  Pm  Pm31  1  0.50000000  0.76757200  0.68499000  1
  Pm  Pm32  1  1.00000000  0.51658700  0.79227300  1
  Pm  Pm33  1  0.50000000  0.23242800  0.69001000  1
  Pm  Pm34  1  0.50000000  0.17091300  0.77022700  1
  Pm  Pm35  1  0.00000000  0.33007200  0.74749000  1
  Pm  Pm36  1  0.50000000  0.95408700  0.72977300  1
  Pm  Pm37  1  0.00000000  0.79492800  0.75251000  1
  Pm  Pm38  1  0.00000000  0.60841300  0.70772700  1
  Pm  Pm39  1  0.50000000  0.89257200  0.80999000  1
  Mg  Mg40  1  0.00000000  0.59179700  0.21010000  1
  Mg  Mg41  1  0.50000000  0.97070300  0.22740000  1
  Mg  Mg42  1  0.50000000  0.15429700  0.27260000  1
  Mg  Mg43  1  1.00000000  0.53320300  0.28990000  1
  Mg  Mg44  1  0.00000000  0.71679700  0.33510000  1
  Mg  Mg45  1  0.50000000  0.09570300  0.35240000  1
  Mg  Mg46  1  0.50000000  0.27929700  0.39760000  1
  Mg  Mg47  1  0.00000000  0.65820300  0.41490000  1
  Mg  Mg48  1  0.00000000  0.84179700  0.46010000  1
  Mg  Mg49  1  0.50000000  0.22070300  0.47740000  1
  Mg  Mg50  1  0.50000000  0.40429700  0.52260000  1
  Mg  Mg51  1  0.00000000  0.78320300  0.53990000  1
  Mg  Mg52  1  0.00000000  0.96679700  0.58510000  1
  Mg  Mg53  1  0.50000000  0.34570300  0.60240000  1
  Mg  Mg54  1  0.50000000  0.52929700  0.64760000  1
  Mg  Mg55  1  0.00000000  0.90820300  0.66490000  1
  Mg  Mg56  1  0.00000000  0.09179700  0.71010000  1
  Mg  Mg57  1  0.50000000  0.47070300  0.72740000  1
  Mg  Mg58  1  0.50000000  0.65429700  0.77260000  1
  Mg  Mg59  1  0.00000000  0.03320300  0.78990000  1
