# generated using pymatgen
data_Tb10Mg23
_symmetry_space_group_name_H-M   'P 1'
_cell_length_a   6.08248400
_cell_length_b   6.08248429
_cell_length_c   48.93652600
_cell_angle_alpha   90.00000000
_cell_angle_beta   90.00000000
_cell_angle_gamma   119.99999841
_symmetry_Int_Tables_number   1
_chemical_formula_structural   Tb10Mg23
_chemical_formula_sum   'Tb10 Mg23'
_cell_volume   1567.92666318
_cell_formula_units_Z   1
loop_
 _symmetry_equiv_pos_site_id
 _symmetry_equiv_pos_as_xyz
  1  'x, y, z'
loop_
 _atom_site_type_symbol
 _atom_site_label
 _atom_site_symmetry_multiplicity
 _atom_site_fract_x
 _atom_site_fract_y
 _atom_site_fract_z
 _atom_site_occupancy
  Tb  Tb0  1  0.66666700  0.33333300  0.28752400  1
  Tb  Tb1  1  0.33333300  0.66666700  0.38752400  1
  Tb  Tb2  1  0.33333300  0.66666700  0.26247600  1
  Tb  Tb3  1  0.66666700  0.33333300  0.36247600  1
  Tb  Tb4  1  0.66666700  0.33333300  0.48752400  1
  Tb  Tb5  1  0.33333300  0.66666700  0.58752400  1
  Tb  Tb6  1  0.33333300  0.66666700  0.46247600  1
  Tb  Tb7  1  0.66666700  0.33333300  0.56247600  1
  Tb  Tb8  1  0.66666700  0.33333300  0.68752400  1
  Tb  Tb9  1  0.33333300  0.66666700  0.66247600  1
  Mg  Mg10  1  0.00000000  0.00000000  0.27500000  1
  Mg  Mg11  1  0.00000000  0.00000000  0.37500000  1
  Mg  Mg12  1  0.65727200  0.82863600  0.32500000  1
  Mg  Mg13  1  0.82863600  0.65727200  0.22500000  1
  Mg  Mg14  1  0.82863600  0.17136400  0.22500000  1
  Mg  Mg15  1  0.17136400  0.82863600  0.32500000  1
  Mg  Mg16  1  0.17136400  0.34272800  0.32500000  1
  Mg  Mg17  1  0.34272800  0.17136400  0.22500000  1
  Mg  Mg18  1  0.00000000  0.00000000  0.47500000  1
  Mg  Mg19  1  0.00000000  0.00000000  0.57500000  1
  Mg  Mg20  1  0.65727200  0.82863600  0.52500000  1
  Mg  Mg21  1  0.82863600  0.65727200  0.42500000  1
  Mg  Mg22  1  0.82863600  0.17136400  0.42500000  1
  Mg  Mg23  1  0.17136400  0.82863600  0.52500000  1
  Mg  Mg24  1  0.17136400  0.34272800  0.52500000  1
  Mg  Mg25  1  0.34272800  0.17136400  0.42500000  1
  Mg  Mg26  1  0.00000000  0.00000000  0.67500000  1
  Mg  Mg27  1  0.65727200  0.82863600  0.72500000  1
  Mg  Mg28  1  0.82863600  0.65727200  0.62500000  1
  Mg  Mg29  1  0.82863600  0.17136400  0.62500000  1
  Mg  Mg30  1  0.17136400  0.82863600  0.72500000  1
  Mg  Mg31  1  0.17136400  0.34272800  0.72500000  1
  Mg  Mg32  1  0.34272800  0.17136400  0.62500000  1
