# generated using pymatgen
data_Mg2Zn
_symmetry_space_group_name_H-M   'P 1'
_cell_length_a   5.81388163
_cell_length_b   15.53747000
_cell_length_c   42.05083700
_cell_angle_alpha   90.00000000
_cell_angle_beta   86.45133251
_cell_angle_gamma   90.00000000
_symmetry_Int_Tables_number   1
_chemical_formula_structural   Mg2Zn
_chemical_formula_sum   'Mg80 Zn40'
_cell_volume   3791.29528263
_cell_formula_units_Z   40
loop_
 _symmetry_equiv_pos_site_id
 _symmetry_equiv_pos_as_xyz
  1  'x, y, z'
loop_
 _atom_site_type_symbol
 _atom_site_label
 _atom_site_symmetry_multiplicity
 _atom_site_fract_x
 _atom_site_fract_y
 _atom_site_fract_z
 _atom_site_occupancy
  Mg  Mg0  1  0.17187500  0.90302700  0.20312500  1
  Mg  Mg1  1  0.01562500  0.71771800  0.23437500  1
  Mg  Mg2  1  0.51562500  0.78228200  0.23437500  1
  Mg  Mg3  1  0.67187500  0.59697300  0.20312500  1
  Mg  Mg4  1  0.01562500  0.40302700  0.23437500  1
  Mg  Mg5  1  0.17187500  0.21771800  0.20312500  1
  Mg  Mg6  1  0.67187500  0.28228200  0.20312500  1
  Mg  Mg7  1  0.51562500  0.09697300  0.23437500  1
  Mg  Mg8  1  0.85937500  0.90302700  0.26562500  1
  Mg  Mg9  1  0.70312500  0.71771800  0.29687500  1
  Mg  Mg10  1  0.20312500  0.78228200  0.29687500  1
  Mg  Mg11  1  0.35937500  0.59697300  0.26562500  1
  Mg  Mg12  1  0.70312500  0.40302700  0.29687500  1
  Mg  Mg13  1  0.85937500  0.21771800  0.26562500  1
  Mg  Mg14  1  0.35937500  0.28228200  0.26562500  1
  Mg  Mg15  1  0.20312500  0.09697300  0.29687500  1
  Mg  Mg16  1  0.54687500  0.90302700  0.32812500  1
  Mg  Mg17  1  0.39062500  0.71771800  0.35937500  1
  Mg  Mg18  1  0.89062500  0.78228200  0.35937500  1
  Mg  Mg19  1  0.04687500  0.59697300  0.32812500  1
  Mg  Mg20  1  0.39062500  0.40302700  0.35937500  1
  Mg  Mg21  1  0.54687500  0.21771800  0.32812500  1
  Mg  Mg22  1  0.04687500  0.28228200  0.32812500  1
  Mg  Mg23  1  0.89062500  0.09697300  0.35937500  1
  Mg  Mg24  1  0.23437500  0.90302700  0.39062500  1
  Mg  Mg25  1  0.07812500  0.71771800  0.42187500  1
  Mg  Mg26  1  0.57812500  0.78228200  0.42187500  1
  Mg  Mg27  1  0.73437500  0.59697300  0.39062500  1
  Mg  Mg28  1  0.07812500  0.40302700  0.42187500  1
  Mg  Mg29  1  0.23437500  0.21771800  0.39062500  1
  Mg  Mg30  1  0.73437500  0.28228200  0.39062500  1
  Mg  Mg31  1  0.57812500  0.09697300  0.42187500  1
  Mg  Mg32  1  0.92187500  0.90302700  0.45312500  1
  Mg  Mg33  1  0.76562500  0.71771800  0.48437500  1
  Mg  Mg34  1  0.26562500  0.78228200  0.48437500  1
  Mg  Mg35  1  0.42187500  0.59697300  0.45312500  1
  Mg  Mg36  1  0.76562500  0.40302700  0.48437500  1
  Mg  Mg37  1  0.92187500  0.21771800  0.45312500  1
  Mg  Mg38  1  0.42187500  0.28228200  0.45312500  1
  Mg  Mg39  1  0.26562500  0.09697300  0.48437500  1
  Mg  Mg40  1  0.60937500  0.90302700  0.51562500  1
  Mg  Mg41  1  0.45312500  0.71771800  0.54687500  1
  Mg  Mg42  1  0.95312500  0.78228200  0.54687500  1
  Mg  Mg43  1  0.10937500  0.59697300  0.51562500  1
  Mg  Mg44  1  0.45312500  0.40302700  0.54687500  1
  Mg  Mg45  1  0.60937500  0.21771800  0.51562500  1
  Mg  Mg46  1  0.10937500  0.28228200  0.51562500  1
  Mg  Mg47  1  0.95312500  0.09697300  0.54687500  1
  Mg  Mg48  1  0.29687500  0.90302700  0.57812500  1
  Mg  Mg49  1  0.14062500  0.71771800  0.60937500  1
  Mg  Mg50  1  0.64062500  0.78228200  0.60937500  1
  Mg  Mg51  1  0.79687500  0.59697300  0.57812500  1
  Mg  Mg52  1  0.14062500  0.40302700  0.60937500  1
  Mg  Mg53  1  0.29687500  0.21771800  0.57812500  1
  Mg  Mg54  1  0.79687500  0.28228200  0.57812500  1
  Mg  Mg55  1  0.64062500  0.09697300  0.60937500  1
  Mg  Mg56  1  0.98437500  0.90302700  0.64062500  1
  Mg  Mg57  1  0.82812500  0.71771800  0.67187500  1
  Mg  Mg58  1  0.32812500  0.78228200  0.67187500  1
  Mg  Mg59  1  0.48437500  0.59697300  0.64062500  1
  Mg  Mg60  1  0.82812500  0.40302700  0.67187500  1
  Mg  Mg61  1  0.98437500  0.21771800  0.64062500  1
  Mg  Mg62  1  0.48437500  0.28228200  0.64062500  1
  Mg  Mg63  1  0.32812500  0.09697300  0.67187500  1
  Mg  Mg64  1  0.67187500  0.90302700  0.70312500  1
  Mg  Mg65  1  0.51562500  0.71771800  0.73437500  1
  Mg  Mg66  1  0.01562500  0.78228200  0.73437500  1
  Mg  Mg67  1  0.17187500  0.59697300  0.70312500  1
  Mg  Mg68  1  0.51562500  0.40302700  0.73437500  1
  Mg  Mg69  1  0.67187500  0.21771800  0.70312500  1
  Mg  Mg70  1  0.17187500  0.28228200  0.70312500  1
  Mg  Mg71  1  0.01562500  0.09697300  0.73437500  1
  Mg  Mg72  1  0.35937500  0.90302700  0.76562500  1
  Mg  Mg73  1  0.20312500  0.71771800  0.79687500  1
  Mg  Mg74  1  0.70312500  0.78228200  0.79687500  1
  Mg  Mg75  1  0.85937500  0.59697300  0.76562500  1
  Mg  Mg76  1  0.20312500  0.40302700  0.79687500  1
  Mg  Mg77  1  0.35937500  0.21771800  0.76562500  1
  Mg  Mg78  1  0.85937500  0.28228200  0.76562500  1
  Mg  Mg79  1  0.70312500  0.09697300  0.79687500  1
  Zn  Zn80  1  0.17187500  0.55757800  0.20312500  1
  Zn  Zn81  1  0.67187500  0.94242200  0.20312500  1
  Zn  Zn82  1  0.01562500  0.05757800  0.23437500  1
  Zn  Zn83  1  0.51562500  0.44242200  0.23437500  1
  Zn  Zn84  1  0.85937500  0.55757800  0.26562500  1
  Zn  Zn85  1  0.35937500  0.94242200  0.26562500  1
  Zn  Zn86  1  0.70312500  0.05757800  0.29687500  1
  Zn  Zn87  1  0.20312500  0.44242200  0.29687500  1
  Zn  Zn88  1  0.54687500  0.55757800  0.32812500  1
  Zn  Zn89  1  0.04687500  0.94242200  0.32812500  1
  Zn  Zn90  1  0.39062500  0.05757800  0.35937500  1
  Zn  Zn91  1  0.89062500  0.44242200  0.35937500  1
  Zn  Zn92  1  0.23437500  0.55757800  0.39062500  1
  Zn  Zn93  1  0.73437500  0.94242200  0.39062500  1
  Zn  Zn94  1  0.07812500  0.05757800  0.42187500  1
  Zn  Zn95  1  0.57812500  0.44242200  0.42187500  1
  Zn  Zn96  1  0.92187500  0.55757800  0.45312500  1
  Zn  Zn97  1  0.42187500  0.94242200  0.45312500  1
  Zn  Zn98  1  0.76562500  0.05757800  0.48437500  1
  Zn  Zn99  1  0.26562500  0.44242200  0.48437500  1
  Zn  Zn100  1  0.60937500  0.55757800  0.51562500  1
  Zn  Zn101  1  0.10937500  0.94242200  0.51562500  1
  Zn  Zn102  1  0.45312500  0.05757800  0.54687500  1
  Zn  Zn103  1  0.95312500  0.44242200  0.54687500  1
  Zn  Zn104  1  0.29687500  0.55757800  0.57812500  1
  Zn  Zn105  1  0.79687500  0.94242200  0.57812500  1
  Zn  Zn106  1  0.14062500  0.05757800  0.60937500  1
  Zn  Zn107  1  0.64062500  0.44242200  0.60937500  1
  Zn  Zn108  1  0.98437500  0.55757800  0.64062500  1
  Zn  Zn109  1  0.48437500  0.94242200  0.64062500  1
  Zn  Zn110  1  0.82812500  0.05757800  0.67187500  1
  Zn  Zn111  1  0.32812500  0.44242200  0.67187500  1
  Zn  Zn112  1  0.67187500  0.55757800  0.70312500  1
  Zn  Zn113  1  0.17187500  0.94242200  0.70312500  1
  Zn  Zn114  1  0.51562500  0.05757800  0.73437500  1
  Zn  Zn115  1  0.01562500  0.44242200  0.73437500  1
  Zn  Zn116  1  0.35937500  0.55757800  0.76562500  1
  Zn  Zn117  1  0.85937500  0.94242200  0.76562500  1
  Zn  Zn118  1  0.20312500  0.05757800  0.79687500  1
  Zn  Zn119  1  0.70312500  0.44242200  0.79687500  1
