# generated using pymatgen
data_Mg13In5
_symmetry_space_group_name_H-M   'P 1'
_cell_length_a   8.73688590
_cell_length_b   8.73688566
_cell_length_c   47.35273800
_cell_angle_alpha   92.57587347
_cell_angle_beta   92.57587340
_cell_angle_gamma   114.09938557
_symmetry_Int_Tables_number   1
_chemical_formula_structural   Mg13In5
_chemical_formula_sum   'Mg52 In20'
_cell_volume   3288.24943082
_cell_formula_units_Z   4
loop_
 _symmetry_equiv_pos_site_id
 _symmetry_equiv_pos_as_xyz
  1  'x, y, z'
loop_
 _atom_site_type_symbol
 _atom_site_label
 _atom_site_symmetry_multiplicity
 _atom_site_fract_x
 _atom_site_fract_y
 _atom_site_fract_z
 _atom_site_occupancy
  Mg  Mg0  1  0.32885800  0.49901100  0.72368500  1
  Mg  Mg1  1  0.30050400  0.13035100  0.69060100  1
  Mg  Mg2  1  0.72885800  0.89901100  0.62368500  1
  Mg  Mg3  1  0.70050400  0.53035100  0.59060100  1
  Mg  Mg4  1  0.69901100  0.52885800  0.67368500  1
  Mg  Mg5  1  0.33035100  0.50050400  0.64060100  1
  Mg  Mg6  1  0.91468100  0.91468100  0.68214300  1
  Mg  Mg7  1  0.11468100  0.11468100  0.63214300  1
  Mg  Mg8  1  0.15124900  0.67811300  0.68214300  1
  Mg  Mg9  1  0.67811300  0.15124900  0.68214300  1
  Mg  Mg10  1  0.87811300  0.35124900  0.63214300  1
  Mg  Mg11  1  0.35124900  0.87811300  0.63214300  1
  Mg  Mg12  1  0.12885800  0.29901100  0.52368500  1
  Mg  Mg13  1  0.10050400  0.93035100  0.49060100  1
  Mg  Mg14  1  0.09901100  0.92885800  0.57368500  1
  Mg  Mg15  1  0.73035100  0.90050400  0.54060100  1
  Mg  Mg16  1  0.31468100  0.31468100  0.58214300  1
  Mg  Mg17  1  0.51468100  0.51468100  0.53214300  1
  Mg  Mg18  1  0.55124900  0.07811300  0.58214300  1
  Mg  Mg19  1  0.07811300  0.55124900  0.58214300  1
  Mg  Mg20  1  0.27811300  0.75124900  0.53214300  1
  Mg  Mg21  1  0.75124900  0.27811300  0.53214300  1
  Mg  Mg22  1  0.52885800  0.69901100  0.42368500  1
  Mg  Mg23  1  0.50050400  0.33035100  0.39060100  1
  Mg  Mg24  1  0.49901100  0.32885800  0.47368500  1
  Mg  Mg25  1  0.13035100  0.30050400  0.44060100  1
  Mg  Mg26  1  0.71468100  0.71468100  0.48214300  1
  Mg  Mg27  1  0.91468100  0.91468100  0.43214300  1
  Mg  Mg28  1  0.95124900  0.47811300  0.48214300  1
  Mg  Mg29  1  0.47811300  0.95124900  0.48214300  1
  Mg  Mg30  1  0.67811300  0.15124900  0.43214300  1
  Mg  Mg31  1  0.15124900  0.67811300  0.43214300  1
  Mg  Mg32  1  0.92885800  0.09901100  0.32368500  1
  Mg  Mg33  1  0.90050400  0.73035100  0.29060100  1
  Mg  Mg34  1  0.89901100  0.72885800  0.37368500  1
  Mg  Mg35  1  0.53035100  0.70050400  0.34060100  1
  Mg  Mg36  1  0.11468100  0.11468100  0.38214300  1
  Mg  Mg37  1  0.31468100  0.31468100  0.33214300  1
  Mg  Mg38  1  0.35124900  0.87811300  0.38214300  1
  Mg  Mg39  1  0.87811300  0.35124900  0.38214300  1
  Mg  Mg40  1  0.07811300  0.55124900  0.33214300  1
  Mg  Mg41  1  0.55124900  0.07811300  0.33214300  1
  Mg  Mg42  1  0.32885800  0.49901100  0.22368500  1
  Mg  Mg43  1  0.30050400  0.13035100  0.19060100  1
  Mg  Mg44  1  0.29901100  0.12885800  0.27368500  1
  Mg  Mg45  1  0.93035100  0.10050400  0.24060100  1
  Mg  Mg46  1  0.51468100  0.51468100  0.28214300  1
  Mg  Mg47  1  0.71468100  0.71468100  0.23214300  1
  Mg  Mg48  1  0.75124900  0.27811300  0.28214300  1
  Mg  Mg49  1  0.27811300  0.75124900  0.28214300  1
  Mg  Mg50  1  0.47811300  0.95124900  0.23214300  1
  Mg  Mg51  1  0.95124900  0.47811300  0.23214300  1
  In  In52  1  0.04934700  0.29342200  0.68326000  1
  In  In53  1  0.98001500  0.73594000  0.63102600  1
  In  In54  1  0.49342200  0.24934700  0.63326000  1
  In  In55  1  0.53594000  0.78001500  0.68102600  1
  In  In56  1  0.44934700  0.69342200  0.58326000  1
  In  In57  1  0.38001500  0.13594000  0.53102600  1
  In  In58  1  0.89342200  0.64934700  0.53326000  1
  In  In59  1  0.93594000  0.18001500  0.58102600  1
  In  In60  1  0.84934700  0.09342200  0.48326000  1
  In  In61  1  0.78001500  0.53594000  0.43102600  1
  In  In62  1  0.29342200  0.04934700  0.43326000  1
  In  In63  1  0.33594000  0.58001500  0.48102600  1
  In  In64  1  0.24934700  0.49342200  0.38326000  1
  In  In65  1  0.18001500  0.93594000  0.33102600  1
  In  In66  1  0.69342200  0.44934700  0.33326000  1
  In  In67  1  0.73594000  0.98001500  0.38102600  1
  In  In68  1  0.64934700  0.89342200  0.28326000  1
  In  In69  1  0.58001500  0.33594000  0.23102600  1
  In  In70  1  0.09342200  0.84934700  0.23326000  1
  In  In71  1  0.13594000  0.38001500  0.28102600  1
