# generated using pymatgen
data_Mg11Pt5
_symmetry_space_group_name_H-M   'P 1'
_cell_length_a   5.33237421
_cell_length_b   5.33237457
_cell_length_c   42.53650900
_cell_angle_alpha   91.75059349
_cell_angle_beta   93.40223052
_cell_angle_gamma   106.43411709
_symmetry_Int_Tables_number   1
_chemical_formula_structural   Mg11Pt5
_chemical_formula_sum   'Mg22 Pt10'
_cell_volume   1156.61843804
_cell_formula_units_Z   2
loop_
 _symmetry_equiv_pos_site_id
 _symmetry_equiv_pos_as_xyz
  1  'x, y, z'
loop_
 _atom_site_type_symbol
 _atom_site_label
 _atom_site_symmetry_multiplicity
 _atom_site_fract_x
 _atom_site_fract_y
 _atom_site_fract_z
 _atom_site_occupancy
  Mg  Mg0  1  0.82175700  0.11334400  0.30166100  1
  Mg  Mg1  1  0.37159800  0.25996800  0.26500500  1
  Mg  Mg2  1  0.25503700  0.69340800  0.31500500  1
  Mg  Mg3  1  0.32175700  0.71334400  0.40166100  1
  Mg  Mg4  1  0.43831700  0.27990400  0.35166100  1
  Mg  Mg5  1  0.87159800  0.85996800  0.36500500  1
  Mg  Mg6  1  0.75503700  0.29340800  0.41500500  1
  Mg  Mg7  1  0.82175700  0.31334400  0.50166100  1
  Mg  Mg8  1  0.93831700  0.87990400  0.45166100  1
  Mg  Mg9  1  0.37159800  0.45996800  0.46500500  1
  Mg  Mg10  1  0.25503700  0.89340800  0.51500500  1
  Mg  Mg11  1  0.32175700  0.91334400  0.60166100  1
  Mg  Mg12  1  0.43831700  0.47990400  0.55166100  1
  Mg  Mg13  1  0.87159800  0.05996800  0.56500500  1
  Mg  Mg14  1  0.75503700  0.49340800  0.61500500  1
  Mg  Mg15  1  0.82175700  0.51334400  0.70166100  1
  Mg  Mg16  1  0.93831700  0.07990400  0.65166100  1
  Mg  Mg17  1  0.37159800  0.65996800  0.66500500  1
  Mg  Mg18  1  0.25503700  0.09340800  0.71500500  1
  Mg  Mg19  1  0.32175700  0.11334400  0.80166100  1
  Mg  Mg20  1  0.43831700  0.67990400  0.75166100  1
  Mg  Mg21  1  0.87159800  0.25996800  0.76500500  1
  Pt  Pt22  1  0.72167700  0.58665600  0.30833300  1
  Pt  Pt23  1  0.97167700  0.38665600  0.35833300  1
  Pt  Pt24  1  0.22167700  0.18665600  0.40833300  1
  Pt  Pt25  1  0.47167700  0.98665600  0.45833300  1
  Pt  Pt26  1  0.72167700  0.78665600  0.50833300  1
  Pt  Pt27  1  0.97167700  0.58665600  0.55833300  1
  Pt  Pt28  1  0.22167700  0.38665600  0.60833300  1
  Pt  Pt29  1  0.47167700  0.18665600  0.65833300  1
  Pt  Pt30  1  0.72167700  0.98665600  0.70833300  1
  Pt  Pt31  1  0.97167700  0.78665600  0.75833300  1
