# generated using pymatgen
data_Ce3Mg34
_symmetry_space_group_name_H-M   'P 1'
_cell_length_a   5.91556100
_cell_length_b   10.31376300
_cell_length_c   51.56881300
_cell_angle_alpha   90.00000000
_cell_angle_beta   90.00000000
_cell_angle_gamma   90.00000000
_symmetry_Int_Tables_number   1
_chemical_formula_structural   Ce3Mg34
_chemical_formula_sum   'Ce6 Mg68'
_cell_volume   3146.30064726
_cell_formula_units_Z   2
loop_
 _symmetry_equiv_pos_site_id
 _symmetry_equiv_pos_as_xyz
  1  'x, y, z'
loop_
 _atom_site_type_symbol
 _atom_site_label
 _atom_site_symmetry_multiplicity
 _atom_site_fract_x
 _atom_site_fract_y
 _atom_site_fract_z
 _atom_site_occupancy
  Ce  Ce0  1  0.00000000  0.00000000  0.36538500  1
  Ce  Ce1  1  0.50000000  0.50000000  0.26538500  1
  Ce  Ce2  1  0.00000000  0.00000000  0.56538500  1
  Ce  Ce3  1  0.50000000  0.50000000  0.46538500  1
  Ce  Ce4  1  0.00000000  0.00000000  0.76538500  1
  Ce  Ce5  1  0.50000000  0.50000000  0.66538500  1
  Mg  Mg6  1  0.50000000  0.78741600  0.36538500  1
  Mg  Mg7  1  0.50000000  0.21258400  0.36538500  1
  Mg  Mg8  1  0.00000000  0.50000000  0.30790100  1
  Mg  Mg9  1  0.00000000  0.50000000  0.22286800  1
  Mg  Mg10  1  0.00000000  0.35120600  0.36538500  1
  Mg  Mg11  1  0.00000000  0.64879400  0.36538500  1
  Mg  Mg12  1  0.50000000  0.50000000  0.39514400  1
  Mg  Mg13  1  0.50000000  0.50000000  0.33562600  1
  Mg  Mg14  1  0.25000000  0.25000000  0.31538500  1
  Mg  Mg15  1  0.75000000  0.25000000  0.31538500  1
  Mg  Mg16  1  0.00000000  0.28741600  0.26538500  1
  Mg  Mg17  1  0.00000000  0.71258400  0.26538500  1
  Mg  Mg18  1  0.50000000  0.00000000  0.40790100  1
  Mg  Mg19  1  0.50000000  0.00000000  0.32286800  1
  Mg  Mg20  1  0.50000000  0.85120600  0.26538500  1
  Mg  Mg21  1  0.50000000  0.14879400  0.26538500  1
  Mg  Mg22  1  0.00000000  0.00000000  0.29514400  1
  Mg  Mg23  1  0.00000000  0.00000000  0.23562600  1
  Mg  Mg24  1  0.75000000  0.75000000  0.31538500  1
  Mg  Mg25  1  0.25000000  0.75000000  0.31538500  1
  Mg  Mg26  1  0.50000000  0.78741600  0.56538500  1
  Mg  Mg27  1  0.50000000  0.21258400  0.56538500  1
  Mg  Mg28  1  0.00000000  0.50000000  0.50790100  1
  Mg  Mg29  1  0.00000000  0.50000000  0.42286800  1
  Mg  Mg30  1  0.00000000  0.35120600  0.56538500  1
  Mg  Mg31  1  0.00000000  0.64879400  0.56538500  1
  Mg  Mg32  1  0.50000000  0.50000000  0.59514400  1
  Mg  Mg33  1  0.50000000  0.50000000  0.53562600  1
  Mg  Mg34  1  0.25000000  0.25000000  0.41538500  1
  Mg  Mg35  1  0.75000000  0.25000000  0.41538500  1
  Mg  Mg36  1  0.25000000  0.25000000  0.51538500  1
  Mg  Mg37  1  0.75000000  0.25000000  0.51538500  1
  Mg  Mg38  1  0.00000000  0.28741600  0.46538500  1
  Mg  Mg39  1  1.00000000  0.71258400  0.46538500  1
  Mg  Mg40  1  0.50000000  0.00000000  0.60790100  1
  Mg  Mg41  1  0.50000000  0.00000000  0.52286800  1
  Mg  Mg42  1  0.50000000  0.85120600  0.46538500  1
  Mg  Mg43  1  0.50000000  0.14879400  0.46538500  1
  Mg  Mg44  1  0.00000000  0.00000000  0.49514400  1
  Mg  Mg45  1  0.00000000  0.00000000  0.43562600  1
  Mg  Mg46  1  0.75000000  0.75000000  0.51538500  1
  Mg  Mg47  1  0.25000000  0.75000000  0.51538500  1
  Mg  Mg48  1  0.75000000  0.75000000  0.41538500  1
  Mg  Mg49  1  0.25000000  0.75000000  0.41538500  1
  Mg  Mg50  1  0.50000000  0.78741600  0.76538500  1
  Mg  Mg51  1  0.50000000  0.21258400  0.76538500  1
  Mg  Mg52  1  0.00000000  0.50000000  0.70790100  1
  Mg  Mg53  1  0.00000000  0.50000000  0.62286800  1
  Mg  Mg54  1  0.00000000  0.35120600  0.76538500  1
  Mg  Mg55  1  0.00000000  0.64879400  0.76538500  1
  Mg  Mg56  1  0.50000000  0.50000000  0.79514400  1
  Mg  Mg57  1  0.50000000  0.50000000  0.73562600  1
  Mg  Mg58  1  0.25000000  0.25000000  0.61538500  1
  Mg  Mg59  1  0.75000000  0.25000000  0.61538500  1
  Mg  Mg60  1  0.25000000  0.25000000  0.71538500  1
  Mg  Mg61  1  0.75000000  0.25000000  0.71538500  1
  Mg  Mg62  1  0.00000000  0.28741600  0.66538500  1
  Mg  Mg63  1  0.00000000  0.71258400  0.66538500  1
  Mg  Mg64  1  0.50000000  0.00000000  0.80790100  1
  Mg  Mg65  1  0.50000000  0.00000000  0.72286800  1
  Mg  Mg66  1  0.50000000  0.85120600  0.66538500  1
  Mg  Mg67  1  0.50000000  0.14879400  0.66538500  1
  Mg  Mg68  1  0.00000000  0.00000000  0.69514400  1
  Mg  Mg69  1  0.00000000  0.00000000  0.63562600  1
  Mg  Mg70  1  0.75000000  0.75000000  0.71538500  1
  Mg  Mg71  1  0.25000000  0.75000000  0.71538500  1
  Mg  Mg72  1  0.75000000  0.75000000  0.61538500  1
  Mg  Mg73  1  0.25000000  0.75000000  0.61538500  1
