# generated using pymatgen
data_Mg56Zn103
_symmetry_space_group_name_H-M   'P 1'
_cell_length_a   5.07402237
_cell_length_b   17.20699092
_cell_length_c   54.58155700
_cell_angle_alpha   87.89733091
_cell_angle_beta   92.22235669
_cell_angle_gamma   98.42726965
_symmetry_Int_Tables_number   1
_chemical_formula_structural   Mg56Zn103
_chemical_formula_sum   'Mg56 Zn103'
_cell_volume   4708.12472958
_cell_formula_units_Z   1
loop_
 _symmetry_equiv_pos_site_id
 _symmetry_equiv_pos_as_xyz
  1  'x, y, z'
loop_
 _atom_site_type_symbol
 _atom_site_label
 _atom_site_symmetry_multiplicity
 _atom_site_fract_x
 _atom_site_fract_y
 _atom_site_fract_z
 _atom_site_occupancy
  Mg  Mg0  1  0.61003200  0.12851400  0.21925400  1
  Mg  Mg1  1  0.34845500  0.51226000  0.31792900  1
  Mg  Mg2  1  0.06713900  0.91270600  0.33759900  1
  Mg  Mg3  1  0.86164200  0.44060800  0.40360000  1
  Mg  Mg4  1  0.90551200  0.61898800  0.31565800  1
  Mg  Mg5  1  0.64146500  0.12247600  0.28035100  1
  Mg  Mg6  1  0.98349200  0.73466800  0.36069300  1
  Mg  Mg7  1  0.77034900  0.29540900  0.37458200  1
  Mg  Mg8  1  0.48693000  0.70495200  0.39565500  1
  Mg  Mg9  1  0.92647900  0.71702900  0.26252400  1
  Mg  Mg10  1  0.76485300  0.42331100  0.24058300  1
  Mg  Mg11  1  0.14506200  0.03106500  0.38252700  1
  Mg  Mg12  1  0.32953000  0.41961800  0.36735100  1
  Mg  Mg13  1  0.56098000  0.94466700  0.30300600  1
  Mg  Mg14  1  0.27101200  0.39135000  0.27517600  1
  Mg  Mg15  1  0.84850000  0.60134900  0.21748900  1
  Mg  Mg16  1  0.22196000  0.20750300  0.35892800  1
  Mg  Mg17  1  0.19052600  0.21354100  0.29783100  1
  Mg  Mg18  1  0.48353700  0.82375700  0.26025300  1
  Mg  Mg19  1  0.50246200  0.91639900  0.21083000  1
  Mg  Mg20  1  0.41003200  0.52851400  0.41925400  1
  Mg  Mg21  1  0.14845500  0.91226000  0.51792900  1
  Mg  Mg22  1  0.86713900  0.31270600  0.53759900  1
  Mg  Mg23  1  0.66164200  0.84060800  0.60360000  1
  Mg  Mg24  1  0.70551200  0.01898800  0.51565800  1
  Mg  Mg25  1  0.44146500  0.52247600  0.48035100  1
  Mg  Mg26  1  0.78349200  0.13466800  0.56069300  1
  Mg  Mg27  1  0.57034900  0.69540900  0.57458200  1
  Mg  Mg28  1  0.28693000  0.10495200  0.59565500  1
  Mg  Mg29  1  0.72647900  0.11702900  0.46252400  1
  Mg  Mg30  1  0.56485300  0.82331100  0.44058300  1
  Mg  Mg31  1  0.94506200  0.43106500  0.58252700  1
  Mg  Mg32  1  0.12953000  0.81961800  0.56735100  1
  Mg  Mg33  1  0.36098000  0.34466700  0.50300600  1
  Mg  Mg34  1  0.07101200  0.79135000  0.47517600  1
  Mg  Mg35  1  0.64850000  0.00134900  0.41748900  1
  Mg  Mg36  1  0.02196000  0.60750300  0.55892800  1
  Mg  Mg37  1  0.99052600  0.61354100  0.49783100  1
  Mg  Mg38  1  0.28353700  0.22375700  0.46025300  1
  Mg  Mg39  1  0.30246200  0.31639900  0.41083000  1
  Mg  Mg40  1  0.21003200  0.92851400  0.61925400  1
  Mg  Mg41  1  0.94845500  0.31226000  0.71792900  1
  Mg  Mg42  1  0.66713900  0.71270600  0.73759900  1
  Mg  Mg43  1  0.50551200  0.41898800  0.71565800  1
  Mg  Mg44  1  0.24146500  0.92247600  0.68035100  1
  Mg  Mg45  1  0.58349200  0.53466800  0.76069300  1
  Mg  Mg46  1  0.52647900  0.51702900  0.66252400  1
  Mg  Mg47  1  0.36485300  0.22331100  0.64058300  1
  Mg  Mg48  1  0.92953000  0.21961800  0.76735100  1
  Mg  Mg49  1  0.16098000  0.74466700  0.70300600  1
  Mg  Mg50  1  0.87101200  0.19135000  0.67517600  1
  Mg  Mg51  1  0.44850000  0.40134900  0.61748900  1
  Mg  Mg52  1  0.82196000  0.00750300  0.75892800  1
  Mg  Mg53  1  0.79052600  0.01354100  0.69783100  1
  Mg  Mg54  1  0.08353700  0.62375700  0.66025300  1
  Mg  Mg55  1  0.10246200  0.71639900  0.61083000  1
  Zn  Zn56  1  0.43867500  0.67295300  0.33770800  1
  Zn  Zn57  1  0.84106100  0.46327300  0.34541700  1
  Zn  Zn58  1  0.23286100  0.36486200  0.21894400  1
  Zn  Zn59  1  0.67230700  0.76112900  0.20980700  1
  Zn  Zn60  1  0.09223100  0.55052400  0.26873100  1
  Zn  Zn61  1  0.65514100  0.57398300  0.36731300  1
  Zn  Zn62  1  0.81599600  0.86800800  0.38909100  1
  Zn  Zn63  1  0.39331700  0.66306400  0.24047400  1
  Zn  Zn64  1  0.73173100  0.30027800  0.28667900  1
  Zn  Zn65  1  0.23348700  0.78571200  0.30950400  1
  Zn  Zn66  1  0.93843000  0.26097300  0.24781100  1
  Zn  Zn67  1  0.12483800  0.12656600  0.24996800  1
  Zn  Zn68  1  0.52424900  0.82299300  0.34978200  1
  Zn  Zn69  1  0.02533400  0.88390700  0.28085200  1
  Zn  Zn70  1  0.99093000  0.87274400  0.23276500  1
  Zn  Zn71  1  0.10026100  0.03573900  0.29150300  1
  Zn  Zn72  1  0.31872800  0.99289600  0.25136300  1
  Zn  Zn73  1  0.59850500  0.55030500  0.26867800  1
  Zn  Zn74  1  0.17685000  0.76203400  0.21086900  1
  Zn  Zn75  1  0.30774200  0.51302400  0.22839900  1
  Zn  Zn76  1  0.51326300  0.34312100  0.32681900  1
  Zn  Zn77  1  0.73976100  0.78549300  0.30945100  1
  Zn  Zn78  1  0.31599600  0.86800800  0.38909100  1
  Zn  Zn79  1  0.14440000  0.21843600  0.20657300  1
  Zn  Zn80  1  0.44283900  0.26126000  0.24821800  1
  Zn  Zn81  1  0.80490000  0.99293000  0.25047100  1
  Zn  Zn82  1  0.68759100  0.11758100  0.37160800  1
  Zn  Zn83  1  0.02709200  0.34308700  0.32771100  1
  Zn  Zn84  1  0.80665700  0.45211000  0.29733000  1
  Zn  Zn85  1  0.38915300  0.07475700  0.32996400  1
  Zn  Zn86  1  0.15968500  0.57488800  0.36837500  1
  Zn  Zn87  1  0.41599600  0.66800800  0.28909100  1
  Zn  Zn88  1  0.89356200  0.07504400  0.33037000  1
  Zn  Zn89  1  0.70715400  0.20945100  0.32821400  1
  Zn  Zn90  1  0.59913000  0.97115500  0.35923800  1
  Zn  Zn91  1  0.23867500  0.07295300  0.53770800  1
  Zn  Zn92  1  0.64106100  0.86327300  0.54541700  1
  Zn  Zn93  1  0.03286100  0.76486200  0.41894400  1
  Zn  Zn94  1  0.47230700  0.16112900  0.40980700  1
  Zn  Zn95  1  0.89223100  0.95052400  0.46873100  1
  Zn  Zn96  1  0.45514100  0.97398300  0.56731300  1
  Zn  Zn97  1  0.61599600  0.26800800  0.58909100  1
  Zn  Zn98  1  0.19331700  0.06306400  0.44047400  1
  Zn  Zn99  1  0.53173100  0.70027800  0.48667900  1
  Zn  Zn100  1  0.03348700  0.18571200  0.50950400  1
  Zn  Zn101  1  0.73843000  0.66097300  0.44781100  1
  Zn  Zn102  1  0.92483800  0.52656600  0.44996800  1
  Zn  Zn103  1  0.32424900  0.22299300  0.54978200  1
  Zn  Zn104  1  0.82533400  0.28390700  0.48085200  1
  Zn  Zn105  1  0.79093000  0.27274400  0.43276500  1
  Zn  Zn106  1  0.90026100  0.43573900  0.49150300  1
  Zn  Zn107  1  0.11872800  0.39289600  0.45136300  1
  Zn  Zn108  1  0.39850500  0.95030500  0.46867800  1
  Zn  Zn109  1  0.97685000  0.16203400  0.41086900  1
  Zn  Zn110  1  0.10774200  0.91302400  0.42839900  1
  Zn  Zn111  1  0.31326300  0.74312100  0.52681900  1
  Zn  Zn112  1  0.53976100  0.18549300  0.50945100  1
  Zn  Zn113  1  0.11599600  0.26800800  0.58909100  1
  Zn  Zn114  1  0.94440000  0.61843600  0.40657300  1
  Zn  Zn115  1  0.24283900  0.66126000  0.44821800  1
  Zn  Zn116  1  0.60490000  0.39293000  0.45047100  1
  Zn  Zn117  1  0.48759100  0.51758100  0.57160800  1
  Zn  Zn118  1  0.82709200  0.74308700  0.52771100  1
  Zn  Zn119  1  0.60665700  0.85211000  0.49733000  1
  Zn  Zn120  1  0.18915300  0.47475700  0.52996400  1
  Zn  Zn121  1  0.95968500  0.97488800  0.56837500  1
  Zn  Zn122  1  0.21599600  0.06800800  0.48909100  1
  Zn  Zn123  1  0.69356200  0.47504400  0.53037000  1
  Zn  Zn124  1  0.50715400  0.60945100  0.52821400  1
  Zn  Zn125  1  0.39913000  0.37115500  0.55923800  1
  Zn  Zn126  1  0.03867500  0.47295300  0.73770800  1
  Zn  Zn127  1  0.44106100  0.26327300  0.74541700  1
  Zn  Zn128  1  0.83286100  0.16486200  0.61894400  1
  Zn  Zn129  1  0.27230700  0.56112900  0.60980700  1
  Zn  Zn130  1  0.69223100  0.35052400  0.66873100  1
  Zn  Zn131  1  0.25514100  0.37398300  0.76731300  1
  Zn  Zn132  1  0.99331700  0.46306400  0.64047400  1
  Zn  Zn133  1  0.33173100  0.10027800  0.68667900  1
  Zn  Zn134  1  0.83348700  0.58571200  0.70950400  1
  Zn  Zn135  1  0.53843000  0.06097300  0.64781100  1
  Zn  Zn136  1  0.72483800  0.92656600  0.64996800  1
  Zn  Zn137  1  0.12424900  0.62299300  0.74978200  1
  Zn  Zn138  1  0.62533400  0.68390700  0.68085200  1
  Zn  Zn139  1  0.59093000  0.67274400  0.63276500  1
  Zn  Zn140  1  0.70026100  0.83573900  0.69150300  1
  Zn  Zn141  1  0.91872800  0.79289600  0.65136300  1
  Zn  Zn142  1  0.19850500  0.35030500  0.66867800  1
  Zn  Zn143  1  0.77685000  0.56203400  0.61086900  1
  Zn  Zn144  1  0.90774200  0.31302400  0.62839900  1
  Zn  Zn145  1  0.11326300  0.14312100  0.72681900  1
  Zn  Zn146  1  0.33976100  0.58549300  0.70945100  1
  Zn  Zn147  1  0.74440000  0.01843600  0.60657300  1
  Zn  Zn148  1  0.04283900  0.06126000  0.64821800  1
  Zn  Zn149  1  0.40490000  0.79293000  0.65047100  1
  Zn  Zn150  1  0.28759100  0.91758100  0.77160800  1
  Zn  Zn151  1  0.62709200  0.14308700  0.72771100  1
  Zn  Zn152  1  0.40665700  0.25211000  0.69733000  1
  Zn  Zn153  1  0.98915300  0.87475700  0.72996400  1
  Zn  Zn154  1  0.75968500  0.37488800  0.76837500  1
  Zn  Zn155  1  0.01599600  0.46800800  0.68909100  1
  Zn  Zn156  1  0.49356200  0.87504400  0.73037000  1
  Zn  Zn157  1  0.30715400  0.00945100  0.72821400  1
  Zn  Zn158  1  0.19913000  0.77115500  0.75923800  1
