# generated using pymatgen
data_Mg2Sc
_symmetry_space_group_name_H-M   'P 1'
_cell_length_a   3.25178700
_cell_length_b   5.20787600
_cell_length_c   49.78032200
_cell_angle_alpha   90.00000000
_cell_angle_beta   90.00000000
_cell_angle_gamma   90.00000000
_symmetry_Int_Tables_number   1
_chemical_formula_structural   Mg2Sc
_chemical_formula_sum   'Mg16 Sc8'
_cell_volume   843.02494800
_cell_formula_units_Z   8
loop_
 _symmetry_equiv_pos_site_id
 _symmetry_equiv_pos_as_xyz
  1  'x, y, z'
loop_
 _atom_site_type_symbol
 _atom_site_label
 _atom_site_symmetry_multiplicity
 _atom_site_fract_x
 _atom_site_fract_y
 _atom_site_fract_z
 _atom_site_occupancy
  Mg  Mg0  1  0.00000000  0.75000000  0.45328500  1
  Mg  Mg1  1  0.50000000  0.75000000  0.17550600  1
  Mg  Mg2  1  0.50000000  0.25000000  0.21338100  1
  Mg  Mg3  1  0.00000000  0.25000000  0.49116100  1
  Mg  Mg4  1  0.50000000  0.75000000  0.28661900  1
  Mg  Mg5  1  0.00000000  0.75000000  0.34217300  1
  Mg  Mg6  1  0.00000000  0.25000000  0.38004800  1
  Mg  Mg7  1  0.50000000  0.25000000  0.32449400  1
  Mg  Mg8  1  0.00000000  0.75000000  0.78661900  1
  Mg  Mg9  1  0.50000000  0.75000000  0.50883900  1
  Mg  Mg10  1  0.50000000  0.25000000  0.54671500  1
  Mg  Mg11  1  0.00000000  0.25000000  0.82449400  1
  Mg  Mg12  1  0.50000000  0.75000000  0.61995200  1
  Mg  Mg13  1  0.00000000  0.75000000  0.67550600  1
  Mg  Mg14  1  0.00000000  0.25000000  0.71338100  1
  Mg  Mg15  1  0.50000000  0.25000000  0.65782700  1
  Sc  Sc16  1  0.00000000  0.75000000  0.23110700  1
  Sc  Sc17  1  0.50000000  0.25000000  0.43555900  1
  Sc  Sc18  1  0.50000000  0.75000000  0.39777400  1
  Sc  Sc19  1  0.00000000  0.25000000  0.26889300  1
  Sc  Sc20  1  0.00000000  0.75000000  0.56444100  1
  Sc  Sc21  1  0.50000000  0.25000000  0.76889300  1
  Sc  Sc22  1  0.50000000  0.75000000  0.73110700  1
  Sc  Sc23  1  0.00000000  0.25000000  0.60222600  1
