# generated using pymatgen
data_Mg19Hg7
_symmetry_space_group_name_H-M   'P 1'
_cell_length_a   6.29546068
_cell_length_b   8.04033709
_cell_length_c   44.48279200
_cell_angle_alpha   87.34489136
_cell_angle_beta   94.05780633
_cell_angle_gamma   66.95260759
_symmetry_Int_Tables_number   1
_chemical_formula_structural   Mg19Hg7
_chemical_formula_sum   'Mg38 Hg14'
_cell_volume   2059.96631706
_cell_formula_units_Z   2
loop_
 _symmetry_equiv_pos_site_id
 _symmetry_equiv_pos_as_xyz
  1  'x, y, z'
loop_
 _atom_site_type_symbol
 _atom_site_label
 _atom_site_symmetry_multiplicity
 _atom_site_fract_x
 _atom_site_fract_y
 _atom_site_fract_z
 _atom_site_occupancy
  Mg  Mg0  1  0.02923500  0.01121700  0.27810200  1
  Mg  Mg1  1  0.72108900  0.61297300  0.26356500  1
  Mg  Mg2  1  0.86256800  0.42788400  0.36143500  1
  Mg  Mg3  1  0.44104400  0.72295100  0.31928300  1
  Mg  Mg4  1  0.94687300  0.72295100  0.31928300  1
  Mg  Mg5  1  0.63678400  0.31790600  0.30571700  1
  Mg  Mg6  1  0.14261300  0.31790600  0.30571700  1
  Mg  Mg7  1  0.55442200  0.02964000  0.34689800  1
  Mg  Mg8  1  0.69590200  0.84455100  0.44476800  1
  Mg  Mg9  1  0.27437800  0.13961800  0.40261600  1
  Mg  Mg10  1  0.78020700  0.13961800  0.40261600  1
  Mg  Mg11  1  0.47011700  0.73457300  0.38905100  1
  Mg  Mg12  1  0.97594600  0.73457300  0.38905100  1
  Mg  Mg13  1  0.38775500  0.44630600  0.43023200  1
  Mg  Mg14  1  0.52923500  0.26121700  0.52810200  1
  Mg  Mg15  1  0.10771100  0.55628400  0.48594900  1
  Mg  Mg16  1  0.61354000  0.55628400  0.48594900  1
  Mg  Mg17  1  0.30345100  0.15124000  0.47238400  1
  Mg  Mg18  1  0.80928000  0.15124000  0.47238400  1
  Mg  Mg19  1  0.22108900  0.86297300  0.51356500  1
  Mg  Mg20  1  0.36256800  0.67788400  0.61143500  1
  Mg  Mg21  1  0.94104400  0.97295100  0.56928300  1
  Mg  Mg22  1  0.44687300  0.97295100  0.56928300  1
  Mg  Mg23  1  0.13678400  0.56790600  0.55571700  1
  Mg  Mg24  1  0.64261300  0.56790600  0.55571700  1
  Mg  Mg25  1  0.05442200  0.27964000  0.59689800  1
  Mg  Mg26  1  0.19590200  0.09455100  0.69476800  1
  Mg  Mg27  1  0.77437800  0.38961800  0.65261600  1
  Mg  Mg28  1  0.28020700  0.38961800  0.65261600  1
  Mg  Mg29  1  0.97011700  0.98457300  0.63905100  1
  Mg  Mg30  1  0.47594600  0.98457300  0.63905100  1
  Mg  Mg31  1  0.88775500  0.69630600  0.68023200  1
  Mg  Mg32  1  0.02923500  0.51121700  0.77810200  1
  Mg  Mg33  1  0.60771100  0.80628400  0.73594900  1
  Mg  Mg34  1  0.11354000  0.80628400  0.73594900  1
  Mg  Mg35  1  0.80345100  0.40124000  0.72238400  1
  Mg  Mg36  1  0.30928000  0.40124000  0.72238400  1
  Mg  Mg37  1  0.72108900  0.11297300  0.76356500  1
  Hg  Hg38  1  0.52794000  0.01348400  0.27777800  1
  Hg  Hg39  1  0.22238400  0.61070600  0.26388900  1
  Hg  Hg40  1  0.36127300  0.43015100  0.36111100  1
  Hg  Hg41  1  0.05571700  0.02737300  0.34722200  1
  Hg  Hg42  1  0.19460600  0.84681700  0.44444400  1
  Hg  Hg43  1  0.88905100  0.44404000  0.43055600  1
  Hg  Hg44  1  0.02794000  0.26348400  0.52777800  1
  Hg  Hg45  1  0.72238400  0.86070600  0.51388900  1
  Hg  Hg46  1  0.86127300  0.68015100  0.61111100  1
  Hg  Hg47  1  0.55571700  0.27737300  0.59722200  1
  Hg  Hg48  1  0.69460600  0.09681700  0.69444400  1
  Hg  Hg49  1  0.38905100  0.69404000  0.68055600  1
  Hg  Hg50  1  0.52794000  0.51348400  0.77777800  1
  Hg  Hg51  1  0.22238400  0.11070600  0.76388900  1
