# generated using pymatgen
data_Mg5Zn8
_symmetry_space_group_name_H-M   'P 1'
_cell_length_a   5.07402260
_cell_length_b   13.26606241
_cell_length_c   57.00757700
_cell_angle_alpha   92.18610401
_cell_angle_beta   87.66012493
_cell_angle_gamma   100.62858194
_symmetry_Int_Tables_number   1
_chemical_formula_structural   Mg5Zn8
_chemical_formula_sum   'Mg30 Zn48'
_cell_volume   3766.49990850
_cell_formula_units_Z   6
loop_
 _symmetry_equiv_pos_site_id
 _symmetry_equiv_pos_as_xyz
  1  'x, y, z'
loop_
 _atom_site_type_symbol
 _atom_site_label
 _atom_site_symmetry_multiplicity
 _atom_site_fract_x
 _atom_site_fract_y
 _atom_site_fract_z
 _atom_site_occupancy
  Mg  Mg0  1  0.22012100  0.59332500  0.40222800  1
  Mg  Mg1  1  0.42962100  0.96015300  0.35562900  1
  Mg  Mg2  1  0.78154500  0.59097500  0.26535200  1
  Mg  Mg3  1  0.77001500  0.71404300  0.41637700  1
  Mg  Mg4  1  0.90265200  0.88805500  0.32781100  1
  Mg  Mg5  1  0.09553200  0.38401300  0.43428600  1
  Mg  Mg6  1  0.78604100  0.64367400  0.32140900  1
  Mg  Mg7  1  0.86853500  0.92450600  0.43816800  1
  Mg  Mg8  1  0.22273100  0.54359200  0.34631900  1
  Mg  Mg9  1  0.98589700  0.00049400  0.27673400  1
  Mg  Mg10  1  0.10700400  0.29757500  0.33919300  1
  Mg  Mg11  1  0.66581900  0.34495700  0.25822700  1
  Mg  Mg12  1  0.35125200  0.85665600  0.40350100  1
  Mg  Mg13  1  0.09758300  0.43807900  0.49006500  1
  Mg  Mg14  1  0.54096600  0.20047100  0.36448000  1
  Mg  Mg15  1  0.10250900  0.24487600  0.28313700  1
  Mg  Mg16  1  0.41842800  0.04522400  0.45231800  1
  Mg  Mg17  1  0.54301800  0.25453700  0.42025900  1
  Mg  Mg18  1  0.45892800  0.92839700  0.24891600  1
  Mg  Mg19  1  0.28729700  0.78189400  0.45104500  1
  Mg  Mg20  1  0.17962100  0.71015300  0.60562900  1
  Mg  Mg21  1  0.53154500  0.34097500  0.51535200  1
  Mg  Mg22  1  0.65265200  0.63805500  0.57781100  1
  Mg  Mg23  1  0.53604100  0.39367400  0.57140900  1
  Mg  Mg24  1  0.97273100  0.29359200  0.59631900  1
  Mg  Mg25  1  0.73589700  0.75049400  0.52673400  1
  Mg  Mg26  1  0.85700400  0.04757500  0.58919300  1
  Mg  Mg27  1  0.41581900  0.09495700  0.50822700  1
  Mg  Mg28  1  0.85250900  0.99487600  0.53313700  1
  Mg  Mg29  1  0.20892800  0.67839700  0.49891600  1
  Zn  Zn30  1  0.34990600  0.77040800  0.32534500  1
  Zn  Zn31  1  0.88353600  0.90068500  0.38162000  1
  Zn  Zn32  1  0.65684300  0.41715000  0.34298600  1
  Zn  Zn33  1  0.08017000  0.90192900  0.48935000  1
  Zn  Zn34  1  0.76920900  0.10364900  0.32146400  1
  Zn  Zn35  1  0.06429000  0.74101800  0.36489000  1
  Zn  Zn36  1  0.94427500  0.44427500  0.30227300  1
  Zn  Zn37  1  0.53864300  0.11814200  0.27920000  1
  Zn  Zn38  1  0.04022600  0.22851600  0.39299900  1
  Zn  Zn39  1  0.62559000  0.78455200  0.28305300  1
  Zn  Zn40  1  0.88200100  0.39402900  0.38339200  1
  Zn  Zn41  1  0.65875700  0.48728800  0.41807200  1
  Zn  Zn42  1  0.28373000  0.61561700  0.29387200  1
  Zn  Zn43  1  0.65127000  0.56118800  0.49417800  1
  Zn  Zn44  1  0.75501300  0.73786400  0.47292600  1
  Zn  Zn45  1  0.59832400  0.41003400  0.46154600  1
  Zn  Zn46  1  0.42935600  0.58265700  0.45218700  1
  Zn  Zn47  1  0.26295900  0.10399800  0.32149200  1
  Zn  Zn48  1  0.57425900  0.89753100  0.48965600  1
  Zn  Zn49  1  0.60481900  0.27293300  0.31067300  1
  Zn  Zn50  1  0.20919300  0.05589200  0.40235800  1
  Zn  Zn51  1  0.11934000  0.78490100  0.28308200  1
  Zn  Zn52  1  0.44427500  0.44427500  0.30227300  1
  Zn  Zn53  1  0.72725300  0.57026500  0.37340700  1
  Zn  Zn54  1  0.37705500  0.39239300  0.38352300  1
  Zn  Zn55  1  0.94453100  0.58575300  0.45173200  1
  Zn  Zn56  1  0.91129600  0.06828400  0.48113800  1
  Zn  Zn57  1  0.69401900  0.05279700  0.40281300  1
  Zn  Zn58  1  0.98728000  0.07736200  0.36036700  1
  Zn  Zn59  1  0.26149500  0.24615700  0.47102200  1
  Zn  Zn60  1  0.55837900  0.73662100  0.36519500  1
  Zn  Zn61  1  0.44427500  0.94427500  0.30227300  1
  Zn  Zn62  1  0.75654800  0.24452000  0.47115400  1
  Zn  Zn63  1  0.97979200  0.15126100  0.43647400  1
  Zn  Zn64  1  0.23170600  0.47139900  0.26156000  1
  Zn  Zn65  1  0.09990600  0.52040800  0.57534500  1
  Zn  Zn66  1  0.40684300  0.16715000  0.59298600  1
  Zn  Zn67  1  0.51920900  0.85364900  0.57146400  1
  Zn  Zn68  1  0.69427500  0.19427500  0.55227300  1
  Zn  Zn69  1  0.28864300  0.86814200  0.52920000  1
  Zn  Zn70  1  0.37559000  0.53455200  0.53305300  1
  Zn  Zn71  1  0.03373000  0.36561700  0.54387200  1
  Zn  Zn72  1  0.01295900  0.85399800  0.57149200  1
  Zn  Zn73  1  0.35481900  0.02293300  0.56067300  1
  Zn  Zn74  1  0.86934000  0.53490100  0.53308200  1
  Zn  Zn75  1  0.19427500  0.19427500  0.55227300  1
  Zn  Zn76  1  0.19427500  0.69427500  0.55227300  1
  Zn  Zn77  1  0.98170600  0.22139900  0.51156000  1
