# generated using pymatgen
data_CaMg3
_symmetry_space_group_name_H-M   'P 1'
_cell_length_a   5.29835000
_cell_length_b   11.86564160
_cell_length_c   44.92259500
_cell_angle_alpha   97.58908832
_cell_angle_beta   90.00000000
_cell_angle_gamma   90.00000000
_symmetry_Int_Tables_number   1
_chemical_formula_structural   CaMg3
_chemical_formula_sum   'Ca16 Mg48'
_cell_volume   2799.47011581
_cell_formula_units_Z   16
loop_
 _symmetry_equiv_pos_site_id
 _symmetry_equiv_pos_as_xyz
  1  'x, y, z'
loop_
 _atom_site_type_symbol
 _atom_site_label
 _atom_site_symmetry_multiplicity
 _atom_site_fract_x
 _atom_site_fract_y
 _atom_site_fract_z
 _atom_site_occupancy
  Ca  Ca0  1  0.25000000  0.43589700  0.23076900  1
  Ca  Ca1  1  0.75000000  0.10256400  0.23076900  1
  Ca  Ca2  1  0.25000000  0.97435900  0.30769200  1
  Ca  Ca3  1  0.75000000  0.64102600  0.30769200  1
  Ca  Ca4  1  0.25000000  0.51282100  0.38461500  1
  Ca  Ca5  1  0.75000000  0.17948700  0.38461500  1
  Ca  Ca6  1  0.25000000  0.05128200  0.46153800  1
  Ca  Ca7  1  0.75000000  0.71794900  0.46153800  1
  Ca  Ca8  1  0.25000000  0.58974400  0.53846200  1
  Ca  Ca9  1  0.75000000  0.25641000  0.53846200  1
  Ca  Ca10  1  0.25000000  0.12820500  0.61538500  1
  Ca  Ca11  1  0.75000000  0.79487200  0.61538500  1
  Ca  Ca12  1  0.25000000  0.66666700  0.69230800  1
  Ca  Ca13  1  0.75000000  0.33333300  0.69230800  1
  Ca  Ca14  1  0.25000000  0.20512800  0.76923100  1
  Ca  Ca15  1  0.75000000  0.87179500  0.76923100  1
  Mg  Mg16  1  0.25000000  0.67037500  0.19369800  1
  Mg  Mg17  1  0.25000000  0.70744600  0.26784000  1
  Mg  Mg18  1  0.25000000  0.92987100  0.23076900  1
  Mg  Mg19  1  0.75000000  0.60859000  0.23076900  1
  Mg  Mg20  1  0.75000000  0.86808600  0.26784000  1
  Mg  Mg21  1  0.75000000  0.83101500  0.19369800  1
  Mg  Mg22  1  0.25000000  0.20883700  0.27062100  1
  Mg  Mg23  1  0.25000000  0.24590800  0.34476300  1
  Mg  Mg24  1  0.25000000  0.46833300  0.30769200  1
  Mg  Mg25  1  0.75000000  0.14705200  0.30769200  1
  Mg  Mg26  1  0.75000000  0.40654800  0.34476300  1
  Mg  Mg27  1  0.75000000  0.36947700  0.27062100  1
  Mg  Mg28  1  0.25000000  0.74729800  0.34754500  1
  Mg  Mg29  1  0.25000000  0.78436900  0.42168600  1
  Mg  Mg30  1  0.25000000  0.00679400  0.38461500  1
  Mg  Mg31  1  0.75000000  0.68551400  0.38461500  1
  Mg  Mg32  1  0.75000000  0.94500900  0.42168600  1
  Mg  Mg33  1  0.75000000  0.90793900  0.34754500  1
  Mg  Mg34  1  0.25000000  0.28576000  0.42446800  1
  Mg  Mg35  1  0.25000000  0.32283100  0.49860900  1
  Mg  Mg36  1  0.25000000  0.54525600  0.46153800  1
  Mg  Mg37  1  0.75000000  0.22397500  0.46153800  1
  Mg  Mg38  1  0.75000000  0.48347100  0.49860900  1
  Mg  Mg39  1  0.75000000  0.44640000  0.42446800  1
  Mg  Mg40  1  0.25000000  0.82422100  0.50139100  1
  Mg  Mg41  1  0.25000000  0.86129200  0.57553200  1
  Mg  Mg42  1  0.25000000  0.08371700  0.53846200  1
  Mg  Mg43  1  0.75000000  0.76243700  0.53846200  1
  Mg  Mg44  1  0.75000000  0.02193200  0.57553200  1
  Mg  Mg45  1  0.75000000  0.98486200  0.50139100  1
  Mg  Mg46  1  0.25000000  0.36268300  0.57831400  1
  Mg  Mg47  1  0.25000000  0.39975400  0.65245500  1
  Mg  Mg48  1  0.25000000  0.62217900  0.61538500  1
  Mg  Mg49  1  0.75000000  0.30089800  0.61538500  1
  Mg  Mg50  1  0.75000000  0.56039400  0.65245500  1
  Mg  Mg51  1  0.75000000  0.52332300  0.57831400  1
  Mg  Mg52  1  0.25000000  0.90114400  0.65523700  1
  Mg  Mg53  1  0.25000000  0.93821500  0.72937900  1
  Mg  Mg54  1  0.25000000  0.16064000  0.69230800  1
  Mg  Mg55  1  0.75000000  0.83936000  0.69230800  1
  Mg  Mg56  1  0.75000000  0.09885600  0.72937900  1
  Mg  Mg57  1  0.75000000  0.06178500  0.65523700  1
  Mg  Mg58  1  0.25000000  0.43960600  0.73216000  1
  Mg  Mg59  1  0.25000000  0.47667700  0.80630200  1
  Mg  Mg60  1  0.25000000  0.69910200  0.76923100  1
  Mg  Mg61  1  0.75000000  0.37782100  0.76923100  1
  Mg  Mg62  1  0.75000000  0.63731700  0.80630200  1
  Mg  Mg63  1  0.75000000  0.60024600  0.73216000  1
