# generated using pymatgen
data_Ac2Mg
_symmetry_space_group_name_H-M   'P 1'
_cell_length_a   4.15035300
_cell_length_b   13.39231409
_cell_length_c   45.53415000
_cell_angle_alpha   90.00000000
_cell_angle_beta   90.00000000
_cell_angle_gamma   90.26853870
_symmetry_Int_Tables_number   1
_chemical_formula_structural   Ac2Mg
_chemical_formula_sum   'Ac28 Mg14'
_cell_volume   2530.88916489
_cell_formula_units_Z   14
loop_
 _symmetry_equiv_pos_site_id
 _symmetry_equiv_pos_as_xyz
  1  'x, y, z'
loop_
 _atom_site_type_symbol
 _atom_site_label
 _atom_site_symmetry_multiplicity
 _atom_site_fract_x
 _atom_site_fract_y
 _atom_site_fract_z
 _atom_site_occupancy
  Ac  Ac0  1  0.49526800  0.34740200  0.20454500  1
  Ac  Ac1  1  0.00473200  0.15259800  0.25000000  1
  Ac  Ac2  1  0.99526800  0.84740200  0.25000000  1
  Ac  Ac3  1  0.50473200  0.65259800  0.20454500  1
  Ac  Ac4  1  0.49526800  0.34740200  0.29545500  1
  Ac  Ac5  1  0.00473200  0.15259800  0.34090900  1
  Ac  Ac6  1  0.99526800  0.84740200  0.34090900  1
  Ac  Ac7  1  0.50473200  0.65259800  0.29545500  1
  Ac  Ac8  1  0.49526800  0.34740200  0.38636400  1
  Ac  Ac9  1  0.00473200  0.15259800  0.43181800  1
  Ac  Ac10  1  0.99526800  0.84740200  0.43181800  1
  Ac  Ac11  1  0.50473200  0.65259800  0.38636400  1
  Ac  Ac12  1  0.49526800  0.34740200  0.47727300  1
  Ac  Ac13  1  0.00473200  0.15259800  0.52272700  1
  Ac  Ac14  1  0.99526800  0.84740200  0.52272700  1
  Ac  Ac15  1  0.50473200  0.65259800  0.47727300  1
  Ac  Ac16  1  0.49526800  0.34740200  0.56818200  1
  Ac  Ac17  1  0.00473200  0.15259800  0.61363600  1
  Ac  Ac18  1  0.99526800  0.84740200  0.61363600  1
  Ac  Ac19  1  0.50473200  0.65259800  0.56818200  1
  Ac  Ac20  1  0.49526800  0.34740200  0.65909100  1
  Ac  Ac21  1  0.00473200  0.15259800  0.70454500  1
  Ac  Ac22  1  0.99526800  0.84740200  0.70454500  1
  Ac  Ac23  1  0.50473200  0.65259800  0.65909100  1
  Ac  Ac24  1  0.49526800  0.34740200  0.75000000  1
  Ac  Ac25  1  0.00473200  0.15259800  0.79545500  1
  Ac  Ac26  1  0.99526800  0.84740200  0.79545500  1
  Ac  Ac27  1  0.50473200  0.65259800  0.75000000  1
  Mg  Mg28  1  0.00000000  0.50000000  0.25000000  1
  Mg  Mg29  1  0.50000000  0.00000000  0.20454500  1
  Mg  Mg30  1  0.00000000  0.50000000  0.34090900  1
  Mg  Mg31  1  0.50000000  0.00000000  0.29545500  1
  Mg  Mg32  1  0.00000000  0.50000000  0.43181800  1
  Mg  Mg33  1  0.50000000  0.00000000  0.38636400  1
  Mg  Mg34  1  0.00000000  0.50000000  0.52272700  1
  Mg  Mg35  1  0.50000000  0.00000000  0.47727300  1
  Mg  Mg36  1  0.00000000  0.50000000  0.61363600  1
  Mg  Mg37  1  0.50000000  0.00000000  0.56818200  1
  Mg  Mg38  1  0.00000000  0.50000000  0.70454500  1
  Mg  Mg39  1  0.50000000  0.00000000  0.65909100  1
  Mg  Mg40  1  0.00000000  0.50000000  0.79545500  1
  Mg  Mg41  1  0.50000000  0.00000000  0.75000000  1
