# generated using pymatgen
data_Sr14Mg113
_symmetry_space_group_name_H-M   'P 1'
_cell_length_a   10.60291300
_cell_length_b   14.66206680
_cell_length_c   47.66603800
_cell_angle_alpha   92.42755603
_cell_angle_beta   90.00000000
_cell_angle_gamma   68.80296164
_symmetry_Int_Tables_number   1
_chemical_formula_structural   Sr14Mg113
_chemical_formula_sum   'Sr14 Mg113'
_cell_volume   6901.70350145
_cell_formula_units_Z   1
loop_
 _symmetry_equiv_pos_site_id
 _symmetry_equiv_pos_as_xyz
  1  'x, y, z'
loop_
 _atom_site_type_symbol
 _atom_site_label
 _atom_site_symmetry_multiplicity
 _atom_site_fract_x
 _atom_site_fract_y
 _atom_site_fract_z
 _atom_site_occupancy
  Sr  Sr0  1  0.40505000  0.18990100  0.34461200  1
  Sr  Sr1  1  0.11933500  0.76133000  0.32080200  1
  Sr  Sr2  1  0.11933500  0.76133000  0.48746900  1
  Sr  Sr3  1  0.83362100  0.33275800  0.46365900  1
  Sr  Sr4  1  0.69076400  0.61847200  0.36842100  1
  Sr  Sr5  1  0.54790700  0.90418700  0.43985000  1
  Sr  Sr6  1  0.83362100  0.33275800  0.63032600  1
  Sr  Sr7  1  0.54790700  0.90418700  0.60651600  1
  Sr  Sr8  1  0.40505000  0.18990100  0.51127800  1
  Sr  Sr9  1  0.26219200  0.47561500  0.58270700  1
  Sr  Sr10  1  0.54790700  0.90418700  0.77318300  1
  Sr  Sr11  1  0.26219200  0.47561500  0.74937300  1
  Sr  Sr12  1  0.11933500  0.76133000  0.65413500  1
  Sr  Sr13  1  0.97647800  0.04704400  0.72556400  1
  Mg  Mg14  1  0.96773100  0.55849900  0.31226400  1
  Mg  Mg15  1  0.47377100  0.55849900  0.31226400  1
  Mg  Mg16  1  0.26219200  0.97561500  0.33270700  1
  Mg  Mg17  1  0.76219200  0.97561500  0.33270700  1
  Mg  Mg18  1  0.26219200  0.47561500  0.33270700  1
  Mg  Mg19  1  0.46670000  0.77513100  0.31620100  1
  Mg  Mg20  1  0.05768400  0.17609900  0.34921200  1
  Mg  Mg21  1  0.75816800  0.77513100  0.31620100  1
  Mg  Mg22  1  0.76621600  0.17609900  0.34921200  1
  Mg  Mg23  1  0.55665400  0.39273200  0.35314900  1
  Mg  Mg24  1  0.05061400  0.39273200  0.35314900  1
  Mg  Mg25  1  0.82659900  0.34680200  0.38283000  1
  Mg  Mg26  1  0.68201600  0.12992700  0.45512100  1
  Mg  Mg27  1  0.18805600  0.12992700  0.45512100  1
  Mg  Mg28  1  0.89543900  0.70308200  0.43073700  1
  Mg  Mg29  1  0.01987700  0.96024500  0.37053100  1
  Mg  Mg30  1  0.30559200  0.38881700  0.39434000  1
  Mg  Mg31  1  0.21879300  0.56241400  0.43774000  1
  Mg  Mg32  1  0.93307900  0.13384200  0.41393000  1
  Mg  Mg33  1  0.11933500  0.76133000  0.40413500  1
  Mg  Mg34  1  0.61933500  0.26133000  0.40413500  1
  Mg  Mg35  1  0.11933500  0.26133000  0.40413500  1
  Mg  Mg36  1  0.97647800  0.54704400  0.47556400  1
  Mg  Mg37  1  0.47647800  0.54704400  0.47556400  1
  Mg  Mg38  1  0.97647800  0.04704400  0.47556400  1
  Mg  Mg39  1  0.19295100  0.92005900  0.43455900  1
  Mg  Mg40  1  0.55987100  0.47768600  0.41535000  1
  Mg  Mg41  1  0.18098600  0.34656000  0.45905900  1
  Mg  Mg42  1  0.77197000  0.74752800  0.49206900  1
  Mg  Mg43  1  0.67879900  0.04497300  0.39292100  1
  Mg  Mg44  1  0.35168000  0.60260000  0.37371200  1
  Mg  Mg45  1  0.47245400  0.34656000  0.45905900  1
  Mg  Mg46  1  0.04572000  0.60260000  0.37371200  1
  Mg  Mg47  1  0.96244300  0.47768600  0.41535000  1
  Mg  Mg48  1  0.27622700  0.04497300  0.39292100  1
  Mg  Mg49  1  0.88699000  0.92005900  0.43455900  1
  Mg  Mg50  1  0.48050200  0.74752800  0.49206900  1
  Mg  Mg51  1  0.34323100  0.81957700  0.37753400  1
  Mg  Mg52  1  0.27094000  0.96416000  0.49600600  1
  Mg  Mg53  1  0.41207100  0.17585700  0.42544100  1
  Mg  Mg54  1  0.69606000  0.60788000  0.44810000  1
  Mg  Mg55  1  0.83719100  0.81957700  0.37753400  1
  Mg  Mg56  1  0.40147900  0.70308200  0.43073700  1
  Mg  Mg57  1  0.54261100  0.91477900  0.36017100  1
  Mg  Mg58  1  0.76490000  0.96416000  0.49600600  1
  Mg  Mg59  1  0.54088500  0.91823000  0.52568700  1
  Mg  Mg60  1  0.39630200  0.70135600  0.59797900  1
  Mg  Mg61  1  0.90234200  0.70135600  0.59797900  1
  Mg  Mg62  1  0.60972500  0.27451000  0.57359400  1
  Mg  Mg63  1  0.73416300  0.53167400  0.51338800  1
  Mg  Mg64  1  0.01987700  0.96024500  0.53719800  1
  Mg  Mg65  1  0.93307900  0.13384200  0.58059700  1
  Mg  Mg66  1  0.64736500  0.70527100  0.55678700  1
  Mg  Mg67  1  0.83362100  0.33275800  0.54699200  1
  Mg  Mg68  1  0.33362100  0.83275800  0.54699200  1
  Mg  Mg69  1  0.83362100  0.83275800  0.54699200  1
  Mg  Mg70  1  0.69076400  0.11847200  0.61842100  1
  Mg  Mg71  1  0.19076400  0.11847200  0.61842100  1
  Mg  Mg72  1  0.69076400  0.61847200  0.61842100  1
  Mg  Mg73  1  0.90723700  0.49148700  0.57741600  1
  Mg  Mg74  1  0.27415700  0.04911400  0.55820700  1
  Mg  Mg75  1  0.89527200  0.91798800  0.60191600  1
  Mg  Mg76  1  0.48625600  0.31895600  0.63492600  1
  Mg  Mg77  1  0.39308500  0.61640200  0.53577800  1
  Mg  Mg78  1  0.06596600  0.17402900  0.51656900  1
  Mg  Mg79  1  0.18674000  0.91798800  0.60191600  1
  Mg  Mg80  1  0.76000500  0.17402900  0.51656900  1
  Mg  Mg81  1  0.67672900  0.04911400  0.55820700  1
  Mg  Mg82  1  0.99051300  0.61640200  0.53577800  1
  Mg  Mg83  1  0.60127600  0.49148700  0.57741600  1
  Mg  Mg84  1  0.19478800  0.31895600  0.63492600  1
  Mg  Mg85  1  0.05751700  0.39100600  0.52039100  1
  Mg  Mg86  1  0.98522600  0.53558900  0.63886400  1
  Mg  Mg87  1  0.12635700  0.74728600  0.56829800  1
  Mg  Mg88  1  0.41034600  0.17930900  0.59095700  1
  Mg  Mg89  1  0.55147700  0.39100600  0.52039100  1
  Mg  Mg90  1  0.11576500  0.27451000  0.57359400  1
  Mg  Mg91  1  0.25689600  0.48620700  0.50302800  1
  Mg  Mg92  1  0.47918600  0.53558900  0.63886400  1
  Mg  Mg93  1  0.25517100  0.48965900  0.66854400  1
  Mg  Mg94  1  0.11058800  0.27278400  0.74083600  1
  Mg  Mg95  1  0.61662800  0.27278400  0.74083600  1
  Mg  Mg96  1  0.32401100  0.84593900  0.71645100  1
  Mg  Mg97  1  0.44844900  0.10310200  0.65624500  1
  Mg  Mg98  1  0.73416300  0.53167400  0.68005500  1
  Mg  Mg99  1  0.64736500  0.70527100  0.72345400  1
  Mg  Mg100  1  0.36165000  0.27670000  0.69964500  1
  Mg  Mg101  1  0.54790700  0.90418700  0.68985000  1
  Mg  Mg102  1  0.04790700  0.40418700  0.68985000  1
  Mg  Mg103  1  0.54790700  0.40418700  0.68985000  1
  Mg  Mg104  1  0.40505000  0.68990100  0.76127800  1
  Mg  Mg105  1  0.90505000  0.68990100  0.76127800  1
  Mg  Mg106  1  0.40505000  0.18990100  0.76127800  1
  Mg  Mg107  1  0.62152200  0.06291600  0.72027300  1
  Mg  Mg108  1  0.98844300  0.62054300  0.70106400  1
  Mg  Mg109  1  0.60955800  0.48941700  0.74477300  1
  Mg  Mg110  1  0.20054100  0.89038500  0.77778300  1
  Mg  Mg111  1  0.10737100  0.18783100  0.67863500  1
  Mg  Mg112  1  0.78025100  0.74545800  0.65942600  1
  Mg  Mg113  1  0.90102600  0.48941700  0.74477300  1
  Mg  Mg114  1  0.47429100  0.74545800  0.65942600  1
  Mg  Mg115  1  0.39101500  0.62054300  0.70106400  1
  Mg  Mg116  1  0.70479900  0.18783100  0.67863500  1
  Mg  Mg117  1  0.31556200  0.06291600  0.72027300  1
  Mg  Mg118  1  0.90907400  0.89038500  0.77778300  1
  Mg  Mg119  1  0.77180300  0.96243500  0.66324800  1
  Mg  Mg120  1  0.69951100  0.10701700  0.78172100  1
  Mg  Mg121  1  0.84064300  0.31871500  0.71115500  1
  Mg  Mg122  1  0.12463100  0.75073700  0.73381400  1
  Mg  Mg123  1  0.26576300  0.96243500  0.66324800  1
  Mg  Mg124  1  0.83005100  0.84593900  0.71645100  1
  Mg  Mg125  1  0.97118200  0.05763600  0.64588500  1
  Mg  Mg126  1  0.19347100  0.10701700  0.78172100  1
