# generated using pymatgen
data_Nd5Mg66
_symmetry_space_group_name_H-M   'P 1'
_cell_length_a   5.92934800
_cell_length_b   10.28967400
_cell_length_c   51.44836900
_cell_angle_alpha   90.00000000
_cell_angle_beta   90.00000000
_cell_angle_gamma   90.00000000
_symmetry_Int_Tables_number   1
_chemical_formula_structural   Nd5Mg66
_chemical_formula_sum   'Nd5 Mg66'
_cell_volume   3138.91942262
_cell_formula_units_Z   1
loop_
 _symmetry_equiv_pos_site_id
 _symmetry_equiv_pos_as_xyz
  1  'x, y, z'
loop_
 _atom_site_type_symbol
 _atom_site_label
 _atom_site_symmetry_multiplicity
 _atom_site_fract_x
 _atom_site_fract_y
 _atom_site_fract_z
 _atom_site_occupancy
  Nd  Nd0  1  0.00000000  0.00000000  0.37307700  1
  Nd  Nd1  1  0.50000000  0.50000000  0.27307700  1
  Nd  Nd2  1  0.00000000  0.00000000  0.57307700  1
  Nd  Nd3  1  0.50000000  0.50000000  0.47307700  1
  Nd  Nd4  1  0.50000000  0.50000000  0.67307700  1
  Mg  Mg5  1  1.00000000  0.50000000  0.31562900  1
  Mg  Mg6  1  1.00000000  0.64805600  0.37307700  1
  Mg  Mg7  1  0.50000000  0.50000000  0.40268800  1
  Mg  Mg8  1  0.50000000  0.50000000  0.34346600  1
  Mg  Mg9  1  0.50000000  0.78723800  0.37307700  1
  Mg  Mg10  1  0.25000000  0.25000000  0.32307700  1
  Mg  Mg11  1  0.00000000  0.50000000  0.23052500  1
  Mg  Mg12  1  0.75000000  0.25000000  0.22307700  1
  Mg  Mg13  1  0.00000000  0.35194400  0.37307700  1
  Mg  Mg14  1  0.50000000  0.21276200  0.37307700  1
  Mg  Mg15  1  0.25000000  0.25000000  0.22307700  1
  Mg  Mg16  1  0.75000000  0.25000000  0.32307700  1
  Mg  Mg17  1  0.50000000  0.00000000  0.21562900  1
  Mg  Mg18  1  0.50000000  0.14805600  0.27307700  1
  Mg  Mg19  1  0.00000000  0.00000000  0.30268800  1
  Mg  Mg20  1  0.00000000  0.00000000  0.24346600  1
  Mg  Mg21  1  0.00000000  0.28723800  0.27307700  1
  Mg  Mg22  1  0.75000000  0.75000000  0.22307700  1
  Mg  Mg23  1  0.50000000  0.00000000  0.33052500  1
  Mg  Mg24  1  0.25000000  0.75000000  0.32307700  1
  Mg  Mg25  1  0.50000000  0.85194400  0.27307700  1
  Mg  Mg26  1  0.00000000  0.71276200  0.27307700  1
  Mg  Mg27  1  0.75000000  0.75000000  0.32307700  1
  Mg  Mg28  1  0.25000000  0.75000000  0.22307700  1
  Mg  Mg29  1  0.00000000  0.50000000  0.51562900  1
  Mg  Mg30  1  1.00000000  0.64805600  0.57307700  1
  Mg  Mg31  1  0.50000000  0.50000000  0.60268800  1
  Mg  Mg32  1  0.50000000  0.50000000  0.54346600  1
  Mg  Mg33  1  0.50000000  0.78723800  0.57307700  1
  Mg  Mg34  1  0.25000000  0.25000000  0.52307700  1
  Mg  Mg35  1  0.00000000  0.50000000  0.43052500  1
  Mg  Mg36  1  0.75000000  0.25000000  0.42307700  1
  Mg  Mg37  1  0.00000000  0.35194400  0.57307700  1
  Mg  Mg38  1  0.50000000  0.21276200  0.57307700  1
  Mg  Mg39  1  0.25000000  0.25000000  0.42307700  1
  Mg  Mg40  1  0.75000000  0.25000000  0.52307700  1
  Mg  Mg41  1  0.50000000  0.00000000  0.41562900  1
  Mg  Mg42  1  0.50000000  0.14805600  0.47307700  1
  Mg  Mg43  1  0.00000000  0.00000000  0.50268800  1
  Mg  Mg44  1  0.00000000  0.00000000  0.44346600  1
  Mg  Mg45  1  0.00000000  0.28723800  0.47307700  1
  Mg  Mg46  1  0.75000000  0.75000000  0.42307700  1
  Mg  Mg47  1  0.50000000  0.00000000  0.53052500  1
  Mg  Mg48  1  0.25000000  0.75000000  0.52307700  1
  Mg  Mg49  1  0.50000000  0.85194400  0.47307700  1
  Mg  Mg50  1  1.00000000  0.71276200  0.47307700  1
  Mg  Mg51  1  0.75000000  0.75000000  0.52307700  1
  Mg  Mg52  1  0.25000000  0.75000000  0.42307700  1
  Mg  Mg53  1  1.00000000  0.50000000  0.71562900  1
  Mg  Mg54  1  0.25000000  0.25000000  0.72307700  1
  Mg  Mg55  1  1.00000000  0.50000000  0.63052500  1
  Mg  Mg56  1  0.75000000  0.25000000  0.62307700  1
  Mg  Mg57  1  0.25000000  0.25000000  0.62307700  1
  Mg  Mg58  1  0.75000000  0.25000000  0.72307700  1
  Mg  Mg59  1  0.50000000  0.00000000  0.61562900  1
  Mg  Mg60  1  0.50000000  0.14805600  0.67307700  1
  Mg  Mg61  1  0.00000000  0.00000000  0.70268800  1
  Mg  Mg62  1  0.00000000  0.00000000  0.64346600  1
  Mg  Mg63  1  0.00000000  0.28723800  0.67307700  1
  Mg  Mg64  1  0.75000000  0.75000000  0.62307700  1
  Mg  Mg65  1  0.50000000  0.00000000  0.73052500  1
  Mg  Mg66  1  0.25000000  0.75000000  0.72307700  1
  Mg  Mg67  1  0.50000000  0.85194400  0.67307700  1
  Mg  Mg68  1  1.00000000  0.71276200  0.67307700  1
  Mg  Mg69  1  0.75000000  0.75000000  0.72307700  1
  Mg  Mg70  1  0.25000000  0.75000000  0.62307700  1
