# generated using pymatgen
data_Mg4Ag7
_symmetry_space_group_name_H-M   'P 1'
_cell_length_a   5.11669478
_cell_length_b   7.04186210
_cell_length_c   42.59610200
_cell_angle_alpha   90.16923033
_cell_angle_beta   93.08783511
_cell_angle_gamma   110.97454756
_symmetry_Int_Tables_number   1
_chemical_formula_structural   Mg4Ag7
_chemical_formula_sum   'Mg16 Ag28'
_cell_volume   1430.59960922
_cell_formula_units_Z   4
loop_
 _symmetry_equiv_pos_site_id
 _symmetry_equiv_pos_as_xyz
  1  'x, y, z'
loop_
 _atom_site_type_symbol
 _atom_site_label
 _atom_site_symmetry_multiplicity
 _atom_site_fract_x
 _atom_site_fract_y
 _atom_site_fract_z
 _atom_site_occupancy
  Mg  Mg0  1  0.85672500  0.31212000  0.79077200  1
  Mg  Mg1  1  0.83212600  0.86131800  0.79897200  1
  Mg  Mg2  1  0.08749400  0.85058100  0.71384900  1
  Mg  Mg3  1  0.06289500  0.39978000  0.72204900  1
  Mg  Mg4  1  0.31826400  0.38904300  0.63692600  1
  Mg  Mg5  1  0.29366400  0.93824100  0.64512600  1
  Mg  Mg6  1  0.54903300  0.92750400  0.56000300  1
  Mg  Mg7  1  0.52443300  0.47670300  0.56820200  1
  Mg  Mg8  1  0.77980200  0.46596600  0.48308000  1
  Mg  Mg9  1  0.75520300  0.01516400  0.49127900  1
  Mg  Mg10  1  0.01057100  0.00442700  0.40615700  1
  Mg  Mg11  1  0.98597200  0.55362600  0.41435600  1
  Mg  Mg12  1  0.24134100  0.54288900  0.32923300  1
  Mg  Mg13  1  0.21674100  0.09208800  0.33743300  1
  Mg  Mg14  1  0.47211000  0.08135000  0.25231000  1
  Mg  Mg15  1  0.44751000  0.63054900  0.26051000  1
  Ag  Ag16  1  0.23938500  0.71265700  0.77419500  1
  Ag  Ag17  1  0.26926300  0.15290100  0.76423600  1
  Ag  Ag18  1  0.68023500  0.99924200  0.73862600  1
  Ag  Ag19  1  0.65035700  0.55899800  0.74858500  1
  Ag  Ag20  1  0.47015400  0.25111900  0.69727200  1
  Ag  Ag21  1  0.50003200  0.69136300  0.68731200  1
  Ag  Ag22  1  0.91100500  0.53770400  0.66170300  1
  Ag  Ag23  1  0.88112700  0.09745900  0.67166200  1
  Ag  Ag24  1  0.70092300  0.78958000  0.62034900  1
  Ag  Ag25  1  0.73080100  0.22982500  0.61038900  1
  Ag  Ag26  1  0.14177400  0.07616500  0.58477900  1
  Ag  Ag27  1  0.11189600  0.63592100  0.59473900  1
  Ag  Ag28  1  0.93169300  0.32804200  0.54342600  1
  Ag  Ag29  1  0.96157100  0.76828600  0.53346600  1
  Ag  Ag30  1  0.37254300  0.61462700  0.50785600  1
  Ag  Ag31  1  0.34266500  0.17438300  0.51781600  1
  Ag  Ag32  1  0.16246200  0.86650300  0.46650300  1
  Ag  Ag33  1  0.19234000  0.30674800  0.45654300  1
  Ag  Ag34  1  0.60331200  0.15308800  0.43093300  1
  Ag  Ag35  1  0.57343400  0.71284400  0.44089300  1
  Ag  Ag36  1  0.39323100  0.40496500  0.38957900  1
  Ag  Ag37  1  0.42310900  0.84520900  0.37962000  1
  Ag  Ag38  1  0.83408100  0.69155000  0.35401000  1
  Ag  Ag39  1  0.80420400  0.25130600  0.36397000  1
  Ag  Ag40  1  0.62400000  0.94342700  0.31265600  1
  Ag  Ag41  1  0.65387800  0.38367100  0.30269700  1
  Ag  Ag42  1  0.06485100  0.23001100  0.27708700  1
  Ag  Ag43  1  0.03497300  0.78976700  0.28704700  1
