# generated using pymatgen
data_Mg23Pd37
_symmetry_space_group_name_H-M   'P 1'
_cell_length_a   6.99934446
_cell_length_b   11.53452174
_cell_length_c   42.24661500
_cell_angle_alpha   91.81842266
_cell_angle_beta   85.69593602
_cell_angle_gamma   76.70681611
_symmetry_Int_Tables_number   1
_chemical_formula_structural   Mg23Pd37
_chemical_formula_sum   'Mg46 Pd74'
_cell_volume   3305.77428051
_cell_formula_units_Z   2
loop_
 _symmetry_equiv_pos_site_id
 _symmetry_equiv_pos_as_xyz
  1  'x, y, z'
loop_
 _atom_site_type_symbol
 _atom_site_label
 _atom_site_symmetry_multiplicity
 _atom_site_fract_x
 _atom_site_fract_y
 _atom_site_fract_z
 _atom_site_occupancy
  Mg  Mg0  1  0.90139100  0.48027800  0.21153800  1
  Mg  Mg1  1  0.40139100  0.98027800  0.21153800  1
  Mg  Mg2  1  0.94768800  0.09477400  0.23450900  1
  Mg  Mg3  1  0.47047800  0.78885900  0.26549100  1
  Mg  Mg4  1  0.24935000  0.61956600  0.20971700  1
  Mg  Mg5  1  0.55343200  0.34099000  0.21336000  1
  Mg  Mg6  1  0.51677500  0.40335500  0.28846200  1
  Mg  Mg7  1  0.01677500  0.90335500  0.28846200  1
  Mg  Mg8  1  0.56307300  0.01785100  0.31143200  1
  Mg  Mg9  1  0.08586200  0.71193600  0.34241400  1
  Mg  Mg10  1  0.86473400  0.54264300  0.28664000  1
  Mg  Mg11  1  0.16881600  0.26406700  0.29028300  1
  Mg  Mg12  1  0.13216000  0.32643200  0.36538500  1
  Mg  Mg13  1  0.63216000  0.82643200  0.36538500  1
  Mg  Mg14  1  0.17845800  0.94092800  0.38835500  1
  Mg  Mg15  1  0.70124700  0.63501300  0.41933700  1
  Mg  Mg16  1  0.48011900  0.46572000  0.36356300  1
  Mg  Mg17  1  0.78420100  0.18714400  0.36720600  1
  Mg  Mg18  1  0.74754400  0.24950900  0.44230800  1
  Mg  Mg19  1  0.24754400  0.74950900  0.44230800  1
  Mg  Mg20  1  0.79384200  0.86400500  0.46527800  1
  Mg  Mg21  1  0.31663100  0.55809000  0.49626000  1
  Mg  Mg22  1  0.09550300  0.38879700  0.44048600  1
  Mg  Mg23  1  0.39958500  0.11022100  0.44413000  1
  Mg  Mg24  1  0.36292900  0.17258600  0.51923100  1
  Mg  Mg25  1  0.86292900  0.67258600  0.51923100  1
  Mg  Mg26  1  0.40922700  0.78708200  0.54220100  1
  Mg  Mg27  1  0.93201600  0.48116700  0.57318300  1
  Mg  Mg28  1  0.71088800  0.31187400  0.51740900  1
  Mg  Mg29  1  0.01497000  0.03329800  0.52105300  1
  Mg  Mg30  1  0.97831400  0.09566300  0.59615400  1
  Mg  Mg31  1  0.47831400  0.59566300  0.59615400  1
  Mg  Mg32  1  0.02461100  0.71015900  0.61912400  1
  Mg  Mg33  1  0.54740100  0.40424400  0.65010600  1
  Mg  Mg34  1  0.32627300  0.23495100  0.59433200  1
  Mg  Mg35  1  0.63035500  0.95637500  0.59797600  1
  Mg  Mg36  1  0.59369800  0.01874000  0.67307700  1
  Mg  Mg37  1  0.09369800  0.51874000  0.67307700  1
  Mg  Mg38  1  0.63999600  0.63323600  0.69604700  1
  Mg  Mg39  1  0.16278500  0.32732100  0.72702900  1
  Mg  Mg40  1  0.94165700  0.15802800  0.67125500  1
  Mg  Mg41  1  0.24573900  0.87945100  0.67489900  1
  Mg  Mg42  1  0.20908300  0.94181700  0.75000000  1
  Mg  Mg43  1  0.70908300  0.44181700  0.75000000  1
  Mg  Mg44  1  0.55704200  0.08110500  0.74817800  1
  Mg  Mg45  1  0.86112400  0.80252800  0.75182200  1
  Pd  Pd46  1  0.85934100  0.32578400  0.25488900  1
  Pd  Pd47  1  0.55882500  0.55784900  0.24511100  1
  Pd  Pd48  1  0.14432000  0.85266200  0.22801200  1
  Pd  Pd49  1  0.65846200  0.10789400  0.19506500  1
  Pd  Pd50  1  0.23902800  0.21393200  0.22172300  1
  Pd  Pd51  1  0.56375300  0.74662400  0.20135400  1
  Pd  Pd52  1  0.87618500  0.69678800  0.23886800  1
  Pd  Pd53  1  0.54198100  0.18684600  0.26113200  1
  Pd  Pd54  1  0.70908300  0.94181700  0.25000000  1
  Pd  Pd55  1  0.20908300  0.44181700  0.25000000  1
  Pd  Pd56  1  0.47472600  0.24886100  0.33181200  1
  Pd  Pd57  1  0.17421000  0.48092600  0.32203400  1
  Pd  Pd58  1  0.75970400  0.77573900  0.30493500  1
  Pd  Pd59  1  0.27384600  0.03097100  0.27198800  1
  Pd  Pd60  1  0.85441300  0.13700900  0.29864600  1
  Pd  Pd61  1  0.17913800  0.66970100  0.27827700  1
  Pd  Pd62  1  0.49156900  0.61986500  0.31579100  1
  Pd  Pd63  1  0.15736600  0.10992300  0.33805600  1
  Pd  Pd64  1  0.32446800  0.86489400  0.32692300  1
  Pd  Pd65  1  0.82446800  0.36489400  0.32692300  1
  Pd  Pd66  1  0.09011000  0.17193800  0.40873600  1
  Pd  Pd67  1  0.78959400  0.40400300  0.39895700  1
  Pd  Pd68  1  0.37508900  0.69881600  0.38185800  1
  Pd  Pd69  1  0.88923100  0.95404800  0.34891100  1
  Pd  Pd70  1  0.46979800  0.06008600  0.37556900  1
  Pd  Pd71  1  0.79452200  0.59277800  0.35520000  1
  Pd  Pd72  1  0.10695400  0.54294100  0.39271400  1
  Pd  Pd73  1  0.77275000  0.03299900  0.41497900  1
  Pd  Pd74  1  0.93985200  0.78797000  0.40384600  1
  Pd  Pd75  1  0.43985200  0.28797000  0.40384600  1
  Pd  Pd76  1  0.70549500  0.09501500  0.48565900  1
  Pd  Pd77  1  0.40497900  0.32708000  0.47588000  1
  Pd  Pd78  1  0.99047300  0.62189300  0.45878100  1
  Pd  Pd79  1  0.50461600  0.87712500  0.42583400  1
  Pd  Pd80  1  0.08518200  0.98316300  0.45249200  1
  Pd  Pd81  1  0.40990700  0.51585500  0.43212300  1
  Pd  Pd82  1  0.72233900  0.46601800  0.46963700  1
  Pd  Pd83  1  0.38813500  0.95607600  0.49190200  1
  Pd  Pd84  1  0.55523700  0.71104700  0.48076900  1
  Pd  Pd85  1  0.05523700  0.21104700  0.48076900  1
  Pd  Pd86  1  0.32087900  0.01809200  0.56258200  1
  Pd  Pd87  1  0.02036300  0.25015700  0.55280300  1
  Pd  Pd88  1  0.60585800  0.54497000  0.53570400  1
  Pd  Pd89  1  0.12000000  0.80020200  0.50275800  1
  Pd  Pd90  1  0.70056700  0.90624000  0.52941500  1
  Pd  Pd91  1  0.02529100  0.43893200  0.50904600  1
  Pd  Pd92  1  0.33772300  0.38909500  0.54656000  1
  Pd  Pd93  1  0.00352000  0.87915300  0.56882500  1
  Pd  Pd94  1  0.17062100  0.63412400  0.55769200  1
  Pd  Pd95  1  0.67062100  0.13412400  0.55769200  1
  Pd  Pd96  1  0.93626400  0.94116900  0.63950500  1
  Pd  Pd97  1  0.63574800  0.17323400  0.62972600  1
  Pd  Pd98  1  0.22124300  0.46804700  0.61262700  1
  Pd  Pd99  1  0.73538500  0.72327900  0.57968100  1
  Pd  Pd100  1  0.31595100  0.82931700  0.60633800  1
  Pd  Pd101  1  0.64067600  0.36200900  0.58596900  1
  Pd  Pd102  1  0.95310800  0.31217200  0.62348300  1
  Pd  Pd103  1  0.61890400  0.80223000  0.64574800  1
  Pd  Pd104  1  0.78600600  0.55720100  0.63461500  1
  Pd  Pd105  1  0.28600600  0.05720100  0.63461500  1
  Pd  Pd106  1  0.55164900  0.86424600  0.71642800  1
  Pd  Pd107  1  0.25113300  0.09631000  0.70664900  1
  Pd  Pd108  1  0.83662700  0.39112300  0.68955000  1
  Pd  Pd109  1  0.35076900  0.64635600  0.65660400  1
  Pd  Pd110  1  0.93133600  0.75239400  0.68326100  1
  Pd  Pd111  1  0.25606100  0.28508600  0.66289200  1
  Pd  Pd112  1  0.56849300  0.23524900  0.70040600  1
  Pd  Pd113  1  0.23428900  0.72530700  0.72267100  1
  Pd  Pd114  1  0.40139100  0.48027800  0.71153800  1
  Pd  Pd115  1  0.90139100  0.98027800  0.71153800  1
  Pd  Pd116  1  0.45201200  0.31420000  0.76647300  1
  Pd  Pd117  1  0.96615400  0.56943300  0.73352700  1
  Pd  Pd118  1  0.54672100  0.67547100  0.76018500  1
  Pd  Pd119  1  0.87144500  0.20816300  0.73981500  1
