# generated using pymatgen
data_Mg3Zn16
_symmetry_space_group_name_H-M   'P 1'
_cell_length_a   12.10891185
_cell_length_b   12.10891214
_cell_length_c   49.92632400
_cell_angle_alpha   90.00000000
_cell_angle_beta   83.03472392
_cell_angle_gamma   60.00000117
_symmetry_Int_Tables_number   1
_chemical_formula_structural   Mg3Zn16
_chemical_formula_sum   'Mg36 Zn192'
_cell_volume   6277.26392985
_cell_formula_units_Z   12
loop_
 _symmetry_equiv_pos_site_id
 _symmetry_equiv_pos_as_xyz
  1  'x, y, z'
loop_
 _atom_site_type_symbol
 _atom_site_label
 _atom_site_symmetry_multiplicity
 _atom_site_fract_x
 _atom_site_fract_y
 _atom_site_fract_z
 _atom_site_occupancy
  Mg  Mg0  1  0.73331600  0.29998700  0.27256300  1
  Mg  Mg1  1  0.03586700  0.79998700  0.27256300  1
  Mg  Mg2  1  0.23331600  0.10253800  0.27256300  1
  Mg  Mg3  1  0.67280600  0.98151800  0.21205300  1
  Mg  Mg4  1  0.47535700  0.67896700  0.21205300  1
  Mg  Mg5  1  0.97535700  0.48151800  0.21205300  1
  Mg  Mg6  1  0.33331600  0.99998700  0.37256300  1
  Mg  Mg7  1  0.63586700  0.49998700  0.37256300  1
  Mg  Mg8  1  0.83331600  0.80253800  0.37256300  1
  Mg  Mg9  1  0.27280600  0.68151800  0.31205300  1
  Mg  Mg10  1  0.07535700  0.37896700  0.31205300  1
  Mg  Mg11  1  0.57535700  0.18151800  0.31205300  1
  Mg  Mg12  1  0.93331600  0.69998700  0.47256300  1
  Mg  Mg13  1  0.23586700  0.19998700  0.47256300  1
  Mg  Mg14  1  0.43331600  0.50253800  0.47256300  1
  Mg  Mg15  1  0.87280600  0.38151800  0.41205300  1
  Mg  Mg16  1  0.67535700  0.07896700  0.41205300  1
  Mg  Mg17  1  0.17535700  0.88151800  0.41205300  1
  Mg  Mg18  1  0.53331600  0.39998700  0.57256300  1
  Mg  Mg19  1  0.83586700  0.89998700  0.57256300  1
  Mg  Mg20  1  0.03331600  0.20253800  0.57256300  1
  Mg  Mg21  1  0.47280600  0.08151800  0.51205300  1
  Mg  Mg22  1  0.27535700  0.77896700  0.51205300  1
  Mg  Mg23  1  0.77535700  0.58151800  0.51205300  1
  Mg  Mg24  1  0.13331600  0.09998700  0.67256300  1
  Mg  Mg25  1  0.43586700  0.59998700  0.67256300  1
  Mg  Mg26  1  0.63331600  0.90253800  0.67256300  1
  Mg  Mg27  1  0.07280600  0.78151800  0.61205300  1
  Mg  Mg28  1  0.87535700  0.47896700  0.61205300  1
  Mg  Mg29  1  0.37535700  0.28151800  0.61205300  1
  Mg  Mg30  1  0.73331600  0.79998700  0.77256300  1
  Mg  Mg31  1  0.03586700  0.29998700  0.77256300  1
  Mg  Mg32  1  0.23331600  0.60253800  0.77256300  1
  Mg  Mg33  1  0.67280600  0.48151800  0.71205300  1
  Mg  Mg34  1  0.47535700  0.17896700  0.71205300  1
  Mg  Mg35  1  0.97535700  0.98151800  0.71205300  1
  Zn  Zn36  1  0.35433600  0.39075200  0.24230800  1
  Zn  Zn37  1  0.96378700  0.97284100  0.21494500  1
  Zn  Zn38  1  0.19016000  0.97284100  0.21494500  1
  Zn  Zn39  1  0.96378700  0.19921300  0.21494500  1
  Zn  Zn40  1  0.51851300  0.80866400  0.26967000  1
  Zn  Zn41  1  0.74488600  0.58229100  0.26967000  1
  Zn  Zn42  1  0.74488600  0.80866400  0.26967000  1
  Zn  Zn43  1  0.29128900  0.84346600  0.25807000  1
  Zn  Zn44  1  0.94890800  0.34346600  0.25807000  1
  Zn  Zn45  1  0.79128900  0.00108600  0.25807000  1
  Zn  Zn46  1  0.75976500  0.43803800  0.22654600  1
  Zn  Zn47  1  0.91738400  0.78041900  0.22654600  1
  Zn  Zn48  1  0.41738400  0.93803800  0.22654600  1
  Zn  Zn49  1  0.01052500  0.06265800  0.25802400  1
  Zn  Zn50  1  0.52290300  0.02552400  0.27040200  1
  Zn  Zn51  1  0.52290300  0.58741400  0.27040200  1
  Zn  Zn52  1  0.96101400  0.58741400  0.27040200  1
  Zn  Zn53  1  0.69814800  0.71884700  0.22659100  1
  Zn  Zn54  1  0.18577000  0.75598000  0.21421300  1
  Zn  Zn55  1  0.18577000  0.19409100  0.21421300  1
  Zn  Zn56  1  0.74765900  0.19409100  0.21421300  1
  Zn  Zn57  1  0.85703400  0.06032500  0.29973100  1
  Zn  Zn58  1  0.12464300  0.95087300  0.29973100  1
  Zn  Zn59  1  0.96648500  0.21848200  0.29973100  1
  Zn  Zn60  1  0.34218800  0.26302200  0.28488400  1
  Zn  Zn61  1  0.31055600  0.62552600  0.25325300  1
  Zn  Zn62  1  0.15239800  0.35791700  0.25325300  1
  Zn  Zn63  1  0.39811700  0.15597900  0.23136300  1
  Zn  Zn64  1  0.18403000  0.53063100  0.28488400  1
  Zn  Zn65  1  0.55627500  0.42358800  0.23136300  1
  Zn  Zn66  1  0.45163900  0.42118000  0.28488400  1
  Zn  Zn67  1  0.13050800  0.58174500  0.23136300  1
  Zn  Zn68  1  0.57816500  0.19975900  0.25325300  1
  Zn  Zn69  1  0.95433600  0.09075200  0.34230800  1
  Zn  Zn70  1  0.56378700  0.67284100  0.31494500  1
  Zn  Zn71  1  0.79016000  0.67284100  0.31494500  1
  Zn  Zn72  1  0.56378700  0.89921300  0.31494500  1
  Zn  Zn73  1  0.11851300  0.50866400  0.36967000  1
  Zn  Zn74  1  0.34488600  0.28229100  0.36967000  1
  Zn  Zn75  1  0.34488600  0.50866400  0.36967000  1
  Zn  Zn76  1  0.89128900  0.54346600  0.35807000  1
  Zn  Zn77  1  0.54890800  0.04346600  0.35807000  1
  Zn  Zn78  1  0.39128900  0.70108600  0.35807000  1
  Zn  Zn79  1  0.35976500  0.13803800  0.32654600  1
  Zn  Zn80  1  0.51738400  0.48041900  0.32654600  1
  Zn  Zn81  1  0.01738400  0.63803800  0.32654600  1
  Zn  Zn82  1  0.61052500  0.76265800  0.35802400  1
  Zn  Zn83  1  0.12290300  0.72552400  0.37040200  1
  Zn  Zn84  1  0.12290300  0.28741400  0.37040200  1
  Zn  Zn85  1  0.56101400  0.28741400  0.37040200  1
  Zn  Zn86  1  0.29814800  0.41884700  0.32659100  1
  Zn  Zn87  1  0.78577000  0.45598000  0.31421300  1
  Zn  Zn88  1  0.78577000  0.89409100  0.31421300  1
  Zn  Zn89  1  0.34765900  0.89409100  0.31421300  1
  Zn  Zn90  1  0.45703400  0.76032500  0.39973100  1
  Zn  Zn91  1  0.72464300  0.65087300  0.39973100  1
  Zn  Zn92  1  0.56648500  0.91848200  0.39973100  1
  Zn  Zn93  1  0.94218800  0.96302200  0.38488400  1
  Zn  Zn94  1  0.91055600  0.32552600  0.35325300  1
  Zn  Zn95  1  0.75239800  0.05791700  0.35325300  1
  Zn  Zn96  1  0.99811700  0.85597900  0.33136300  1
  Zn  Zn97  1  0.78403000  0.23063100  0.38488400  1
  Zn  Zn98  1  0.15627500  0.12358800  0.33136300  1
  Zn  Zn99  1  0.05163900  0.12118000  0.38488400  1
  Zn  Zn100  1  0.73050800  0.28174500  0.33136300  1
  Zn  Zn101  1  0.17816500  0.89975900  0.35325300  1
  Zn  Zn102  1  0.55433600  0.79075200  0.44230800  1
  Zn  Zn103  1  0.16378700  0.37284100  0.41494500  1
  Zn  Zn104  1  0.39016000  0.37284100  0.41494500  1
  Zn  Zn105  1  0.16378700  0.59921300  0.41494500  1
  Zn  Zn106  1  0.71851300  0.20866400  0.46967000  1
  Zn  Zn107  1  0.94488600  0.98229100  0.46967000  1
  Zn  Zn108  1  0.94488600  0.20866400  0.46967000  1
  Zn  Zn109  1  0.49128900  0.24346600  0.45807000  1
  Zn  Zn110  1  0.14890800  0.74346600  0.45807000  1
  Zn  Zn111  1  0.99128900  0.40108600  0.45807000  1
  Zn  Zn112  1  0.95976500  0.83803800  0.42654600  1
  Zn  Zn113  1  0.11738400  0.18041900  0.42654600  1
  Zn  Zn114  1  0.61738400  0.33803800  0.42654600  1
  Zn  Zn115  1  0.21052500  0.46265800  0.45802400  1
  Zn  Zn116  1  0.72290300  0.42552400  0.47040200  1
  Zn  Zn117  1  0.72290300  0.98741400  0.47040200  1
  Zn  Zn118  1  0.16101400  0.98741400  0.47040200  1
  Zn  Zn119  1  0.89814800  0.11884700  0.42659100  1
  Zn  Zn120  1  0.38577000  0.15598000  0.41421300  1
  Zn  Zn121  1  0.38577000  0.59409100  0.41421300  1
  Zn  Zn122  1  0.94765900  0.59409100  0.41421300  1
  Zn  Zn123  1  0.05703400  0.46032500  0.49973100  1
  Zn  Zn124  1  0.32464300  0.35087300  0.49973100  1
  Zn  Zn125  1  0.16648500  0.61848200  0.49973100  1
  Zn  Zn126  1  0.54218800  0.66302200  0.48488400  1
  Zn  Zn127  1  0.51055600  0.02552600  0.45325300  1
  Zn  Zn128  1  0.35239800  0.75791700  0.45325300  1
  Zn  Zn129  1  0.59811700  0.55597900  0.43136300  1
  Zn  Zn130  1  0.38403000  0.93063100  0.48488400  1
  Zn  Zn131  1  0.75627500  0.82358800  0.43136300  1
  Zn  Zn132  1  0.65163900  0.82118000  0.48488400  1
  Zn  Zn133  1  0.33050800  0.98174500  0.43136300  1
  Zn  Zn134  1  0.77816500  0.59975900  0.45325300  1
  Zn  Zn135  1  0.15433600  0.49075200  0.54230800  1
  Zn  Zn136  1  0.76378700  0.07284100  0.51494500  1
  Zn  Zn137  1  0.99016000  0.07284100  0.51494500  1
  Zn  Zn138  1  0.76378700  0.29921300  0.51494500  1
  Zn  Zn139  1  0.31851300  0.90866400  0.56967000  1
  Zn  Zn140  1  0.54488600  0.68229100  0.56967000  1
  Zn  Zn141  1  0.54488600  0.90866400  0.56967000  1
  Zn  Zn142  1  0.09128900  0.94346600  0.55807000  1
  Zn  Zn143  1  0.74890800  0.44346600  0.55807000  1
  Zn  Zn144  1  0.59128900  0.10108600  0.55807000  1
  Zn  Zn145  1  0.55976500  0.53803800  0.52654600  1
  Zn  Zn146  1  0.71738400  0.88041900  0.52654600  1
  Zn  Zn147  1  0.21738400  0.03803800  0.52654600  1
  Zn  Zn148  1  0.81052500  0.16265800  0.55802400  1
  Zn  Zn149  1  0.32290300  0.12552400  0.57040200  1
  Zn  Zn150  1  0.32290300  0.68741400  0.57040200  1
  Zn  Zn151  1  0.76101400  0.68741400  0.57040200  1
  Zn  Zn152  1  0.49814800  0.81884700  0.52659100  1
  Zn  Zn153  1  0.98577000  0.85598000  0.51421300  1
  Zn  Zn154  1  0.98577000  0.29409100  0.51421300  1
  Zn  Zn155  1  0.54765900  0.29409100  0.51421300  1
  Zn  Zn156  1  0.65703400  0.16032500  0.59973100  1
  Zn  Zn157  1  0.92464300  0.05087300  0.59973100  1
  Zn  Zn158  1  0.76648500  0.31848200  0.59973100  1
  Zn  Zn159  1  0.14218800  0.36302200  0.58488400  1
  Zn  Zn160  1  0.11055600  0.72552600  0.55325300  1
  Zn  Zn161  1  0.95239800  0.45791700  0.55325300  1
  Zn  Zn162  1  0.19811700  0.25597900  0.53136300  1
  Zn  Zn163  1  0.98403000  0.63063100  0.58488400  1
  Zn  Zn164  1  0.35627500  0.52358800  0.53136300  1
  Zn  Zn165  1  0.25163900  0.52118000  0.58488400  1
  Zn  Zn166  1  0.93050800  0.68174500  0.53136300  1
  Zn  Zn167  1  0.37816500  0.29975900  0.55325300  1
  Zn  Zn168  1  0.75433600  0.19075200  0.64230800  1
  Zn  Zn169  1  0.36378700  0.77284100  0.61494500  1
  Zn  Zn170  1  0.59016000  0.77284100  0.61494500  1
  Zn  Zn171  1  0.36378700  0.99921300  0.61494500  1
  Zn  Zn172  1  0.91851300  0.60866400  0.66967000  1
  Zn  Zn173  1  0.14488600  0.38229100  0.66967000  1
  Zn  Zn174  1  0.14488600  0.60866400  0.66967000  1
  Zn  Zn175  1  0.69128900  0.64346600  0.65807000  1
  Zn  Zn176  1  0.34890800  0.14346600  0.65807000  1
  Zn  Zn177  1  0.19128900  0.80108600  0.65807000  1
  Zn  Zn178  1  0.15976500  0.23803800  0.62654600  1
  Zn  Zn179  1  0.31738400  0.58041900  0.62654600  1
  Zn  Zn180  1  0.81738400  0.73803800  0.62654600  1
  Zn  Zn181  1  0.41052500  0.86265800  0.65802400  1
  Zn  Zn182  1  0.92290300  0.82552400  0.67040200  1
  Zn  Zn183  1  0.92290300  0.38741400  0.67040200  1
  Zn  Zn184  1  0.36101400  0.38741400  0.67040200  1
  Zn  Zn185  1  0.09814800  0.51884700  0.62659100  1
  Zn  Zn186  1  0.58577000  0.55598000  0.61421300  1
  Zn  Zn187  1  0.58577000  0.99409100  0.61421300  1
  Zn  Zn188  1  0.14765900  0.99409100  0.61421300  1
  Zn  Zn189  1  0.25703400  0.86032500  0.69973100  1
  Zn  Zn190  1  0.52464300  0.75087300  0.69973100  1
  Zn  Zn191  1  0.36648500  0.01848200  0.69973100  1
  Zn  Zn192  1  0.74218800  0.06302200  0.68488400  1
  Zn  Zn193  1  0.71055600  0.42552600  0.65325300  1
  Zn  Zn194  1  0.55239800  0.15791700  0.65325300  1
  Zn  Zn195  1  0.79811700  0.95597900  0.63136300  1
  Zn  Zn196  1  0.58403000  0.33063100  0.68488400  1
  Zn  Zn197  1  0.95627500  0.22358800  0.63136300  1
  Zn  Zn198  1  0.85163900  0.22118000  0.68488400  1
  Zn  Zn199  1  0.53050800  0.38174500  0.63136300  1
  Zn  Zn200  1  0.97816500  0.99975900  0.65325300  1
  Zn  Zn201  1  0.35433600  0.89075200  0.74230800  1
  Zn  Zn202  1  0.96378700  0.47284100  0.71494500  1
  Zn  Zn203  1  0.19016000  0.47284100  0.71494500  1
  Zn  Zn204  1  0.96378700  0.69921300  0.71494500  1
  Zn  Zn205  1  0.51851300  0.30866400  0.76967000  1
  Zn  Zn206  1  0.74488600  0.08229100  0.76967000  1
  Zn  Zn207  1  0.74488600  0.30866400  0.76967000  1
  Zn  Zn208  1  0.29128900  0.34346600  0.75807000  1
  Zn  Zn209  1  0.94890800  0.84346600  0.75807000  1
  Zn  Zn210  1  0.79128900  0.50108600  0.75807000  1
  Zn  Zn211  1  0.75976500  0.93803800  0.72654600  1
  Zn  Zn212  1  0.91738400  0.28041900  0.72654600  1
  Zn  Zn213  1  0.41738400  0.43803800  0.72654600  1
  Zn  Zn214  1  0.01052500  0.56265800  0.75802400  1
  Zn  Zn215  1  0.52290300  0.52552400  0.77040200  1
  Zn  Zn216  1  0.52290300  0.08741400  0.77040200  1
  Zn  Zn217  1  0.96101400  0.08741400  0.77040200  1
  Zn  Zn218  1  0.69814800  0.21884700  0.72659100  1
  Zn  Zn219  1  0.18577000  0.25598000  0.71421300  1
  Zn  Zn220  1  0.18577000  0.69409100  0.71421300  1
  Zn  Zn221  1  0.74765900  0.69409100  0.71421300  1
  Zn  Zn222  1  0.31055600  0.12552600  0.75325300  1
  Zn  Zn223  1  0.15239800  0.85791700  0.75325300  1
  Zn  Zn224  1  0.39811700  0.65597900  0.73136300  1
  Zn  Zn225  1  0.55627500  0.92358800  0.73136300  1
  Zn  Zn226  1  0.13050800  0.08174500  0.73136300  1
  Zn  Zn227  1  0.57816500  0.69975900  0.75325300  1
