# generated using pymatgen
data_Mg112Zn191
_symmetry_space_group_name_H-M   'P 1'
_cell_length_a   13.26606209
_cell_length_b   14.70723619
_cell_length_c   50.02254400
_cell_angle_alpha   94.04592358
_cell_angle_beta   85.51984715
_cell_angle_gamma   104.27395804
_symmetry_Int_Tables_number   1
_chemical_formula_structural   Mg112Zn191
_chemical_formula_sum   'Mg112 Zn191'
_cell_volume   9416.24948960
_cell_formula_units_Z   1
loop_
 _symmetry_equiv_pos_site_id
 _symmetry_equiv_pos_as_xyz
  1  'x, y, z'
loop_
 _atom_site_type_symbol
 _atom_site_label
 _atom_site_symmetry_multiplicity
 _atom_site_fract_x
 _atom_site_fract_y
 _atom_site_fract_z
 _atom_site_occupancy
  Mg  Mg0  1  0.73224700  0.89982000  0.21303500  1
  Mg  Mg1  1  0.03618600  0.71342500  0.22932500  1
  Mg  Mg2  1  0.55056600  0.35231700  0.25549000  1
  Mg  Mg3  1  0.81071000  0.95641800  0.26943900  1
  Mg  Mg4  1  0.89174900  0.60215500  0.27384600  1
  Mg  Mg5  1  0.56424600  0.02805300  0.20378200  1
  Mg  Mg6  1  0.65326700  0.57654400  0.26154500  1
  Mg  Mg7  1  0.03093300  0.04358200  0.28147000  1
  Mg  Mg8  1  0.63193500  0.67618400  0.20770500  1
  Mg  Mg9  1  0.94989500  0.39784500  0.27706300  1
  Mg  Mg10  1  0.29107800  0.64768300  0.29542000  1
  Mg  Mg11  1  0.30970900  0.32381600  0.24320400  1
  Mg  Mg12  1  0.98361000  0.90491200  0.22627500  1
  Mg  Mg13  1  0.66830800  0.25117100  0.20956500  1
  Mg  Mg14  1  0.27333500  0.74882900  0.24134400  1
  Mg  Mg15  1  0.18837700  0.42345600  0.28936400  1
  Mg  Mg16  1  0.20939600  0.10018000  0.23787400  1
  Mg  Mg17  1  0.37739700  0.97194700  0.24712800  1
  Mg  Mg18  1  0.90545800  0.28657500  0.22158400  1
  Mg  Mg19  1  0.95803300  0.09508800  0.22463400  1
  Mg  Mg20  1  0.63224700  0.89982000  0.31303500  1
  Mg  Mg21  1  0.93618600  0.71342500  0.32932500  1
  Mg  Mg22  1  0.45056600  0.35231700  0.35549000  1
  Mg  Mg23  1  0.71071000  0.95641800  0.36943900  1
  Mg  Mg24  1  0.79174900  0.60215500  0.37384600  1
  Mg  Mg25  1  0.46424600  0.02805300  0.30378200  1
  Mg  Mg26  1  0.55326700  0.57654400  0.36154500  1
  Mg  Mg27  1  0.93093300  0.04358200  0.38147000  1
  Mg  Mg28  1  0.53193500  0.67618400  0.30770500  1
  Mg  Mg29  1  0.84989500  0.39784500  0.37706300  1
  Mg  Mg30  1  0.19107800  0.64768300  0.39542000  1
  Mg  Mg31  1  0.20970900  0.32381600  0.34320400  1
  Mg  Mg32  1  0.88361000  0.90491200  0.32627500  1
  Mg  Mg33  1  0.56830800  0.25117100  0.30956500  1
  Mg  Mg34  1  0.17333500  0.74882900  0.34134400  1
  Mg  Mg35  1  0.08837700  0.42345600  0.38936400  1
  Mg  Mg36  1  0.10939600  0.10018000  0.33787400  1
  Mg  Mg37  1  0.27739700  0.97194700  0.34712800  1
  Mg  Mg38  1  0.80545800  0.28657500  0.32158400  1
  Mg  Mg39  1  0.85803300  0.09508800  0.32463400  1
  Mg  Mg40  1  0.53224700  0.89982000  0.41303500  1
  Mg  Mg41  1  0.83618600  0.71342500  0.42932500  1
  Mg  Mg42  1  0.35056600  0.35231700  0.45549000  1
  Mg  Mg43  1  0.61071000  0.95641800  0.46943900  1
  Mg  Mg44  1  0.69174900  0.60215500  0.47384600  1
  Mg  Mg45  1  0.36424600  0.02805300  0.40378200  1
  Mg  Mg46  1  0.45326700  0.57654400  0.46154500  1
  Mg  Mg47  1  0.83093300  0.04358200  0.48147000  1
  Mg  Mg48  1  0.43193500  0.67618400  0.40770500  1
  Mg  Mg49  1  0.74989500  0.39784500  0.47706300  1
  Mg  Mg50  1  0.09107800  0.64768300  0.49542000  1
  Mg  Mg51  1  0.10970900  0.32381600  0.44320400  1
  Mg  Mg52  1  0.78361000  0.90491200  0.42627500  1
  Mg  Mg53  1  0.46830800  0.25117100  0.40956500  1
  Mg  Mg54  1  0.07333500  0.74882900  0.44134400  1
  Mg  Mg55  1  0.98837700  0.42345600  0.48936400  1
  Mg  Mg56  1  0.00939600  0.10018000  0.43787400  1
  Mg  Mg57  1  0.17739700  0.97194700  0.44712800  1
  Mg  Mg58  1  0.70545800  0.28657500  0.42158400  1
  Mg  Mg59  1  0.75803300  0.09508800  0.42463400  1
  Mg  Mg60  1  0.43224700  0.89982000  0.51303500  1
  Mg  Mg61  1  0.73618600  0.71342500  0.52932500  1
  Mg  Mg62  1  0.25056600  0.35231700  0.55549000  1
  Mg  Mg63  1  0.51071000  0.95641800  0.56943900  1
  Mg  Mg64  1  0.59174900  0.60215500  0.57384600  1
  Mg  Mg65  1  0.26424600  0.02805300  0.50378200  1
  Mg  Mg66  1  0.35326700  0.57654400  0.56154500  1
  Mg  Mg67  1  0.73093300  0.04358200  0.58147000  1
  Mg  Mg68  1  0.33193500  0.67618400  0.50770500  1
  Mg  Mg69  1  0.64989500  0.39784500  0.57706300  1
  Mg  Mg70  1  0.99107800  0.64768300  0.59542000  1
  Mg  Mg71  1  0.00970900  0.32381600  0.54320400  1
  Mg  Mg72  1  0.68361000  0.90491200  0.52627500  1
  Mg  Mg73  1  0.36830800  0.25117100  0.50956500  1
  Mg  Mg74  1  0.97333500  0.74882900  0.54134400  1
  Mg  Mg75  1  0.88837700  0.42345600  0.58936400  1
  Mg  Mg76  1  0.90939600  0.10018000  0.53787400  1
  Mg  Mg77  1  0.07739700  0.97194700  0.54712800  1
  Mg  Mg78  1  0.60545800  0.28657500  0.52158400  1
  Mg  Mg79  1  0.65803300  0.09508800  0.52463400  1
  Mg  Mg80  1  0.33224700  0.89982000  0.61303500  1
  Mg  Mg81  1  0.63618600  0.71342500  0.62932500  1
  Mg  Mg82  1  0.15056600  0.35231700  0.65549000  1
  Mg  Mg83  1  0.41071000  0.95641800  0.66943900  1
  Mg  Mg84  1  0.49174900  0.60215500  0.67384600  1
  Mg  Mg85  1  0.16424600  0.02805300  0.60378200  1
  Mg  Mg86  1  0.25326700  0.57654400  0.66154500  1
  Mg  Mg87  1  0.63093300  0.04358200  0.68147000  1
  Mg  Mg88  1  0.23193500  0.67618400  0.60770500  1
  Mg  Mg89  1  0.54989500  0.39784500  0.67706300  1
  Mg  Mg90  1  0.89107800  0.64768300  0.69542000  1
  Mg  Mg91  1  0.90970900  0.32381600  0.64320400  1
  Mg  Mg92  1  0.58361000  0.90491200  0.62627500  1
  Mg  Mg93  1  0.26830800  0.25117100  0.60956500  1
  Mg  Mg94  1  0.87333500  0.74882900  0.64134400  1
  Mg  Mg95  1  0.78837700  0.42345600  0.68936400  1
  Mg  Mg96  1  0.80939600  0.10018000  0.63787400  1
  Mg  Mg97  1  0.97739700  0.97194700  0.64712800  1
  Mg  Mg98  1  0.50545800  0.28657500  0.62158400  1
  Mg  Mg99  1  0.55803300  0.09508800  0.62463400  1
  Mg  Mg100  1  0.23224700  0.89982000  0.71303500  1
  Mg  Mg101  1  0.53618600  0.71342500  0.72932500  1
  Mg  Mg102  1  0.06424600  0.02805300  0.70378200  1
  Mg  Mg103  1  0.13193500  0.67618400  0.70770500  1
  Mg  Mg104  1  0.80970900  0.32381600  0.74320400  1
  Mg  Mg105  1  0.48361000  0.90491200  0.72627500  1
  Mg  Mg106  1  0.16830800  0.25117100  0.70956500  1
  Mg  Mg107  1  0.77333500  0.74882900  0.74134400  1
  Mg  Mg108  1  0.70939600  0.10018000  0.73787400  1
  Mg  Mg109  1  0.87739700  0.97194700  0.74712800  1
  Mg  Mg110  1  0.40545800  0.28657500  0.72158400  1
  Mg  Mg111  1  0.45803300  0.09508800  0.72463400  1
  Zn  Zn112  1  0.82715700  0.59229000  0.21832500  1
  Zn  Zn113  1  0.95471900  0.81738700  0.27731500  1
  Zn  Zn114  1  0.45908200  0.66285200  0.25078300  1
  Zn  Zn115  1  0.13325600  0.24831100  0.20775200  1
  Zn  Zn116  1  0.11497400  0.57676400  0.25986700  1
  Zn  Zn117  1  0.76191900  0.75046900  0.29371800  1
  Zn  Zn118  1  0.42082200  0.50000000  0.27545500  1
  Zn  Zn119  1  0.11448700  0.40771000  0.23258400  1
  Zn  Zn120  1  0.27712200  0.86290600  0.29412200  1
  Zn  Zn121  1  0.77567000  0.42312300  0.24166400  1
  Zn  Zn122  1  0.44981100  0.82447600  0.27733900  1
  Zn  Zn123  1  0.59660600  0.96319600  0.25848300  1
  Zn  Zn124  1  0.65065800  0.46639900  0.20856000  1
  Zn  Zn125  1  0.73975100  0.26762300  0.26534500  1
  Zn  Zn126  1  0.88692500  0.18261300  0.27359400  1
  Zn  Zn127  1  0.56452200  0.13709400  0.25678700  1
  Zn  Zn128  1  0.74561900  0.09965700  0.23895400  1
  Zn  Zn129  1  0.16597400  0.57687700  0.20924500  1
  Zn  Zn130  1  0.07972400  0.24953100  0.25719100  1
  Zn  Zn131  1  0.29098600  0.53360100  0.24234900  1
  Zn  Zn132  1  0.19602500  0.90034300  0.21195500  1
  Zn  Zn133  1  0.72666900  0.42323600  0.29104200  1
  Zn  Zn134  1  0.47082200  0.50000000  0.22545500  1
  Zn  Zn135  1  0.63253600  0.78453800  0.26086600  1
  Zn  Zn136  1  0.49878700  0.82500200  0.22685800  1
  Zn  Zn137  1  0.69678800  0.09783900  0.29042600  1
  Zn  Zn138  1  0.20910800  0.21546200  0.29004300  1
  Zn  Zn139  1  0.14485600  0.90216100  0.26048300  1
  Zn  Zn140  1  0.10189300  0.73237700  0.28556400  1
  Zn  Zn141  1  0.44285600  0.17499800  0.22405200  1
  Zn  Zn142  1  0.80838700  0.75168900  0.24315700  1
  Zn  Zn143  1  0.97082200  0.50000000  0.22545500  1
  Zn  Zn144  1  0.39183300  0.17552400  0.27357000  1
  Zn  Zn145  1  0.24503800  0.03680400  0.29242600  1
  Zn  Zn146  1  0.48256100  0.33714800  0.20012600  1
  Zn  Zn147  1  0.72715700  0.59229000  0.31832500  1
  Zn  Zn148  1  0.85471900  0.81738700  0.37731500  1
  Zn  Zn149  1  0.35908200  0.66285200  0.35078300  1
  Zn  Zn150  1  0.03325600  0.24831100  0.30775200  1
  Zn  Zn151  1  0.01497400  0.57676400  0.35986700  1
  Zn  Zn152  1  0.66191900  0.75046900  0.39371800  1
  Zn  Zn153  1  0.32082200  0.50000000  0.37545500  1
  Zn  Zn154  1  0.01448700  0.40771000  0.33258400  1
  Zn  Zn155  1  0.17712200  0.86290600  0.39412200  1
  Zn  Zn156  1  0.67567000  0.42312300  0.34166400  1
  Zn  Zn157  1  0.34981100  0.82447600  0.37733900  1
  Zn  Zn158  1  0.49660600  0.96319600  0.35848300  1
  Zn  Zn159  1  0.55065800  0.46639900  0.30856000  1
  Zn  Zn160  1  0.63975100  0.26762300  0.36534500  1
  Zn  Zn161  1  0.78692500  0.18261300  0.37359400  1
  Zn  Zn162  1  0.46452200  0.13709400  0.35678700  1
  Zn  Zn163  1  0.64561900  0.09965700  0.33895400  1
  Zn  Zn164  1  0.06597400  0.57687700  0.30924500  1
  Zn  Zn165  1  0.97972400  0.24953100  0.35719100  1
  Zn  Zn166  1  0.19098600  0.53360100  0.34234900  1
  Zn  Zn167  1  0.09602500  0.90034300  0.31195500  1
  Zn  Zn168  1  0.62666900  0.42323600  0.39104200  1
  Zn  Zn169  1  0.37082200  0.50000000  0.32545500  1
  Zn  Zn170  1  0.53253600  0.78453800  0.36086600  1
  Zn  Zn171  1  0.39878700  0.82500200  0.32685800  1
  Zn  Zn172  1  0.59678800  0.09783900  0.39042600  1
  Zn  Zn173  1  0.10910800  0.21546200  0.39004300  1
  Zn  Zn174  1  0.04485600  0.90216100  0.36048300  1
  Zn  Zn175  1  0.00189300  0.73237700  0.38556400  1
  Zn  Zn176  1  0.34285600  0.17499800  0.32405200  1
  Zn  Zn177  1  0.70838700  0.75168900  0.34315700  1
  Zn  Zn178  1  0.87082200  0.50000000  0.32545500  1
  Zn  Zn179  1  0.29183300  0.17552400  0.37357000  1
  Zn  Zn180  1  0.14503800  0.03680400  0.39242600  1
  Zn  Zn181  1  0.38256100  0.33714800  0.30012600  1
  Zn  Zn182  1  0.62715700  0.59229000  0.41832500  1
  Zn  Zn183  1  0.75471900  0.81738700  0.47731500  1
  Zn  Zn184  1  0.25908200  0.66285200  0.45078300  1
  Zn  Zn185  1  0.93325600  0.24831100  0.40775200  1
  Zn  Zn186  1  0.91497400  0.57676400  0.45986700  1
  Zn  Zn187  1  0.56191900  0.75046900  0.49371800  1
  Zn  Zn188  1  0.22082200  0.50000000  0.47545500  1
  Zn  Zn189  1  0.91448700  0.40771000  0.43258400  1
  Zn  Zn190  1  0.07712200  0.86290600  0.49412200  1
  Zn  Zn191  1  0.57567000  0.42312300  0.44166400  1
  Zn  Zn192  1  0.24981100  0.82447600  0.47733900  1
  Zn  Zn193  1  0.39660600  0.96319600  0.45848300  1
  Zn  Zn194  1  0.45065800  0.46639900  0.40856000  1
  Zn  Zn195  1  0.53975100  0.26762300  0.46534500  1
  Zn  Zn196  1  0.68692500  0.18261300  0.47359400  1
  Zn  Zn197  1  0.36452200  0.13709400  0.45678700  1
  Zn  Zn198  1  0.54561900  0.09965700  0.43895400  1
  Zn  Zn199  1  0.96597400  0.57687700  0.40924500  1
  Zn  Zn200  1  0.87972400  0.24953100  0.45719100  1
  Zn  Zn201  1  0.09098600  0.53360100  0.44234900  1
  Zn  Zn202  1  0.99602500  0.90034300  0.41195500  1
  Zn  Zn203  1  0.52666900  0.42323600  0.49104200  1
  Zn  Zn204  1  0.27082200  0.50000000  0.42545500  1
  Zn  Zn205  1  0.43253600  0.78453800  0.46086600  1
  Zn  Zn206  1  0.29878700  0.82500200  0.42685800  1
  Zn  Zn207  1  0.49678800  0.09783900  0.49042600  1
  Zn  Zn208  1  0.00910800  0.21546200  0.49004300  1
  Zn  Zn209  1  0.94485600  0.90216100  0.46048300  1
  Zn  Zn210  1  0.90189300  0.73237700  0.48556400  1
  Zn  Zn211  1  0.24285600  0.17499800  0.42405200  1
  Zn  Zn212  1  0.60838700  0.75168900  0.44315700  1
  Zn  Zn213  1  0.77082200  0.50000000  0.42545500  1
  Zn  Zn214  1  0.19183300  0.17552400  0.47357000  1
  Zn  Zn215  1  0.04503800  0.03680400  0.49242600  1
  Zn  Zn216  1  0.28256100  0.33714800  0.40012600  1
  Zn  Zn217  1  0.52715700  0.59229000  0.51832500  1
  Zn  Zn218  1  0.65471900  0.81738700  0.57731500  1
  Zn  Zn219  1  0.15908200  0.66285200  0.55078300  1
  Zn  Zn220  1  0.83325600  0.24831100  0.50775200  1
  Zn  Zn221  1  0.81497400  0.57676400  0.55986700  1
  Zn  Zn222  1  0.46191900  0.75046900  0.59371800  1
  Zn  Zn223  1  0.12082200  0.50000000  0.57545500  1
  Zn  Zn224  1  0.81448700  0.40771000  0.53258400  1
  Zn  Zn225  1  0.97712200  0.86290600  0.59412200  1
  Zn  Zn226  1  0.47567000  0.42312300  0.54166400  1
  Zn  Zn227  1  0.14981100  0.82447600  0.57733900  1
  Zn  Zn228  1  0.29660600  0.96319600  0.55848300  1
  Zn  Zn229  1  0.35065800  0.46639900  0.50856000  1
  Zn  Zn230  1  0.43975100  0.26762300  0.56534500  1
  Zn  Zn231  1  0.58692500  0.18261300  0.57359400  1
  Zn  Zn232  1  0.26452200  0.13709400  0.55678700  1
  Zn  Zn233  1  0.44561900  0.09965700  0.53895400  1
  Zn  Zn234  1  0.86597400  0.57687700  0.50924500  1
  Zn  Zn235  1  0.77972400  0.24953100  0.55719100  1
  Zn  Zn236  1  0.99098600  0.53360100  0.54234900  1
  Zn  Zn237  1  0.89602500  0.90034300  0.51195500  1
  Zn  Zn238  1  0.42666900  0.42323600  0.59104200  1
  Zn  Zn239  1  0.17082200  0.50000000  0.52545500  1
  Zn  Zn240  1  0.33253600  0.78453800  0.56086600  1
  Zn  Zn241  1  0.19878700  0.82500200  0.52685800  1
  Zn  Zn242  1  0.39678800  0.09783900  0.59042600  1
  Zn  Zn243  1  0.90910800  0.21546200  0.59004300  1
  Zn  Zn244  1  0.84485600  0.90216100  0.56048300  1
  Zn  Zn245  1  0.80189300  0.73237700  0.58556400  1
  Zn  Zn246  1  0.14285600  0.17499800  0.52405200  1
  Zn  Zn247  1  0.50838700  0.75168900  0.54315700  1
  Zn  Zn248  1  0.67082200  0.50000000  0.52545500  1
  Zn  Zn249  1  0.09183300  0.17552400  0.57357000  1
  Zn  Zn250  1  0.94503800  0.03680400  0.59242600  1
  Zn  Zn251  1  0.18256100  0.33714800  0.50012600  1
  Zn  Zn252  1  0.42715700  0.59229000  0.61832500  1
  Zn  Zn253  1  0.55471900  0.81738700  0.67731500  1
  Zn  Zn254  1  0.05908200  0.66285200  0.65078300  1
  Zn  Zn255  1  0.73325600  0.24831100  0.60775200  1
  Zn  Zn256  1  0.71497400  0.57676400  0.65986700  1
  Zn  Zn257  1  0.36191900  0.75046900  0.69371800  1
  Zn  Zn258  1  0.02082200  0.50000000  0.67545500  1
  Zn  Zn259  1  0.71448700  0.40771000  0.63258400  1
  Zn  Zn260  1  0.87712200  0.86290600  0.69412200  1
  Zn  Zn261  1  0.37567000  0.42312300  0.64166400  1
  Zn  Zn262  1  0.04981100  0.82447600  0.67733900  1
  Zn  Zn263  1  0.19660600  0.96319600  0.65848300  1
  Zn  Zn264  1  0.25065800  0.46639900  0.60856000  1
  Zn  Zn265  1  0.33975100  0.26762300  0.66534500  1
  Zn  Zn266  1  0.48692500  0.18261300  0.67359400  1
  Zn  Zn267  1  0.16452200  0.13709400  0.65678700  1
  Zn  Zn268  1  0.34561900  0.09965700  0.63895400  1
  Zn  Zn269  1  0.76597400  0.57687700  0.60924500  1
  Zn  Zn270  1  0.67972400  0.24953100  0.65719100  1
  Zn  Zn271  1  0.89098600  0.53360100  0.64234900  1
  Zn  Zn272  1  0.79602500  0.90034300  0.61195500  1
  Zn  Zn273  1  0.32666900  0.42323600  0.69104200  1
  Zn  Zn274  1  0.07082200  0.50000000  0.62545500  1
  Zn  Zn275  1  0.23253600  0.78453800  0.66086600  1
  Zn  Zn276  1  0.09878700  0.82500200  0.62685800  1
  Zn  Zn277  1  0.29678800  0.09783900  0.69042600  1
  Zn  Zn278  1  0.80910800  0.21546200  0.69004300  1
  Zn  Zn279  1  0.74485600  0.90216100  0.66048300  1
  Zn  Zn280  1  0.70189300  0.73237700  0.68556400  1
  Zn  Zn281  1  0.04285600  0.17499800  0.62405200  1
  Zn  Zn282  1  0.40838700  0.75168900  0.64315700  1
  Zn  Zn283  1  0.57082200  0.50000000  0.62545500  1
  Zn  Zn284  1  0.99183300  0.17552400  0.67357000  1
  Zn  Zn285  1  0.84503800  0.03680400  0.69242600  1
  Zn  Zn286  1  0.08256100  0.33714800  0.60012600  1
  Zn  Zn287  1  0.32715700  0.59229000  0.71832500  1
  Zn  Zn288  1  0.95908200  0.66285200  0.75078300  1
  Zn  Zn289  1  0.63325600  0.24831100  0.70775200  1
  Zn  Zn290  1  0.61448700  0.40771000  0.73258400  1
  Zn  Zn291  1  0.27567000  0.42312300  0.74166400  1
  Zn  Zn292  1  0.15065800  0.46639900  0.70856000  1
  Zn  Zn293  1  0.24561900  0.09965700  0.73895400  1
  Zn  Zn294  1  0.66597400  0.57687700  0.70924500  1
  Zn  Zn295  1  0.79098600  0.53360100  0.74234900  1
  Zn  Zn296  1  0.69602500  0.90034300  0.71195500  1
  Zn  Zn297  1  0.97082200  0.50000000  0.72545500  1
  Zn  Zn298  1  0.99878700  0.82500200  0.72685800  1
  Zn  Zn299  1  0.94285600  0.17499800  0.72405200  1
  Zn  Zn300  1  0.30838700  0.75168900  0.74315700  1
  Zn  Zn301  1  0.47082200  0.50000000  0.72545500  1
  Zn  Zn302  1  0.98256100  0.33714800  0.70012600  1
