# generated using pymatgen
data_Mg14Zn25
_symmetry_space_group_name_H-M   'P 1'
_cell_length_a   5.07402237
_cell_length_b   17.20699092
_cell_length_c   54.58155700
_cell_angle_alpha   87.89733091
_cell_angle_beta   92.22235669
_cell_angle_gamma   98.42726965
_symmetry_Int_Tables_number   1
_chemical_formula_structural   Mg14Zn25
_chemical_formula_sum   'Mg42 Zn75'
_cell_volume   4708.12472958
_cell_formula_units_Z   3
loop_
 _symmetry_equiv_pos_site_id
 _symmetry_equiv_pos_as_xyz
  1  'x, y, z'
loop_
 _atom_site_type_symbol
 _atom_site_label
 _atom_site_symmetry_multiplicity
 _atom_site_fract_x
 _atom_site_fract_y
 _atom_site_fract_z
 _atom_site_occupancy
  Mg  Mg0  1  0.48295900  0.38266000  0.34289000  1
  Mg  Mg1  1  0.42138200  0.36640500  0.24156500  1
  Mg  Mg2  1  0.14006600  0.76685200  0.26123500  1
  Mg  Mg3  1  0.93457000  0.29475400  0.32723600  1
  Mg  Mg4  1  0.97844000  0.47313400  0.23929400  1
  Mg  Mg5  1  0.71439200  0.97662100  0.20398800  1
  Mg  Mg6  1  0.05641900  0.58881300  0.28432900  1
  Mg  Mg7  1  0.84327600  0.14955400  0.29821800  1
  Mg  Mg8  1  0.55985700  0.55909800  0.31929100  1
  Mg  Mg9  1  0.79940600  0.97117500  0.38616000  1
  Mg  Mg10  1  0.63778000  0.67745600  0.36422000  1
  Mg  Mg11  1  0.21798900  0.88521000  0.30616300  1
  Mg  Mg12  1  0.40245700  0.27376300  0.29098800  1
  Mg  Mg13  1  0.63390700  0.79881300  0.22664200  1
  Mg  Mg14  1  0.14393900  0.64549500  0.39881200  1
  Mg  Mg15  1  0.72142700  0.85549500  0.34112500  1
  Mg  Mg16  1  0.29488700  0.06164800  0.28256400  1
  Mg  Mg17  1  0.26345400  0.06768700  0.22146700  1
  Mg  Mg18  1  0.35646400  0.07790300  0.38388900  1
  Mg  Mg19  1  0.37538900  0.17054500  0.33446700  1
  Mg  Mg20  1  0.28295900  0.78266000  0.54289000  1
  Mg  Mg21  1  0.22138200  0.76640500  0.44156500  1
  Mg  Mg22  1  0.94006600  0.16685200  0.46123500  1
  Mg  Mg23  1  0.73457000  0.69475400  0.52723600  1
  Mg  Mg24  1  0.77844000  0.87313400  0.43929400  1
  Mg  Mg25  1  0.51439200  0.37662100  0.40398800  1
  Mg  Mg26  1  0.85641900  0.98881300  0.48432900  1
  Mg  Mg27  1  0.64327600  0.54955400  0.49821800  1
  Mg  Mg28  1  0.35985700  0.95909800  0.51929100  1
  Mg  Mg29  1  0.59940600  0.37117500  0.58616000  1
  Mg  Mg30  1  0.43778000  0.07745600  0.56422000  1
  Mg  Mg31  1  0.01798900  0.28521000  0.50616300  1
  Mg  Mg32  1  0.20245700  0.67376300  0.49098800  1
  Mg  Mg33  1  0.43390700  0.19881300  0.42664200  1
  Mg  Mg34  1  0.94393900  0.04549500  0.59881200  1
  Mg  Mg35  1  0.52142700  0.25549500  0.54112500  1
  Mg  Mg36  1  0.09488700  0.46164800  0.48256400  1
  Mg  Mg37  1  0.06345400  0.46768700  0.42146700  1
  Mg  Mg38  1  0.15646400  0.47790300  0.58388900  1
  Mg  Mg39  1  0.17538900  0.57054500  0.53446700  1
  Mg  Mg40  1  0.31439200  0.77662100  0.60398800  1
  Mg  Mg41  1  0.86345400  0.86768700  0.62146700  1
  Zn  Zn42  1  0.51160200  0.52709800  0.26134400  1
  Zn  Zn43  1  0.91398900  0.31741900  0.26905300  1
  Zn  Zn44  1  0.10578900  0.61900700  0.34258000  1
  Zn  Zn45  1  0.54523400  0.01527500  0.33344300  1
  Zn  Zn46  1  0.96515800  0.80467000  0.39236700  1
  Zn  Zn47  1  0.72806900  0.42812900  0.29094900  1
  Zn  Zn48  1  0.88892300  0.72215400  0.31272700  1
  Zn  Zn49  1  0.26624400  0.91721000  0.36411000  1
  Zn  Zn50  1  0.80465800  0.15442300  0.21031500  1
  Zn  Zn51  1  0.30641400  0.63985700  0.23314000  1
  Zn  Zn52  1  0.81135700  0.51511900  0.37144800  1
  Zn  Zn53  1  0.99776500  0.38071100  0.37360400  1
  Zn  Zn54  1  0.59717700  0.67713800  0.27341900  1
  Zn  Zn55  1  0.09826200  0.73805300  0.20448800  1
  Zn  Zn56  1  0.86385700  0.12689000  0.35640100  1
  Zn  Zn57  1  0.17318800  0.88988500  0.21514000  1
  Zn  Zn58  1  0.19165500  0.24704100  0.37499900  1
  Zn  Zn59  1  0.47143200  0.80445100  0.39231400  1
  Zn  Zn60  1  0.04977700  0.01618000  0.33450600  1
  Zn  Zn61  1  0.18066900  0.76717000  0.35203600  1
  Zn  Zn62  1  0.58619100  0.19726700  0.25045500  1
  Zn  Zn63  1  0.81268800  0.63963900  0.23308700  1
  Zn  Zn64  1  0.38892300  0.72215400  0.31272700  1
  Zn  Zn65  1  0.01732800  0.47258100  0.33021000  1
  Zn  Zn66  1  0.31576600  0.51540500  0.37185400  1
  Zn  Zn67  1  0.67782700  0.24707600  0.37410700  1
  Zn  Zn68  1  0.76051800  0.97172700  0.29524500  1
  Zn  Zn69  1  0.10001900  0.19723200  0.25134700  1
  Zn  Zn70  1  0.87958400  0.30625500  0.22096600  1
  Zn  Zn71  1  0.46208000  0.92890300  0.25360100  1
  Zn  Zn72  1  0.23261200  0.42903300  0.29201100  1
  Zn  Zn73  1  0.48892300  0.52215400  0.21272700  1
  Zn  Zn74  1  0.96648900  0.92918900  0.25400700  1
  Zn  Zn75  1  0.78008100  0.06359700  0.25185000  1
  Zn  Zn76  1  0.67205700  0.82530100  0.28287500  1
  Zn  Zn77  1  0.31160200  0.92709800  0.46134400  1
  Zn  Zn78  1  0.71398900  0.71741900  0.46905300  1
  Zn  Zn79  1  0.90578900  0.01900700  0.54258000  1
  Zn  Zn80  1  0.34523400  0.41527500  0.53344300  1
  Zn  Zn81  1  0.76515800  0.20467000  0.59236700  1
  Zn  Zn82  1  0.52806900  0.82812900  0.49094900  1
  Zn  Zn83  1  0.68892300  0.12215400  0.51272700  1
  Zn  Zn84  1  0.06624400  0.31721000  0.56411000  1
  Zn  Zn85  1  0.60465800  0.55442300  0.41031500  1
  Zn  Zn86  1  0.10641400  0.03985700  0.43314000  1
  Zn  Zn87  1  0.61135700  0.91511900  0.57144800  1
  Zn  Zn88  1  0.79776500  0.78071100  0.57360400  1
  Zn  Zn89  1  0.39717700  0.07713800  0.47341900  1
  Zn  Zn90  1  0.89826200  0.13805300  0.40448800  1
  Zn  Zn91  1  0.66385700  0.52689000  0.55640100  1
  Zn  Zn92  1  0.97318800  0.28988500  0.41514000  1
  Zn  Zn93  1  0.99165500  0.64704100  0.57499900  1
  Zn  Zn94  1  0.27143200  0.20445100  0.59231400  1
  Zn  Zn95  1  0.84977700  0.41618000  0.53450600  1
  Zn  Zn96  1  0.98066900  0.16717000  0.55203600  1
  Zn  Zn97  1  0.38619100  0.59726700  0.45045500  1
  Zn  Zn98  1  0.61268800  0.03963900  0.43308700  1
  Zn  Zn99  1  0.18892300  0.12215400  0.51272700  1
  Zn  Zn100  1  0.81732800  0.87258100  0.53021000  1
  Zn  Zn101  1  0.11576600  0.91540500  0.57185400  1
  Zn  Zn102  1  0.47782700  0.64707600  0.57410700  1
  Zn  Zn103  1  0.56051800  0.37172700  0.49524500  1
  Zn  Zn104  1  0.90001900  0.59723200  0.45134700  1
  Zn  Zn105  1  0.67958400  0.70625500  0.42096600  1
  Zn  Zn106  1  0.26208000  0.32890300  0.45360100  1
  Zn  Zn107  1  0.03261200  0.82903300  0.49201100  1
  Zn  Zn108  1  0.28892300  0.92215400  0.41272700  1
  Zn  Zn109  1  0.76648900  0.32918900  0.45400700  1
  Zn  Zn110  1  0.58008100  0.46359700  0.45185000  1
  Zn  Zn111  1  0.47205700  0.22530100  0.48287500  1
  Zn  Zn112  1  0.40465800  0.95442300  0.61031500  1
  Zn  Zn113  1  0.69826200  0.53805300  0.60448800  1
  Zn  Zn114  1  0.77318800  0.68988500  0.61514000  1
  Zn  Zn115  1  0.47958400  0.10625500  0.62096600  1
  Zn  Zn116  1  0.08892300  0.32215400  0.61272700  1
