# generated using pymatgen
data_Mg76Ir109
_symmetry_space_group_name_H-M   'P 1'
_cell_length_a   5.24707500
_cell_length_b   21.51305055
_cell_length_c   52.37228200
_cell_angle_alpha   80.49835411
_cell_angle_beta   90.00000000
_cell_angle_gamma   90.00000000
_symmetry_Int_Tables_number   1
_chemical_formula_structural   Mg76Ir109
_chemical_formula_sum   'Mg76 Ir109'
_cell_volume   5830.70907253
_cell_formula_units_Z   1
loop_
 _symmetry_equiv_pos_site_id
 _symmetry_equiv_pos_as_xyz
  1  'x, y, z'
loop_
 _atom_site_type_symbol
 _atom_site_label
 _atom_site_symmetry_multiplicity
 _atom_site_fract_x
 _atom_site_fract_y
 _atom_site_fract_z
 _atom_site_occupancy
  Mg  Mg0  1  0.50000000  0.78245600  0.21217200  1
  Mg  Mg1  1  0.00000000  0.75498400  0.24497100  1
  Mg  Mg2  1  0.00000000  0.68930600  0.34459000  1
  Mg  Mg3  1  0.50000000  0.99099200  0.25541000  1
  Mg  Mg4  1  0.50000000  0.88301300  0.30210500  1
  Mg  Mg5  1  0.00000000  0.79728400  0.29789500  1
  Mg  Mg6  1  0.50000000  0.05896100  0.34651300  1
  Mg  Mg7  1  0.00000000  0.62133700  0.25348700  1
  Mg  Mg8  1  0.50000000  0.54654200  0.23536100  1
  Mg  Mg9  1  1.00000000  0.99089900  0.22178200  1
  Mg  Mg10  1  0.00000000  0.35388500  0.28360000  1
  Mg  Mg11  1  0.50000000  0.32641300  0.31640000  1
  Mg  Mg12  1  0.50000000  0.11787700  0.27316100  1
  Mg  Mg13  1  0.00000000  0.56242000  0.32683900  1
  Mg  Mg14  1  0.00000000  0.31158500  0.23067600  1
  Mg  Mg15  1  0.50000000  0.22585600  0.22646700  1
  Mg  Mg16  1  0.00000000  0.48753200  0.27508400  1
  Mg  Mg17  1  0.50000000  0.19276500  0.32491600  1
  Mg  Mg18  1  1.00000000  0.11797000  0.30678900  1
  Mg  Mg19  1  0.50000000  0.56232800  0.29321100  1
  Mg  Mg20  1  0.50000000  0.92531300  0.35502900  1
  Mg  Mg21  1  0.00000000  0.89784200  0.38782800  1
  Mg  Mg22  1  0.00000000  0.83216300  0.48744700  1
  Mg  Mg23  1  0.50000000  0.13384900  0.39826700  1
  Mg  Mg24  1  0.50000000  0.02587100  0.44496200  1
  Mg  Mg25  1  0.00000000  0.94014100  0.44075300  1
  Mg  Mg26  1  0.50000000  0.20181800  0.48937000  1
  Mg  Mg27  1  0.00000000  0.76419400  0.39634500  1
  Mg  Mg28  1  0.50000000  0.68939900  0.37821800  1
  Mg  Mg29  1  0.00000000  0.13375600  0.36463900  1
  Mg  Mg30  1  0.00000000  0.49674200  0.42645700  1
  Mg  Mg31  1  0.50000000  0.46927000  0.45925700  1
  Mg  Mg32  1  0.50000000  0.26073400  0.41601800  1
  Mg  Mg33  1  0.00000000  0.70527800  0.46969600  1
  Mg  Mg34  1  0.00000000  0.45444200  0.37353300  1
  Mg  Mg35  1  0.50000000  0.36871300  0.36932400  1
  Mg  Mg36  1  0.00000000  0.63039000  0.41794100  1
  Mg  Mg37  1  0.50000000  0.33562200  0.46777300  1
  Mg  Mg38  1  0.00000000  0.26082700  0.44964700  1
  Mg  Mg39  1  0.50000000  0.70518500  0.43606800  1
  Mg  Mg40  1  0.50000000  0.06817000  0.49788600  1
  Mg  Mg41  1  0.00000000  0.04069900  0.53068500  1
  Mg  Mg42  1  0.00000000  0.97502000  0.63030400  1
  Mg  Mg43  1  0.50000000  0.27670600  0.54112400  1
  Mg  Mg44  1  0.50000000  0.16872800  0.58781900  1
  Mg  Mg45  1  1.00000000  0.08299900  0.58361000  1
  Mg  Mg46  1  0.50000000  0.34467500  0.63222700  1
  Mg  Mg47  1  0.00000000  0.90705100  0.53920200  1
  Mg  Mg48  1  0.50000000  0.83225600  0.52107500  1
  Mg  Mg49  1  1.00000000  0.27661300  0.50749600  1
  Mg  Mg50  1  0.00000000  0.63959900  0.56931500  1
  Mg  Mg51  1  0.50000000  0.61212700  0.60211400  1
  Mg  Mg52  1  0.50000000  0.40359200  0.55887600  1
  Mg  Mg53  1  0.00000000  0.84813500  0.61255300  1
  Mg  Mg54  1  0.00000000  0.59729900  0.51639000  1
  Mg  Mg55  1  0.50000000  0.51157000  0.51218100  1
  Mg  Mg56  1  0.00000000  0.77324700  0.56079800  1
  Mg  Mg57  1  0.50000000  0.47848000  0.61063000  1
  Mg  Mg58  1  0.00000000  0.40368400  0.59250400  1
  Mg  Mg59  1  0.50000000  0.84804200  0.57892500  1
  Mg  Mg60  1  0.50000000  0.21102800  0.64074300  1
  Mg  Mg61  1  0.00000000  0.18355600  0.67354300  1
  Mg  Mg62  1  0.50000000  0.41956300  0.68398200  1
  Mg  Mg63  1  0.50000000  0.31158500  0.73067600  1
  Mg  Mg64  1  0.00000000  0.22585600  0.72646700  1
  Mg  Mg65  1  1.00000000  0.04990800  0.68205900  1
  Mg  Mg66  1  0.50000000  0.97511300  0.66393200  1
  Mg  Mg67  1  0.00000000  0.41947000  0.65035300  1
  Mg  Mg68  1  0.00000000  0.78245600  0.71217200  1
  Mg  Mg69  1  0.50000000  0.75498400  0.74497100  1
  Mg  Mg70  1  0.50000000  0.54644900  0.70173300  1
  Mg  Mg71  1  0.00000000  0.74015600  0.65924700  1
  Mg  Mg72  1  0.50000000  0.65442700  0.65503800  1
  Mg  Mg73  1  0.00000000  0.91610400  0.70365500  1
  Mg  Mg74  1  1.00000000  0.54654200  0.73536100  1
  Mg  Mg75  1  0.50000000  0.99089900  0.72178200  1
  Ir  Ir76  1  0.00000000  0.00942800  0.35040000  1
  Ir  Ir77  1  0.50000000  0.67087000  0.24960000  1
  Ir  Ir78  1  0.24951300  0.80845400  0.35036100  1
  Ir  Ir79  1  0.25048700  0.87184400  0.24963900  1
  Ir  Ir80  1  0.74951300  0.87184400  0.24963900  1
  Ir  Ir81  1  0.75048700  0.80845400  0.35036100  1
  Ir  Ir82  1  0.00000000  0.05443500  0.26428600  1
  Ir  Ir83  1  0.50000000  0.77625700  0.27014500  1
  Ir  Ir84  1  0.00000000  0.90404000  0.32985500  1
  Ir  Ir85  1  0.50000000  0.74701800  0.32104100  1
  Ir  Ir86  1  0.00000000  0.93328000  0.27895900  1
  Ir  Ir87  1  0.26606200  0.00579000  0.30640900  1
  Ir  Ir88  1  0.23393800  0.67450800  0.29359100  1
  Ir  Ir89  1  0.76606200  0.67450800  0.29359100  1
  Ir  Ir90  1  0.73393800  0.00579000  0.30640900  1
  Ir  Ir91  1  0.50000000  0.43799900  0.27897200  1
  Ir  Ir92  1  0.00000000  0.24229900  0.32102800  1
  Ir  Ir93  1  0.74951300  0.23702500  0.27893300  1
  Ir  Ir94  1  0.75048700  0.44327300  0.32106700  1
  Ir  Ir95  1  0.24951300  0.44327300  0.32106700  1
  Ir  Ir96  1  0.25048700  0.23702500  0.27893300  1
  Ir  Ir97  1  0.50000000  0.62586300  0.33571400  1
  Ir  Ir98  1  0.00000000  0.34768600  0.34157300  1
  Ir  Ir99  1  0.50000000  0.33261200  0.25842700  1
  Ir  Ir100  1  0.00000000  0.17559000  0.24961200  1
  Ir  Ir101  1  0.50000000  0.50470800  0.35038800  1
  Ir  Ir102  1  0.76606200  0.43436100  0.23498000  1
  Ir  Ir103  1  0.73393800  0.10307900  0.22216300  1
  Ir  Ir104  1  0.26606200  0.10307900  0.22216300  1
  Ir  Ir105  1  0.23393800  0.43436100  0.23498000  1
  Ir  Ir106  1  0.00000000  0.15228500  0.49325700  1
  Ir  Ir107  1  0.50000000  0.81372700  0.39245700  1
  Ir  Ir108  1  0.24951300  0.95131100  0.49321800  1
  Ir  Ir109  1  0.25048700  0.01470100  0.39249600  1
  Ir  Ir110  1  0.74951300  0.01470100  0.39249600  1
  Ir  Ir111  1  0.75048700  0.95131100  0.49321800  1
  Ir  Ir112  1  1.00000000  0.19729200  0.40714300  1
  Ir  Ir113  1  0.50000000  0.91911400  0.41300200  1
  Ir  Ir114  1  0.00000000  0.04689800  0.47271200  1
  Ir  Ir115  1  0.50000000  0.88987500  0.46389800  1
  Ir  Ir116  1  0.00000000  0.07613700  0.42181600  1
  Ir  Ir117  1  0.26606200  0.14864700  0.44926600  1
  Ir  Ir118  1  0.23393800  0.81736500  0.43644800  1
  Ir  Ir119  1  0.76606200  0.81736500  0.43644800  1
  Ir  Ir120  1  0.73393800  0.14864700  0.44926600  1
  Ir  Ir121  1  0.50000000  0.58085600  0.42182900  1
  Ir  Ir122  1  0.00000000  0.38515600  0.46388600  1
  Ir  Ir123  1  0.74951300  0.37988200  0.42179000  1
  Ir  Ir124  1  0.75048700  0.58613000  0.46392500  1
  Ir  Ir125  1  0.24951300  0.58613000  0.46392500  1
  Ir  Ir126  1  0.25048700  0.37988200  0.42179000  1
  Ir  Ir127  1  0.50000000  0.76872000  0.47857100  1
  Ir  Ir128  1  0.00000000  0.49054300  0.48443000  1
  Ir  Ir129  1  0.50000000  0.47546900  0.40128400  1
  Ir  Ir130  1  0.00000000  0.31844700  0.39247000  1
  Ir  Ir131  1  0.50000000  0.64756500  0.49324500  1
  Ir  Ir132  1  0.76606200  0.57721900  0.37783700  1
  Ir  Ir133  1  0.73393800  0.24593600  0.36502000  1
  Ir  Ir134  1  0.26606200  0.24593600  0.36502000  1
  Ir  Ir135  1  0.23393800  0.57721900  0.37783700  1
  Ir  Ir136  1  0.00000000  0.29514200  0.63611400  1
  Ir  Ir137  1  0.50000000  0.95658500  0.53531400  1
  Ir  Ir138  1  0.24951300  0.09416800  0.63607500  1
  Ir  Ir139  1  0.25048700  0.15755800  0.53535300  1
  Ir  Ir140  1  0.74951300  0.15755800  0.53535300  1
  Ir  Ir141  1  0.75048700  0.09416800  0.63607500  1
  Ir  Ir142  1  0.00000000  0.34014900  0.55000000  1
  Ir  Ir143  1  0.50000000  0.06197200  0.55585900  1
  Ir  Ir144  1  1.00000000  0.18975500  0.61557000  1
  Ir  Ir145  1  0.50000000  0.03273300  0.60675500  1
  Ir  Ir146  1  0.00000000  0.21899400  0.56467300  1
  Ir  Ir147  1  0.26606200  0.29150400  0.59212300  1
  Ir  Ir148  1  0.23393800  0.96022200  0.57930600  1
  Ir  Ir149  1  0.76606200  0.96022200  0.57930600  1
  Ir  Ir150  1  0.73393800  0.29150400  0.59212300  1
  Ir  Ir151  1  0.50000000  0.72371300  0.56468600  1
  Ir  Ir152  1  0.00000000  0.52801300  0.60674300  1
  Ir  Ir153  1  0.74951300  0.52273900  0.56464700  1
  Ir  Ir154  1  0.75048700  0.72898700  0.60678200  1
  Ir  Ir155  1  0.24951300  0.72898700  0.60678200  1
  Ir  Ir156  1  0.25048700  0.52273900  0.56464700  1
  Ir  Ir157  1  0.50000000  0.91157700  0.62142900  1
  Ir  Ir158  1  0.00000000  0.63340000  0.62728800  1
  Ir  Ir159  1  0.50000000  0.61832600  0.54414100  1
  Ir  Ir160  1  0.00000000  0.46130400  0.53532700  1
  Ir  Ir161  1  0.50000000  0.79042200  0.63610200  1
  Ir  Ir162  1  0.76606200  0.72007600  0.52069400  1
  Ir  Ir163  1  0.73393800  0.38879400  0.50787700  1
  Ir  Ir164  1  0.26606200  0.38879400  0.50787700  1
  Ir  Ir165  1  0.23393800  0.72007600  0.52069400  1
  Ir  Ir166  1  0.50000000  0.09944200  0.67817100  1
  Ir  Ir167  1  0.25048700  0.30041500  0.67821000  1
  Ir  Ir168  1  0.74951300  0.30041500  0.67821000  1
  Ir  Ir169  1  0.00000000  0.48300600  0.69285700  1
  Ir  Ir170  1  0.50000000  0.20482900  0.69871600  1
  Ir  Ir171  1  0.00000000  0.36185100  0.70753000  1
  Ir  Ir172  1  0.26606200  0.43436100  0.73498000  1
  Ir  Ir173  1  0.23393800  0.10307900  0.72216300  1
  Ir  Ir174  1  0.76606200  0.10307900  0.72216300  1
  Ir  Ir175  1  0.73393800  0.43436100  0.73498000  1
  Ir  Ir176  1  0.50000000  0.86657000  0.70754300  1
  Ir  Ir177  1  0.74951300  0.66559700  0.70750400  1
  Ir  Ir178  1  0.25048700  0.66559700  0.70750400  1
  Ir  Ir179  1  0.50000000  0.76118300  0.68699800  1
  Ir  Ir180  1  0.00000000  0.60416100  0.67818400  1
  Ir  Ir181  1  0.76606200  0.86293300  0.66355200  1
  Ir  Ir182  1  0.73393800  0.53165100  0.65073400  1
  Ir  Ir183  1  0.26606200  0.53165100  0.65073400  1
  Ir  Ir184  1  0.23393800  0.86293300  0.66355200  1
