# generated using pymatgen
data_Mg6Hg19
_symmetry_space_group_name_H-M   'P 1'
_cell_length_a   4.95207504
_cell_length_b   10.62223185
_cell_length_c   43.00163600
_cell_angle_alpha   89.37829739
_cell_angle_beta   93.30092273
_cell_angle_gamma   76.52037499
_symmetry_Int_Tables_number   1
_chemical_formula_structural   Mg6Hg19
_chemical_formula_sum   'Mg12 Hg38'
_cell_volume   2195.32902800
_cell_formula_units_Z   2
loop_
 _symmetry_equiv_pos_site_id
 _symmetry_equiv_pos_as_xyz
  1  'x, y, z'
loop_
 _atom_site_type_symbol
 _atom_site_label
 _atom_site_symmetry_multiplicity
 _atom_site_fract_x
 _atom_site_fract_y
 _atom_site_fract_z
 _atom_site_occupancy
  Mg  Mg0  1  0.88063300  0.52365000  0.29924200  1
  Mg  Mg1  1  0.15336000  0.99334700  0.31439400  1
  Mg  Mg2  1  0.51699700  0.34183200  0.39015200  1
  Mg  Mg3  1  0.78972400  0.81152900  0.40530300  1
  Mg  Mg4  1  0.15336000  0.16001300  0.48106100  1
  Mg  Mg5  1  0.42608800  0.62971000  0.49621200  1
  Mg  Mg6  1  0.78972400  0.97819500  0.57197000  1
  Mg  Mg7  1  0.06245100  0.44789200  0.58712100  1
  Mg  Mg8  1  0.42608800  0.79637700  0.66287900  1
  Mg  Mg9  1  0.69881500  0.26607400  0.67803000  1
  Mg  Mg10  1  0.06245100  0.61455900  0.75378800  1
  Mg  Mg11  1  0.33517800  0.08425600  0.76893900  1
  Hg  Hg12  1  0.39947500  0.43958900  0.25286500  1
  Hg  Hg13  1  0.99815500  0.25922600  0.26986200  1
  Hg  Hg14  1  0.76311100  0.78807400  0.32862300  1
  Hg  Hg15  1  0.27088200  0.72892300  0.28501300  1
  Hg  Hg16  1  0.03583800  0.25777100  0.34377400  1
  Hg  Hg17  1  0.63451800  0.07740800  0.36077100  1
  Hg  Hg18  1  0.42608800  0.46304400  0.32954500  1
  Hg  Hg19  1  0.60790600  0.05395300  0.28409100  1
  Hg  Hg20  1  0.39947500  0.60625600  0.41953200  1
  Hg  Hg21  1  0.90724600  0.54710400  0.37592300  1
  Hg  Hg22  1  0.67220200  0.07595300  0.43468300  1
  Hg  Hg23  1  0.27088200  0.89558900  0.45168000  1
  Hg  Hg24  1  0.06245100  0.28122600  0.42045500  1
  Hg  Hg25  1  0.24426900  0.87213500  0.37500000  1
  Hg  Hg26  1  0.03583800  0.42443800  0.51044100  1
  Hg  Hg27  1  0.54360900  0.36528600  0.46683200  1
  Hg  Hg28  1  0.30856600  0.89413500  0.52559300  1
  Hg  Hg29  1  0.90724600  0.71377100  0.54258900  1
  Hg  Hg30  1  0.69881500  0.09940700  0.51136400  1
  Hg  Hg31  1  0.88063300  0.69031700  0.46590900  1
  Hg  Hg32  1  0.67220200  0.24261900  0.60135000  1
  Hg  Hg33  1  0.17997300  0.18346800  0.55774100  1
  Hg  Hg34  1  0.94492900  0.71231600  0.61650200  1
  Hg  Hg35  1  0.54360900  0.53195300  0.63349800  1
  Hg  Hg36  1  0.33517800  0.91758900  0.60227300  1
  Hg  Hg37  1  0.51699700  0.50849800  0.55681800  1
  Hg  Hg38  1  0.30856600  0.06080100  0.69225900  1
  Hg  Hg39  1  0.81633700  0.00165000  0.64865000  1
  Hg  Hg40  1  0.58129300  0.53049800  0.70741100  1
  Hg  Hg41  1  0.17997300  0.35013500  0.72440700  1
  Hg  Hg42  1  0.97154200  0.73577100  0.69318200  1
  Hg  Hg43  1  0.15336000  0.32668000  0.64772700  1
  Hg  Hg44  1  0.94492900  0.87898300  0.78316800  1
  Hg  Hg45  1  0.45270000  0.81983200  0.73955900  1
  Hg  Hg46  1  0.21765700  0.34868000  0.79832000  1
  Hg  Hg47  1  0.81633700  0.16831700  0.81531700  1
  Hg  Hg48  1  0.60790600  0.55395300  0.78409100  1
  Hg  Hg49  1  0.78972400  0.14486200  0.73863600  1
