# generated using pymatgen
data_Mg13Au41
_symmetry_space_group_name_H-M   'P 1'
_cell_length_a   5.98733200
_cell_length_b   9.58286600
_cell_length_c   59.94941800
_cell_angle_alpha   90.00000000
_cell_angle_beta   90.00000000
_cell_angle_gamma   90.00000000
_symmetry_Int_Tables_number   1
_chemical_formula_structural   Mg13Au41
_chemical_formula_sum   'Mg26 Au82'
_cell_volume   3439.64583248
_cell_formula_units_Z   2
loop_
 _symmetry_equiv_pos_site_id
 _symmetry_equiv_pos_as_xyz
  1  'x, y, z'
loop_
 _atom_site_type_symbol
 _atom_site_label
 _atom_site_symmetry_multiplicity
 _atom_site_fract_x
 _atom_site_fract_y
 _atom_site_fract_z
 _atom_site_occupancy
  Mg  Mg0  1  0.50000000  0.25000000  0.48117000  1
  Mg  Mg1  1  0.00000000  0.75000000  0.28966300  1
  Mg  Mg2  1  1.00000000  0.49920200  0.42746200  1
  Mg  Mg3  1  0.50000000  0.50079800  0.34337100  1
  Mg  Mg4  1  0.50000000  0.99920200  0.34337100  1
  Mg  Mg5  1  0.00000000  0.00079800  0.42746200  1
  Mg  Mg6  1  0.00000000  0.25000000  0.31450300  1
  Mg  Mg7  1  0.50000000  0.75000000  0.45633000  1
  Mg  Mg8  1  0.50000000  0.25000000  0.39867000  1
  Mg  Mg9  1  0.00000000  0.75000000  0.37216400  1
  Mg  Mg10  1  0.50000000  0.49920200  0.59412900  1
  Mg  Mg11  1  0.00000000  0.50079800  0.51003800  1
  Mg  Mg12  1  0.00000000  0.99920200  0.51003800  1
  Mg  Mg13  1  0.50000000  0.00079800  0.59412900  1
  Mg  Mg14  1  0.50000000  0.25000000  0.81450300  1
  Mg  Mg15  1  0.00000000  0.75000000  0.62299700  1
  Mg  Mg16  1  0.00000000  0.25000000  0.56533600  1
  Mg  Mg17  1  0.50000000  0.75000000  0.53883000  1
  Mg  Mg18  1  0.00000000  0.49920200  0.76079500  1
  Mg  Mg19  1  0.50000000  0.50079800  0.67670500  1
  Mg  Mg20  1  0.50000000  0.99920200  0.67670500  1
  Mg  Mg21  1  0.00000000  0.00079800  0.76079500  1
  Mg  Mg22  1  0.00000000  0.25000000  0.64783700  1
  Mg  Mg23  1  0.50000000  0.75000000  0.78966300  1
  Mg  Mg24  1  0.50000000  0.25000000  0.73200300  1
  Mg  Mg25  1  0.00000000  0.75000000  0.70549700  1
  Au  Au26  1  0.74887800  0.00000000  0.46875000  1
  Au  Au27  1  0.25112200  0.50000000  0.46875000  1
  Au  Au28  1  0.25112200  0.00000000  0.46875000  1
  Au  Au29  1  0.74887800  0.50000000  0.46875000  1
  Au  Au30  1  0.74955100  0.75000000  0.49775300  1
  Au  Au31  1  0.24955100  0.25000000  0.27308100  1
  Au  Au32  1  0.75044900  0.25000000  0.27308100  1
  Au  Au33  1  0.25044900  0.75000000  0.49775300  1
  Au  Au34  1  0.00000000  0.25000000  0.48227800  1
  Au  Au35  1  0.50000000  0.75000000  0.28855500  1
  Au  Au36  1  0.24887800  0.00000000  0.30208300  1
  Au  Au37  1  0.75112200  0.50000000  0.30208300  1
  Au  Au38  1  0.75112200  0.00000000  0.30208300  1
  Au  Au39  1  0.24887800  0.50000000  0.30208300  1
  Au  Au40  1  0.00000000  0.00054900  0.34409600  1
  Au  Au41  1  0.50000000  0.99945100  0.42673700  1
  Au  Au42  1  0.50000000  0.50054900  0.42673700  1
  Au  Au43  1  0.00000000  0.49945100  0.34409600  1
  Au  Au44  1  0.75204300  0.75000000  0.41433100  1
  Au  Au45  1  0.25204300  0.25000000  0.35650200  1
  Au  Au46  1  0.74795700  0.25000000  0.35650200  1
  Au  Au47  1  0.24795700  0.75000000  0.41433100  1
  Au  Au48  1  0.24955100  0.75000000  0.33108600  1
  Au  Au49  1  0.74955100  0.25000000  0.43974700  1
  Au  Au50  1  0.25044900  0.25000000  0.43974700  1
  Au  Au51  1  0.75044900  0.75000000  0.33108600  1
  Au  Au52  1  0.25000000  0.50000000  0.38541700  1
  Au  Au53  1  0.75000000  0.50000000  0.38541700  1
  Au  Au54  1  0.25000000  0.00000000  0.38541700  1
  Au  Au55  1  0.75000000  0.00000000  0.38541700  1
  Au  Au56  1  0.00000000  0.25000000  0.39815800  1
  Au  Au57  1  0.50000000  0.75000000  0.37267500  1
  Au  Au58  1  0.50000000  0.25000000  0.31561200  1
  Au  Au59  1  0.00000000  0.75000000  0.45522200  1
  Au  Au60  1  0.74887800  0.00000000  0.80208300  1
  Au  Au61  1  0.25112200  0.50000000  0.80208300  1
  Au  Au62  1  0.25112200  0.00000000  0.80208300  1
  Au  Au63  1  0.74887800  0.50000000  0.80208300  1
  Au  Au64  1  0.50000000  0.00054900  0.51076300  1
  Au  Au65  1  0.00000000  0.99945100  0.59340400  1
  Au  Au66  1  0.00000000  0.50054900  0.59340400  1
  Au  Au67  1  0.50000000  0.49945100  0.51076300  1
  Au  Au68  1  0.25204300  0.75000000  0.58099800  1
  Au  Au69  1  0.75204300  0.25000000  0.52316900  1
  Au  Au70  1  0.24795700  0.25000000  0.52316900  1
  Au  Au71  1  0.74795700  0.75000000  0.58099800  1
  Au  Au72  1  0.74955100  0.75000000  0.83108600  1
  Au  Au73  1  0.24955100  0.25000000  0.60641400  1
  Au  Au74  1  0.75044900  0.25000000  0.60641400  1
  Au  Au75  1  0.25044900  0.75000000  0.83108600  1
  Au  Au76  1  0.75000000  0.50000000  0.55208300  1
  Au  Au77  1  0.25000000  0.50000000  0.55208300  1
  Au  Au78  1  0.75000000  0.00000000  0.55208300  1
  Au  Au79  1  0.25000000  0.00000000  0.55208300  1
  Au  Au80  1  0.50000000  0.25000000  0.56482500  1
  Au  Au81  1  0.00000000  0.75000000  0.53934200  1
  Au  Au82  1  0.00000000  0.25000000  0.81561200  1
  Au  Au83  1  0.50000000  0.75000000  0.62188800  1
  Au  Au84  1  0.24887800  0.00000000  0.63541700  1
  Au  Au85  1  0.75112200  0.50000000  0.63541700  1
  Au  Au86  1  0.75112200  0.00000000  0.63541700  1
  Au  Au87  1  0.24887800  0.50000000  0.63541700  1
  Au  Au88  1  0.00000000  0.00054900  0.67742900  1
  Au  Au89  1  0.50000000  0.99945100  0.76007100  1
  Au  Au90  1  0.50000000  0.50054900  0.76007100  1
  Au  Au91  1  0.00000000  0.49945100  0.67742900  1
  Au  Au92  1  0.75204300  0.75000000  0.74766400  1
  Au  Au93  1  0.25204300  0.25000000  0.68983600  1
  Au  Au94  1  0.74795700  0.25000000  0.68983600  1
  Au  Au95  1  0.24795700  0.75000000  0.74766400  1
  Au  Au96  1  0.24955100  0.75000000  0.66441900  1
  Au  Au97  1  0.74955100  0.25000000  0.77308100  1
  Au  Au98  1  0.25044900  0.25000000  0.77308100  1
  Au  Au99  1  0.75044900  0.75000000  0.66441900  1
  Au  Au100  1  0.25000000  0.50000000  0.71875000  1
  Au  Au101  1  0.75000000  0.50000000  0.71875000  1
  Au  Au102  1  0.25000000  0.00000000  0.71875000  1
  Au  Au103  1  0.75000000  0.00000000  0.71875000  1
  Au  Au104  1  0.00000000  0.25000000  0.73149100  1
  Au  Au105  1  0.50000000  0.75000000  0.70600900  1
  Au  Au106  1  0.50000000  0.25000000  0.64894500  1
  Au  Au107  1  0.00000000  0.75000000  0.78855500  1
