# generated using pymatgen
data_Mg10Zn17
_symmetry_space_group_name_H-M   'P 1'
_cell_length_a   5.07402209
_cell_length_b   22.10207791
_cell_length_c   42.67993100
_cell_angle_alpha   98.00895109
_cell_angle_beta   93.24549340
_cell_angle_gamma   83.83945518
_symmetry_Int_Tables_number   1
_chemical_formula_structural   Mg10Zn17
_chemical_formula_sum   'Mg50 Zn85'
_cell_volume   4708.12433190
_cell_formula_units_Z   5
loop_
 _symmetry_equiv_pos_site_id
 _symmetry_equiv_pos_as_xyz
  1  'x, y, z'
loop_
 _atom_site_type_symbol
 _atom_site_label
 _atom_site_symmetry_multiplicity
 _atom_site_fract_x
 _atom_site_fract_y
 _atom_site_fract_z
 _atom_site_occupancy
  Mg  Mg0  1  0.60789000  0.06756200  0.21568900  1
  Mg  Mg1  1  0.27175500  0.90749100  0.38892300  1
  Mg  Mg2  1  0.04599600  0.34037300  0.35303500  1
  Mg  Mg3  1  0.88214000  0.68755000  0.37739600  1
  Mg  Mg4  1  0.98430500  0.33428700  0.23116000  1
  Mg  Mg5  1  0.69061700  0.91972100  0.22549400  1
  Mg  Mg6  1  0.05204000  0.24933900  0.28643900  1
  Mg  Mg7  1  0.82571200  0.72815400  0.31351300  1
  Mg  Mg8  1  0.59533400  0.15948700  0.28154500  1
  Mg  Mg9  1  0.92354800  0.48141700  0.25974900  1
  Mg  Mg10  1  0.66185600  0.07533100  0.33787400  1
  Mg  Mg11  1  0.31251800  0.65621700  0.20936400  1
  Mg  Mg12  1  0.32942500  0.77034900  0.36175000  1
  Mg  Mg13  1  0.49937800  0.42978800  0.35890100  1
  Mg  Mg14  1  0.20847400  0.98591600  0.33200800  1
  Mg  Mg15  1  0.85581200  0.56636500  0.20447000  1
  Mg  Mg16  1  0.29996200  0.74814200  0.27522000  1
  Mg  Mg17  1  0.21723500  0.89598300  0.26541500  1
  Mg  Mg18  1  0.43609700  0.50821300  0.30198600  1
  Mg  Mg19  1  0.37842700  0.64535500  0.32915900  1
  Mg  Mg20  1  0.40789000  0.66756200  0.41568900  1
  Mg  Mg21  1  0.07175500  0.50749100  0.58892300  1
  Mg  Mg22  1  0.84599600  0.94037300  0.55303500  1
  Mg  Mg23  1  0.68214000  0.28755000  0.57739600  1
  Mg  Mg24  1  0.78430500  0.93428700  0.43116000  1
  Mg  Mg25  1  0.49061700  0.51972100  0.42549400  1
  Mg  Mg26  1  0.85204000  0.84933900  0.48643900  1
  Mg  Mg27  1  0.62571200  0.32815400  0.51351300  1
  Mg  Mg28  1  0.39533400  0.75948700  0.48154500  1
  Mg  Mg29  1  0.72354800  0.08141700  0.45974900  1
  Mg  Mg30  1  0.46185600  0.67533100  0.53787400  1
  Mg  Mg31  1  0.11251800  0.25621700  0.40936400  1
  Mg  Mg32  1  0.12942500  0.37034900  0.56175000  1
  Mg  Mg33  1  0.29937800  0.02978800  0.55890100  1
  Mg  Mg34  1  0.00847400  0.58591600  0.53200800  1
  Mg  Mg35  1  0.65581200  0.16636500  0.40447000  1
  Mg  Mg36  1  0.09996200  0.34814200  0.47522000  1
  Mg  Mg37  1  0.01723500  0.49598300  0.46541500  1
  Mg  Mg38  1  0.23609700  0.10821300  0.50198600  1
  Mg  Mg39  1  0.17842700  0.24535500  0.52915900  1
  Mg  Mg40  1  0.20789000  0.26756200  0.61568900  1
  Mg  Mg41  1  0.58430500  0.53428700  0.63116000  1
  Mg  Mg42  1  0.29061700  0.11972100  0.62549400  1
  Mg  Mg43  1  0.65204000  0.44933900  0.68643900  1
  Mg  Mg44  1  0.19533400  0.35948700  0.68154500  1
  Mg  Mg45  1  0.52354800  0.68141700  0.65974900  1
  Mg  Mg46  1  0.91251800  0.85621700  0.60936400  1
  Mg  Mg47  1  0.45581200  0.76636500  0.60447000  1
  Mg  Mg48  1  0.89996200  0.94814200  0.67522000  1
  Mg  Mg49  1  0.81723500  0.09598300  0.66541500  1
  Zn  Zn50  1  0.51352100  0.29216000  0.25715600  1
  Zn  Zn51  1  0.80594700  0.83172300  0.37482600  1
  Zn  Zn52  1  0.13593300  0.11557600  0.31016600  1
  Zn  Zn53  1  0.60956100  0.61675800  0.26684600  1
  Zn  Zn54  1  0.96086600  0.03322000  0.39438900  1
  Zn  Zn55  1  0.79325900  0.20131500  0.22348900  1
  Zn  Zn56  1  0.85392600  0.20785200  0.34545500  1
  Zn  Zn57  1  0.39433100  0.52354400  0.23375400  1
  Zn  Zn58  1  0.71482300  0.94009500  0.29788000  1
  Zn  Zn59  1  0.24066600  0.38240200  0.29661800  1
  Zn  Zn60  1  0.90615000  0.02551600  0.27438500  1
  Zn  Zn61  1  0.14804600  0.99345900  0.22105300  1
  Zn  Zn62  1  0.54873900  0.29318900  0.31958600  1
  Zn  Zn63  1  0.97031400  0.47080600  0.33016600  1
  Zn  Zn64  1  0.90190500  0.58398200  0.31608400  1
  Zn  Zn65  1  0.99302900  0.47560900  0.39302900  1
  Zn  Zn66  1  0.19652100  0.56337600  0.36786400  1
  Zn  Zn67  1  0.46718600  0.03330300  0.39429100  1
  Zn  Zn68  1  0.11459300  0.61438900  0.26742000  1
  Zn  Zn69  1  0.15911300  0.12251500  0.37132300  1
  Zn  Zn70  1  0.51133100  0.85232800  0.32304500  1
  Zn  Zn71  1  0.74698600  0.38248400  0.29652000  1
  Zn  Zn72  1  0.35392600  0.20785200  0.34545500  1
  Zn  Zn73  1  0.09614600  0.11597900  0.24912200  1
  Zn  Zn74  1  0.41077000  0.02459800  0.27458000  1
  Zn  Zn75  1  0.68196600  0.56552400  0.36769900  1
  Zn  Zn76  1  0.81170600  0.69972500  0.24178700  1
  Zn  Zn77  1  0.02588600  0.85018000  0.32321000  1
  Zn  Zn78  1  0.73753800  0.94489800  0.36074300  1
  Zn  Zn79  1  0.49708200  0.79110600  0.21632900  1
  Zn  Zn80  1  0.29829100  0.19894600  0.22406300  1
  Zn  Zn81  1  0.45392600  0.40785200  0.24545500  1
  Zn  Zn82  1  0.00170200  0.79018800  0.21652500  1
  Zn  Zn83  1  0.75980600  0.82224500  0.26985600  1
  Zn  Zn84  1  0.57192000  0.30012800  0.38074300  1
  Zn  Zn85  1  0.31352100  0.89216000  0.45715600  1
  Zn  Zn86  1  0.60594700  0.43172300  0.57482600  1
  Zn  Zn87  1  0.93593300  0.71557600  0.51016600  1
  Zn  Zn88  1  0.40956100  0.21675800  0.46684600  1
  Zn  Zn89  1  0.76086600  0.63322000  0.59438900  1
  Zn  Zn90  1  0.59325900  0.80131500  0.42348900  1
  Zn  Zn91  1  0.65392600  0.80785200  0.54545500  1
  Zn  Zn92  1  0.19433100  0.12354400  0.43375400  1
  Zn  Zn93  1  0.51482300  0.54009500  0.49788000  1
  Zn  Zn94  1  0.04066600  0.98240200  0.49661800  1
  Zn  Zn95  1  0.70615000  0.62551600  0.47438500  1
  Zn  Zn96  1  0.94804600  0.59345900  0.42105300  1
  Zn  Zn97  1  0.34873900  0.89318900  0.51958600  1
  Zn  Zn98  1  0.77031400  0.07080600  0.53016600  1
  Zn  Zn99  1  0.70190500  0.18398200  0.51608400  1
  Zn  Zn100  1  0.79302900  0.07560900  0.59302900  1
  Zn  Zn101  1  0.99652100  0.16337600  0.56786400  1
  Zn  Zn102  1  0.26718600  0.63330300  0.59429100  1
  Zn  Zn103  1  0.91459300  0.21438900  0.46742000  1
  Zn  Zn104  1  0.95911300  0.72251500  0.57132300  1
  Zn  Zn105  1  0.31133100  0.45232800  0.52304500  1
  Zn  Zn106  1  0.54698600  0.98248400  0.49652000  1
  Zn  Zn107  1  0.15392600  0.80785200  0.54545500  1
  Zn  Zn108  1  0.89614600  0.71597900  0.44912200  1
  Zn  Zn109  1  0.21077000  0.62459800  0.47458000  1
  Zn  Zn110  1  0.48196600  0.16552400  0.56769900  1
  Zn  Zn111  1  0.61170600  0.29972500  0.44178700  1
  Zn  Zn112  1  0.82588600  0.45018000  0.52321000  1
  Zn  Zn113  1  0.53753800  0.54489800  0.56074300  1
  Zn  Zn114  1  0.29708200  0.39110600  0.41632900  1
  Zn  Zn115  1  0.09829100  0.79894600  0.42406300  1
  Zn  Zn116  1  0.25392600  0.00785200  0.44545500  1
  Zn  Zn117  1  0.80170200  0.39018800  0.41652500  1
  Zn  Zn118  1  0.55980600  0.42224500  0.46985600  1
  Zn  Zn119  1  0.37192000  0.90012800  0.58074300  1
  Zn  Zn120  1  0.11352100  0.49216000  0.65715600  1
  Zn  Zn121  1  0.20956100  0.81675800  0.66684600  1
  Zn  Zn122  1  0.39325900  0.40131500  0.62348900  1
  Zn  Zn123  1  0.99433100  0.72354400  0.63375400  1
  Zn  Zn124  1  0.50615000  0.22551600  0.67438500  1
  Zn  Zn125  1  0.74804600  0.19345900  0.62105300  1
  Zn  Zn126  1  0.71459300  0.81438900  0.66742000  1
  Zn  Zn127  1  0.69614600  0.31597900  0.64912200  1
  Zn  Zn128  1  0.01077000  0.22459800  0.67458000  1
  Zn  Zn129  1  0.41170600  0.89972500  0.64178700  1
  Zn  Zn130  1  0.09708200  0.99110600  0.61632900  1
  Zn  Zn131  1  0.89829100  0.39894600  0.62406300  1
  Zn  Zn132  1  0.05392600  0.60785200  0.64545500  1
  Zn  Zn133  1  0.60170200  0.99018800  0.61652500  1
  Zn  Zn134  1  0.35980600  0.02224500  0.66985600  1
