# generated using pymatgen
data_Mg17Pd27
_symmetry_space_group_name_H-M   'P 1'
_cell_length_a   4.30853900
_cell_length_b   12.03781485
_cell_length_c   49.04360200
_cell_angle_alpha   91.40300406
_cell_angle_beta   90.00000000
_cell_angle_gamma   90.00000000
_symmetry_Int_Tables_number   1
_chemical_formula_structural   Mg17Pd27
_chemical_formula_sum   'Mg34 Pd54'
_cell_volume   2542.90320535
_cell_formula_units_Z   2
loop_
 _symmetry_equiv_pos_site_id
 _symmetry_equiv_pos_as_xyz
  1  'x, y, z'
loop_
 _atom_site_type_symbol
 _atom_site_label
 _atom_site_symmetry_multiplicity
 _atom_site_fract_x
 _atom_site_fract_y
 _atom_site_fract_z
 _atom_site_occupancy
  Mg  Mg0  1  0.00000000  0.45127700  0.22500000  1
  Mg  Mg1  1  0.00000000  0.95127700  0.22500000  1
  Mg  Mg2  1  0.50000000  0.77353400  0.24513800  1
  Mg  Mg3  1  0.50000000  0.12902000  0.20486200  1
  Mg  Mg4  1  0.50000000  0.20907400  0.27736800  1
  Mg  Mg5  1  0.50000000  0.49348000  0.27263200  1
  Mg  Mg6  1  0.00000000  0.25127700  0.32500000  1
  Mg  Mg7  1  0.00000000  0.75127700  0.32500000  1
  Mg  Mg8  1  0.50000000  0.57353400  0.34513800  1
  Mg  Mg9  1  0.50000000  0.92902000  0.30486200  1
  Mg  Mg10  1  0.50000000  0.00907400  0.37736800  1
  Mg  Mg11  1  0.50000000  0.29348000  0.37263200  1
  Mg  Mg12  1  0.00000000  0.05127700  0.42500000  1
  Mg  Mg13  1  0.00000000  0.55127700  0.42500000  1
  Mg  Mg14  1  0.50000000  0.37353400  0.44513800  1
  Mg  Mg15  1  0.50000000  0.72902000  0.40486200  1
  Mg  Mg16  1  0.50000000  0.80907400  0.47736800  1
  Mg  Mg17  1  0.50000000  0.09348000  0.47263200  1
  Mg  Mg18  1  0.00000000  0.85127700  0.52500000  1
  Mg  Mg19  1  0.00000000  0.35127700  0.52500000  1
  Mg  Mg20  1  0.50000000  0.17353400  0.54513800  1
  Mg  Mg21  1  0.50000000  0.52902000  0.50486200  1
  Mg  Mg22  1  0.50000000  0.60907400  0.57736800  1
  Mg  Mg23  1  0.50000000  0.89348000  0.57263200  1
  Mg  Mg24  1  0.00000000  0.65127700  0.62500000  1
  Mg  Mg25  1  0.00000000  0.15127700  0.62500000  1
  Mg  Mg26  1  0.50000000  0.97353400  0.64513800  1
  Mg  Mg27  1  0.50000000  0.32902000  0.60486200  1
  Mg  Mg28  1  0.50000000  0.40907400  0.67736800  1
  Mg  Mg29  1  0.50000000  0.69348000  0.67263200  1
  Mg  Mg30  1  0.00000000  0.45127700  0.72500000  1
  Mg  Mg31  1  0.00000000  0.95127700  0.72500000  1
  Mg  Mg32  1  0.50000000  0.77353400  0.74513800  1
  Mg  Mg33  1  0.50000000  0.12902000  0.70486200  1
  Pd  Pd34  1  0.50000000  0.57513200  0.21864400  1
  Pd  Pd35  1  0.50000000  0.32742200  0.23135600  1
  Pd  Pd36  1  0.50000000  0.00525000  0.25358500  1
  Pd  Pd37  1  0.50000000  0.69730300  0.29641500  1
  Pd  Pd38  1  0.00000000  0.73391800  0.21176000  1
  Pd  Pd39  1  0.00000000  0.16863600  0.23824000  1
  Pd  Pd40  1  0.00000000  0.07849400  0.28947200  1
  Pd  Pd41  1  1.00000000  0.62406000  0.26052800  1
  Pd  Pd42  1  0.00000000  0.85127700  0.27500000  1
  Pd  Pd43  1  0.00000000  0.35127700  0.27500000  1
  Pd  Pd44  1  0.50000000  0.37513200  0.31864400  1
  Pd  Pd45  1  0.50000000  0.12742200  0.33135600  1
  Pd  Pd46  1  0.50000000  0.80525000  0.35358500  1
  Pd  Pd47  1  0.50000000  0.49730300  0.39641500  1
  Pd  Pd48  1  0.00000000  0.53391800  0.31176000  1
  Pd  Pd49  1  0.00000000  0.96863600  0.33824000  1
  Pd  Pd50  1  0.00000000  0.87849400  0.38947200  1
  Pd  Pd51  1  0.00000000  0.42406000  0.36052800  1
  Pd  Pd52  1  0.00000000  0.65127700  0.37500000  1
  Pd  Pd53  1  0.00000000  0.15127700  0.37500000  1
  Pd  Pd54  1  0.50000000  0.17513200  0.41864400  1
  Pd  Pd55  1  0.50000000  0.92742200  0.43135600  1
  Pd  Pd56  1  0.50000000  0.60525000  0.45358500  1
  Pd  Pd57  1  0.50000000  0.29730300  0.49641500  1
  Pd  Pd58  1  0.00000000  0.33391800  0.41176000  1
  Pd  Pd59  1  0.00000000  0.76863600  0.43824000  1
  Pd  Pd60  1  0.00000000  0.67849400  0.48947200  1
  Pd  Pd61  1  0.00000000  0.22406000  0.46052800  1
  Pd  Pd62  1  0.00000000  0.45127700  0.47500000  1
  Pd  Pd63  1  0.00000000  0.95127700  0.47500000  1
  Pd  Pd64  1  0.50000000  0.97513200  0.51864400  1
  Pd  Pd65  1  0.50000000  0.72742200  0.53135600  1
  Pd  Pd66  1  0.50000000  0.40525000  0.55358500  1
  Pd  Pd67  1  0.50000000  0.09730300  0.59641500  1
  Pd  Pd68  1  0.00000000  0.13391800  0.51176000  1
  Pd  Pd69  1  0.00000000  0.56863600  0.53824000  1
  Pd  Pd70  1  1.00000000  0.47849400  0.58947200  1
  Pd  Pd71  1  0.00000000  0.02406000  0.56052800  1
  Pd  Pd72  1  0.00000000  0.25127700  0.57500000  1
  Pd  Pd73  1  0.00000000  0.75127700  0.57500000  1
  Pd  Pd74  1  0.50000000  0.77513200  0.61864400  1
  Pd  Pd75  1  0.50000000  0.52742200  0.63135600  1
  Pd  Pd76  1  0.50000000  0.20525000  0.65358500  1
  Pd  Pd77  1  0.50000000  0.89730300  0.69641500  1
  Pd  Pd78  1  1.00000000  0.93391800  0.61176000  1
  Pd  Pd79  1  0.00000000  0.36863600  0.63824000  1
  Pd  Pd80  1  0.00000000  0.27849400  0.68947200  1
  Pd  Pd81  1  0.00000000  0.82406000  0.66052800  1
  Pd  Pd82  1  0.00000000  0.05127700  0.67500000  1
  Pd  Pd83  1  0.00000000  0.55127700  0.67500000  1
  Pd  Pd84  1  0.50000000  0.57513200  0.71864400  1
  Pd  Pd85  1  0.50000000  0.32742200  0.73135600  1
  Pd  Pd86  1  0.00000000  0.73391800  0.71176000  1
  Pd  Pd87  1  0.00000000  0.16863600  0.73824000  1
