# generated using pymatgen
data_Ac2Mg
_symmetry_space_group_name_H-M   'P 1'
_cell_length_a   4.13946800
_cell_length_b   4.15035258
_cell_length_c   53.56925500
_cell_angle_alpha   90.26853660
_cell_angle_beta   90.00000000
_cell_angle_gamma   90.00000000
_symmetry_Int_Tables_number   1
_chemical_formula_structural   Ac2Mg
_chemical_formula_sum   'Ac8 Mg4'
_cell_volume   920.32317666
_cell_formula_units_Z   4
loop_
 _symmetry_equiv_pos_site_id
 _symmetry_equiv_pos_as_xyz
  1  'x, y, z'
loop_
 _atom_site_type_symbol
 _atom_site_label
 _atom_site_symmetry_multiplicity
 _atom_site_fract_x
 _atom_site_fract_y
 _atom_site_fract_z
 _atom_site_occupancy
  Ac  Ac0  1  0.50000000  0.74526800  0.64935100  1
  Ac  Ac1  1  0.00000000  0.25473200  0.60064900  1
  Ac  Ac2  1  1.00000000  0.24526800  0.52435100  1
  Ac  Ac3  1  0.50000000  0.75473200  0.72564900  1
  Ac  Ac4  1  0.50000000  0.74526800  0.39935100  1
  Ac  Ac5  1  1.00000000  0.25473200  0.35064900  1
  Ac  Ac6  1  0.00000000  0.24526800  0.27435100  1
  Ac  Ac7  1  0.50000000  0.75473200  0.47564900  1
  Mg  Mg8  1  0.00000000  0.25000000  0.68750000  1
  Mg  Mg9  1  0.50000000  0.75000000  0.56250000  1
  Mg  Mg10  1  0.00000000  0.25000000  0.43750000  1
  Mg  Mg11  1  0.50000000  0.75000000  0.31250000  1
