# generated using pymatgen
data_CeMg2
_symmetry_space_group_name_H-M   'P 1'
_cell_length_a   3.18877500
_cell_length_b   9.04803412
_cell_length_c   41.63705600
_cell_angle_alpha   90.00000000
_cell_angle_beta   90.00000000
_cell_angle_gamma   100.14929201
_symmetry_Int_Tables_number   1
_chemical_formula_structural   CeMg2
_chemical_formula_sum   'Ce10 Mg20'
_cell_volume   1182.52008315
_cell_formula_units_Z   10
loop_
 _symmetry_equiv_pos_site_id
 _symmetry_equiv_pos_as_xyz
  1  'x, y, z'
loop_
 _atom_site_type_symbol
 _atom_site_label
 _atom_site_symmetry_multiplicity
 _atom_site_fract_x
 _atom_site_fract_y
 _atom_site_fract_z
 _atom_site_occupancy
  Ce  Ce0  1  0.53876300  0.07752700  0.21875000  1
  Ce  Ce1  1  0.46123700  0.92247300  0.28125000  1
  Ce  Ce2  1  0.53876300  0.07752700  0.34375000  1
  Ce  Ce3  1  0.46123700  0.92247300  0.40625000  1
  Ce  Ce4  1  0.53876300  0.07752700  0.46875000  1
  Ce  Ce5  1  0.46123700  0.92247300  0.53125000  1
  Ce  Ce6  1  0.53876300  0.07752700  0.59375000  1
  Ce  Ce7  1  0.46123700  0.92247300  0.65625000  1
  Ce  Ce8  1  0.53876300  0.07752700  0.71875000  1
  Ce  Ce9  1  0.46123700  0.92247300  0.78125000  1
  Mg  Mg10  1  0.87440700  0.74881400  0.21875000  1
  Mg  Mg11  1  0.21781300  0.43562600  0.21875000  1
  Mg  Mg12  1  0.78218700  0.56437400  0.28125000  1
  Mg  Mg13  1  0.12559300  0.25118600  0.28125000  1
  Mg  Mg14  1  0.87440700  0.74881400  0.34375000  1
  Mg  Mg15  1  0.21781300  0.43562600  0.34375000  1
  Mg  Mg16  1  0.78218700  0.56437400  0.40625000  1
  Mg  Mg17  1  0.12559300  0.25118600  0.40625000  1
  Mg  Mg18  1  0.87440700  0.74881400  0.46875000  1
  Mg  Mg19  1  0.21781300  0.43562600  0.46875000  1
  Mg  Mg20  1  0.78218700  0.56437400  0.53125000  1
  Mg  Mg21  1  0.12559300  0.25118600  0.53125000  1
  Mg  Mg22  1  0.87440700  0.74881400  0.59375000  1
  Mg  Mg23  1  0.21781300  0.43562600  0.59375000  1
  Mg  Mg24  1  0.78218700  0.56437400  0.65625000  1
  Mg  Mg25  1  0.12559300  0.25118600  0.65625000  1
  Mg  Mg26  1  0.87440700  0.74881400  0.71875000  1
  Mg  Mg27  1  0.21781300  0.43562600  0.71875000  1
  Mg  Mg28  1  0.78218700  0.56437400  0.78125000  1
  Mg  Mg29  1  0.12559300  0.25118600  0.78125000  1
