# generated using pymatgen
data_Er7Mg3
_symmetry_space_group_name_H-M   'P 1'
_cell_length_a   3.65070000
_cell_length_b   5.42669900
_cell_length_c   51.06088300
_cell_angle_alpha   90.00000000
_cell_angle_beta   90.00000000
_cell_angle_gamma   90.00000000
_symmetry_Int_Tables_number   1
_chemical_formula_structural   Er7Mg3
_chemical_formula_sum   'Er14 Mg6'
_cell_volume   1011.57992034
_cell_formula_units_Z   2
loop_
 _symmetry_equiv_pos_site_id
 _symmetry_equiv_pos_as_xyz
  1  'x, y, z'
loop_
 _atom_site_type_symbol
 _atom_site_label
 _atom_site_symmetry_multiplicity
 _atom_site_fract_x
 _atom_site_fract_y
 _atom_site_fract_z
 _atom_site_occupancy
  Er  Er0  1  0.50000000  0.25000000  0.47582700  1
  Er  Er1  1  0.00000000  0.25000000  0.20213400  1
  Er  Er2  1  1.00000000  0.75000000  0.24639500  1
  Er  Er3  1  0.50000000  0.75000000  0.18675500  1
  Er  Er4  1  0.00000000  0.25000000  0.30916000  1
  Er  Er5  1  0.50000000  0.25000000  0.36880000  1
  Er  Er6  1  0.50000000  0.75000000  0.41306200  1
  Er  Er7  1  0.00000000  0.75000000  0.35342200  1
  Er  Er8  1  0.00000000  0.25000000  0.53546700  1
  Er  Er9  1  0.00000000  0.75000000  0.57972900  1
  Er  Er10  1  0.50000000  0.75000000  0.52008900  1
  Er  Er11  1  0.00000000  0.25000000  0.64249400  1
  Er  Er12  1  0.50000000  0.25000000  0.70213400  1
  Er  Er13  1  0.00000000  0.75000000  0.68675500  1
  Mg  Mg14  1  0.50000000  0.25000000  0.25593700  1
  Mg  Mg15  1  0.00000000  0.75000000  0.46628500  1
  Mg  Mg16  1  0.00000000  0.25000000  0.42260400  1
  Mg  Mg17  1  0.50000000  0.75000000  0.29961900  1
  Mg  Mg18  1  0.50000000  0.25000000  0.58927000  1
  Mg  Mg19  1  0.50000000  0.75000000  0.63295200  1
