# generated using pymatgen
data_MgZn
_symmetry_space_group_name_H-M   'P 1'
_cell_length_a   4.61085900
_cell_length_b   5.81071493
_cell_length_c   43.24465400
_cell_angle_alpha   90.49622915
_cell_angle_beta   90.00000000
_cell_angle_gamma   90.00000000
_symmetry_Int_Tables_number   1
_chemical_formula_structural   MgZn
_chemical_formula_sum   'Mg20 Zn20'
_cell_volume   1158.58406150
_cell_formula_units_Z   20
loop_
 _symmetry_equiv_pos_site_id
 _symmetry_equiv_pos_as_xyz
  1  'x, y, z'
loop_
 _atom_site_type_symbol
 _atom_site_label
 _atom_site_symmetry_multiplicity
 _atom_site_fract_x
 _atom_site_fract_y
 _atom_site_fract_z
 _atom_site_occupancy
  Mg  Mg0  1  0.75000000  0.98743100  0.23181200  1
  Mg  Mg1  1  0.25000000  0.70006900  0.20568800  1
  Mg  Mg2  1  0.75000000  0.67493100  0.29431200  1
  Mg  Mg3  1  0.25000000  0.38756900  0.26818800  1
  Mg  Mg4  1  0.75000000  0.36243100  0.35681200  1
  Mg  Mg5  1  0.25000000  0.07506900  0.33068800  1
  Mg  Mg6  1  0.75000000  0.04993100  0.41931200  1
  Mg  Mg7  1  0.25000000  0.76256900  0.39318800  1
  Mg  Mg8  1  0.75000000  0.73743100  0.48181200  1
  Mg  Mg9  1  0.25000000  0.45006900  0.45568800  1
  Mg  Mg10  1  0.75000000  0.42493100  0.54431200  1
  Mg  Mg11  1  0.25000000  0.13756900  0.51818800  1
  Mg  Mg12  1  0.75000000  0.11243100  0.60681200  1
  Mg  Mg13  1  0.25000000  0.82506900  0.58068800  1
  Mg  Mg14  1  0.75000000  0.79993100  0.66931200  1
  Mg  Mg15  1  0.25000000  0.51256900  0.64318800  1
  Mg  Mg16  1  0.75000000  0.48743100  0.73181200  1
  Mg  Mg17  1  0.25000000  0.20006900  0.70568800  1
  Mg  Mg18  1  0.75000000  0.17493100  0.79431200  1
  Mg  Mg19  1  0.25000000  0.88756900  0.76818800  1
  Zn  Zn20  1  0.75000000  0.47567700  0.23074300  1
  Zn  Zn21  1  0.25000000  0.21182300  0.20675700  1
  Zn  Zn22  1  0.75000000  0.16317700  0.29324300  1
  Zn  Zn23  1  0.25000000  0.89932300  0.26925700  1
  Zn  Zn24  1  0.75000000  0.85067700  0.35574300  1
  Zn  Zn25  1  0.25000000  0.58682300  0.33175700  1
  Zn  Zn26  1  0.75000000  0.53817700  0.41824300  1
  Zn  Zn27  1  0.25000000  0.27432300  0.39425700  1
  Zn  Zn28  1  0.75000000  0.22567700  0.48074300  1
  Zn  Zn29  1  0.25000000  0.96182300  0.45675700  1
  Zn  Zn30  1  0.75000000  0.91317700  0.54324300  1
  Zn  Zn31  1  0.25000000  0.64932300  0.51925700  1
  Zn  Zn32  1  0.75000000  0.60067700  0.60574300  1
  Zn  Zn33  1  0.25000000  0.33682300  0.58175700  1
  Zn  Zn34  1  0.75000000  0.28817700  0.66824300  1
  Zn  Zn35  1  0.25000000  0.02432300  0.64425700  1
  Zn  Zn36  1  0.75000000  0.97567700  0.73074300  1
  Zn  Zn37  1  0.25000000  0.71182300  0.70675700  1
  Zn  Zn38  1  0.75000000  0.66317700  0.79324300  1
  Zn  Zn39  1  0.25000000  0.39932300  0.76925700  1
