# generated using pymatgen
data_Mg16Tl7
_symmetry_space_group_name_H-M   'P 1'
_cell_length_a   6.32911714
_cell_length_b   8.77491562
_cell_length_c   45.19527000
_cell_angle_alpha   85.33535441
_cell_angle_beta   85.98488022
_cell_angle_gamma   68.86068493
_symmetry_Int_Tables_number   1
_chemical_formula_structural   Mg16Tl7
_chemical_formula_sum   'Mg32 Tl14'
_cell_volume   2331.13079959
_cell_formula_units_Z   2
loop_
 _symmetry_equiv_pos_site_id
 _symmetry_equiv_pos_as_xyz
  1  'x, y, z'
loop_
 _atom_site_type_symbol
 _atom_site_label
 _atom_site_symmetry_multiplicity
 _atom_site_fract_x
 _atom_site_fract_y
 _atom_site_fract_z
 _atom_site_occupancy
  Mg  Mg0  1  0.85238500  0.56567200  0.72955900  1
  Mg  Mg1  1  0.92481800  0.91868100  0.73168300  1
  Mg  Mg2  1  0.72308100  0.28853200  0.76530600  1
  Mg  Mg3  1  0.49801100  0.29869000  0.70528800  1
  Mg  Mg4  1  0.95092000  0.43996300  0.65819600  1
  Mg  Mg5  1  0.87848700  0.08695500  0.65607200  1
  Mg  Mg6  1  0.37848700  0.08695500  0.65607200  1
  Mg  Mg7  1  0.42481800  0.91868100  0.73168300  1
  Mg  Mg8  1  0.30529300  0.70694600  0.68246800  1
  Mg  Mg9  1  0.22308100  0.28853200  0.76530600  1
  Mg  Mg10  1  0.70952700  0.99424400  0.58670200  1
  Mg  Mg11  1  0.78196100  0.34725200  0.58882600  1
  Mg  Mg12  1  0.58022400  0.71710300  0.62244900  1
  Mg  Mg13  1  0.35515400  0.72726100  0.56243000  1
  Mg  Mg14  1  0.80806300  0.86853500  0.51533900  1
  Mg  Mg15  1  0.73563000  0.51552600  0.51321500  1
  Mg  Mg16  1  0.23563000  0.51552600  0.51321500  1
  Mg  Mg17  1  0.28196100  0.34725200  0.58882600  1
  Mg  Mg18  1  0.16243600  0.13551700  0.53961000  1
  Mg  Mg19  1  0.08022400  0.71710300  0.62244900  1
  Mg  Mg20  1  0.56667000  0.42281500  0.44384400  1
  Mg  Mg21  1  0.63910400  0.77582400  0.44596900  1
  Mg  Mg22  1  0.43736700  0.14567500  0.47959200  1
  Mg  Mg23  1  0.21229700  0.15583300  0.41957300  1
  Mg  Mg24  1  0.66520600  0.29710600  0.37248200  1
  Mg  Mg25  1  0.59277200  0.94409800  0.37035800  1
  Mg  Mg26  1  0.09277200  0.94409800  0.37035800  1
  Mg  Mg27  1  0.13910400  0.77582400  0.44596900  1
  Mg  Mg28  1  0.01957900  0.56408800  0.39675300  1
  Mg  Mg29  1  0.93736700  0.14567500  0.47959200  1
  Mg  Mg30  1  0.29450900  0.57424600  0.33673500  1
  Mg  Mg31  1  0.79450900  0.57424600  0.33673500  1
  Tl  Tl32  1  0.03988700  0.20994300  0.71028200  1
  Tl  Tl33  1  0.33103500  0.59283900  0.74509100  1
  Tl  Tl34  1  0.61512700  0.98422600  0.78552100  1
  Tl  Tl35  1  0.76341700  0.79569200  0.67747300  1
  Tl  Tl36  1  0.89703000  0.63851500  0.56742500  1
  Tl  Tl37  1  0.18817800  0.02141000  0.60223400  1
  Tl  Tl38  1  0.47226900  0.41279700  0.64266400  1
  Tl  Tl39  1  0.62056000  0.22426300  0.53461600  1
  Tl  Tl40  1  0.75417300  0.06708600  0.42456800  1
  Tl  Tl41  1  0.04532100  0.44998100  0.45937600  1
  Tl  Tl42  1  0.32941200  0.84136800  0.49980700  1
  Tl  Tl43  1  0.47770300  0.65283500  0.39175900  1
  Tl  Tl44  1  0.90246400  0.87855300  0.31651900  1
  Tl  Tl45  1  0.18655500  0.26994000  0.35695000  1
