# generated using pymatgen
data_Nd2Mg
_symmetry_space_group_name_H-M   'P 1'
_cell_length_a   5.67409700
_cell_length_b   8.93304483
_cell_length_c   41.30115800
_cell_angle_alpha   89.76705242
_cell_angle_beta   90.00000000
_cell_angle_gamma   90.00000000
_symmetry_Int_Tables_number   1
_chemical_formula_structural   Nd2Mg
_chemical_formula_sum   'Nd28 Mg14'
_cell_volume   2093.41296024
_cell_formula_units_Z   14
loop_
 _symmetry_equiv_pos_site_id
 _symmetry_equiv_pos_as_xyz
  1  'x, y, z'
loop_
 _atom_site_type_symbol
 _atom_site_label
 _atom_site_symmetry_multiplicity
 _atom_site_fract_x
 _atom_site_fract_y
 _atom_site_fract_z
 _atom_site_occupancy
  Nd  Nd0  1  0.25000000  0.30256200  0.76481300  1
  Nd  Nd1  1  0.25000000  0.69439300  0.79377400  1
  Nd  Nd2  1  0.75000000  0.97016500  0.78064100  1
  Nd  Nd3  1  0.75000000  0.57833500  0.75168100  1
  Nd  Nd4  1  0.25000000  0.21165300  0.67390400  1
  Nd  Nd5  1  0.25000000  0.60348300  0.70286400  1
  Nd  Nd6  1  0.75000000  0.87925600  0.68973200  1
  Nd  Nd7  1  0.75000000  0.48742600  0.66077200  1
  Nd  Nd8  1  0.25000000  0.12074400  0.58299500  1
  Nd  Nd9  1  0.25000000  0.51257400  0.61195500  1
  Nd  Nd10  1  0.75000000  0.78834700  0.59882300  1
  Nd  Nd11  1  0.75000000  0.39651700  0.56986300  1
  Nd  Nd12  1  0.25000000  0.02983500  0.49208600  1
  Nd  Nd13  1  0.25000000  0.42166500  0.52104600  1
  Nd  Nd14  1  0.75000000  0.69743800  0.50791400  1
  Nd  Nd15  1  0.75000000  0.30560700  0.47895400  1
  Nd  Nd16  1  0.25000000  0.93892600  0.40117700  1
  Nd  Nd17  1  0.25000000  0.33075600  0.43013700  1
  Nd  Nd18  1  0.75000000  0.60652900  0.41700500  1
  Nd  Nd19  1  0.75000000  0.21469800  0.38804500  1
  Nd  Nd20  1  0.25000000  0.84801700  0.31026800  1
  Nd  Nd21  1  0.25000000  0.23984700  0.33922800  1
  Nd  Nd22  1  0.75000000  0.51561900  0.32609600  1
  Nd  Nd23  1  0.75000000  0.12378900  0.29713600  1
  Nd  Nd24  1  0.25000000  0.75710800  0.21935900  1
  Nd  Nd25  1  0.25000000  0.14893800  0.24831900  1
  Nd  Nd26  1  0.75000000  0.42471000  0.23518700  1
  Nd  Nd27  1  0.75000000  0.03288000  0.20622600  1
  Mg  Mg28  1  0.25000000  0.95645500  0.73367500  1
  Mg  Mg29  1  0.75000000  0.31627200  0.81177900  1
  Mg  Mg30  1  0.25000000  0.86554600  0.64276600  1
  Mg  Mg31  1  0.75000000  0.22536300  0.72087000  1
  Mg  Mg32  1  0.25000000  0.77463700  0.55185700  1
  Mg  Mg33  1  0.75000000  0.13445400  0.62996100  1
  Mg  Mg34  1  0.25000000  0.68372800  0.46094800  1
  Mg  Mg35  1  0.75000000  0.04354500  0.53905200  1
  Mg  Mg36  1  0.25000000  0.59281900  0.37003900  1
  Mg  Mg37  1  0.75000000  0.95263600  0.44814300  1
  Mg  Mg38  1  0.25000000  0.50191000  0.27913000  1
  Mg  Mg39  1  0.75000000  0.86172700  0.35723400  1
  Mg  Mg40  1  0.25000000  0.41100100  0.18822100  1
  Mg  Mg41  1  0.75000000  0.77081700  0.26632500  1
