# generated using pymatgen
data_Mg2Ir3
_symmetry_space_group_name_H-M   'P 1'
_cell_length_a   5.24707500
_cell_length_b   21.51305055
_cell_length_c   52.37228200
_cell_angle_alpha   80.49835411
_cell_angle_beta   90.00000000
_cell_angle_gamma   90.00000000
_symmetry_Int_Tables_number   1
_chemical_formula_structural   Mg2Ir3
_chemical_formula_sum   'Mg80 Ir120'
_cell_volume   5830.70907253
_cell_formula_units_Z   40
loop_
 _symmetry_equiv_pos_site_id
 _symmetry_equiv_pos_as_xyz
  1  'x, y, z'
loop_
 _atom_site_type_symbol
 _atom_site_label
 _atom_site_symmetry_multiplicity
 _atom_site_fract_x
 _atom_site_fract_y
 _atom_site_fract_z
 _atom_site_occupancy
  Mg  Mg0  1  0.50000000  0.90659300  0.34074300  1
  Mg  Mg1  1  0.00000000  0.73626400  0.23068500  1
  Mg  Mg2  1  0.00000000  0.67058600  0.33030400  1
  Mg  Mg3  1  0.50000000  0.97227200  0.24112400  1
  Mg  Mg4  1  0.50000000  0.86429300  0.28781900  1
  Mg  Mg5  1  1.00000000  0.77856400  0.28361000  1
  Mg  Mg6  1  0.50000000  0.04024100  0.33222700  1
  Mg  Mg7  1  0.00000000  0.60261600  0.23920200  1
  Mg  Mg8  1  0.50000000  0.52782100  0.22107500  1
  Mg  Mg9  1  0.00000000  0.11503600  0.35035300  1
  Mg  Mg10  1  0.00000000  0.33516400  0.26931500  1
  Mg  Mg11  1  0.50000000  0.30769300  0.30211400  1
  Mg  Mg12  1  0.50000000  0.09915700  0.25887600  1
  Mg  Mg13  1  0.00000000  0.54370000  0.31255300  1
  Mg  Mg14  1  1.00000000  0.29286500  0.21639000  1
  Mg  Mg15  1  0.50000000  0.34999300  0.35503800  1
  Mg  Mg16  1  0.00000000  0.46881200  0.26079800  1
  Mg  Mg17  1  0.50000000  0.17404500  0.31063000  1
  Mg  Mg18  1  0.00000000  0.09925000  0.29250400  1
  Mg  Mg19  1  0.50000000  0.54360700  0.27892500  1
  Mg  Mg20  1  0.50000000  0.04945000  0.48360000  1
  Mg  Mg21  1  0.00000000  0.87912100  0.37354300  1
  Mg  Mg22  1  0.00000000  0.81344300  0.47316100  1
  Mg  Mg23  1  0.50000000  0.11512900  0.38398200  1
  Mg  Mg24  1  0.50000000  0.00715000  0.43067600  1
  Mg  Mg25  1  0.00000000  0.92142100  0.42646700  1
  Mg  Mg26  1  0.50000000  0.18309800  0.47508400  1
  Mg  Mg27  1  0.00000000  0.74547400  0.38205900  1
  Mg  Mg28  1  0.50000000  0.67067800  0.36393200  1
  Mg  Mg29  1  0.00000000  0.25789300  0.49321100  1
  Mg  Mg30  1  0.00000000  0.47802200  0.41217200  1
  Mg  Mg31  1  0.50000000  0.45055000  0.44497100  1
  Mg  Mg32  1  0.50000000  0.24201400  0.40173300  1
  Mg  Mg33  1  1.00000000  0.68655700  0.45541000  1
  Mg  Mg34  1  0.00000000  0.43572200  0.35924700  1
  Mg  Mg35  1  0.50000000  0.49285000  0.49789500  1
  Mg  Mg36  1  0.00000000  0.61166900  0.40365500  1
  Mg  Mg37  1  0.50000000  0.31690200  0.45348700  1
  Mg  Mg38  1  0.00000000  0.24210700  0.43536100  1
  Mg  Mg39  1  0.50000000  0.68646400  0.42178200  1
  Mg  Mg40  1  0.50000000  0.19230700  0.62645700  1
  Mg  Mg41  1  0.00000000  0.02197800  0.51640000  1
  Mg  Mg42  1  0.00000000  0.95630000  0.61601800  1
  Mg  Mg43  1  0.50000000  0.25798600  0.52683900  1
  Mg  Mg44  1  0.50000000  0.15000700  0.57353300  1
  Mg  Mg45  1  0.00000000  0.06427800  0.56932400  1
  Mg  Mg46  1  0.50000000  0.32595500  0.61794100  1
  Mg  Mg47  1  0.00000000  0.88833100  0.52491600  1
  Mg  Mg48  1  0.50000000  0.81353600  0.50678900  1
  Mg  Mg49  1  1.00000000  0.40075000  0.63606800  1
  Mg  Mg50  1  0.00000000  0.62087900  0.55502900  1
  Mg  Mg51  1  0.50000000  0.59340700  0.58782800  1
  Mg  Mg52  1  0.50000000  0.38487100  0.54459000  1
  Mg  Mg53  1  0.00000000  0.82941400  0.59826700  1
  Mg  Mg54  1  0.00000000  0.57857900  0.50210500  1
  Mg  Mg55  1  0.50000000  0.63570700  0.64075300  1
  Mg  Mg56  1  0.00000000  0.75452600  0.54651300  1
  Mg  Mg57  1  0.50000000  0.45975900  0.59634500  1
  Mg  Mg58  1  0.00000000  0.38496400  0.57821800  1
  Mg  Mg59  1  0.50000000  0.82932200  0.56463900  1
  Mg  Mg60  1  0.50000000  0.33516400  0.76931500  1
  Mg  Mg61  1  1.00000000  0.16483600  0.65925700  1
  Mg  Mg62  1  0.00000000  0.09915700  0.75887600  1
  Mg  Mg63  1  0.50000000  0.40084300  0.66969600  1
  Mg  Mg64  1  0.50000000  0.29286500  0.71639000  1
  Mg  Mg65  1  0.00000000  0.20713500  0.71218100  1
  Mg  Mg66  1  0.50000000  0.46881200  0.76079800  1
  Mg  Mg67  1  0.00000000  0.03118800  0.66777300  1
  Mg  Mg68  1  0.50000000  0.95639300  0.64964700  1
  Mg  Mg69  1  0.00000000  0.54360700  0.77892500  1
  Mg  Mg70  1  0.00000000  0.76373600  0.69788600  1
  Mg  Mg71  1  0.50000000  0.73626400  0.73068500  1
  Mg  Mg72  1  0.50000000  0.52772800  0.68744700  1
  Mg  Mg73  1  0.00000000  0.97227200  0.74112400  1
  Mg  Mg74  1  0.00000000  0.72143600  0.64496200  1
  Mg  Mg75  1  0.50000000  0.77856400  0.78361000  1
  Mg  Mg76  1  0.00000000  0.89738400  0.68937000  1
  Mg  Mg77  1  0.50000000  0.60261600  0.73920200  1
  Mg  Mg78  1  0.00000000  0.52782100  0.72107500  1
  Mg  Mg79  1  0.50000000  0.97217900  0.70749600  1
  Ir  Ir80  1  0.00000000  0.99070700  0.33611400  1
  Ir  Ir81  1  0.50000000  0.65215000  0.23531400  1
  Ir  Ir82  1  0.24951300  0.78973300  0.33607500  1
  Ir  Ir83  1  0.25048700  0.85312400  0.23535300  1
  Ir  Ir84  1  0.74951300  0.85312400  0.23535300  1
  Ir  Ir85  1  0.75048700  0.78973300  0.33607500  1
  Ir  Ir86  1  0.00000000  0.03571400  0.25000000  1
  Ir  Ir87  1  0.50000000  0.75753700  0.25585900  1
  Ir  Ir88  1  1.00000000  0.88532000  0.31557000  1
  Ir  Ir89  1  0.50000000  0.72829800  0.30675500  1
  Ir  Ir90  1  0.00000000  0.91455900  0.26467300  1
  Ir  Ir91  1  0.26606200  0.98707000  0.29212300  1
  Ir  Ir92  1  0.23393800  0.65578800  0.27930600  1
  Ir  Ir93  1  0.76606200  0.65578800  0.27930600  1
  Ir  Ir94  1  0.73393800  0.98707000  0.29212300  1
  Ir  Ir95  1  0.50000000  0.41927900  0.26468600  1
  Ir  Ir96  1  0.00000000  0.22357900  0.30674300  1
  Ir  Ir97  1  0.74951300  0.21830500  0.26464700  1
  Ir  Ir98  1  0.75048700  0.42455200  0.30678200  1
  Ir  Ir99  1  0.24951300  0.42455200  0.30678200  1
  Ir  Ir100  1  0.25048700  0.21830500  0.26464700  1
  Ir  Ir101  1  0.50000000  0.60714300  0.32142900  1
  Ir  Ir102  1  0.00000000  0.32896600  0.32728800  1
  Ir  Ir103  1  0.50000000  0.31389200  0.24414100  1
  Ir  Ir104  1  0.00000000  0.15686900  0.23532700  1
  Ir  Ir105  1  0.50000000  0.48598800  0.33610200  1
  Ir  Ir106  1  0.76606200  0.41564100  0.22069400  1
  Ir  Ir107  1  0.73393800  0.22721600  0.35073400  1
  Ir  Ir108  1  0.26606200  0.22721600  0.35073400  1
  Ir  Ir109  1  0.23393800  0.41564100  0.22069400  1
  Ir  Ir110  1  1.00000000  0.13356400  0.47897200  1
  Ir  Ir111  1  0.50000000  0.79500700  0.37817100  1
  Ir  Ir112  1  0.24951300  0.93259100  0.47893300  1
  Ir  Ir113  1  0.25048700  0.99598100  0.37821000  1
  Ir  Ir114  1  0.74951300  0.99598100  0.37821000  1
  Ir  Ir115  1  0.75048700  0.93259100  0.47893300  1
  Ir  Ir116  1  0.00000000  0.17857100  0.39285700  1
  Ir  Ir117  1  0.50000000  0.90039400  0.39871600  1
  Ir  Ir118  1  0.00000000  0.02817700  0.45842700  1
  Ir  Ir119  1  0.50000000  0.87115500  0.44961200  1
  Ir  Ir120  1  0.00000000  0.05741600  0.40753000  1
  Ir  Ir121  1  0.26606200  0.12992700  0.43498000  1
  Ir  Ir122  1  0.23393800  0.79864500  0.42216300  1
  Ir  Ir123  1  0.76606200  0.79864500  0.42216300  1
  Ir  Ir124  1  0.73393800  0.12992700  0.43498000  1
  Ir  Ir125  1  0.50000000  0.56213600  0.40754300  1
  Ir  Ir126  1  1.00000000  0.36643600  0.44960000  1
  Ir  Ir127  1  0.74951300  0.36116200  0.40750400  1
  Ir  Ir128  1  0.75048700  0.56740900  0.44963900  1
  Ir  Ir129  1  0.24951300  0.56740900  0.44963900  1
  Ir  Ir130  1  0.25048700  0.36116200  0.40750400  1
  Ir  Ir131  1  0.50000000  0.75000000  0.46428600  1
  Ir  Ir132  1  1.00000000  0.47182300  0.47014500  1
  Ir  Ir133  1  0.50000000  0.45674900  0.38699800  1
  Ir  Ir134  1  0.00000000  0.29972600  0.37818400  1
  Ir  Ir135  1  0.50000000  0.62884500  0.47895900  1
  Ir  Ir136  1  0.76606200  0.55849800  0.36355200  1
  Ir  Ir137  1  0.73393800  0.37007300  0.49359100  1
  Ir  Ir138  1  0.26606200  0.37007300  0.49359100  1
  Ir  Ir139  1  0.23393800  0.55849800  0.36355200  1
  Ir  Ir140  1  0.00000000  0.27642100  0.62182900  1
  Ir  Ir141  1  0.50000000  0.93786400  0.52102800  1
  Ir  Ir142  1  0.24951300  0.07544800  0.62179000  1
  Ir  Ir143  1  0.25048700  0.13883800  0.52106700  1
  Ir  Ir144  1  0.74951300  0.13883800  0.52106700  1
  Ir  Ir145  1  0.75048700  0.07544800  0.62179000  1
  Ir  Ir146  1  1.00000000  0.32142900  0.53571400  1
  Ir  Ir147  1  0.50000000  0.04325100  0.54157300  1
  Ir  Ir148  1  0.00000000  0.17103400  0.60128400  1
  Ir  Ir149  1  0.50000000  0.01401200  0.59247000  1
  Ir  Ir150  1  0.00000000  0.20027400  0.55038800  1
  Ir  Ir151  1  0.26606200  0.27278400  0.57783700  1
  Ir  Ir152  1  0.23393800  0.94150200  0.56502000  1
  Ir  Ir153  1  0.76606200  0.94150200  0.56502000  1
  Ir  Ir154  1  0.73393800  0.27278400  0.57783700  1
  Ir  Ir155  1  0.50000000  0.70499300  0.55040000  1
  Ir  Ir156  1  0.00000000  0.50929300  0.59245700  1
  Ir  Ir157  1  0.74951300  0.50401900  0.55036100  1
  Ir  Ir158  1  0.75048700  0.71026700  0.59249600  1
  Ir  Ir159  1  0.24951300  0.71026700  0.59249600  1
  Ir  Ir160  1  0.25048700  0.50401900  0.55036100  1
  Ir  Ir161  1  0.50000000  0.89285700  0.60714300  1
  Ir  Ir162  1  0.00000000  0.61468000  0.61300200  1
  Ir  Ir163  1  0.50000000  0.59960600  0.52985500  1
  Ir  Ir164  1  0.00000000  0.44258400  0.52104100  1
  Ir  Ir165  1  0.50000000  0.77170200  0.62181600  1
  Ir  Ir166  1  0.76606200  0.70135500  0.50640900  1
  Ir  Ir167  1  0.73393800  0.51293000  0.63644800  1
  Ir  Ir168  1  0.26606200  0.51293000  0.63644800  1
  Ir  Ir169  1  0.23393800  0.70135500  0.50640900  1
  Ir  Ir170  1  0.00000000  0.41927900  0.76468600  1
  Ir  Ir171  1  0.50000000  0.08072100  0.66388600  1
  Ir  Ir172  1  0.24951300  0.21830500  0.76464700  1
  Ir  Ir173  1  0.25048700  0.28169500  0.66392500  1
  Ir  Ir174  1  0.74951300  0.28169500  0.66392500  1
  Ir  Ir175  1  0.75048700  0.21830500  0.76464700  1
  Ir  Ir176  1  0.00000000  0.46428600  0.67857100  1
  Ir  Ir177  1  0.50000000  0.18610800  0.68443000  1
  Ir  Ir178  1  0.00000000  0.31389200  0.74414100  1
  Ir  Ir179  1  0.50000000  0.15686900  0.73532700  1
  Ir  Ir180  1  0.00000000  0.34313100  0.69324500  1
  Ir  Ir181  1  0.26606200  0.41564100  0.72069400  1
  Ir  Ir182  1  0.23393800  0.08435900  0.70787700  1
  Ir  Ir183  1  0.76606200  0.08435900  0.70787700  1
  Ir  Ir184  1  0.73393800  0.41564100  0.72069400  1
  Ir  Ir185  1  0.50000000  0.84785000  0.69325700  1
  Ir  Ir186  1  1.00000000  0.65215000  0.73531400  1
  Ir  Ir187  1  0.74951300  0.64687600  0.69321800  1
  Ir  Ir188  1  0.75048700  0.85312400  0.73535300  1
  Ir  Ir189  1  0.24951300  0.85312400  0.73535300  1
  Ir  Ir190  1  0.25048700  0.64687600  0.69321800  1
  Ir  Ir191  1  0.50000000  0.03571400  0.75000000  1
  Ir  Ir192  1  0.00000000  0.75753700  0.75585900  1
  Ir  Ir193  1  0.50000000  0.74246300  0.67271200  1
  Ir  Ir194  1  0.00000000  0.58544100  0.66389800  1
  Ir  Ir195  1  0.50000000  0.91455900  0.76467300  1
  Ir  Ir196  1  0.76606200  0.84421200  0.64926600  1
  Ir  Ir197  1  0.73393800  0.65578800  0.77930600  1
  Ir  Ir198  1  0.26606200  0.65578800  0.77930600  1
  Ir  Ir199  1  0.23393800  0.84421200  0.64926600  1
