# generated using pymatgen
data_Ca3Mg10
_symmetry_space_group_name_H-M   'P 1'
_cell_length_a   6.85063189
_cell_length_b   8.66046516
_cell_length_c   43.61539000
_cell_angle_alpha   92.92720358
_cell_angle_beta   94.50433414
_cell_angle_gamma   66.70210760
_symmetry_Int_Tables_number   1
_chemical_formula_structural   Ca3Mg10
_chemical_formula_sum   'Ca12 Mg40'
_cell_volume   2368.78240900
_cell_formula_units_Z   4
loop_
 _symmetry_equiv_pos_site_id
 _symmetry_equiv_pos_as_xyz
  1  'x, y, z'
loop_
 _atom_site_type_symbol
 _atom_site_label
 _atom_site_symmetry_multiplicity
 _atom_site_fract_x
 _atom_site_fract_y
 _atom_site_fract_z
 _atom_site_occupancy
  Ca  Ca0  1  0.12285600  0.85952700  0.28787900  1
  Ca  Ca1  1  0.42588600  0.26861800  0.30303000  1
  Ca  Ca2  1  0.94103800  0.31407300  0.37878800  1
  Ca  Ca3  1  0.24406800  0.72316400  0.39393900  1
  Ca  Ca4  1  0.75921900  0.76861800  0.46969700  1
  Ca  Ca5  1  0.06225000  0.17770900  0.48484800  1
  Ca  Ca6  1  0.57740100  0.22316400  0.56060600  1
  Ca  Ca7  1  0.88043100  0.63225500  0.57575800  1
  Ca  Ca8  1  0.39558300  0.67770900  0.65151500  1
  Ca  Ca9  1  0.69861300  0.08680000  0.66666700  1
  Ca  Ca10  1  0.21376500  0.13225500  0.74242400  1
  Ca  Ca11  1  0.51679500  0.54134600  0.75757600  1
  Mg  Mg12  1  0.20280800  0.13554200  0.24187600  1
  Mg  Mg13  1  0.72088700  0.13554200  0.24187600  1
  Mg  Mg14  1  0.00967300  0.53805900  0.25812400  1
  Mg  Mg15  1  0.52775200  0.53805900  0.25812400  1
  Mg  Mg16  1  0.02099000  0.59008700  0.33278500  1
  Mg  Mg17  1  0.62669100  0.85295300  0.28897400  1
  Mg  Mg18  1  0.53906900  0.59008700  0.33278500  1
  Mg  Mg19  1  0.82785500  0.99260400  0.34903300  1
  Mg  Mg20  1  0.34593400  0.99260400  0.34903300  1
  Mg  Mg21  1  0.92205100  0.27519300  0.30193500  1
  Mg  Mg22  1  0.83917100  0.04463300  0.42369500  1
  Mg  Mg23  1  0.44487200  0.30749900  0.37988400  1
  Mg  Mg24  1  0.35725100  0.04463300  0.42369500  1
  Mg  Mg25  1  0.64603700  0.44714900  0.43994200  1
  Mg  Mg26  1  0.16411600  0.44714900  0.43994200  1
  Mg  Mg27  1  0.74023300  0.72973800  0.39284400  1
  Mg  Mg28  1  0.65735300  0.49917800  0.51460400  1
  Mg  Mg29  1  0.26305400  0.76204400  0.47079300  1
  Mg  Mg30  1  0.17543200  0.49917800  0.51460400  1
  Mg  Mg31  1  0.46421800  0.90169500  0.53085100  1
  Mg  Mg32  1  0.98229800  0.90169500  0.53085100  1
  Mg  Mg33  1  0.55841500  0.18428400  0.48375300  1
  Mg  Mg34  1  0.47553500  0.95372400  0.60551300  1
  Mg  Mg35  1  0.08123600  0.21659000  0.56170200  1
  Mg  Mg36  1  0.99361400  0.95372400  0.60551300  1
  Mg  Mg37  1  0.28240000  0.35624000  0.62176000  1
  Mg  Mg38  1  0.80047900  0.35624000  0.62176000  1
  Mg  Mg39  1  0.37659600  0.63882900  0.57466200  1
  Mg  Mg40  1  0.29371700  0.40826900  0.69642200  1
  Mg  Mg41  1  0.89941800  0.67113500  0.65261100  1
  Mg  Mg42  1  0.81179600  0.40826900  0.69642200  1
  Mg  Mg43  1  0.10058200  0.81078600  0.71266900  1
  Mg  Mg44  1  0.61866100  0.81078600  0.71266900  1
  Mg  Mg45  1  0.19477800  0.09337400  0.66557100  1
  Mg  Mg46  1  0.11189900  0.86281500  0.78733100  1
  Mg  Mg47  1  0.71760000  0.12568000  0.74352000  1
  Mg  Mg48  1  0.62997800  0.86281500  0.78733100  1
  Mg  Mg49  1  0.91876400  0.26533100  0.80357800  1
  Mg  Mg50  1  0.43684300  0.26533100  0.80357800  1
  Mg  Mg51  1  0.01296000  0.54792000  0.75648000  1
