# generated using pymatgen
data_Mg37Ir54
_symmetry_space_group_name_H-M   'P 1'
_cell_length_a   5.24707500
_cell_length_b   21.51305055
_cell_length_c   52.37228200
_cell_angle_alpha   80.49835411
_cell_angle_beta   90.00000000
_cell_angle_gamma   90.00000000
_symmetry_Int_Tables_number   1
_chemical_formula_structural   Mg37Ir54
_chemical_formula_sum   'Mg74 Ir108'
_cell_volume   5830.70907253
_cell_formula_units_Z   2
loop_
 _symmetry_equiv_pos_site_id
 _symmetry_equiv_pos_as_xyz
  1  'x, y, z'
loop_
 _atom_site_type_symbol
 _atom_site_label
 _atom_site_symmetry_multiplicity
 _atom_site_fract_x
 _atom_site_fract_y
 _atom_site_fract_z
 _atom_site_occupancy
  Mg  Mg0  1  0.00000000  0.69356400  0.35601800  1
  Mg  Mg1  1  0.50000000  0.99525000  0.26683900  1
  Mg  Mg2  1  0.50000000  0.88727200  0.31353300  1
  Mg  Mg3  1  0.00000000  0.80154200  0.30932400  1
  Mg  Mg4  1  0.50000000  0.06321900  0.35794100  1
  Mg  Mg5  1  0.00000000  0.62559500  0.26491600  1
  Mg  Mg6  1  0.00000000  0.35814300  0.29502900  1
  Mg  Mg7  1  0.50000000  0.33067100  0.32782800  1
  Mg  Mg8  1  0.50000000  0.12213600  0.28459000  1
  Mg  Mg9  1  0.00000000  0.56667900  0.33826700  1
  Mg  Mg10  1  0.00000000  0.49179100  0.28651300  1
  Mg  Mg11  1  0.50000000  0.19702400  0.33634500  1
  Mg  Mg12  1  0.00000000  0.12222800  0.31821800  1
  Mg  Mg13  1  0.50000000  0.56658600  0.30463900  1
  Mg  Mg14  1  0.50000000  0.92957200  0.36645700  1
  Mg  Mg15  1  0.00000000  0.90210000  0.39925700  1
  Mg  Mg16  1  0.00000000  0.83642100  0.49887600  1
  Mg  Mg17  1  0.50000000  0.13810700  0.40969600  1
  Mg  Mg18  1  0.50000000  0.03012900  0.45639000  1
  Mg  Mg19  1  0.00000000  0.94440000  0.45218100  1
  Mg  Mg20  1  0.50000000  0.20607600  0.50079800  1
  Mg  Mg21  1  1.00000000  0.76845200  0.40777300  1
  Mg  Mg22  1  0.50000000  0.69365700  0.38964700  1
  Mg  Mg23  1  1.00000000  0.13801400  0.37606800  1
  Mg  Mg24  1  1.00000000  0.50100000  0.43788600  1
  Mg  Mg25  1  0.50000000  0.47352800  0.47068500  1
  Mg  Mg26  1  0.50000000  0.26499300  0.42744700  1
  Mg  Mg27  1  0.00000000  0.70953600  0.48112400  1
  Mg  Mg28  1  0.00000000  0.45870000  0.38496200  1
  Mg  Mg29  1  0.50000000  0.37297100  0.38075300  1
  Mg  Mg30  1  0.00000000  0.63464800  0.42937000  1
  Mg  Mg31  1  0.50000000  0.33988100  0.47920200  1
  Mg  Mg32  1  0.00000000  0.26508600  0.46107500  1
  Mg  Mg33  1  0.50000000  0.70944300  0.44749600  1
  Mg  Mg34  1  0.50000000  0.07242900  0.50931500  1
  Mg  Mg35  1  1.00000000  0.04495700  0.54211400  1
  Mg  Mg36  1  1.00000000  0.97927800  0.64173300  1
  Mg  Mg37  1  0.50000000  0.28096400  0.55255300  1
  Mg  Mg38  1  0.50000000  0.17298600  0.59924700  1
  Mg  Mg39  1  0.00000000  0.08725700  0.59503800  1
  Mg  Mg40  1  0.50000000  0.34893400  0.64365500  1
  Mg  Mg41  1  0.00000000  0.91130900  0.55063000  1
  Mg  Mg42  1  0.50000000  0.83651400  0.53250400  1
  Mg  Mg43  1  0.00000000  0.28087200  0.51892500  1
  Mg  Mg44  1  0.00000000  0.64385700  0.58074300  1
  Mg  Mg45  1  0.50000000  0.61638500  0.61354300  1
  Mg  Mg46  1  0.50000000  0.40785000  0.57030400  1
  Mg  Mg47  1  0.00000000  0.85239300  0.62398200  1
  Mg  Mg48  1  0.00000000  0.60155700  0.52781900  1
  Mg  Mg49  1  0.50000000  0.51582800  0.52361000  1
  Mg  Mg50  1  0.00000000  0.77750500  0.57222700  1
  Mg  Mg51  1  0.50000000  0.48273800  0.62205900  1
  Mg  Mg52  1  0.00000000  0.40794300  0.60393200  1
  Mg  Mg53  1  0.50000000  0.85230000  0.59035300  1
  Mg  Mg54  1  0.50000000  0.21528600  0.65217200  1
  Mg  Mg55  1  0.00000000  0.18781400  0.68497100  1
  Mg  Mg56  1  0.00000000  0.12213600  0.78459000  1
  Mg  Mg57  1  0.50000000  0.42382200  0.69541000  1
  Mg  Mg58  1  0.50000000  0.31584300  0.74210500  1
  Mg  Mg59  1  0.00000000  0.23011400  0.73789500  1
  Mg  Mg60  1  0.50000000  0.49179100  0.78651300  1
  Mg  Mg61  1  1.00000000  0.05416600  0.69348700  1
  Mg  Mg62  1  0.50000000  0.97937100  0.67536100  1
  Mg  Mg63  1  0.00000000  0.42372900  0.66178200  1
  Mg  Mg64  1  0.00000000  0.78671400  0.72360000  1
  Mg  Mg65  1  0.50000000  0.75924300  0.75640000  1
  Mg  Mg66  1  0.50000000  0.55070700  0.71316100  1
  Mg  Mg67  1  0.00000000  0.99525000  0.76683900  1
  Mg  Mg68  1  0.00000000  0.74441500  0.67067600  1
  Mg  Mg69  1  0.50000000  0.65868500  0.66646700  1
  Mg  Mg70  1  0.00000000  0.92036200  0.71508400  1
  Mg  Mg71  1  0.50000000  0.62559500  0.76491600  1
  Mg  Mg72  1  0.00000000  0.55080000  0.74678900  1
  Mg  Mg73  1  0.50000000  0.99515700  0.73321100  1
  Ir  Ir74  1  0.00000000  0.05869300  0.27571400  1
  Ir  Ir75  1  0.50000000  0.78051600  0.28157300  1
  Ir  Ir76  1  0.00000000  0.90829900  0.34128400  1
  Ir  Ir77  1  0.50000000  0.75127600  0.33247000  1
  Ir  Ir78  1  1.00000000  0.93753800  0.29038800  1
  Ir  Ir79  1  0.26606200  0.01004800  0.31783700  1
  Ir  Ir80  1  0.23393800  0.67876600  0.30502000  1
  Ir  Ir81  1  0.76606200  0.67876600  0.30502000  1
  Ir  Ir82  1  0.73393800  0.01004800  0.31783700  1
  Ir  Ir83  1  0.50000000  0.44225700  0.29040000  1
  Ir  Ir84  1  0.00000000  0.24655700  0.33245700  1
  Ir  Ir85  1  0.74951300  0.24128300  0.29036100  1
  Ir  Ir86  1  0.75048700  0.44753100  0.33249600  1
  Ir  Ir87  1  0.24951300  0.44753100  0.33249600  1
  Ir  Ir88  1  0.25048700  0.24128300  0.29036100  1
  Ir  Ir89  1  0.50000000  0.63012100  0.34714300  1
  Ir  Ir90  1  0.00000000  0.35194400  0.35300200  1
  Ir  Ir91  1  0.50000000  0.33687000  0.26985500  1
  Ir  Ir92  1  0.00000000  0.01368600  0.36182900  1
  Ir  Ir93  1  0.50000000  0.81798600  0.40388600  1
  Ir  Ir94  1  0.24951300  0.81271200  0.36179000  1
  Ir  Ir95  1  0.25048700  0.01895900  0.40392500  1
  Ir  Ir96  1  0.74951300  0.01895900  0.40392500  1
  Ir  Ir97  1  0.75048700  0.81271200  0.36179000  1
  Ir  Ir98  1  1.00000000  0.20155000  0.41857100  1
  Ir  Ir99  1  0.50000000  0.92337300  0.42443000  1
  Ir  Ir100  1  0.00000000  0.05115600  0.48414100  1
  Ir  Ir101  1  0.50000000  0.89413400  0.47532700  1
  Ir  Ir102  1  1.00000000  0.08039500  0.43324500  1
  Ir  Ir103  1  0.26606200  0.15290500  0.46069400  1
  Ir  Ir104  1  0.23393800  0.82162300  0.44787700  1
  Ir  Ir105  1  0.76606200  0.82162300  0.44787700  1
  Ir  Ir106  1  0.73393800  0.15290500  0.46069400  1
  Ir  Ir107  1  0.50000000  0.58511400  0.43325700  1
  Ir  Ir108  1  0.00000000  0.38941400  0.47531400  1
  Ir  Ir109  1  0.74951300  0.38414100  0.43321800  1
  Ir  Ir110  1  0.75048700  0.59038800  0.47535300  1
  Ir  Ir111  1  0.24951300  0.59038800  0.47535300  1
  Ir  Ir112  1  0.25048700  0.38414100  0.43321800  1
  Ir  Ir113  1  0.50000000  0.77297900  0.49000000  1
  Ir  Ir114  1  0.00000000  0.49480100  0.49585900  1
  Ir  Ir115  1  0.50000000  0.47972700  0.41271200  1
  Ir  Ir116  1  1.00000000  0.32270500  0.40389800  1
  Ir  Ir117  1  0.50000000  0.50896600  0.36181600  1
  Ir  Ir118  1  0.76606200  0.58147700  0.38926600  1
  Ir  Ir119  1  0.73393800  0.25019500  0.37644800  1
  Ir  Ir120  1  0.26606200  0.25019500  0.37644800  1
  Ir  Ir121  1  0.23393800  0.58147700  0.38926600  1
  Ir  Ir122  1  0.00000000  0.15654300  0.50468600  1
  Ir  Ir123  1  0.50000000  0.96084300  0.54674300  1
  Ir  Ir124  1  0.24951300  0.95556900  0.50464700  1
  Ir  Ir125  1  0.25048700  0.16181700  0.54678200  1
  Ir  Ir126  1  0.74951300  0.16181700  0.54678200  1
  Ir  Ir127  1  0.75048700  0.95556900  0.50464700  1
  Ir  Ir128  1  0.00000000  0.34440700  0.56142900  1
  Ir  Ir129  1  0.50000000  0.06623000  0.56728800  1
  Ir  Ir130  1  0.00000000  0.19401300  0.62699800  1
  Ir  Ir131  1  0.50000000  0.03699100  0.61818400  1
  Ir  Ir132  1  0.00000000  0.22325200  0.57610200  1
  Ir  Ir133  1  0.26606200  0.29576200  0.60355200  1
  Ir  Ir134  1  0.23393800  0.96448000  0.59073400  1
  Ir  Ir135  1  0.76606200  0.96448000  0.59073400  1
  Ir  Ir136  1  0.73393800  0.29576200  0.60355200  1
  Ir  Ir137  1  0.50000000  0.72797100  0.57611400  1
  Ir  Ir138  1  0.00000000  0.53227100  0.61817100  1
  Ir  Ir139  1  0.74951300  0.52699800  0.57607500  1
  Ir  Ir140  1  0.75048700  0.73324500  0.61821000  1
  Ir  Ir141  1  0.24951300  0.73324500  0.61821000  1
  Ir  Ir142  1  0.25048700  0.52699800  0.57607500  1
  Ir  Ir143  1  0.50000000  0.91583600  0.63285700  1
  Ir  Ir144  1  0.00000000  0.63765800  0.63871600  1
  Ir  Ir145  1  0.50000000  0.62258400  0.55557000  1
  Ir  Ir146  1  0.00000000  0.46556200  0.54675500  1
  Ir  Ir147  1  0.50000000  0.65182300  0.50467300  1
  Ir  Ir148  1  0.76606200  0.72433400  0.53212300  1
  Ir  Ir149  1  0.73393800  0.39305200  0.51930600  1
  Ir  Ir150  1  0.26606200  0.39305200  0.51930600  1
  Ir  Ir151  1  0.23393800  0.72433400  0.53212300  1
  Ir  Ir152  1  0.00000000  0.29940000  0.64754300  1
  Ir  Ir153  1  0.50000000  0.10370000  0.68960000  1
  Ir  Ir154  1  0.24951300  0.09842600  0.64750400  1
  Ir  Ir155  1  0.25048700  0.30467400  0.68963900  1
  Ir  Ir156  1  0.74951300  0.30467400  0.68963900  1
  Ir  Ir157  1  0.75048700  0.09842600  0.64750400  1
  Ir  Ir158  1  0.00000000  0.48726400  0.70428600  1
  Ir  Ir159  1  0.50000000  0.20908700  0.71014500  1
  Ir  Ir160  1  0.00000000  0.33687000  0.76985500  1
  Ir  Ir161  1  0.50000000  0.17984800  0.76104100  1
  Ir  Ir162  1  0.00000000  0.36610900  0.71895900  1
  Ir  Ir163  1  0.26606200  0.43862000  0.74640900  1
  Ir  Ir164  1  0.23393800  0.10733700  0.73359100  1
  Ir  Ir165  1  0.76606200  0.10733700  0.73359100  1
  Ir  Ir166  1  0.73393800  0.43862000  0.74640900  1
  Ir  Ir167  1  0.50000000  0.87082900  0.71897200  1
  Ir  Ir168  1  0.00000000  0.67512800  0.76102800  1
  Ir  Ir169  1  0.74951300  0.66985500  0.71893300  1
  Ir  Ir170  1  0.75048700  0.87610200  0.76106700  1
  Ir  Ir171  1  0.24951300  0.87610200  0.76106700  1
  Ir  Ir172  1  0.25048700  0.66985500  0.71893300  1
  Ir  Ir173  1  0.50000000  0.05869300  0.77571400  1
  Ir  Ir174  1  0.00000000  0.78051600  0.78157300  1
  Ir  Ir175  1  0.50000000  0.76544100  0.69842700  1
  Ir  Ir176  1  1.00000000  0.60841900  0.68961200  1
  Ir  Ir177  1  0.50000000  0.79468100  0.64753000  1
  Ir  Ir178  1  0.76606200  0.86719100  0.67498000  1
  Ir  Ir179  1  0.73393800  0.53590900  0.66216300  1
  Ir  Ir180  1  0.26606200  0.53590900  0.66216300  1
  Ir  Ir181  1  0.23393800  0.86719100  0.67498000  1
