# generated using pymatgen
data_MgB4
_symmetry_space_group_name_H-M   'P 1'
_cell_length_a   4.39738600
_cell_length_b   5.48489200
_cell_length_c   51.99078400
_cell_angle_alpha   90.00000000
_cell_angle_beta   90.00000000
_cell_angle_gamma   90.00000000
_symmetry_Int_Tables_number   1
_chemical_formula_structural   MgB4
_chemical_formula_sum   'Mg14 B56'
_cell_volume   1253.97545677
_cell_formula_units_Z   14
loop_
 _symmetry_equiv_pos_site_id
 _symmetry_equiv_pos_as_xyz
  1  'x, y, z'
loop_
 _atom_site_type_symbol
 _atom_site_label
 _atom_site_symmetry_multiplicity
 _atom_site_fract_x
 _atom_site_fract_y
 _atom_site_fract_z
 _atom_site_occupancy
  Mg  Mg0  1  0.75000000  0.45432300  0.26968400  1
  Mg  Mg1  1  0.25000000  0.54567700  0.23031600  1
  Mg  Mg2  1  0.75000000  0.95432300  0.30174500  1
  Mg  Mg3  1  0.25000000  0.04567700  0.34111200  1
  Mg  Mg4  1  0.75000000  0.45432300  0.41254100  1
  Mg  Mg5  1  0.25000000  0.54567700  0.37317300  1
  Mg  Mg6  1  0.75000000  0.95432300  0.44460200  1
  Mg  Mg7  1  0.25000000  0.04567700  0.48396900  1
  Mg  Mg8  1  0.75000000  0.45432300  0.55539800  1
  Mg  Mg9  1  0.25000000  0.54567700  0.51603100  1
  Mg  Mg10  1  0.75000000  0.95432300  0.58745900  1
  Mg  Mg11  1  0.25000000  0.04567700  0.62682700  1
  Mg  Mg12  1  0.75000000  0.45432300  0.69825500  1
  Mg  Mg13  1  0.25000000  0.54567700  0.65888800  1
  B  B14  1  0.75000000  0.77761600  0.34338400  1
  B  B15  1  0.25000000  0.22238400  0.29947300  1
  B  B16  1  0.75000000  0.27761600  0.22804400  1
  B  B17  1  0.25000000  0.72238400  0.27195600  1
  B  B18  1  0.75000000  0.94662700  0.22900800  1
  B  B19  1  0.25000000  0.05337300  0.27099200  1
  B  B20  1  0.75000000  0.44662700  0.34242000  1
  B  B21  1  0.25000000  0.55337300  0.30043700  1
  B  B22  1  0.94199500  0.36767100  0.31239700  1
  B  B23  1  0.44199500  0.63232900  0.33046000  1
  B  B24  1  0.55800500  0.86767100  0.25903100  1
  B  B25  1  0.05800500  0.13232900  0.24096900  1
  B  B26  1  0.05800500  0.63232900  0.33046000  1
  B  B27  1  0.55800500  0.36767100  0.31239700  1
  B  B28  1  0.44199500  0.13232900  0.24096900  1
  B  B29  1  0.94199500  0.86767100  0.25903100  1
  B  B30  1  0.75000000  0.77761600  0.48624100  1
  B  B31  1  0.25000000  0.22238400  0.44233000  1
  B  B32  1  0.75000000  0.27761600  0.37090200  1
  B  B33  1  0.25000000  0.72238400  0.41481300  1
  B  B34  1  0.75000000  0.94662700  0.37186600  1
  B  B35  1  0.25000000  0.05337300  0.41384900  1
  B  B36  1  0.75000000  0.44662700  0.48527700  1
  B  B37  1  0.25000000  0.55337300  0.44329400  1
  B  B38  1  0.94199500  0.36767100  0.45525400  1
  B  B39  1  0.44199500  0.63232900  0.47331700  1
  B  B40  1  0.55800500  0.86767100  0.40188900  1
  B  B41  1  0.05800500  0.13232900  0.38382600  1
  B  B42  1  0.05800500  0.63232900  0.47331700  1
  B  B43  1  0.55800500  0.36767100  0.45525400  1
  B  B44  1  0.44199500  0.13232900  0.38382600  1
  B  B45  1  0.94199500  0.86767100  0.40188900  1
  B  B46  1  0.75000000  0.77761600  0.62909800  1
  B  B47  1  0.25000000  0.22238400  0.58518700  1
  B  B48  1  0.75000000  0.27761600  0.51375900  1
  B  B49  1  0.25000000  0.72238400  0.55767000  1
  B  B50  1  0.75000000  0.94662700  0.51472300  1
  B  B51  1  0.25000000  0.05337300  0.55670600  1
  B  B52  1  0.75000000  0.44662700  0.62813400  1
  B  B53  1  0.25000000  0.55337300  0.58615100  1
  B  B54  1  0.94199500  0.36767100  0.59811100  1
  B  B55  1  0.44199500  0.63232900  0.61617400  1
  B  B56  1  0.55800500  0.86767100  0.54474600  1
  B  B57  1  0.05800500  0.13232900  0.52668300  1
  B  B58  1  0.05800500  0.63232900  0.61617400  1
  B  B59  1  0.55800500  0.36767100  0.59811100  1
  B  B60  1  0.44199500  0.13232900  0.52668300  1
  B  B61  1  0.94199500  0.86767100  0.54474600  1
  B  B62  1  0.75000000  0.27761600  0.65661600  1
  B  B63  1  0.25000000  0.72238400  0.70052700  1
  B  B64  1  0.75000000  0.94662700  0.65758000  1
  B  B65  1  0.25000000  0.05337300  0.69956300  1
  B  B66  1  0.55800500  0.86767100  0.68760300  1
  B  B67  1  0.05800500  0.13232900  0.66954000  1
  B  B68  1  0.44199500  0.13232900  0.66954000  1
  B  B69  1  0.94199500  0.86767100  0.68760300  1
