# generated using pymatgen
data_Mg8Ga21
_symmetry_space_group_name_H-M   'P 1'
_cell_length_a   7.14992847
_cell_length_b   7.14992865
_cell_length_c   43.98030700
_cell_angle_alpha   88.65072652
_cell_angle_beta   88.65072649
_cell_angle_gamma   76.00064847
_symmetry_Int_Tables_number   1
_chemical_formula_structural   Mg8Ga21
_chemical_formula_sum   'Mg16 Ga42'
_cell_volume   2180.58501334
_cell_formula_units_Z   2
loop_
 _symmetry_equiv_pos_site_id
 _symmetry_equiv_pos_as_xyz
  1  'x, y, z'
loop_
 _atom_site_type_symbol
 _atom_site_label
 _atom_site_symmetry_multiplicity
 _atom_site_fract_x
 _atom_site_fract_y
 _atom_site_fract_z
 _atom_site_occupancy
  Mg  Mg0  1  0.28378600  0.88183400  0.77844900  1
  Mg  Mg1  1  0.88183400  0.28378600  0.77844900  1
  Mg  Mg2  1  0.65756600  0.25561500  0.70369300  1
  Mg  Mg3  1  0.25561500  0.65756600  0.70369300  1
  Mg  Mg4  1  0.90878600  0.50683400  0.65344900  1
  Mg  Mg5  1  0.50683400  0.90878600  0.65344900  1
  Mg  Mg6  1  0.28256600  0.88061500  0.57869300  1
  Mg  Mg7  1  0.88061500  0.28256600  0.57869300  1
  Mg  Mg8  1  0.53378600  0.13183400  0.52844900  1
  Mg  Mg9  1  0.13183400  0.53378600  0.52844900  1
  Mg  Mg10  1  0.90756600  0.50561500  0.45369300  1
  Mg  Mg11  1  0.50561500  0.90756600  0.45369300  1
  Mg  Mg12  1  0.15878600  0.75683400  0.40344900  1
  Mg  Mg13  1  0.75683400  0.15878600  0.40344900  1
  Mg  Mg14  1  0.53256600  0.13061500  0.32869300  1
  Mg  Mg15  1  0.13061500  0.53256600  0.32869300  1
  Ga  Ga16  1  0.54288100  0.13480100  0.76411800  1
  Ga  Ga17  1  0.02381600  0.02381600  0.72712300  1
  Ga  Ga18  1  0.65386600  0.65386600  0.80111300  1
  Ga  Ga19  1  0.13480100  0.54288100  0.76411800  1
  Ga  Ga20  1  0.66042500  0.66042500  0.70464600  1
  Ga  Ga21  1  0.87897500  0.87897500  0.77749600  1
  Ga  Ga22  1  0.51558500  0.51558500  0.75502000  1
  Ga  Ga23  1  0.99652000  0.40460000  0.71802500  1
  Ga  Ga24  1  0.40460000  0.99652000  0.71802500  1
  Ga  Ga25  1  0.26053500  0.26053500  0.80603000  1
  Ga  Ga26  1  0.16788100  0.75980100  0.63911800  1
  Ga  Ga27  1  0.64881600  0.64881600  0.60212300  1
  Ga  Ga28  1  0.27886600  0.27886600  0.67611300  1
  Ga  Ga29  1  0.75980100  0.16788100  0.63911800  1
  Ga  Ga30  1  0.28542500  0.28542500  0.57964600  1
  Ga  Ga31  1  0.50397500  0.50397500  0.65249600  1
  Ga  Ga32  1  0.14058500  0.14058500  0.63002000  1
  Ga  Ga33  1  0.62152000  0.02960000  0.59302500  1
  Ga  Ga34  1  0.02960000  0.62152000  0.59302500  1
  Ga  Ga35  1  0.88553500  0.88553500  0.68103000  1
  Ga  Ga36  1  0.79288100  0.38480100  0.51411800  1
  Ga  Ga37  1  0.27381600  0.27381600  0.47712300  1
  Ga  Ga38  1  0.90386600  0.90386600  0.55111300  1
  Ga  Ga39  1  0.38480100  0.79288100  0.51411800  1
  Ga  Ga40  1  0.91042500  0.91042500  0.45464600  1
  Ga  Ga41  1  0.12897500  0.12897500  0.52749600  1
  Ga  Ga42  1  0.76558500  0.76558500  0.50502000  1
  Ga  Ga43  1  0.24652000  0.65460000  0.46802500  1
  Ga  Ga44  1  0.65460000  0.24652000  0.46802500  1
  Ga  Ga45  1  0.51053500  0.51053500  0.55603000  1
  Ga  Ga46  1  0.41788100  0.00980100  0.38911800  1
  Ga  Ga47  1  0.89881600  0.89881600  0.35212300  1
  Ga  Ga48  1  0.52886600  0.52886600  0.42611300  1
  Ga  Ga49  1  0.00980100  0.41788100  0.38911800  1
  Ga  Ga50  1  0.53542500  0.53542500  0.32964600  1
  Ga  Ga51  1  0.75397500  0.75397500  0.40249600  1
  Ga  Ga52  1  0.39058500  0.39058500  0.38002000  1
  Ga  Ga53  1  0.87152000  0.27960000  0.34302500  1
  Ga  Ga54  1  0.27960000  0.87152000  0.34302500  1
  Ga  Ga55  1  0.13553500  0.13553500  0.43103000  1
  Ga  Ga56  1  0.15386600  0.15386600  0.30111300  1
  Ga  Ga57  1  0.76053500  0.76053500  0.30603000  1
