# generated using pymatgen
data_Nd3Mg34
_symmetry_space_group_name_H-M   'P 1'
_cell_length_a   11.87579713
_cell_length_b   11.87579691
_cell_length_c   45.96386800
_cell_angle_alpha   89.91479299
_cell_angle_beta   90.08520701
_cell_angle_gamma   104.43494196
_symmetry_Int_Tables_number   1
_chemical_formula_structural   Nd3Mg34
_chemical_formula_sum   'Nd12 Mg136'
_cell_volume   6277.83876326
_cell_formula_units_Z   4
loop_
 _symmetry_equiv_pos_site_id
 _symmetry_equiv_pos_as_xyz
  1  'x, y, z'
loop_
 _atom_site_type_symbol
 _atom_site_label
 _atom_site_symmetry_multiplicity
 _atom_site_fract_x
 _atom_site_fract_y
 _atom_site_fract_z
 _atom_site_occupancy
  Nd  Nd0  1  0.16391800  0.83608200  0.29038500  1
  Nd  Nd1  1  0.56391800  0.43608200  0.24038500  1
  Nd  Nd2  1  0.36391800  0.63608200  0.39038500  1
  Nd  Nd3  1  0.76391800  0.23608200  0.34038500  1
  Nd  Nd4  1  0.56391800  0.43608200  0.49038500  1
  Nd  Nd5  1  0.96391800  0.03608200  0.44038500  1
  Nd  Nd6  1  0.76391800  0.23608200  0.59038500  1
  Nd  Nd7  1  0.16391800  0.83608200  0.54038500  1
  Nd  Nd8  1  0.96391800  0.03608200  0.69038500  1
  Nd  Nd9  1  0.36391800  0.63608200  0.64038500  1
  Nd  Nd10  1  0.16391800  0.83608200  0.79038500  1
  Nd  Nd11  1  0.56391800  0.43608200  0.74038500  1
  Mg  Mg12  1  0.09352900  0.55452700  0.25519000  1
  Mg  Mg13  1  0.04547300  0.30647100  0.30519000  1
  Mg  Mg14  1  0.28236300  0.36569300  0.27557900  1
  Mg  Mg15  1  0.83412800  0.37863400  0.26910800  1
  Mg  Mg16  1  0.03430700  0.31763700  0.22557900  1
  Mg  Mg17  1  0.10647100  0.10629100  0.26166100  1
  Mg  Mg18  1  0.86391800  0.13608200  0.26538500  1
  Mg  Mg19  1  0.36391800  0.13608200  0.26538500  1
  Mg  Mg20  1  0.89370900  0.89352900  0.26166100  1
  Mg  Mg21  1  0.69352900  0.95452700  0.30519000  1
  Mg  Mg22  1  0.44547300  0.90647100  0.25519000  1
  Mg  Mg23  1  0.68236300  0.96569300  0.22557900  1
  Mg  Mg24  1  0.62136600  0.16587200  0.26910800  1
  Mg  Mg25  1  0.86391800  0.63608200  0.26538500  1
  Mg  Mg26  1  0.36391800  0.63608200  0.26538500  1
  Mg  Mg27  1  0.63430700  0.71763700  0.27557900  1
  Mg  Mg28  1  0.49370900  0.29352900  0.31166100  1
  Mg  Mg29  1  0.29352900  0.35452700  0.35519000  1
  Mg  Mg30  1  0.24547300  0.10647100  0.40519000  1
  Mg  Mg31  1  0.48236300  0.16569300  0.37557900  1
  Mg  Mg32  1  0.22136600  0.56587200  0.31910800  1
  Mg  Mg33  1  0.46391800  0.03608200  0.31538500  1
  Mg  Mg34  1  0.03412800  0.17863400  0.36910800  1
  Mg  Mg35  1  0.96391800  0.03608200  0.31538500  1
  Mg  Mg36  1  0.23430700  0.11763700  0.32557900  1
  Mg  Mg37  1  0.30647100  0.90629100  0.36166100  1
  Mg  Mg38  1  0.06391800  0.93608200  0.36538500  1
  Mg  Mg39  1  0.56391800  0.93608200  0.36538500  1
  Mg  Mg40  1  0.09370900  0.69352900  0.36166100  1
  Mg  Mg41  1  0.89352900  0.75452700  0.40519000  1
  Mg  Mg42  1  0.64547300  0.70647100  0.35519000  1
  Mg  Mg43  1  0.88236300  0.76569300  0.32557900  1
  Mg  Mg44  1  0.82136600  0.96587200  0.36910800  1
  Mg  Mg45  1  0.06391800  0.43608200  0.36538500  1
  Mg  Mg46  1  0.43412800  0.77863400  0.31910800  1
  Mg  Mg47  1  0.56391800  0.43608200  0.36538500  1
  Mg  Mg48  1  0.83430700  0.51763700  0.37557900  1
  Mg  Mg49  1  0.70647100  0.50629100  0.31166100  1
  Mg  Mg50  1  0.46391800  0.53608200  0.31538500  1
  Mg  Mg51  1  0.96391800  0.53608200  0.31538500  1
  Mg  Mg52  1  0.69370900  0.09352900  0.41166100  1
  Mg  Mg53  1  0.49352900  0.15452700  0.45519000  1
  Mg  Mg54  1  0.44547300  0.90647100  0.50519000  1
  Mg  Mg55  1  0.68236300  0.96569300  0.47557900  1
  Mg  Mg56  1  0.42136600  0.36587200  0.41910800  1
  Mg  Mg57  1  0.66391800  0.83608200  0.41538500  1
  Mg  Mg58  1  0.23412800  0.97863400  0.46910800  1
  Mg  Mg59  1  0.16391800  0.83608200  0.41538500  1
  Mg  Mg60  1  0.43430700  0.91763700  0.42557900  1
  Mg  Mg61  1  0.50647100  0.70629100  0.46166100  1
  Mg  Mg62  1  0.26391800  0.73608200  0.46538500  1
  Mg  Mg63  1  0.76391800  0.73608200  0.46538500  1
  Mg  Mg64  1  0.29370900  0.49352900  0.46166100  1
  Mg  Mg65  1  0.09352900  0.55452700  0.50519000  1
  Mg  Mg66  1  0.84547300  0.50647100  0.45519000  1
  Mg  Mg67  1  0.08236300  0.56569300  0.42557900  1
  Mg  Mg68  1  0.02136600  0.76587200  0.46910800  1
  Mg  Mg69  1  0.26391800  0.23608200  0.46538500  1
  Mg  Mg70  1  0.63412800  0.57863400  0.41910800  1
  Mg  Mg71  1  0.76391800  0.23608200  0.46538500  1
  Mg  Mg72  1  0.03430700  0.31763700  0.47557900  1
  Mg  Mg73  1  0.90647100  0.30629100  0.41166100  1
  Mg  Mg74  1  0.66391800  0.33608200  0.41538500  1
  Mg  Mg75  1  0.16391800  0.33608200  0.41538500  1
  Mg  Mg76  1  0.89370900  0.89352900  0.51166100  1
  Mg  Mg77  1  0.69352900  0.95452700  0.55519000  1
  Mg  Mg78  1  0.64547300  0.70647100  0.60519000  1
  Mg  Mg79  1  0.88236300  0.76569300  0.57557900  1
  Mg  Mg80  1  0.62136600  0.16587200  0.51910800  1
  Mg  Mg81  1  0.86391800  0.63608200  0.51538500  1
  Mg  Mg82  1  0.43412800  0.77863400  0.56910800  1
  Mg  Mg83  1  0.36391800  0.63608200  0.51538500  1
  Mg  Mg84  1  0.63430700  0.71763700  0.52557900  1
  Mg  Mg85  1  0.70647100  0.50629100  0.56166100  1
  Mg  Mg86  1  0.46391800  0.53608200  0.56538500  1
  Mg  Mg87  1  0.96391800  0.53608200  0.56538500  1
  Mg  Mg88  1  0.49370900  0.29352900  0.56166100  1
  Mg  Mg89  1  0.29352900  0.35452700  0.60519000  1
  Mg  Mg90  1  0.04547300  0.30647100  0.55519000  1
  Mg  Mg91  1  0.28236300  0.36569300  0.52557900  1
  Mg  Mg92  1  0.22136600  0.56587200  0.56910800  1
  Mg  Mg93  1  0.46391800  0.03608200  0.56538500  1
  Mg  Mg94  1  0.83412800  0.37863400  0.51910800  1
  Mg  Mg95  1  0.96391800  0.03608200  0.56538500  1
  Mg  Mg96  1  0.23430700  0.11763700  0.57557900  1
  Mg  Mg97  1  0.10647100  0.10629100  0.51166100  1
  Mg  Mg98  1  0.86391800  0.13608200  0.51538500  1
  Mg  Mg99  1  0.36391800  0.13608200  0.51538500  1
  Mg  Mg100  1  0.09370900  0.69352900  0.61166100  1
  Mg  Mg101  1  0.89352900  0.75452700  0.65519000  1
  Mg  Mg102  1  0.84547300  0.50647100  0.70519000  1
  Mg  Mg103  1  0.08236300  0.56569300  0.67557900  1
  Mg  Mg104  1  0.82136600  0.96587200  0.61910800  1
  Mg  Mg105  1  0.06391800  0.43608200  0.61538500  1
  Mg  Mg106  1  0.63412800  0.57863400  0.66910800  1
  Mg  Mg107  1  0.56391800  0.43608200  0.61538500  1
  Mg  Mg108  1  0.83430700  0.51763700  0.62557900  1
  Mg  Mg109  1  0.90647100  0.30629100  0.66166100  1
  Mg  Mg110  1  0.66391800  0.33608200  0.66538500  1
  Mg  Mg111  1  0.16391800  0.33608200  0.66538500  1
  Mg  Mg112  1  0.69370900  0.09352900  0.66166100  1
  Mg  Mg113  1  0.49352900  0.15452700  0.70519000  1
  Mg  Mg114  1  0.24547300  0.10647100  0.65519000  1
  Mg  Mg115  1  0.48236300  0.16569300  0.62557900  1
  Mg  Mg116  1  0.42136600  0.36587200  0.66910800  1
  Mg  Mg117  1  0.66391800  0.83608200  0.66538500  1
  Mg  Mg118  1  0.03412800  0.17863400  0.61910800  1
  Mg  Mg119  1  0.16391800  0.83608200  0.66538500  1
  Mg  Mg120  1  0.43430700  0.91763700  0.67557900  1
  Mg  Mg121  1  0.30647100  0.90629100  0.61166100  1
  Mg  Mg122  1  0.06391800  0.93608200  0.61538500  1
  Mg  Mg123  1  0.56391800  0.93608200  0.61538500  1
  Mg  Mg124  1  0.29370900  0.49352900  0.71166100  1
  Mg  Mg125  1  0.09352900  0.55452700  0.75519000  1
  Mg  Mg126  1  0.04547300  0.30647100  0.80519000  1
  Mg  Mg127  1  0.28236300  0.36569300  0.77557900  1
  Mg  Mg128  1  0.02136600  0.76587200  0.71910800  1
  Mg  Mg129  1  0.26391800  0.23608200  0.71538500  1
  Mg  Mg130  1  0.83412800  0.37863400  0.76910800  1
  Mg  Mg131  1  0.76391800  0.23608200  0.71538500  1
  Mg  Mg132  1  0.03430700  0.31763700  0.72557900  1
  Mg  Mg133  1  0.10647100  0.10629100  0.76166100  1
  Mg  Mg134  1  0.86391800  0.13608200  0.76538500  1
  Mg  Mg135  1  0.36391800  0.13608200  0.76538500  1
  Mg  Mg136  1  0.89370900  0.89352900  0.76166100  1
  Mg  Mg137  1  0.69352900  0.95452700  0.80519000  1
  Mg  Mg138  1  0.44547300  0.90647100  0.75519000  1
  Mg  Mg139  1  0.68236300  0.96569300  0.72557900  1
  Mg  Mg140  1  0.62136600  0.16587200  0.76910800  1
  Mg  Mg141  1  0.86391800  0.63608200  0.76538500  1
  Mg  Mg142  1  0.23412800  0.97863400  0.71910800  1
  Mg  Mg143  1  0.36391800  0.63608200  0.76538500  1
  Mg  Mg144  1  0.63430700  0.71763700  0.77557900  1
  Mg  Mg145  1  0.50647100  0.70629100  0.71166100  1
  Mg  Mg146  1  0.26391800  0.73608200  0.71538500  1
  Mg  Mg147  1  0.76391800  0.73608200  0.71538500  1
