# generated using pymatgen
data_Ba15Mg121
_symmetry_space_group_name_H-M   'P 1'
_cell_length_a   18.31901762
_cell_length_b   18.93828385
_cell_length_c   41.24323200
_cell_angle_alpha   80.05199511
_cell_angle_beta   77.16846902
_cell_angle_gamma   61.07591055
_symmetry_Int_Tables_number   1
_chemical_formula_structural   Ba15Mg121
_chemical_formula_sum   'Ba30 Mg242'
_cell_volume   12175.11810506
_cell_formula_units_Z   2
loop_
 _symmetry_equiv_pos_site_id
 _symmetry_equiv_pos_as_xyz
  1  'x, y, z'
loop_
 _atom_site_type_symbol
 _atom_site_label
 _atom_site_symmetry_multiplicity
 _atom_site_fract_x
 _atom_site_fract_y
 _atom_site_fract_z
 _atom_site_occupancy
  Ba  Ba0  1  0.33981400  0.92192100  0.26470900  1
  Ba  Ba1  1  0.17678100  0.20722800  0.30546700  1
  Ba  Ba2  1  0.50648000  0.21358800  0.30637500  1
  Ba  Ba3  1  0.84344800  0.62389400  0.22213300  1
  Ba  Ba4  1  0.17314700  0.63025500  0.22304200  1
  Ba  Ba5  1  0.01011500  0.91556100  0.26380000  1
  Ba  Ba6  1  0.83981400  0.79692100  0.38970900  1
  Ba  Ba7  1  0.67678100  0.08222800  0.43046700  1
  Ba  Ba8  1  0.00648000  0.08858800  0.43137500  1
  Ba  Ba9  1  0.34344800  0.49889400  0.34713300  1
  Ba  Ba10  1  0.67314700  0.50525500  0.34804200  1
  Ba  Ba11  1  0.51011500  0.79056100  0.38880000  1
  Ba  Ba12  1  0.33981400  0.67192100  0.51470900  1
  Ba  Ba13  1  0.17678100  0.95722800  0.55546700  1
  Ba  Ba14  1  0.50648000  0.96358800  0.55637500  1
  Ba  Ba15  1  0.84344800  0.37389400  0.47213300  1
  Ba  Ba16  1  0.17314700  0.38025500  0.47304200  1
  Ba  Ba17  1  0.01011500  0.66556100  0.51380000  1
  Ba  Ba18  1  0.83981400  0.54692100  0.63970900  1
  Ba  Ba19  1  0.67678100  0.83222800  0.68046700  1
  Ba  Ba20  1  0.00648000  0.83858800  0.68137500  1
  Ba  Ba21  1  0.34344800  0.24889400  0.59713300  1
  Ba  Ba22  1  0.67314700  0.25525500  0.59804200  1
  Ba  Ba23  1  0.51011500  0.54056100  0.63880000  1
  Ba  Ba24  1  0.33981400  0.42192100  0.76470900  1
  Ba  Ba25  1  0.17678100  0.70722800  0.80546700  1
  Ba  Ba26  1  0.50648000  0.71358800  0.80637500  1
  Ba  Ba27  1  0.84344800  0.12389400  0.72213300  1
  Ba  Ba28  1  0.17314700  0.13025500  0.72304200  1
  Ba  Ba29  1  0.01011500  0.41556100  0.76380000  1
  Mg  Mg30  1  0.52870000  0.88217500  0.30082000  1
  Mg  Mg31  1  0.66735200  0.13801700  0.22496600  1
  Mg  Mg32  1  0.09638900  0.05291800  0.28342300  1
  Mg  Mg33  1  0.45990400  0.71176300  0.23468600  1
  Mg  Mg34  1  0.82122800  0.95530700  0.22768800  1
  Mg  Mg35  1  0.16735200  0.13944400  0.22354000  1
  Mg  Mg36  1  0.69536700  0.24697400  0.26935500  1
  Mg  Mg37  1  0.50829800  0.12707400  0.22258800  1
  Mg  Mg38  1  0.42020600  0.07623100  0.28675300  1
  Mg  Mg39  1  0.84924300  0.11470500  0.22163600  1
  Mg  Mg40  1  0.34163100  0.71040800  0.30592100  1
  Mg  Mg41  1  0.75829800  0.06457400  0.28508800  1
  Mg  Mg42  1  0.83401900  0.42968400  0.26663300  1
  Mg  Mg43  1  0.62657100  0.00342900  0.27635300  1
  Mg  Mg44  1  0.34163100  0.26227600  0.25405300  1
  Mg  Mg45  1  0.98789500  0.24697400  0.26935500  1
  Mg  Mg46  1  0.33401900  0.43111100  0.26520600  1
  Mg  Mg47  1  0.72335700  0.83405300  0.25215600  1
  Mg  Mg48  1  0.67496400  0.41874100  0.26425400  1
  Mg  Mg49  1  0.84163100  0.28354000  0.23278900  1
  Mg  Mg50  1  0.51590900  0.40779800  0.26187600  1
  Mg  Mg51  1  0.01590900  0.40637100  0.26330300  1
  Mg  Mg52  1  0.00829800  0.12707400  0.22258800  1
  Mg  Mg53  1  0.65456200  0.59050800  0.25915400  1
  Mg  Mg54  1  0.36203300  0.59050800  0.25915400  1
  Mg  Mg55  1  0.92972300  0.76125100  0.24175600  1
  Mg  Mg56  1  0.50829800  0.55394200  0.29572000  1
  Mg  Mg57  1  0.50068600  0.72277700  0.30687300  1
  Mg  Mg58  1  0.89002400  0.12572000  0.29382300  1
  Mg  Mg59  1  0.52870000  0.95530700  0.22768800  1
  Mg  Mg60  1  0.84163100  0.71040800  0.30592100  1
  Mg  Mg61  1  0.00829800  0.57520600  0.27445600  1
  Mg  Mg62  1  0.25353900  0.78456400  0.24508600  1
  Mg  Mg63  1  0.68257600  0.69946500  0.30354300  1
  Mg  Mg64  1  0.18257600  0.69803800  0.30496900  1
  Mg  Mg65  1  0.17496400  0.41874100  0.26425400  1
  Mg  Mg66  1  0.82122800  0.88217500  0.30082000  1
  Mg  Mg67  1  0.59163100  0.77290800  0.24342100  1
  Mg  Mg68  1  0.02870000  0.75717500  0.42582000  1
  Mg  Mg69  1  0.16735200  0.01301700  0.34996600  1
  Mg  Mg70  1  0.59638900  0.92791800  0.40842300  1
  Mg  Mg71  1  0.95990400  0.58676300  0.35968600  1
  Mg  Mg72  1  0.67496400  0.84560900  0.33738600  1
  Mg  Mg73  1  0.32122800  0.83030700  0.35268800  1
  Mg  Mg74  1  0.66735200  0.01444400  0.34854000  1
  Mg  Mg75  1  0.05669100  0.41738600  0.33548900  1
  Mg  Mg76  1  0.19536700  0.12197400  0.39435500  1
  Mg  Mg77  1  0.00829800  0.00207400  0.34758800  1
  Mg  Mg78  1  0.17496400  0.86687300  0.31612200  1
  Mg  Mg79  1  0.92020600  0.95123100  0.41175300  1
  Mg  Mg80  1  0.84924300  0.99113100  0.34520900  1
  Mg  Mg81  1  0.34924300  0.98970500  0.34663600  1
  Mg  Mg82  1  0.84163100  0.58540800  0.43092100  1
  Mg  Mg83  1  0.98789500  0.17384200  0.34248700  1
  Mg  Mg84  1  0.25829800  0.93957400  0.41008800  1
  Mg  Mg85  1  0.69536700  0.17384200  0.34248700  1
  Mg  Mg86  1  0.33401900  0.30468400  0.39163300  1
  Mg  Mg87  1  0.26305600  0.34458500  0.32508900  1
  Mg  Mg88  1  0.12657100  0.87842900  0.40135300  1
  Mg  Mg89  1  0.84163100  0.13727600  0.37905300  1
  Mg  Mg90  1  0.48789500  0.12197400  0.39435500  1
  Mg  Mg91  1  0.83401900  0.30611100  0.39020600  1
  Mg  Mg92  1  0.22335700  0.70905300  0.37715600  1
  Mg  Mg93  1  0.86203300  0.53864000  0.31102200  1
  Mg  Mg94  1  0.17496400  0.29374100  0.38925400  1
  Mg  Mg95  1  0.34163100  0.15854000  0.35778900  1
  Mg  Mg96  1  0.58687200  0.36789700  0.32842000  1
  Mg  Mg97  1  0.01590900  0.28279800  0.38687600  1
  Mg  Mg98  1  0.51590900  0.28137100  0.38830300  1
  Mg  Mg99  1  0.50829800  0.00207400  0.34758800  1
  Mg  Mg100  1  0.15456200  0.46550800  0.38415400  1
  Mg  Mg101  1  0.92496400  0.35624100  0.32675400  1
  Mg  Mg102  1  0.86203300  0.46550800  0.38415400  1
  Mg  Mg103  1  0.00068600  0.72135100  0.30830000  1
  Mg  Mg104  1  0.42972300  0.63625100  0.36675600  1
  Mg  Mg105  1  0.79323800  0.29509600  0.31801900  1
  Mg  Mg106  1  0.00829800  0.42894200  0.42072000  1
  Mg  Mg107  1  0.15456200  0.53864000  0.31102200  1
  Mg  Mg108  1  0.00068600  0.59777700  0.43187300  1
  Mg  Mg109  1  0.39002400  0.00072000  0.41882300  1
  Mg  Mg110  1  0.02870000  0.83030700  0.35268800  1
  Mg  Mg111  1  0.34163100  0.58540800  0.43092100  1
  Mg  Mg112  1  0.50829800  0.45020600  0.39945600  1
  Mg  Mg113  1  0.75353900  0.65956400  0.37008600  1
  Mg  Mg114  1  0.18257600  0.57446500  0.42854300  1
  Mg  Mg115  1  0.68257600  0.57303800  0.42996900  1
  Mg  Mg116  1  0.67496400  0.29374100  0.38925400  1
  Mg  Mg117  1  0.32122800  0.75717500  0.42582000  1
  Mg  Mg118  1  0.09163100  0.64790800  0.36842100  1
  Mg  Mg119  1  0.52870000  0.63217500  0.55082000  1
  Mg  Mg120  1  0.66735200  0.88801700  0.47496600  1
  Mg  Mg121  1  0.09638900  0.80291800  0.53342300  1
  Mg  Mg122  1  0.45990400  0.46176300  0.48468600  1
  Mg  Mg123  1  0.17496400  0.72060900  0.46238600  1
  Mg  Mg124  1  0.82122800  0.70530700  0.47768800  1
  Mg  Mg125  1  0.16735200  0.88944400  0.47354000  1
  Mg  Mg126  1  0.55669100  0.29238600  0.46048900  1
  Mg  Mg127  1  0.69536700  0.99697400  0.51935500  1
  Mg  Mg128  1  0.50829800  0.87707400  0.47258800  1
  Mg  Mg129  1  0.67496400  0.74187300  0.44112200  1
  Mg  Mg130  1  0.42020600  0.82623100  0.53675300  1
  Mg  Mg131  1  0.34924300  0.86613100  0.47020900  1
  Mg  Mg132  1  0.84924300  0.86470500  0.47163600  1
  Mg  Mg133  1  0.34163100  0.46040800  0.55592100  1
  Mg  Mg134  1  0.48789500  0.04884200  0.46748700  1
  Mg  Mg135  1  0.75829800  0.81457400  0.53508800  1
  Mg  Mg136  1  0.19536700  0.04884200  0.46748700  1
  Mg  Mg137  1  0.83401900  0.17968400  0.51663300  1
  Mg  Mg138  1  0.76305600  0.21958500  0.45008900  1
  Mg  Mg139  1  0.62657100  0.75342900  0.52635300  1
  Mg  Mg140  1  0.34163100  0.01227600  0.50405300  1
  Mg  Mg141  1  0.98789500  0.99697400  0.51935500  1
  Mg  Mg142  1  0.33401900  0.18111100  0.51520600  1
  Mg  Mg143  1  0.72335700  0.58405300  0.50215600  1
  Mg  Mg144  1  0.36203300  0.41364000  0.43602200  1
  Mg  Mg145  1  0.67496400  0.16874100  0.51425400  1
  Mg  Mg146  1  0.84163100  0.03354000  0.48278900  1
  Mg  Mg147  1  0.08687200  0.24289700  0.45342000  1
  Mg  Mg148  1  0.51590900  0.15779800  0.51187600  1
  Mg  Mg149  1  0.01590900  0.15637100  0.51330300  1
  Mg  Mg150  1  0.00829800  0.87707400  0.47258800  1
  Mg  Mg151  1  0.65456200  0.34050800  0.50915400  1
  Mg  Mg152  1  0.42496400  0.23124100  0.45175400  1
  Mg  Mg153  1  0.36203300  0.34050800  0.50915400  1
  Mg  Mg154  1  0.50068600  0.59635100  0.43330000  1
  Mg  Mg155  1  0.92972300  0.51125100  0.49175600  1
  Mg  Mg156  1  0.29323800  0.17009600  0.44301900  1
  Mg  Mg157  1  0.50829800  0.30394200  0.54572000  1
  Mg  Mg158  1  0.65456200  0.41364000  0.43602200  1
  Mg  Mg159  1  0.50068600  0.47277700  0.55687300  1
  Mg  Mg160  1  0.89002400  0.87572000  0.54382300  1
  Mg  Mg161  1  0.52870000  0.70530700  0.47768800  1
  Mg  Mg162  1  0.84163100  0.46040800  0.55592100  1
  Mg  Mg163  1  0.00829800  0.32520600  0.52445600  1
  Mg  Mg164  1  0.25353900  0.53456400  0.49508600  1
  Mg  Mg165  1  0.68257600  0.44946500  0.55354300  1
  Mg  Mg166  1  0.18257600  0.44803800  0.55496900  1
  Mg  Mg167  1  0.17496400  0.16874100  0.51425400  1
  Mg  Mg168  1  0.82122800  0.63217500  0.55082000  1
  Mg  Mg169  1  0.59163100  0.52290800  0.49342100  1
  Mg  Mg170  1  0.02870000  0.50717500  0.67582000  1
  Mg  Mg171  1  0.16735200  0.76301700  0.59996600  1
  Mg  Mg172  1  0.59638900  0.67791800  0.65842300  1
  Mg  Mg173  1  0.95990400  0.33676300  0.60968600  1
  Mg  Mg174  1  0.67496400  0.59560900  0.58738600  1
  Mg  Mg175  1  0.32122800  0.58030700  0.60268800  1
  Mg  Mg176  1  0.66735200  0.76444400  0.59854000  1
  Mg  Mg177  1  0.05669100  0.16738600  0.58548900  1
  Mg  Mg178  1  0.19536700  0.87197400  0.64435500  1
  Mg  Mg179  1  0.00829800  0.75207400  0.59758800  1
  Mg  Mg180  1  0.17496400  0.61687300  0.56612200  1
  Mg  Mg181  1  0.92020600  0.70123100  0.66175300  1
  Mg  Mg182  1  0.84924300  0.74113100  0.59520900  1
  Mg  Mg183  1  0.34924300  0.73970500  0.59663600  1
  Mg  Mg184  1  0.84163100  0.33540800  0.68092100  1
  Mg  Mg185  1  0.98789500  0.92384200  0.59248700  1
  Mg  Mg186  1  0.25829800  0.68957400  0.66008800  1
  Mg  Mg187  1  0.69536700  0.92384200  0.59248700  1
  Mg  Mg188  1  0.33401900  0.05468400  0.64163300  1
  Mg  Mg189  1  0.26305600  0.09458500  0.57508900  1
  Mg  Mg190  1  0.12657100  0.62842900  0.65135300  1
  Mg  Mg191  1  0.84163100  0.88727600  0.62905300  1
  Mg  Mg192  1  0.48789500  0.87197400  0.64435500  1
  Mg  Mg193  1  0.83401900  0.05611100  0.64020600  1
  Mg  Mg194  1  0.22335700  0.45905300  0.62715600  1
  Mg  Mg195  1  0.86203300  0.28864000  0.56102200  1
  Mg  Mg196  1  0.17496400  0.04374100  0.63925400  1
  Mg  Mg197  1  0.34163100  0.90854000  0.60778900  1
  Mg  Mg198  1  0.58687200  0.11789700  0.57842000  1
  Mg  Mg199  1  0.01590900  0.03279800  0.63687600  1
  Mg  Mg200  1  0.51590900  0.03137100  0.63830300  1
  Mg  Mg201  1  0.50829800  0.75207400  0.59758800  1
  Mg  Mg202  1  0.15456200  0.21550800  0.63415400  1
  Mg  Mg203  1  0.92496400  0.10624100  0.57675400  1
  Mg  Mg204  1  0.86203300  0.21550800  0.63415400  1
  Mg  Mg205  1  0.00068600  0.47135100  0.55830000  1
  Mg  Mg206  1  0.42972300  0.38625100  0.61675600  1
  Mg  Mg207  1  0.79323800  0.04509600  0.56801900  1
  Mg  Mg208  1  0.00829800  0.17894200  0.67072000  1
  Mg  Mg209  1  0.15456200  0.28864000  0.56102200  1
  Mg  Mg210  1  0.00068600  0.34777700  0.68187300  1
  Mg  Mg211  1  0.39002400  0.75072000  0.66882300  1
  Mg  Mg212  1  0.02870000  0.58030700  0.60268800  1
  Mg  Mg213  1  0.34163100  0.33540800  0.68092100  1
  Mg  Mg214  1  0.50829800  0.20020600  0.64945600  1
  Mg  Mg215  1  0.75353900  0.40956400  0.62008600  1
  Mg  Mg216  1  0.18257600  0.32446500  0.67854300  1
  Mg  Mg217  1  0.68257600  0.32303800  0.67996900  1
  Mg  Mg218  1  0.67496400  0.04374100  0.63925400  1
  Mg  Mg219  1  0.32122800  0.50717500  0.67582000  1
  Mg  Mg220  1  0.09163100  0.39790800  0.61842100  1
  Mg  Mg221  1  0.52870000  0.38217500  0.80082000  1
  Mg  Mg222  1  0.66735200  0.63801700  0.72496600  1
  Mg  Mg223  1  0.09638900  0.55291800  0.78342300  1
  Mg  Mg224  1  0.45990400  0.21176300  0.73468600  1
  Mg  Mg225  1  0.17496400  0.47060900  0.71238600  1
  Mg  Mg226  1  0.82122800  0.45530700  0.72768800  1
  Mg  Mg227  1  0.16735200  0.63944400  0.72354000  1
  Mg  Mg228  1  0.55669100  0.04238600  0.71048900  1
  Mg  Mg229  1  0.69536700  0.74697400  0.76935500  1
  Mg  Mg230  1  0.50829800  0.62707400  0.72258800  1
  Mg  Mg231  1  0.67496400  0.49187300  0.69112200  1
  Mg  Mg232  1  0.42020600  0.57623100  0.78675300  1
  Mg  Mg233  1  0.34924300  0.61613100  0.72020900  1
  Mg  Mg234  1  0.84924300  0.61470500  0.72163600  1
  Mg  Mg235  1  0.34163100  0.21040800  0.80592100  1
  Mg  Mg236  1  0.48789500  0.79884200  0.71748700  1
  Mg  Mg237  1  0.75829800  0.56457400  0.78508800  1
  Mg  Mg238  1  0.19536700  0.79884200  0.71748700  1
  Mg  Mg239  1  0.83401900  0.92968400  0.76663300  1
  Mg  Mg240  1  0.76305600  0.96958500  0.70008900  1
  Mg  Mg241  1  0.62657100  0.50342900  0.77635300  1
  Mg  Mg242  1  0.34163100  0.76227600  0.75405300  1
  Mg  Mg243  1  0.98789500  0.74697400  0.76935500  1
  Mg  Mg244  1  0.33401900  0.93111100  0.76520600  1
  Mg  Mg245  1  0.72335700  0.33405300  0.75215600  1
  Mg  Mg246  1  0.36203300  0.16364000  0.68602200  1
  Mg  Mg247  1  0.67496400  0.91874100  0.76425400  1
  Mg  Mg248  1  0.84163100  0.78354000  0.73278900  1
  Mg  Mg249  1  0.08687200  0.99289700  0.70342000  1
  Mg  Mg250  1  0.51590900  0.90779800  0.76187600  1
  Mg  Mg251  1  0.01590900  0.90637100  0.76330300  1
  Mg  Mg252  1  0.00829800  0.62707400  0.72258800  1
  Mg  Mg253  1  0.65456200  0.09050800  0.75915400  1
  Mg  Mg254  1  0.42496400  0.98124100  0.70175400  1
  Mg  Mg255  1  0.36203300  0.09050800  0.75915400  1
  Mg  Mg256  1  0.50068600  0.34635100  0.68330000  1
  Mg  Mg257  1  0.92972300  0.26125100  0.74175600  1
  Mg  Mg258  1  0.29323800  0.92009600  0.69301900  1
  Mg  Mg259  1  0.50829800  0.05394200  0.79572000  1
  Mg  Mg260  1  0.65456200  0.16364000  0.68602200  1
  Mg  Mg261  1  0.50068600  0.22277700  0.80687300  1
  Mg  Mg262  1  0.89002400  0.62572000  0.79382300  1
  Mg  Mg263  1  0.52870000  0.45530700  0.72768800  1
  Mg  Mg264  1  0.84163100  0.21040800  0.80592100  1
  Mg  Mg265  1  0.00829800  0.07520600  0.77445600  1
  Mg  Mg266  1  0.25353900  0.28456400  0.74508600  1
  Mg  Mg267  1  0.68257600  0.19946500  0.80354300  1
  Mg  Mg268  1  0.18257600  0.19803800  0.80496900  1
  Mg  Mg269  1  0.17496400  0.91874100  0.76425400  1
  Mg  Mg270  1  0.82122800  0.38217500  0.80082000  1
  Mg  Mg271  1  0.59163100  0.27290800  0.74342100  1
