# generated using pymatgen
data_Mg9Rh4
_symmetry_space_group_name_H-M   'P 1'
_cell_length_a   8.64031900
_cell_length_b   11.79877622
_cell_length_c   43.91762100
_cell_angle_alpha   86.20917344
_cell_angle_beta   90.00000000
_cell_angle_gamma   68.52142843
_symmetry_Int_Tables_number   1
_chemical_formula_structural   Mg9Rh4
_chemical_formula_sum   'Mg81 Rh36'
_cell_volume   4155.74122190
_cell_formula_units_Z   9
loop_
 _symmetry_equiv_pos_site_id
 _symmetry_equiv_pos_as_xyz
  1  'x, y, z'
loop_
 _atom_site_type_symbol
 _atom_site_label
 _atom_site_symmetry_multiplicity
 _atom_site_fract_x
 _atom_site_fract_y
 _atom_site_fract_z
 _atom_site_occupancy
  Mg  Mg0  1  0.77626500  0.44747100  0.30133900  1
  Mg  Mg1  1  0.65126500  0.69747100  0.36383900  1
  Mg  Mg2  1  0.52626500  0.94747100  0.42633900  1
  Mg  Mg3  1  0.06864800  0.86270400  0.38503100  1
  Mg  Mg4  1  0.51835700  0.34258800  0.39006000  1
  Mg  Mg5  1  0.13905600  0.34258800  0.39006000  1
  Mg  Mg6  1  0.16347300  0.05235400  0.33761800  1
  Mg  Mg7  1  0.78417300  0.05235400  0.33761800  1
  Mg  Mg8  1  0.23388100  0.53223800  0.34264800  1
  Mg  Mg9  1  0.76304300  0.47391400  0.40360000  1
  Mg  Mg10  1  0.12716700  0.31956400  0.31718700  1
  Mg  Mg11  1  0.55327000  0.31956400  0.31718700  1
  Mg  Mg12  1  0.90651700  0.76086200  0.33186200  1
  Mg  Mg13  1  0.33262100  0.76086200  0.33186200  1
  Mg  Mg14  1  0.53948600  0.92102800  0.32407900  1
  Mg  Mg15  1  0.96990900  0.63407900  0.39581600  1
  Mg  Mg16  1  0.44674400  0.10651200  0.37045000  1
  Mg  Mg17  1  0.39601200  0.63407900  0.39581600  1
  Mg  Mg18  1  0.74925900  0.07537800  0.41049100  1
  Mg  Mg19  1  0.85578500  0.28843000  0.35722800  1
  Mg  Mg20  1  0.17536300  0.07537800  0.41049100  1
  Mg  Mg21  1  0.40126500  0.19747100  0.48883900  1
  Mg  Mg22  1  0.27626500  0.44747100  0.55133900  1
  Mg  Mg23  1  0.81864800  0.36270400  0.51003100  1
  Mg  Mg24  1  0.26835700  0.84258800  0.51506000  1
  Mg  Mg25  1  0.88905600  0.84258800  0.51506000  1
  Mg  Mg26  1  0.91347300  0.55235400  0.46261800  1
  Mg  Mg27  1  0.53417300  0.55235400  0.46261800  1
  Mg  Mg28  1  0.98388100  0.03223800  0.46764800  1
  Mg  Mg29  1  0.51304300  0.97391400  0.52860000  1
  Mg  Mg30  1  0.87716700  0.81956400  0.44218700  1
  Mg  Mg31  1  0.30327000  0.81956400  0.44218700  1
  Mg  Mg32  1  0.65651700  0.26086200  0.45686200  1
  Mg  Mg33  1  0.08262100  0.26086200  0.45686200  1
  Mg  Mg34  1  0.28948600  0.42102800  0.44907900  1
  Mg  Mg35  1  0.71990900  0.13407900  0.52081600  1
  Mg  Mg36  1  0.19674400  0.60651200  0.49545000  1
  Mg  Mg37  1  0.14601200  0.13407900  0.52081600  1
  Mg  Mg38  1  0.49925900  0.57537800  0.53549100  1
  Mg  Mg39  1  0.60578500  0.78843000  0.48222800  1
  Mg  Mg40  1  0.92536300  0.57537800  0.53549100  1
  Mg  Mg41  1  0.15126500  0.69747100  0.61383900  1
  Mg  Mg42  1  0.02626500  0.94747100  0.67633900  1
  Mg  Mg43  1  0.56864800  0.86270400  0.63503100  1
  Mg  Mg44  1  0.01835700  0.34258800  0.64006000  1
  Mg  Mg45  1  0.63905600  0.34258800  0.64006000  1
  Mg  Mg46  1  0.66347300  0.05235400  0.58761800  1
  Mg  Mg47  1  0.28417300  0.05235400  0.58761800  1
  Mg  Mg48  1  0.73388100  0.53223800  0.59264800  1
  Mg  Mg49  1  0.26304300  0.47391400  0.65360000  1
  Mg  Mg50  1  0.62716700  0.31956400  0.56718700  1
  Mg  Mg51  1  0.05327000  0.31956400  0.56718700  1
  Mg  Mg52  1  0.40651700  0.76086200  0.58186200  1
  Mg  Mg53  1  0.83262100  0.76086200  0.58186200  1
  Mg  Mg54  1  0.03948600  0.92102800  0.57407900  1
  Mg  Mg55  1  0.46990900  0.63407900  0.64581600  1
  Mg  Mg56  1  0.94674400  0.10651200  0.62045000  1
  Mg  Mg57  1  0.89601200  0.63407900  0.64581600  1
  Mg  Mg58  1  0.24925900  0.07537800  0.66049100  1
  Mg  Mg59  1  0.35578500  0.28843000  0.60722800  1
  Mg  Mg60  1  0.67536300  0.07537800  0.66049100  1
  Mg  Mg61  1  0.90126500  0.19747100  0.73883900  1
  Mg  Mg62  1  0.77626500  0.44747100  0.80133900  1
  Mg  Mg63  1  0.31864800  0.36270400  0.76003100  1
  Mg  Mg64  1  0.76835700  0.84258800  0.76506000  1
  Mg  Mg65  1  0.38905600  0.84258800  0.76506000  1
  Mg  Mg66  1  0.41347300  0.55235400  0.71261800  1
  Mg  Mg67  1  0.03417300  0.55235400  0.71261800  1
  Mg  Mg68  1  0.48388100  0.03223800  0.71764800  1
  Mg  Mg69  1  0.01304300  0.97391400  0.77860000  1
  Mg  Mg70  1  0.37716700  0.81956400  0.69218700  1
  Mg  Mg71  1  0.80327000  0.81956400  0.69218700  1
  Mg  Mg72  1  0.15651700  0.26086200  0.70686200  1
  Mg  Mg73  1  0.58262100  0.26086200  0.70686200  1
  Mg  Mg74  1  0.78948600  0.42102800  0.69907900  1
  Mg  Mg75  1  0.21990900  0.13407900  0.77081600  1
  Mg  Mg76  1  0.69674400  0.60651200  0.74545000  1
  Mg  Mg77  1  0.64601200  0.13407900  0.77081600  1
  Mg  Mg78  1  0.99925900  0.57537800  0.78549100  1
  Mg  Mg79  1  0.10578500  0.78843000  0.73222800  1
  Mg  Mg80  1  0.42536300  0.57537800  0.78549100  1
  Rh  Rh81  1  0.13043100  0.73913800  0.29092300  1
  Rh  Rh82  1  0.42209800  0.15580400  0.31175600  1
  Rh  Rh83  1  0.89991600  0.20016700  0.30066500  1
  Rh  Rh84  1  0.65261300  0.69477400  0.30201300  1
  Rh  Rh85  1  0.88043100  0.23913800  0.41592300  1
  Rh  Rh86  1  0.17209800  0.65580400  0.43675600  1
  Rh  Rh87  1  0.64991600  0.70016700  0.42566500  1
  Rh  Rh88  1  0.92779600  0.51131900  0.34787700  1
  Rh  Rh89  1  0.56088500  0.51131900  0.34787700  1
  Rh  Rh90  1  0.74164400  0.88362300  0.37980100  1
  Rh  Rh91  1  0.37473300  0.88362300  0.37980100  1
  Rh  Rh92  1  0.40261300  0.19477400  0.42701300  1
  Rh  Rh93  1  0.63043100  0.73913800  0.54092300  1
  Rh  Rh94  1  0.92209800  0.15580400  0.56175600  1
  Rh  Rh95  1  0.39991600  0.20016700  0.55066500  1
  Rh  Rh96  1  0.67779600  0.01131900  0.47287700  1
  Rh  Rh97  1  0.31088500  0.01131900  0.47287700  1
  Rh  Rh98  1  0.49164400  0.38362300  0.50480100  1
  Rh  Rh99  1  0.12473300  0.38362300  0.50480100  1
  Rh  Rh100  1  0.15261300  0.69477400  0.55201300  1
  Rh  Rh101  1  0.38043100  0.23913800  0.66592300  1
  Rh  Rh102  1  0.67209800  0.65580400  0.68675600  1
  Rh  Rh103  1  0.14991600  0.70016700  0.67566500  1
  Rh  Rh104  1  0.42779600  0.51131900  0.59787700  1
  Rh  Rh105  1  0.06088500  0.51131900  0.59787700  1
  Rh  Rh106  1  0.24164400  0.88362300  0.62980100  1
  Rh  Rh107  1  0.87473300  0.88362300  0.62980100  1
  Rh  Rh108  1  0.90261300  0.19477400  0.67701300  1
  Rh  Rh109  1  0.13043100  0.73913800  0.79092300  1
  Rh  Rh110  1  0.42209800  0.15580400  0.81175600  1
  Rh  Rh111  1  0.89991600  0.20016700  0.80066500  1
  Rh  Rh112  1  0.17779600  0.01131900  0.72287700  1
  Rh  Rh113  1  0.81088500  0.01131900  0.72287700  1
  Rh  Rh114  1  0.99164400  0.38362300  0.75480100  1
  Rh  Rh115  1  0.62473300  0.38362300  0.75480100  1
  Rh  Rh116  1  0.65261300  0.69477400  0.80201300  1
