# generated using pymatgen
data_Mg5Tl2
_symmetry_space_group_name_H-M   'P 1'
_cell_length_a   7.14576700
_cell_length_b   8.77491584
_cell_length_c   46.68731700
_cell_angle_alpha   94.44679253
_cell_angle_beta   90.00000000
_cell_angle_gamma   114.02718588
_symmetry_Int_Tables_number   1
_chemical_formula_structural   Mg5Tl2
_chemical_formula_sum   'Mg50 Tl20'
_cell_volume   2664.14978339
_cell_formula_units_Z   10
loop_
 _symmetry_equiv_pos_site_id
 _symmetry_equiv_pos_as_xyz
  1  'x, y, z'
loop_
 _atom_site_type_symbol
 _atom_site_label
 _atom_site_symmetry_multiplicity
 _atom_site_fract_x
 _atom_site_fract_y
 _atom_site_fract_z
 _atom_site_occupancy
  Mg  Mg0  1  0.09048900  0.85133900  0.80188100  1
  Mg  Mg1  1  0.73719000  0.47438000  0.81067000  1
  Mg  Mg2  1  0.53125000  0.06250000  0.78125000  1
  Mg  Mg3  1  0.30164900  0.27366100  0.76061900  1
  Mg  Mg4  1  0.03451100  0.39866100  0.69811900  1
  Mg  Mg5  1  0.38781000  0.77562000  0.68933000  1
  Mg  Mg6  1  0.32531000  0.65062000  0.75183000  1
  Mg  Mg7  1  0.79969000  0.59938000  0.74817000  1
  Mg  Mg8  1  0.82335100  0.97633900  0.73938100  1
  Mg  Mg9  1  0.59375000  0.18750000  0.71875000  1
  Mg  Mg10  1  0.21548900  0.10133900  0.67688100  1
  Mg  Mg11  1  0.86219000  0.72438000  0.68567000  1
  Mg  Mg12  1  0.65625000  0.31250000  0.65625000  1
  Mg  Mg13  1  0.42664900  0.52366100  0.63561900  1
  Mg  Mg14  1  0.15951100  0.64866100  0.57311900  1
  Mg  Mg15  1  0.51281000  0.02562000  0.56433000  1
  Mg  Mg16  1  0.45031000  0.90062000  0.62683000  1
  Mg  Mg17  1  0.92469000  0.84938000  0.62317000  1
  Mg  Mg18  1  0.94835100  0.22633900  0.61438100  1
  Mg  Mg19  1  0.71875000  0.43750000  0.59375000  1
  Mg  Mg20  1  0.34048900  0.35133900  0.55188100  1
  Mg  Mg21  1  0.98719000  0.97438000  0.56067000  1
  Mg  Mg22  1  0.78125000  0.56250000  0.53125000  1
  Mg  Mg23  1  0.55164900  0.77366100  0.51061900  1
  Mg  Mg24  1  0.28451100  0.89866100  0.44811900  1
  Mg  Mg25  1  0.63781000  0.27562000  0.43933000  1
  Mg  Mg26  1  0.57531000  0.15062000  0.50183000  1
  Mg  Mg27  1  0.04969000  0.09938000  0.49817000  1
  Mg  Mg28  1  0.07335100  0.47633900  0.48938100  1
  Mg  Mg29  1  0.84375000  0.68750000  0.46875000  1
  Mg  Mg30  1  0.46548900  0.60133900  0.42688100  1
  Mg  Mg31  1  0.11219000  0.22438000  0.43567000  1
  Mg  Mg32  1  0.90625000  0.81250000  0.40625000  1
  Mg  Mg33  1  0.67664900  0.02366100  0.38561900  1
  Mg  Mg34  1  0.40951100  0.14866100  0.32311900  1
  Mg  Mg35  1  0.76281000  0.52562000  0.31433000  1
  Mg  Mg36  1  0.70031000  0.40062000  0.37683000  1
  Mg  Mg37  1  0.17469000  0.34938000  0.37317000  1
  Mg  Mg38  1  0.19835100  0.72633900  0.36438100  1
  Mg  Mg39  1  0.96875000  0.93750000  0.34375000  1
  Mg  Mg40  1  0.59048900  0.85133900  0.30188100  1
  Mg  Mg41  1  0.23719000  0.47438000  0.31067000  1
  Mg  Mg42  1  0.03125000  0.06250000  0.28125000  1
  Mg  Mg43  1  0.80164900  0.27366100  0.26061900  1
  Mg  Mg44  1  0.53451100  0.39866100  0.19811900  1
  Mg  Mg45  1  0.88781000  0.77562000  0.18933000  1
  Mg  Mg46  1  0.82531000  0.65062000  0.25183000  1
  Mg  Mg47  1  0.29969000  0.59938000  0.24817000  1
  Mg  Mg48  1  0.32335100  0.97633900  0.23938100  1
  Mg  Mg49  1  0.09375000  0.18750000  0.21875000  1
  Tl  Tl50  1  0.46826400  0.46320300  0.70272900  1
  Tl  Tl51  1  0.19256100  0.91179700  0.73477100  1
  Tl  Tl52  1  0.93243900  0.33820300  0.76522900  1
  Tl  Tl53  1  0.65673600  0.78679700  0.79727100  1
  Tl  Tl54  1  0.59326400  0.71320300  0.57772900  1
  Tl  Tl55  1  0.31756100  0.16179700  0.60977100  1
  Tl  Tl56  1  0.05743900  0.58820300  0.64022900  1
  Tl  Tl57  1  0.78173600  0.03679700  0.67227100  1
  Tl  Tl58  1  0.71826400  0.96320300  0.45272900  1
  Tl  Tl59  1  0.44256100  0.41179700  0.48477100  1
  Tl  Tl60  1  0.18243900  0.83820300  0.51522900  1
  Tl  Tl61  1  0.90673600  0.28679700  0.54727100  1
  Tl  Tl62  1  0.84326400  0.21320300  0.32772900  1
  Tl  Tl63  1  0.56756100  0.66179700  0.35977100  1
  Tl  Tl64  1  0.30743900  0.08820300  0.39022900  1
  Tl  Tl65  1  0.03173600  0.53679700  0.42227100  1
  Tl  Tl66  1  0.96826400  0.46320300  0.20272900  1
  Tl  Tl67  1  0.69256100  0.91179700  0.23477100  1
  Tl  Tl68  1  0.43243900  0.33820300  0.26522900  1
  Tl  Tl69  1  0.15673600  0.78679700  0.29727100  1
