# generated using pymatgen
data_Ho7Mg37
_symmetry_space_group_name_H-M   'P 1'
_cell_length_a   3.64999800
_cell_length_b   11.78231593
_cell_length_c   48.00042200
_cell_angle_alpha   86.08470304
_cell_angle_beta   90.00000000
_cell_angle_gamma   90.00000000
_symmetry_Int_Tables_number   1
_chemical_formula_structural   Ho7Mg37
_chemical_formula_sum   'Ho7 Mg37'
_cell_volume   2059.46091587
_cell_formula_units_Z   1
loop_
 _symmetry_equiv_pos_site_id
 _symmetry_equiv_pos_as_xyz
  1  'x, y, z'
loop_
 _atom_site_type_symbol
 _atom_site_label
 _atom_site_symmetry_multiplicity
 _atom_site_fract_x
 _atom_site_fract_y
 _atom_site_fract_z
 _atom_site_occupancy
  Ho  Ho0  1  0.50000000  0.04811400  0.26190500  1
  Ho  Ho1  1  0.00000000  0.61954300  0.33333300  1
  Ho  Ho2  1  0.50000000  0.19097100  0.40476200  1
  Ho  Ho3  1  0.00000000  0.76240000  0.47619000  1
  Ho  Ho4  1  0.50000000  0.33382900  0.54761900  1
  Ho  Ho5  1  0.00000000  0.90525700  0.61904800  1
  Ho  Ho6  1  0.50000000  0.47668600  0.69047600  1
  Mg  Mg7  1  0.50000000  0.34940900  0.24021400  1
  Mg  Mg8  1  0.00000000  0.24513100  0.28684300  1
  Mg  Mg9  1  0.50000000  0.11954300  0.33333300  1
  Mg  Mg10  1  0.50000000  0.42252700  0.30839500  1
  Mg  Mg11  1  1.00000000  0.31824800  0.35502400  1
  Mg  Mg12  1  0.00000000  0.92083700  0.31164300  1
  Mg  Mg13  1  0.50000000  0.67370200  0.21541400  1
  Mg  Mg14  1  1.00000000  0.54811400  0.26190500  1
  Mg  Mg15  1  1.00000000  0.85109800  0.23696700  1
  Mg  Mg16  1  0.50000000  0.74682000  0.28359500  1
  Mg  Mg17  1  0.50000000  0.49226600  0.38307200  1
  Mg  Mg18  1  0.00000000  0.38798800  0.42970000  1
  Mg  Mg19  1  0.50000000  0.26240000  0.47619000  1
  Mg  Mg20  1  0.50000000  0.56538400  0.45125200  1
  Mg  Mg21  1  0.00000000  0.46110600  0.49788100  1
  Mg  Mg22  1  1.00000000  0.06369400  0.45450000  1
  Mg  Mg23  1  0.50000000  0.81655900  0.35827200  1
  Mg  Mg24  1  0.00000000  0.69097100  0.40476200  1
  Mg  Mg25  1  1.00000000  0.99395500  0.37982400  1
  Mg  Mg26  1  0.50000000  0.88967700  0.42645200  1
  Mg  Mg27  1  0.50000000  0.63512300  0.52592900  1
  Mg  Mg28  1  1.00000000  0.53084500  0.57255700  1
  Mg  Mg29  1  0.50000000  0.40525700  0.61904800  1
  Mg  Mg30  1  0.50000000  0.70824100  0.59410900  1
  Mg  Mg31  1  0.00000000  0.60396300  0.64073800  1
  Mg  Mg32  1  1.00000000  0.20655200  0.59735700  1
  Mg  Mg33  1  0.50000000  0.95941600  0.50112900  1
  Mg  Mg34  1  0.00000000  0.83382900  0.54761900  1
  Mg  Mg35  1  0.00000000  0.13681200  0.52268100  1
  Mg  Mg36  1  0.50000000  0.03253400  0.56930900  1
  Mg  Mg37  1  0.50000000  0.77798000  0.66878600  1
  Mg  Mg38  1  1.00000000  0.67370200  0.71541400  1
  Mg  Mg39  1  0.50000000  0.85109800  0.73696700  1
  Mg  Mg40  1  0.50000000  0.10227300  0.64398600  1
  Mg  Mg41  1  1.00000000  0.97668600  0.69047600  1
  Mg  Mg42  1  1.00000000  0.27966900  0.66553800  1
  Mg  Mg43  1  0.50000000  0.17539100  0.71216700  1
