# generated using pymatgen
data_Ho2Mg
_symmetry_space_group_name_H-M   'P 1'
_cell_length_a   6.57379833
_cell_length_b   8.73039199
_cell_length_c   45.09759300
_cell_angle_alpha   88.72763184
_cell_angle_beta   86.05613363
_cell_angle_gamma   83.24796383
_symmetry_Int_Tables_number   1
_chemical_formula_structural   Ho2Mg
_chemical_formula_sum   'Ho36 Mg18'
_cell_volume   2563.93535839
_cell_formula_units_Z   18
loop_
 _symmetry_equiv_pos_site_id
 _symmetry_equiv_pos_as_xyz
  1  'x, y, z'
loop_
 _atom_site_type_symbol
 _atom_site_label
 _atom_site_symmetry_multiplicity
 _atom_site_fract_x
 _atom_site_fract_y
 _atom_site_fract_z
 _atom_site_occupancy
  Ho  Ho0  1  0.80234100  0.39642400  0.78953200  1
  Ho  Ho1  1  0.90911000  0.77716100  0.76817800  1
  Ho  Ho2  1  0.53099300  0.07024300  0.74380100  1
  Ho  Ho3  1  0.42422300  0.68950600  0.76515500  1
  Ho  Ho4  1  0.13567400  0.46309100  0.72286500  1
  Ho  Ho5  1  0.24244400  0.84382800  0.70151100  1
  Ho  Ho6  1  0.86432600  0.13690900  0.67713500  1
  Ho  Ho7  1  0.75755600  0.75617200  0.69848900  1
  Ho  Ho8  1  0.46900700  0.52975700  0.65619900  1
  Ho  Ho9  1  0.57577700  0.91049400  0.63484500  1
  Ho  Ho10  1  0.19765900  0.20357600  0.61046800  1
  Ho  Ho11  1  0.09089000  0.82283900  0.63182200  1
  Ho  Ho12  1  0.80234100  0.59642400  0.58953200  1
  Ho  Ho13  1  0.90911000  0.97716100  0.56817800  1
  Ho  Ho14  1  0.53099300  0.27024300  0.54380100  1
  Ho  Ho15  1  0.42422300  0.88950600  0.56515500  1
  Ho  Ho16  1  0.13567400  0.66309100  0.52286500  1
  Ho  Ho17  1  0.24244400  0.04382800  0.50151100  1
  Ho  Ho18  1  0.86432600  0.33690900  0.47713500  1
  Ho  Ho19  1  0.75755600  0.95617200  0.49848900  1
  Ho  Ho20  1  0.46900700  0.72975700  0.45619900  1
  Ho  Ho21  1  0.57577700  0.11049400  0.43484500  1
  Ho  Ho22  1  0.19765900  0.40357600  0.41046800  1
  Ho  Ho23  1  0.09089000  0.02283900  0.43182200  1
  Ho  Ho24  1  0.80234100  0.79642400  0.38953200  1
  Ho  Ho25  1  0.90911000  0.17716100  0.36817800  1
  Ho  Ho26  1  0.53099300  0.47024300  0.34380100  1
  Ho  Ho27  1  0.42422300  0.08950600  0.36515500  1
  Ho  Ho28  1  0.13567400  0.86309100  0.32286500  1
  Ho  Ho29  1  0.24244400  0.24382800  0.30151100  1
  Ho  Ho30  1  0.86432600  0.53690900  0.27713500  1
  Ho  Ho31  1  0.75755600  0.15617200  0.29848900  1
  Ho  Ho32  1  0.46900700  0.92975700  0.25619900  1
  Ho  Ho33  1  0.57577700  0.31049400  0.23484500  1
  Ho  Ho34  1  0.19765900  0.60357600  0.21046800  1
  Ho  Ho35  1  0.09089000  0.22283900  0.23182200  1
  Mg  Mg36  1  0.02206000  0.12204900  0.74558800  1
  Mg  Mg37  1  0.31127300  0.34461700  0.78774500  1
  Mg  Mg38  1  0.35539400  0.18871600  0.67892100  1
  Mg  Mg39  1  0.64460600  0.41128400  0.72107900  1
  Mg  Mg40  1  0.68872700  0.25538300  0.61225500  1
  Mg  Mg41  1  0.97794000  0.47795100  0.65441200  1
  Mg  Mg42  1  0.02206000  0.32204900  0.54558800  1
  Mg  Mg43  1  0.31127300  0.54461700  0.58774500  1
  Mg  Mg44  1  0.35539400  0.38871600  0.47892100  1
  Mg  Mg45  1  0.64460600  0.61128400  0.52107900  1
  Mg  Mg46  1  0.68872700  0.45538300  0.41225500  1
  Mg  Mg47  1  0.97794000  0.67795100  0.45441200  1
  Mg  Mg48  1  0.02206000  0.52204900  0.34558800  1
  Mg  Mg49  1  0.31127300  0.74461700  0.38774500  1
  Mg  Mg50  1  0.35539400  0.58871600  0.27892100  1
  Mg  Mg51  1  0.64460600  0.81128400  0.32107900  1
  Mg  Mg52  1  0.68872700  0.65538300  0.21225500  1
  Mg  Mg53  1  0.97794000  0.87795100  0.25441200  1
