# generated using pymatgen
data_Mg12Al23
_symmetry_space_group_name_H-M   'P 1'
_cell_length_a   5.50999200
_cell_length_b   8.63345300
_cell_length_c   47.71793200
_cell_angle_alpha   90.00000000
_cell_angle_beta   90.00000000
_cell_angle_gamma   90.00000000
_symmetry_Int_Tables_number   1
_chemical_formula_structural   Mg12Al23
_chemical_formula_sum   'Mg24 Al46'
_cell_volume   2269.95428695
_cell_formula_units_Z   2
loop_
 _symmetry_equiv_pos_site_id
 _symmetry_equiv_pos_as_xyz
  1  'x, y, z'
loop_
 _atom_site_type_symbol
 _atom_site_label
 _atom_site_symmetry_multiplicity
 _atom_site_fract_x
 _atom_site_fract_y
 _atom_site_fract_z
 _atom_site_occupancy
  Mg  Mg0  1  0.04266900  0.56708600  0.25833300  1
  Mg  Mg1  1  0.54266900  0.06708600  0.22500000  1
  Mg  Mg2  1  0.54266900  0.43291400  0.22500000  1
  Mg  Mg3  1  0.04266900  0.93291400  0.25833300  1
  Mg  Mg4  1  0.54266900  0.56708600  0.35833300  1
  Mg  Mg5  1  0.04266900  0.06708600  0.32500000  1
  Mg  Mg6  1  0.04266900  0.43291400  0.32500000  1
  Mg  Mg7  1  0.54266900  0.93291400  0.35833300  1
  Mg  Mg8  1  0.04266900  0.56708600  0.45833300  1
  Mg  Mg9  1  0.54266900  0.06708600  0.42500000  1
  Mg  Mg10  1  0.54266900  0.43291400  0.42500000  1
  Mg  Mg11  1  0.04266900  0.93291400  0.45833300  1
  Mg  Mg12  1  0.54266900  0.56708600  0.55833300  1
  Mg  Mg13  1  0.04266900  0.06708600  0.52500000  1
  Mg  Mg14  1  0.04266900  0.43291400  0.52500000  1
  Mg  Mg15  1  0.54266900  0.93291400  0.55833300  1
  Mg  Mg16  1  0.04266900  0.56708600  0.65833300  1
  Mg  Mg17  1  0.54266900  0.06708600  0.62500000  1
  Mg  Mg18  1  0.54266900  0.43291400  0.62500000  1
  Mg  Mg19  1  0.04266900  0.93291400  0.65833300  1
  Mg  Mg20  1  0.54266900  0.56708600  0.75833300  1
  Mg  Mg21  1  0.04266900  0.06708600  0.72500000  1
  Mg  Mg22  1  0.04266900  0.43291400  0.72500000  1
  Mg  Mg23  1  0.54266900  0.93291400  0.75833300  1
  Al  Al24  1  0.54266900  0.50000000  0.29166700  1
  Al  Al25  1  0.54266900  0.00000000  0.29166700  1
  Al  Al26  1  0.04266900  0.25000000  0.22580100  1
  Al  Al27  1  0.29868000  0.75000000  0.20873400  1
  Al  Al28  1  0.78665700  0.75000000  0.20873400  1
  Al  Al29  1  0.79868000  0.25000000  0.27459900  1
  Al  Al30  1  0.28665700  0.25000000  0.27459900  1
  Al  Al31  1  0.54266900  0.75000000  0.25753200  1
  Al  Al32  1  0.04266900  0.50000000  0.39166700  1
  Al  Al33  1  0.04266900  0.00000000  0.39166700  1
  Al  Al34  1  0.54266900  0.25000000  0.32580100  1
  Al  Al35  1  0.79868000  0.75000000  0.30873400  1
  Al  Al36  1  0.28665700  0.75000000  0.30873400  1
  Al  Al37  1  0.29868000  0.25000000  0.37459900  1
  Al  Al38  1  0.78665700  0.25000000  0.37459900  1
  Al  Al39  1  0.04266900  0.75000000  0.35753200  1
  Al  Al40  1  0.54266900  0.50000000  0.49166700  1
  Al  Al41  1  0.54266900  0.00000000  0.49166700  1
  Al  Al42  1  0.04266900  0.25000000  0.42580100  1
  Al  Al43  1  0.29868000  0.75000000  0.40873400  1
  Al  Al44  1  0.78665700  0.75000000  0.40873400  1
  Al  Al45  1  0.79868000  0.25000000  0.47459900  1
  Al  Al46  1  0.28665700  0.25000000  0.47459900  1
  Al  Al47  1  0.54266900  0.75000000  0.45753200  1
  Al  Al48  1  0.04266900  0.50000000  0.59166700  1
  Al  Al49  1  0.04266900  0.00000000  0.59166700  1
  Al  Al50  1  0.54266900  0.25000000  0.52580100  1
  Al  Al51  1  0.79868000  0.75000000  0.50873400  1
  Al  Al52  1  0.28665700  0.75000000  0.50873400  1
  Al  Al53  1  0.29868000  0.25000000  0.57459900  1
  Al  Al54  1  0.78665700  0.25000000  0.57459900  1
  Al  Al55  1  0.04266900  0.75000000  0.55753200  1
  Al  Al56  1  0.54266900  0.50000000  0.69166700  1
  Al  Al57  1  0.54266900  0.00000000  0.69166700  1
  Al  Al58  1  0.04266900  0.25000000  0.62580100  1
  Al  Al59  1  0.29868000  0.75000000  0.60873400  1
  Al  Al60  1  0.78665700  0.75000000  0.60873400  1
  Al  Al61  1  0.79868000  0.25000000  0.67459900  1
  Al  Al62  1  0.28665700  0.25000000  0.67459900  1
  Al  Al63  1  0.54266900  0.75000000  0.65753200  1
  Al  Al64  1  0.54266900  0.25000000  0.72580100  1
  Al  Al65  1  0.79868000  0.75000000  0.70873400  1
  Al  Al66  1  0.28665700  0.75000000  0.70873400  1
  Al  Al67  1  0.29868000  0.25000000  0.77459900  1
  Al  Al68  1  0.78665700  0.25000000  0.77459900  1
  Al  Al69  1  0.04266900  0.75000000  0.75753200  1
