# generated using pymatgen
data_MgP4
_symmetry_space_group_name_H-M   'P 1'
_cell_length_a   7.59593140
_cell_length_b   7.29415453
_cell_length_c   43.61493600
_cell_angle_alpha   89.71196281
_cell_angle_beta   86.14110133
_cell_angle_gamma   83.88680126
_symmetry_Int_Tables_number   1
_chemical_formula_structural   MgP4
_chemical_formula_sum   'Mg13 P52'
_cell_volume   2397.32981822
_cell_formula_units_Z   13
loop_
 _symmetry_equiv_pos_site_id
 _symmetry_equiv_pos_as_xyz
  1  'x, y, z'
loop_
 _atom_site_type_symbol
 _atom_site_label
 _atom_site_symmetry_multiplicity
 _atom_site_fract_x
 _atom_site_fract_y
 _atom_site_fract_z
 _atom_site_occupancy
  Mg  Mg0  1  0.94788400  0.31269900  0.27083300  1
  Mg  Mg1  1  0.48955000  0.06269900  0.22916700  1
  Mg  Mg2  1  0.86455000  0.81269900  0.35416700  1
  Mg  Mg3  1  0.40621700  0.56269900  0.31250000  1
  Mg  Mg4  1  0.78121700  0.31269900  0.43750000  1
  Mg  Mg5  1  0.32288400  0.06269900  0.39583300  1
  Mg  Mg6  1  0.69788400  0.81269900  0.52083300  1
  Mg  Mg7  1  0.23955000  0.56269900  0.47916700  1
  Mg  Mg8  1  0.61455000  0.31269900  0.60416700  1
  Mg  Mg9  1  0.15621700  0.06269900  0.56250000  1
  Mg  Mg10  1  0.53121700  0.81269900  0.68750000  1
  Mg  Mg11  1  0.07288400  0.56269900  0.64583300  1
  Mg  Mg12  1  0.98955000  0.06269900  0.72916700  1
  P  P13  1  0.73963700  0.29306000  0.22540100  1
  P  P14  1  0.74650200  0.79010600  0.22589400  1
  P  P15  1  0.23946300  0.83233800  0.23293200  1
  P  P16  1  0.23259800  0.33529200  0.23244000  1
  P  P17  1  0.37238400  0.56534600  0.24679300  1
  P  P18  1  0.04698200  0.91845800  0.27127500  1
  P  P19  1  0.52338300  0.06005200  0.29487400  1
  P  P20  1  0.84878500  0.70694000  0.27039200  1
  P  P21  1  0.65630400  0.79306000  0.30873500  1
  P  P22  1  0.66316900  0.29010600  0.30922700  1
  P  P23  1  0.15613000  0.33233800  0.31626500  1
  P  P24  1  0.14926500  0.83529200  0.31577300  1
  P  P25  1  0.28905100  0.06534600  0.33012600  1
  P  P26  1  0.96364900  0.41845800  0.35460800  1
  P  P27  1  0.44005000  0.56005200  0.37820700  1
  P  P28  1  0.76545200  0.20694000  0.35372500  1
  P  P29  1  0.57297000  0.29306000  0.39206800  1
  P  P30  1  0.57983500  0.79010600  0.39256000  1
  P  P31  1  0.07279700  0.83233800  0.39959900  1
  P  P32  1  0.06593200  0.33529200  0.39910600  1
  P  P33  1  0.20571700  0.56534600  0.41346000  1
  P  P34  1  0.88031500  0.91845800  0.43794100  1
  P  P35  1  0.35671600  0.06005200  0.46154000  1
  P  P36  1  0.68211800  0.70694000  0.43705900  1
  P  P37  1  0.48963700  0.79306000  0.47540100  1
  P  P38  1  0.49650200  0.29010600  0.47589400  1
  P  P39  1  0.98946300  0.33233800  0.48293200  1
  P  P40  1  0.98259800  0.83529200  0.48244000  1
  P  P41  1  0.12238400  0.06534600  0.49679300  1
  P  P42  1  0.79698200  0.41845800  0.52127500  1
  P  P43  1  0.27338300  0.56005200  0.54487400  1
  P  P44  1  0.59878500  0.20694000  0.52039200  1
  P  P45  1  0.40630400  0.29306000  0.55873500  1
  P  P46  1  0.41316900  0.79010600  0.55922700  1
  P  P47  1  0.90613000  0.83233800  0.56626500  1
  P  P48  1  0.89926500  0.33529200  0.56577300  1
  P  P49  1  0.03905100  0.56534600  0.58012600  1
  P  P50  1  0.71364900  0.91845800  0.60460800  1
  P  P51  1  0.19005000  0.06005200  0.62820700  1
  P  P52  1  0.51545200  0.70694000  0.60372500  1
  P  P53  1  0.32297000  0.79306000  0.64206800  1
  P  P54  1  0.32983500  0.29010600  0.64256000  1
  P  P55  1  0.82279700  0.33233800  0.64959900  1
  P  P56  1  0.81593200  0.83529200  0.64910600  1
  P  P57  1  0.95571700  0.06534600  0.66346000  1
  P  P58  1  0.63031500  0.41845800  0.68794100  1
  P  P59  1  0.10671600  0.56005200  0.71154000  1
  P  P60  1  0.43211800  0.20694000  0.68705900  1
  P  P61  1  0.23963700  0.29306000  0.72540100  1
  P  P62  1  0.24650200  0.79010600  0.72589400  1
  P  P63  1  0.73946300  0.83233800  0.73293200  1
  P  P64  1  0.73259800  0.33529200  0.73244000  1
