# generated using pymatgen
data_Mg19In8
_symmetry_space_group_name_H-M   'P 1'
_cell_length_a   6.31272291
_cell_length_b   8.73688585
_cell_length_c   44.95231700
_cell_angle_alpha   85.26825975
_cell_angle_beta   85.97361685
_cell_angle_gamma   68.82187958
_symmetry_Int_Tables_number   1
_chemical_formula_structural   Mg19In8
_chemical_formula_sum   'Mg38 In16'
_cell_volume   2301.77444013
_cell_formula_units_Z   2
loop_
 _symmetry_equiv_pos_site_id
 _symmetry_equiv_pos_as_xyz
  1  'x, y, z'
loop_
 _atom_site_type_symbol
 _atom_site_label
 _atom_site_symmetry_multiplicity
 _atom_site_fract_x
 _atom_site_fract_y
 _atom_site_fract_z
 _atom_site_occupancy
  Mg  Mg0  1  0.86934200  0.52144800  0.73986700  1
  Mg  Mg1  1  0.96792400  0.39585600  0.66829600  1
  Mg  Mg2  1  0.51518800  0.25406500  0.71556000  1
  Mg  Mg3  1  0.32207900  0.66323900  0.69260400  1
  Mg  Mg4  1  0.94283400  0.87261600  0.74171500  1
  Mg  Mg5  1  0.39443200  0.04468800  0.66644900  1
  Mg  Mg6  1  0.89443200  0.04468800  0.66644900  1
  Mg  Mg7  1  0.44283400  0.87261600  0.74171500  1
  Mg  Mg8  1  0.72648500  0.95002000  0.59701000  1
  Mg  Mg9  1  0.82506700  0.82442700  0.52543900  1
  Mg  Mg10  1  0.37233000  0.68263700  0.57270200  1
  Mg  Mg11  1  0.17922200  0.09181000  0.54974700  1
  Mg  Mg12  1  0.59720500  0.67293800  0.63265300  1
  Mg  Mg13  1  0.09720500  0.67293800  0.63265300  1
  Mg  Mg14  1  0.79997700  0.30118800  0.59885800  1
  Mg  Mg15  1  0.25157500  0.47325900  0.52359100  1
  Mg  Mg16  1  0.75157500  0.47325900  0.52359100  1
  Mg  Mg17  1  0.29997700  0.30118800  0.59885800  1
  Mg  Mg18  1  0.58362800  0.37859100  0.45415300  1
  Mg  Mg19  1  0.68221000  0.25299900  0.38258200  1
  Mg  Mg20  1  0.22947300  0.11120800  0.42984500  1
  Mg  Mg21  1  0.03636500  0.52038100  0.40688900  1
  Mg  Mg22  1  0.45434700  0.10150900  0.48979600  1
  Mg  Mg23  1  0.95434700  0.10150900  0.48979600  1
  Mg  Mg24  1  0.65712000  0.72975900  0.45600000  1
  Mg  Mg25  1  0.10871800  0.90183000  0.38073400  1
  Mg  Mg26  1  0.60871800  0.90183000  0.38073400  1
  Mg  Mg27  1  0.15712000  0.72975900  0.45600000  1
  Mg  Mg28  1  0.44077100  0.80716300  0.31129600  1
  Mg  Mg29  1  0.53935300  0.68157000  0.23972500  1
  Mg  Mg30  1  0.08661600  0.53978000  0.28698800  1
  Mg  Mg31  1  0.89350700  0.94895300  0.26403200  1
  Mg  Mg32  1  0.31149000  0.53008100  0.34693900  1
  Mg  Mg33  1  0.81149000  0.53008100  0.34693900  1
  Mg  Mg34  1  0.51426300  0.15833100  0.31314300  1
  Mg  Mg35  1  0.96586100  0.33040200  0.23787700  1
  Mg  Mg36  1  0.46586100  0.33040200  0.23787700  1
  Mg  Mg37  1  0.01426300  0.15833100  0.31314300  1
  In  In38  1  0.77991200  0.75278000  0.68739700  1
  In  In39  1  0.05735500  0.16452400  0.72076600  1
  In  In40  1  0.48911800  0.36923400  0.65252900  1
  In  In41  1  0.34814800  0.54807000  0.75563400  1
  In  In42  1  0.63705400  0.18135100  0.54454000  1
  In  In43  1  0.91449800  0.59309600  0.57790900  1
  In  In44  1  0.34626100  0.79780500  0.50967200  1
  In  In45  1  0.20529100  0.97664200  0.61277700  1
  In  In46  1  0.49419700  0.60992200  0.40168300  1
  In  In47  1  0.77164100  0.02166700  0.43505200  1
  In  In48  1  0.20340400  0.22637600  0.36681500  1
  In  In49  1  0.06243400  0.40521300  0.46991900  1
  In  In50  1  0.35134000  0.03849400  0.25882600  1
  In  In51  1  0.62878300  0.45023900  0.29219500  1
  In  In52  1  0.06054700  0.65494800  0.22395800  1
  In  In53  1  0.91957700  0.83378500  0.32706200  1
