# generated using pymatgen
data_Mg58Ir89
_symmetry_space_group_name_H-M   'P 1'
_cell_length_a   10.02721118
_cell_length_b   18.72038941
_cell_length_c   44.79036200
_cell_angle_alpha   94.03613252
_cell_angle_beta   86.64075209
_cell_angle_gamma   96.01571897
_symmetry_Int_Tables_number   1
_chemical_formula_structural   Mg58Ir89
_chemical_formula_sum   'Mg116 Ir178'
_cell_volume   8329.58426924
_cell_formula_units_Z   2
loop_
 _symmetry_equiv_pos_site_id
 _symmetry_equiv_pos_as_xyz
  1  'x, y, z'
loop_
 _atom_site_type_symbol
 _atom_site_label
 _atom_site_symmetry_multiplicity
 _atom_site_fract_x
 _atom_site_fract_y
 _atom_site_fract_z
 _atom_site_occupancy
  Mg  Mg0  1  0.93946700  0.78013600  0.23946600  1
  Mg  Mg1  1  0.67094000  0.71986400  0.27253400  1
  Mg  Mg2  1  0.19135900  0.79076000  0.27545100  1
  Mg  Mg3  1  0.41904800  0.70924000  0.23654900  1
  Mg  Mg4  1  0.88168300  0.92230000  0.23121100  1
  Mg  Mg5  1  0.72872500  0.57770000  0.28078900  1
  Mg  Mg6  1  0.00721300  0.52103200  0.24914400  1
  Mg  Mg7  1  0.60319400  0.97896800  0.26285600  1
  Mg  Mg8  1  0.78946700  0.28013600  0.28946600  1
  Mg  Mg9  1  0.82094000  0.21986400  0.22253400  1
  Mg  Mg10  1  0.14851700  0.05456700  0.26933000  1
  Mg  Mg11  1  0.46189100  0.44543300  0.24267000  1
  Mg  Mg12  1  0.34135900  0.29076000  0.22545100  1
  Mg  Mg13  1  0.26904800  0.20924000  0.28654900  1
  Mg  Mg14  1  0.73168300  0.42230000  0.28121100  1
  Mg  Mg15  1  0.87872500  0.07770000  0.23078900  1
  Mg  Mg16  1  0.63946700  0.78013600  0.33946600  1
  Mg  Mg17  1  0.37094000  0.71986400  0.37253400  1
  Mg  Mg18  1  0.99851700  0.55456700  0.31933000  1
  Mg  Mg19  1  0.31189100  0.94543300  0.29267000  1
  Mg  Mg20  1  0.89135900  0.79076000  0.37545100  1
  Mg  Mg21  1  0.11904800  0.70924000  0.33654900  1
  Mg  Mg22  1  0.58168300  0.92230000  0.33121100  1
  Mg  Mg23  1  0.42872500  0.57770000  0.38078900  1
  Mg  Mg24  1  0.70721300  0.52103200  0.34914400  1
  Mg  Mg25  1  0.30319400  0.97896800  0.36285600  1
  Mg  Mg26  1  0.48946700  0.28013600  0.38946600  1
  Mg  Mg27  1  0.52094000  0.21986400  0.32253400  1
  Mg  Mg28  1  0.84851700  0.05456700  0.36933000  1
  Mg  Mg29  1  0.16189100  0.44543300  0.34267000  1
  Mg  Mg30  1  0.04135900  0.29076000  0.32545100  1
  Mg  Mg31  1  0.96904800  0.20924000  0.38654900  1
  Mg  Mg32  1  0.43168300  0.42230000  0.38121100  1
  Mg  Mg33  1  0.57872500  0.07770000  0.33078900  1
  Mg  Mg34  1  0.85721300  0.02103200  0.29914400  1
  Mg  Mg35  1  0.45319400  0.47896800  0.31285600  1
  Mg  Mg36  1  0.33946700  0.78013600  0.43946600  1
  Mg  Mg37  1  0.07094000  0.71986400  0.47253400  1
  Mg  Mg38  1  0.69851700  0.55456700  0.41933000  1
  Mg  Mg39  1  0.01189100  0.94543300  0.39267000  1
  Mg  Mg40  1  0.59135900  0.79076000  0.47545100  1
  Mg  Mg41  1  0.81904800  0.70924000  0.43654900  1
  Mg  Mg42  1  0.28168300  0.92230000  0.43121100  1
  Mg  Mg43  1  0.12872500  0.57770000  0.48078900  1
  Mg  Mg44  1  0.40721300  0.52103200  0.44914400  1
  Mg  Mg45  1  0.00319400  0.97896800  0.46285600  1
  Mg  Mg46  1  0.18946700  0.28013600  0.48946600  1
  Mg  Mg47  1  0.22094000  0.21986400  0.42253400  1
  Mg  Mg48  1  0.54851700  0.05456700  0.46933000  1
  Mg  Mg49  1  0.86189100  0.44543300  0.44267000  1
  Mg  Mg50  1  0.74135900  0.29076000  0.42545100  1
  Mg  Mg51  1  0.66904800  0.20924000  0.48654900  1
  Mg  Mg52  1  0.13168300  0.42230000  0.48121100  1
  Mg  Mg53  1  0.27872500  0.07770000  0.43078900  1
  Mg  Mg54  1  0.55721300  0.02103200  0.39914400  1
  Mg  Mg55  1  0.15319400  0.47896800  0.41285600  1
  Mg  Mg56  1  0.03946700  0.78013600  0.53946600  1
  Mg  Mg57  1  0.77094000  0.71986400  0.57253400  1
  Mg  Mg58  1  0.39851700  0.55456700  0.51933000  1
  Mg  Mg59  1  0.71189100  0.94543300  0.49267000  1
  Mg  Mg60  1  0.29135900  0.79076000  0.57545100  1
  Mg  Mg61  1  0.51904800  0.70924000  0.53654900  1
  Mg  Mg62  1  0.98168300  0.92230000  0.53121100  1
  Mg  Mg63  1  0.82872500  0.57770000  0.58078900  1
  Mg  Mg64  1  0.10721300  0.52103200  0.54914400  1
  Mg  Mg65  1  0.70319400  0.97896800  0.56285600  1
  Mg  Mg66  1  0.88946700  0.28013600  0.58946600  1
  Mg  Mg67  1  0.92094000  0.21986400  0.52253400  1
  Mg  Mg68  1  0.24851700  0.05456700  0.56933000  1
  Mg  Mg69  1  0.56189100  0.44543300  0.54267000  1
  Mg  Mg70  1  0.44135900  0.29076000  0.52545100  1
  Mg  Mg71  1  0.36904800  0.20924000  0.58654900  1
  Mg  Mg72  1  0.83168300  0.42230000  0.58121100  1
  Mg  Mg73  1  0.97872500  0.07770000  0.53078900  1
  Mg  Mg74  1  0.25721300  0.02103200  0.49914400  1
  Mg  Mg75  1  0.85319400  0.47896800  0.51285600  1
  Mg  Mg76  1  0.73946700  0.78013600  0.63946600  1
  Mg  Mg77  1  0.47094000  0.71986400  0.67253400  1
  Mg  Mg78  1  0.09851700  0.55456700  0.61933000  1
  Mg  Mg79  1  0.41189100  0.94543300  0.59267000  1
  Mg  Mg80  1  0.99135900  0.79076000  0.67545100  1
  Mg  Mg81  1  0.21904800  0.70924000  0.63654900  1
  Mg  Mg82  1  0.68168300  0.92230000  0.63121100  1
  Mg  Mg83  1  0.52872500  0.57770000  0.68078900  1
  Mg  Mg84  1  0.80721300  0.52103200  0.64914400  1
  Mg  Mg85  1  0.40319400  0.97896800  0.66285600  1
  Mg  Mg86  1  0.58946700  0.28013600  0.68946600  1
  Mg  Mg87  1  0.62094000  0.21986400  0.62253400  1
  Mg  Mg88  1  0.94851700  0.05456700  0.66933000  1
  Mg  Mg89  1  0.26189100  0.44543300  0.64267000  1
  Mg  Mg90  1  0.14135900  0.29076000  0.62545100  1
  Mg  Mg91  1  0.06904800  0.20924000  0.68654900  1
  Mg  Mg92  1  0.53168300  0.42230000  0.68121100  1
  Mg  Mg93  1  0.67872500  0.07770000  0.63078900  1
  Mg  Mg94  1  0.95721300  0.02103200  0.59914400  1
  Mg  Mg95  1  0.55319400  0.47896800  0.61285600  1
  Mg  Mg96  1  0.43946700  0.78013600  0.73946600  1
  Mg  Mg97  1  0.17094000  0.71986400  0.77253400  1
  Mg  Mg98  1  0.79851700  0.55456700  0.71933000  1
  Mg  Mg99  1  0.11189100  0.94543300  0.69267000  1
  Mg  Mg100  1  0.69135900  0.79076000  0.77545100  1
  Mg  Mg101  1  0.91904800  0.70924000  0.73654900  1
  Mg  Mg102  1  0.38168300  0.92230000  0.73121100  1
  Mg  Mg103  1  0.22872500  0.57770000  0.78078900  1
  Mg  Mg104  1  0.50721300  0.52103200  0.74914400  1
  Mg  Mg105  1  0.10319400  0.97896800  0.76285600  1
  Mg  Mg106  1  0.28946700  0.28013600  0.78946600  1
  Mg  Mg107  1  0.32094000  0.21986400  0.72253400  1
  Mg  Mg108  1  0.64851700  0.05456700  0.76933000  1
  Mg  Mg109  1  0.96189100  0.44543300  0.74267000  1
  Mg  Mg110  1  0.84135900  0.29076000  0.72545100  1
  Mg  Mg111  1  0.76904800  0.20924000  0.78654900  1
  Mg  Mg112  1  0.23168300  0.42230000  0.78121100  1
  Mg  Mg113  1  0.37872500  0.07770000  0.73078900  1
  Mg  Mg114  1  0.65721300  0.02103200  0.69914400  1
  Mg  Mg115  1  0.25319400  0.47896800  0.71285600  1
  Ir  Ir116  1  0.75002800  0.86887800  0.28383200  1
  Ir  Ir117  1  0.86037900  0.63112200  0.22816800  1
  Ir  Ir118  1  0.96572700  0.66794400  0.27900200  1
  Ir  Ir119  1  0.64468000  0.83205600  0.23299800  1
  Ir  Ir120  1  0.49438800  0.83205600  0.28309600  1
  Ir  Ir121  1  0.11601900  0.66794400  0.22890400  1
  Ir  Ir122  1  0.38020400  0.00000000  0.23100000  1
  Ir  Ir123  1  0.20702300  0.63582800  0.27768800  1
  Ir  Ir124  1  0.40338400  0.86417200  0.23431200  1
  Ir  Ir125  1  0.01715700  0.90923200  0.28398500  1
  Ir  Ir126  1  0.59325000  0.59076800  0.22801500  1
  Ir  Ir127  1  0.45288700  0.59076800  0.27480300  1
  Ir  Ir128  1  0.15752000  0.90923200  0.23719700  1
  Ir  Ir129  1  0.90002800  0.36887800  0.23383200  1
  Ir  Ir130  1  0.71037900  0.13112200  0.27816800  1
  Ir  Ir131  1  0.11572700  0.16794400  0.22900200  1
  Ir  Ir132  1  0.49468000  0.33205600  0.28299800  1
  Ir  Ir133  1  0.64438800  0.33205600  0.23309600  1
  Ir  Ir134  1  0.96601900  0.16794400  0.27890400  1
  Ir  Ir135  1  0.23020400  0.50000000  0.28100000  1
  Ir  Ir136  1  0.55032000  0.21596400  0.25530200  1
  Ir  Ir137  1  0.06008800  0.28403600  0.25669800  1
  Ir  Ir138  1  0.35702300  0.13582800  0.22768800  1
  Ir  Ir139  1  0.25338400  0.36417200  0.28431200  1
  Ir  Ir140  1  0.16715700  0.40923200  0.23398500  1
  Ir  Ir141  1  0.44325000  0.09076800  0.27801500  1
  Ir  Ir142  1  0.60288700  0.09076800  0.22480300  1
  Ir  Ir143  1  0.00752000  0.40923200  0.28719700  1
  Ir  Ir144  1  0.45002800  0.86887800  0.38383200  1
  Ir  Ir145  1  0.56037900  0.63112200  0.32816800  1
  Ir  Ir146  1  0.66572700  0.66794400  0.37900200  1
  Ir  Ir147  1  0.34468000  0.83205600  0.33299800  1
  Ir  Ir148  1  0.19438800  0.83205600  0.38309600  1
  Ir  Ir149  1  0.81601900  0.66794400  0.32890400  1
  Ir  Ir150  1  0.08020400  0.00000000  0.33100000  1
  Ir  Ir151  1  0.40032000  0.71596400  0.30530200  1
  Ir  Ir152  1  0.91008800  0.78403600  0.30669800  1
  Ir  Ir153  1  0.90702300  0.63582800  0.37768800  1
  Ir  Ir154  1  0.10338400  0.86417200  0.33431200  1
  Ir  Ir155  1  0.71715700  0.90923200  0.38398500  1
  Ir  Ir156  1  0.29325000  0.59076800  0.32801500  1
  Ir  Ir157  1  0.15288700  0.59076800  0.37480300  1
  Ir  Ir158  1  0.85752000  0.90923200  0.33719700  1
  Ir  Ir159  1  0.60002800  0.36887800  0.33383200  1
  Ir  Ir160  1  0.41037900  0.13112200  0.37816800  1
  Ir  Ir161  1  0.81572700  0.16794400  0.32900200  1
  Ir  Ir162  1  0.19468000  0.33205600  0.38299800  1
  Ir  Ir163  1  0.34438800  0.33205600  0.33309600  1
  Ir  Ir164  1  0.66601900  0.16794400  0.37890400  1
  Ir  Ir165  1  0.93020400  0.50000000  0.38100000  1
  Ir  Ir166  1  0.25032000  0.21596400  0.35530200  1
  Ir  Ir167  1  0.76008800  0.28403600  0.35669800  1
  Ir  Ir168  1  0.05702300  0.13582800  0.32768800  1
  Ir  Ir169  1  0.95338400  0.36417200  0.38431200  1
  Ir  Ir170  1  0.86715700  0.40923200  0.33398500  1
  Ir  Ir171  1  0.14325000  0.09076800  0.37801500  1
  Ir  Ir172  1  0.30288700  0.09076800  0.32480300  1
  Ir  Ir173  1  0.70752000  0.40923200  0.38719700  1
  Ir  Ir174  1  0.15002800  0.86887800  0.48383200  1
  Ir  Ir175  1  0.26037900  0.63112200  0.42816800  1
  Ir  Ir176  1  0.36572700  0.66794400  0.47900200  1
  Ir  Ir177  1  0.04468000  0.83205600  0.43299800  1
  Ir  Ir178  1  0.89438800  0.83205600  0.48309600  1
  Ir  Ir179  1  0.51601900  0.66794400  0.42890400  1
  Ir  Ir180  1  0.78020400  0.00000000  0.43100000  1
  Ir  Ir181  1  0.10032000  0.71596400  0.40530200  1
  Ir  Ir182  1  0.61008800  0.78403600  0.40669800  1
  Ir  Ir183  1  0.60702300  0.63582800  0.47768800  1
  Ir  Ir184  1  0.80338400  0.86417200  0.43431200  1
  Ir  Ir185  1  0.41715700  0.90923200  0.48398500  1
  Ir  Ir186  1  0.99325000  0.59076800  0.42801500  1
  Ir  Ir187  1  0.85288700  0.59076800  0.47480300  1
  Ir  Ir188  1  0.55752000  0.90923200  0.43719700  1
  Ir  Ir189  1  0.30002800  0.36887800  0.43383200  1
  Ir  Ir190  1  0.11037900  0.13112200  0.47816800  1
  Ir  Ir191  1  0.51572700  0.16794400  0.42900200  1
  Ir  Ir192  1  0.89468000  0.33205600  0.48299800  1
  Ir  Ir193  1  0.04438800  0.33205600  0.43309600  1
  Ir  Ir194  1  0.36601900  0.16794400  0.47890400  1
  Ir  Ir195  1  0.63020400  0.50000000  0.48100000  1
  Ir  Ir196  1  0.95032000  0.21596400  0.45530200  1
  Ir  Ir197  1  0.46008800  0.28403600  0.45669800  1
  Ir  Ir198  1  0.75702300  0.13582800  0.42768800  1
  Ir  Ir199  1  0.65338400  0.36417200  0.48431200  1
  Ir  Ir200  1  0.56715700  0.40923200  0.43398500  1
  Ir  Ir201  1  0.84325000  0.09076800  0.47801500  1
  Ir  Ir202  1  0.00288700  0.09076800  0.42480300  1
  Ir  Ir203  1  0.40752000  0.40923200  0.48719700  1
  Ir  Ir204  1  0.85002800  0.86887800  0.58383200  1
  Ir  Ir205  1  0.96037900  0.63112200  0.52816800  1
  Ir  Ir206  1  0.06572700  0.66794400  0.57900200  1
  Ir  Ir207  1  0.74468000  0.83205600  0.53299800  1
  Ir  Ir208  1  0.59438800  0.83205600  0.58309600  1
  Ir  Ir209  1  0.21601900  0.66794400  0.52890400  1
  Ir  Ir210  1  0.48020400  0.00000000  0.53100000  1
  Ir  Ir211  1  0.80032000  0.71596400  0.50530200  1
  Ir  Ir212  1  0.31008800  0.78403600  0.50669800  1
  Ir  Ir213  1  0.30702300  0.63582800  0.57768800  1
  Ir  Ir214  1  0.50338400  0.86417200  0.53431200  1
  Ir  Ir215  1  0.11715700  0.90923200  0.58398500  1
  Ir  Ir216  1  0.69325000  0.59076800  0.52801500  1
  Ir  Ir217  1  0.55288700  0.59076800  0.57480300  1
  Ir  Ir218  1  0.25752000  0.90923200  0.53719700  1
  Ir  Ir219  1  0.00002800  0.36887800  0.53383200  1
  Ir  Ir220  1  0.81037900  0.13112200  0.57816800  1
  Ir  Ir221  1  0.21572700  0.16794400  0.52900200  1
  Ir  Ir222  1  0.59468000  0.33205600  0.58299800  1
  Ir  Ir223  1  0.74438800  0.33205600  0.53309600  1
  Ir  Ir224  1  0.06601900  0.16794400  0.57890400  1
  Ir  Ir225  1  0.33020400  0.50000000  0.58100000  1
  Ir  Ir226  1  0.65032000  0.21596400  0.55530200  1
  Ir  Ir227  1  0.16008800  0.28403600  0.55669800  1
  Ir  Ir228  1  0.45702300  0.13582800  0.52768800  1
  Ir  Ir229  1  0.35338400  0.36417200  0.58431200  1
  Ir  Ir230  1  0.26715700  0.40923200  0.53398500  1
  Ir  Ir231  1  0.54325000  0.09076800  0.57801500  1
  Ir  Ir232  1  0.70288700  0.09076800  0.52480300  1
  Ir  Ir233  1  0.10752000  0.40923200  0.58719700  1
  Ir  Ir234  1  0.55002800  0.86887800  0.68383200  1
  Ir  Ir235  1  0.66037900  0.63112200  0.62816800  1
  Ir  Ir236  1  0.76572700  0.66794400  0.67900200  1
  Ir  Ir237  1  0.44468000  0.83205600  0.63299800  1
  Ir  Ir238  1  0.29438800  0.83205600  0.68309600  1
  Ir  Ir239  1  0.91601900  0.66794400  0.62890400  1
  Ir  Ir240  1  0.18020400  0.00000000  0.63100000  1
  Ir  Ir241  1  0.50032000  0.71596400  0.60530200  1
  Ir  Ir242  1  0.01008800  0.78403600  0.60669800  1
  Ir  Ir243  1  0.00702300  0.63582800  0.67768800  1
  Ir  Ir244  1  0.20338400  0.86417200  0.63431200  1
  Ir  Ir245  1  0.81715700  0.90923200  0.68398500  1
  Ir  Ir246  1  0.39325000  0.59076800  0.62801500  1
  Ir  Ir247  1  0.25288700  0.59076800  0.67480300  1
  Ir  Ir248  1  0.95752000  0.90923200  0.63719700  1
  Ir  Ir249  1  0.70002800  0.36887800  0.63383200  1
  Ir  Ir250  1  0.51037900  0.13112200  0.67816800  1
  Ir  Ir251  1  0.91572700  0.16794400  0.62900200  1
  Ir  Ir252  1  0.29468000  0.33205600  0.68299800  1
  Ir  Ir253  1  0.44438800  0.33205600  0.63309600  1
  Ir  Ir254  1  0.76601900  0.16794400  0.67890400  1
  Ir  Ir255  1  0.03020400  0.50000000  0.68100000  1
  Ir  Ir256  1  0.35032000  0.21596400  0.65530200  1
  Ir  Ir257  1  0.86008800  0.28403600  0.65669800  1
  Ir  Ir258  1  0.15702300  0.13582800  0.62768800  1
  Ir  Ir259  1  0.05338400  0.36417200  0.68431200  1
  Ir  Ir260  1  0.96715700  0.40923200  0.63398500  1
  Ir  Ir261  1  0.24325000  0.09076800  0.67801500  1
  Ir  Ir262  1  0.40288700  0.09076800  0.62480300  1
  Ir  Ir263  1  0.80752000  0.40923200  0.68719700  1
  Ir  Ir264  1  0.25002800  0.86887800  0.78383200  1
  Ir  Ir265  1  0.36037900  0.63112200  0.72816800  1
  Ir  Ir266  1  0.46572700  0.66794400  0.77900200  1
  Ir  Ir267  1  0.14468000  0.83205600  0.73299800  1
  Ir  Ir268  1  0.99438800  0.83205600  0.78309600  1
  Ir  Ir269  1  0.61601900  0.66794400  0.72890400  1
  Ir  Ir270  1  0.88020400  0.00000000  0.73100000  1
  Ir  Ir271  1  0.20032000  0.71596400  0.70530200  1
  Ir  Ir272  1  0.71008800  0.78403600  0.70669800  1
  Ir  Ir273  1  0.70702300  0.63582800  0.77768800  1
  Ir  Ir274  1  0.90338400  0.86417200  0.73431200  1
  Ir  Ir275  1  0.51715700  0.90923200  0.78398500  1
  Ir  Ir276  1  0.09325000  0.59076800  0.72801500  1
  Ir  Ir277  1  0.95288700  0.59076800  0.77480300  1
  Ir  Ir278  1  0.65752000  0.90923200  0.73719700  1
  Ir  Ir279  1  0.40002800  0.36887800  0.73383200  1
  Ir  Ir280  1  0.21037900  0.13112200  0.77816800  1
  Ir  Ir281  1  0.61572700  0.16794400  0.72900200  1
  Ir  Ir282  1  0.99468000  0.33205600  0.78299800  1
  Ir  Ir283  1  0.14438800  0.33205600  0.73309600  1
  Ir  Ir284  1  0.46601900  0.16794400  0.77890400  1
  Ir  Ir285  1  0.73020400  0.50000000  0.78100000  1
  Ir  Ir286  1  0.05032000  0.21596400  0.75530200  1
  Ir  Ir287  1  0.56008800  0.28403600  0.75669800  1
  Ir  Ir288  1  0.85702300  0.13582800  0.72768800  1
  Ir  Ir289  1  0.75338400  0.36417200  0.78431200  1
  Ir  Ir290  1  0.66715700  0.40923200  0.73398500  1
  Ir  Ir291  1  0.94325000  0.09076800  0.77801500  1
  Ir  Ir292  1  0.10288700  0.09076800  0.72480300  1
  Ir  Ir293  1  0.50752000  0.40923200  0.78719700  1
