# generated using pymatgen
data_Mg120Zn209
_symmetry_space_group_name_H-M   'P 1'
_cell_length_a   13.26606255
_cell_length_b   15.58232770
_cell_length_c   46.38065300
_cell_angle_alpha   94.29618326
_cell_angle_beta   88.49627591
_cell_angle_gamma   99.94210053
_symmetry_Int_Tables_number   1
_chemical_formula_structural   Mg120Zn209
_chemical_formula_sum   'Mg120 Zn209'
_cell_volume   9416.24935325
_cell_formula_units_Z   1
loop_
 _symmetry_equiv_pos_site_id
 _symmetry_equiv_pos_as_xyz
  1  'x, y, z'
loop_
 _atom_site_type_symbol
 _atom_site_label
 _atom_site_symmetry_multiplicity
 _atom_site_fract_x
 _atom_site_fract_y
 _atom_site_fract_z
 _atom_site_occupancy
  Mg  Mg0  1  0.66787900  0.81869400  0.27847100  1
  Mg  Mg1  1  0.99045700  0.63464800  0.27612200  1
  Mg  Mg2  1  0.54094800  0.28348600  0.26617600  1
  Mg  Mg3  1  0.84068300  0.91322800  0.24053500  1
  Mg  Mg4  1  0.95714800  0.58998400  0.20951600  1
  Mg  Mg5  1  0.48705500  0.94335700  0.28204100  1
  Mg  Mg6  1  0.62122600  0.47923600  0.29465400  1
  Mg  Mg7  1  0.05218900  0.97964400  0.26128300  1
  Mg  Mg8  1  0.58993100  0.62275200  0.25077800  1
  Mg  Mg9  1  0.93572400  0.30288800  0.29230200  1
  Mg  Mg10  1  0.35192300  0.60938500  0.23564200  1
  Mg  Mg11  1  0.30294100  0.27012000  0.25104000  1
  Mg  Mg12  1  0.91873300  0.81003600  0.29222100  1
  Mg  Mg13  1  0.66880500  0.23837900  0.21013600  1
  Mg  Mg14  1  0.22406600  0.65449200  0.29168200  1
  Mg  Mg15  1  0.27164500  0.41363600  0.20716400  1
  Mg  Mg16  1  0.22499200  0.07417800  0.22334700  1
  Mg  Mg17  1  0.40581700  0.94951500  0.21977700  1
  Mg  Mg18  1  0.90241400  0.25822400  0.22569600  1
  Mg  Mg19  1  0.97413900  0.08283600  0.20959700  1
  Mg  Mg20  1  0.56787900  0.71869400  0.37847100  1
  Mg  Mg21  1  0.89045700  0.53464800  0.37612200  1
  Mg  Mg22  1  0.44094800  0.18348600  0.36617600  1
  Mg  Mg23  1  0.74068300  0.81322800  0.34053500  1
  Mg  Mg24  1  0.85714800  0.48998400  0.30951600  1
  Mg  Mg25  1  0.38705500  0.84335700  0.38204100  1
  Mg  Mg26  1  0.52122600  0.37923600  0.39465400  1
  Mg  Mg27  1  0.95218900  0.87964400  0.36128300  1
  Mg  Mg28  1  0.48993100  0.52275200  0.35077800  1
  Mg  Mg29  1  0.83572400  0.20288800  0.39230200  1
  Mg  Mg30  1  0.25192300  0.50938500  0.33564200  1
  Mg  Mg31  1  0.20294100  0.17012000  0.35104000  1
  Mg  Mg32  1  0.81873300  0.71003600  0.39222100  1
  Mg  Mg33  1  0.56880500  0.13837900  0.31013600  1
  Mg  Mg34  1  0.12406600  0.55449200  0.39168200  1
  Mg  Mg35  1  0.17164500  0.31363600  0.30716400  1
  Mg  Mg36  1  0.12499200  0.97417800  0.32334700  1
  Mg  Mg37  1  0.30581700  0.84951500  0.31977700  1
  Mg  Mg38  1  0.80241400  0.15822400  0.32569600  1
  Mg  Mg39  1  0.87413900  0.98283600  0.30959700  1
  Mg  Mg40  1  0.46787900  0.61869400  0.47847100  1
  Mg  Mg41  1  0.79045700  0.43464800  0.47612200  1
  Mg  Mg42  1  0.34094800  0.08348600  0.46617600  1
  Mg  Mg43  1  0.64068300  0.71322800  0.44053500  1
  Mg  Mg44  1  0.75714800  0.38998400  0.40951600  1
  Mg  Mg45  1  0.28705500  0.74335700  0.48204100  1
  Mg  Mg46  1  0.42122600  0.27923600  0.49465400  1
  Mg  Mg47  1  0.85218900  0.77964400  0.46128300  1
  Mg  Mg48  1  0.38993100  0.42275200  0.45077800  1
  Mg  Mg49  1  0.73572400  0.10288800  0.49230200  1
  Mg  Mg50  1  0.15192300  0.40938500  0.43564200  1
  Mg  Mg51  1  0.10294100  0.07012000  0.45104000  1
  Mg  Mg52  1  0.71873300  0.61003600  0.49222100  1
  Mg  Mg53  1  0.46880500  0.03837900  0.41013600  1
  Mg  Mg54  1  0.02406600  0.45449200  0.49168200  1
  Mg  Mg55  1  0.07164500  0.21363600  0.40716400  1
  Mg  Mg56  1  0.02499200  0.87417800  0.42334700  1
  Mg  Mg57  1  0.20581700  0.74951500  0.41977700  1
  Mg  Mg58  1  0.70241400  0.05822400  0.42569600  1
  Mg  Mg59  1  0.77413900  0.88283600  0.40959700  1
  Mg  Mg60  1  0.36787900  0.51869400  0.57847100  1
  Mg  Mg61  1  0.69045700  0.33464800  0.57612200  1
  Mg  Mg62  1  0.24094800  0.98348600  0.56617600  1
  Mg  Mg63  1  0.54068300  0.61322800  0.54053500  1
  Mg  Mg64  1  0.65714800  0.28998400  0.50951600  1
  Mg  Mg65  1  0.18705500  0.64335700  0.58204100  1
  Mg  Mg66  1  0.32122600  0.17923600  0.59465400  1
  Mg  Mg67  1  0.75218900  0.67964400  0.56128300  1
  Mg  Mg68  1  0.28993100  0.32275200  0.55077800  1
  Mg  Mg69  1  0.63572400  0.00288800  0.59230200  1
  Mg  Mg70  1  0.05192300  0.30938500  0.53564200  1
  Mg  Mg71  1  0.00294100  0.97012000  0.55104000  1
  Mg  Mg72  1  0.61873300  0.51003600  0.59222100  1
  Mg  Mg73  1  0.36880500  0.93837900  0.51013600  1
  Mg  Mg74  1  0.92406600  0.35449200  0.59168200  1
  Mg  Mg75  1  0.97164500  0.11363600  0.50716400  1
  Mg  Mg76  1  0.92499200  0.77417800  0.52334700  1
  Mg  Mg77  1  0.10581700  0.64951500  0.51977700  1
  Mg  Mg78  1  0.60241400  0.95822400  0.52569600  1
  Mg  Mg79  1  0.67413900  0.78283600  0.50959700  1
  Mg  Mg80  1  0.26787900  0.41869400  0.67847100  1
  Mg  Mg81  1  0.59045700  0.23464800  0.67612200  1
  Mg  Mg82  1  0.14094800  0.88348600  0.66617600  1
  Mg  Mg83  1  0.44068300  0.51322800  0.64053500  1
  Mg  Mg84  1  0.55714800  0.18998400  0.60951600  1
  Mg  Mg85  1  0.08705500  0.54335700  0.68204100  1
  Mg  Mg86  1  0.22122600  0.07923600  0.69465400  1
  Mg  Mg87  1  0.65218900  0.57964400  0.66128300  1
  Mg  Mg88  1  0.18993100  0.22275200  0.65077800  1
  Mg  Mg89  1  0.53572400  0.90288800  0.69230200  1
  Mg  Mg90  1  0.95192300  0.20938500  0.63564200  1
  Mg  Mg91  1  0.90294100  0.87012000  0.65104000  1
  Mg  Mg92  1  0.51873300  0.41003600  0.69222100  1
  Mg  Mg93  1  0.26880500  0.83837900  0.61013600  1
  Mg  Mg94  1  0.82406600  0.25449200  0.69168200  1
  Mg  Mg95  1  0.87164500  0.01363600  0.60716400  1
  Mg  Mg96  1  0.82499200  0.67417800  0.62334700  1
  Mg  Mg97  1  0.00581700  0.54951500  0.61977700  1
  Mg  Mg98  1  0.50241400  0.85822400  0.62569600  1
  Mg  Mg99  1  0.57413900  0.68283600  0.60959700  1
  Mg  Mg100  1  0.16787900  0.31869400  0.77847100  1
  Mg  Mg101  1  0.49045700  0.13464800  0.77612200  1
  Mg  Mg102  1  0.04094800  0.78348600  0.76617600  1
  Mg  Mg103  1  0.34068300  0.41322800  0.74053500  1
  Mg  Mg104  1  0.45714800  0.08998400  0.70951600  1
  Mg  Mg105  1  0.98705500  0.44335700  0.78204100  1
  Mg  Mg106  1  0.12122600  0.97923600  0.79465400  1
  Mg  Mg107  1  0.55218900  0.47964400  0.76128300  1
  Mg  Mg108  1  0.08993100  0.12275200  0.75077800  1
  Mg  Mg109  1  0.43572400  0.80288800  0.79230200  1
  Mg  Mg110  1  0.85192300  0.10938500  0.73564200  1
  Mg  Mg111  1  0.80294100  0.77012000  0.75104000  1
  Mg  Mg112  1  0.41873300  0.31003600  0.79222100  1
  Mg  Mg113  1  0.16880500  0.73837900  0.71013600  1
  Mg  Mg114  1  0.72406600  0.15449200  0.79168200  1
  Mg  Mg115  1  0.77164500  0.91363600  0.70716400  1
  Mg  Mg116  1  0.72499200  0.57417800  0.72334700  1
  Mg  Mg117  1  0.90581700  0.44951500  0.71977700  1
  Mg  Mg118  1  0.40241400  0.75822400  0.72569600  1
  Mg  Mg119  1  0.47413900  0.58283600  0.70959700  1
  Zn  Zn120  1  0.79354200  0.53662600  0.25300800  1
  Zn  Zn121  1  0.99859400  0.78022400  0.23450900  1
  Zn  Zn122  1  0.41841100  0.56767500  0.29252200  1
  Zn  Zn123  1  0.13403900  0.23761800  0.20803800  1
  Zn  Zn124  1  0.08291200  0.48111100  0.29299800  1
  Zn  Zn125  1  0.81248600  0.70359400  0.24421900  1
  Zn  Zn126  1  0.09933000  0.35624500  0.24881000  1
  Zn  Zn127  1  0.31644500  0.80438400  0.25586700  1
  Zn  Zn128  1  0.75897200  0.36103700  0.25943100  1
  Zn  Zn129  1  0.49297700  0.78658000  0.23524100  1
  Zn  Zn130  1  0.62590000  0.93028400  0.23025700  1
  Zn  Zn131  1  0.62963200  0.43308900  0.23065400  1
  Zn  Zn132  1  0.73860200  0.19740600  0.26756100  1
  Zn  Zn133  1  0.89427800  0.11264800  0.26731000  1
  Zn  Zn134  1  0.57642700  0.08848800  0.24595100  1
  Zn  Zn135  1  0.76126700  0.07262700  0.22437400  1
  Zn  Zn136  1  0.13390000  0.53183500  0.24238700  1
  Zn  Zn137  1  0.08038500  0.18927700  0.25759900  1
  Zn  Zn138  1  0.26324000  0.45978200  0.27116400  1
  Zn  Zn139  1  0.13160500  0.82024400  0.27744400  1
  Zn  Zn140  1  0.80996000  0.41176100  0.20882000  1
  Zn  Zn141  1  0.44643600  0.44643600  0.25090900  1
  Zn  Zn142  1  0.67969600  0.76710800  0.21477400  1
  Zn  Zn143  1  0.44190100  0.73753500  0.28481200  1
  Zn  Zn144  1  0.71261800  0.01951900  0.27566500  1
  Zn  Zn145  1  0.21317600  0.12576300  0.28704400  1
  Zn  Zn146  1  0.18025300  0.87335300  0.22615400  1
  Zn  Zn147  1  0.15426900  0.69546500  0.23425700  1
  Zn  Zn148  1  0.45097100  0.15533700  0.21700600  1
  Zn  Zn149  1  0.75883200  0.65525300  0.29378100  1
  Zn  Zn150  1  0.94643600  0.44643600  0.25090900  1
  Zn  Zn151  1  0.39989400  0.10629200  0.26657700  1
  Zn  Zn152  1  0.26697100  0.96258700  0.27156100  1
  Zn  Zn153  1  0.47446000  0.32519700  0.20929600  1
  Zn  Zn154  1  0.69354200  0.43662600  0.35300800  1
  Zn  Zn155  1  0.89859400  0.68022400  0.33450900  1
  Zn  Zn156  1  0.31841100  0.46767500  0.39252200  1
  Zn  Zn157  1  0.03403900  0.13761800  0.30803800  1
  Zn  Zn158  1  0.98291200  0.38111100  0.39299800  1
  Zn  Zn159  1  0.71248600  0.60359400  0.34421900  1
  Zn  Zn160  1  0.39643600  0.39643600  0.30090900  1
  Zn  Zn161  1  0.99933000  0.25624500  0.34881000  1
  Zn  Zn162  1  0.21644500  0.70438400  0.35586700  1
  Zn  Zn163  1  0.65897200  0.26103700  0.35943100  1
  Zn  Zn164  1  0.39297700  0.68658000  0.33524100  1
  Zn  Zn165  1  0.52590000  0.83028400  0.33025700  1
  Zn  Zn166  1  0.52963200  0.33308900  0.33065400  1
  Zn  Zn167  1  0.63860200  0.09740600  0.36756100  1
  Zn  Zn168  1  0.79427800  0.01264800  0.36731000  1
  Zn  Zn169  1  0.47642700  0.98848800  0.34595100  1
  Zn  Zn170  1  0.66126700  0.97262700  0.32437400  1
  Zn  Zn171  1  0.03390000  0.43183500  0.34238700  1
  Zn  Zn172  1  0.98038500  0.08927700  0.35759900  1
  Zn  Zn173  1  0.16324000  0.35978200  0.37116400  1
  Zn  Zn174  1  0.03160500  0.72024400  0.37744400  1
  Zn  Zn175  1  0.70996000  0.31176100  0.30882000  1
  Zn  Zn176  1  0.34643600  0.34643600  0.35090900  1
  Zn  Zn177  1  0.57969600  0.66710800  0.31477400  1
  Zn  Zn178  1  0.34190100  0.63753500  0.38481200  1
  Zn  Zn179  1  0.61261800  0.91951900  0.37566500  1
  Zn  Zn180  1  0.11317600  0.02576300  0.38704400  1
  Zn  Zn181  1  0.08025300  0.77335300  0.32615400  1
  Zn  Zn182  1  0.05426900  0.59546500  0.33425700  1
  Zn  Zn183  1  0.35097100  0.05533700  0.31700600  1
  Zn  Zn184  1  0.65883200  0.55525300  0.39378100  1
  Zn  Zn185  1  0.84643600  0.34643600  0.35090900  1
  Zn  Zn186  1  0.29989400  0.00629200  0.36657700  1
  Zn  Zn187  1  0.16697100  0.86258700  0.37156100  1
  Zn  Zn188  1  0.37446000  0.22519700  0.30929600  1
  Zn  Zn189  1  0.59354200  0.33662600  0.45300800  1
  Zn  Zn190  1  0.79859400  0.58022400  0.43450900  1
  Zn  Zn191  1  0.21841100  0.36767500  0.49252200  1
  Zn  Zn192  1  0.93403900  0.03761800  0.40803800  1
  Zn  Zn193  1  0.88291200  0.28111100  0.49299800  1
  Zn  Zn194  1  0.61248600  0.50359400  0.44421900  1
  Zn  Zn195  1  0.29643600  0.29643600  0.40090900  1
  Zn  Zn196  1  0.89933000  0.15624500  0.44881000  1
  Zn  Zn197  1  0.11644500  0.60438400  0.45586700  1
  Zn  Zn198  1  0.55897200  0.16103700  0.45943100  1
  Zn  Zn199  1  0.29297700  0.58658000  0.43524100  1
  Zn  Zn200  1  0.42590000  0.73028400  0.43025700  1
  Zn  Zn201  1  0.42963200  0.23308900  0.43065400  1
  Zn  Zn202  1  0.53860200  0.99740600  0.46756100  1
  Zn  Zn203  1  0.69427800  0.91264800  0.46731000  1
  Zn  Zn204  1  0.37642700  0.88848800  0.44595100  1
  Zn  Zn205  1  0.56126700  0.87262700  0.42437400  1
  Zn  Zn206  1  0.93390000  0.33183500  0.44238700  1
  Zn  Zn207  1  0.88038500  0.98927700  0.45759900  1
  Zn  Zn208  1  0.06324000  0.25978200  0.47116400  1
  Zn  Zn209  1  0.93160500  0.62024400  0.47744400  1
  Zn  Zn210  1  0.60996000  0.21176100  0.40882000  1
  Zn  Zn211  1  0.24643600  0.24643600  0.45090900  1
  Zn  Zn212  1  0.47969600  0.56710800  0.41477400  1
  Zn  Zn213  1  0.24190100  0.53753500  0.48481200  1
  Zn  Zn214  1  0.51261800  0.81951900  0.47566500  1
  Zn  Zn215  1  0.01317600  0.92576300  0.48704400  1
  Zn  Zn216  1  0.98025300  0.67335300  0.42615400  1
  Zn  Zn217  1  0.95426900  0.49546500  0.43425700  1
  Zn  Zn218  1  0.25097100  0.95533700  0.41700600  1
  Zn  Zn219  1  0.55883200  0.45525300  0.49378100  1
  Zn  Zn220  1  0.74643600  0.24643600  0.45090900  1
  Zn  Zn221  1  0.19989400  0.90629200  0.46657700  1
  Zn  Zn222  1  0.06697100  0.76258700  0.47156100  1
  Zn  Zn223  1  0.27446000  0.12519700  0.40929600  1
  Zn  Zn224  1  0.49354200  0.23662600  0.55300800  1
  Zn  Zn225  1  0.69859400  0.48022400  0.53450900  1
  Zn  Zn226  1  0.11841100  0.26767500  0.59252200  1
  Zn  Zn227  1  0.83403900  0.93761800  0.50803800  1
  Zn  Zn228  1  0.78291200  0.18111100  0.59299800  1
  Zn  Zn229  1  0.51248600  0.40359400  0.54421900  1
  Zn  Zn230  1  0.19643600  0.19643600  0.50090900  1
  Zn  Zn231  1  0.79933000  0.05624500  0.54881000  1
  Zn  Zn232  1  0.01644500  0.50438400  0.55586700  1
  Zn  Zn233  1  0.45897200  0.06103700  0.55943100  1
  Zn  Zn234  1  0.19297700  0.48658000  0.53524100  1
  Zn  Zn235  1  0.32590000  0.63028400  0.53025700  1
  Zn  Zn236  1  0.32963200  0.13308900  0.53065400  1
  Zn  Zn237  1  0.43860200  0.89740600  0.56756100  1
  Zn  Zn238  1  0.59427800  0.81264800  0.56731000  1
  Zn  Zn239  1  0.27642700  0.78848800  0.54595100  1
  Zn  Zn240  1  0.46126700  0.77262700  0.52437400  1
  Zn  Zn241  1  0.83390000  0.23183500  0.54238700  1
  Zn  Zn242  1  0.78038500  0.88927700  0.55759900  1
  Zn  Zn243  1  0.96324000  0.15978200  0.57116400  1
  Zn  Zn244  1  0.83160500  0.52024400  0.57744400  1
  Zn  Zn245  1  0.50996000  0.11176100  0.50882000  1
  Zn  Zn246  1  0.14643600  0.14643600  0.55090900  1
  Zn  Zn247  1  0.37969600  0.46710800  0.51477400  1
  Zn  Zn248  1  0.14190100  0.43753500  0.58481200  1
  Zn  Zn249  1  0.41261800  0.71951900  0.57566500  1
  Zn  Zn250  1  0.91317600  0.82576300  0.58704400  1
  Zn  Zn251  1  0.88025300  0.57335300  0.52615400  1
  Zn  Zn252  1  0.85426900  0.39546500  0.53425700  1
  Zn  Zn253  1  0.15097100  0.85533700  0.51700600  1
  Zn  Zn254  1  0.45883200  0.35525300  0.59378100  1
  Zn  Zn255  1  0.64643600  0.14643600  0.55090900  1
  Zn  Zn256  1  0.09989400  0.80629200  0.56657700  1
  Zn  Zn257  1  0.96697100  0.66258700  0.57156100  1
  Zn  Zn258  1  0.17446000  0.02519700  0.50929600  1
  Zn  Zn259  1  0.39354200  0.13662600  0.65300800  1
  Zn  Zn260  1  0.59859400  0.38022400  0.63450900  1
  Zn  Zn261  1  0.01841100  0.16767500  0.69252200  1
  Zn  Zn262  1  0.73403900  0.83761800  0.60803800  1
  Zn  Zn263  1  0.68291200  0.08111100  0.69299800  1
  Zn  Zn264  1  0.41248600  0.30359400  0.64421900  1
  Zn  Zn265  1  0.09643600  0.09643600  0.60090900  1
  Zn  Zn266  1  0.69933000  0.95624500  0.64881000  1
  Zn  Zn267  1  0.91644500  0.40438400  0.65586700  1
  Zn  Zn268  1  0.35897200  0.96103700  0.65943100  1
  Zn  Zn269  1  0.09297700  0.38658000  0.63524100  1
  Zn  Zn270  1  0.22590000  0.53028400  0.63025700  1
  Zn  Zn271  1  0.22963200  0.03308900  0.63065400  1
  Zn  Zn272  1  0.33860200  0.79740600  0.66756100  1
  Zn  Zn273  1  0.49427800  0.71264800  0.66731000  1
  Zn  Zn274  1  0.17642700  0.68848800  0.64595100  1
  Zn  Zn275  1  0.36126700  0.67262700  0.62437400  1
  Zn  Zn276  1  0.73390000  0.13183500  0.64238700  1
  Zn  Zn277  1  0.68038500  0.78927700  0.65759900  1
  Zn  Zn278  1  0.86324000  0.05978200  0.67116400  1
  Zn  Zn279  1  0.73160500  0.42024400  0.67744400  1
  Zn  Zn280  1  0.40996000  0.01176100  0.60882000  1
  Zn  Zn281  1  0.04643600  0.04643600  0.65090900  1
  Zn  Zn282  1  0.27969600  0.36710800  0.61477400  1
  Zn  Zn283  1  0.04190100  0.33753500  0.68481200  1
  Zn  Zn284  1  0.31261800  0.61951900  0.67566500  1
  Zn  Zn285  1  0.81317600  0.72576300  0.68704400  1
  Zn  Zn286  1  0.78025300  0.47335300  0.62615400  1
  Zn  Zn287  1  0.75426900  0.29546500  0.63425700  1
  Zn  Zn288  1  0.05097100  0.75533700  0.61700600  1
  Zn  Zn289  1  0.35883200  0.25525300  0.69378100  1
  Zn  Zn290  1  0.54643600  0.04643600  0.65090900  1
  Zn  Zn291  1  0.99989400  0.70629200  0.66657700  1
  Zn  Zn292  1  0.86697100  0.56258700  0.67156100  1
  Zn  Zn293  1  0.07446000  0.92519700  0.60929600  1
  Zn  Zn294  1  0.29354200  0.03662600  0.75300800  1
  Zn  Zn295  1  0.49859400  0.28022400  0.73450900  1
  Zn  Zn296  1  0.91841100  0.06767500  0.79252200  1
  Zn  Zn297  1  0.63403900  0.73761800  0.70803800  1
  Zn  Zn298  1  0.58291200  0.98111100  0.79299800  1
  Zn  Zn299  1  0.31248600  0.20359400  0.74421900  1
  Zn  Zn300  1  0.99643600  0.99643600  0.70090900  1
  Zn  Zn301  1  0.59933000  0.85624500  0.74881000  1
  Zn  Zn302  1  0.81644500  0.30438400  0.75586700  1
  Zn  Zn303  1  0.25897200  0.86103700  0.75943100  1
  Zn  Zn304  1  0.99297700  0.28658000  0.73524100  1
  Zn  Zn305  1  0.12590000  0.43028400  0.73025700  1
  Zn  Zn306  1  0.12963200  0.93308900  0.73065400  1
  Zn  Zn307  1  0.23860200  0.69740600  0.76756100  1
  Zn  Zn308  1  0.39427800  0.61264800  0.76731000  1
  Zn  Zn309  1  0.07642700  0.58848800  0.74595100  1
  Zn  Zn310  1  0.26126700  0.57262700  0.72437400  1
  Zn  Zn311  1  0.63390000  0.03183500  0.74238700  1
  Zn  Zn312  1  0.58038500  0.68927700  0.75759900  1
  Zn  Zn313  1  0.76324000  0.95978200  0.77116400  1
  Zn  Zn314  1  0.63160500  0.32024400  0.77744400  1
  Zn  Zn315  1  0.30996000  0.91176100  0.70882000  1
  Zn  Zn316  1  0.94643600  0.94643600  0.75090900  1
  Zn  Zn317  1  0.17969600  0.26710800  0.71477400  1
  Zn  Zn318  1  0.94190100  0.23753500  0.78481200  1
  Zn  Zn319  1  0.21261800  0.51951900  0.77566500  1
  Zn  Zn320  1  0.71317600  0.62576300  0.78704400  1
  Zn  Zn321  1  0.68025300  0.37335300  0.72615400  1
  Zn  Zn322  1  0.65426900  0.19546500  0.73425700  1
  Zn  Zn323  1  0.95097100  0.65533700  0.71700600  1
  Zn  Zn324  1  0.25883200  0.15525300  0.79378100  1
  Zn  Zn325  1  0.44643600  0.94643600  0.75090900  1
  Zn  Zn326  1  0.89989400  0.60629200  0.76657700  1
  Zn  Zn327  1  0.76697100  0.46258700  0.77156100  1
  Zn  Zn328  1  0.97446000  0.82519700  0.70929600  1
