# generated using pymatgen
data_Mg39Si22
_symmetry_space_group_name_H-M   'P 1'
_cell_length_a   7.16868100
_cell_length_b   12.34156200
_cell_length_c   49.66607700
_cell_angle_alpha   90.00000000
_cell_angle_beta   90.00000000
_cell_angle_gamma   90.00000000
_symmetry_Int_Tables_number   1
_chemical_formula_structural   Mg39Si22
_chemical_formula_sum   'Mg78 Si44'
_cell_volume   4394.09297457
_cell_formula_units_Z   2
loop_
 _symmetry_equiv_pos_site_id
 _symmetry_equiv_pos_as_xyz
  1  'x, y, z'
loop_
 _atom_site_type_symbol
 _atom_site_label
 _atom_site_symmetry_multiplicity
 _atom_site_fract_x
 _atom_site_fract_y
 _atom_site_fract_z
 _atom_site_occupancy
  Mg  Mg0  1  0.94963600  0.58295800  0.30072900  1
  Mg  Mg1  1  0.22336800  0.08295800  0.27962900  1
  Mg  Mg2  1  0.22336800  0.41704200  0.27962900  1
  Mg  Mg3  1  0.94963600  0.91704200  0.30072900  1
  Mg  Mg4  1  0.89640300  0.25000000  0.29920500  1
  Mg  Mg5  1  0.27660100  0.75000000  0.28115200  1
  Mg  Mg6  1  0.33136900  0.08295800  0.37506200  1
  Mg  Mg7  1  0.96823500  0.58295800  0.36451200  1
  Mg  Mg8  1  0.44963600  0.58295800  0.42572900  1
  Mg  Mg9  1  0.72336800  0.08295800  0.40462900  1
  Mg  Mg10  1  0.70476900  0.08295800  0.34084500  1
  Mg  Mg11  1  0.34163500  0.58295800  0.33029500  1
  Mg  Mg12  1  0.34163500  0.91704200  0.33029500  1
  Mg  Mg13  1  0.70476900  0.41704200  0.34084500  1
  Mg  Mg14  1  0.72336800  0.41704200  0.40462900  1
  Mg  Mg15  1  0.44963600  0.91704200  0.42572900  1
  Mg  Mg16  1  0.96823500  0.91704200  0.36451200  1
  Mg  Mg17  1  0.33136900  0.41704200  0.37506200  1
  Mg  Mg18  1  0.29561200  0.75000000  0.38095400  1
  Mg  Mg19  1  0.98571100  0.25000000  0.37192800  1
  Mg  Mg20  1  0.39640300  0.25000000  0.42420500  1
  Mg  Mg21  1  0.77660100  0.75000000  0.40615200  1
  Mg  Mg22  1  0.68729300  0.75000000  0.33343000  1
  Mg  Mg23  1  0.37739200  0.25000000  0.32440300  1
  Mg  Mg24  1  0.83136900  0.08295800  0.50006200  1
  Mg  Mg25  1  0.46823500  0.58295800  0.48951200  1
  Mg  Mg26  1  0.94963600  0.58295800  0.55072900  1
  Mg  Mg27  1  0.22336800  0.08295800  0.52962900  1
  Mg  Mg28  1  0.20476900  0.08295800  0.46584500  1
  Mg  Mg29  1  0.84163500  0.58295800  0.45529500  1
  Mg  Mg30  1  0.84163500  0.91704200  0.45529500  1
  Mg  Mg31  1  0.20476900  0.41704200  0.46584500  1
  Mg  Mg32  1  0.22336800  0.41704200  0.52962900  1
  Mg  Mg33  1  0.94963600  0.91704200  0.55072900  1
  Mg  Mg34  1  0.46823500  0.91704200  0.48951200  1
  Mg  Mg35  1  0.83136900  0.41704200  0.50006200  1
  Mg  Mg36  1  0.79561200  0.75000000  0.50595400  1
  Mg  Mg37  1  0.48571100  0.25000000  0.49692800  1
  Mg  Mg38  1  0.89640300  0.25000000  0.54920500  1
  Mg  Mg39  1  0.27660100  0.75000000  0.53115200  1
  Mg  Mg40  1  0.18729300  0.75000000  0.45843000  1
  Mg  Mg41  1  0.87739200  0.25000000  0.44940300  1
  Mg  Mg42  1  0.33136900  0.08295800  0.62506200  1
  Mg  Mg43  1  0.96823500  0.58295800  0.61451200  1
  Mg  Mg44  1  0.44963600  0.58295800  0.67572900  1
  Mg  Mg45  1  0.72336800  0.08295800  0.65462900  1
  Mg  Mg46  1  0.70476900  0.08295800  0.59084500  1
  Mg  Mg47  1  0.34163500  0.58295800  0.58029500  1
  Mg  Mg48  1  0.34163500  0.91704200  0.58029500  1
  Mg  Mg49  1  0.70476900  0.41704200  0.59084500  1
  Mg  Mg50  1  0.72336800  0.41704200  0.65462900  1
  Mg  Mg51  1  0.44963600  0.91704200  0.67572900  1
  Mg  Mg52  1  0.96823500  0.91704200  0.61451200  1
  Mg  Mg53  1  0.33136900  0.41704200  0.62506200  1
  Mg  Mg54  1  0.29561200  0.75000000  0.63095400  1
  Mg  Mg55  1  0.98571100  0.25000000  0.62192800  1
  Mg  Mg56  1  0.39640300  0.25000000  0.67420500  1
  Mg  Mg57  1  0.77660100  0.75000000  0.65615200  1
  Mg  Mg58  1  0.68729300  0.75000000  0.58343000  1
  Mg  Mg59  1  0.37739200  0.25000000  0.57440300  1
  Mg  Mg60  1  0.83136900  0.08295800  0.75006200  1
  Mg  Mg61  1  0.46823500  0.58295800  0.73951200  1
  Mg  Mg62  1  0.94963600  0.58295800  0.80072900  1
  Mg  Mg63  1  0.22336800  0.08295800  0.77962900  1
  Mg  Mg64  1  0.20476900  0.08295800  0.71584500  1
  Mg  Mg65  1  0.84163500  0.58295800  0.70529500  1
  Mg  Mg66  1  0.84163500  0.91704200  0.70529500  1
  Mg  Mg67  1  0.20476900  0.41704200  0.71584500  1
  Mg  Mg68  1  0.22336800  0.41704200  0.77962900  1
  Mg  Mg69  1  0.94963600  0.91704200  0.80072900  1
  Mg  Mg70  1  0.46823500  0.91704200  0.73951200  1
  Mg  Mg71  1  0.83136900  0.41704200  0.75006200  1
  Mg  Mg72  1  0.79561200  0.75000000  0.75595400  1
  Mg  Mg73  1  0.48571100  0.25000000  0.74692800  1
  Mg  Mg74  1  0.89640300  0.25000000  0.79920500  1
  Mg  Mg75  1  0.27660100  0.75000000  0.78115200  1
  Mg  Mg76  1  0.18729300  0.75000000  0.70843000  1
  Mg  Mg77  1  0.87739200  0.25000000  0.69940300  1
  Si  Si78  1  0.58650200  0.89974100  0.29017900  1
  Si  Si79  1  0.58650200  0.39974100  0.29017900  1
  Si  Si80  1  0.58650200  0.10025900  0.29017900  1
  Si  Si81  1  0.58650200  0.60025900  0.29017900  1
  Si  Si82  1  0.08650200  0.89974100  0.41517900  1
  Si  Si83  1  0.08650200  0.39974100  0.41517900  1
  Si  Si84  1  0.08650200  0.10025900  0.41517900  1
  Si  Si85  1  0.08650200  0.60025900  0.41517900  1
  Si  Si86  1  0.08650200  0.75000000  0.33184500  1
  Si  Si87  1  0.58650200  0.25000000  0.37351200  1
  Si  Si88  1  0.58650200  0.58746500  0.37351200  1
  Si  Si89  1  0.08650200  0.08746500  0.33184500  1
  Si  Si90  1  0.08650200  0.41253500  0.33184500  1
  Si  Si91  1  0.58650200  0.91253500  0.37351200  1
  Si  Si92  1  0.58650200  0.89974100  0.54017900  1
  Si  Si93  1  0.58650200  0.39974100  0.54017900  1
  Si  Si94  1  0.58650200  0.10025900  0.54017900  1
  Si  Si95  1  0.58650200  0.60025900  0.54017900  1
  Si  Si96  1  0.58650200  0.75000000  0.45684500  1
  Si  Si97  1  0.08650200  0.25000000  0.49851200  1
  Si  Si98  1  0.08650200  0.58746500  0.49851200  1
  Si  Si99  1  0.58650200  0.08746500  0.45684500  1
  Si  Si100  1  0.58650200  0.41253500  0.45684500  1
  Si  Si101  1  0.08650200  0.91253500  0.49851200  1
  Si  Si102  1  0.08650200  0.89974100  0.66517900  1
  Si  Si103  1  0.08650200  0.39974100  0.66517900  1
  Si  Si104  1  0.08650200  0.10025900  0.66517900  1
  Si  Si105  1  0.08650200  0.60025900  0.66517900  1
  Si  Si106  1  0.08650200  0.75000000  0.58184500  1
  Si  Si107  1  0.58650200  0.25000000  0.62351200  1
  Si  Si108  1  0.58650200  0.58746500  0.62351200  1
  Si  Si109  1  0.08650200  0.08746500  0.58184500  1
  Si  Si110  1  0.08650200  0.41253500  0.58184500  1
  Si  Si111  1  0.58650200  0.91253500  0.62351200  1
  Si  Si112  1  0.58650200  0.89974100  0.79017900  1
  Si  Si113  1  0.58650200  0.39974100  0.79017900  1
  Si  Si114  1  0.58650200  0.10025900  0.79017900  1
  Si  Si115  1  0.58650200  0.60025900  0.79017900  1
  Si  Si116  1  0.58650200  0.75000000  0.70684500  1
  Si  Si117  1  0.08650200  0.25000000  0.74851200  1
  Si  Si118  1  0.08650200  0.58746500  0.74851200  1
  Si  Si119  1  0.58650200  0.08746500  0.70684500  1
  Si  Si120  1  0.58650200  0.41253500  0.70684500  1
  Si  Si121  1  0.08650200  0.91253500  0.74851200  1
