# generated using pymatgen
data_Mg14Co31
_symmetry_space_group_name_H-M   'P 1'
_cell_length_a   4.82826400
_cell_length_b   4.82826376
_cell_length_c   47.32760500
_cell_angle_alpha   90.00000000
_cell_angle_beta   90.00000000
_cell_angle_gamma   120.00000166
_symmetry_Int_Tables_number   1
_chemical_formula_structural   Mg14Co31
_chemical_formula_sum   'Mg14 Co31'
_cell_volume   955.49220230
_cell_formula_units_Z   1
loop_
 _symmetry_equiv_pos_site_id
 _symmetry_equiv_pos_as_xyz
  1  'x, y, z'
loop_
 _atom_site_type_symbol
 _atom_site_label
 _atom_site_symmetry_multiplicity
 _atom_site_fract_x
 _atom_site_fract_y
 _atom_site_fract_z
 _atom_site_occupancy
  Mg  Mg0  1  0.66666700  0.33333300  0.23970800  1
  Mg  Mg1  1  0.66666700  0.33333300  0.30195800  1
  Mg  Mg2  1  0.33333300  0.66666700  0.32304200  1
  Mg  Mg3  1  0.33333300  0.66666700  0.21862500  1
  Mg  Mg4  1  0.66666700  0.33333300  0.40637500  1
  Mg  Mg5  1  0.66666700  0.33333300  0.46862500  1
  Mg  Mg6  1  0.33333300  0.66666700  0.48970800  1
  Mg  Mg7  1  0.33333300  0.66666700  0.38529200  1
  Mg  Mg8  1  0.66666700  0.33333300  0.57304200  1
  Mg  Mg9  1  0.66666700  0.33333300  0.63529200  1
  Mg  Mg10  1  0.33333300  0.66666700  0.65637500  1
  Mg  Mg11  1  0.33333300  0.66666700  0.55195800  1
  Mg  Mg12  1  0.66666700  0.33333300  0.73970800  1
  Mg  Mg13  1  0.33333300  0.66666700  0.71862500  1
  Co  Co14  1  0.00000000  0.00000000  0.22916700  1
  Co  Co15  1  0.17060800  0.82939200  0.27083300  1
  Co  Co16  1  0.17060800  0.34121500  0.27083300  1
  Co  Co17  1  0.65878500  0.82939200  0.27083300  1
  Co  Co18  1  0.00000000  0.00000000  0.31250000  1
  Co  Co19  1  0.34121500  0.17060800  0.18750000  1
  Co  Co20  1  0.82939200  0.65878500  0.18750000  1
  Co  Co21  1  0.82939200  0.17060800  0.18750000  1
  Co  Co22  1  0.00000000  0.00000000  0.39583300  1
  Co  Co23  1  0.17060800  0.82939200  0.43750000  1
  Co  Co24  1  0.17060800  0.34121500  0.43750000  1
  Co  Co25  1  0.65878500  0.82939200  0.43750000  1
  Co  Co26  1  0.00000000  0.00000000  0.47916700  1
  Co  Co27  1  0.34121500  0.17060800  0.35416700  1
  Co  Co28  1  0.82939200  0.65878500  0.35416700  1
  Co  Co29  1  0.82939200  0.17060800  0.35416700  1
  Co  Co30  1  0.00000000  0.00000000  0.56250000  1
  Co  Co31  1  0.17060800  0.82939200  0.60416700  1
  Co  Co32  1  0.17060800  0.34121500  0.60416700  1
  Co  Co33  1  0.65878500  0.82939200  0.60416700  1
  Co  Co34  1  0.00000000  0.00000000  0.64583300  1
  Co  Co35  1  0.34121500  0.17060800  0.52083300  1
  Co  Co36  1  0.82939200  0.65878500  0.52083300  1
  Co  Co37  1  0.82939200  0.17060800  0.52083300  1
  Co  Co38  1  0.00000000  0.00000000  0.72916700  1
  Co  Co39  1  0.17060800  0.82939200  0.77083300  1
  Co  Co40  1  0.17060800  0.34121500  0.77083300  1
  Co  Co41  1  0.65878500  0.82939200  0.77083300  1
  Co  Co42  1  0.34121500  0.17060800  0.68750000  1
  Co  Co43  1  0.82939200  0.65878500  0.68750000  1
  Co  Co44  1  0.82939200  0.17060800  0.68750000  1
