# generated using pymatgen
data_MgZn5
_symmetry_space_group_name_H-M   'P 1'
_cell_length_a   9.87228468
_cell_length_b   10.01271756
_cell_length_c   44.05125300
_cell_angle_alpha   91.09811949
_cell_angle_beta   91.84980966
_cell_angle_gamma   115.42228829
_symmetry_Int_Tables_number   1
_chemical_formula_structural   MgZn5
_chemical_formula_sum   'Mg24 Zn120'
_cell_volume   3928.07219552
_cell_formula_units_Z   24
loop_
 _symmetry_equiv_pos_site_id
 _symmetry_equiv_pos_as_xyz
  1  'x, y, z'
loop_
 _atom_site_type_symbol
 _atom_site_label
 _atom_site_symmetry_multiplicity
 _atom_site_fract_x
 _atom_site_fract_y
 _atom_site_fract_z
 _atom_site_occupancy
  Mg  Mg0  1  0.09524700  0.65572100  0.78459600  1
  Mg  Mg1  1  0.10218100  0.54170700  0.71540400  1
  Mg  Mg2  1  0.89367400  0.83633000  0.78328600  1
  Mg  Mg3  1  0.30375400  0.36109800  0.71671400  1
  Mg  Mg4  1  0.29524700  0.85572100  0.68459600  1
  Mg  Mg5  1  0.30218100  0.74170700  0.61540400  1
  Mg  Mg6  1  0.09367400  0.03633000  0.68328600  1
  Mg  Mg7  1  0.50375400  0.56109800  0.61671400  1
  Mg  Mg8  1  0.49524700  0.05572100  0.58459600  1
  Mg  Mg9  1  0.50218100  0.94170700  0.51540400  1
  Mg  Mg10  1  0.29367400  0.23633000  0.58328600  1
  Mg  Mg11  1  0.70375400  0.76109800  0.51671400  1
  Mg  Mg12  1  0.69524700  0.25572100  0.48459600  1
  Mg  Mg13  1  0.70218100  0.14170700  0.41540400  1
  Mg  Mg14  1  0.49367400  0.43633000  0.48328600  1
  Mg  Mg15  1  0.90375400  0.96109800  0.41671400  1
  Mg  Mg16  1  0.89524700  0.45572100  0.38459600  1
  Mg  Mg17  1  0.90218100  0.34170700  0.31540400  1
  Mg  Mg18  1  0.69367400  0.63633000  0.38328600  1
  Mg  Mg19  1  0.10375400  0.16109800  0.31671400  1
  Mg  Mg20  1  0.09524700  0.65572100  0.28459600  1
  Mg  Mg21  1  0.10218100  0.54170700  0.21540400  1
  Mg  Mg22  1  0.89367400  0.83633000  0.28328600  1
  Mg  Mg23  1  0.30375400  0.36109800  0.21671400  1
  Zn  Zn24  1  0.59871400  0.59871400  0.75000000  1
  Zn  Zn25  1  0.78836800  0.85487500  0.71536300  1
  Zn  Zn26  1  0.61419000  0.03394700  0.71566900  1
  Zn  Zn27  1  0.09697800  0.35142000  0.76568600  1
  Zn  Zn28  1  0.10045000  0.84600800  0.73431400  1
  Zn  Zn29  1  0.25919300  0.00280100  0.78561700  1
  Zn  Zn30  1  0.85404500  0.60636400  0.73482900  1
  Zn  Zn31  1  0.40906000  0.34255300  0.78463700  1
  Zn  Zn32  1  0.35964200  0.85503400  0.75107800  1
  Zn  Zn33  1  0.44452500  0.69220700  0.71459900  1
  Zn  Zn34  1  0.75290300  0.50522100  0.78540100  1
  Zn  Zn35  1  0.34338200  0.59106400  0.76517100  1
  Zn  Zn36  1  0.83717500  0.09356600  0.76491300  1
  Zn  Zn37  1  0.58323800  0.16348100  0.78433100  1
  Zn  Zn38  1  0.36025300  0.10386200  0.73508700  1
  Zn  Zn39  1  0.93823500  0.19462700  0.71438300  1
  Zn  Zn40  1  0.09871400  0.09871400  0.75000000  1
  Zn  Zn41  1  0.59058200  0.35136400  0.73403200  1
  Zn  Zn42  1  0.60684600  0.84606400  0.76596800  1
  Zn  Zn43  1  0.83778600  0.34239400  0.74892200  1
  Zn  Zn44  1  0.79871400  0.79871400  0.65000000  1
  Zn  Zn45  1  0.98836800  0.05487500  0.61536300  1
  Zn  Zn46  1  0.81419000  0.23394700  0.61566900  1
  Zn  Zn47  1  0.29697800  0.55142000  0.66568600  1
  Zn  Zn48  1  0.30045000  0.04600800  0.63431400  1
  Zn  Zn49  1  0.45919300  0.20280100  0.68561700  1
  Zn  Zn50  1  0.05404500  0.80636400  0.63482900  1
  Zn  Zn51  1  0.60906000  0.54255300  0.68463700  1
  Zn  Zn52  1  0.55964200  0.05503400  0.65107800  1
  Zn  Zn53  1  0.64452500  0.89220700  0.61459900  1
  Zn  Zn54  1  0.95290300  0.70522100  0.68540100  1
  Zn  Zn55  1  0.54338200  0.79106400  0.66517100  1
  Zn  Zn56  1  0.03717500  0.29356600  0.66491300  1
  Zn  Zn57  1  0.78323800  0.36348100  0.68433100  1
  Zn  Zn58  1  0.56025300  0.30386200  0.63508700  1
  Zn  Zn59  1  0.13823500  0.39462700  0.61438300  1
  Zn  Zn60  1  0.29871400  0.29871400  0.65000000  1
  Zn  Zn61  1  0.79058200  0.55136400  0.63403200  1
  Zn  Zn62  1  0.80684600  0.04606400  0.66596800  1
  Zn  Zn63  1  0.03778600  0.54239400  0.64892200  1
  Zn  Zn64  1  0.99871400  0.99871400  0.55000000  1
  Zn  Zn65  1  0.18836800  0.25487500  0.51536300  1
  Zn  Zn66  1  0.01419000  0.43394700  0.51566900  1
  Zn  Zn67  1  0.49697800  0.75142000  0.56568600  1
  Zn  Zn68  1  0.50045000  0.24600800  0.53431400  1
  Zn  Zn69  1  0.65919300  0.40280100  0.58561700  1
  Zn  Zn70  1  0.25404500  0.00636400  0.53482900  1
  Zn  Zn71  1  0.80906000  0.74255300  0.58463700  1
  Zn  Zn72  1  0.75964200  0.25503400  0.55107800  1
  Zn  Zn73  1  0.84452500  0.09220700  0.51459900  1
  Zn  Zn74  1  0.15290300  0.90522100  0.58540100  1
  Zn  Zn75  1  0.74338200  0.99106400  0.56517100  1
  Zn  Zn76  1  0.23717500  0.49356600  0.56491300  1
  Zn  Zn77  1  0.98323800  0.56348100  0.58433100  1
  Zn  Zn78  1  0.76025300  0.50386200  0.53508700  1
  Zn  Zn79  1  0.33823500  0.59462700  0.51438300  1
  Zn  Zn80  1  0.49871400  0.49871400  0.55000000  1
  Zn  Zn81  1  0.99058200  0.75136400  0.53403200  1
  Zn  Zn82  1  0.00684600  0.24606400  0.56596800  1
  Zn  Zn83  1  0.23778600  0.74239400  0.54892200  1
  Zn  Zn84  1  0.19871400  0.19871400  0.45000000  1
  Zn  Zn85  1  0.38836800  0.45487500  0.41536300  1
  Zn  Zn86  1  0.21419000  0.63394700  0.41566900  1
  Zn  Zn87  1  0.69697800  0.95142000  0.46568600  1
  Zn  Zn88  1  0.70045000  0.44600800  0.43431400  1
  Zn  Zn89  1  0.85919300  0.60280100  0.48561700  1
  Zn  Zn90  1  0.45404500  0.20636400  0.43482900  1
  Zn  Zn91  1  0.00906000  0.94255300  0.48463700  1
  Zn  Zn92  1  0.95964200  0.45503400  0.45107800  1
  Zn  Zn93  1  0.04452500  0.29220700  0.41459900  1
  Zn  Zn94  1  0.35290300  0.10522100  0.48540100  1
  Zn  Zn95  1  0.94338200  0.19106400  0.46517100  1
  Zn  Zn96  1  0.43717500  0.69356600  0.46491300  1
  Zn  Zn97  1  0.18323800  0.76348100  0.48433100  1
  Zn  Zn98  1  0.96025300  0.70386200  0.43508700  1
  Zn  Zn99  1  0.53823500  0.79462700  0.41438300  1
  Zn  Zn100  1  0.69871400  0.69871400  0.45000000  1
  Zn  Zn101  1  0.19058200  0.95136400  0.43403200  1
  Zn  Zn102  1  0.20684600  0.44606400  0.46596800  1
  Zn  Zn103  1  0.43778600  0.94239400  0.44892200  1
  Zn  Zn104  1  0.39871400  0.39871400  0.35000000  1
  Zn  Zn105  1  0.58836800  0.65487500  0.31536300  1
  Zn  Zn106  1  0.41419000  0.83394700  0.31566900  1
  Zn  Zn107  1  0.89697800  0.15142000  0.36568600  1
  Zn  Zn108  1  0.90045000  0.64600800  0.33431400  1
  Zn  Zn109  1  0.05919300  0.80280100  0.38561700  1
  Zn  Zn110  1  0.65404500  0.40636400  0.33482900  1
  Zn  Zn111  1  0.20906000  0.14255300  0.38463700  1
  Zn  Zn112  1  0.15964200  0.65503400  0.35107800  1
  Zn  Zn113  1  0.24452500  0.49220700  0.31459900  1
  Zn  Zn114  1  0.55290300  0.30522100  0.38540100  1
  Zn  Zn115  1  0.14338200  0.39106400  0.36517100  1
  Zn  Zn116  1  0.63717500  0.89356600  0.36491300  1
  Zn  Zn117  1  0.38323800  0.96348100  0.38433100  1
  Zn  Zn118  1  0.16025300  0.90386200  0.33508700  1
  Zn  Zn119  1  0.73823500  0.99462700  0.31438300  1
  Zn  Zn120  1  0.89871400  0.89871400  0.35000000  1
  Zn  Zn121  1  0.39058200  0.15136400  0.33403200  1
  Zn  Zn122  1  0.40684600  0.64606400  0.36596800  1
  Zn  Zn123  1  0.63778600  0.14239400  0.34892200  1
  Zn  Zn124  1  0.59871400  0.59871400  0.25000000  1
  Zn  Zn125  1  0.78836800  0.85487500  0.21536300  1
  Zn  Zn126  1  0.61419000  0.03394700  0.21566900  1
  Zn  Zn127  1  0.09697800  0.35142000  0.26568600  1
  Zn  Zn128  1  0.10045000  0.84600800  0.23431400  1
  Zn  Zn129  1  0.25919300  0.00280100  0.28561700  1
  Zn  Zn130  1  0.85404500  0.60636400  0.23482900  1
  Zn  Zn131  1  0.40906000  0.34255300  0.28463700  1
  Zn  Zn132  1  0.35964200  0.85503400  0.25107800  1
  Zn  Zn133  1  0.44452500  0.69220700  0.21459900  1
  Zn  Zn134  1  0.75290300  0.50522100  0.28540100  1
  Zn  Zn135  1  0.34338200  0.59106400  0.26517100  1
  Zn  Zn136  1  0.83717500  0.09356600  0.26491300  1
  Zn  Zn137  1  0.58323800  0.16348100  0.28433100  1
  Zn  Zn138  1  0.36025300  0.10386200  0.23508700  1
  Zn  Zn139  1  0.93823500  0.19462700  0.21438300  1
  Zn  Zn140  1  0.09871400  0.09871400  0.25000000  1
  Zn  Zn141  1  0.59058200  0.35136400  0.23403200  1
  Zn  Zn142  1  0.60684600  0.84606400  0.26596800  1
  Zn  Zn143  1  0.83778600  0.34239400  0.24892200  1
