# generated using pymatgen
data_Sr6Mg47
_symmetry_space_group_name_H-M   'P 1'
_cell_length_a   10.60291304
_cell_length_b   10.12691700
_cell_length_c   46.21702700
_cell_angle_alpha   90.00000000
_cell_angle_beta   96.58677806
_cell_angle_gamma   90.00000000
_symmetry_Int_Tables_number   1
_chemical_formula_structural   Sr6Mg47
_chemical_formula_sum   'Sr12 Mg94'
_cell_volume   4929.78851558
_cell_formula_units_Z   2
loop_
 _symmetry_equiv_pos_site_id
 _symmetry_equiv_pos_as_xyz
  1  'x, y, z'
loop_
 _atom_site_type_symbol
 _atom_site_label
 _atom_site_symmetry_multiplicity
 _atom_site_fract_x
 _atom_site_fract_y
 _atom_site_fract_z
 _atom_site_occupancy
  Sr  Sr0  1  0.27230200  0.75000000  0.38771900  1
  Sr  Sr1  1  0.20563500  0.25000000  0.25438600  1
  Sr  Sr2  1  0.73896900  0.25000000  0.32105300  1
  Sr  Sr3  1  0.73896900  0.75000000  0.32105300  1
  Sr  Sr4  1  0.87230200  0.75000000  0.58771900  1
  Sr  Sr5  1  0.80563500  0.25000000  0.45438600  1
  Sr  Sr6  1  0.33896900  0.25000000  0.52105300  1
  Sr  Sr7  1  0.33896900  0.75000000  0.52105300  1
  Sr  Sr8  1  0.47230200  0.75000000  0.78771900  1
  Sr  Sr9  1  0.40563500  0.25000000  0.65438600  1
  Sr  Sr10  1  0.93896900  0.25000000  0.72105300  1
  Sr  Sr11  1  0.93896900  0.75000000  0.72105300  1
  Mg  Mg12  1  0.77189900  0.02155600  0.38691400  1
  Mg  Mg13  1  0.96948300  0.02155600  0.28812200  1
  Mg  Mg14  1  0.47552300  0.02155600  0.28812200  1
  Mg  Mg15  1  0.00241400  0.52155600  0.35398300  1
  Mg  Mg16  1  0.20563500  0.59810200  0.25438600  1
  Mg  Mg17  1  0.27230200  0.09810200  0.38771900  1
  Mg  Mg18  1  0.27230200  0.40189800  0.38771900  1
  Mg  Mg19  1  0.20563500  0.90189800  0.25438600  1
  Mg  Mg20  1  0.23896900  0.50000000  0.32105300  1
  Mg  Mg21  1  0.23896900  0.00000000  0.32105300  1
  Mg  Mg22  1  0.38824500  0.75000000  0.31364600  1
  Mg  Mg23  1  0.57053300  0.25000000  0.38675300  1
  Mg  Mg24  1  0.90740400  0.75000000  0.25535200  1
  Mg  Mg25  1  0.39565200  0.25000000  0.32846000  1
  Mg  Mg26  1  0.08969200  0.25000000  0.32846000  1
  Mg  Mg27  1  0.97310500  0.25000000  0.38675300  1
  Mg  Mg28  1  0.50483300  0.75000000  0.25535200  1
  Mg  Mg29  1  0.08228500  0.75000000  0.31364600  1
  Mg  Mg30  1  0.47552300  0.47844400  0.28812200  1
  Mg  Mg31  1  0.50845400  0.97844400  0.35398300  1
  Mg  Mg32  1  0.70603800  0.97844400  0.25519100  1
  Mg  Mg33  1  0.77189900  0.47844400  0.38691400  1
  Mg  Mg34  1  0.96948300  0.47844400  0.28812200  1
  Mg  Mg35  1  0.50845400  0.52155600  0.35398300  1
  Mg  Mg36  1  0.70603800  0.52155600  0.25519100  1
  Mg  Mg37  1  0.00241400  0.97844400  0.35398300  1
  Mg  Mg38  1  0.37189900  0.02155600  0.58691400  1
  Mg  Mg39  1  0.56948300  0.02155600  0.48812200  1
  Mg  Mg40  1  0.07552300  0.02155600  0.48812200  1
  Mg  Mg41  1  0.60241400  0.52155600  0.55398300  1
  Mg  Mg42  1  0.80563500  0.59810200  0.45438600  1
  Mg  Mg43  1  0.87230200  0.09810200  0.58771900  1
  Mg  Mg44  1  0.87230200  0.40189800  0.58771900  1
  Mg  Mg45  1  0.80563500  0.90189800  0.45438600  1
  Mg  Mg46  1  0.83896900  0.50000000  0.52105300  1
  Mg  Mg47  1  0.53896900  0.00000000  0.42105300  1
  Mg  Mg48  1  0.03896900  0.00000000  0.42105300  1
  Mg  Mg49  1  0.03896900  0.50000000  0.42105300  1
  Mg  Mg50  1  0.53896900  0.50000000  0.42105300  1
  Mg  Mg51  1  0.83896900  0.00000000  0.52105300  1
  Mg  Mg52  1  0.98824500  0.75000000  0.51364600  1
  Mg  Mg53  1  0.17053300  0.25000000  0.58675300  1
  Mg  Mg54  1  0.15668100  0.25000000  0.44794500  1
  Mg  Mg55  1  0.92125600  0.75000000  0.39416000  1
  Mg  Mg56  1  0.50740400  0.75000000  0.45535200  1
  Mg  Mg57  1  0.99565200  0.25000000  0.52846000  1
  Mg  Mg58  1  0.44814900  0.25000000  0.44794500  1
  Mg  Mg59  1  0.68969200  0.25000000  0.52846000  1
  Mg  Mg60  1  0.57310500  0.25000000  0.58675300  1
  Mg  Mg61  1  0.10483300  0.75000000  0.45535200  1
  Mg  Mg62  1  0.68228500  0.75000000  0.51364600  1
  Mg  Mg63  1  0.62978900  0.75000000  0.39416000  1
  Mg  Mg64  1  0.07552300  0.47844400  0.48812200  1
  Mg  Mg65  1  0.10845400  0.97844400  0.55398300  1
  Mg  Mg66  1  0.30603800  0.97844400  0.45519100  1
  Mg  Mg67  1  0.37189900  0.47844400  0.58691400  1
  Mg  Mg68  1  0.56948300  0.47844400  0.48812200  1
  Mg  Mg69  1  0.10845400  0.52155600  0.55398300  1
  Mg  Mg70  1  0.30603800  0.52155600  0.45519100  1
  Mg  Mg71  1  0.60241400  0.97844400  0.55398300  1
  Mg  Mg72  1  0.97189900  0.02155600  0.78691400  1
  Mg  Mg73  1  0.16948300  0.02155600  0.68812200  1
  Mg  Mg74  1  0.67552300  0.02155600  0.68812200  1
  Mg  Mg75  1  0.20241400  0.52155600  0.75398300  1
  Mg  Mg76  1  0.40563500  0.59810200  0.65438600  1
  Mg  Mg77  1  0.47230200  0.09810200  0.78771900  1
  Mg  Mg78  1  0.47230200  0.40189800  0.78771900  1
  Mg  Mg79  1  0.40563500  0.90189800  0.65438600  1
  Mg  Mg80  1  0.43896900  0.50000000  0.72105300  1
  Mg  Mg81  1  0.13896900  0.00000000  0.62105300  1
  Mg  Mg82  1  0.63896900  0.00000000  0.62105300  1
  Mg  Mg83  1  0.63896900  0.50000000  0.62105300  1
  Mg  Mg84  1  0.13896900  0.50000000  0.62105300  1
  Mg  Mg85  1  0.43896900  0.00000000  0.72105300  1
  Mg  Mg86  1  0.58824500  0.75000000  0.71364600  1
  Mg  Mg87  1  0.77053300  0.25000000  0.78675300  1
  Mg  Mg88  1  0.75668100  0.25000000  0.64794500  1
  Mg  Mg89  1  0.52125600  0.75000000  0.59416000  1
  Mg  Mg90  1  0.10740400  0.75000000  0.65535200  1
  Mg  Mg91  1  0.59565200  0.25000000  0.72846000  1
  Mg  Mg92  1  0.04814900  0.25000000  0.64794500  1
  Mg  Mg93  1  0.28969200  0.25000000  0.72846000  1
  Mg  Mg94  1  0.17310500  0.25000000  0.78675300  1
  Mg  Mg95  1  0.70483300  0.75000000  0.65535200  1
  Mg  Mg96  1  0.28228500  0.75000000  0.71364600  1
  Mg  Mg97  1  0.22978900  0.75000000  0.59416000  1
  Mg  Mg98  1  0.67552300  0.47844400  0.68812200  1
  Mg  Mg99  1  0.70845400  0.97844400  0.75398300  1
  Mg  Mg100  1  0.90603800  0.97844400  0.65519100  1
  Mg  Mg101  1  0.97189900  0.47844400  0.78691400  1
  Mg  Mg102  1  0.16948300  0.47844400  0.68812200  1
  Mg  Mg103  1  0.70845400  0.52155600  0.75398300  1
  Mg  Mg104  1  0.90603800  0.52155600  0.65519100  1
  Mg  Mg105  1  0.20241400  0.97844400  0.75398300  1
