# generated using pymatgen
data_Mg2Ga5
_symmetry_space_group_name_H-M   'P 1'
_cell_length_a   7.03330400
_cell_length_b   7.14992834
_cell_length_c   49.80257500
_cell_angle_alpha   90.00000000
_cell_angle_beta   90.00000000
_cell_angle_gamma   119.46187890
_symmetry_Int_Tables_number   1
_chemical_formula_structural   Mg2Ga5
_chemical_formula_sum   'Mg20 Ga50'
_cell_volume   2180.58493507
_cell_formula_units_Z   10
loop_
 _symmetry_equiv_pos_site_id
 _symmetry_equiv_pos_as_xyz
  1  'x, y, z'
loop_
 _atom_site_type_symbol
 _atom_site_label
 _atom_site_symmetry_multiplicity
 _atom_site_fract_x
 _atom_site_fract_y
 _atom_site_fract_z
 _atom_site_occupancy
  Mg  Mg0  1  0.75000000  0.50000000  0.80024400  1
  Mg  Mg1  1  0.95097600  0.90195100  0.75000000  1
  Mg  Mg2  1  0.54902400  0.09804900  0.75000000  1
  Mg  Mg3  1  0.75000000  0.50000000  0.69975600  1
  Mg  Mg4  1  0.25000000  0.50000000  0.67524400  1
  Mg  Mg5  1  0.45097600  0.90195100  0.62500000  1
  Mg  Mg6  1  0.04902400  0.09804900  0.62500000  1
  Mg  Mg7  1  0.25000000  0.50000000  0.57475600  1
  Mg  Mg8  1  0.75000000  0.50000000  0.55024400  1
  Mg  Mg9  1  0.95097600  0.90195100  0.50000000  1
  Mg  Mg10  1  0.54902400  0.09804900  0.50000000  1
  Mg  Mg11  1  0.75000000  0.50000000  0.44975600  1
  Mg  Mg12  1  0.25000000  0.50000000  0.42524400  1
  Mg  Mg13  1  0.45097600  0.90195100  0.37500000  1
  Mg  Mg14  1  0.04902400  0.09804900  0.37500000  1
  Mg  Mg15  1  0.25000000  0.50000000  0.32475600  1
  Mg  Mg16  1  0.75000000  0.50000000  0.30024400  1
  Mg  Mg17  1  0.95097600  0.90195100  0.25000000  1
  Mg  Mg18  1  0.54902400  0.09804900  0.25000000  1
  Mg  Mg19  1  0.75000000  0.50000000  0.19975600  1
  Ga  Ga20  1  0.21360500  0.79596000  0.71300500  1
  Ga  Ga21  1  0.21360500  0.79596000  0.78699500  1
  Ga  Ga22  1  0.91764500  0.20404000  0.71300500  1
  Ga  Ga23  1  0.91764500  0.20404000  0.78699500  1
  Ga  Ga24  1  0.54140000  0.50000000  0.75000000  1
  Ga  Ga25  1  0.95860000  0.50000000  0.75000000  1
  Ga  Ga26  1  0.28639500  0.20404000  0.71300500  1
  Ga  Ga27  1  0.28639500  0.20404000  0.78699500  1
  Ga  Ga28  1  0.58235500  0.79596000  0.71300500  1
  Ga  Ga29  1  0.58235500  0.79596000  0.78699500  1
  Ga  Ga30  1  0.71360500  0.79596000  0.58800500  1
  Ga  Ga31  1  0.71360500  0.79596000  0.66199500  1
  Ga  Ga32  1  0.41764500  0.20404000  0.58800500  1
  Ga  Ga33  1  0.41764500  0.20404000  0.66199500  1
  Ga  Ga34  1  0.04140000  0.50000000  0.62500000  1
  Ga  Ga35  1  0.45860000  0.50000000  0.62500000  1
  Ga  Ga36  1  0.78639500  0.20404000  0.58800500  1
  Ga  Ga37  1  0.78639500  0.20404000  0.66199500  1
  Ga  Ga38  1  0.08235500  0.79596000  0.58800500  1
  Ga  Ga39  1  0.08235500  0.79596000  0.66199500  1
  Ga  Ga40  1  0.21360500  0.79596000  0.46300500  1
  Ga  Ga41  1  0.21360500  0.79596000  0.53699500  1
  Ga  Ga42  1  0.91764500  0.20404000  0.46300500  1
  Ga  Ga43  1  0.91764500  0.20404000  0.53699500  1
  Ga  Ga44  1  0.54140000  0.50000000  0.50000000  1
  Ga  Ga45  1  0.95860000  0.50000000  0.50000000  1
  Ga  Ga46  1  0.28639500  0.20404000  0.46300500  1
  Ga  Ga47  1  0.28639500  0.20404000  0.53699500  1
  Ga  Ga48  1  0.58235500  0.79596000  0.46300500  1
  Ga  Ga49  1  0.58235500  0.79596000  0.53699500  1
  Ga  Ga50  1  0.71360500  0.79596000  0.33800500  1
  Ga  Ga51  1  0.71360500  0.79596000  0.41199500  1
  Ga  Ga52  1  0.41764500  0.20404000  0.33800500  1
  Ga  Ga53  1  0.41764500  0.20404000  0.41199500  1
  Ga  Ga54  1  0.04140000  0.50000000  0.37500000  1
  Ga  Ga55  1  0.45860000  0.50000000  0.37500000  1
  Ga  Ga56  1  0.78639500  0.20404000  0.33800500  1
  Ga  Ga57  1  0.78639500  0.20404000  0.41199500  1
  Ga  Ga58  1  0.08235500  0.79596000  0.33800500  1
  Ga  Ga59  1  0.08235500  0.79596000  0.41199500  1
  Ga  Ga60  1  0.21360500  0.79596000  0.21300500  1
  Ga  Ga61  1  0.21360500  0.79596000  0.28699500  1
  Ga  Ga62  1  0.91764500  0.20404000  0.21300500  1
  Ga  Ga63  1  0.91764500  0.20404000  0.28699500  1
  Ga  Ga64  1  0.54140000  0.50000000  0.25000000  1
  Ga  Ga65  1  0.95860000  0.50000000  0.25000000  1
  Ga  Ga66  1  0.28639500  0.20404000  0.21300500  1
  Ga  Ga67  1  0.28639500  0.20404000  0.28699500  1
  Ga  Ga68  1  0.58235500  0.79596000  0.21300500  1
  Ga  Ga69  1  0.58235500  0.79596000  0.28699500  1
