# generated using pymatgen
data_Mg8B55
_symmetry_space_group_name_H-M   'P 1'
_cell_length_a   5.97250300
_cell_length_b   10.46844400
_cell_length_c   48.66413200
_cell_angle_alpha   90.00000000
_cell_angle_beta   90.00000000
_cell_angle_gamma   90.00000000
_symmetry_Int_Tables_number   1
_chemical_formula_structural   Mg8B55
_chemical_formula_sum   'Mg32 B220'
_cell_volume   3042.61843435
_cell_formula_units_Z   4
loop_
 _symmetry_equiv_pos_site_id
 _symmetry_equiv_pos_as_xyz
  1  'x, y, z'
loop_
 _atom_site_type_symbol
 _atom_site_label
 _atom_site_symmetry_multiplicity
 _atom_site_fract_x
 _atom_site_fract_y
 _atom_site_fract_z
 _atom_site_occupancy
  Mg  Mg0  1  0.75000000  0.25000000  0.28645800  1
  Mg  Mg1  1  0.25000000  0.25000000  0.28645800  1
  Mg  Mg2  1  0.50000000  0.75000000  0.26734900  1
  Mg  Mg3  1  0.50000000  0.25000000  0.22223400  1
  Mg  Mg4  1  0.25000000  0.75000000  0.20312500  1
  Mg  Mg5  1  0.75000000  0.75000000  0.20312500  1
  Mg  Mg6  1  0.00000000  0.25000000  0.18401600  1
  Mg  Mg7  1  0.00000000  0.75000000  0.30556700  1
  Mg  Mg8  1  0.75000000  0.25000000  0.45312500  1
  Mg  Mg9  1  0.25000000  0.25000000  0.45312500  1
  Mg  Mg10  1  0.50000000  0.75000000  0.43401600  1
  Mg  Mg11  1  0.50000000  0.25000000  0.38890100  1
  Mg  Mg12  1  0.25000000  0.75000000  0.36979200  1
  Mg  Mg13  1  0.75000000  0.75000000  0.36979200  1
  Mg  Mg14  1  0.00000000  0.25000000  0.35068300  1
  Mg  Mg15  1  0.00000000  0.75000000  0.47223400  1
  Mg  Mg16  1  0.75000000  0.25000000  0.61979200  1
  Mg  Mg17  1  0.25000000  0.25000000  0.61979200  1
  Mg  Mg18  1  0.50000000  0.75000000  0.60068300  1
  Mg  Mg19  1  0.50000000  0.25000000  0.55556700  1
  Mg  Mg20  1  0.25000000  0.75000000  0.53645800  1
  Mg  Mg21  1  0.75000000  0.75000000  0.53645800  1
  Mg  Mg22  1  0.00000000  0.25000000  0.51734900  1
  Mg  Mg23  1  0.00000000  0.75000000  0.63890100  1
  Mg  Mg24  1  0.75000000  0.25000000  0.78645800  1
  Mg  Mg25  1  0.25000000  0.25000000  0.78645800  1
  Mg  Mg26  1  0.50000000  0.75000000  0.76734900  1
  Mg  Mg27  1  0.50000000  0.25000000  0.72223400  1
  Mg  Mg28  1  0.25000000  0.75000000  0.70312500  1
  Mg  Mg29  1  0.75000000  0.75000000  0.70312500  1
  Mg  Mg30  1  0.00000000  0.25000000  0.68401600  1
  Mg  Mg31  1  0.00000000  0.75000000  0.80556700  1
  B  B32  1  0.50000000  0.85949800  0.22558200  1
  B  B33  1  0.24661100  0.92216600  0.23733800  1
  B  B34  1  0.75338900  0.92216600  0.23733800  1
  B  B35  1  0.00000000  0.08229700  0.27418200  1
  B  B36  1  0.00000000  0.83386800  0.24885600  1
  B  B37  1  0.15555800  0.93635500  0.27202800  1
  B  B38  1  0.84444200  0.93635500  0.27202800  1
  B  B39  1  0.50000000  0.08229700  0.29873500  1
  B  B40  1  0.50000000  0.64050200  0.22558200  1
  B  B41  1  0.00000000  0.66613200  0.24885600  1
  B  B42  1  0.24661100  0.57783400  0.23733800  1
  B  B43  1  0.75338900  0.57783400  0.23733800  1
  B  B44  1  0.65555800  0.93635500  0.30088900  1
  B  B45  1  0.34444200  0.93635500  0.30088900  1
  B  B46  1  0.65555800  0.06364500  0.18869400  1
  B  B47  1  0.34444200  0.06364500  0.18869400  1
  B  B48  1  0.24661100  0.42216600  0.25224500  1
  B  B49  1  0.75338900  0.42216600  0.25224500  1
  B  B50  1  0.00000000  0.33386800  0.24072700  1
  B  B51  1  0.50000000  0.35949800  0.26400200  1
  B  B52  1  0.50000000  0.91770300  0.19084900  1
  B  B53  1  0.15555800  0.06364500  0.21755600  1
  B  B54  1  0.84444200  0.06364500  0.21755600  1
  B  B55  1  0.00000000  0.16613200  0.24072700  1
  B  B56  1  0.00000000  0.91770300  0.21540100  1
  B  B57  1  0.24661100  0.07783400  0.25224500  1
  B  B58  1  0.75338900  0.07783400  0.25224500  1
  B  B59  1  0.50000000  0.14050200  0.26400200  1
  B  B60  1  0.00000000  0.35949800  0.30891500  1
  B  B61  1  0.74661100  0.42216600  0.32067100  1
  B  B62  1  0.25338900  0.42216600  0.32067100  1
  B  B63  1  0.50000000  0.58229700  0.19084900  1
  B  B64  1  0.50000000  0.33386800  0.33218900  1
  B  B65  1  0.65555800  0.43635500  0.18869400  1
  B  B66  1  0.34444200  0.43635500  0.18869400  1
  B  B67  1  0.00000000  0.58229700  0.21540100  1
  B  B68  1  0.00000000  0.14050200  0.30891500  1
  B  B69  1  0.50000000  0.16613200  0.33218900  1
  B  B70  1  0.74661100  0.07783400  0.32067100  1
  B  B71  1  0.25338900  0.07783400  0.32067100  1
  B  B72  1  0.15555800  0.43635500  0.21755600  1
  B  B73  1  0.84444200  0.43635500  0.21755600  1
  B  B74  1  0.15555800  0.56364500  0.27202800  1
  B  B75  1  0.84444200  0.56364500  0.27202800  1
  B  B76  1  0.74661100  0.92216600  0.16891200  1
  B  B77  1  0.25338900  0.92216600  0.16891200  1
  B  B78  1  0.50000000  0.83386800  0.32406100  1
  B  B79  1  0.00000000  0.85949800  0.18066800  1
  B  B80  1  0.00000000  0.41770300  0.27418200  1
  B  B81  1  0.65555800  0.56364500  0.30088900  1
  B  B82  1  0.34444200  0.56364500  0.30088900  1
  B  B83  1  0.50000000  0.66613200  0.32406100  1
  B  B84  1  0.50000000  0.41770300  0.29873500  1
  B  B85  1  0.74661100  0.57783400  0.16891200  1
  B  B86  1  0.25338900  0.57783400  0.16891200  1
  B  B87  1  0.00000000  0.64050200  0.18066800  1
  B  B88  1  0.50000000  0.85949800  0.39224800  1
  B  B89  1  0.24661100  0.92216600  0.40400500  1
  B  B90  1  0.75338900  0.92216600  0.40400500  1
  B  B91  1  1.00000000  0.08229700  0.44084900  1
  B  B92  1  0.00000000  0.83386800  0.41552300  1
  B  B93  1  0.15555800  0.93635500  0.43869400  1
  B  B94  1  0.84444200  0.93635500  0.43869400  1
  B  B95  1  0.50000000  0.08229700  0.46540100  1
  B  B96  1  0.50000000  0.64050200  0.39224800  1
  B  B97  1  0.00000000  0.66613200  0.41552300  1
  B  B98  1  0.24661100  0.57783400  0.40400500  1
  B  B99  1  0.75338900  0.57783400  0.40400500  1
  B  B100  1  0.65555800  0.93635500  0.46755600  1
  B  B101  1  0.34444200  0.93635500  0.46755600  1
  B  B102  1  0.65555800  0.06364500  0.35536100  1
  B  B103  1  0.34444200  0.06364500  0.35536100  1
  B  B104  1  0.24661100  0.42216600  0.41891200  1
  B  B105  1  0.75338900  0.42216600  0.41891200  1
  B  B106  1  0.00000000  0.33386800  0.40739400  1
  B  B107  1  0.50000000  0.35949800  0.43066800  1
  B  B108  1  0.50000000  0.91770300  0.35751500  1
  B  B109  1  0.15555800  0.06364500  0.38422200  1
  B  B110  1  0.84444200  0.06364500  0.38422200  1
  B  B111  1  0.00000000  0.16613200  0.40739400  1
  B  B112  1  0.00000000  0.91770300  0.38206800  1
  B  B113  1  0.24661100  0.07783400  0.41891200  1
  B  B114  1  0.75338900  0.07783400  0.41891200  1
  B  B115  1  0.50000000  0.14050200  0.43066800  1
  B  B116  1  0.00000000  0.35949800  0.47558200  1
  B  B117  1  0.74661100  0.42216600  0.48733800  1
  B  B118  1  0.25338900  0.42216600  0.48733800  1
  B  B119  1  0.50000000  0.58229700  0.35751500  1
  B  B120  1  0.50000000  0.33386800  0.49885600  1
  B  B121  1  0.65555800  0.43635500  0.35536100  1
  B  B122  1  0.34444200  0.43635500  0.35536100  1
  B  B123  1  0.00000000  0.58229700  0.38206800  1
  B  B124  1  0.00000000  0.14050200  0.47558200  1
  B  B125  1  0.50000000  0.16613200  0.49885600  1
  B  B126  1  0.74661100  0.07783400  0.48733800  1
  B  B127  1  0.25338900  0.07783400  0.48733800  1
  B  B128  1  0.15555800  0.43635500  0.38422200  1
  B  B129  1  0.84444200  0.43635500  0.38422200  1
  B  B130  1  0.15555800  0.56364500  0.43869400  1
  B  B131  1  0.84444200  0.56364500  0.43869400  1
  B  B132  1  0.74661100  0.92216600  0.33557900  1
  B  B133  1  0.25338900  0.92216600  0.33557900  1
  B  B134  1  0.50000000  0.83386800  0.49072700  1
  B  B135  1  0.00000000  0.85949800  0.34733500  1
  B  B136  1  1.00000000  0.41770300  0.44084900  1
  B  B137  1  0.65555800  0.56364500  0.46755600  1
  B  B138  1  0.34444200  0.56364500  0.46755600  1
  B  B139  1  0.50000000  0.66613200  0.49072700  1
  B  B140  1  0.50000000  0.41770300  0.46540100  1
  B  B141  1  0.74661100  0.57783400  0.33557900  1
  B  B142  1  0.25338900  0.57783400  0.33557900  1
  B  B143  1  0.00000000  0.64050200  0.34733500  1
  B  B144  1  0.50000000  0.85949800  0.55891500  1
  B  B145  1  0.24661100  0.92216600  0.57067100  1
  B  B146  1  0.75338900  0.92216600  0.57067100  1
  B  B147  1  0.00000000  0.08229700  0.60751500  1
  B  B148  1  0.00000000  0.83386800  0.58218900  1
  B  B149  1  0.15555800  0.93635500  0.60536100  1
  B  B150  1  0.84444200  0.93635500  0.60536100  1
  B  B151  1  0.50000000  0.08229700  0.63206800  1
  B  B152  1  0.50000000  0.64050200  0.55891500  1
  B  B153  1  0.00000000  0.66613200  0.58218900  1
  B  B154  1  0.24661100  0.57783400  0.57067100  1
  B  B155  1  0.75338900  0.57783400  0.57067100  1
  B  B156  1  0.65555800  0.93635500  0.63422200  1
  B  B157  1  0.34444200  0.93635500  0.63422200  1
  B  B158  1  0.65555800  0.06364500  0.52202800  1
  B  B159  1  0.34444200  0.06364500  0.52202800  1
  B  B160  1  0.24661100  0.42216600  0.58557900  1
  B  B161  1  0.75338900  0.42216600  0.58557900  1
  B  B162  1  0.00000000  0.33386800  0.57406100  1
  B  B163  1  0.50000000  0.35949800  0.59733500  1
  B  B164  1  0.50000000  0.91770300  0.52418200  1
  B  B165  1  0.15555800  0.06364500  0.55088900  1
  B  B166  1  0.84444200  0.06364500  0.55088900  1
  B  B167  1  0.00000000  0.16613200  0.57406100  1
  B  B168  1  0.00000000  0.91770300  0.54873500  1
  B  B169  1  0.24661100  0.07783400  0.58557900  1
  B  B170  1  0.75338900  0.07783400  0.58557900  1
  B  B171  1  0.50000000  0.14050200  0.59733500  1
  B  B172  1  0.00000000  0.35949800  0.64224800  1
  B  B173  1  0.74661100  0.42216600  0.65400500  1
  B  B174  1  0.25338900  0.42216600  0.65400500  1
  B  B175  1  0.50000000  0.58229700  0.52418200  1
  B  B176  1  0.50000000  0.33386800  0.66552300  1
  B  B177  1  0.65555800  0.43635500  0.52202800  1
  B  B178  1  0.34444200  0.43635500  0.52202800  1
  B  B179  1  0.00000000  0.58229700  0.54873500  1
  B  B180  1  0.00000000  0.14050200  0.64224800  1
  B  B181  1  0.50000000  0.16613200  0.66552300  1
  B  B182  1  0.74661100  0.07783400  0.65400500  1
  B  B183  1  0.25338900  0.07783400  0.65400500  1
  B  B184  1  0.15555800  0.43635500  0.55088900  1
  B  B185  1  0.84444200  0.43635500  0.55088900  1
  B  B186  1  0.15555800  0.56364500  0.60536100  1
  B  B187  1  0.84444200  0.56364500  0.60536100  1
  B  B188  1  0.74661100  0.92216600  0.50224500  1
  B  B189  1  0.25338900  0.92216600  0.50224500  1
  B  B190  1  0.50000000  0.83386800  0.65739400  1
  B  B191  1  0.00000000  0.85949800  0.51400200  1
  B  B192  1  1.00000000  0.41770300  0.60751500  1
  B  B193  1  0.65555800  0.56364500  0.63422200  1
  B  B194  1  0.34444200  0.56364500  0.63422200  1
  B  B195  1  0.50000000  0.66613200  0.65739400  1
  B  B196  1  0.50000000  0.41770300  0.63206800  1
  B  B197  1  0.74661100  0.57783400  0.50224500  1
  B  B198  1  0.25338900  0.57783400  0.50224500  1
  B  B199  1  0.00000000  0.64050200  0.51400200  1
  B  B200  1  0.50000000  0.85949800  0.72558200  1
  B  B201  1  0.24661100  0.92216600  0.73733800  1
  B  B202  1  0.75338900  0.92216600  0.73733800  1
  B  B203  1  0.00000000  0.08229700  0.77418200  1
  B  B204  1  0.00000000  0.83386800  0.74885600  1
  B  B205  1  0.15555800  0.93635500  0.77202800  1
  B  B206  1  0.84444200  0.93635500  0.77202800  1
  B  B207  1  0.50000000  0.08229700  0.79873500  1
  B  B208  1  0.50000000  0.64050200  0.72558200  1
  B  B209  1  0.00000000  0.66613200  0.74885600  1
  B  B210  1  0.24661100  0.57783400  0.73733800  1
  B  B211  1  0.75338900  0.57783400  0.73733800  1
  B  B212  1  0.65555800  0.93635500  0.80088900  1
  B  B213  1  0.34444200  0.93635500  0.80088900  1
  B  B214  1  0.65555800  0.06364500  0.68869400  1
  B  B215  1  0.34444200  0.06364500  0.68869400  1
  B  B216  1  0.24661100  0.42216600  0.75224500  1
  B  B217  1  0.75338900  0.42216600  0.75224500  1
  B  B218  1  0.00000000  0.33386800  0.74072700  1
  B  B219  1  0.50000000  0.35949800  0.76400200  1
  B  B220  1  0.50000000  0.91770300  0.69084900  1
  B  B221  1  0.15555800  0.06364500  0.71755600  1
  B  B222  1  0.84444200  0.06364500  0.71755600  1
  B  B223  1  0.00000000  0.16613200  0.74072700  1
  B  B224  1  0.00000000  0.91770300  0.71540100  1
  B  B225  1  0.24661100  0.07783400  0.75224500  1
  B  B226  1  0.75338900  0.07783400  0.75224500  1
  B  B227  1  0.50000000  0.14050200  0.76400200  1
  B  B228  1  0.00000000  0.35949800  0.80891500  1
  B  B229  1  0.74661100  0.42216600  0.82067100  1
  B  B230  1  0.25338900  0.42216600  0.82067100  1
  B  B231  1  0.50000000  0.58229700  0.69084900  1
  B  B232  1  0.65555800  0.43635500  0.68869400  1
  B  B233  1  0.34444200  0.43635500  0.68869400  1
  B  B234  1  0.00000000  0.58229700  0.71540100  1
  B  B235  1  0.00000000  0.14050200  0.80891500  1
  B  B236  1  0.74661100  0.07783400  0.82067100  1
  B  B237  1  0.25338900  0.07783400  0.82067100  1
  B  B238  1  0.15555800  0.43635500  0.71755600  1
  B  B239  1  0.84444200  0.43635500  0.71755600  1
  B  B240  1  0.15555800  0.56364500  0.77202800  1
  B  B241  1  0.84444200  0.56364500  0.77202800  1
  B  B242  1  0.74661100  0.92216600  0.66891200  1
  B  B243  1  0.25338900  0.92216600  0.66891200  1
  B  B244  1  0.00000000  0.85949800  0.68066800  1
  B  B245  1  1.00000000  0.41770300  0.77418200  1
  B  B246  1  0.65555800  0.56364500  0.80088900  1
  B  B247  1  0.34444200  0.56364500  0.80088900  1
  B  B248  1  0.50000000  0.41770300  0.79873500  1
  B  B249  1  0.74661100  0.57783400  0.66891200  1
  B  B250  1  0.25338900  0.57783400  0.66891200  1
  B  B251  1  0.00000000  0.64050200  0.68066800  1
