# generated using pymatgen
data_Mg11Ag24
_symmetry_space_group_name_H-M   'P 1'
_cell_length_a   5.07886500
_cell_length_b   10.13510577
_cell_length_c   42.87725400
_cell_angle_alpha   85.71247390
_cell_angle_beta   90.00000000
_cell_angle_gamma   90.00000000
_symmetry_Int_Tables_number   1
_chemical_formula_structural   Mg11Ag24
_chemical_formula_sum   'Mg22 Ag48'
_cell_volume   2200.92281523
_cell_formula_units_Z   2
loop_
 _symmetry_equiv_pos_site_id
 _symmetry_equiv_pos_as_xyz
  1  'x, y, z'
loop_
 _atom_site_type_symbol
 _atom_site_label
 _atom_site_symmetry_multiplicity
 _atom_site_fract_x
 _atom_site_fract_y
 _atom_site_fract_z
 _atom_site_occupancy
  Mg  Mg0  1  0.80329900  0.11664600  0.25833300  1
  Mg  Mg1  1  0.69670100  0.61664600  0.25833300  1
  Mg  Mg2  1  0.19670100  0.21664600  0.30833300  1
  Mg  Mg3  1  0.80329900  0.31664600  0.35833300  1
  Mg  Mg4  1  0.69670100  0.81664600  0.35833300  1
  Mg  Mg5  1  0.30329900  0.71664600  0.30833300  1
  Mg  Mg6  1  0.19670100  0.41664600  0.40833300  1
  Mg  Mg7  1  0.80329900  0.51664600  0.45833300  1
  Mg  Mg8  1  0.69670100  0.01664600  0.45833300  1
  Mg  Mg9  1  0.30329900  0.91664600  0.40833300  1
  Mg  Mg10  1  0.19670100  0.61664600  0.50833300  1
  Mg  Mg11  1  0.80329900  0.71664600  0.55833300  1
  Mg  Mg12  1  0.69670100  0.21664600  0.55833300  1
  Mg  Mg13  1  0.30329900  0.11664600  0.50833300  1
  Mg  Mg14  1  0.19670100  0.81664600  0.60833300  1
  Mg  Mg15  1  0.80329900  0.91664600  0.65833300  1
  Mg  Mg16  1  0.69670100  0.41664600  0.65833300  1
  Mg  Mg17  1  0.30329900  0.31664600  0.60833300  1
  Mg  Mg18  1  0.19670100  0.01664600  0.70833300  1
  Mg  Mg19  1  0.80329900  0.11664600  0.75833300  1
  Mg  Mg20  1  0.69670100  0.61664600  0.75833300  1
  Mg  Mg21  1  0.30329900  0.51664600  0.70833300  1
  Ag  Ag22  1  0.81473600  0.38347500  0.22498000  1
  Ag  Ag23  1  0.18526400  0.48347500  0.27498000  1
  Ag  Ag24  1  0.68526400  0.34981800  0.29168700  1
  Ag  Ag25  1  0.31473600  0.24981800  0.24168700  1
  Ag  Ag26  1  0.31473600  0.98347500  0.27498000  1
  Ag  Ag27  1  0.68526400  0.88347500  0.22498000  1
  Ag  Ag28  1  0.18526400  0.74981800  0.24168700  1
  Ag  Ag29  1  0.81473600  0.84981800  0.29168700  1
  Ag  Ag30  1  0.81473600  0.58347500  0.32498000  1
  Ag  Ag31  1  0.18526400  0.68347500  0.37498000  1
  Ag  Ag32  1  0.68526400  0.54981800  0.39168700  1
  Ag  Ag33  1  0.31473600  0.44981800  0.34168700  1
  Ag  Ag34  1  0.31473600  0.18347500  0.37498000  1
  Ag  Ag35  1  0.68526400  0.08347500  0.32498000  1
  Ag  Ag36  1  0.18526400  0.94981800  0.34168700  1
  Ag  Ag37  1  0.81473600  0.04981800  0.39168700  1
  Ag  Ag38  1  0.81473600  0.78347500  0.42498000  1
  Ag  Ag39  1  0.18526400  0.88347500  0.47498000  1
  Ag  Ag40  1  0.68526400  0.74981800  0.49168700  1
  Ag  Ag41  1  0.31473600  0.64981800  0.44168700  1
  Ag  Ag42  1  0.31473600  0.38347500  0.47498000  1
  Ag  Ag43  1  0.68526400  0.28347500  0.42498000  1
  Ag  Ag44  1  0.18526400  0.14981800  0.44168700  1
  Ag  Ag45  1  0.81473600  0.24981800  0.49168700  1
  Ag  Ag46  1  0.81473600  0.98347500  0.52498000  1
  Ag  Ag47  1  0.18526400  0.08347500  0.57498000  1
  Ag  Ag48  1  0.68526400  0.94981800  0.59168700  1
  Ag  Ag49  1  0.31473600  0.84981800  0.54168700  1
  Ag  Ag50  1  0.31473600  0.58347500  0.57498000  1
  Ag  Ag51  1  0.68526400  0.48347500  0.52498000  1
  Ag  Ag52  1  0.18526400  0.34981800  0.54168700  1
  Ag  Ag53  1  0.81473600  0.44981800  0.59168700  1
  Ag  Ag54  1  0.81473600  0.18347500  0.62498000  1
  Ag  Ag55  1  0.18526400  0.28347500  0.67498000  1
  Ag  Ag56  1  0.68526400  0.14981800  0.69168700  1
  Ag  Ag57  1  0.31473600  0.04981800  0.64168700  1
  Ag  Ag58  1  0.31473600  0.78347500  0.67498000  1
  Ag  Ag59  1  0.68526400  0.68347500  0.62498000  1
  Ag  Ag60  1  0.18526400  0.54981800  0.64168700  1
  Ag  Ag61  1  0.81473600  0.64981800  0.69168700  1
  Ag  Ag62  1  0.81473600  0.38347500  0.72498000  1
  Ag  Ag63  1  0.18526400  0.48347500  0.77498000  1
  Ag  Ag64  1  0.68526400  0.34981800  0.79168700  1
  Ag  Ag65  1  0.31473600  0.24981800  0.74168700  1
  Ag  Ag66  1  0.31473600  0.98347500  0.77498000  1
  Ag  Ag67  1  0.68526400  0.88347500  0.72498000  1
  Ag  Ag68  1  0.18526400  0.74981800  0.74168700  1
  Ag  Ag69  1  0.81473600  0.84981800  0.79168700  1
