# generated using pymatgen
data_Mg53Zn98
_symmetry_space_group_name_H-M   'P 1'
_cell_length_a   15.05205970
_cell_length_b   15.53344962
_cell_length_c   44.08704400
_cell_angle_alpha   96.16286714
_cell_angle_beta   84.01794547
_cell_angle_gamma   68.44884142
_symmetry_Int_Tables_number   1
_chemical_formula_structural   Mg53Zn98
_chemical_formula_sum   'Mg106 Zn196'
_cell_volume   9416.24976546
_cell_formula_units_Z   2
loop_
 _symmetry_equiv_pos_site_id
 _symmetry_equiv_pos_as_xyz
  1  'x, y, z'
loop_
 _atom_site_type_symbol
 _atom_site_label
 _atom_site_symmetry_multiplicity
 _atom_site_fract_x
 _atom_site_fract_y
 _atom_site_fract_z
 _atom_site_occupancy
  Mg  Mg0  1  0.79935500  0.15053000  0.25204700  1
  Mg  Mg1  1  0.15263200  0.36997200  0.28509400  1
  Mg  Mg2  1  0.67684700  0.71475000  0.26876400  1
  Mg  Mg3  1  0.96999200  0.12970000  0.28781600  1
  Mg  Mg4  1  0.00705900  0.43558600  0.23943700  1
  Mg  Mg5  1  0.66190300  0.06209800  0.29184900  1
  Mg  Mg6  1  0.79109400  0.49601500  0.27425600  1
  Mg  Mg7  1  0.17570500  0.01599700  0.26127500  1
  Mg  Mg8  1  0.68724400  0.36769600  0.24557700  1
  Mg  Mg9  1  0.03863800  0.61011100  0.20965300  1
  Mg  Mg10  1  0.46885000  0.43094700  0.28032700  1
  Mg  Mg11  1  0.35845300  0.67800100  0.20351400  1
  Mg  Mg12  1  0.02476700  0.10624700  0.21285500  1
  Mg  Mg13  1  0.77729300  0.84452500  0.29739300  1
  Mg  Mg14  1  0.36840500  0.30117200  0.25169800  1
  Mg  Mg15  1  0.35460300  0.64968200  0.27483500  1
  Mg  Mg16  1  0.34634200  0.99516700  0.29704400  1
  Mg  Mg17  1  0.48379400  0.08359900  0.25724200  1
  Mg  Mg18  1  0.99306500  0.77572500  0.26399700  1
  Mg  Mg19  1  0.02093000  0.93945100  0.23623600  1
  Mg  Mg20  1  0.89935500  0.25053000  0.35204700  1
  Mg  Mg21  1  0.25263200  0.46997200  0.38509400  1
  Mg  Mg22  1  0.77684700  0.81475000  0.36876400  1
  Mg  Mg23  1  0.06999200  0.22970000  0.38781600  1
  Mg  Mg24  1  0.10705900  0.53558600  0.33943700  1
  Mg  Mg25  1  0.76190300  0.16209800  0.39184900  1
  Mg  Mg26  1  0.89109400  0.59601500  0.37425600  1
  Mg  Mg27  1  0.27570500  0.11599700  0.36127500  1
  Mg  Mg28  1  0.78724400  0.46769600  0.34557700  1
  Mg  Mg29  1  0.13863800  0.71011100  0.30965300  1
  Mg  Mg30  1  0.56885000  0.53094700  0.38032700  1
  Mg  Mg31  1  0.45845300  0.77800100  0.30351400  1
  Mg  Mg32  1  0.12476700  0.20624700  0.31285500  1
  Mg  Mg33  1  0.87729300  0.94452500  0.39739300  1
  Mg  Mg34  1  0.46840500  0.40117200  0.35169800  1
  Mg  Mg35  1  0.45460300  0.74968200  0.37483500  1
  Mg  Mg36  1  0.44634200  0.09516700  0.39704400  1
  Mg  Mg37  1  0.58379400  0.18359900  0.35724200  1
  Mg  Mg38  1  0.09306500  0.87572500  0.36399700  1
  Mg  Mg39  1  0.12093000  0.03945100  0.33623600  1
  Mg  Mg40  1  0.99935500  0.35053000  0.45204700  1
  Mg  Mg41  1  0.35263200  0.56997200  0.48509400  1
  Mg  Mg42  1  0.87684700  0.91475000  0.46876400  1
  Mg  Mg43  1  0.16999200  0.32970000  0.48781600  1
  Mg  Mg44  1  0.20705900  0.63558600  0.43943700  1
  Mg  Mg45  1  0.86190300  0.26209800  0.49184900  1
  Mg  Mg46  1  0.99109400  0.69601500  0.47425600  1
  Mg  Mg47  1  0.37570500  0.21599700  0.46127500  1
  Mg  Mg48  1  0.88724400  0.56769600  0.44557700  1
  Mg  Mg49  1  0.23863800  0.81011100  0.40965300  1
  Mg  Mg50  1  0.66885000  0.63094700  0.48032700  1
  Mg  Mg51  1  0.55845300  0.87800100  0.40351400  1
  Mg  Mg52  1  0.22476700  0.30624700  0.41285500  1
  Mg  Mg53  1  0.97729300  0.04452500  0.49739300  1
  Mg  Mg54  1  0.56840500  0.50117200  0.45169800  1
  Mg  Mg55  1  0.55460300  0.84968200  0.47483500  1
  Mg  Mg56  1  0.54634200  0.19516700  0.49704400  1
  Mg  Mg57  1  0.68379400  0.28359900  0.45724200  1
  Mg  Mg58  1  0.19306500  0.97572500  0.46399700  1
  Mg  Mg59  1  0.22093000  0.13945100  0.43623600  1
  Mg  Mg60  1  0.09935500  0.45053000  0.55204700  1
  Mg  Mg61  1  0.45263200  0.66997200  0.58509400  1
  Mg  Mg62  1  0.97684700  0.01475000  0.56876400  1
  Mg  Mg63  1  0.26999200  0.42970000  0.58781600  1
  Mg  Mg64  1  0.30705900  0.73558600  0.53943700  1
  Mg  Mg65  1  0.96190300  0.36209800  0.59184900  1
  Mg  Mg66  1  0.09109400  0.79601500  0.57425600  1
  Mg  Mg67  1  0.47570500  0.31599700  0.56127500  1
  Mg  Mg68  1  0.98724400  0.66769600  0.54557700  1
  Mg  Mg69  1  0.33863800  0.91011100  0.50965300  1
  Mg  Mg70  1  0.76885000  0.73094700  0.58032700  1
  Mg  Mg71  1  0.65845300  0.97800100  0.50351400  1
  Mg  Mg72  1  0.32476700  0.40624700  0.51285500  1
  Mg  Mg73  1  0.07729300  0.14452500  0.59739300  1
  Mg  Mg74  1  0.66840500  0.60117200  0.55169800  1
  Mg  Mg75  1  0.65460300  0.94968200  0.57483500  1
  Mg  Mg76  1  0.64634200  0.29516700  0.59704400  1
  Mg  Mg77  1  0.78379400  0.38359900  0.55724200  1
  Mg  Mg78  1  0.29306500  0.07572500  0.56399700  1
  Mg  Mg79  1  0.32093000  0.23945100  0.53623600  1
  Mg  Mg80  1  0.19935500  0.55053000  0.65204700  1
  Mg  Mg81  1  0.55263200  0.76997200  0.68509400  1
  Mg  Mg82  1  0.07684700  0.11475000  0.66876400  1
  Mg  Mg83  1  0.36999200  0.52970000  0.68781600  1
  Mg  Mg84  1  0.40705900  0.83558600  0.63943700  1
  Mg  Mg85  1  0.06190300  0.46209800  0.69184900  1
  Mg  Mg86  1  0.19109400  0.89601500  0.67425600  1
  Mg  Mg87  1  0.57570500  0.41599700  0.66127500  1
  Mg  Mg88  1  0.08724400  0.76769600  0.64557700  1
  Mg  Mg89  1  0.43863800  0.01011100  0.60965300  1
  Mg  Mg90  1  0.86885000  0.83094700  0.68032700  1
  Mg  Mg91  1  0.75845300  0.07800100  0.60351400  1
  Mg  Mg92  1  0.42476700  0.50624700  0.61285500  1
  Mg  Mg93  1  0.17729300  0.24452500  0.69739300  1
  Mg  Mg94  1  0.76840500  0.70117200  0.65169800  1
  Mg  Mg95  1  0.75460300  0.04968200  0.67483500  1
  Mg  Mg96  1  0.74634200  0.39516700  0.69704400  1
  Mg  Mg97  1  0.88379400  0.48359900  0.65724200  1
  Mg  Mg98  1  0.39306500  0.17572500  0.66399700  1
  Mg  Mg99  1  0.42093000  0.33945100  0.63623600  1
  Mg  Mg100  1  0.50705900  0.93558600  0.73943700  1
  Mg  Mg101  1  0.18724400  0.86769600  0.74557700  1
  Mg  Mg102  1  0.53863800  0.11011100  0.70965300  1
  Mg  Mg103  1  0.85845300  0.17800100  0.70351400  1
  Mg  Mg104  1  0.52476700  0.60624700  0.71285500  1
  Mg  Mg105  1  0.52093000  0.43945100  0.73623600  1
  Zn  Zn106  1  0.85349200  0.41199700  0.20598400  1
  Zn  Zn107  1  0.08490800  0.23176300  0.25084800  1
  Zn  Zn108  1  0.52603500  0.34959400  0.21414400  1
  Zn  Zn109  1  0.19564100  0.80259800  0.25260600  1
  Zn  Zn110  1  0.20682100  0.45149200  0.22995300  1
  Zn  Zn111  1  0.90305700  0.29322700  0.24539300  1
  Zn  Zn112  1  0.57284900  0.57284900  0.27454500  1
  Zn  Zn113  1  0.19220500  0.63370000  0.24310700  1
  Zn  Zn114  1  0.37794200  0.14006800  0.20467200  1
  Zn  Zn115  1  0.88790300  0.64372300  0.26854200  1
  Zn  Zn116  1  0.53119800  0.17584800  0.20202100  1
  Zn  Zn117  1  0.67907100  0.05706300  0.22195600  1
  Zn  Zn118  1  0.68303000  0.55369000  0.22178600  1
  Zn  Zn119  1  0.83765800  0.76121600  0.23053600  1
  Zn  Zn120  1  0.06078900  0.91393400  0.29824300  1
  Zn  Zn121  1  0.66775500  0.90562900  0.24441900  1
  Zn  Zn122  1  0.82878200  0.94082800  0.24218200  1
  Zn  Zn123  1  0.25779400  0.50197400  0.28054900  1
  Zn  Zn124  1  0.14264000  0.75247000  0.20369800  1
  Zn  Zn125  1  0.36266700  0.49200700  0.22730500  1
  Zn  Zn126  1  0.21691600  0.10486900  0.20690900  1
  Zn  Zn127  1  0.83887600  0.59420500  0.21913800  1
  Zn  Zn128  1  0.52284900  0.52284900  0.22454500  1
  Zn  Zn129  1  0.79330400  0.31164100  0.29787500  1
  Zn  Zn130  1  0.58037700  0.22600700  0.25270600  1
  Zn  Zn131  1  0.87950500  0.99072800  0.29026400  1
  Zn  Zn132  1  0.35239300  0.83405600  0.25121500  1
  Zn  Zn133  1  0.26619200  0.15496900  0.25882700  1
  Zn  Zn134  1  0.20803900  0.28448100  0.21855500  1
  Zn  Zn135  1  0.56532000  0.91969000  0.29638500  1
  Zn  Zn136  1  0.95005600  0.34309900  0.29648500  1
  Zn  Zn137  1  0.07284900  0.57284900  0.27454500  1
  Zn  Zn138  1  0.51449900  0.86984900  0.24707000  1
  Zn  Zn139  1  0.36662600  0.98863500  0.22713500  1
  Zn  Zn140  1  0.51966200  0.69610300  0.23494700  1
  Zn  Zn141  1  0.95349200  0.51199700  0.30598400  1
  Zn  Zn142  1  0.18490800  0.33176300  0.35084800  1
  Zn  Zn143  1  0.62603500  0.44959400  0.31414400  1
  Zn  Zn144  1  0.29564100  0.90259800  0.35260600  1
  Zn  Zn145  1  0.30682100  0.55149200  0.32995300  1
  Zn  Zn146  1  0.00305700  0.39322700  0.34539300  1
  Zn  Zn147  1  0.67284900  0.67284900  0.37454500  1
  Zn  Zn148  1  0.29220500  0.73370000  0.34310700  1
  Zn  Zn149  1  0.47794200  0.24006800  0.30467200  1
  Zn  Zn150  1  0.98790300  0.74372300  0.36854200  1
  Zn  Zn151  1  0.63119800  0.27584800  0.30202100  1
  Zn  Zn152  1  0.77907100  0.15706300  0.32195600  1
  Zn  Zn153  1  0.78303000  0.65369000  0.32178600  1
  Zn  Zn154  1  0.93765800  0.86121600  0.33053600  1
  Zn  Zn155  1  0.16078900  0.01393400  0.39824300  1
  Zn  Zn156  1  0.76775500  0.00562900  0.34441900  1
  Zn  Zn157  1  0.92878200  0.04082800  0.34218200  1
  Zn  Zn158  1  0.35779400  0.60197400  0.38054900  1
  Zn  Zn159  1  0.24264000  0.85247000  0.30369800  1
  Zn  Zn160  1  0.46266700  0.59200700  0.32730500  1
  Zn  Zn161  1  0.31691600  0.20486900  0.30690900  1
  Zn  Zn162  1  0.93887600  0.69420500  0.31913800  1
  Zn  Zn163  1  0.62284900  0.62284900  0.32454500  1
  Zn  Zn164  1  0.89330400  0.41164100  0.39787500  1
  Zn  Zn165  1  0.68037700  0.32600700  0.35270600  1
  Zn  Zn166  1  0.97950500  0.09072800  0.39026400  1
  Zn  Zn167  1  0.45239300  0.93405600  0.35121500  1
  Zn  Zn168  1  0.36619200  0.25496900  0.35882700  1
  Zn  Zn169  1  0.30803900  0.38448100  0.31855500  1
  Zn  Zn170  1  0.66532000  0.01969000  0.39638500  1
  Zn  Zn171  1  0.05005600  0.44309900  0.39648500  1
  Zn  Zn172  1  0.17284900  0.67284900  0.37454500  1
  Zn  Zn173  1  0.61449900  0.96984900  0.34707000  1
  Zn  Zn174  1  0.46662600  0.08863500  0.32713500  1
  Zn  Zn175  1  0.61966200  0.79610300  0.33494700  1
  Zn  Zn176  1  0.05349200  0.61199700  0.40598400  1
  Zn  Zn177  1  0.28490800  0.43176300  0.45084800  1
  Zn  Zn178  1  0.72603500  0.54959400  0.41414400  1
  Zn  Zn179  1  0.39564100  0.00259800  0.45260600  1
  Zn  Zn180  1  0.40682100  0.65149200  0.42995300  1
  Zn  Zn181  1  0.10305700  0.49322700  0.44539300  1
  Zn  Zn182  1  0.77284900  0.77284900  0.47454500  1
  Zn  Zn183  1  0.39220500  0.83370000  0.44310700  1
  Zn  Zn184  1  0.57794200  0.34006800  0.40467200  1
  Zn  Zn185  1  0.08790300  0.84372300  0.46854200  1
  Zn  Zn186  1  0.73119800  0.37584800  0.40202100  1
  Zn  Zn187  1  0.87907100  0.25706300  0.42195600  1
  Zn  Zn188  1  0.88303000  0.75369000  0.42178600  1
  Zn  Zn189  1  0.03765800  0.96121600  0.43053600  1
  Zn  Zn190  1  0.26078900  0.11393400  0.49824300  1
  Zn  Zn191  1  0.86775500  0.10562900  0.44441900  1
  Zn  Zn192  1  0.02878200  0.14082800  0.44218200  1
  Zn  Zn193  1  0.45779400  0.70197400  0.48054900  1
  Zn  Zn194  1  0.34264000  0.95247000  0.40369800  1
  Zn  Zn195  1  0.56266700  0.69200700  0.42730500  1
  Zn  Zn196  1  0.41691600  0.30486900  0.40690900  1
  Zn  Zn197  1  0.03887600  0.79420500  0.41913800  1
  Zn  Zn198  1  0.72284900  0.72284900  0.42454500  1
  Zn  Zn199  1  0.99330400  0.51164100  0.49787500  1
  Zn  Zn200  1  0.78037700  0.42600700  0.45270600  1
  Zn  Zn201  1  0.07950500  0.19072800  0.49026400  1
  Zn  Zn202  1  0.55239300  0.03405600  0.45121500  1
  Zn  Zn203  1  0.46619200  0.35496900  0.45882700  1
  Zn  Zn204  1  0.40803900  0.48448100  0.41855500  1
  Zn  Zn205  1  0.76532000  0.11969000  0.49638500  1
  Zn  Zn206  1  0.15005600  0.54309900  0.49648500  1
  Zn  Zn207  1  0.27284900  0.77284900  0.47454500  1
  Zn  Zn208  1  0.71449900  0.06984900  0.44707000  1
  Zn  Zn209  1  0.56662600  0.18863500  0.42713500  1
  Zn  Zn210  1  0.71966200  0.89610300  0.43494700  1
  Zn  Zn211  1  0.15349200  0.71199700  0.50598400  1
  Zn  Zn212  1  0.38490800  0.53176300  0.55084800  1
  Zn  Zn213  1  0.82603500  0.64959400  0.51414400  1
  Zn  Zn214  1  0.49564100  0.10259800  0.55260600  1
  Zn  Zn215  1  0.50682100  0.75149200  0.52995300  1
  Zn  Zn216  1  0.20305700  0.59322700  0.54539300  1
  Zn  Zn217  1  0.87284900  0.87284900  0.57454500  1
  Zn  Zn218  1  0.49220500  0.93370000  0.54310700  1
  Zn  Zn219  1  0.67794200  0.44006800  0.50467200  1
  Zn  Zn220  1  0.18790300  0.94372300  0.56854200  1
  Zn  Zn221  1  0.83119800  0.47584800  0.50202100  1
  Zn  Zn222  1  0.97907100  0.35706300  0.52195600  1
  Zn  Zn223  1  0.98303000  0.85369000  0.52178600  1
  Zn  Zn224  1  0.13765800  0.06121600  0.53053600  1
  Zn  Zn225  1  0.36078900  0.21393400  0.59824300  1
  Zn  Zn226  1  0.96775500  0.20562900  0.54441900  1
  Zn  Zn227  1  0.12878200  0.24082800  0.54218200  1
  Zn  Zn228  1  0.55779400  0.80197400  0.58054900  1
  Zn  Zn229  1  0.44264000  0.05247000  0.50369800  1
  Zn  Zn230  1  0.66266700  0.79200700  0.52730500  1
  Zn  Zn231  1  0.51691600  0.40486900  0.50690900  1
  Zn  Zn232  1  0.13887600  0.89420500  0.51913800  1
  Zn  Zn233  1  0.82284900  0.82284900  0.52454500  1
  Zn  Zn234  1  0.09330400  0.61164100  0.59787500  1
  Zn  Zn235  1  0.88037700  0.52600700  0.55270600  1
  Zn  Zn236  1  0.17950500  0.29072800  0.59026400  1
  Zn  Zn237  1  0.65239300  0.13405600  0.55121500  1
  Zn  Zn238  1  0.56619200  0.45496900  0.55882700  1
  Zn  Zn239  1  0.50803900  0.58448100  0.51855500  1
  Zn  Zn240  1  0.86532000  0.21969000  0.59638500  1
  Zn  Zn241  1  0.25005600  0.64309900  0.59648500  1
  Zn  Zn242  1  0.37284900  0.87284900  0.57454500  1
  Zn  Zn243  1  0.81449900  0.16984900  0.54707000  1
  Zn  Zn244  1  0.66662600  0.28863500  0.52713500  1
  Zn  Zn245  1  0.81966200  0.99610300  0.53494700  1
  Zn  Zn246  1  0.25349200  0.81199700  0.60598400  1
  Zn  Zn247  1  0.48490800  0.63176300  0.65084800  1
  Zn  Zn248  1  0.92603500  0.74959400  0.61414400  1
  Zn  Zn249  1  0.59564100  0.20259800  0.65260600  1
  Zn  Zn250  1  0.60682100  0.85149200  0.62995300  1
  Zn  Zn251  1  0.30305700  0.69322700  0.64539300  1
  Zn  Zn252  1  0.97284900  0.97284900  0.67454500  1
  Zn  Zn253  1  0.59220500  0.03370000  0.64310700  1
  Zn  Zn254  1  0.77794200  0.54006800  0.60467200  1
  Zn  Zn255  1  0.28790300  0.04372300  0.66854200  1
  Zn  Zn256  1  0.93119800  0.57584800  0.60202100  1
  Zn  Zn257  1  0.07907100  0.45706300  0.62195600  1
  Zn  Zn258  1  0.08303000  0.95369000  0.62178600  1
  Zn  Zn259  1  0.23765800  0.16121600  0.63053600  1
  Zn  Zn260  1  0.46078900  0.31393400  0.69824300  1
  Zn  Zn261  1  0.06775500  0.30562900  0.64441900  1
  Zn  Zn262  1  0.22878200  0.34082800  0.64218200  1
  Zn  Zn263  1  0.65779400  0.90197400  0.68054900  1
  Zn  Zn264  1  0.54264000  0.15247000  0.60369800  1
  Zn  Zn265  1  0.76266700  0.89200700  0.62730500  1
  Zn  Zn266  1  0.61691600  0.50486900  0.60690900  1
  Zn  Zn267  1  0.23887600  0.99420500  0.61913800  1
  Zn  Zn268  1  0.92284900  0.92284900  0.62454500  1
  Zn  Zn269  1  0.19330400  0.71164100  0.69787500  1
  Zn  Zn270  1  0.98037700  0.62600700  0.65270600  1
  Zn  Zn271  1  0.27950500  0.39072800  0.69026400  1
  Zn  Zn272  1  0.75239300  0.23405600  0.65121500  1
  Zn  Zn273  1  0.66619200  0.55496900  0.65882700  1
  Zn  Zn274  1  0.60803900  0.68448100  0.61855500  1
  Zn  Zn275  1  0.96532000  0.31969000  0.69638500  1
  Zn  Zn276  1  0.35005600  0.74309900  0.69648500  1
  Zn  Zn277  1  0.47284900  0.97284900  0.67454500  1
  Zn  Zn278  1  0.91449900  0.26984900  0.64707000  1
  Zn  Zn279  1  0.76662600  0.38863500  0.62713500  1
  Zn  Zn280  1  0.91966200  0.09610300  0.63494700  1
  Zn  Zn281  1  0.35349200  0.91199700  0.70598400  1
  Zn  Zn282  1  0.02603500  0.84959400  0.71414400  1
  Zn  Zn283  1  0.70682100  0.95149200  0.72995300  1
  Zn  Zn284  1  0.40305700  0.79322700  0.74539300  1
  Zn  Zn285  1  0.69220500  0.13370000  0.74310700  1
  Zn  Zn286  1  0.87794200  0.64006800  0.70467200  1
  Zn  Zn287  1  0.03119800  0.67584800  0.70202100  1
  Zn  Zn288  1  0.17907100  0.55706300  0.72195600  1
  Zn  Zn289  1  0.18303000  0.05369000  0.72178600  1
  Zn  Zn290  1  0.33765800  0.26121600  0.73053600  1
  Zn  Zn291  1  0.16775500  0.40562900  0.74441900  1
  Zn  Zn292  1  0.32878200  0.44082800  0.74218200  1
  Zn  Zn293  1  0.64264000  0.25247000  0.70369800  1
  Zn  Zn294  1  0.86266700  0.99200700  0.72730500  1
  Zn  Zn295  1  0.71691600  0.60486900  0.70690900  1
  Zn  Zn296  1  0.33887600  0.09420500  0.71913800  1
  Zn  Zn297  1  0.02284900  0.02284900  0.72454500  1
  Zn  Zn298  1  0.70803900  0.78448100  0.71855500  1
  Zn  Zn299  1  0.01449900  0.36984900  0.74707000  1
  Zn  Zn300  1  0.86662600  0.48863500  0.72713500  1
  Zn  Zn301  1  0.01966200  0.19610300  0.73494700  1
