# generated using pymatgen
data_Mg4Zn11
_symmetry_space_group_name_H-M   'P 1'
_cell_length_a   5.75474300
_cell_length_b   7.35431274
_cell_length_c   43.83644800
_cell_angle_alpha   90.39897649
_cell_angle_beta   90.00000000
_cell_angle_gamma   66.96772378
_symmetry_Int_Tables_number   1
_chemical_formula_structural   Mg4Zn11
_chemical_formula_sum   'Mg16 Zn44'
_cell_volume   1707.31283613
_cell_formula_units_Z   4
loop_
 _symmetry_equiv_pos_site_id
 _symmetry_equiv_pos_as_xyz
  1  'x, y, z'
loop_
 _atom_site_type_symbol
 _atom_site_label
 _atom_site_symmetry_multiplicity
 _atom_site_fract_x
 _atom_site_fract_y
 _atom_site_fract_z
 _atom_site_occupancy
  Mg  Mg0  1  0.59195800  0.81608400  0.21794900  1
  Mg  Mg1  1  0.29708600  0.40582800  0.20512800  1
  Mg  Mg2  1  0.36118900  0.27762300  0.29487200  1
  Mg  Mg3  1  0.06631700  0.86736600  0.28205100  1
  Mg  Mg4  1  0.13041900  0.73916100  0.37179500  1
  Mg  Mg5  1  0.83554800  0.32890500  0.35897400  1
  Mg  Mg6  1  0.89965000  0.20070000  0.44871800  1
  Mg  Mg7  1  0.60477800  0.79044300  0.43589700  1
  Mg  Mg8  1  0.66888100  0.66223800  0.52564100  1
  Mg  Mg9  1  0.37400900  0.25198200  0.51282100  1
  Mg  Mg10  1  0.43811200  0.12377700  0.60256400  1
  Mg  Mg11  1  0.14324000  0.71352000  0.58974400  1
  Mg  Mg12  1  0.20734200  0.58531500  0.67948700  1
  Mg  Mg13  1  0.91247100  0.17505900  0.66666700  1
  Mg  Mg14  1  0.97657300  0.04685400  0.75641000  1
  Mg  Mg15  1  0.68170100  0.63659700  0.74359000  1
  Zn  Zn16  1  0.96870000  0.54340900  0.25690200  1
  Zn  Zn17  1  0.08851300  0.82297300  0.21696500  1
  Zn  Zn18  1  0.48789000  0.54340900  0.25690200  1
  Zn  Zn19  1  0.80053000  0.39893900  0.20611200  1
  Zn  Zn20  1  0.17038400  0.14004200  0.24309800  1
  Zn  Zn21  1  0.68957400  0.14004200  0.24309800  1
  Zn  Zn22  1  0.73793100  0.00494800  0.33382500  1
  Zn  Zn23  1  0.85774400  0.28451200  0.29388800  1
  Zn  Zn24  1  0.25712100  0.00494800  0.33382500  1
  Zn  Zn25  1  0.56976100  0.86047800  0.28303500  1
  Zn  Zn26  1  0.93961500  0.60158000  0.32002100  1
  Zn  Zn27  1  0.45880500  0.60158000  0.32002100  1
  Zn  Zn28  1  0.50716200  0.46648600  0.41074800  1
  Zn  Zn29  1  0.62697500  0.74605000  0.37081100  1
  Zn  Zn30  1  0.02635200  0.46648600  0.41074800  1
  Zn  Zn31  1  0.33899200  0.32201600  0.35995800  1
  Zn  Zn32  1  0.70884600  0.06311800  0.39694400  1
  Zn  Zn33  1  0.22803600  0.06311800  0.39694400  1
  Zn  Zn34  1  0.27639300  0.92802500  0.48767200  1
  Zn  Zn35  1  0.39620600  0.20758800  0.44773400  1
  Zn  Zn36  1  0.79558300  0.92802500  0.48767200  1
  Zn  Zn37  1  0.10822300  0.78355500  0.43688200  1
  Zn  Zn38  1  0.47807600  0.52465700  0.47386700  1
  Zn  Zn39  1  0.99726700  0.52465700  0.47386700  1
  Zn  Zn40  1  0.04562300  0.38956300  0.56459500  1
  Zn  Zn41  1  0.16543700  0.66912700  0.52465700  1
  Zn  Zn42  1  0.56481400  0.38956300  0.56459500  1
  Zn  Zn43  1  0.87745300  0.24509300  0.51380500  1
  Zn  Zn44  1  0.24730700  0.98619500  0.55079000  1
  Zn  Zn45  1  0.76649700  0.98619500  0.55079000  1
  Zn  Zn46  1  0.81485400  0.85110100  0.64151800  1
  Zn  Zn47  1  0.93466700  0.13066500  0.60158000  1
  Zn  Zn48  1  0.33404400  0.85110100  0.64151800  1
  Zn  Zn49  1  0.64668400  0.70663100  0.59072800  1
  Zn  Zn50  1  0.01653800  0.44773400  0.62771300  1
  Zn  Zn51  1  0.53572800  0.44773400  0.62771300  1
  Zn  Zn52  1  0.58408500  0.31264000  0.71844100  1
  Zn  Zn53  1  0.70389800  0.59220400  0.67850300  1
  Zn  Zn54  1  0.10327500  0.31264000  0.71844100  1
  Zn  Zn55  1  0.41591500  0.16817000  0.66765100  1
  Zn  Zn56  1  0.78576900  0.90927200  0.70463600  1
  Zn  Zn57  1  0.30495900  0.90927200  0.70463600  1
  Zn  Zn58  1  0.47312900  0.05374200  0.75542600  1
  Zn  Zn59  1  0.18514600  0.62970800  0.74457400  1
