# generated using pymatgen
data_Ca7Mg23
_symmetry_space_group_name_H-M   'P 1'
_cell_length_a   5.29835000
_cell_length_b   11.86564160
_cell_length_c   44.92259500
_cell_angle_alpha   97.58908832
_cell_angle_beta   90.00000000
_cell_angle_gamma   90.00000000
_symmetry_Int_Tables_number   1
_chemical_formula_structural   Ca7Mg23
_chemical_formula_sum   'Ca14 Mg46'
_cell_volume   2799.47011581
_cell_formula_units_Z   2
loop_
 _symmetry_equiv_pos_site_id
 _symmetry_equiv_pos_as_xyz
  1  'x, y, z'
loop_
 _atom_site_type_symbol
 _atom_site_label
 _atom_site_symmetry_multiplicity
 _atom_site_fract_x
 _atom_site_fract_y
 _atom_site_fract_z
 _atom_site_occupancy
  Ca  Ca0  1  0.25000000  0.31634100  0.25000000  1
  Ca  Ca1  1  0.75000000  0.98300700  0.25000000  1
  Ca  Ca2  1  0.25000000  0.85480200  0.32692300  1
  Ca  Ca3  1  0.75000000  0.52146900  0.32692300  1
  Ca  Ca4  1  0.25000000  0.39326400  0.40384600  1
  Ca  Ca5  1  0.75000000  0.05993000  0.40384600  1
  Ca  Ca6  1  0.25000000  0.93172500  0.48076900  1
  Ca  Ca7  1  0.75000000  0.59839200  0.48076900  1
  Ca  Ca8  1  0.25000000  0.47018700  0.55769200  1
  Ca  Ca9  1  0.75000000  0.13685400  0.55769200  1
  Ca  Ca10  1  0.25000000  0.00864800  0.63461500  1
  Ca  Ca11  1  0.75000000  0.67531500  0.63461500  1
  Ca  Ca12  1  0.25000000  0.54711000  0.71153800  1
  Ca  Ca13  1  0.75000000  0.21377700  0.71153800  1
  Mg  Mg14  1  0.25000000  0.55081800  0.21292900  1
  Mg  Mg15  1  0.25000000  0.04942800  0.21014800  1
  Mg  Mg16  1  0.25000000  0.81031400  0.25000000  1
  Mg  Mg17  1  0.75000000  0.48903400  0.25000000  1
  Mg  Mg18  1  0.75000000  0.21006800  0.21014800  1
  Mg  Mg19  1  0.75000000  0.71145900  0.21292900  1
  Mg  Mg20  1  0.25000000  0.08928000  0.28985200  1
  Mg  Mg21  1  0.25000000  0.58788900  0.28707100  1
  Mg  Mg22  1  0.25000000  0.34877600  0.32692300  1
  Mg  Mg23  1  0.75000000  0.02749500  0.32692300  1
  Mg  Mg24  1  0.75000000  0.74853000  0.28707100  1
  Mg  Mg25  1  0.75000000  0.24992000  0.28985200  1
  Mg  Mg26  1  0.25000000  0.62774200  0.36677500  1
  Mg  Mg27  1  0.25000000  0.12635100  0.36399400  1
  Mg  Mg28  1  0.25000000  0.88723700  0.40384600  1
  Mg  Mg29  1  0.75000000  0.56595700  0.40384600  1
  Mg  Mg30  1  0.75000000  0.28699100  0.36399400  1
  Mg  Mg31  1  0.75000000  0.78838200  0.36677500  1
  Mg  Mg32  1  0.25000000  0.16620300  0.44369800  1
  Mg  Mg33  1  0.25000000  0.66481200  0.44091700  1
  Mg  Mg34  1  0.25000000  0.42569900  0.48076900  1
  Mg  Mg35  1  0.75000000  0.10441800  0.48076900  1
  Mg  Mg36  1  0.75000000  0.82545300  0.44091700  1
  Mg  Mg37  1  0.75000000  0.32684300  0.44369800  1
  Mg  Mg38  1  0.25000000  0.70466500  0.52062100  1
  Mg  Mg39  1  0.25000000  0.20327400  0.51784000  1
  Mg  Mg40  1  0.25000000  0.96416000  0.55769200  1
  Mg  Mg41  1  0.75000000  0.64288000  0.55769200  1
  Mg  Mg42  1  0.75000000  0.36391400  0.51784000  1
  Mg  Mg43  1  0.75000000  0.86530500  0.52062100  1
  Mg  Mg44  1  0.25000000  0.24312600  0.59754500  1
  Mg  Mg45  1  0.25000000  0.74173500  0.59476300  1
  Mg  Mg46  1  0.25000000  0.50262200  0.63461500  1
  Mg  Mg47  1  0.75000000  0.18134100  0.63461500  1
  Mg  Mg48  1  0.75000000  0.90237600  0.59476300  1
  Mg  Mg49  1  0.75000000  0.40376600  0.59754500  1
  Mg  Mg50  1  0.25000000  0.78158800  0.67446800  1
  Mg  Mg51  1  0.25000000  0.28019700  0.67168600  1
  Mg  Mg52  1  0.25000000  0.04108400  0.71153800  1
  Mg  Mg53  1  0.75000000  0.71980300  0.71153800  1
  Mg  Mg54  1  0.75000000  0.44083700  0.67168600  1
  Mg  Mg55  1  0.75000000  0.94222800  0.67446800  1
  Mg  Mg56  1  0.25000000  0.32004900  0.75139100  1
  Mg  Mg57  1  0.25000000  0.81865900  0.74860900  1
  Mg  Mg58  1  0.75000000  0.97929900  0.74860900  1
  Mg  Mg59  1  0.75000000  0.48069000  0.75139100  1
