# generated using pymatgen
data_Mg83Pd32
_symmetry_space_group_name_H-M   'P 1'
_cell_length_a   8.83883700
_cell_length_b   11.93708038
_cell_length_c   44.35540600
_cell_angle_alpha   87.49946255
_cell_angle_beta   90.00000000
_cell_angle_gamma   68.27044156
_symmetry_Int_Tables_number   1
_chemical_formula_structural   Mg83Pd32
_chemical_formula_sum   'Mg83 Pd32'
_cell_volume   4342.58916709
_cell_formula_units_Z   1
loop_
 _symmetry_equiv_pos_site_id
 _symmetry_equiv_pos_as_xyz
  1  'x, y, z'
loop_
 _atom_site_type_symbol
 _atom_site_label
 _atom_site_symmetry_multiplicity
 _atom_site_fract_x
 _atom_site_fract_y
 _atom_site_fract_z
 _atom_site_occupancy
  Mg  Mg0  1  0.56759000  0.86482000  0.31234200  1
  Mg  Mg1  1  0.97684300  0.04631500  0.29926500  1
  Mg  Mg2  1  0.77221600  0.45556800  0.30580400  1
  Mg  Mg3  1  0.20315200  0.01904600  0.39878600  1
  Mg  Mg4  1  0.88414000  0.23172100  0.34561700  1
  Mg  Mg5  1  0.77780200  0.01904600  0.39878600  1
  Mg  Mg6  1  0.09128000  0.39208900  0.33782200  1
  Mg  Mg7  1  0.41029300  0.17941400  0.39099000  1
  Mg  Mg8  1  0.51663000  0.39208900  0.33782200  1
  Mg  Mg9  1  0.99857700  0.57749600  0.38417300  1
  Mg  Mg10  1  0.31759000  0.36482000  0.43734200  1
  Mg  Mg11  1  0.42392700  0.57749600  0.38417300  1
  Mg  Mg12  1  0.29585600  0.83363900  0.35243400  1
  Mg  Mg13  1  0.72684300  0.54631500  0.42426500  1
  Mg  Mg14  1  0.87050500  0.83363900  0.35243400  1
  Mg  Mg15  1  0.64149400  0.10005900  0.33218100  1
  Mg  Mg16  1  0.10420800  0.79158400  0.40930000  1
  Mg  Mg17  1  0.25844600  0.10005900  0.33218100  1
  Mg  Mg18  1  0.65293800  0.31107600  0.40442700  1
  Mg  Mg19  1  0.19022400  0.61955100  0.32730800  1
  Mg  Mg20  1  0.03598600  0.31107600  0.40442700  1
  Mg  Mg21  1  0.52221600  0.95556800  0.43080400  1
  Mg  Mg22  1  0.64721600  0.70556800  0.36830400  1
  Mg  Mg23  1  0.95315200  0.51904600  0.52378600  1
  Mg  Mg24  1  0.63414000  0.73172100  0.47061700  1
  Mg  Mg25  1  0.52780200  0.51904600  0.52378600  1
  Mg  Mg26  1  0.84128000  0.89208900  0.46282200  1
  Mg  Mg27  1  0.16029300  0.67941400  0.51599000  1
  Mg  Mg28  1  0.26663000  0.89208900  0.46282200  1
  Mg  Mg29  1  0.74857700  0.07749600  0.50917300  1
  Mg  Mg30  1  0.06759000  0.86482000  0.56234200  1
  Mg  Mg31  1  0.17392700  0.07749600  0.50917300  1
  Mg  Mg32  1  0.04585600  0.33363900  0.47743400  1
  Mg  Mg33  1  0.47684300  0.04631500  0.54926500  1
  Mg  Mg34  1  0.62050500  0.33363900  0.47743400  1
  Mg  Mg35  1  0.39149400  0.60005900  0.45718100  1
  Mg  Mg36  1  0.85420800  0.29158400  0.53430000  1
  Mg  Mg37  1  0.00844600  0.60005900  0.45718100  1
  Mg  Mg38  1  0.40293800  0.81107600  0.52942700  1
  Mg  Mg39  1  0.94022400  0.11955100  0.45230800  1
  Mg  Mg40  1  0.78598600  0.81107600  0.52942700  1
  Mg  Mg41  1  0.27221600  0.45556800  0.55580400  1
  Mg  Mg42  1  0.39721600  0.20556800  0.49330400  1
  Mg  Mg43  1  0.70315200  0.01904600  0.64878600  1
  Mg  Mg44  1  0.38414000  0.23172100  0.59561700  1
  Mg  Mg45  1  0.27780200  0.01904600  0.64878600  1
  Mg  Mg46  1  0.59128000  0.39208900  0.58782200  1
  Mg  Mg47  1  0.91029300  0.17941400  0.64099000  1
  Mg  Mg48  1  0.01663000  0.39208900  0.58782200  1
  Mg  Mg49  1  0.49857700  0.57749600  0.63417300  1
  Mg  Mg50  1  0.81759000  0.36482000  0.68734200  1
  Mg  Mg51  1  0.92392700  0.57749600  0.63417300  1
  Mg  Mg52  1  0.79585600  0.83363900  0.60243400  1
  Mg  Mg53  1  0.22684300  0.54631500  0.67426500  1
  Mg  Mg54  1  0.37050500  0.83363900  0.60243400  1
  Mg  Mg55  1  0.14149400  0.10005900  0.58218100  1
  Mg  Mg56  1  0.60420800  0.79158400  0.65930000  1
  Mg  Mg57  1  0.75844600  0.10005900  0.58218100  1
  Mg  Mg58  1  0.15293800  0.31107600  0.65442700  1
  Mg  Mg59  1  0.69022400  0.61955100  0.57730800  1
  Mg  Mg60  1  0.53598600  0.31107600  0.65442700  1
  Mg  Mg61  1  0.02221600  0.95556800  0.68080400  1
  Mg  Mg62  1  0.14721600  0.70556800  0.61830400  1
  Mg  Mg63  1  0.45315200  0.51904600  0.77378600  1
  Mg  Mg64  1  0.13414000  0.73172100  0.72061700  1
  Mg  Mg65  1  0.02780200  0.51904600  0.77378600  1
  Mg  Mg66  1  0.34128000  0.89208900  0.71282200  1
  Mg  Mg67  1  0.66029300  0.67941400  0.76599000  1
  Mg  Mg68  1  0.76663000  0.89208900  0.71282200  1
  Mg  Mg69  1  0.24857700  0.07749600  0.75917300  1
  Mg  Mg70  1  0.56759000  0.86482000  0.81234200  1
  Mg  Mg71  1  0.67392700  0.07749600  0.75917300  1
  Mg  Mg72  1  0.54585600  0.33363900  0.72743400  1
  Mg  Mg73  1  0.97684300  0.04631500  0.79926500  1
  Mg  Mg74  1  0.12050500  0.33363900  0.72743400  1
  Mg  Mg75  1  0.89149400  0.60005900  0.70718100  1
  Mg  Mg76  1  0.35420800  0.29158400  0.78430000  1
  Mg  Mg77  1  0.50844600  0.60005900  0.70718100  1
  Mg  Mg78  1  0.90293800  0.81107600  0.77942700  1
  Mg  Mg79  1  0.44022400  0.11955100  0.70230800  1
  Mg  Mg80  1  0.28598600  0.81107600  0.77942700  1
  Mg  Mg81  1  0.77221600  0.45556800  0.80580400  1
  Mg  Mg82  1  0.89721600  0.20556800  0.74330400  1
  Pd  Pd83  1  0.80272500  0.76827900  0.41512600  1
  Pd  Pd84  1  0.52242800  0.95514400  0.36840900  1
  Pd  Pd85  1  0.42899500  0.76827900  0.41512600  1
  Pd  Pd86  1  0.49170700  0.64285600  0.32148100  1
  Pd  Pd87  1  0.77200500  0.45599100  0.36819800  1
  Pd  Pd88  1  0.86543700  0.64285600  0.32148100  1
  Pd  Pd89  1  0.00138300  0.99723400  0.35788700  1
  Pd  Pd90  1  0.29305000  0.41390100  0.37872000  1
  Pd  Pd91  1  0.55272500  0.26827900  0.54012600  1
  Pd  Pd92  1  0.27242800  0.45514400  0.49340900  1
  Pd  Pd93  1  0.17899500  0.26827900  0.54012600  1
  Pd  Pd94  1  0.24170700  0.14285600  0.44648100  1
  Pd  Pd95  1  0.52200500  0.95599100  0.49319800  1
  Pd  Pd96  1  0.61543700  0.14285600  0.44648100  1
  Pd  Pd97  1  0.75138300  0.49723400  0.48288700  1
  Pd  Pd98  1  0.04305000  0.91390100  0.50372000  1
  Pd  Pd99  1  0.30272500  0.76827900  0.66512600  1
  Pd  Pd100  1  0.02242800  0.95514400  0.61840900  1
  Pd  Pd101  1  0.92899500  0.76827900  0.66512600  1
  Pd  Pd102  1  0.99170700  0.64285600  0.57148100  1
  Pd  Pd103  1  0.27200500  0.45599100  0.61819800  1
  Pd  Pd104  1  0.36543700  0.64285600  0.57148100  1
  Pd  Pd105  1  0.50138300  0.99723400  0.60788700  1
  Pd  Pd106  1  0.79305000  0.41390100  0.62872000  1
  Pd  Pd107  1  0.05272500  0.26827900  0.79012600  1
  Pd  Pd108  1  0.77242800  0.45514400  0.74340900  1
  Pd  Pd109  1  0.67899500  0.26827900  0.79012600  1
  Pd  Pd110  1  0.74170700  0.14285600  0.69648100  1
  Pd  Pd111  1  0.02200500  0.95599100  0.74319800  1
  Pd  Pd112  1  0.11543700  0.14285600  0.69648100  1
  Pd  Pd113  1  0.25138300  0.49723400  0.73288700  1
  Pd  Pd114  1  0.54305000  0.91390100  0.75372000  1
