# generated using pymatgen
data_CeMg
_symmetry_space_group_name_H-M   'P 1'
_cell_length_a   5.79243117
_cell_length_b   5.83029938
_cell_length_c   42.90463500
_cell_angle_alpha   89.79249727
_cell_angle_beta   87.62655045
_cell_angle_gamma   69.85152094
_symmetry_Int_Tables_number   1
_chemical_formula_structural   CeMg
_chemical_formula_sum   'Ce16 Mg16'
_cell_volume   1359.03234892
_cell_formula_units_Z   16
loop_
 _symmetry_equiv_pos_site_id
 _symmetry_equiv_pos_as_xyz
  1  'x, y, z'
loop_
 _atom_site_type_symbol
 _atom_site_label
 _atom_site_symmetry_multiplicity
 _atom_site_fract_x
 _atom_site_fract_y
 _atom_site_fract_z
 _atom_site_occupancy
  Ce  Ce0  1  0.67971200  0.49575200  0.74192700  1
  Ce  Ce1  1  0.93567300  0.42732500  0.79653400  1
  Ce  Ce2  1  0.91048100  0.41882900  0.66500400  1
  Ce  Ce3  1  0.16644200  0.35040200  0.71961100  1
  Ce  Ce4  1  0.14125100  0.34190600  0.58808100  1
  Ce  Ce5  1  0.39721100  0.27347900  0.64268800  1
  Ce  Ce6  1  0.37202000  0.26498300  0.51115800  1
  Ce  Ce7  1  0.62798000  0.19655600  0.56576500  1
  Ce  Ce8  1  0.60278900  0.18806000  0.43423500  1
  Ce  Ce9  1  0.85874900  0.11963300  0.48884200  1
  Ce  Ce10  1  0.83355800  0.11113700  0.35731200  1
  Ce  Ce11  1  0.08951900  0.04271000  0.41191900  1
  Ce  Ce12  1  0.06432700  0.03421400  0.28038900  1
  Ce  Ce13  1  0.32028800  0.96578600  0.33499600  1
  Ce  Ce14  1  0.29509700  0.95729000  0.20346600  1
  Ce  Ce15  1  0.55105700  0.88886300  0.25807300  1
  Mg  Mg16  1  0.08045200  0.87812800  0.75935100  1
  Mg  Mg17  1  0.53493300  0.04494900  0.77911100  1
  Mg  Mg18  1  0.31122100  0.80120500  0.68242800  1
  Mg  Mg19  1  0.76570200  0.96802600  0.70218800  1
  Mg  Mg20  1  0.54199000  0.72428200  0.60550500  1
  Mg  Mg21  1  0.99647100  0.89110200  0.62526500  1
  Mg  Mg22  1  0.77276000  0.64735900  0.52858200  1
  Mg  Mg23  1  0.22724000  0.81417900  0.54834200  1
  Mg  Mg24  1  0.00352900  0.57043600  0.45165800  1
  Mg  Mg25  1  0.45801000  0.73725600  0.47141800  1
  Mg  Mg26  1  0.23429800  0.49351300  0.37473500  1
  Mg  Mg27  1  0.68877900  0.66033300  0.39449500  1
  Mg  Mg28  1  0.46506700  0.41659000  0.29781200  1
  Mg  Mg29  1  0.91954800  0.58341000  0.31757200  1
  Mg  Mg30  1  0.69583700  0.33966700  0.22088900  1
  Mg  Mg31  1  0.15031700  0.50648700  0.24064900  1
