# generated using pymatgen
data_Sr4Mg35
_symmetry_space_group_name_H-M   'P 1'
_cell_length_a   10.60291300
_cell_length_b   14.66206680
_cell_length_c   47.66603800
_cell_angle_alpha   92.42755603
_cell_angle_beta   90.00000000
_cell_angle_gamma   68.80296164
_symmetry_Int_Tables_number   1
_chemical_formula_structural   Sr4Mg35
_chemical_formula_sum   'Sr12 Mg105'
_cell_volume   6901.70350145
_cell_formula_units_Z   3
loop_
 _symmetry_equiv_pos_site_id
 _symmetry_equiv_pos_as_xyz
  1  'x, y, z'
loop_
 _atom_site_type_symbol
 _atom_site_label
 _atom_site_symmetry_multiplicity
 _atom_site_fract_x
 _atom_site_fract_y
 _atom_site_fract_z
 _atom_site_occupancy
  Sr  Sr0  1  0.36904800  0.26190500  0.36340900  1
  Sr  Sr1  1  0.79761900  0.40476200  0.48245600  1
  Sr  Sr2  1  0.65476200  0.69047600  0.38721800  1
  Sr  Sr3  1  0.51190500  0.97619000  0.45864700  1
  Sr  Sr4  1  0.08333300  0.83333300  0.50626600  1
  Sr  Sr5  1  0.51190500  0.97619000  0.62531300  1
  Sr  Sr6  1  0.36904800  0.26190500  0.53007500  1
  Sr  Sr7  1  0.22619000  0.54761900  0.60150400  1
  Sr  Sr8  1  0.79761900  0.40476200  0.64912300  1
  Sr  Sr9  1  0.22619000  0.54761900  0.76817000  1
  Sr  Sr10  1  0.08333300  0.83333300  0.67293200  1
  Sr  Sr11  1  0.94047600  0.11904800  0.74436100  1
  Mg  Mg12  1  0.22619000  0.04761900  0.35150400  1
  Mg  Mg13  1  0.72619000  0.04761900  0.35150400  1
  Mg  Mg14  1  0.22619000  0.54761900  0.35150400  1
  Mg  Mg15  1  0.79059700  0.41880500  0.40162700  1
  Mg  Mg16  1  0.64601400  0.20193100  0.47391800  1
  Mg  Mg17  1  0.15205400  0.20193100  0.47391800  1
  Mg  Mg18  1  0.85943700  0.77508500  0.44953400  1
  Mg  Mg19  1  0.98387500  0.03224900  0.38932800  1
  Mg  Mg20  1  0.26959000  0.46082000  0.41313700  1
  Mg  Mg21  1  0.18279100  0.63441800  0.45653700  1
  Mg  Mg22  1  0.89707700  0.20584600  0.43272700  1
  Mg  Mg23  1  0.08333300  0.83333300  0.42293200  1
  Mg  Mg24  1  0.58333300  0.33333300  0.42293200  1
  Mg  Mg25  1  0.08333300  0.33333300  0.42293200  1
  Mg  Mg26  1  0.94047600  0.61904800  0.49436100  1
  Mg  Mg27  1  0.44047600  0.61904800  0.49436100  1
  Mg  Mg28  1  0.94047600  0.11904800  0.49436100  1
  Mg  Mg29  1  0.15694900  0.99206200  0.45335600  1
  Mg  Mg30  1  0.52386900  0.54968900  0.43414700  1
  Mg  Mg31  1  0.14498400  0.41856400  0.47785600  1
  Mg  Mg32  1  0.02168200  0.24810300  0.36800900  1
  Mg  Mg33  1  0.64279700  0.11697700  0.41171800  1
  Mg  Mg34  1  0.31567800  0.67460400  0.39250900  1
  Mg  Mg35  1  0.43645200  0.41856400  0.47785600  1
  Mg  Mg36  1  0.00971800  0.67460400  0.39250900  1
  Mg  Mg37  1  0.92644100  0.54968900  0.43414700  1
  Mg  Mg38  1  0.24022500  0.11697700  0.41171800  1
  Mg  Mg39  1  0.85098900  0.99206200  0.45335600  1
  Mg  Mg40  1  0.73021500  0.24810300  0.36800900  1
  Mg  Mg41  1  0.30722900  0.89158100  0.39633100  1
  Mg  Mg42  1  0.52065200  0.46473600  0.37194600  1
  Mg  Mg43  1  0.37606900  0.24786100  0.44423800  1
  Mg  Mg44  1  0.66005800  0.67988400  0.46689700  1
  Mg  Mg45  1  0.80118900  0.89158100  0.39633100  1
  Mg  Mg46  1  0.36547700  0.77508500  0.44953400  1
  Mg  Mg47  1  0.50660900  0.98678300  0.37896800  1
  Mg  Mg48  1  0.01461200  0.46473600  0.37194600  1
  Mg  Mg49  1  0.50488300  0.99023400  0.54448400  1
  Mg  Mg50  1  0.36030000  0.77336000  0.61677600  1
  Mg  Mg51  1  0.86634000  0.77336000  0.61677600  1
  Mg  Mg52  1  0.57372300  0.34651400  0.59239100  1
  Mg  Mg53  1  0.69816100  0.60367800  0.53218500  1
  Mg  Mg54  1  0.98387500  0.03224900  0.55599500  1
  Mg  Mg55  1  0.89707700  0.20584600  0.59939400  1
  Mg  Mg56  1  0.61136300  0.77727500  0.57558400  1
  Mg  Mg57  1  0.79761900  0.40476200  0.56578900  1
  Mg  Mg58  1  0.29761900  0.90476200  0.56578900  1
  Mg  Mg59  1  0.79761900  0.90476200  0.56578900  1
  Mg  Mg60  1  0.65476200  0.19047600  0.63721800  1
  Mg  Mg61  1  0.15476200  0.19047600  0.63721800  1
  Mg  Mg62  1  0.65476200  0.69047600  0.63721800  1
  Mg  Mg63  1  0.87123500  0.56349100  0.59621300  1
  Mg  Mg64  1  0.23815500  0.12111800  0.57700400  1
  Mg  Mg65  1  0.85927000  0.98999200  0.62071300  1
  Mg  Mg66  1  0.73596800  0.81953200  0.51086600  1
  Mg  Mg67  1  0.35708300  0.68840600  0.55457500  1
  Mg  Mg68  1  0.02996400  0.24603300  0.53536600  1
  Mg  Mg69  1  0.15073800  0.98999200  0.62071300  1
  Mg  Mg70  1  0.72400300  0.24603300  0.53536600  1
  Mg  Mg71  1  0.64072700  0.12111800  0.57700400  1
  Mg  Mg72  1  0.95451100  0.68840600  0.55457500  1
  Mg  Mg73  1  0.56527400  0.56349100  0.59621300  1
  Mg  Mg74  1  0.44450000  0.81953200  0.51086600  1
  Mg  Mg75  1  0.02151500  0.46301000  0.53918800  1
  Mg  Mg76  1  0.23493800  0.03616400  0.51480300  1
  Mg  Mg77  1  0.09035500  0.81929000  0.58709500  1
  Mg  Mg78  1  0.37434400  0.25131300  0.60975400  1
  Mg  Mg79  1  0.51547500  0.46301000  0.53918800  1
  Mg  Mg80  1  0.07976300  0.34651400  0.59239100  1
  Mg  Mg81  1  0.22089400  0.55821100  0.52182500  1
  Mg  Mg82  1  0.72889800  0.03616400  0.51480300  1
  Mg  Mg83  1  0.21916900  0.56166300  0.68734100  1
  Mg  Mg84  1  0.07458600  0.34478800  0.75963300  1
  Mg  Mg85  1  0.58062600  0.34478800  0.75963300  1
  Mg  Mg86  1  0.28800900  0.91794300  0.73524800  1
  Mg  Mg87  1  0.41244700  0.17510600  0.67504200  1
  Mg  Mg88  1  0.69816100  0.60367800  0.69885200  1
  Mg  Mg89  1  0.61136300  0.77727500  0.74225100  1
  Mg  Mg90  1  0.32564800  0.34870300  0.71844200  1
  Mg  Mg91  1  0.51190500  0.97619000  0.70864700  1
  Mg  Mg92  1  0.01190500  0.47619000  0.70864700  1
  Mg  Mg93  1  0.51190500  0.47619000  0.70864700  1
  Mg  Mg94  1  0.36904800  0.76190500  0.78007500  1
  Mg  Mg95  1  0.86904800  0.76190500  0.78007500  1
  Mg  Mg96  1  0.36904800  0.26190500  0.78007500  1
  Mg  Mg97  1  0.58552000  0.13492000  0.73907000  1
  Mg  Mg98  1  0.95244100  0.69254700  0.71986100  1
  Mg  Mg99  1  0.57355600  0.56142100  0.76357000  1
  Mg  Mg100  1  0.45025400  0.39096000  0.65372300  1
  Mg  Mg101  1  0.07136900  0.25983400  0.69743200  1
  Mg  Mg102  1  0.74425000  0.81746100  0.67822300  1
  Mg  Mg103  1  0.86502400  0.56142100  0.76357000  1
  Mg  Mg104  1  0.43828900  0.81746100  0.67822300  1
  Mg  Mg105  1  0.35501300  0.69254700  0.71986100  1
  Mg  Mg106  1  0.66879700  0.25983400  0.69743200  1
  Mg  Mg107  1  0.27956000  0.13492000  0.73907000  1
  Mg  Mg108  1  0.15878600  0.39096000  0.65372300  1
  Mg  Mg109  1  0.73580100  0.03443800  0.68204500  1
  Mg  Mg110  1  0.94922400  0.60759300  0.65766100  1
  Mg  Mg111  1  0.80464100  0.39071800  0.72995200  1
  Mg  Mg112  1  0.08862900  0.82274100  0.75261100  1
  Mg  Mg113  1  0.22976100  0.03443800  0.68204500  1
  Mg  Mg114  1  0.79404900  0.91794300  0.73524800  1
  Mg  Mg115  1  0.93518000  0.12964000  0.66468200  1
  Mg  Mg116  1  0.44318400  0.60759300  0.65766100  1
