# generated using pymatgen
data_Mg69Ir17
_symmetry_space_group_name_H-M   'P 1'
_cell_length_a   8.24582600
_cell_length_b   16.34592500
_cell_length_c   56.62394600
_cell_angle_alpha   90.00000000
_cell_angle_beta   90.00000000
_cell_angle_gamma   90.00000000
_symmetry_Int_Tables_number   1
_chemical_formula_structural   Mg69Ir17
_chemical_formula_sum   'Mg138 Ir34'
_cell_volume   7632.09555738
_cell_formula_units_Z   2
loop_
 _symmetry_equiv_pos_site_id
 _symmetry_equiv_pos_as_xyz
  1  'x, y, z'
loop_
 _atom_site_type_symbol
 _atom_site_label
 _atom_site_symmetry_multiplicity
 _atom_site_fract_x
 _atom_site_fract_y
 _atom_site_fract_z
 _atom_site_occupancy
  Mg  Mg0  1  0.16666700  0.07899800  0.30729200  1
  Mg  Mg1  1  0.83333300  0.82899800  0.26562500  1
  Mg  Mg2  1  0.16666700  0.32899800  0.43229200  1
  Mg  Mg3  1  0.66666700  0.07899800  0.30729200  1
  Mg  Mg4  1  0.33333300  0.82899800  0.26562500  1
  Mg  Mg5  1  0.66666700  0.32899800  0.43229200  1
  Mg  Mg6  1  0.25000000  0.89526900  0.31582300  1
  Mg  Mg7  1  0.58333300  0.89526900  0.29876000  1
  Mg  Mg8  1  0.91666700  0.94645600  0.30729200  1
  Mg  Mg9  1  0.41666700  0.26272700  0.46542700  1
  Mg  Mg10  1  0.08333300  0.26272700  0.48249000  1
  Mg  Mg11  1  0.75000000  0.21154000  0.47395800  1
  Mg  Mg12  1  0.25000000  0.57899800  0.47395800  1
  Mg  Mg13  1  0.75000000  0.57899800  0.47395800  1
  Mg  Mg14  1  0.57867400  0.41991500  0.48182900  1
  Mg  Mg15  1  0.24534100  0.63492700  0.26358600  1
  Mg  Mg16  1  0.91200700  0.18215200  0.42646000  1
  Mg  Mg17  1  0.25465900  0.13492700  0.43433100  1
  Mg  Mg18  1  0.92132600  0.41991500  0.46608800  1
  Mg  Mg19  1  0.58799300  0.68215200  0.27145600  1
  Mg  Mg20  1  0.08799300  0.73808000  0.29942100  1
  Mg  Mg21  1  0.42132600  0.02306900  0.26766400  1
  Mg  Mg22  1  0.75465900  0.97584400  0.35479000  1
  Mg  Mg23  1  0.41200700  0.02306900  0.34691900  1
  Mg  Mg24  1  0.74534100  0.73808000  0.31516200  1
  Mg  Mg25  1  0.07867400  0.47584400  0.50979400  1
  Mg  Mg26  1  0.50000000  0.07899800  0.47395800  1
  Mg  Mg27  1  0.16666700  0.82899800  0.43229200  1
  Mg  Mg28  1  0.50000000  0.82899800  0.34895800  1
  Mg  Mg29  1  0.00000000  0.07899800  0.47395800  1
  Mg  Mg30  1  0.66666700  0.82899800  0.43229200  1
  Mg  Mg31  1  1.00000000  0.82899800  0.34895800  1
  Mg  Mg32  1  0.58333300  0.89526900  0.48249000  1
  Mg  Mg33  1  0.91666700  0.89526900  0.46542700  1
  Mg  Mg34  1  0.25000000  0.94645600  0.47395800  1
  Mg  Mg35  1  0.75000000  0.76272700  0.38209400  1
  Mg  Mg36  1  0.41666700  0.76272700  0.39915600  1
  Mg  Mg37  1  0.08333300  0.71154000  0.39062500  1
  Mg  Mg38  1  0.58333300  0.07899800  0.39062500  1
  Mg  Mg39  1  0.08333300  0.07899800  0.39062500  1
  Mg  Mg40  1  0.91200700  0.91991500  0.39849600  1
  Mg  Mg41  1  0.57867400  0.63492700  0.43025200  1
  Mg  Mg42  1  0.24534100  0.68215200  0.34312700  1
  Mg  Mg43  1  0.58799300  0.63492700  0.35099800  1
  Mg  Mg44  1  0.25465900  0.91991500  0.38275400  1
  Mg  Mg45  1  0.92132600  0.68215200  0.43812300  1
  Mg  Mg46  1  0.42132600  0.73808000  0.46608800  1
  Mg  Mg47  1  0.75465900  0.02306900  0.43433100  1
  Mg  Mg48  1  0.08799300  0.47584400  0.27145600  1
  Mg  Mg49  1  0.74534100  0.52306900  0.26358600  1
  Mg  Mg50  1  0.07867400  0.73808000  0.48182900  1
  Mg  Mg51  1  0.41200700  0.97584400  0.42646000  1
  Mg  Mg52  1  0.83333300  0.57899800  0.39062500  1
  Mg  Mg53  1  0.50000000  0.32899800  0.34895800  1
  Mg  Mg54  1  0.83333300  0.32899800  0.26562500  1
  Mg  Mg55  1  0.33333300  0.57899800  0.39062500  1
  Mg  Mg56  1  1.00000000  0.32899800  0.34895800  1
  Mg  Mg57  1  0.33333300  0.32899800  0.26562500  1
  Mg  Mg58  1  0.91666700  0.39526900  0.39915600  1
  Mg  Mg59  1  0.25000000  0.39526900  0.38209400  1
  Mg  Mg60  1  0.58333300  0.44645600  0.39062500  1
  Mg  Mg61  1  0.08333300  0.26272700  0.29876000  1
  Mg  Mg62  1  0.75000000  0.26272700  0.31582300  1
  Mg  Mg63  1  0.41666700  0.21154000  0.30729200  1
  Mg  Mg64  1  0.91666700  0.57899800  0.30729200  1
  Mg  Mg65  1  0.41666700  0.57899800  0.30729200  1
  Mg  Mg66  1  0.24534100  0.41991500  0.31516200  1
  Mg  Mg67  1  0.91200700  0.13492700  0.34691900  1
  Mg  Mg68  1  0.57867400  0.68215200  0.50979400  1
  Mg  Mg69  1  0.92132600  0.13492700  0.26766400  1
  Mg  Mg70  1  0.58799300  0.41991500  0.29942100  1
  Mg  Mg71  1  0.25465900  0.18215200  0.35479000  1
  Mg  Mg72  1  0.75465900  0.23808000  0.38275400  1
  Mg  Mg73  1  0.08799300  0.52306900  0.35099800  1
  Mg  Mg74  1  0.42132600  0.47584400  0.43812300  1
  Mg  Mg75  1  0.07867400  0.52306900  0.43025200  1
  Mg  Mg76  1  0.41200700  0.23808000  0.39849600  1
  Mg  Mg77  1  0.74534100  0.47584400  0.34312700  1
  Mg  Mg78  1  0.16666700  0.57899800  0.55729200  1
  Mg  Mg79  1  0.83333300  0.32899800  0.51562500  1
  Mg  Mg80  1  0.16666700  0.82899800  0.68229200  1
  Mg  Mg81  1  0.66666700  0.57899800  0.55729200  1
  Mg  Mg82  1  0.33333300  0.32899800  0.51562500  1
  Mg  Mg83  1  0.66666700  0.82899800  0.68229200  1
  Mg  Mg84  1  0.25000000  0.39526900  0.56582300  1
  Mg  Mg85  1  0.58333300  0.39526900  0.54876000  1
  Mg  Mg86  1  0.91666700  0.44645600  0.55729200  1
  Mg  Mg87  1  0.24534100  0.13492700  0.51358600  1
  Mg  Mg88  1  0.91200700  0.68215200  0.67646000  1
  Mg  Mg89  1  0.25465900  0.63492700  0.68433100  1
  Mg  Mg90  1  0.58799300  0.18215200  0.52145600  1
  Mg  Mg91  1  0.08799300  0.23808000  0.54942100  1
  Mg  Mg92  1  0.42132600  0.52306900  0.51766400  1
  Mg  Mg93  1  0.75465900  0.47584400  0.60479000  1
  Mg  Mg94  1  0.41200700  0.52306900  0.59691900  1
  Mg  Mg95  1  0.74534100  0.23808000  0.56516200  1
  Mg  Mg96  1  0.16666700  0.32899800  0.68229200  1
  Mg  Mg97  1  0.50000000  0.32899800  0.59895800  1
  Mg  Mg98  1  0.66666700  0.32899800  0.68229200  1
  Mg  Mg99  1  1.00000000  0.32899800  0.59895800  1
  Mg  Mg100  1  0.75000000  0.26272700  0.63209400  1
  Mg  Mg101  1  0.41666700  0.26272700  0.64915600  1
  Mg  Mg102  1  0.08333300  0.21154000  0.64062500  1
  Mg  Mg103  1  0.58333300  0.57899800  0.64062500  1
  Mg  Mg104  1  0.08333300  0.57899800  0.64062500  1
  Mg  Mg105  1  0.91200700  0.41991500  0.64849600  1
  Mg  Mg106  1  0.57867400  0.13492700  0.68025200  1
  Mg  Mg107  1  0.24534100  0.18215200  0.59312700  1
  Mg  Mg108  1  0.58799300  0.13492700  0.60099800  1
  Mg  Mg109  1  0.25465900  0.41991500  0.63275400  1
  Mg  Mg110  1  0.75465900  0.52306900  0.68433100  1
  Mg  Mg111  1  0.08799300  0.97584400  0.52145600  1
  Mg  Mg112  1  0.74534100  0.02306900  0.51358600  1
  Mg  Mg113  1  0.41200700  0.47584400  0.67646000  1
  Mg  Mg114  1  0.83333300  0.07899800  0.64062500  1
  Mg  Mg115  1  0.50000000  0.82899800  0.59895800  1
  Mg  Mg116  1  0.83333300  0.82899800  0.51562500  1
  Mg  Mg117  1  0.33333300  0.07899800  0.64062500  1
  Mg  Mg118  1  1.00000000  0.82899800  0.59895800  1
  Mg  Mg119  1  0.33333300  0.82899800  0.51562500  1
  Mg  Mg120  1  0.91666700  0.89526900  0.64915600  1
  Mg  Mg121  1  0.25000000  0.89526900  0.63209400  1
  Mg  Mg122  1  0.58333300  0.94645600  0.64062500  1
  Mg  Mg123  1  0.08333300  0.76272700  0.54876000  1
  Mg  Mg124  1  0.75000000  0.76272700  0.56582300  1
  Mg  Mg125  1  0.41666700  0.71154000  0.55729200  1
  Mg  Mg126  1  0.91666700  0.07899800  0.55729200  1
  Mg  Mg127  1  0.41666700  0.07899800  0.55729200  1
  Mg  Mg128  1  0.24534100  0.91991500  0.56516200  1
  Mg  Mg129  1  0.91200700  0.63492700  0.59691900  1
  Mg  Mg130  1  0.92132600  0.63492700  0.51766400  1
  Mg  Mg131  1  0.58799300  0.91991500  0.54942100  1
  Mg  Mg132  1  0.25465900  0.68215200  0.60479000  1
  Mg  Mg133  1  0.75465900  0.73808000  0.63275400  1
  Mg  Mg134  1  0.08799300  0.02306900  0.60099800  1
  Mg  Mg135  1  0.07867400  0.02306900  0.68025200  1
  Mg  Mg136  1  0.41200700  0.73808000  0.64849600  1
  Mg  Mg137  1  0.74534100  0.97584400  0.59312700  1
  Ir  Ir138  1  0.41666700  0.75164900  0.30729200  1
  Ir  Ir139  1  0.08333300  0.99267300  0.34746200  1
  Ir  Ir140  1  0.75000000  0.99267300  0.26712100  1
  Ir  Ir141  1  0.25000000  0.40634700  0.47395800  1
  Ir  Ir142  1  0.58333300  0.16532300  0.43378800  1
  Ir  Ir143  1  0.91666700  0.66532300  0.26412900  1
  Ir  Ir144  1  0.75000000  0.75164900  0.47395800  1
  Ir  Ir145  1  0.41666700  0.49267300  0.26412900  1
  Ir  Ir146  1  0.08333300  0.99267300  0.43378800  1
  Ir  Ir147  1  0.58333300  0.90634700  0.39062500  1
  Ir  Ir148  1  0.91666700  0.66532300  0.35045400  1
  Ir  Ir149  1  0.25000000  0.66532300  0.43079600  1
  Ir  Ir150  1  0.08333300  0.25164900  0.39062500  1
  Ir  Ir151  1  0.75000000  0.49267300  0.43079600  1
  Ir  Ir152  1  0.41666700  0.49267300  0.35045400  1
  Ir  Ir153  1  0.91666700  0.40634700  0.30729200  1
  Ir  Ir154  1  0.25000000  0.16532300  0.26712100  1
  Ir  Ir155  1  0.58333300  0.16532300  0.34746200  1
  Ir  Ir156  1  0.41666700  0.25164900  0.55729200  1
  Ir  Ir157  1  0.08333300  0.49267300  0.59746200  1
  Ir  Ir158  1  0.75000000  0.49267300  0.51712100  1
  Ir  Ir159  1  0.58333300  0.66532300  0.68378800  1
  Ir  Ir160  1  0.91666700  0.16532300  0.51412900  1
  Ir  Ir161  1  0.41666700  0.99267300  0.51412900  1
  Ir  Ir162  1  0.08333300  0.49267300  0.68378800  1
  Ir  Ir163  1  0.58333300  0.40634700  0.64062500  1
  Ir  Ir164  1  0.91666700  0.16532300  0.60045400  1
  Ir  Ir165  1  0.25000000  0.16532300  0.68079600  1
  Ir  Ir166  1  0.08333300  0.75164900  0.64062500  1
  Ir  Ir167  1  0.75000000  0.99267300  0.68079600  1
  Ir  Ir168  1  0.41666700  0.99267300  0.60045400  1
  Ir  Ir169  1  0.91666700  0.90634700  0.55729200  1
  Ir  Ir170  1  0.25000000  0.66532300  0.51712100  1
  Ir  Ir171  1  0.58333300  0.66532300  0.59746200  1
