# generated using pymatgen
data_Mg104Zn185
_symmetry_space_group_name_H-M   'P 1'
_cell_length_a   13.26606221
_cell_length_b   15.53344873
_cell_length_c   48.04736100
_cell_angle_alpha   89.05057746
_cell_angle_beta   95.72936823
_cell_angle_gamma   107.07914806
_symmetry_Int_Tables_number   1
_chemical_formula_structural   Mg104Zn185
_chemical_formula_sum   'Mg104 Zn185'
_cell_volume   9416.24909417
_cell_formula_units_Z   1
loop_
 _symmetry_equiv_pos_site_id
 _symmetry_equiv_pos_as_xyz
  1  'x, y, z'
loop_
 _atom_site_type_symbol
 _atom_site_label
 _atom_site_symmetry_multiplicity
 _atom_site_fract_x
 _atom_site_fract_y
 _atom_site_fract_z
 _atom_site_occupancy
  Mg  Mg0  1  0.88387300  0.04552100  0.28561500  1
  Mg  Mg1  1  0.11612700  0.13600000  0.28893000  1
  Mg  Mg2  1  0.68159700  0.35092400  0.29626600  1
  Mg  Mg3  1  0.31840300  0.83059600  0.27828000  1
  Mg  Mg4  1  0.74900600  0.03817900  0.33487100  1
  Mg  Mg5  1  0.06923400  0.88671300  0.36980100  1
  Mg  Mg6  1  0.60977900  0.48788100  0.33207600  1
  Mg  Mg7  1  0.88387300  0.14552100  0.38561500  1
  Mg  Mg8  1  0.96931900  0.73109100  0.32544900  1
  Mg  Mg9  1  0.57175100  0.14433500  0.31279400  1
  Mg  Mg10  1  0.71853500  0.69574100  0.31570800  1
  Mg  Mg11  1  0.11612700  0.23600000  0.38893000  1
  Mg  Mg12  1  0.64336400  0.83157700  0.35190400  1
  Mg  Mg13  1  0.03068100  0.55042900  0.34909700  1
  Mg  Mg14  1  0.39022100  0.79364000  0.34246900  1
  Mg  Mg15  1  0.35663600  0.44994400  0.32264100  1
  Mg  Mg16  1  0.01360900  0.05600100  0.34760200  1
  Mg  Mg17  1  0.68159700  0.45092400  0.39626600  1
  Mg  Mg18  1  0.31840300  0.93059600  0.37828000  1
  Mg  Mg19  1  0.28146500  0.58578000  0.35883700  1
  Mg  Mg20  1  0.25099400  0.24334200  0.33967500  1
  Mg  Mg21  1  0.42824900  0.13718500  0.36175100  1
  Mg  Mg22  1  0.93076600  0.39480800  0.30474500  1
  Mg  Mg23  1  0.98639100  0.22551900  0.32694300  1
  Mg  Mg24  1  0.74900600  0.13817900  0.43487100  1
  Mg  Mg25  1  0.06923400  0.98671300  0.46980100  1
  Mg  Mg26  1  0.60977900  0.58788100  0.43207600  1
  Mg  Mg27  1  0.88387300  0.24552100  0.48561500  1
  Mg  Mg28  1  0.96931900  0.83109100  0.42544900  1
  Mg  Mg29  1  0.57175100  0.24433500  0.41279400  1
  Mg  Mg30  1  0.71853500  0.79574100  0.41570800  1
  Mg  Mg31  1  0.11612700  0.33600000  0.48893000  1
  Mg  Mg32  1  0.64336400  0.93157700  0.45190400  1
  Mg  Mg33  1  0.03068100  0.65042900  0.44909700  1
  Mg  Mg34  1  0.39022100  0.89364000  0.44246900  1
  Mg  Mg35  1  0.35663600  0.54994400  0.42264100  1
  Mg  Mg36  1  0.01360900  0.15600100  0.44760200  1
  Mg  Mg37  1  0.68159700  0.55092400  0.49626600  1
  Mg  Mg38  1  0.31840300  0.03059600  0.47828000  1
  Mg  Mg39  1  0.28146500  0.68578000  0.45883700  1
  Mg  Mg40  1  0.25099400  0.34334200  0.43967500  1
  Mg  Mg41  1  0.42824900  0.23718500  0.46175100  1
  Mg  Mg42  1  0.93076600  0.49480800  0.40474500  1
  Mg  Mg43  1  0.98639100  0.32551900  0.42694300  1
  Mg  Mg44  1  0.74900600  0.23817900  0.53487100  1
  Mg  Mg45  1  0.06923400  0.08671300  0.56980100  1
  Mg  Mg46  1  0.60977900  0.68788100  0.53207600  1
  Mg  Mg47  1  0.88387300  0.34552100  0.58561500  1
  Mg  Mg48  1  0.96931900  0.93109100  0.52544900  1
  Mg  Mg49  1  0.57175100  0.34433500  0.51279400  1
  Mg  Mg50  1  0.71853500  0.89574100  0.51570800  1
  Mg  Mg51  1  0.11612700  0.43600000  0.58893000  1
  Mg  Mg52  1  0.64336400  0.03157700  0.55190400  1
  Mg  Mg53  1  0.03068100  0.75042900  0.54909700  1
  Mg  Mg54  1  0.39022100  0.99364000  0.54246900  1
  Mg  Mg55  1  0.35663600  0.64994400  0.52264100  1
  Mg  Mg56  1  0.01360900  0.25600100  0.54760200  1
  Mg  Mg57  1  0.68159700  0.65092400  0.59626600  1
  Mg  Mg58  1  0.31840300  0.13059600  0.57828000  1
  Mg  Mg59  1  0.28146500  0.78578000  0.55883700  1
  Mg  Mg60  1  0.25099400  0.44334200  0.53967500  1
  Mg  Mg61  1  0.42824900  0.33718500  0.56175100  1
  Mg  Mg62  1  0.93076600  0.59480800  0.50474500  1
  Mg  Mg63  1  0.98639100  0.42551900  0.52694300  1
  Mg  Mg64  1  0.74900600  0.33817900  0.63487100  1
  Mg  Mg65  1  0.06923400  0.18671300  0.66980100  1
  Mg  Mg66  1  0.60977900  0.78788100  0.63207600  1
  Mg  Mg67  1  0.88387300  0.44552100  0.68561500  1
  Mg  Mg68  1  0.96931900  0.03109100  0.62544900  1
  Mg  Mg69  1  0.57175100  0.44433500  0.61279400  1
  Mg  Mg70  1  0.71853500  0.99574100  0.61570800  1
  Mg  Mg71  1  0.11612700  0.53600000  0.68893000  1
  Mg  Mg72  1  0.64336400  0.13157700  0.65190400  1
  Mg  Mg73  1  0.03068100  0.85042900  0.64909700  1
  Mg  Mg74  1  0.39022100  0.09364000  0.64246900  1
  Mg  Mg75  1  0.35663600  0.74994400  0.62264100  1
  Mg  Mg76  1  0.01360900  0.35600100  0.64760200  1
  Mg  Mg77  1  0.68159700  0.75092400  0.69626600  1
  Mg  Mg78  1  0.31840300  0.23059600  0.67828000  1
  Mg  Mg79  1  0.28146500  0.88578000  0.65883700  1
  Mg  Mg80  1  0.25099400  0.54334200  0.63967500  1
  Mg  Mg81  1  0.42824900  0.43718500  0.66175100  1
  Mg  Mg82  1  0.93076600  0.69480800  0.60474500  1
  Mg  Mg83  1  0.98639100  0.52551900  0.62694300  1
  Mg  Mg84  1  0.74900600  0.43817900  0.73487100  1
  Mg  Mg85  1  0.06923400  0.28671300  0.76980100  1
  Mg  Mg86  1  0.60977900  0.88788100  0.73207600  1
  Mg  Mg87  1  0.88387300  0.54552100  0.78561500  1
  Mg  Mg88  1  0.96931900  0.13109100  0.72544900  1
  Mg  Mg89  1  0.57175100  0.54433500  0.71279400  1
  Mg  Mg90  1  0.71853500  0.09574100  0.71570800  1
  Mg  Mg91  1  0.11612700  0.63600000  0.78893000  1
  Mg  Mg92  1  0.64336400  0.23157700  0.75190400  1
  Mg  Mg93  1  0.03068100  0.95042900  0.74909700  1
  Mg  Mg94  1  0.39022100  0.19364000  0.74246900  1
  Mg  Mg95  1  0.35663600  0.84994400  0.72264100  1
  Mg  Mg96  1  0.01360900  0.45600100  0.74760200  1
  Mg  Mg97  1  0.68159700  0.85092400  0.79626600  1
  Mg  Mg98  1  0.31840300  0.33059600  0.77828000  1
  Mg  Mg99  1  0.28146500  0.98578000  0.75883700  1
  Mg  Mg100  1  0.25099400  0.64334200  0.73967500  1
  Mg  Mg101  1  0.42824900  0.53718500  0.76175100  1
  Mg  Mg102  1  0.93076600  0.79480800  0.70474500  1
  Mg  Mg103  1  0.98639100  0.62551900  0.72694300  1
  Zn  Zn104  1  0.51358900  0.76265600  0.29631600  1
  Zn  Zn105  1  0.14473200  0.34653700  0.29473900  1
  Zn  Zn106  1  0.50000000  0.59076000  0.28727300  1
  Zn  Zn107  1  0.69712500  0.88225600  0.29423000  1
  Zn  Zn108  1  0.79093800  0.19378700  0.29246000  1
  Zn  Zn109  1  0.30287500  0.29926500  0.28031500  1
  Zn  Zn110  1  0.20906200  0.98773400  0.28208500  1
  Zn  Zn111  1  0.85526800  0.83498300  0.27980600  1
  Zn  Zn112  1  1.00000000  0.59076000  0.28727300  1
  Zn  Zn113  1  0.48641100  0.41886500  0.27823000  1
  Zn  Zn114  1  0.84920500  0.76669200  0.37091400  1
  Zn  Zn115  1  0.03575800  0.92827000  0.30739500  1
  Zn  Zn116  1  0.51358900  0.86265600  0.39631600  1
  Zn  Zn117  1  0.14473200  0.44653700  0.39473900  1
  Zn  Zn118  1  0.17856500  0.69426100  0.31400900  1
  Zn  Zn119  1  0.85936100  0.88444600  0.33048900  1
  Zn  Zn120  1  0.50000000  0.64076000  0.33727300  1
  Zn  Zn121  1  0.15079500  0.51482900  0.30363100  1
  Zn  Zn122  1  0.37496700  0.98604400  0.31965000  1
  Zn  Zn123  1  0.82105800  0.53778100  0.31117000  1
  Zn  Zn124  1  0.53087400  0.93467400  0.30671000  1
  Zn  Zn125  1  0.65881200  0.14066500  0.37398100  1
  Zn  Zn126  1  0.66294100  0.64362500  0.37373800  1
  Zn  Zn127  1  0.80881900  0.42151100  0.35040100  1
  Zn  Zn128  1  0.96424200  0.35325100  0.36715100  1
  Zn  Zn129  1  0.62503300  0.29547700  0.35489600  1
  Zn  Zn130  1  0.78829600  0.24395100  0.34080700  1
  Zn  Zn131  1  0.17894200  0.74374000  0.36337500  1
  Zn  Zn132  1  0.14063900  0.39707500  0.34405600  1
  Zn  Zn133  1  0.33705900  0.63789600  0.30080700  1
  Zn  Zn134  1  0.21170400  0.03757000  0.33373900  1
  Zn  Zn135  1  0.82143500  0.58726000  0.36053700  1
  Zn  Zn136  1  0.50000000  0.69076000  0.38727300  1
  Zn  Zn137  1  0.69712500  0.98225600  0.39423000  1
  Zn  Zn138  1  0.52936800  0.98466500  0.35617600  1
  Zn  Zn139  1  0.79093800  0.29378700  0.39246000  1
  Zn  Zn140  1  0.30287500  0.39926500  0.38031500  1
  Zn  Zn141  1  0.20906200  0.08773400  0.38208500  1
  Zn  Zn142  1  0.19118100  0.86001000  0.32414500  1
  Zn  Zn143  1  0.47063200  0.29685500  0.31837000  1
  Zn  Zn144  1  0.85526800  0.93498300  0.37980600  1
  Zn  Zn145  1  0.00000000  0.69076000  0.38727300  1
  Zn  Zn146  1  0.46912600  0.34684700  0.36783600  1
  Zn  Zn147  1  0.34118800  0.14085600  0.30056400  1
  Zn  Zn148  1  0.48641100  0.51886500  0.37823000  1
  Zn  Zn149  1  0.84920500  0.86669200  0.47091400  1
  Zn  Zn150  1  0.03575800  0.02827000  0.40739500  1
  Zn  Zn151  1  0.51358900  0.96265600  0.49631600  1
  Zn  Zn152  1  0.14473200  0.54653700  0.49473900  1
  Zn  Zn153  1  0.17856500  0.79426100  0.41400900  1
  Zn  Zn154  1  0.85936100  0.98444600  0.43048900  1
  Zn  Zn155  1  0.50000000  0.74076000  0.43727300  1
  Zn  Zn156  1  0.15079500  0.61482900  0.40363100  1
  Zn  Zn157  1  0.37496700  0.08604400  0.41965000  1
  Zn  Zn158  1  0.82105800  0.63778100  0.41117000  1
  Zn  Zn159  1  0.53087400  0.03467400  0.40671000  1
  Zn  Zn160  1  0.65881200  0.24066500  0.47398100  1
  Zn  Zn161  1  0.66294100  0.74362500  0.47373800  1
  Zn  Zn162  1  0.80881900  0.52151100  0.45040100  1
  Zn  Zn163  1  0.96424200  0.45325100  0.46715100  1
  Zn  Zn164  1  0.62503300  0.39547700  0.45489600  1
  Zn  Zn165  1  0.78829600  0.34395100  0.44080700  1
  Zn  Zn166  1  0.17894200  0.84374000  0.46337500  1
  Zn  Zn167  1  0.14063900  0.49707500  0.44405600  1
  Zn  Zn168  1  0.33705900  0.73789600  0.40080700  1
  Zn  Zn169  1  0.21170400  0.13757000  0.43373900  1
  Zn  Zn170  1  0.82143500  0.68726000  0.46053700  1
  Zn  Zn171  1  0.50000000  0.79076000  0.48727300  1
  Zn  Zn172  1  0.69712500  0.08225600  0.49423000  1
  Zn  Zn173  1  0.52936800  0.08466500  0.45617600  1
  Zn  Zn174  1  0.79093800  0.39378700  0.49246000  1
  Zn  Zn175  1  0.30287500  0.49926500  0.48031500  1
  Zn  Zn176  1  0.20906200  0.18773400  0.48208500  1
  Zn  Zn177  1  0.19118100  0.96001000  0.42414500  1
  Zn  Zn178  1  0.47063200  0.39685500  0.41837000  1
  Zn  Zn179  1  0.85526800  0.03498300  0.47980600  1
  Zn  Zn180  1  0.00000000  0.79076000  0.48727300  1
  Zn  Zn181  1  0.46912600  0.44684700  0.46783600  1
  Zn  Zn182  1  0.34118800  0.24085600  0.40056400  1
  Zn  Zn183  1  0.48641100  0.61886500  0.47823000  1
  Zn  Zn184  1  0.84920500  0.96669200  0.57091400  1
  Zn  Zn185  1  0.03575800  0.12827000  0.50739500  1
  Zn  Zn186  1  0.51358900  0.06265600  0.59631600  1
  Zn  Zn187  1  0.14473200  0.64653700  0.59473900  1
  Zn  Zn188  1  0.17856500  0.89426100  0.51400900  1
  Zn  Zn189  1  0.85936100  0.08444600  0.53048900  1
  Zn  Zn190  1  0.50000000  0.84076000  0.53727300  1
  Zn  Zn191  1  0.15079500  0.71482900  0.50363100  1
  Zn  Zn192  1  0.37496700  0.18604400  0.51965000  1
  Zn  Zn193  1  0.82105800  0.73778100  0.51117000  1
  Zn  Zn194  1  0.53087400  0.13467400  0.50671000  1
  Zn  Zn195  1  0.65881200  0.34066500  0.57398100  1
  Zn  Zn196  1  0.66294100  0.84362500  0.57373800  1
  Zn  Zn197  1  0.80881900  0.62151100  0.55040100  1
  Zn  Zn198  1  0.96424200  0.55325100  0.56715100  1
  Zn  Zn199  1  0.62503300  0.49547700  0.55489600  1
  Zn  Zn200  1  0.78829600  0.44395100  0.54080700  1
  Zn  Zn201  1  0.17894200  0.94374000  0.56337500  1
  Zn  Zn202  1  0.14063900  0.59707500  0.54405600  1
  Zn  Zn203  1  0.33705900  0.83789600  0.50080700  1
  Zn  Zn204  1  0.21170400  0.23757000  0.53373900  1
  Zn  Zn205  1  0.82143500  0.78726000  0.56053700  1
  Zn  Zn206  1  0.50000000  0.89076000  0.58727300  1
  Zn  Zn207  1  0.69712500  0.18225600  0.59423000  1
  Zn  Zn208  1  0.52936800  0.18466500  0.55617600  1
  Zn  Zn209  1  0.79093800  0.49378700  0.59246000  1
  Zn  Zn210  1  0.30287500  0.59926500  0.58031500  1
  Zn  Zn211  1  0.20906200  0.28773400  0.58208500  1
  Zn  Zn212  1  0.19118100  0.06001000  0.52414500  1
  Zn  Zn213  1  0.47063200  0.49685500  0.51837000  1
  Zn  Zn214  1  0.85526800  0.13498300  0.57980600  1
  Zn  Zn215  1  0.00000000  0.89076000  0.58727300  1
  Zn  Zn216  1  0.46912600  0.54684700  0.56783600  1
  Zn  Zn217  1  0.34118800  0.34085600  0.50056400  1
  Zn  Zn218  1  0.48641100  0.71886500  0.57823000  1
  Zn  Zn219  1  0.84920500  0.06669200  0.67091400  1
  Zn  Zn220  1  0.03575800  0.22827000  0.60739500  1
  Zn  Zn221  1  0.51358900  0.16265600  0.69631600  1
  Zn  Zn222  1  0.14473200  0.74653700  0.69473900  1
  Zn  Zn223  1  0.17856500  0.99426100  0.61400900  1
  Zn  Zn224  1  0.85936100  0.18444600  0.63048900  1
  Zn  Zn225  1  0.50000000  0.94076000  0.63727300  1
  Zn  Zn226  1  0.15079500  0.81482900  0.60363100  1
  Zn  Zn227  1  0.37496700  0.28604400  0.61965000  1
  Zn  Zn228  1  0.82105800  0.83778100  0.61117000  1
  Zn  Zn229  1  0.53087400  0.23467400  0.60671000  1
  Zn  Zn230  1  0.65881200  0.44066500  0.67398100  1
  Zn  Zn231  1  0.66294100  0.94362500  0.67373800  1
  Zn  Zn232  1  0.80881900  0.72151100  0.65040100  1
  Zn  Zn233  1  0.96424200  0.65325100  0.66715100  1
  Zn  Zn234  1  0.62503300  0.59547700  0.65489600  1
  Zn  Zn235  1  0.78829600  0.54395100  0.64080700  1
  Zn  Zn236  1  0.17894200  0.04374000  0.66337500  1
  Zn  Zn237  1  0.14063900  0.69707500  0.64405600  1
  Zn  Zn238  1  0.33705900  0.93789600  0.60080700  1
  Zn  Zn239  1  0.21170400  0.33757000  0.63373900  1
  Zn  Zn240  1  0.82143500  0.88726000  0.66053700  1
  Zn  Zn241  1  0.50000000  0.99076000  0.68727300  1
  Zn  Zn242  1  0.69712500  0.28225600  0.69423000  1
  Zn  Zn243  1  0.52936800  0.28466500  0.65617600  1
  Zn  Zn244  1  0.79093800  0.59378700  0.69246000  1
  Zn  Zn245  1  0.30287500  0.69926500  0.68031500  1
  Zn  Zn246  1  0.20906200  0.38773400  0.68208500  1
  Zn  Zn247  1  0.19118100  0.16001000  0.62414500  1
  Zn  Zn248  1  0.47063200  0.59685500  0.61837000  1
  Zn  Zn249  1  0.85526800  0.23498300  0.67980600  1
  Zn  Zn250  1  0.00000000  0.99076000  0.68727300  1
  Zn  Zn251  1  0.46912600  0.64684700  0.66783600  1
  Zn  Zn252  1  0.34118800  0.44085600  0.60056400  1
  Zn  Zn253  1  0.48641100  0.81886500  0.67823000  1
  Zn  Zn254  1  0.84920500  0.16669200  0.77091400  1
  Zn  Zn255  1  0.03575800  0.32827000  0.70739500  1
  Zn  Zn256  1  0.51358900  0.26265600  0.79631600  1
  Zn  Zn257  1  0.14473200  0.84653700  0.79473900  1
  Zn  Zn258  1  0.17856500  0.09426100  0.71400900  1
  Zn  Zn259  1  0.85936100  0.28444600  0.73048900  1
  Zn  Zn260  1  0.50000000  0.04076000  0.73727300  1
  Zn  Zn261  1  0.15079500  0.91482900  0.70363100  1
  Zn  Zn262  1  0.37496700  0.38604400  0.71965000  1
  Zn  Zn263  1  0.82105800  0.93778100  0.71117000  1
  Zn  Zn264  1  0.53087400  0.33467400  0.70671000  1
  Zn  Zn265  1  0.65881200  0.54066500  0.77398100  1
  Zn  Zn266  1  0.66294100  0.04362500  0.77373800  1
  Zn  Zn267  1  0.80881900  0.82151100  0.75040100  1
  Zn  Zn268  1  0.96424200  0.75325100  0.76715100  1
  Zn  Zn269  1  0.62503300  0.69547700  0.75489600  1
  Zn  Zn270  1  0.78829600  0.64395100  0.74080700  1
  Zn  Zn271  1  0.17894200  0.14374000  0.76337500  1
  Zn  Zn272  1  0.14063900  0.79707500  0.74405600  1
  Zn  Zn273  1  0.33705900  0.03789600  0.70080700  1
  Zn  Zn274  1  0.21170400  0.43757000  0.73373900  1
  Zn  Zn275  1  0.82143500  0.98726000  0.76053700  1
  Zn  Zn276  1  0.50000000  0.09076000  0.78727300  1
  Zn  Zn277  1  0.69712500  0.38225600  0.79423000  1
  Zn  Zn278  1  0.52936800  0.38466500  0.75617600  1
  Zn  Zn279  1  0.79093800  0.69378700  0.79246000  1
  Zn  Zn280  1  0.30287500  0.79926500  0.78031500  1
  Zn  Zn281  1  0.20906200  0.48773400  0.78208500  1
  Zn  Zn282  1  0.19118100  0.26001000  0.72414500  1
  Zn  Zn283  1  0.47063200  0.69685500  0.71837000  1
  Zn  Zn284  1  0.85526800  0.33498300  0.77980600  1
  Zn  Zn285  1  0.00000000  0.09076000  0.78727300  1
  Zn  Zn286  1  0.46912600  0.74684700  0.76783600  1
  Zn  Zn287  1  0.34118800  0.54085600  0.70056400  1
  Zn  Zn288  1  0.48641100  0.91886500  0.77823000  1
