# generated using pymatgen
data_CeMg
_symmetry_space_group_name_H-M   'P 1'
_cell_length_a   5.79243186
_cell_length_b   6.65425509
_cell_length_c   44.75356600
_cell_angle_alpha   91.33840131
_cell_angle_beta   92.97714470
_cell_angle_gamma   114.30267289
_symmetry_Int_Tables_number   1
_chemical_formula_structural   CeMg
_chemical_formula_sum   'Ce18 Mg18'
_cell_volume   1568.11440373
_cell_formula_units_Z   18
loop_
 _symmetry_equiv_pos_site_id
 _symmetry_equiv_pos_as_xyz
  1  'x, y, z'
loop_
 _atom_site_type_symbol
 _atom_site_label
 _atom_site_symmetry_multiplicity
 _atom_site_fract_x
 _atom_site_fract_y
 _atom_site_fract_z
 _atom_site_occupancy
  Ce  Ce0  1  0.85056400  0.36023500  0.78043800  1
  Ce  Ce1  1  0.41610200  0.37309800  0.75289500  1
  Ce  Ce2  1  0.51723100  0.09356900  0.71377100  1
  Ce  Ce3  1  0.08276900  0.10643100  0.68622900  1
  Ce  Ce4  1  0.18389800  0.82690200  0.64710500  1
  Ce  Ce5  1  0.74943600  0.83976500  0.61956200  1
  Ce  Ce6  1  0.85056400  0.56023500  0.58043800  1
  Ce  Ce7  1  0.41610200  0.57309800  0.55289500  1
  Ce  Ce8  1  0.51723100  0.29356900  0.51377100  1
  Ce  Ce9  1  0.08276900  0.30643100  0.48622900  1
  Ce  Ce10  1  0.18389800  0.02690200  0.44710500  1
  Ce  Ce11  1  0.74943600  0.03976500  0.41956200  1
  Ce  Ce12  1  0.85056400  0.76023500  0.38043800  1
  Ce  Ce13  1  0.41610200  0.77309800  0.35289500  1
  Ce  Ce14  1  0.51723100  0.49356900  0.31377100  1
  Ce  Ce15  1  0.08276900  0.50643100  0.28622900  1
  Ce  Ce16  1  0.18389800  0.22690200  0.24710500  1
  Ce  Ce17  1  0.74943600  0.23976500  0.21956200  1
  Mg  Mg18  1  0.89642000  0.88633800  0.75320200  1
  Mg  Mg19  1  0.37024600  0.84699500  0.78013100  1
  Mg  Mg20  1  0.56308700  0.61967100  0.68653500  1
  Mg  Mg21  1  0.03691300  0.58032900  0.71346500  1
  Mg  Mg22  1  0.22975400  0.35300500  0.61986900  1
  Mg  Mg23  1  0.70358000  0.31366200  0.64679800  1
  Mg  Mg24  1  0.89642000  0.08633800  0.55320200  1
  Mg  Mg25  1  0.37024600  0.04699500  0.58013100  1
  Mg  Mg26  1  0.56308700  0.81967100  0.48653500  1
  Mg  Mg27  1  0.03691300  0.78032900  0.51346500  1
  Mg  Mg28  1  0.22975400  0.55300500  0.41986900  1
  Mg  Mg29  1  0.70358000  0.51366200  0.44679800  1
  Mg  Mg30  1  0.89642000  0.28633800  0.35320200  1
  Mg  Mg31  1  0.37024600  0.24699500  0.38013100  1
  Mg  Mg32  1  0.56308700  0.01967100  0.28653500  1
  Mg  Mg33  1  0.03691300  0.98032900  0.31346500  1
  Mg  Mg34  1  0.22975400  0.75300500  0.21986900  1
  Mg  Mg35  1  0.70358000  0.71366200  0.24679800  1
