# generated using pymatgen
data_MgB7
_symmetry_space_group_name_H-M   'P 1'
_cell_length_a   5.97250318
_cell_length_b   7.26364858
_cell_length_c   45.01062000
_cell_angle_alpha   86.50256948
_cell_angle_beta   86.19588580
_cell_angle_gamma   65.72461627
_symmetry_Int_Tables_number   1
_chemical_formula_structural   MgB7
_chemical_formula_sum   'Mg16 B112'
_cell_volume   1774.86073170
_cell_formula_units_Z   16
loop_
 _symmetry_equiv_pos_site_id
 _symmetry_equiv_pos_as_xyz
  1  'x, y, z'
loop_
 _atom_site_type_symbol
 _atom_site_label
 _atom_site_symmetry_multiplicity
 _atom_site_fract_x
 _atom_site_fract_y
 _atom_site_fract_z
 _atom_site_occupancy
  Mg  Mg0  1  0.20940300  0.36690700  0.71428600  1
  Mg  Mg1  1  0.70940300  0.36690700  0.71428600  1
  Mg  Mg2  1  0.12455200  0.09166000  0.65923600  1
  Mg  Mg3  1  0.29425500  0.64215500  0.76933500  1
  Mg  Mg4  1  0.63797500  0.65262200  0.57142900  1
  Mg  Mg5  1  0.13797500  0.65262200  0.57142900  1
  Mg  Mg6  1  0.55312300  0.37737400  0.51637900  1
  Mg  Mg7  1  0.72282600  0.92786900  0.62647800  1
  Mg  Mg8  1  0.06654600  0.93833600  0.42857100  1
  Mg  Mg9  1  0.56654600  0.93833600  0.42857100  1
  Mg  Mg10  1  0.98169500  0.66308900  0.37352200  1
  Mg  Mg11  1  0.15139800  0.21358400  0.48362100  1
  Mg  Mg12  1  0.49511800  0.22405000  0.28571400  1
  Mg  Mg13  1  0.99511800  0.22405000  0.28571400  1
  Mg  Mg14  1  0.41026600  0.94880300  0.23066500  1
  Mg  Mg15  1  0.57996900  0.49929800  0.34076400  1
  B  B16  1  0.95457900  0.41144800  0.67939500  1
  B  B17  1  0.20238800  0.44163600  0.66036500  1
  B  B18  1  0.69561000  0.44163600  0.66036500  1
  B  B19  1  0.02366600  0.20390200  0.74876600  1
  B  B20  1  0.52907300  0.27874800  0.66310700  1
  B  B21  1  0.94596400  0.02549400  0.77146100  1
  B  B22  1  0.25708100  0.02549400  0.77146100  1
  B  B23  1  0.58680200  0.09867600  0.72772100  1
  B  B24  1  0.07972000  0.12988100  0.71068000  1
  B  B25  1  0.62492200  0.06308800  0.68706900  1
  B  B26  1  0.39914900  0.99892400  0.70955500  1
  B  B27  1  0.89237100  0.99892400  0.70955500  1
  B  B28  1  0.52017800  0.90180400  0.74672300  1
  B  B29  1  0.83129500  0.90180400  0.74672300  1
  B  B30  1  0.58751200  0.83201100  0.68184800  1
  B  B31  1  0.89862900  0.83201100  0.68184800  1
  B  B32  1  0.52643500  0.73489100  0.71901600  1
  B  B33  1  0.01965700  0.73489100  0.71901600  1
  B  B34  1  0.79388500  0.67072700  0.74150300  1
  B  B35  1  0.33908700  0.60393400  0.71789200  1
  B  B36  1  0.83200500  0.63513900  0.70085100  1
  B  B37  1  0.16172600  0.70832100  0.65711000  1
  B  B38  1  0.47284300  0.70832100  0.65711000  1
  B  B39  1  0.88973400  0.45506700  0.76546500  1
  B  B40  1  0.39514100  0.52991200  0.67980500  1
  B  B41  1  0.72319600  0.29217900  0.76820600  1
  B  B42  1  0.21641800  0.29217900  0.76820600  1
  B  B43  1  0.46422800  0.32236700  0.74917700  1
  B  B44  1  0.38315000  0.69716200  0.53653700  1
  B  B45  1  0.63096000  0.72735000  0.51750800  1
  B  B46  1  0.12418200  0.72735000  0.51750800  1
  B  B47  1  0.45223700  0.48961700  0.60590900  1
  B  B48  1  0.95764400  0.56446200  0.52025000  1
  B  B49  1  0.37453500  0.31120900  0.62860400  1
  B  B50  1  0.68565200  0.31120900  0.62860400  1
  B  B51  1  0.01537300  0.38439000  0.58486300  1
  B  B52  1  0.50829100  0.41559500  0.56782300  1
  B  B53  1  0.05349300  0.34880200  0.54421200  1
  B  B54  1  0.82772100  0.28463800  0.56669800  1
  B  B55  1  0.32094300  0.28463800  0.56669800  1
  B  B56  1  0.94874900  0.18751900  0.60386600  1
  B  B57  1  0.25986600  0.18751900  0.60386600  1
  B  B58  1  0.01608400  0.11772500  0.53899100  1
  B  B59  1  0.32720000  0.11772500  0.53899100  1
  B  B60  1  0.95500700  0.02060500  0.57615900  1
  B  B61  1  0.44822900  0.02060500  0.57615900  1
  B  B62  1  0.22245700  0.95644100  0.59864500  1
  B  B63  1  0.76765900  0.88964800  0.57503500  1
  B  B64  1  0.26057600  0.92085300  0.55799400  1
  B  B65  1  0.59029800  0.99403500  0.51425300  1
  B  B66  1  0.90141400  0.99403500  0.51425300  1
  B  B67  1  0.31830500  0.74078200  0.62260800  1
  B  B68  1  0.82371200  0.81562700  0.53694800  1
  B  B69  1  0.15176800  0.57789300  0.62534900  1
  B  B70  1  0.64499000  0.57789300  0.62534900  1
  B  B71  1  0.89280000  0.60808100  0.60632000  1
  B  B72  1  0.81172100  0.98287700  0.39368000  1
  B  B73  1  0.05953100  0.01306500  0.37465100  1
  B  B74  1  0.55275300  0.01306500  0.37465100  1
  B  B75  1  0.88080900  0.77533100  0.46305200  1
  B  B76  1  0.38621600  0.85017600  0.37739200  1
  B  B77  1  0.80310700  0.59692300  0.48574700  1
  B  B78  1  0.11422300  0.59692300  0.48574700  1
  B  B79  1  0.44394500  0.67010400  0.44200600  1
  B  B80  1  0.93686200  0.70131000  0.42496500  1
  B  B81  1  0.48206500  0.63451600  0.40135500  1
  B  B82  1  0.25629200  0.57035300  0.42384100  1
  B  B83  1  0.74951400  0.57035300  0.42384100  1
  B  B84  1  0.37732100  0.47323300  0.46100900  1
  B  B85  1  0.68843800  0.47323300  0.46100900  1
  B  B86  1  0.44465500  0.40343900  0.39613400  1
  B  B87  1  0.75577200  0.40343900  0.39613400  1
  B  B88  1  0.38357800  0.30632000  0.43330200  1
  B  B89  1  0.87680000  0.30632000  0.43330200  1
  B  B90  1  0.65102800  0.24215600  0.45578800  1
  B  B91  1  0.19623000  0.17536200  0.43217700  1
  B  B92  1  0.68914800  0.20656800  0.41513700  1
  B  B93  1  0.01886900  0.27974900  0.37139600  1
  B  B94  1  0.32998600  0.27974900  0.37139600  1
  B  B95  1  0.74687700  0.02649600  0.47975000  1
  B  B96  1  0.25228400  0.10134100  0.39409100  1
  B  B97  1  0.58033900  0.86360700  0.48249200  1
  B  B98  1  0.07356100  0.86360700  0.48249200  1
  B  B99  1  0.32137100  0.89379500  0.46346300  1
  B  B100  1  0.24029300  0.26859100  0.25082300  1
  B  B101  1  0.48810300  0.29877900  0.23179400  1
  B  B102  1  0.98132500  0.29877900  0.23179400  1
  B  B103  1  0.30938000  0.06104500  0.32019500  1
  B  B104  1  0.81478700  0.13589000  0.23453500  1
  B  B105  1  0.23167800  0.88263700  0.34289000  1
  B  B106  1  0.54279500  0.88263700  0.34289000  1
  B  B107  1  0.87251600  0.95581900  0.29914900  1
  B  B108  1  0.36543400  0.98702400  0.28210800  1
  B  B109  1  0.91063600  0.92023100  0.25849700  1
  B  B110  1  0.68486400  0.85606700  0.28098400  1
  B  B111  1  0.17808600  0.85606700  0.28098400  1
  B  B112  1  0.80589200  0.75894700  0.31815200  1
  B  B113  1  0.11700900  0.75894700  0.31815200  1
  B  B114  1  0.87322600  0.68915400  0.25327700  1
  B  B115  1  0.18434300  0.68915400  0.25327700  1
  B  B116  1  0.81215000  0.59203400  0.29044500  1
  B  B117  1  0.30537200  0.59203400  0.29044500  1
  B  B118  1  0.07959900  0.52787000  0.31293100  1
  B  B119  1  0.62480200  0.46107700  0.28932000  1
  B  B120  1  0.11771900  0.49228200  0.27227900  1
  B  B121  1  0.44744100  0.56546300  0.22853900  1
  B  B122  1  0.75855700  0.56546300  0.22853900  1
  B  B123  1  0.17544800  0.31221000  0.33689300  1
  B  B124  1  0.68085500  0.38705500  0.25123400  1
  B  B125  1  0.00891100  0.14932200  0.33963500  1
  B  B126  1  0.50213300  0.14932200  0.33963500  1
  B  B127  1  0.74994200  0.17951000  0.32060500  1
