# generated using pymatgen
data_Mg21Au65
_symmetry_space_group_name_H-M   'P 1'
_cell_length_a   10.43041218
_cell_length_b   11.29953425
_cell_length_c   49.40543900
_cell_angle_alpha   85.63582371
_cell_angle_beta   88.14566253
_cell_angle_gamma   98.74753851
_symmetry_Int_Tables_number   1
_chemical_formula_structural   Mg21Au65
_chemical_formula_sum   'Mg42 Au130'
_cell_volume   5732.74310784
_cell_formula_units_Z   2
loop_
 _symmetry_equiv_pos_site_id
 _symmetry_equiv_pos_as_xyz
  1  'x, y, z'
loop_
 _atom_site_type_symbol
 _atom_site_label
 _atom_site_symmetry_multiplicity
 _atom_site_fract_x
 _atom_site_fract_y
 _atom_site_fract_z
 _atom_site_occupancy
  Mg  Mg0  1  0.88363300  0.20557600  0.73105700  1
  Mg  Mg1  1  0.35447500  0.28101200  0.70644300  1
  Mg  Mg2  1  0.30431500  0.92989500  0.65628400  1
  Mg  Mg3  1  0.83379200  0.85669400  0.68121600  1
  Mg  Mg4  1  0.78363300  0.50557600  0.63105700  1
  Mg  Mg5  1  0.25447500  0.58101200  0.60644300  1
  Mg  Mg6  1  0.02325900  0.55711600  0.69747600  1
  Mg  Mg7  1  0.11484900  0.22947200  0.64002400  1
  Mg  Mg8  1  0.49351200  0.63136600  0.67272600  1
  Mg  Mg9  1  0.64459600  0.15522200  0.66477400  1
  Mg  Mg10  1  0.20431500  0.22989500  0.55628400  1
  Mg  Mg11  1  0.73379200  0.15669400  0.58121600  1
  Mg  Mg12  1  0.68363300  0.80557600  0.53105700  1
  Mg  Mg13  1  0.15447500  0.88101200  0.50644300  1
  Mg  Mg14  1  0.92325900  0.85711600  0.59747600  1
  Mg  Mg15  1  0.01484900  0.52947200  0.54002400  1
  Mg  Mg16  1  0.39351200  0.93136600  0.57272600  1
  Mg  Mg17  1  0.54459600  0.45522200  0.56477400  1
  Mg  Mg18  1  0.10431500  0.52989500  0.45628400  1
  Mg  Mg19  1  0.63379200  0.45669400  0.48121600  1
  Mg  Mg20  1  0.58363300  0.10557600  0.43105700  1
  Mg  Mg21  1  0.05447500  0.18101200  0.40644300  1
  Mg  Mg22  1  0.82325900  0.15711600  0.49747600  1
  Mg  Mg23  1  0.91484900  0.82947200  0.44002400  1
  Mg  Mg24  1  0.29351200  0.23136600  0.47272600  1
  Mg  Mg25  1  0.44459600  0.75522200  0.46477400  1
  Mg  Mg26  1  0.00431500  0.82989500  0.35628400  1
  Mg  Mg27  1  0.53379200  0.75669400  0.38121600  1
  Mg  Mg28  1  0.48363300  0.40557600  0.33105700  1
  Mg  Mg29  1  0.95447500  0.48101200  0.30644300  1
  Mg  Mg30  1  0.72325900  0.45711600  0.39747600  1
  Mg  Mg31  1  0.81484900  0.12947200  0.34002400  1
  Mg  Mg32  1  0.19351200  0.53136600  0.37272600  1
  Mg  Mg33  1  0.34459600  0.05522200  0.36477400  1
  Mg  Mg34  1  0.90431500  0.12989500  0.25628400  1
  Mg  Mg35  1  0.43379200  0.05669400  0.28121600  1
  Mg  Mg36  1  0.38363300  0.70557600  0.23105700  1
  Mg  Mg37  1  0.85447500  0.78101200  0.20644300  1
  Mg  Mg38  1  0.62325900  0.75711600  0.29747600  1
  Mg  Mg39  1  0.71484900  0.42947200  0.24002400  1
  Mg  Mg40  1  0.09351200  0.83136600  0.27272600  1
  Mg  Mg41  1  0.24459600  0.35522200  0.26477400  1
  Au  Au42  1  0.35858100  0.78149000  0.70620100  1
  Au  Au43  1  0.87952700  0.70509800  0.73129900  1
  Au  Au44  1  0.80907000  0.44370400  0.73528000  1
  Au  Au45  1  0.42903800  0.04288400  0.70222000  1
  Au  Au46  1  0.28432400  0.51953100  0.71000400  1
  Au  Au47  1  0.95378400  0.96705700  0.72749600  1
  Au  Au48  1  0.61905400  0.74329400  0.71875000  1
  Au  Au49  1  0.61905400  0.24329400  0.71875000  1
  Au  Au50  1  0.54642800  0.48182700  0.72257200  1
  Au  Au51  1  0.69168000  0.00476100  0.71492800  1
  Au  Au52  1  0.09394200  0.31863100  0.69363800  1
  Au  Au53  1  0.09416600  0.81795700  0.69386200  1
  Au  Au54  1  0.04416600  0.46795700  0.64386200  1
  Au  Au55  1  0.04394200  0.96863100  0.64363800  1
  Au  Au56  1  0.82963700  0.35586700  0.68140900  1
  Au  Au57  1  0.30847100  0.43072100  0.65609100  1
  Au  Au58  1  0.25858100  0.08149000  0.60620100  1
  Au  Au59  1  0.77952700  0.00509800  0.63129900  1
  Au  Au60  1  0.37944700  0.19165800  0.65262900  1
  Au  Au61  1  0.70907000  0.74370400  0.63528000  1
  Au  Au62  1  0.75866100  0.59493000  0.68487100  1
  Au  Au63  1  0.32903800  0.34288400  0.60222000  1
  Au  Au64  1  0.90369400  0.11732600  0.67740600  1
  Au  Au65  1  0.18432400  0.81953100  0.61000400  1
  Au  Au66  1  0.23441400  0.66926200  0.66009400  1
  Au  Au67  1  0.85378400  0.26705700  0.62749600  1
  Au  Au68  1  0.56905400  0.89329400  0.66875000  1
  Au  Au69  1  0.51905400  0.04329400  0.61875000  1
  Au  Au70  1  0.51905400  0.54329400  0.61875000  1
  Au  Au71  1  0.56905400  0.39329400  0.66875000  1
  Au  Au72  1  0.44642800  0.78182700  0.62257200  1
  Au  Au73  1  0.59168000  0.30476100  0.61492800  1
  Au  Au74  1  0.96694300  0.70611900  0.64780800  1
  Au  Au75  1  0.17116500  0.08046900  0.68969200  1
  Au  Au76  1  0.99394200  0.61863100  0.59363800  1
  Au  Au77  1  0.99416600  0.11795700  0.59386200  1
  Au  Au78  1  0.94416600  0.76795700  0.54386200  1
  Au  Au79  1  0.94394200  0.26863100  0.54363800  1
  Au  Au80  1  0.72963700  0.65586700  0.58140900  1
  Au  Au81  1  0.20847100  0.73072100  0.55609100  1
  Au  Au82  1  0.15858100  0.38149000  0.50620100  1
  Au  Au83  1  0.67952700  0.30509800  0.53129900  1
  Au  Au84  1  0.27944700  0.49165800  0.55262900  1
  Au  Au85  1  0.60907000  0.04370400  0.53528000  1
  Au  Au86  1  0.65866100  0.89493000  0.58487100  1
  Au  Au87  1  0.22903800  0.64288400  0.50222000  1
  Au  Au88  1  0.80369400  0.41732600  0.57740600  1
  Au  Au89  1  0.08432400  0.11953100  0.51000400  1
  Au  Au90  1  0.13441400  0.96926200  0.56009400  1
  Au  Au91  1  0.75378400  0.56705700  0.52749600  1
  Au  Au92  1  0.46905400  0.19329400  0.56875000  1
  Au  Au93  1  0.41905400  0.34329400  0.51875000  1
  Au  Au94  1  0.41905400  0.84329400  0.51875000  1
  Au  Au95  1  0.46905400  0.69329400  0.56875000  1
  Au  Au96  1  0.34642800  0.08182700  0.52257200  1
  Au  Au97  1  0.49168000  0.60476100  0.51492800  1
  Au  Au98  1  0.86694300  0.00611900  0.54780800  1
  Au  Au99  1  0.07116500  0.38046900  0.58969200  1
  Au  Au100  1  0.89394200  0.91863100  0.49363800  1
  Au  Au101  1  0.89416600  0.41795700  0.49386200  1
  Au  Au102  1  0.84416600  0.06795700  0.44386200  1
  Au  Au103  1  0.84394200  0.56863100  0.44363800  1
  Au  Au104  1  0.62963700  0.95586700  0.48140900  1
  Au  Au105  1  0.10847100  0.03072100  0.45609100  1
  Au  Au106  1  0.05858100  0.68149000  0.40620100  1
  Au  Au107  1  0.57952700  0.60509800  0.43129900  1
  Au  Au108  1  0.17944700  0.79165800  0.45262900  1
  Au  Au109  1  0.50907000  0.34370400  0.43528000  1
  Au  Au110  1  0.55866100  0.19493000  0.48487100  1
  Au  Au111  1  0.12903800  0.94288400  0.40222000  1
  Au  Au112  1  0.70369400  0.71732600  0.47740600  1
  Au  Au113  1  0.98432400  0.41953100  0.41000400  1
  Au  Au114  1  0.03441400  0.26926200  0.46009400  1
  Au  Au115  1  0.65378400  0.86705700  0.42749600  1
  Au  Au116  1  0.36905400  0.49329400  0.46875000  1
  Au  Au117  1  0.31905400  0.64329400  0.41875000  1
  Au  Au118  1  0.31905400  0.14329400  0.41875000  1
  Au  Au119  1  0.36905400  0.99329400  0.46875000  1
  Au  Au120  1  0.24642800  0.38182700  0.42257200  1
  Au  Au121  1  0.39168000  0.90476100  0.41492800  1
  Au  Au122  1  0.76694300  0.30611900  0.44780800  1
  Au  Au123  1  0.97116500  0.68046900  0.48969200  1
  Au  Au124  1  0.79394200  0.21863100  0.39363800  1
  Au  Au125  1  0.79416600  0.71795700  0.39386200  1
  Au  Au126  1  0.74416600  0.36795700  0.34386200  1
  Au  Au127  1  0.74394200  0.86863100  0.34363800  1
  Au  Au128  1  0.52963700  0.25586700  0.38140900  1
  Au  Au129  1  0.00847100  0.33072100  0.35609100  1
  Au  Au130  1  0.95858100  0.98149000  0.30620100  1
  Au  Au131  1  0.47952700  0.90509800  0.33129900  1
  Au  Au132  1  0.07944700  0.09165800  0.35262900  1
  Au  Au133  1  0.40907000  0.64370400  0.33528000  1
  Au  Au134  1  0.45866100  0.49493000  0.38487100  1
  Au  Au135  1  0.02903800  0.24288400  0.30222000  1
  Au  Au136  1  0.60369400  0.01732600  0.37740600  1
  Au  Au137  1  0.88432400  0.71953100  0.31000400  1
  Au  Au138  1  0.93441400  0.56926200  0.36009400  1
  Au  Au139  1  0.55378400  0.16705700  0.32749600  1
  Au  Au140  1  0.26905400  0.79329400  0.36875000  1
  Au  Au141  1  0.21905400  0.94329400  0.31875000  1
  Au  Au142  1  0.21905400  0.44329400  0.31875000  1
  Au  Au143  1  0.26905400  0.29329400  0.36875000  1
  Au  Au144  1  0.14642800  0.68182700  0.32257200  1
  Au  Au145  1  0.29168000  0.20476100  0.31492800  1
  Au  Au146  1  0.66694300  0.60611900  0.34780800  1
  Au  Au147  1  0.87116500  0.98046900  0.38969200  1
  Au  Au148  1  0.69394200  0.51863100  0.29363800  1
  Au  Au149  1  0.69416600  0.01795700  0.29386200  1
  Au  Au150  1  0.64416600  0.66795700  0.24386200  1
  Au  Au151  1  0.64394200  0.16863100  0.24363800  1
  Au  Au152  1  0.42963700  0.55586700  0.28140900  1
  Au  Au153  1  0.90847100  0.63072100  0.25609100  1
  Au  Au154  1  0.85858100  0.28149000  0.20620100  1
  Au  Au155  1  0.37952700  0.20509800  0.23129900  1
  Au  Au156  1  0.97944700  0.39165800  0.25262900  1
  Au  Au157  1  0.30907000  0.94370400  0.23528000  1
  Au  Au158  1  0.35866100  0.79493000  0.28487100  1
  Au  Au159  1  0.92903800  0.54288400  0.20222000  1
  Au  Au160  1  0.50369400  0.31732600  0.27740600  1
  Au  Au161  1  0.78432400  0.01953100  0.21000400  1
  Au  Au162  1  0.83441400  0.86926200  0.26009400  1
  Au  Au163  1  0.45378400  0.46705700  0.22749600  1
  Au  Au164  1  0.16905400  0.09329400  0.26875000  1
  Au  Au165  1  0.11905400  0.24329400  0.21875000  1
  Au  Au166  1  0.11905400  0.74329400  0.21875000  1
  Au  Au167  1  0.16905400  0.59329400  0.26875000  1
  Au  Au168  1  0.04642800  0.98182700  0.22257200  1
  Au  Au169  1  0.19168000  0.50476100  0.21492800  1
  Au  Au170  1  0.56694300  0.90611900  0.24780800  1
  Au  Au171  1  0.77116500  0.28046900  0.28969200  1
