# generated using pymatgen
data_Mg9Te19
_symmetry_space_group_name_H-M   'P 1'
_cell_length_a   7.10958600
_cell_length_b   10.05447200
_cell_length_c   40.21788900
_cell_angle_alpha   90.00000000
_cell_angle_beta   90.00000000
_cell_angle_gamma   90.00000000
_symmetry_Int_Tables_number   1
_chemical_formula_structural   Mg9Te19
_chemical_formula_sum   'Mg18 Te38'
_cell_volume   2874.90072319
_cell_formula_units_Z   2
loop_
 _symmetry_equiv_pos_site_id
 _symmetry_equiv_pos_as_xyz
  1  'x, y, z'
loop_
 _atom_site_type_symbol
 _atom_site_label
 _atom_site_symmetry_multiplicity
 _atom_site_fract_x
 _atom_site_fract_y
 _atom_site_fract_z
 _atom_site_occupancy
  Mg  Mg0  1  1.00000000  0.55667000  0.29166700  1
  Mg  Mg1  1  0.50000000  0.80667000  0.22916700  1
  Mg  Mg2  1  0.00000000  0.05667000  0.29166700  1
  Mg  Mg3  1  0.50000000  0.30667000  0.22916700  1
  Mg  Mg4  1  0.00000000  0.05667000  0.41666700  1
  Mg  Mg5  1  0.50000000  0.30667000  0.35416700  1
  Mg  Mg6  1  1.00000000  0.55667000  0.41666700  1
  Mg  Mg7  1  0.50000000  0.80667000  0.35416700  1
  Mg  Mg8  1  0.00000000  0.55667000  0.54166700  1
  Mg  Mg9  1  0.50000000  0.80667000  0.47916700  1
  Mg  Mg10  1  0.00000000  0.05667000  0.54166700  1
  Mg  Mg11  1  0.50000000  0.30667000  0.47916700  1
  Mg  Mg12  1  0.00000000  0.05667000  0.66666700  1
  Mg  Mg13  1  0.50000000  0.30667000  0.60416700  1
  Mg  Mg14  1  0.00000000  0.55667000  0.66666700  1
  Mg  Mg15  1  0.50000000  0.80667000  0.60416700  1
  Mg  Mg16  1  0.50000000  0.80667000  0.72916700  1
  Mg  Mg17  1  0.50000000  0.30667000  0.72916700  1
  Te  Te18  1  0.61334000  0.55667000  0.19500200  1
  Te  Te19  1  0.11334000  0.30667000  0.20083200  1
  Te  Te20  1  0.38666000  0.44333000  0.29166700  1
  Te  Te21  1  0.88666000  0.92001000  0.22916700  1
  Te  Te22  1  0.38666000  0.05667000  0.26333200  1
  Te  Te23  1  0.88666000  0.30667000  0.25750200  1
  Te  Te24  1  0.61334000  0.67001000  0.29166700  1
  Te  Te25  1  0.11334000  0.69333000  0.22916700  1
  Te  Te26  1  0.61334000  0.05667000  0.32000200  1
  Te  Te27  1  0.11334000  0.80667000  0.32583200  1
  Te  Te28  1  0.38666000  0.94333000  0.41666700  1
  Te  Te29  1  0.88666000  0.42001000  0.35416700  1
  Te  Te30  1  0.38666000  0.55667000  0.38833200  1
  Te  Te31  1  0.88666000  0.80667000  0.38250200  1
  Te  Te32  1  0.61334000  0.17001000  0.41666700  1
  Te  Te33  1  0.11334000  0.19333000  0.35416700  1
  Te  Te34  1  0.61334000  0.55667000  0.44500200  1
  Te  Te35  1  0.11334000  0.30667000  0.45083200  1
  Te  Te36  1  0.38666000  0.44333000  0.54166700  1
  Te  Te37  1  0.88666000  0.92001000  0.47916700  1
  Te  Te38  1  0.38666000  0.05667000  0.51333200  1
  Te  Te39  1  0.88666000  0.30667000  0.50750200  1
  Te  Te40  1  0.61334000  0.67001000  0.54166700  1
  Te  Te41  1  0.11334000  0.69333000  0.47916700  1
  Te  Te42  1  0.61334000  0.05667000  0.57000200  1
  Te  Te43  1  0.11334000  0.80667000  0.57583200  1
  Te  Te44  1  0.38666000  0.94333000  0.66666700  1
  Te  Te45  1  0.88666000  0.42001000  0.60416700  1
  Te  Te46  1  0.38666000  0.55667000  0.63833200  1
  Te  Te47  1  0.88666000  0.80667000  0.63250200  1
  Te  Te48  1  0.61334000  0.17001000  0.66666700  1
  Te  Te49  1  0.11334000  0.19333000  0.60416700  1
  Te  Te50  1  0.61334000  0.55667000  0.69500200  1
  Te  Te51  1  0.11334000  0.30667000  0.70083200  1
  Te  Te52  1  0.88666000  0.92001000  0.72916700  1
  Te  Te53  1  0.38666000  0.05667000  0.76333200  1
  Te  Te54  1  0.88666000  0.30667000  0.75750200  1
  Te  Te55  1  0.11334000  0.69333000  0.72916700  1
