# generated using pymatgen
data_LaMg14
_symmetry_space_group_name_H-M   'P 1'
_cell_length_a   7.89430435
_cell_length_b   7.89430387
_cell_length_c   41.19217000
_cell_angle_alpha   89.77228393
_cell_angle_beta   89.77228395
_cell_angle_gamma   81.87253169
_symmetry_Int_Tables_number   1
_chemical_formula_structural   LaMg14
_chemical_formula_sum   'La4 Mg56'
_cell_volume   2541.27845959
_cell_formula_units_Z   4
loop_
 _symmetry_equiv_pos_site_id
 _symmetry_equiv_pos_as_xyz
  1  'x, y, z'
loop_
 _atom_site_type_symbol
 _atom_site_label
 _atom_site_symmetry_multiplicity
 _atom_site_fract_x
 _atom_site_fract_y
 _atom_site_fract_z
 _atom_site_occupancy
  La  La0  1  0.21425000  0.21425000  0.71153800  1
  La  La1  1  0.46425000  0.46425000  0.58653800  1
  La  La2  1  0.71425000  0.71425000  0.46153800  1
  La  La3  1  0.96425000  0.96425000  0.33653800  1
  Mg  Mg4  1  0.58925000  0.08925000  0.77403800  1
  Mg  Mg5  1  0.71425000  0.21425000  0.71153800  1
  Mg  Mg6  1  0.21425000  0.71425000  0.71153800  1
  Mg  Mg7  1  0.08925000  0.58925000  0.77403800  1
  Mg  Mg8  1  0.86134200  0.56715800  0.71153800  1
  Mg  Mg9  1  0.56715800  0.86134200  0.71153800  1
  Mg  Mg10  1  0.47893100  0.47893100  0.75565200  1
  Mg  Mg11  1  0.69956900  0.69956900  0.79242500  1
  Mg  Mg12  1  0.30325100  0.87524900  0.77403800  1
  Mg  Mg13  1  0.87524900  0.30325100  0.77403800  1
  Mg  Mg14  1  0.92874900  0.92874900  0.74728800  1
  Mg  Mg15  1  0.24975100  0.24975100  0.80078900  1
  Mg  Mg16  1  0.83925000  0.33925000  0.64903800  1
  Mg  Mg17  1  0.96425000  0.46425000  0.58653800  1
  Mg  Mg18  1  0.46425000  0.96425000  0.58653800  1
  Mg  Mg19  1  0.33925000  0.83925000  0.64903800  1
  Mg  Mg20  1  0.11134200  0.81715800  0.58653800  1
  Mg  Mg21  1  0.81715800  0.11134200  0.58653800  1
  Mg  Mg22  1  0.72893100  0.72893100  0.63065200  1
  Mg  Mg23  1  0.94956900  0.94956900  0.66742500  1
  Mg  Mg24  1  0.55325100  0.12524900  0.64903800  1
  Mg  Mg25  1  0.12524900  0.55325100  0.64903800  1
  Mg  Mg26  1  0.17874900  0.17874900  0.62228800  1
  Mg  Mg27  1  0.49975100  0.49975100  0.67578900  1
  Mg  Mg28  1  0.08925000  0.58925000  0.52403800  1
  Mg  Mg29  1  0.21425000  0.71425000  0.46153800  1
  Mg  Mg30  1  0.71425000  0.21425000  0.46153800  1
  Mg  Mg31  1  0.58925000  0.08925000  0.52403800  1
  Mg  Mg32  1  0.36134200  0.06715800  0.46153800  1
  Mg  Mg33  1  0.06715800  0.36134200  0.46153800  1
  Mg  Mg34  1  0.97893100  0.97893100  0.50565200  1
  Mg  Mg35  1  0.19956900  0.19956900  0.54242500  1
  Mg  Mg36  1  0.80325100  0.37524900  0.52403800  1
  Mg  Mg37  1  0.37524900  0.80325100  0.52403800  1
  Mg  Mg38  1  0.42874900  0.42874900  0.49728800  1
  Mg  Mg39  1  0.74975100  0.74975100  0.55078900  1
  Mg  Mg40  1  0.33925000  0.83925000  0.39903800  1
  Mg  Mg41  1  0.46425000  0.96425000  0.33653800  1
  Mg  Mg42  1  0.96425000  0.46425000  0.33653800  1
  Mg  Mg43  1  0.83925000  0.33925000  0.39903800  1
  Mg  Mg44  1  0.61134200  0.31715800  0.33653800  1
  Mg  Mg45  1  0.31715800  0.61134200  0.33653800  1
  Mg  Mg46  1  0.22893100  0.22893100  0.38065200  1
  Mg  Mg47  1  0.44956900  0.44956900  0.41742500  1
  Mg  Mg48  1  0.05325100  0.62524900  0.39903800  1
  Mg  Mg49  1  0.62524900  0.05325100  0.39903800  1
  Mg  Mg50  1  0.67874900  0.67874900  0.37228800  1
  Mg  Mg51  1  0.99975100  0.99975100  0.42578900  1
  Mg  Mg52  1  0.58925000  0.08925000  0.27403800  1
  Mg  Mg53  1  0.08925000  0.58925000  0.27403800  1
  Mg  Mg54  1  0.47893100  0.47893100  0.25565200  1
  Mg  Mg55  1  0.69956900  0.69956900  0.29242500  1
  Mg  Mg56  1  0.30325100  0.87524900  0.27403800  1
  Mg  Mg57  1  0.87524900  0.30325100  0.27403800  1
  Mg  Mg58  1  0.92874900  0.92874900  0.24728800  1
  Mg  Mg59  1  0.24975100  0.24975100  0.30078900  1
