# generated using pymatgen
data_Mg23B159
_symmetry_space_group_name_H-M   'P 1'
_cell_length_a   10.07244113
_cell_length_b   12.05234828
_cell_length_c   43.84258900
_cell_angle_alpha   85.56912893
_cell_angle_beta   87.53461614
_cell_angle_gamma   72.91219278
_symmetry_Int_Tables_number   1
_chemical_formula_structural   Mg23B159
_chemical_formula_sum   'Mg46 B318'
_cell_volume   5071.03078932
_cell_formula_units_Z   2
loop_
 _symmetry_equiv_pos_site_id
 _symmetry_equiv_pos_as_xyz
  1  'x, y, z'
loop_
 _atom_site_type_symbol
 _atom_site_label
 _atom_site_symmetry_multiplicity
 _atom_site_fract_x
 _atom_site_fract_y
 _atom_site_fract_z
 _atom_site_occupancy
  Mg  Mg0  1  0.11338100  0.65892100  0.24062500  1
  Mg  Mg1  1  0.96338100  0.55892100  0.29062500  1
  Mg  Mg2  1  0.46338100  0.05892100  0.29062500  1
  Mg  Mg3  1  0.61338100  0.15892100  0.24062500  1
  Mg  Mg4  1  0.61863800  0.58599000  0.27709000  1
  Mg  Mg5  1  0.95812300  0.13185100  0.25416000  1
  Mg  Mg6  1  0.81338100  0.45892100  0.34062500  1
  Mg  Mg7  1  0.66338100  0.35892100  0.39062500  1
  Mg  Mg8  1  0.96863800  0.98599000  0.32709000  1
  Mg  Mg9  1  0.30812300  0.53185100  0.30416000  1
  Mg  Mg10  1  0.16338100  0.85892100  0.39062500  1
  Mg  Mg11  1  0.31338100  0.95892100  0.34062500  1
  Mg  Mg12  1  0.31863800  0.38599000  0.37709000  1
  Mg  Mg13  1  0.65812300  0.93185100  0.35416000  1
  Mg  Mg14  1  0.51338100  0.25892100  0.44062500  1
  Mg  Mg15  1  0.36338100  0.15892100  0.49062500  1
  Mg  Mg16  1  0.66863800  0.78599000  0.42709000  1
  Mg  Mg17  1  0.00812300  0.33185100  0.40416000  1
  Mg  Mg18  1  0.86338100  0.65892100  0.49062500  1
  Mg  Mg19  1  0.01338100  0.75892100  0.44062500  1
  Mg  Mg20  1  0.01863800  0.18599000  0.47709000  1
  Mg  Mg21  1  0.35812300  0.73185100  0.45416000  1
  Mg  Mg22  1  0.21338100  0.05892100  0.54062500  1
  Mg  Mg23  1  0.06338100  0.95892100  0.59062500  1
  Mg  Mg24  1  0.36863800  0.58599000  0.52709000  1
  Mg  Mg25  1  0.70812300  0.13185100  0.50416000  1
  Mg  Mg26  1  0.56338100  0.45892100  0.59062500  1
  Mg  Mg27  1  0.71338100  0.55892100  0.54062500  1
  Mg  Mg28  1  0.71863800  0.98599000  0.57709000  1
  Mg  Mg29  1  0.05812300  0.53185100  0.55416000  1
  Mg  Mg30  1  0.91338100  0.85892100  0.64062500  1
  Mg  Mg31  1  0.76338100  0.75892100  0.69062500  1
  Mg  Mg32  1  0.06863800  0.38599000  0.62709000  1
  Mg  Mg33  1  0.40812300  0.93185100  0.60416000  1
  Mg  Mg34  1  0.26338100  0.25892100  0.69062500  1
  Mg  Mg35  1  0.41338100  0.35892100  0.64062500  1
  Mg  Mg36  1  0.41863800  0.78599000  0.67709000  1
  Mg  Mg37  1  0.75812300  0.33185100  0.65416000  1
  Mg  Mg38  1  0.61338100  0.65892100  0.74062500  1
  Mg  Mg39  1  0.46338100  0.55892100  0.79062500  1
  Mg  Mg40  1  0.76863800  0.18599000  0.72709000  1
  Mg  Mg41  1  0.10812300  0.73185100  0.70416000  1
  Mg  Mg42  1  0.96338100  0.05892100  0.79062500  1
  Mg  Mg43  1  0.11338100  0.15892100  0.74062500  1
  Mg  Mg44  1  0.11863800  0.58599000  0.77709000  1
  Mg  Mg45  1  0.45812300  0.13185100  0.75416000  1
  B  B46  1  0.47691200  0.04827000  0.24120100  1
  B  B47  1  0.37031900  0.96156600  0.25321900  1
  B  B48  1  0.18963100  0.82835100  0.23976100  1
  B  B49  1  0.22147100  0.99670400  0.27980000  1
  B  B50  1  0.20156300  0.97363200  0.24009200  1
  B  B51  1  0.10822800  0.91140800  0.27120400  1
  B  B52  1  0.93650900  0.75781500  0.27502900  1
  B  B53  1  0.41121300  0.22346700  0.26310100  1
  B  B54  1  0.26701900  0.23703100  0.28765300  1
  B  B55  1  0.41905300  0.33838700  0.23697500  1
  B  B56  1  0.93034700  0.90826500  0.27277500  1
  B  B57  1  0.64641500  0.80957600  0.25847500  1
  B  B58  1  0.15770900  0.37945400  0.29427500  1
  B  B59  1  0.30974200  0.48081000  0.24359700  1
  B  B60  1  0.16554800  0.49437400  0.26814900  1
  B  B61  1  0.64025300  0.96002600  0.25622100  1
  B  B62  1  0.46853400  0.80643300  0.26004600  1
  B  B63  1  0.37519900  0.74420900  0.29115800  1
  B  B64  1  0.35529000  0.72113800  0.25145000  1
  B  B65  1  0.38713100  0.88949000  0.29148900  1
  B  B66  1  0.20644300  0.75627500  0.27803100  1
  B  B67  1  0.09984900  0.66957100  0.29004900  1
  B  B68  1  0.82691200  0.44827000  0.29120100  1
  B  B69  1  0.87235200  0.46292100  0.25254200  1
  B  B70  1  0.53963100  0.22835100  0.28976100  1
  B  B71  1  0.55156300  0.37363200  0.29009200  1
  B  B72  1  0.82115100  0.73089200  0.24657300  1
  B  B73  1  0.91701900  0.83703100  0.23765300  1
  B  B74  1  0.76905300  0.73838700  0.28697500  1
  B  B75  1  0.48701200  0.44604200  0.25388700  1
  B  B76  1  0.08975000  0.27179900  0.27736300  1
  B  B77  1  0.80770900  0.97945400  0.24427500  1
  B  B78  1  0.65974200  0.88081000  0.29359700  1
  B  B79  1  0.75561100  0.98694900  0.28467700  1
  B  B80  1  0.02519900  0.34420900  0.24115800  1
  B  B81  1  0.03713100  0.48949000  0.24148900  1
  B  B82  1  0.70440900  0.25492000  0.27870800  1
  B  B83  1  0.74984900  0.26957100  0.24004900  1
  B  B84  1  0.17691200  0.84827000  0.34120100  1
  B  B85  1  0.07031900  0.76156600  0.35321900  1
  B  B86  1  0.22235200  0.86292100  0.30254200  1
  B  B87  1  0.88963100  0.62835100  0.33976100  1
  B  B88  1  0.92147100  0.79670400  0.37980000  1
  B  B89  1  0.90156300  0.77363200  0.34009200  1
  B  B90  1  0.80822800  0.71140800  0.37120400  1
  B  B91  1  0.63650900  0.55781500  0.37502900  1
  B  B92  1  0.11121300  0.02346700  0.36310100  1
  B  B93  1  0.17115100  0.13089200  0.29657300  1
  B  B94  1  0.96701900  0.03703100  0.38765300  1
  B  B95  1  0.11905300  0.13838700  0.33697500  1
  B  B96  1  0.63034700  0.70826500  0.37277500  1
  B  B97  1  0.83701200  0.84604200  0.30388700  1
  B  B98  1  0.43975000  0.67179900  0.32736300  1
  B  B99  1  0.34641500  0.60957600  0.35847500  1
  B  B100  1  0.85770900  0.17945400  0.39427500  1
  B  B101  1  0.00974200  0.28081000  0.34359700  1
  B  B102  1  0.10561100  0.38694900  0.33467700  1
  B  B103  1  0.86554800  0.29437400  0.36814900  1
  B  B104  1  0.34025300  0.76002600  0.35622100  1
  B  B105  1  0.16853400  0.60643300  0.36004600  1
  B  B106  1  0.07519900  0.54420900  0.39115800  1
  B  B107  1  0.05529000  0.52113800  0.35145000  1
  B  B108  1  0.08713100  0.68949000  0.39148900  1
  B  B109  1  0.05440900  0.65492000  0.32870800  1
  B  B110  1  0.90644300  0.55627500  0.37803100  1
  B  B111  1  0.79984900  0.46957100  0.39004900  1
  B  B112  1  0.52691200  0.24827000  0.39120100  1
  B  B113  1  0.72031900  0.36156600  0.30321900  1
  B  B114  1  0.57235200  0.26292100  0.35254200  1
  B  B115  1  0.23963100  0.02835100  0.38976100  1
  B  B116  1  0.57147100  0.39670400  0.32980000  1
  B  B117  1  0.25156300  0.17363200  0.39009200  1
  B  B118  1  0.45822800  0.31140800  0.32120400  1
  B  B119  1  0.28650900  0.15781500  0.32502900  1
  B  B120  1  0.76121300  0.62346700  0.31310100  1
  B  B121  1  0.52115100  0.53089200  0.34657300  1
  B  B122  1  0.61701900  0.63703100  0.33765300  1
  B  B123  1  0.46905300  0.53838700  0.38697500  1
  B  B124  1  0.28034700  0.30826500  0.32277500  1
  B  B125  1  0.18701200  0.24604200  0.35388700  1
  B  B126  1  0.78975000  0.07179900  0.37736300  1
  B  B127  1  0.99641500  0.20957600  0.30847500  1
  B  B128  1  0.50770900  0.77945400  0.34427500  1
  B  B129  1  0.35974200  0.68081000  0.39359700  1
  B  B130  1  0.45561100  0.78694900  0.38467700  1
  B  B131  1  0.51554800  0.89437400  0.31814900  1
  B  B132  1  0.99025300  0.36002600  0.30622100  1
  B  B133  1  0.81853400  0.20643300  0.31004600  1
  B  B134  1  0.72519900  0.14420900  0.34115800  1
  B  B135  1  0.70529000  0.12113800  0.30145000  1
  B  B136  1  0.73713100  0.28949000  0.34148900  1
  B  B137  1  0.40440900  0.05492000  0.37870800  1
  B  B138  1  0.55644300  0.15627500  0.32803100  1
  B  B139  1  0.44984900  0.06957100  0.34004900  1
  B  B140  1  0.87691200  0.64827000  0.44120100  1
  B  B141  1  0.77031900  0.56156600  0.45321900  1
  B  B142  1  0.92235200  0.66292100  0.40254200  1
  B  B143  1  0.58963100  0.42835100  0.43976100  1
  B  B144  1  0.62147100  0.59670400  0.47980000  1
  B  B145  1  0.60156300  0.57363200  0.44009200  1
  B  B146  1  0.50822800  0.51140800  0.47120400  1
  B  B147  1  0.33650900  0.35781500  0.47502900  1
  B  B148  1  0.81121300  0.82346700  0.46310100  1
  B  B149  1  0.87115100  0.93089200  0.39657300  1
  B  B150  1  0.66701900  0.83703100  0.48765300  1
  B  B151  1  0.81905300  0.93838700  0.43697500  1
  B  B152  1  0.33034700  0.50826500  0.47277500  1
  B  B153  1  0.53701200  0.64604200  0.40388700  1
  B  B154  1  0.13975000  0.47179900  0.42736300  1
  B  B155  1  0.04641500  0.40957600  0.45847500  1
  B  B156  1  0.55770900  0.97945400  0.49427500  1
  B  B157  1  0.70974200  0.08081000  0.44359700  1
  B  B158  1  0.80561100  0.18694900  0.43467700  1
  B  B159  1  0.56554800  0.09437400  0.46814900  1
  B  B160  1  0.04025300  0.56002600  0.45622100  1
  B  B161  1  0.86853400  0.40643300  0.46004600  1
  B  B162  1  0.77519900  0.34420900  0.49115800  1
  B  B163  1  0.75529000  0.32113800  0.45145000  1
  B  B164  1  0.78713100  0.48949000  0.49148900  1
  B  B165  1  0.75440900  0.45492000  0.42870800  1
  B  B166  1  0.60644300  0.35627500  0.47803100  1
  B  B167  1  0.49984900  0.26957100  0.49004900  1
  B  B168  1  0.22691200  0.04827000  0.49120100  1
  B  B169  1  0.42031900  0.16156600  0.40321900  1
  B  B170  1  0.27235200  0.06292100  0.45254200  1
  B  B171  1  0.93963100  0.82835100  0.48976100  1
  B  B172  1  0.27147100  0.19670400  0.42980000  1
  B  B173  1  0.95156300  0.97363200  0.49009200  1
  B  B174  1  0.15822800  0.11140800  0.42120400  1
  B  B175  1  0.98650900  0.95781500  0.42502900  1
  B  B176  1  0.46121300  0.42346700  0.41310100  1
  B  B177  1  0.22115100  0.33089200  0.44657300  1
  B  B178  1  0.31701900  0.43703100  0.43765300  1
  B  B179  1  0.16905300  0.33838700  0.48697500  1
  B  B180  1  0.98034700  0.10826500  0.42277500  1
  B  B181  1  0.88701200  0.04604200  0.45388700  1
  B  B182  1  0.48975000  0.87179900  0.47736300  1
  B  B183  1  0.69641500  0.00957600  0.40847500  1
  B  B184  1  0.20770900  0.57945400  0.44427500  1
  B  B185  1  0.05974200  0.48081000  0.49359700  1
  B  B186  1  0.15561100  0.58694900  0.48467700  1
  B  B187  1  0.21554800  0.69437400  0.41814900  1
  B  B188  1  0.69025300  0.16002600  0.40622100  1
  B  B189  1  0.51853400  0.00643300  0.41004600  1
  B  B190  1  0.42519900  0.94420900  0.44115800  1
  B  B191  1  0.40529000  0.92113800  0.40145000  1
  B  B192  1  0.43713100  0.08949000  0.44148900  1
  B  B193  1  0.10440900  0.85492000  0.47870800  1
  B  B194  1  0.25644300  0.95627500  0.42803100  1
  B  B195  1  0.14984900  0.86957100  0.44004900  1
  B  B196  1  0.57691200  0.44827000  0.54120100  1
  B  B197  1  0.47031900  0.36156600  0.55321900  1
  B  B198  1  0.62235200  0.46292100  0.50254200  1
  B  B199  1  0.28963100  0.22835100  0.53976100  1
  B  B200  1  0.32147100  0.39670400  0.57980000  1
  B  B201  1  0.30156300  0.37363200  0.54009200  1
  B  B202  1  0.20822800  0.31140800  0.57120400  1
  B  B203  1  0.03650900  0.15781500  0.57502900  1
  B  B204  1  0.51121300  0.62346700  0.56310100  1
  B  B205  1  0.57115100  0.73089200  0.49657300  1
  B  B206  1  0.36701900  0.63703100  0.58765300  1
  B  B207  1  0.51905300  0.73838700  0.53697500  1
  B  B208  1  0.03034700  0.30826500  0.57277500  1
  B  B209  1  0.23701200  0.44604200  0.50388700  1
  B  B210  1  0.83975000  0.27179900  0.52736300  1
  B  B211  1  0.74641500  0.20957600  0.55847500  1
  B  B212  1  0.25770900  0.77945400  0.59427500  1
  B  B213  1  0.40974200  0.88081000  0.54359700  1
  B  B214  1  0.50561100  0.98694900  0.53467700  1
  B  B215  1  0.26554800  0.89437400  0.56814900  1
  B  B216  1  0.74025300  0.36002600  0.55622100  1
  B  B217  1  0.56853400  0.20643300  0.56004600  1
  B  B218  1  0.47519900  0.14420900  0.59115800  1
  B  B219  1  0.45529000  0.12113800  0.55145000  1
  B  B220  1  0.48713100  0.28949000  0.59148900  1
  B  B221  1  0.45440900  0.25492000  0.52870800  1
  B  B222  1  0.30644300  0.15627500  0.57803100  1
  B  B223  1  0.19984900  0.06957100  0.59004900  1
  B  B224  1  0.92691200  0.84827000  0.59120100  1
  B  B225  1  0.12031900  0.96156600  0.50321900  1
  B  B226  1  0.97235200  0.86292100  0.55254200  1
  B  B227  1  0.63963100  0.62835100  0.58976100  1
  B  B228  1  0.97147100  0.99670400  0.52980000  1
  B  B229  1  0.65156300  0.77363200  0.59009200  1
  B  B230  1  0.85822800  0.91140800  0.52120400  1
  B  B231  1  0.68650900  0.75781500  0.52502900  1
  B  B232  1  0.16121300  0.22346700  0.51310100  1
  B  B233  1  0.92115100  0.13089200  0.54657300  1
  B  B234  1  0.01701900  0.23703100  0.53765300  1
  B  B235  1  0.86905300  0.13838700  0.58697500  1
  B  B236  1  0.68034700  0.90826500  0.52277500  1
  B  B237  1  0.58701200  0.84604200  0.55388700  1
  B  B238  1  0.18975000  0.67179900  0.57736300  1
  B  B239  1  0.39641500  0.80957600  0.50847500  1
  B  B240  1  0.90770900  0.37945400  0.54427500  1
  B  B241  1  0.75974200  0.28081000  0.59359700  1
  B  B242  1  0.85561100  0.38694900  0.58467700  1
  B  B243  1  0.91554800  0.49437400  0.51814900  1
  B  B244  1  0.39025300  0.96002600  0.50622100  1
  B  B245  1  0.21853400  0.80643300  0.51004600  1
  B  B246  1  0.12519900  0.74420900  0.54115800  1
  B  B247  1  0.10529000  0.72113800  0.50145000  1
  B  B248  1  0.13713100  0.88949000  0.54148900  1
  B  B249  1  0.80440900  0.65492000  0.57870800  1
  B  B250  1  0.95644300  0.75627500  0.52803100  1
  B  B251  1  0.84984900  0.66957100  0.54004900  1
  B  B252  1  0.27691200  0.24827000  0.64120100  1
  B  B253  1  0.17031900  0.16156600  0.65321900  1
  B  B254  1  0.32235200  0.26292100  0.60254200  1
  B  B255  1  0.98963100  0.02835100  0.63976100  1
  B  B256  1  0.02147100  0.19670400  0.67980000  1
  B  B257  1  0.00156300  0.17363200  0.64009200  1
  B  B258  1  0.90822800  0.11140800  0.67120400  1
  B  B259  1  0.73650900  0.95781500  0.67502900  1
  B  B260  1  0.21121300  0.42346700  0.66310100  1
  B  B261  1  0.27115100  0.53089200  0.59657300  1
  B  B262  1  0.06701900  0.43703100  0.68765300  1
  B  B263  1  0.21905300  0.53838700  0.63697500  1
  B  B264  1  0.73034700  0.10826500  0.67277500  1
  B  B265  1  0.93701200  0.24604200  0.60388700  1
  B  B266  1  0.53975000  0.07179900  0.62736300  1
  B  B267  1  0.44641500  0.00957600  0.65847500  1
  B  B268  1  0.95770900  0.57945400  0.69427500  1
  B  B269  1  0.10974200  0.68081000  0.64359700  1
  B  B270  1  0.20561100  0.78694900  0.63467700  1
  B  B271  1  0.96554800  0.69437400  0.66814900  1
  B  B272  1  0.44025300  0.16002600  0.65622100  1
  B  B273  1  0.26853400  0.00643300  0.66004600  1
  B  B274  1  0.17519900  0.94420900  0.69115800  1
  B  B275  1  0.15529000  0.92113800  0.65145000  1
  B  B276  1  0.18713100  0.08949000  0.69148900  1
  B  B277  1  0.15440900  0.05492000  0.62870800  1
  B  B278  1  0.00644300  0.95627500  0.67803100  1
  B  B279  1  0.89984900  0.86957100  0.69004900  1
  B  B280  1  0.62691200  0.64827000  0.69120100  1
  B  B281  1  0.82031900  0.76156600  0.60321900  1
  B  B282  1  0.67235200  0.66292100  0.65254200  1
  B  B283  1  0.33963100  0.42835100  0.68976100  1
  B  B284  1  0.67147100  0.79670400  0.62980000  1
  B  B285  1  0.35156300  0.57363200  0.69009200  1
  B  B286  1  0.55822800  0.71140800  0.62120400  1
  B  B287  1  0.38650900  0.55781500  0.62502900  1
  B  B288  1  0.86121300  0.02346700  0.61310100  1
  B  B289  1  0.62115100  0.93089200  0.64657300  1
  B  B290  1  0.71701900  0.03703100  0.63765300  1
  B  B291  1  0.56905300  0.93838700  0.68697500  1
  B  B292  1  0.38034700  0.70826500  0.62277500  1
  B  B293  1  0.28701200  0.64604200  0.65388700  1
  B  B294  1  0.88975000  0.47179900  0.67736300  1
  B  B295  1  0.09641500  0.60957600  0.60847500  1
  B  B296  1  0.60770900  0.17945400  0.64427500  1
  B  B297  1  0.45974200  0.08081000  0.69359700  1
  B  B298  1  0.55561100  0.18694900  0.68467700  1
  B  B299  1  0.61554800  0.29437400  0.61814900  1
  B  B300  1  0.09025300  0.76002600  0.60622100  1
  B  B301  1  0.91853400  0.60643300  0.61004600  1
  B  B302  1  0.82519900  0.54420900  0.64115800  1
  B  B303  1  0.80529000  0.52113800  0.60145000  1
  B  B304  1  0.83713100  0.68949000  0.64148900  1
  B  B305  1  0.50440900  0.45492000  0.67870800  1
  B  B306  1  0.65644300  0.55627500  0.62803100  1
  B  B307  1  0.54984900  0.46957100  0.64004900  1
  B  B308  1  0.97691200  0.04827000  0.74120100  1
  B  B309  1  0.87031900  0.96156600  0.75321900  1
  B  B310  1  0.02235200  0.06292100  0.70254200  1
  B  B311  1  0.68963100  0.82835100  0.73976100  1
  B  B312  1  0.72147100  0.99670400  0.77980000  1
  B  B313  1  0.70156300  0.97363200  0.74009200  1
  B  B314  1  0.60822800  0.91140800  0.77120400  1
  B  B315  1  0.43650900  0.75781500  0.77502900  1
  B  B316  1  0.91121300  0.22346700  0.76310100  1
  B  B317  1  0.97115100  0.33089200  0.69657300  1
  B  B318  1  0.76701900  0.23703100  0.78765300  1
  B  B319  1  0.91905300  0.33838700  0.73697500  1
  B  B320  1  0.43034700  0.90826500  0.77277500  1
  B  B321  1  0.63701200  0.04604200  0.70388700  1
  B  B322  1  0.23975000  0.87179900  0.72736300  1
  B  B323  1  0.14641500  0.80957600  0.75847500  1
  B  B324  1  0.65770900  0.37945400  0.79427500  1
  B  B325  1  0.80974200  0.48081000  0.74359700  1
  B  B326  1  0.90561100  0.58694900  0.73467700  1
  B  B327  1  0.66554800  0.49437400  0.76814900  1
  B  B328  1  0.14025300  0.96002600  0.75622100  1
  B  B329  1  0.96853400  0.80643300  0.76004600  1
  B  B330  1  0.87519900  0.74420900  0.79115800  1
  B  B331  1  0.85529000  0.72113800  0.75145000  1
  B  B332  1  0.88713100  0.88949000  0.79148900  1
  B  B333  1  0.85440900  0.85492000  0.72870800  1
  B  B334  1  0.70644300  0.75627500  0.77803100  1
  B  B335  1  0.59984900  0.66957100  0.79004900  1
  B  B336  1  0.32691200  0.44827000  0.79120100  1
  B  B337  1  0.52031900  0.56156600  0.70321900  1
  B  B338  1  0.37235200  0.46292100  0.75254200  1
  B  B339  1  0.03963100  0.22835100  0.78976100  1
  B  B340  1  0.37147100  0.59670400  0.72980000  1
  B  B341  1  0.05156300  0.37363200  0.79009200  1
  B  B342  1  0.25822800  0.51140800  0.72120400  1
  B  B343  1  0.08650900  0.35781500  0.72502900  1
  B  B344  1  0.56121300  0.82346700  0.71310100  1
  B  B345  1  0.32115100  0.73089200  0.74657300  1
  B  B346  1  0.41701900  0.83703100  0.73765300  1
  B  B347  1  0.26905300  0.73838700  0.78697500  1
  B  B348  1  0.08034700  0.50826500  0.72277500  1
  B  B349  1  0.98701200  0.44604200  0.75388700  1
  B  B350  1  0.58975000  0.27179900  0.77736300  1
  B  B351  1  0.79641500  0.40957600  0.70847500  1
  B  B352  1  0.30770900  0.97945400  0.74427500  1
  B  B353  1  0.15974200  0.88081000  0.79359700  1
  B  B354  1  0.25561100  0.98694900  0.78467700  1
  B  B355  1  0.31554800  0.09437400  0.71814900  1
  B  B356  1  0.79025300  0.56002600  0.70622100  1
  B  B357  1  0.61853400  0.40643300  0.71004600  1
  B  B358  1  0.52519900  0.34420900  0.74115800  1
  B  B359  1  0.50529000  0.32113800  0.70145000  1
  B  B360  1  0.53713100  0.48949000  0.74148900  1
  B  B361  1  0.20440900  0.25492000  0.77870800  1
  B  B362  1  0.35644300  0.35627500  0.72803100  1
  B  B363  1  0.24984900  0.26957100  0.74004900  1
