# generated using pymatgen
data_Mg2Hg
_symmetry_space_group_name_H-M   'P 1'
_cell_length_a   4.75496500
_cell_length_b   8.61312000
_cell_length_c   44.83598300
_cell_angle_alpha   90.00000000
_cell_angle_beta   90.00000000
_cell_angle_gamma   90.00000000
_symmetry_Int_Tables_number   1
_chemical_formula_structural   Mg2Hg
_chemical_formula_sum   'Mg32 Hg16'
_cell_volume   1836.26145630
_cell_formula_units_Z   16
loop_
 _symmetry_equiv_pos_site_id
 _symmetry_equiv_pos_as_xyz
  1  'x, y, z'
loop_
 _atom_site_type_symbol
 _atom_site_label
 _atom_site_symmetry_multiplicity
 _atom_site_fract_x
 _atom_site_fract_y
 _atom_site_fract_z
 _atom_site_occupancy
  Mg  Mg0  1  0.75000000  0.78854300  0.29037200  1
  Mg  Mg1  1  0.25000000  0.21145700  0.28105700  1
  Mg  Mg2  1  0.75000000  0.71145700  0.21894300  1
  Mg  Mg3  1  0.25000000  0.28854300  0.35248500  1
  Mg  Mg4  1  0.25000000  0.56198000  0.26035700  1
  Mg  Mg5  1  0.75000000  0.43802000  0.31107100  1
  Mg  Mg6  1  0.25000000  0.93802000  0.33178600  1
  Mg  Mg7  1  0.75000000  0.06198000  0.23964300  1
  Mg  Mg8  1  0.75000000  0.78854300  0.43322900  1
  Mg  Mg9  1  0.25000000  0.21145700  0.42391400  1
  Mg  Mg10  1  0.75000000  0.71145700  0.36180100  1
  Mg  Mg11  1  0.25000000  0.28854300  0.49534200  1
  Mg  Mg12  1  0.25000000  0.56198000  0.40321500  1
  Mg  Mg13  1  0.75000000  0.43802000  0.45392800  1
  Mg  Mg14  1  0.25000000  0.93802000  0.47464300  1
  Mg  Mg15  1  0.75000000  0.06198000  0.38250000  1
  Mg  Mg16  1  0.75000000  0.78854300  0.57608600  1
  Mg  Mg17  1  0.25000000  0.21145700  0.56677100  1
  Mg  Mg18  1  0.75000000  0.71145700  0.50465800  1
  Mg  Mg19  1  0.25000000  0.28854300  0.63819900  1
  Mg  Mg20  1  0.25000000  0.56198000  0.54607200  1
  Mg  Mg21  1  0.75000000  0.43802000  0.59678500  1
  Mg  Mg22  1  0.25000000  0.93802000  0.61750000  1
  Mg  Mg23  1  0.75000000  0.06198000  0.52535700  1
  Mg  Mg24  1  0.75000000  0.78854300  0.71894300  1
  Mg  Mg25  1  0.25000000  0.21145700  0.70962800  1
  Mg  Mg26  1  0.75000000  0.71145700  0.64751500  1
  Mg  Mg27  1  0.25000000  0.28854300  0.78105700  1
  Mg  Mg28  1  0.25000000  0.56198000  0.68892900  1
  Mg  Mg29  1  0.75000000  0.43802000  0.73964300  1
  Mg  Mg30  1  0.25000000  0.93802000  0.76035700  1
  Mg  Mg31  1  0.75000000  0.06198000  0.66821400  1
  Hg  Hg32  1  0.75000000  0.10846200  0.31718000  1
  Hg  Hg33  1  0.25000000  0.89153800  0.25424800  1
  Hg  Hg34  1  0.75000000  0.39153800  0.24575200  1
  Hg  Hg35  1  0.25000000  0.60846200  0.32567700  1
  Hg  Hg36  1  0.75000000  0.10846200  0.46003700  1
  Hg  Hg37  1  0.25000000  0.89153800  0.39710500  1
  Hg  Hg38  1  0.75000000  0.39153800  0.38860900  1
  Hg  Hg39  1  0.25000000  0.60846200  0.46853400  1
  Hg  Hg40  1  0.75000000  0.10846200  0.60289500  1
  Hg  Hg41  1  0.25000000  0.89153800  0.53996300  1
  Hg  Hg42  1  0.75000000  0.39153800  0.53146600  1
  Hg  Hg43  1  0.25000000  0.60846200  0.61139100  1
  Hg  Hg44  1  0.75000000  0.10846200  0.74575200  1
  Hg  Hg45  1  0.25000000  0.89153800  0.68282000  1
  Hg  Hg46  1  0.75000000  0.39153800  0.67432300  1
  Hg  Hg47  1  0.25000000  0.60846200  0.75424800  1
