# generated using pymatgen
data_MgAg2
_symmetry_space_group_name_H-M   'P 1'
_cell_length_a   5.07886500
_cell_length_b   10.13510577
_cell_length_c   42.87725400
_cell_angle_alpha   85.71247390
_cell_angle_beta   90.00000000
_cell_angle_gamma   90.00000000
_symmetry_Int_Tables_number   1
_chemical_formula_structural   MgAg2
_chemical_formula_sum   'Mg24 Ag48'
_cell_volume   2200.92281523
_cell_formula_units_Z   24
loop_
 _symmetry_equiv_pos_site_id
 _symmetry_equiv_pos_as_xyz
  1  'x, y, z'
loop_
 _atom_site_type_symbol
 _atom_site_label
 _atom_site_symmetry_multiplicity
 _atom_site_fract_x
 _atom_site_fract_y
 _atom_site_fract_z
 _atom_site_occupancy
  Mg  Mg0  1  0.19670100  0.05000000  0.22500000  1
  Mg  Mg1  1  0.80329900  0.15000000  0.27500000  1
  Mg  Mg2  1  0.69670100  0.65000000  0.27500000  1
  Mg  Mg3  1  0.30329900  0.55000000  0.22500000  1
  Mg  Mg4  1  0.19670100  0.25000000  0.32500000  1
  Mg  Mg5  1  0.80329900  0.35000000  0.37500000  1
  Mg  Mg6  1  0.69670100  0.85000000  0.37500000  1
  Mg  Mg7  1  0.30329900  0.75000000  0.32500000  1
  Mg  Mg8  1  0.19670100  0.45000000  0.42500000  1
  Mg  Mg9  1  0.80329900  0.55000000  0.47500000  1
  Mg  Mg10  1  0.69670100  0.05000000  0.47500000  1
  Mg  Mg11  1  0.30329900  0.95000000  0.42500000  1
  Mg  Mg12  1  0.19670100  0.65000000  0.52500000  1
  Mg  Mg13  1  0.80329900  0.75000000  0.57500000  1
  Mg  Mg14  1  0.69670100  0.25000000  0.57500000  1
  Mg  Mg15  1  0.30329900  0.15000000  0.52500000  1
  Mg  Mg16  1  0.19670100  0.85000000  0.62500000  1
  Mg  Mg17  1  0.80329900  0.95000000  0.67500000  1
  Mg  Mg18  1  0.69670100  0.45000000  0.67500000  1
  Mg  Mg19  1  0.30329900  0.35000000  0.62500000  1
  Mg  Mg20  1  0.19670100  0.05000000  0.72500000  1
  Mg  Mg21  1  0.80329900  0.15000000  0.77500000  1
  Mg  Mg22  1  0.69670100  0.65000000  0.77500000  1
  Mg  Mg23  1  0.30329900  0.55000000  0.72500000  1
  Ag  Ag24  1  0.81473600  0.41682900  0.24164600  1
  Ag  Ag25  1  0.18526400  0.51682900  0.29164600  1
  Ag  Ag26  1  0.68526400  0.18317100  0.20835400  1
  Ag  Ag27  1  0.31473600  0.28317100  0.25835400  1
  Ag  Ag28  1  0.31473600  0.01682900  0.29164600  1
  Ag  Ag29  1  0.68526400  0.91682900  0.24164600  1
  Ag  Ag30  1  0.18526400  0.78317100  0.25835400  1
  Ag  Ag31  1  0.81473600  0.68317100  0.20835400  1
  Ag  Ag32  1  0.81473600  0.61682900  0.34164600  1
  Ag  Ag33  1  0.18526400  0.71682900  0.39164600  1
  Ag  Ag34  1  0.68526400  0.38317100  0.30835400  1
  Ag  Ag35  1  0.31473600  0.48317100  0.35835400  1
  Ag  Ag36  1  0.31473600  0.21682900  0.39164600  1
  Ag  Ag37  1  0.68526400  0.11682900  0.34164600  1
  Ag  Ag38  1  0.18526400  0.98317100  0.35835400  1
  Ag  Ag39  1  0.81473600  0.88317100  0.30835400  1
  Ag  Ag40  1  0.81473600  0.81682900  0.44164600  1
  Ag  Ag41  1  0.18526400  0.91682900  0.49164600  1
  Ag  Ag42  1  0.68526400  0.58317100  0.40835400  1
  Ag  Ag43  1  0.31473600  0.68317100  0.45835400  1
  Ag  Ag44  1  0.31473600  0.41682900  0.49164600  1
  Ag  Ag45  1  0.68526400  0.31682900  0.44164600  1
  Ag  Ag46  1  0.18526400  0.18317100  0.45835400  1
  Ag  Ag47  1  0.81473600  0.08317100  0.40835400  1
  Ag  Ag48  1  0.81473600  0.01682900  0.54164600  1
  Ag  Ag49  1  0.18526400  0.11682900  0.59164600  1
  Ag  Ag50  1  0.68526400  0.78317100  0.50835400  1
  Ag  Ag51  1  0.31473600  0.88317100  0.55835400  1
  Ag  Ag52  1  0.31473600  0.61682900  0.59164600  1
  Ag  Ag53  1  0.68526400  0.51682900  0.54164600  1
  Ag  Ag54  1  0.18526400  0.38317100  0.55835400  1
  Ag  Ag55  1  0.81473600  0.28317100  0.50835400  1
  Ag  Ag56  1  0.81473600  0.21682900  0.64164600  1
  Ag  Ag57  1  0.18526400  0.31682900  0.69164600  1
  Ag  Ag58  1  0.68526400  0.98317100  0.60835400  1
  Ag  Ag59  1  0.31473600  0.08317100  0.65835400  1
  Ag  Ag60  1  0.31473600  0.81682900  0.69164600  1
  Ag  Ag61  1  0.68526400  0.71682900  0.64164600  1
  Ag  Ag62  1  0.18526400  0.58317100  0.65835400  1
  Ag  Ag63  1  0.81473600  0.48317100  0.60835400  1
  Ag  Ag64  1  0.81473600  0.41682900  0.74164600  1
  Ag  Ag65  1  0.18526400  0.51682900  0.79164600  1
  Ag  Ag66  1  0.68526400  0.18317100  0.70835400  1
  Ag  Ag67  1  0.31473600  0.28317100  0.75835400  1
  Ag  Ag68  1  0.31473600  0.01682900  0.79164600  1
  Ag  Ag69  1  0.68526400  0.91682900  0.74164600  1
  Ag  Ag70  1  0.18526400  0.78317100  0.75835400  1
  Ag  Ag71  1  0.81473600  0.68317100  0.70835400  1
