# generated using pymatgen
data_Mg11Se23
_symmetry_space_group_name_H-M   'P 1'
_cell_length_a   6.51982800
_cell_length_b   9.22043000
_cell_length_c   46.10214800
_cell_angle_alpha   90.00000000
_cell_angle_beta   90.00000000
_cell_angle_gamma   90.00000000
_symmetry_Int_Tables_number   1
_chemical_formula_structural   Mg11Se23
_chemical_formula_sum   'Mg22 Se46'
_cell_volume   2771.45910367
_cell_formula_units_Z   2
loop_
 _symmetry_equiv_pos_site_id
 _symmetry_equiv_pos_as_xyz
  1  'x, y, z'
loop_
 _atom_site_type_symbol
 _atom_site_label
 _atom_site_symmetry_multiplicity
 _atom_site_fract_x
 _atom_site_fract_y
 _atom_site_fract_z
 _atom_site_occupancy
  Mg  Mg0  1  0.00000000  0.05324500  0.28333300  1
  Mg  Mg1  1  0.50000000  0.80324500  0.23333300  1
  Mg  Mg2  1  0.50000000  0.30324500  0.23333300  1
  Mg  Mg3  1  0.00000000  0.55324500  0.28333300  1
  Mg  Mg4  1  1.00000000  0.55324500  0.38333300  1
  Mg  Mg5  1  0.50000000  0.30324500  0.33333300  1
  Mg  Mg6  1  0.50000000  0.80324500  0.33333300  1
  Mg  Mg7  1  0.00000000  0.05324500  0.38333300  1
  Mg  Mg8  1  0.00000000  0.05324500  0.48333300  1
  Mg  Mg9  1  0.50000000  0.80324500  0.43333300  1
  Mg  Mg10  1  0.50000000  0.30324500  0.43333300  1
  Mg  Mg11  1  1.00000000  0.55324500  0.48333300  1
  Mg  Mg12  1  0.00000000  0.55324500  0.58333300  1
  Mg  Mg13  1  0.50000000  0.30324500  0.53333300  1
  Mg  Mg14  1  0.50000000  0.80324500  0.53333300  1
  Mg  Mg15  1  0.00000000  0.05324500  0.58333300  1
  Mg  Mg16  1  0.00000000  0.05324500  0.68333300  1
  Mg  Mg17  1  0.50000000  0.80324500  0.63333300  1
  Mg  Mg18  1  0.50000000  0.30324500  0.63333300  1
  Mg  Mg19  1  0.00000000  0.55324500  0.68333300  1
  Mg  Mg20  1  0.50000000  0.30324500  0.73333300  1
  Mg  Mg21  1  0.50000000  0.80324500  0.73333300  1
  Se  Se22  1  0.60648900  0.65973400  0.28333300  1
  Se  Se23  1  0.89351100  0.30324500  0.25463100  1
  Se  Se24  1  0.10648900  0.69675500  0.23333300  1
  Se  Se25  1  0.39351100  0.05324500  0.26203600  1
  Se  Se26  1  0.39351100  0.44675500  0.28333300  1
  Se  Se27  1  0.10648900  0.30324500  0.21203600  1
  Se  Se28  1  0.89351100  0.90973400  0.23333300  1
  Se  Se29  1  0.60648900  0.55324500  0.20463100  1
  Se  Se30  1  0.60648900  0.15973400  0.38333300  1
  Se  Se31  1  0.89351100  0.80324500  0.35463100  1
  Se  Se32  1  0.10648900  0.19675500  0.33333300  1
  Se  Se33  1  0.39351100  0.55324500  0.36203600  1
  Se  Se34  1  0.39351100  0.94675500  0.38333300  1
  Se  Se35  1  0.10648900  0.80324500  0.31203600  1
  Se  Se36  1  0.89351100  0.40973400  0.33333300  1
  Se  Se37  1  0.60648900  0.05324500  0.30463100  1
  Se  Se38  1  0.60648900  0.65973400  0.48333300  1
  Se  Se39  1  0.89351100  0.30324500  0.45463100  1
  Se  Se40  1  0.10648900  0.69675500  0.43333300  1
  Se  Se41  1  0.39351100  0.05324500  0.46203600  1
  Se  Se42  1  0.39351100  0.44675500  0.48333300  1
  Se  Se43  1  0.10648900  0.30324500  0.41203600  1
  Se  Se44  1  0.89351100  0.90973400  0.43333300  1
  Se  Se45  1  0.60648900  0.55324500  0.40463100  1
  Se  Se46  1  0.60648900  0.15973400  0.58333300  1
  Se  Se47  1  0.89351100  0.80324500  0.55463100  1
  Se  Se48  1  0.10648900  0.19675500  0.53333300  1
  Se  Se49  1  0.39351100  0.55324500  0.56203600  1
  Se  Se50  1  0.39351100  0.94675500  0.58333300  1
  Se  Se51  1  0.10648900  0.80324500  0.51203600  1
  Se  Se52  1  0.89351100  0.40973400  0.53333300  1
  Se  Se53  1  0.60648900  0.05324500  0.50463100  1
  Se  Se54  1  0.60648900  0.65973400  0.68333300  1
  Se  Se55  1  0.89351100  0.30324500  0.65463100  1
  Se  Se56  1  0.10648900  0.69675500  0.63333300  1
  Se  Se57  1  0.39351100  0.05324500  0.66203600  1
  Se  Se58  1  0.39351100  0.44675500  0.68333300  1
  Se  Se59  1  0.10648900  0.30324500  0.61203600  1
  Se  Se60  1  0.89351100  0.90973400  0.63333300  1
  Se  Se61  1  0.60648900  0.55324500  0.60463100  1
  Se  Se62  1  0.89351100  0.80324500  0.75463100  1
  Se  Se63  1  0.10648900  0.19675500  0.73333300  1
  Se  Se64  1  0.39351100  0.55324500  0.76203600  1
  Se  Se65  1  0.10648900  0.80324500  0.71203600  1
  Se  Se66  1  0.89351100  0.40973400  0.73333300  1
  Se  Se67  1  0.60648900  0.05324500  0.70463100  1
