# generated using pymatgen
data_Mg14Zn71
_symmetry_space_group_name_H-M   'P 1'
_cell_length_a   8.56229400
_cell_length_b   12.10891200
_cell_length_c   48.43564800
_cell_angle_alpha   90.00000000
_cell_angle_beta   90.00000000
_cell_angle_gamma   90.00000000
_symmetry_Int_Tables_number   1
_chemical_formula_structural   Mg14Zn71
_chemical_formula_sum   'Mg28 Zn142'
_cell_volume   5021.81111185
_cell_formula_units_Z   2
loop_
 _symmetry_equiv_pos_site_id
 _symmetry_equiv_pos_as_xyz
  1  'x, y, z'
loop_
 _atom_site_type_symbol
 _atom_site_label
 _atom_site_symmetry_multiplicity
 _atom_site_fract_x
 _atom_site_fract_y
 _atom_site_fract_z
 _atom_site_occupancy
  Mg  Mg0  1  0.50000000  0.79381500  0.23461700  1
  Mg  Mg1  1  0.00000000  0.24126400  0.29711700  1
  Mg  Mg2  1  0.69744900  0.39254000  0.20993600  1
  Mg  Mg3  1  0.00000000  0.04381500  0.24775500  1
  Mg  Mg4  1  0.30255100  0.39254000  0.20993600  1
  Mg  Mg5  1  0.50000000  0.99126400  0.18525500  1
  Mg  Mg6  1  0.50000000  0.29381500  0.35961700  1
  Mg  Mg7  1  0.00000000  0.74126400  0.42211700  1
  Mg  Mg8  1  0.69744900  0.89254000  0.33493600  1
  Mg  Mg9  1  0.00000000  0.54381500  0.37275500  1
  Mg  Mg10  1  0.30255100  0.89254000  0.33493600  1
  Mg  Mg11  1  0.50000000  0.49126400  0.31025500  1
  Mg  Mg12  1  0.50000000  0.79381500  0.48461700  1
  Mg  Mg13  1  0.00000000  0.24126400  0.54711700  1
  Mg  Mg14  1  0.69744900  0.39254000  0.45993600  1
  Mg  Mg15  1  0.00000000  0.04381500  0.49775500  1
  Mg  Mg16  1  0.30255100  0.39254000  0.45993600  1
  Mg  Mg17  1  0.50000000  0.99126400  0.43525500  1
  Mg  Mg18  1  0.50000000  0.29381500  0.60961700  1
  Mg  Mg19  1  0.00000000  0.74126400  0.67211700  1
  Mg  Mg20  1  0.69744900  0.89254000  0.58493600  1
  Mg  Mg21  1  0.00000000  0.54381500  0.62275500  1
  Mg  Mg22  1  0.30255100  0.89254000  0.58493600  1
  Mg  Mg23  1  0.50000000  0.49126400  0.56025500  1
  Mg  Mg24  1  0.50000000  0.79381500  0.73461700  1
  Mg  Mg25  1  0.69744900  0.39254000  0.70993600  1
  Mg  Mg26  1  0.30255100  0.39254000  0.70993600  1
  Mg  Mg27  1  0.50000000  0.99126400  0.68525500  1
  Zn  Zn28  1  0.50000000  0.14254000  0.27243600  1
  Zn  Zn29  1  0.00000000  0.75572600  0.24413900  1
  Zn  Zn30  1  0.00000000  0.52935400  0.24413900  1
  Zn  Zn31  1  0.77362700  0.64254000  0.27243600  1
  Zn  Zn32  1  0.00000000  0.75572600  0.30073200  1
  Zn  Zn33  1  0.22637300  0.64254000  0.27243600  1
  Zn  Zn34  1  0.00000000  0.52935400  0.30073200  1
  Zn  Zn35  1  0.00000000  0.47135000  0.19023300  1
  Zn  Zn36  1  0.50000000  0.56373000  0.25273300  1
  Zn  Zn37  1  0.84238000  0.89254000  0.20993600  1
  Zn  Zn38  1  0.50000000  0.72135000  0.29213800  1
  Zn  Zn39  1  0.15762000  0.89254000  0.20993600  1
  Zn  Zn40  1  0.00000000  0.31373000  0.22963800  1
  Zn  Zn41  1  0.78094500  0.64254000  0.21767200  1
  Zn  Zn42  1  0.78094500  0.14254000  0.20220000  1
  Zn  Zn43  1  0.21905500  0.86159500  0.27243600  1
  Zn  Zn44  1  0.21905500  0.42348500  0.27243600  1
  Zn  Zn45  1  0.21905500  0.14254000  0.20220000  1
  Zn  Zn46  1  0.21905500  0.64254000  0.21767200  1
  Zn  Zn47  1  0.78094500  0.42348500  0.27243600  1
  Zn  Zn48  1  0.78094500  0.86159500  0.27243600  1
  Zn  Zn49  1  0.65815800  0.27634400  0.30588700  1
  Zn  Zn50  1  0.76760900  0.06346100  0.29220600  1
  Zn  Zn51  1  0.50000000  0.58781400  0.20065700  1
  Zn  Zn52  1  0.50000000  0.19726600  0.21921500  1
  Zn  Zn53  1  0.23239100  0.06346100  0.29220600  1
  Zn  Zn54  1  0.50000000  0.35542300  0.25875500  1
  Zn  Zn55  1  0.76760900  0.22161900  0.25266600  1
  Zn  Zn56  1  0.23239100  0.22161900  0.25266600  1
  Zn  Zn57  1  0.50000000  0.92965700  0.28611700  1
  Zn  Zn58  1  0.34184200  0.00873600  0.23898500  1
  Zn  Zn59  1  0.34184200  0.27634400  0.30588700  1
  Zn  Zn60  1  0.65815800  0.00873600  0.23898500  1
  Zn  Zn61  1  0.50000000  0.64254000  0.39743600  1
  Zn  Zn62  1  0.00000000  0.25572600  0.36913900  1
  Zn  Zn63  1  0.00000000  0.02935400  0.36913900  1
  Zn  Zn64  1  0.77362700  0.14254000  0.39743600  1
  Zn  Zn65  1  0.00000000  0.25572600  0.42573200  1
  Zn  Zn66  1  0.22637300  0.14254000  0.39743600  1
  Zn  Zn67  1  0.00000000  0.02935400  0.42573200  1
  Zn  Zn68  1  1.00000000  0.97135000  0.31523300  1
  Zn  Zn69  1  0.50000000  0.06373000  0.37773300  1
  Zn  Zn70  1  0.84238000  0.39254000  0.33493600  1
  Zn  Zn71  1  0.50000000  0.22135000  0.41713800  1
  Zn  Zn72  1  0.15762000  0.39254000  0.33493600  1
  Zn  Zn73  1  0.00000000  0.81373000  0.35463800  1
  Zn  Zn74  1  0.78094500  0.14254000  0.34267200  1
  Zn  Zn75  1  0.78094500  0.64254000  0.32720000  1
  Zn  Zn76  1  0.21905500  0.36159500  0.39743600  1
  Zn  Zn77  1  0.21905500  0.92348500  0.39743600  1
  Zn  Zn78  1  0.21905500  0.64254000  0.32720000  1
  Zn  Zn79  1  0.21905500  0.14254000  0.34267200  1
  Zn  Zn80  1  0.78094500  0.92348500  0.39743600  1
  Zn  Zn81  1  0.78094500  0.36159500  0.39743600  1
  Zn  Zn82  1  0.65815800  0.77634400  0.43088700  1
  Zn  Zn83  1  0.76760900  0.56346100  0.41720600  1
  Zn  Zn84  1  0.50000000  0.08781400  0.32565700  1
  Zn  Zn85  1  0.50000000  0.69726600  0.34421500  1
  Zn  Zn86  1  0.23239100  0.56346100  0.41720600  1
  Zn  Zn87  1  0.50000000  0.85542300  0.38375500  1
  Zn  Zn88  1  0.76760900  0.72161900  0.37766600  1
  Zn  Zn89  1  0.23239100  0.72161900  0.37766600  1
  Zn  Zn90  1  0.50000000  0.42965700  0.41111700  1
  Zn  Zn91  1  0.34184200  0.50873600  0.36398500  1
  Zn  Zn92  1  0.34184200  0.77634400  0.43088700  1
  Zn  Zn93  1  0.65815800  0.50873600  0.36398500  1
  Zn  Zn94  1  0.50000000  0.14254000  0.52243600  1
  Zn  Zn95  1  0.00000000  0.75572600  0.49413900  1
  Zn  Zn96  1  0.00000000  0.52935400  0.49413900  1
  Zn  Zn97  1  0.77362700  0.64254000  0.52243600  1
  Zn  Zn98  1  0.00000000  0.75572600  0.55073200  1
  Zn  Zn99  1  0.22637300  0.64254000  0.52243600  1
  Zn  Zn100  1  0.00000000  0.52935400  0.55073200  1
  Zn  Zn101  1  0.00000000  0.47135000  0.44023300  1
  Zn  Zn102  1  0.50000000  0.56373000  0.50273300  1
  Zn  Zn103  1  0.84238000  0.89254000  0.45993600  1
  Zn  Zn104  1  0.50000000  0.72135000  0.54213800  1
  Zn  Zn105  1  0.15762000  0.89254000  0.45993600  1
  Zn  Zn106  1  0.00000000  0.31373000  0.47963800  1
  Zn  Zn107  1  0.78094500  0.64254000  0.46767200  1
  Zn  Zn108  1  0.78094500  0.14254000  0.45220000  1
  Zn  Zn109  1  0.21905500  0.86159500  0.52243600  1
  Zn  Zn110  1  0.21905500  0.42348500  0.52243600  1
  Zn  Zn111  1  0.21905500  0.14254000  0.45220000  1
  Zn  Zn112  1  0.21905500  0.64254000  0.46767200  1
  Zn  Zn113  1  0.78094500  0.42348500  0.52243600  1
  Zn  Zn114  1  0.78094500  0.86159500  0.52243600  1
  Zn  Zn115  1  0.65815800  0.27634400  0.55588700  1
  Zn  Zn116  1  0.76760900  0.06346100  0.54220600  1
  Zn  Zn117  1  0.50000000  0.58781400  0.45065700  1
  Zn  Zn118  1  0.50000000  0.19726600  0.46921500  1
  Zn  Zn119  1  0.23239100  0.06346100  0.54220600  1
  Zn  Zn120  1  0.50000000  0.35542300  0.50875500  1
  Zn  Zn121  1  0.76760900  0.22161900  0.50266600  1
  Zn  Zn122  1  0.23239100  0.22161900  0.50266600  1
  Zn  Zn123  1  0.50000000  0.92965700  0.53611700  1
  Zn  Zn124  1  0.34184200  0.00873600  0.48898500  1
  Zn  Zn125  1  0.34184200  0.27634400  0.55588700  1
  Zn  Zn126  1  0.65815800  0.00873600  0.48898500  1
  Zn  Zn127  1  0.50000000  0.64254000  0.64743600  1
  Zn  Zn128  1  0.00000000  0.25572600  0.61913900  1
  Zn  Zn129  1  0.00000000  0.02935400  0.61913900  1
  Zn  Zn130  1  0.77362700  0.14254000  0.64743600  1
  Zn  Zn131  1  0.00000000  0.25572600  0.67573200  1
  Zn  Zn132  1  0.22637300  0.14254000  0.64743600  1
  Zn  Zn133  1  0.00000000  0.02935400  0.67573200  1
  Zn  Zn134  1  0.00000000  0.97135000  0.56523300  1
  Zn  Zn135  1  0.50000000  0.06373000  0.62773300  1
  Zn  Zn136  1  0.84238000  0.39254000  0.58493600  1
  Zn  Zn137  1  0.50000000  0.22135000  0.66713800  1
  Zn  Zn138  1  0.15762000  0.39254000  0.58493600  1
  Zn  Zn139  1  0.00000000  0.81373000  0.60463800  1
  Zn  Zn140  1  0.78094500  0.14254000  0.59267200  1
  Zn  Zn141  1  0.78094500  0.64254000  0.57720000  1
  Zn  Zn142  1  0.21905500  0.36159500  0.64743600  1
  Zn  Zn143  1  0.21905500  0.92348500  0.64743600  1
  Zn  Zn144  1  0.21905500  0.64254000  0.57720000  1
  Zn  Zn145  1  0.21905500  0.14254000  0.59267200  1
  Zn  Zn146  1  0.78094500  0.92348500  0.64743600  1
  Zn  Zn147  1  0.78094500  0.36159500  0.64743600  1
  Zn  Zn148  1  0.65815800  0.77634400  0.68088700  1
  Zn  Zn149  1  0.76760900  0.56346100  0.66720600  1
  Zn  Zn150  1  0.50000000  0.08781400  0.57565700  1
  Zn  Zn151  1  0.50000000  0.69726600  0.59421500  1
  Zn  Zn152  1  0.23239100  0.56346100  0.66720600  1
  Zn  Zn153  1  0.50000000  0.85542300  0.63375500  1
  Zn  Zn154  1  0.76760900  0.72161900  0.62766600  1
  Zn  Zn155  1  0.23239100  0.72161900  0.62766600  1
  Zn  Zn156  1  0.50000000  0.42965700  0.66111700  1
  Zn  Zn157  1  0.34184200  0.50873600  0.61398500  1
  Zn  Zn158  1  0.34184200  0.77634400  0.68088700  1
  Zn  Zn159  1  0.65815800  0.50873600  0.61398500  1
  Zn  Zn160  1  0.00000000  0.47135000  0.69023300  1
  Zn  Zn161  1  0.84238000  0.89254000  0.70993600  1
  Zn  Zn162  1  0.15762000  0.89254000  0.70993600  1
  Zn  Zn163  1  0.00000000  0.31373000  0.72963800  1
  Zn  Zn164  1  0.78094500  0.64254000  0.71767200  1
  Zn  Zn165  1  0.78094500  0.14254000  0.70220000  1
  Zn  Zn166  1  0.21905500  0.14254000  0.70220000  1
  Zn  Zn167  1  0.21905500  0.64254000  0.71767200  1
  Zn  Zn168  1  0.50000000  0.58781400  0.70065700  1
  Zn  Zn169  1  0.50000000  0.19726600  0.71921500  1
