# generated using pymatgen
data_Mg12In5
_symmetry_space_group_name_H-M   'P 1'
_cell_length_a   7.10486100
_cell_length_b   8.73688538
_cell_length_c   46.55831200
_cell_angle_alpha   94.50846536
_cell_angle_beta   90.00000000
_cell_angle_gamma   113.99151935
_symmetry_Int_Tables_number   1
_chemical_formula_structural   Mg12In5
_chemical_formula_sum   'Mg48 In20'
_cell_volume   2630.59955503
_cell_formula_units_Z   4
loop_
 _symmetry_equiv_pos_site_id
 _symmetry_equiv_pos_as_xyz
  1  'x, y, z'
loop_
 _atom_site_type_symbol
 _atom_site_label
 _atom_site_symmetry_multiplicity
 _atom_site_fract_x
 _atom_site_fract_y
 _atom_site_fract_z
 _atom_site_occupancy
  Mg  Mg0  1  0.08482400  0.83880300  0.81079400  1
  Mg  Mg1  1  0.02786300  0.38657000  0.70706300  1
  Mg  Mg2  1  0.29620700  0.26157000  0.76956300  1
  Mg  Mg3  1  0.81647900  0.96380300  0.74829400  1
  Mg  Mg4  1  0.52509300  0.05018600  0.79017900  1
  Mg  Mg5  1  0.58759300  0.17518600  0.72767900  1
  Mg  Mg6  1  0.85709000  0.71418100  0.69475000  1
  Mg  Mg7  1  0.31809600  0.63619200  0.76060800  1
  Mg  Mg8  1  0.38059600  0.76119200  0.69810800  1
  Mg  Mg9  1  0.79459000  0.58918100  0.75725000  1
  Mg  Mg10  1  0.20982400  0.08880300  0.68579400  1
  Mg  Mg11  1  0.15286300  0.63657000  0.58206300  1
  Mg  Mg12  1  0.42120700  0.51157000  0.64456300  1
  Mg  Mg13  1  0.94147900  0.21380300  0.62329400  1
  Mg  Mg14  1  0.65009300  0.30018600  0.66517900  1
  Mg  Mg15  1  0.71259300  0.42518600  0.60267900  1
  Mg  Mg16  1  0.98209000  0.96418100  0.56975000  1
  Mg  Mg17  1  0.44309600  0.88619200  0.63560800  1
  Mg  Mg18  1  0.50559600  0.01119200  0.57310800  1
  Mg  Mg19  1  0.91959000  0.83918100  0.63225000  1
  Mg  Mg20  1  0.33482400  0.33880300  0.56079400  1
  Mg  Mg21  1  0.27786300  0.88657000  0.45706300  1
  Mg  Mg22  1  0.54620700  0.76157000  0.51956300  1
  Mg  Mg23  1  0.06647900  0.46380300  0.49829400  1
  Mg  Mg24  1  0.77509300  0.55018600  0.54017900  1
  Mg  Mg25  1  0.83759300  0.67518600  0.47767900  1
  Mg  Mg26  1  0.10709000  0.21418100  0.44475000  1
  Mg  Mg27  1  0.56809600  0.13619200  0.51060800  1
  Mg  Mg28  1  0.63059600  0.26119200  0.44810800  1
  Mg  Mg29  1  0.04459000  0.08918100  0.50725000  1
  Mg  Mg30  1  0.45982400  0.58880300  0.43579400  1
  Mg  Mg31  1  0.40286300  0.13657000  0.33206300  1
  Mg  Mg32  1  0.67120700  0.01157000  0.39456300  1
  Mg  Mg33  1  0.19147900  0.71380300  0.37329400  1
  Mg  Mg34  1  0.90009300  0.80018600  0.41517900  1
  Mg  Mg35  1  0.96259300  0.92518600  0.35267900  1
  Mg  Mg36  1  0.23209000  0.46418100  0.31975000  1
  Mg  Mg37  1  0.69309600  0.38619200  0.38560800  1
  Mg  Mg38  1  0.75559600  0.51119200  0.32310800  1
  Mg  Mg39  1  0.16959000  0.33918100  0.38225000  1
  Mg  Mg40  1  0.58482400  0.83880300  0.31079400  1
  Mg  Mg41  1  0.52786300  0.38657000  0.20706300  1
  Mg  Mg42  1  0.79620700  0.26157000  0.26956300  1
  Mg  Mg43  1  0.31647900  0.96380300  0.24829400  1
  Mg  Mg44  1  0.02509300  0.05018600  0.29017900  1
  Mg  Mg45  1  0.08759300  0.17518600  0.22767900  1
  Mg  Mg46  1  0.81809600  0.63619200  0.26060800  1
  Mg  Mg47  1  0.29459000  0.58918100  0.25725000  1
  In  In48  1  0.64823300  0.77412100  0.80617400  1
  In  In49  1  0.46445400  0.45125200  0.71168300  1
  In  In50  1  0.92429800  0.32625200  0.77418300  1
  In  In51  1  0.18838800  0.89912100  0.74367400  1
  In  In52  1  0.77323300  0.02412100  0.68117400  1
  In  In53  1  0.58945400  0.70125200  0.58668300  1
  In  In54  1  0.04929800  0.57625200  0.64918300  1
  In  In55  1  0.31338800  0.14912100  0.61867400  1
  In  In56  1  0.89823300  0.27412100  0.55617400  1
  In  In57  1  0.71445400  0.95125200  0.46168300  1
  In  In58  1  0.17429800  0.82625200  0.52418300  1
  In  In59  1  0.43838800  0.39912100  0.49367400  1
  In  In60  1  0.02323300  0.52412100  0.43117400  1
  In  In61  1  0.83945400  0.20125200  0.33668300  1
  In  In62  1  0.29929800  0.07625200  0.39918300  1
  In  In63  1  0.56338800  0.64912100  0.36867400  1
  In  In64  1  0.14823300  0.77412100  0.30617400  1
  In  In65  1  0.96445400  0.45125200  0.21168300  1
  In  In66  1  0.42429800  0.32625200  0.27418300  1
  In  In67  1  0.68838800  0.89912100  0.24367400  1
