# generated using pymatgen
data_MgHg2
_symmetry_space_group_name_H-M   'P 1'
_cell_length_a   3.51707100
_cell_length_b   7.04379443
_cell_length_c   55.94811800
_cell_angle_alpha   88.10027884
_cell_angle_beta   90.00000000
_cell_angle_gamma   90.00000000
_symmetry_Int_Tables_number   1
_chemical_formula_structural   MgHg2
_chemical_formula_sum   'Mg12 Hg24'
_cell_volume   1385.27031183
_cell_formula_units_Z   12
loop_
 _symmetry_equiv_pos_site_id
 _symmetry_equiv_pos_as_xyz
  1  'x, y, z'
loop_
 _atom_site_type_symbol
 _atom_site_label
 _atom_site_symmetry_multiplicity
 _atom_site_fract_x
 _atom_site_fract_y
 _atom_site_fract_z
 _atom_site_occupancy
  Mg  Mg0  1  0.50000000  0.10641600  0.25202100  1
  Mg  Mg1  1  0.00000000  0.29358400  0.34797900  1
  Mg  Mg2  1  0.00000000  0.80641600  0.35202100  1
  Mg  Mg3  1  0.50000000  0.59358400  0.24797900  1
  Mg  Mg4  1  0.50000000  0.50641600  0.45202100  1
  Mg  Mg5  1  0.00000000  0.69358400  0.54797900  1
  Mg  Mg6  1  0.00000000  0.20641600  0.55202100  1
  Mg  Mg7  1  0.50000000  0.99358400  0.44797900  1
  Mg  Mg8  1  0.50000000  0.90641600  0.65202100  1
  Mg  Mg9  1  0.00000000  0.09358400  0.74797900  1
  Mg  Mg10  1  0.00000000  0.60641600  0.75202100  1
  Mg  Mg11  1  0.50000000  0.39358400  0.64797900  1
  Hg  Hg12  1  0.00000000  0.83196600  0.28021300  1
  Hg  Hg13  1  0.50000000  0.56803400  0.31978700  1
  Hg  Hg14  1  0.00000000  0.35267500  0.28214500  1
  Hg  Hg15  1  0.50000000  0.04732500  0.31785500  1
  Hg  Hg16  1  0.50000000  0.53196600  0.38021300  1
  Hg  Hg17  1  0.00000000  0.86803400  0.21978700  1
  Hg  Hg18  1  0.50000000  0.05267500  0.38214500  1
  Hg  Hg19  1  0.00000000  0.34732500  0.21785500  1
  Hg  Hg20  1  0.00000000  0.23196600  0.48021300  1
  Hg  Hg21  1  0.50000000  0.96803400  0.51978700  1
  Hg  Hg22  1  0.00000000  0.75267500  0.48214500  1
  Hg  Hg23  1  0.50000000  0.44732500  0.51785500  1
  Hg  Hg24  1  0.50000000  0.93196600  0.58021300  1
  Hg  Hg25  1  0.00000000  0.26803400  0.41978700  1
  Hg  Hg26  1  0.50000000  0.45267500  0.58214500  1
  Hg  Hg27  1  0.00000000  0.74732500  0.41785500  1
  Hg  Hg28  1  0.00000000  0.63196600  0.68021300  1
  Hg  Hg29  1  0.50000000  0.36803400  0.71978700  1
  Hg  Hg30  1  0.00000000  0.15267500  0.68214500  1
  Hg  Hg31  1  0.50000000  0.84732500  0.71785500  1
  Hg  Hg32  1  0.50000000  0.33196600  0.78021300  1
  Hg  Hg33  1  0.00000000  0.66803400  0.61978700  1
  Hg  Hg34  1  0.50000000  0.85267500  0.78214500  1
  Hg  Hg35  1  0.00000000  0.14732500  0.61785500  1
