# generated using pymatgen
data_MgHg2
_symmetry_space_group_name_H-M   'P 1'
_cell_length_a   6.17056467
_cell_length_b   7.87304381
_cell_length_c   43.36760800
_cell_angle_alpha   93.65600671
_cell_angle_beta   90.15531604
_cell_angle_gamma   98.75343575
_symmetry_Int_Tables_number   1
_chemical_formula_structural   MgHg2
_chemical_formula_sum   'Mg18 Hg36'
_cell_volume   2077.90511014
_cell_formula_units_Z   18
loop_
 _symmetry_equiv_pos_site_id
 _symmetry_equiv_pos_as_xyz
  1  'x, y, z'
loop_
 _atom_site_type_symbol
 _atom_site_label
 _atom_site_symmetry_multiplicity
 _atom_site_fract_x
 _atom_site_fract_y
 _atom_site_fract_z
 _atom_site_occupancy
  Mg  Mg0  1  0.93430900  0.89203800  0.74849500  1
  Mg  Mg1  1  0.86569100  0.30796200  0.78483900  1
  Mg  Mg2  1  0.13430900  0.09203800  0.68182800  1
  Mg  Mg3  1  0.06569100  0.50796200  0.71817200  1
  Mg  Mg4  1  0.33430900  0.29203800  0.61516100  1
  Mg  Mg5  1  0.26569100  0.70796200  0.65150500  1
  Mg  Mg6  1  0.53430900  0.49203800  0.54849500  1
  Mg  Mg7  1  0.46569100  0.90796200  0.58483900  1
  Mg  Mg8  1  0.73430900  0.69203800  0.48182800  1
  Mg  Mg9  1  0.66569100  0.10796200  0.51817200  1
  Mg  Mg10  1  0.93430900  0.89203800  0.41516100  1
  Mg  Mg11  1  0.86569100  0.30796200  0.45150500  1
  Mg  Mg12  1  0.13430900  0.09203800  0.34849500  1
  Mg  Mg13  1  0.06569100  0.50796200  0.38483900  1
  Mg  Mg14  1  0.33430900  0.29203800  0.28182800  1
  Mg  Mg15  1  0.26569100  0.70796200  0.31817200  1
  Mg  Mg16  1  0.53430900  0.49203800  0.21516100  1
  Mg  Mg17  1  0.46569100  0.90796200  0.25150500  1
  Hg  Hg18  1  0.54260100  0.97212900  0.78508800  1
  Hg  Hg19  1  0.25739900  0.22787100  0.74824500  1
  Hg  Hg20  1  0.63052100  0.55285800  0.74934500  1
  Hg  Hg21  1  0.16947900  0.64714200  0.78398900  1
  Hg  Hg22  1  0.74260100  0.17212900  0.71842200  1
  Hg  Hg23  1  0.45739900  0.42787100  0.68157800  1
  Hg  Hg24  1  0.83052100  0.75285800  0.68267800  1
  Hg  Hg25  1  0.36947900  0.84714200  0.71732200  1
  Hg  Hg26  1  0.94260100  0.37212900  0.65175500  1
  Hg  Hg27  1  0.65739900  0.62787100  0.61491200  1
  Hg  Hg28  1  0.03052100  0.95285800  0.61601100  1
  Hg  Hg29  1  0.56947900  0.04714200  0.65065500  1
  Hg  Hg30  1  0.14260100  0.57212900  0.58508800  1
  Hg  Hg31  1  0.85739900  0.82787100  0.54824500  1
  Hg  Hg32  1  0.23052100  0.15285800  0.54934500  1
  Hg  Hg33  1  0.76947900  0.24714200  0.58398900  1
  Hg  Hg34  1  0.34260100  0.77212900  0.51842200  1
  Hg  Hg35  1  0.05739900  0.02787100  0.48157800  1
  Hg  Hg36  1  0.43052100  0.35285800  0.48267800  1
  Hg  Hg37  1  0.96947900  0.44714200  0.51732200  1
  Hg  Hg38  1  0.54260100  0.97212900  0.45175500  1
  Hg  Hg39  1  0.25739900  0.22787100  0.41491200  1
  Hg  Hg40  1  0.63052100  0.55285800  0.41601100  1
  Hg  Hg41  1  0.16947900  0.64714200  0.45065500  1
  Hg  Hg42  1  0.74260100  0.17212900  0.38508800  1
  Hg  Hg43  1  0.45739900  0.42787100  0.34824500  1
  Hg  Hg44  1  0.83052100  0.75285800  0.34934500  1
  Hg  Hg45  1  0.36947900  0.84714200  0.38398900  1
  Hg  Hg46  1  0.94260100  0.37212900  0.31842200  1
  Hg  Hg47  1  0.65739900  0.62787100  0.28157800  1
  Hg  Hg48  1  0.03052100  0.95285800  0.28267800  1
  Hg  Hg49  1  0.56947900  0.04714200  0.31732200  1
  Hg  Hg50  1  0.14260100  0.57212900  0.25175500  1
  Hg  Hg51  1  0.85739900  0.82787100  0.21491200  1
  Hg  Hg52  1  0.23052100  0.15285800  0.21601100  1
  Hg  Hg53  1  0.76947900  0.24714200  0.25065500  1
