# generated using pymatgen
data_Mg3Ag
_symmetry_space_group_name_H-M   'P 1'
_cell_length_a   4.93092000
_cell_length_b   6.16428200
_cell_length_c   42.70739800
_cell_angle_alpha   90.00000000
_cell_angle_beta   90.00000000
_cell_angle_gamma   90.00000000
_symmetry_Int_Tables_number   1
_chemical_formula_structural   Mg3Ag
_chemical_formula_sum   'Mg30 Ag10'
_cell_volume   1298.11619227
_cell_formula_units_Z   10
loop_
 _symmetry_equiv_pos_site_id
 _symmetry_equiv_pos_as_xyz
  1  'x, y, z'
loop_
 _atom_site_type_symbol
 _atom_site_label
 _atom_site_symmetry_multiplicity
 _atom_site_fract_x
 _atom_site_fract_y
 _atom_site_fract_z
 _atom_site_occupancy
  Mg  Mg0  1  0.75000000  0.00000000  0.23022700  1
  Mg  Mg1  1  0.75000000  0.24363600  0.29113600  1
  Mg  Mg2  1  0.75000000  0.75636400  0.29113600  1
  Mg  Mg3  1  0.25000000  0.74363600  0.20886400  1
  Mg  Mg4  1  0.25000000  0.25636400  0.20886400  1
  Mg  Mg5  1  0.25000000  0.50000000  0.26977300  1
  Mg  Mg6  1  0.75000000  0.50000000  0.35522700  1
  Mg  Mg7  1  0.75000000  0.74363600  0.41613600  1
  Mg  Mg8  1  0.75000000  0.25636400  0.41613600  1
  Mg  Mg9  1  0.25000000  0.24363600  0.33386400  1
  Mg  Mg10  1  0.25000000  0.75636400  0.33386400  1
  Mg  Mg11  1  0.25000000  1.00000000  0.39477300  1
  Mg  Mg12  1  0.75000000  0.00000000  0.48022700  1
  Mg  Mg13  1  0.75000000  0.24363600  0.54113600  1
  Mg  Mg14  1  0.75000000  0.75636400  0.54113600  1
  Mg  Mg15  1  0.25000000  0.74363600  0.45886400  1
  Mg  Mg16  1  0.25000000  0.25636400  0.45886400  1
  Mg  Mg17  1  0.25000000  0.50000000  0.51977300  1
  Mg  Mg18  1  0.75000000  0.50000000  0.60522700  1
  Mg  Mg19  1  0.75000000  0.74363600  0.66613600  1
  Mg  Mg20  1  0.75000000  0.25636400  0.66613600  1
  Mg  Mg21  1  0.25000000  0.24363600  0.58386400  1
  Mg  Mg22  1  0.25000000  0.75636400  0.58386400  1
  Mg  Mg23  1  0.25000000  0.00000000  0.64477300  1
  Mg  Mg24  1  0.75000000  1.00000000  0.73022700  1
  Mg  Mg25  1  0.75000000  0.24363600  0.79113600  1
  Mg  Mg26  1  0.75000000  0.75636400  0.79113600  1
  Mg  Mg27  1  0.25000000  0.74363600  0.70886400  1
  Mg  Mg28  1  0.25000000  0.25636400  0.70886400  1
  Mg  Mg29  1  0.25000000  0.50000000  0.76977300  1
  Ag  Ag30  1  0.75000000  0.50000000  0.22916700  1
  Ag  Ag31  1  0.25000000  0.00000000  0.27083300  1
  Ag  Ag32  1  0.75000000  1.00000000  0.35416700  1
  Ag  Ag33  1  0.25000000  0.50000000  0.39583300  1
  Ag  Ag34  1  0.75000000  0.50000000  0.47916700  1
  Ag  Ag35  1  0.25000000  0.00000000  0.52083300  1
  Ag  Ag36  1  0.75000000  1.00000000  0.60416700  1
  Ag  Ag37  1  0.25000000  0.50000000  0.64583300  1
  Ag  Ag38  1  0.75000000  0.50000000  0.72916700  1
  Ag  Ag39  1  0.25000000  1.00000000  0.77083300  1
