# generated using pymatgen
data_Mg13Ir20
_symmetry_space_group_name_H-M   'P 1'
_cell_length_a   9.72091470
_cell_length_b   10.02721169
_cell_length_c   42.99921300
_cell_angle_alpha   94.02267208
_cell_angle_beta   94.30460560
_cell_angle_gamma   92.31047724
_symmetry_Int_Tables_number   1
_chemical_formula_structural   Mg13Ir20
_chemical_formula_sum   'Mg52 Ir80'
_cell_volume   4164.79203527
_cell_formula_units_Z   4
loop_
 _symmetry_equiv_pos_site_id
 _symmetry_equiv_pos_as_xyz
  1  'x, y, z'
loop_
 _atom_site_type_symbol
 _atom_site_label
 _atom_site_symmetry_multiplicity
 _atom_site_fract_x
 _atom_site_fract_y
 _atom_site_fract_z
 _atom_site_occupancy
  Mg  Mg0  1  0.61514100  0.16282400  0.22752000  1
  Mg  Mg1  1  0.66272400  0.21237800  0.30048000  1
  Mg  Mg2  1  0.02358600  0.58954400  0.27021300  1
  Mg  Mg3  1  0.25428000  0.78565800  0.25778700  1
  Mg  Mg4  1  0.53094000  0.71152800  0.29047300  1
  Mg  Mg5  1  0.74692600  0.66367300  0.23752700  1
  Mg  Mg6  1  0.33677500  0.06239000  0.22155900  1
  Mg  Mg7  1  0.04109100  0.01281200  0.20644100  1
  Mg  Mg8  1  0.11711600  0.30830100  0.24375300  1
  Mg  Mg9  1  0.16074900  0.06690100  0.28424700  1
  Mg  Mg10  1  0.51514100  0.46282400  0.32752000  1
  Mg  Mg11  1  0.56272400  0.51237800  0.40048000  1
  Mg  Mg12  1  0.92358600  0.88954400  0.37021300  1
  Mg  Mg13  1  0.15428000  0.08565800  0.35778700  1
  Mg  Mg14  1  0.43094000  0.01152800  0.39047300  1
  Mg  Mg15  1  0.64692600  0.96367300  0.33752700  1
  Mg  Mg16  1  0.23677500  0.36239000  0.32155900  1
  Mg  Mg17  1  0.94109100  0.31281200  0.30644100  1
  Mg  Mg18  1  0.01711600  0.60830100  0.34375300  1
  Mg  Mg19  1  0.06074900  0.36690100  0.38424700  1
  Mg  Mg20  1  0.41514100  0.76282400  0.42752000  1
  Mg  Mg21  1  0.46272400  0.81237800  0.50048000  1
  Mg  Mg22  1  0.82358600  0.18954400  0.47021300  1
  Mg  Mg23  1  0.05428000  0.38565800  0.45778700  1
  Mg  Mg24  1  0.33094000  0.31152800  0.49047300  1
  Mg  Mg25  1  0.54692600  0.26367300  0.43752700  1
  Mg  Mg26  1  0.13677500  0.66239000  0.42155900  1
  Mg  Mg27  1  0.84109100  0.61281200  0.40644100  1
  Mg  Mg28  1  0.91711600  0.90830100  0.44375300  1
  Mg  Mg29  1  0.96074900  0.66690100  0.48424700  1
  Mg  Mg30  1  0.31514100  0.06282400  0.52752000  1
  Mg  Mg31  1  0.36272400  0.11237800  0.60048000  1
  Mg  Mg32  1  0.72358600  0.48954400  0.57021300  1
  Mg  Mg33  1  0.95428000  0.68565800  0.55778700  1
  Mg  Mg34  1  0.23094000  0.61152800  0.59047300  1
  Mg  Mg35  1  0.44692600  0.56367300  0.53752700  1
  Mg  Mg36  1  0.03677500  0.96239000  0.52155900  1
  Mg  Mg37  1  0.74109100  0.91281200  0.50644100  1
  Mg  Mg38  1  0.81711600  0.20830100  0.54375300  1
  Mg  Mg39  1  0.86074900  0.96690100  0.58424700  1
  Mg  Mg40  1  0.21514100  0.36282400  0.62752000  1
  Mg  Mg41  1  0.26272400  0.41237800  0.70048000  1
  Mg  Mg42  1  0.62358600  0.78954400  0.67021300  1
  Mg  Mg43  1  0.85428000  0.98565800  0.65778700  1
  Mg  Mg44  1  0.13094000  0.91152800  0.69047300  1
  Mg  Mg45  1  0.34692600  0.86367300  0.63752700  1
  Mg  Mg46  1  0.93677500  0.26239000  0.62155900  1
  Mg  Mg47  1  0.64109100  0.21281200  0.60644100  1
  Mg  Mg48  1  0.71711600  0.50830100  0.64375300  1
  Mg  Mg49  1  0.76074900  0.26690100  0.68424700  1
  Mg  Mg50  1  0.83677500  0.56239000  0.72155900  1
  Mg  Mg51  1  0.54109100  0.51281200  0.70644100  1
  Ir  Ir52  1  0.39089600  0.24676200  0.27428000  1
  Ir  Ir53  1  0.88697000  0.12844000  0.25372000  1
  Ir  Ir54  1  0.76784100  0.52274100  0.29920400  1
  Ir  Ir55  1  0.51002400  0.85246100  0.22879600  1
  Ir  Ir56  1  0.46012200  0.00216800  0.27869800  1
  Ir  Ir57  1  0.81774400  0.37303300  0.24930200  1
  Ir  Ir58  1  0.18893300  0.53760100  0.21400000  1
  Ir  Ir59  1  0.70290400  0.94292800  0.26810100  1
  Ir  Ir60  1  0.57496200  0.43227400  0.25989900  1
  Ir  Ir61  1  0.92754700  0.47367200  0.20372900  1
  Ir  Ir62  1  0.45031800  0.60153000  0.22427100  1
  Ir  Ir63  1  0.31437600  0.50178400  0.27009200  1
  Ir  Ir64  1  0.96349000  0.87341700  0.25790800  1
  Ir  Ir65  1  0.01027800  0.73305400  0.21112000  1
  Ir  Ir66  1  0.36758800  0.34214800  0.21688000  1
  Ir  Ir67  1  0.29089600  0.54676200  0.37428000  1
  Ir  Ir68  1  0.78697000  0.42844000  0.35372000  1
  Ir  Ir69  1  0.66784100  0.82274100  0.39920400  1
  Ir  Ir70  1  0.41002400  0.15246100  0.32879600  1
  Ir  Ir71  1  0.36012200  0.30216800  0.37869800  1
  Ir  Ir72  1  0.71774400  0.67303300  0.34930200  1
  Ir  Ir73  1  0.08893300  0.83760100  0.31400000  1
  Ir  Ir74  1  0.60290400  0.24292800  0.36810100  1
  Ir  Ir75  1  0.47496200  0.73227400  0.35989900  1
  Ir  Ir76  1  0.82754700  0.77367200  0.30372900  1
  Ir  Ir77  1  0.35031800  0.90153000  0.32427100  1
  Ir  Ir78  1  0.21437600  0.80178400  0.37009200  1
  Ir  Ir79  1  0.86349000  0.17341700  0.35790800  1
  Ir  Ir80  1  0.91027800  0.03305400  0.31112000  1
  Ir  Ir81  1  0.26758800  0.64214800  0.31688000  1
  Ir  Ir82  1  0.19089600  0.84676200  0.47428000  1
  Ir  Ir83  1  0.68697000  0.72844000  0.45372000  1
  Ir  Ir84  1  0.56784100  0.12274100  0.49920400  1
  Ir  Ir85  1  0.31002400  0.45246100  0.42879600  1
  Ir  Ir86  1  0.26012200  0.60216800  0.47869800  1
  Ir  Ir87  1  0.61774400  0.97303300  0.44930200  1
  Ir  Ir88  1  0.98893300  0.13760100  0.41400000  1
  Ir  Ir89  1  0.50290400  0.54292800  0.46810100  1
  Ir  Ir90  1  0.37496200  0.03227400  0.45989900  1
  Ir  Ir91  1  0.72754700  0.07367200  0.40372900  1
  Ir  Ir92  1  0.25031800  0.20153000  0.42427100  1
  Ir  Ir93  1  0.11437600  0.10178400  0.47009200  1
  Ir  Ir94  1  0.76349000  0.47341700  0.45790800  1
  Ir  Ir95  1  0.81027800  0.33305400  0.41112000  1
  Ir  Ir96  1  0.16758800  0.94214800  0.41688000  1
  Ir  Ir97  1  0.09089600  0.14676200  0.57428000  1
  Ir  Ir98  1  0.58697000  0.02844000  0.55372000  1
  Ir  Ir99  1  0.46784100  0.42274100  0.59920400  1
  Ir  Ir100  1  0.21002400  0.75246100  0.52879600  1
  Ir  Ir101  1  0.16012200  0.90216800  0.57869800  1
  Ir  Ir102  1  0.51774400  0.27303300  0.54930200  1
  Ir  Ir103  1  0.88893300  0.43760100  0.51400000  1
  Ir  Ir104  1  0.40290400  0.84292800  0.56810100  1
  Ir  Ir105  1  0.27496200  0.33227400  0.55989900  1
  Ir  Ir106  1  0.62754700  0.37367200  0.50372900  1
  Ir  Ir107  1  0.15031800  0.50153000  0.52427100  1
  Ir  Ir108  1  0.01437600  0.40178400  0.57009200  1
  Ir  Ir109  1  0.66349000  0.77341700  0.55790800  1
  Ir  Ir110  1  0.71027800  0.63305400  0.51112000  1
  Ir  Ir111  1  0.06758800  0.24214800  0.51688000  1
  Ir  Ir112  1  0.99089600  0.44676200  0.67428000  1
  Ir  Ir113  1  0.48697000  0.32844000  0.65372000  1
  Ir  Ir114  1  0.36784100  0.72274100  0.69920400  1
  Ir  Ir115  1  0.11002400  0.05246100  0.62879600  1
  Ir  Ir116  1  0.06012200  0.20216800  0.67869800  1
  Ir  Ir117  1  0.41774400  0.57303300  0.64930200  1
  Ir  Ir118  1  0.78893300  0.73760100  0.61400000  1
  Ir  Ir119  1  0.30290400  0.14292800  0.66810100  1
  Ir  Ir120  1  0.17496200  0.63227400  0.65989900  1
  Ir  Ir121  1  0.52754700  0.67367200  0.60372900  1
  Ir  Ir122  1  0.05031800  0.80153000  0.62427100  1
  Ir  Ir123  1  0.91437600  0.70178400  0.67009200  1
  Ir  Ir124  1  0.56349000  0.07341700  0.65790800  1
  Ir  Ir125  1  0.61027800  0.93305400  0.61112000  1
  Ir  Ir126  1  0.96758800  0.54214800  0.61688000  1
  Ir  Ir127  1  0.68893300  0.03760100  0.71400000  1
  Ir  Ir128  1  0.42754700  0.97367200  0.70372900  1
  Ir  Ir129  1  0.95031800  0.10153000  0.72427100  1
  Ir  Ir130  1  0.51027800  0.23305400  0.71112000  1
  Ir  Ir131  1  0.86758800  0.84214800  0.71688000  1
