# generated using pymatgen
data_Mg10Au29
_symmetry_space_group_name_H-M   'P 1'
_cell_length_a   9.58286600
_cell_length_b   10.43041211
_cell_length_c   46.00314700
_cell_angle_alpha   94.13499482
_cell_angle_beta   90.00000000
_cell_angle_gamma   90.00000000
_symmetry_Int_Tables_number   1
_chemical_formula_structural   Mg10Au29
_chemical_formula_sum   'Mg40 Au116'
_cell_volume   4586.19431584
_cell_formula_units_Z   4
loop_
 _symmetry_equiv_pos_site_id
 _symmetry_equiv_pos_as_xyz
  1  'x, y, z'
loop_
 _atom_site_type_symbol
 _atom_site_label
 _atom_site_symmetry_multiplicity
 _atom_site_fract_x
 _atom_site_fract_y
 _atom_site_fract_z
 _atom_site_occupancy
  Mg  Mg0  1  0.49920200  0.16189700  0.71079500  1
  Mg  Mg1  1  0.50079800  0.57240700  0.80483000  1
  Mg  Mg2  1  0.99920200  0.57240700  0.80483000  1
  Mg  Mg3  1  0.00079800  0.16189700  0.71079500  1
  Mg  Mg4  1  0.25000000  0.79728900  0.75315500  1
  Mg  Mg5  1  0.75000000  0.93701500  0.76247000  1
  Mg  Mg6  1  0.25000000  0.26135400  0.78409300  1
  Mg  Mg7  1  0.75000000  0.47295000  0.73153200  1
  Mg  Mg8  1  0.49920200  0.28689700  0.58579500  1
  Mg  Mg9  1  0.50079800  0.69740700  0.67983000  1
  Mg  Mg10  1  0.99920200  0.69740700  0.67983000  1
  Mg  Mg11  1  0.00079800  0.28689700  0.58579500  1
  Mg  Mg12  1  0.25000000  0.92228900  0.62815500  1
  Mg  Mg13  1  0.75000000  0.06201500  0.63747000  1
  Mg  Mg14  1  0.25000000  0.38635400  0.65909300  1
  Mg  Mg15  1  0.75000000  0.59795000  0.60653200  1
  Mg  Mg16  1  0.49920200  0.41189700  0.46079500  1
  Mg  Mg17  1  0.50079800  0.82240700  0.55483000  1
  Mg  Mg18  1  0.99920200  0.82240700  0.55483000  1
  Mg  Mg19  1  0.00079800  0.41189700  0.46079500  1
  Mg  Mg20  1  0.25000000  0.04728900  0.50315500  1
  Mg  Mg21  1  0.75000000  0.18701500  0.51247000  1
  Mg  Mg22  1  0.25000000  0.51135400  0.53409300  1
  Mg  Mg23  1  0.75000000  0.72295000  0.48153200  1
  Mg  Mg24  1  0.49920200  0.53689700  0.33579500  1
  Mg  Mg25  1  0.50079800  0.94740700  0.42983000  1
  Mg  Mg26  1  0.99920200  0.94740700  0.42983000  1
  Mg  Mg27  1  0.00079800  0.53689700  0.33579500  1
  Mg  Mg28  1  0.25000000  0.17228900  0.37815500  1
  Mg  Mg29  1  0.75000000  0.31201500  0.38747000  1
  Mg  Mg30  1  0.25000000  0.63635400  0.40909300  1
  Mg  Mg31  1  0.75000000  0.84795000  0.35653200  1
  Mg  Mg32  1  0.49920200  0.66189700  0.21079500  1
  Mg  Mg33  1  0.50079800  0.07240700  0.30483000  1
  Mg  Mg34  1  0.99920200  0.07240700  0.30483000  1
  Mg  Mg35  1  0.00079800  0.66189700  0.21079500  1
  Mg  Mg36  1  0.25000000  0.29728900  0.25315500  1
  Mg  Mg37  1  0.75000000  0.43701500  0.26247000  1
  Mg  Mg38  1  0.25000000  0.76135400  0.28409300  1
  Mg  Mg39  1  0.75000000  0.97295000  0.23153200  1
  Au  Au40  1  0.00000000  0.89826200  0.72670300  1
  Au  Au41  1  0.50000000  0.83604200  0.78892200  1
  Au  Au42  1  0.00000000  0.83604200  0.78892200  1
  Au  Au43  1  0.50000000  0.89826200  0.72670300  1
  Au  Au44  1  0.00054900  0.63083100  0.74205800  1
  Au  Au45  1  0.99945100  0.10347300  0.77356700  1
  Au  Au46  1  0.50054900  0.10347300  0.77356700  1
  Au  Au47  1  0.49945100  0.63083100  0.74205800  1
  Au  Au48  1  0.75000000  0.20476400  0.74671400  1
  Au  Au49  1  0.25000000  0.59255000  0.70590000  1
  Au  Au50  1  0.25000000  0.52953900  0.76891100  1
  Au  Au51  1  0.75000000  0.14175400  0.80972500  1
  Au  Au52  1  0.75000000  0.73520600  0.71574300  1
  Au  Au53  1  0.25000000  0.06148600  0.73749500  1
  Au  Au54  1  0.25000000  0.99909800  0.79988200  1
  Au  Au55  1  0.75000000  0.67281800  0.77813000  1
  Au  Au56  1  0.50000000  0.42965200  0.69531200  1
  Au  Au57  1  0.50000000  0.36715200  0.75781200  1
  Au  Au58  1  0.00000000  0.42965200  0.69531200  1
  Au  Au59  1  0.00000000  0.36715200  0.75781200  1
  Au  Au60  1  0.25000000  0.32673200  0.72178400  1
  Au  Au61  1  0.75000000  0.40757200  0.79384100  1
  Au  Au62  1  0.25000000  0.85355600  0.69023900  1
  Au  Au63  1  0.75000000  0.00574800  0.70038600  1
  Au  Au64  1  0.00000000  0.02326200  0.60170300  1
  Au  Au65  1  0.50000000  0.96104200  0.66392200  1
  Au  Au66  1  0.00000000  0.96104200  0.66392200  1
  Au  Au67  1  0.50000000  0.02326200  0.60170300  1
  Au  Au68  1  0.00054900  0.75583100  0.61705800  1
  Au  Au69  1  0.99945100  0.22847300  0.64856700  1
  Au  Au70  1  0.50054900  0.22847300  0.64856700  1
  Au  Au71  1  0.49945100  0.75583100  0.61705800  1
  Au  Au72  1  0.75000000  0.32976400  0.62171400  1
  Au  Au73  1  0.25000000  0.71755000  0.58090000  1
  Au  Au74  1  0.25000000  0.65453900  0.64391100  1
  Au  Au75  1  0.75000000  0.26675400  0.68472500  1
  Au  Au76  1  0.75000000  0.86020600  0.59074300  1
  Au  Au77  1  0.25000000  0.18648600  0.61249500  1
  Au  Au78  1  0.25000000  0.12409800  0.67488200  1
  Au  Au79  1  0.75000000  0.79781800  0.65313000  1
  Au  Au80  1  0.50000000  0.55465200  0.57031200  1
  Au  Au81  1  0.50000000  0.49215200  0.63281200  1
  Au  Au82  1  0.00000000  0.55465200  0.57031200  1
  Au  Au83  1  0.00000000  0.49215200  0.63281200  1
  Au  Au84  1  0.25000000  0.45173200  0.59678400  1
  Au  Au85  1  0.75000000  0.53257200  0.66884100  1
  Au  Au86  1  0.25000000  0.97855600  0.56523900  1
  Au  Au87  1  0.75000000  0.13074800  0.57538600  1
  Au  Au88  1  0.00000000  0.14826200  0.47670300  1
  Au  Au89  1  0.50000000  0.08604200  0.53892200  1
  Au  Au90  1  0.00000000  0.08604200  0.53892200  1
  Au  Au91  1  0.50000000  0.14826200  0.47670300  1
  Au  Au92  1  0.00054900  0.88083100  0.49205800  1
  Au  Au93  1  0.99945100  0.35347300  0.52356700  1
  Au  Au94  1  0.50054900  0.35347300  0.52356700  1
  Au  Au95  1  0.49945100  0.88083100  0.49205800  1
  Au  Au96  1  0.75000000  0.45476400  0.49671400  1
  Au  Au97  1  0.25000000  0.84255000  0.45590000  1
  Au  Au98  1  0.25000000  0.77953900  0.51891100  1
  Au  Au99  1  0.75000000  0.39175400  0.55972500  1
  Au  Au100  1  0.75000000  0.98520600  0.46574300  1
  Au  Au101  1  0.25000000  0.31148600  0.48749500  1
  Au  Au102  1  0.25000000  0.24909800  0.54988200  1
  Au  Au103  1  0.75000000  0.92281800  0.52813000  1
  Au  Au104  1  0.50000000  0.67965200  0.44531200  1
  Au  Au105  1  0.50000000  0.61715200  0.50781200  1
  Au  Au106  1  0.00000000  0.67965200  0.44531200  1
  Au  Au107  1  0.00000000  0.61715200  0.50781200  1
  Au  Au108  1  0.25000000  0.57673200  0.47178400  1
  Au  Au109  1  0.75000000  0.65757200  0.54384100  1
  Au  Au110  1  0.25000000  0.10355600  0.44023900  1
  Au  Au111  1  0.75000000  0.25574800  0.45038600  1
  Au  Au112  1  0.00000000  0.27326200  0.35170300  1
  Au  Au113  1  0.50000000  0.21104200  0.41392200  1
  Au  Au114  1  0.00000000  0.21104200  0.41392200  1
  Au  Au115  1  0.50000000  0.27326200  0.35170300  1
  Au  Au116  1  0.00054900  0.00583100  0.36705800  1
  Au  Au117  1  0.99945100  0.47847300  0.39856700  1
  Au  Au118  1  0.50054900  0.47847300  0.39856700  1
  Au  Au119  1  0.49945100  0.00583100  0.36705800  1
  Au  Au120  1  0.75000000  0.57976400  0.37171400  1
  Au  Au121  1  0.25000000  0.96755000  0.33090000  1
  Au  Au122  1  0.25000000  0.90453900  0.39391100  1
  Au  Au123  1  0.75000000  0.51675400  0.43472500  1
  Au  Au124  1  0.75000000  0.11020600  0.34074300  1
  Au  Au125  1  0.25000000  0.43648600  0.36249500  1
  Au  Au126  1  0.25000000  0.37409800  0.42488200  1
  Au  Au127  1  0.75000000  0.04781800  0.40313000  1
  Au  Au128  1  0.50000000  0.80465200  0.32031200  1
  Au  Au129  1  0.50000000  0.74215200  0.38281200  1
  Au  Au130  1  0.00000000  0.80465200  0.32031200  1
  Au  Au131  1  0.00000000  0.74215200  0.38281200  1
  Au  Au132  1  0.25000000  0.70173200  0.34678400  1
  Au  Au133  1  0.75000000  0.78257200  0.41884100  1
  Au  Au134  1  0.25000000  0.22855600  0.31523900  1
  Au  Au135  1  0.75000000  0.38074800  0.32538600  1
  Au  Au136  1  0.00000000  0.39826200  0.22670300  1
  Au  Au137  1  0.50000000  0.33604200  0.28892200  1
  Au  Au138  1  0.00000000  0.33604200  0.28892200  1
  Au  Au139  1  0.50000000  0.39826200  0.22670300  1
  Au  Au140  1  0.00054900  0.13083100  0.24205800  1
  Au  Au141  1  0.99945100  0.60347300  0.27356700  1
  Au  Au142  1  0.50054900  0.60347300  0.27356700  1
  Au  Au143  1  0.49945100  0.13083100  0.24205800  1
  Au  Au144  1  0.75000000  0.70476400  0.24671400  1
  Au  Au145  1  0.25000000  0.09255000  0.20590000  1
  Au  Au146  1  0.25000000  0.02953900  0.26891100  1
  Au  Au147  1  0.75000000  0.64175400  0.30972500  1
  Au  Au148  1  0.75000000  0.23520600  0.21574300  1
  Au  Au149  1  0.25000000  0.56148600  0.23749500  1
  Au  Au150  1  0.25000000  0.49909800  0.29988200  1
  Au  Au151  1  0.75000000  0.17281800  0.27813000  1
  Au  Au152  1  0.50000000  0.86715200  0.25781200  1
  Au  Au153  1  0.00000000  0.86715200  0.25781200  1
  Au  Au154  1  0.25000000  0.82673200  0.22178400  1
  Au  Au155  1  0.75000000  0.90757200  0.29384100  1
