# generated using pymatgen
data_Nd5Mg58
_symmetry_space_group_name_H-M   'P 1'
_cell_length_a   10.28967400
_cell_length_b   10.28967400
_cell_length_c   47.43478400
_cell_angle_alpha   90.00000000
_cell_angle_beta   90.00000000
_cell_angle_gamma   90.00000000
_symmetry_Int_Tables_number   1
_chemical_formula_structural   Nd5Mg58
_chemical_formula_sum   'Nd10 Mg116'
_cell_volume   5022.27117381
_cell_formula_units_Z   2
loop_
 _symmetry_equiv_pos_site_id
 _symmetry_equiv_pos_as_xyz
  1  'x, y, z'
loop_
 _atom_site_type_symbol
 _atom_site_label
 _atom_site_symmetry_multiplicity
 _atom_site_fract_x
 _atom_site_fract_y
 _atom_site_fract_z
 _atom_site_occupancy
  Nd  Nd0  1  0.00000000  0.00000000  0.29086500  1
  Nd  Nd1  1  0.50000000  0.50000000  0.22836500  1
  Nd  Nd2  1  0.00000000  0.00000000  0.41586500  1
  Nd  Nd3  1  0.50000000  0.50000000  0.35336500  1
  Nd  Nd4  1  0.00000000  0.00000000  0.54086500  1
  Nd  Nd5  1  0.50000000  0.50000000  0.47836500  1
  Nd  Nd6  1  0.00000000  0.00000000  0.66586500  1
  Nd  Nd7  1  0.50000000  0.50000000  0.60336500  1
  Nd  Nd8  1  0.00000000  0.00000000  0.79086500  1
  Nd  Nd9  1  0.50000000  0.50000000  0.72836500  1
  Mg  Mg10  1  0.71276200  0.50000000  0.29086500  1
  Mg  Mg11  1  1.00000000  0.64805600  0.29086500  1
  Mg  Mg12  1  0.14805600  0.50000000  0.22836500  1
  Mg  Mg13  1  0.85194400  0.50000000  0.22836500  1
  Mg  Mg14  1  0.00000000  0.78723800  0.22836500  1
  Mg  Mg15  1  0.28723800  0.50000000  0.29086500  1
  Mg  Mg16  1  0.25000000  0.25000000  0.25961500  1
  Mg  Mg17  1  0.00000000  0.35194400  0.29086500  1
  Mg  Mg18  1  0.00000000  0.21276200  0.22836500  1
  Mg  Mg19  1  0.75000000  0.25000000  0.25961500  1
  Mg  Mg20  1  0.21276200  0.00000000  0.22836500  1
  Mg  Mg21  1  0.50000000  0.14805600  0.22836500  1
  Mg  Mg22  1  0.64805600  0.00000000  0.29086500  1
  Mg  Mg23  1  0.35194400  0.00000000  0.29086500  1
  Mg  Mg24  1  0.50000000  0.28723800  0.29086500  1
  Mg  Mg25  1  0.25000000  0.75000000  0.25961500  1
  Mg  Mg26  1  0.78723800  0.00000000  0.22836500  1
  Mg  Mg27  1  0.50000000  0.85194400  0.22836500  1
  Mg  Mg28  1  0.50000000  0.71276200  0.29086500  1
  Mg  Mg29  1  0.75000000  0.75000000  0.25961500  1
  Mg  Mg30  1  0.71276200  0.50000000  0.41586500  1
  Mg  Mg31  1  1.00000000  0.64805600  0.41586500  1
  Mg  Mg32  1  0.14805600  0.50000000  0.35336500  1
  Mg  Mg33  1  0.85194400  0.50000000  0.35336500  1
  Mg  Mg34  1  0.00000000  0.78723800  0.35336500  1
  Mg  Mg35  1  0.75000000  0.25000000  0.32211500  1
  Mg  Mg36  1  0.28723800  0.50000000  0.41586500  1
  Mg  Mg37  1  0.25000000  0.25000000  0.38461500  1
  Mg  Mg38  1  0.00000000  0.35194400  0.41586500  1
  Mg  Mg39  1  0.00000000  0.21276200  0.35336500  1
  Mg  Mg40  1  0.25000000  0.25000000  0.32211500  1
  Mg  Mg41  1  0.75000000  0.25000000  0.38461500  1
  Mg  Mg42  1  0.21276200  0.00000000  0.35336500  1
  Mg  Mg43  1  0.50000000  0.14805600  0.35336500  1
  Mg  Mg44  1  0.64805600  0.00000000  0.41586500  1
  Mg  Mg45  1  0.35194400  0.00000000  0.41586500  1
  Mg  Mg46  1  0.50000000  0.28723800  0.41586500  1
  Mg  Mg47  1  0.25000000  0.75000000  0.38461500  1
  Mg  Mg48  1  0.78723800  0.00000000  0.35336500  1
  Mg  Mg49  1  0.75000000  0.75000000  0.32211500  1
  Mg  Mg50  1  0.50000000  0.85194400  0.35336500  1
  Mg  Mg51  1  0.50000000  0.71276200  0.41586500  1
  Mg  Mg52  1  0.75000000  0.75000000  0.38461500  1
  Mg  Mg53  1  0.25000000  0.75000000  0.32211500  1
  Mg  Mg54  1  0.71276200  0.50000000  0.54086500  1
  Mg  Mg55  1  1.00000000  0.64805600  0.54086500  1
  Mg  Mg56  1  0.14805600  0.50000000  0.47836500  1
  Mg  Mg57  1  0.85194400  0.50000000  0.47836500  1
  Mg  Mg58  1  0.00000000  0.78723800  0.47836500  1
  Mg  Mg59  1  0.75000000  0.25000000  0.44711500  1
  Mg  Mg60  1  0.28723800  0.50000000  0.54086500  1
  Mg  Mg61  1  0.25000000  0.25000000  0.50961500  1
  Mg  Mg62  1  0.00000000  0.35194400  0.54086500  1
  Mg  Mg63  1  0.00000000  0.21276200  0.47836500  1
  Mg  Mg64  1  0.25000000  0.25000000  0.44711500  1
  Mg  Mg65  1  0.75000000  0.25000000  0.50961500  1
  Mg  Mg66  1  0.21276200  0.00000000  0.47836500  1
  Mg  Mg67  1  0.50000000  0.14805600  0.47836500  1
  Mg  Mg68  1  0.64805600  0.00000000  0.54086500  1
  Mg  Mg69  1  0.35194400  0.00000000  0.54086500  1
  Mg  Mg70  1  0.50000000  0.28723800  0.54086500  1
  Mg  Mg71  1  0.25000000  0.75000000  0.50961500  1
  Mg  Mg72  1  0.78723800  0.00000000  0.47836500  1
  Mg  Mg73  1  0.75000000  0.75000000  0.44711500  1
  Mg  Mg74  1  0.50000000  0.85194400  0.47836500  1
  Mg  Mg75  1  0.50000000  0.71276200  0.54086500  1
  Mg  Mg76  1  0.75000000  0.75000000  0.50961500  1
  Mg  Mg77  1  0.25000000  0.75000000  0.44711500  1
  Mg  Mg78  1  0.71276200  0.50000000  0.66586500  1
  Mg  Mg79  1  1.00000000  0.64805600  0.66586500  1
  Mg  Mg80  1  0.14805600  0.50000000  0.60336500  1
  Mg  Mg81  1  0.85194400  0.50000000  0.60336500  1
  Mg  Mg82  1  0.00000000  0.78723800  0.60336500  1
  Mg  Mg83  1  0.75000000  0.25000000  0.57211500  1
  Mg  Mg84  1  0.28723800  0.50000000  0.66586500  1
  Mg  Mg85  1  0.25000000  0.25000000  0.63461500  1
  Mg  Mg86  1  0.00000000  0.35194400  0.66586500  1
  Mg  Mg87  1  0.00000000  0.21276200  0.60336500  1
  Mg  Mg88  1  0.25000000  0.25000000  0.57211500  1
  Mg  Mg89  1  0.75000000  0.25000000  0.63461500  1
  Mg  Mg90  1  0.21276200  0.00000000  0.60336500  1
  Mg  Mg91  1  0.50000000  0.14805600  0.60336500  1
  Mg  Mg92  1  0.64805600  0.00000000  0.66586500  1
  Mg  Mg93  1  0.35194400  0.00000000  0.66586500  1
  Mg  Mg94  1  0.50000000  0.28723800  0.66586500  1
  Mg  Mg95  1  0.25000000  0.75000000  0.63461500  1
  Mg  Mg96  1  0.78723800  0.00000000  0.60336500  1
  Mg  Mg97  1  0.75000000  0.75000000  0.57211500  1
  Mg  Mg98  1  0.50000000  0.85194400  0.60336500  1
  Mg  Mg99  1  0.50000000  0.71276200  0.66586500  1
  Mg  Mg100  1  0.75000000  0.75000000  0.63461500  1
  Mg  Mg101  1  0.25000000  0.75000000  0.57211500  1
  Mg  Mg102  1  0.71276200  0.50000000  0.79086500  1
  Mg  Mg103  1  1.00000000  0.64805600  0.79086500  1
  Mg  Mg104  1  0.14805600  0.50000000  0.72836500  1
  Mg  Mg105  1  0.85194400  0.50000000  0.72836500  1
  Mg  Mg106  1  0.00000000  0.78723800  0.72836500  1
  Mg  Mg107  1  0.75000000  0.25000000  0.69711500  1
  Mg  Mg108  1  0.28723800  0.50000000  0.79086500  1
  Mg  Mg109  1  0.25000000  0.25000000  0.75961500  1
  Mg  Mg110  1  0.00000000  0.35194400  0.79086500  1
  Mg  Mg111  1  0.00000000  0.21276200  0.72836500  1
  Mg  Mg112  1  0.25000000  0.25000000  0.69711500  1
  Mg  Mg113  1  0.75000000  0.25000000  0.75961500  1
  Mg  Mg114  1  0.21276200  0.00000000  0.72836500  1
  Mg  Mg115  1  0.50000000  0.14805600  0.72836500  1
  Mg  Mg116  1  0.64805600  0.00000000  0.79086500  1
  Mg  Mg117  1  0.35194400  0.00000000  0.79086500  1
  Mg  Mg118  1  0.50000000  0.28723800  0.79086500  1
  Mg  Mg119  1  0.25000000  0.75000000  0.75961500  1
  Mg  Mg120  1  0.78723800  0.00000000  0.72836500  1
  Mg  Mg121  1  0.75000000  0.75000000  0.69711500  1
  Mg  Mg122  1  0.50000000  0.85194400  0.72836500  1
  Mg  Mg123  1  0.50000000  0.71276200  0.79086500  1
  Mg  Mg124  1  0.75000000  0.75000000  0.75961500  1
  Mg  Mg125  1  0.25000000  0.75000000  0.69711500  1
