# generated using pymatgen
data_Mg23Pd35
_symmetry_space_group_name_H-M   'P 1'
_cell_length_a   6.99934446
_cell_length_b   11.53452174
_cell_length_c   42.24661500
_cell_angle_alpha   91.81842266
_cell_angle_beta   85.69593602
_cell_angle_gamma   76.70681611
_symmetry_Int_Tables_number   1
_chemical_formula_structural   Mg23Pd35
_chemical_formula_sum   'Mg46 Pd70'
_cell_volume   3305.77428051
_cell_formula_units_Z   2
loop_
 _symmetry_equiv_pos_site_id
 _symmetry_equiv_pos_as_xyz
  1  'x, y, z'
loop_
 _atom_site_type_symbol
 _atom_site_label
 _atom_site_symmetry_multiplicity
 _atom_site_fract_x
 _atom_site_fract_y
 _atom_site_fract_z
 _atom_site_occupancy
  Mg  Mg0  1  0.97909300  0.49581900  0.20192300  1
  Mg  Mg1  1  0.47909300  0.99581900  0.20192300  1
  Mg  Mg2  1  0.02539100  0.11031500  0.22489400  1
  Mg  Mg3  1  0.54818000  0.80440000  0.25587600  1
  Mg  Mg4  1  0.32705200  0.63510700  0.20010100  1
  Mg  Mg5  1  0.63113400  0.35653000  0.20374500  1
  Mg  Mg6  1  0.59447800  0.41889600  0.27884600  1
  Mg  Mg7  1  0.09447800  0.91889600  0.27884600  1
  Mg  Mg8  1  0.64077500  0.03339100  0.30181700  1
  Mg  Mg9  1  0.16356500  0.72747700  0.33279900  1
  Mg  Mg10  1  0.94243700  0.55818400  0.27702400  1
  Mg  Mg11  1  0.24651900  0.27960700  0.28066800  1
  Mg  Mg12  1  0.20986200  0.34197200  0.35576900  1
  Mg  Mg13  1  0.70986200  0.84197200  0.35576900  1
  Mg  Mg14  1  0.25616000  0.95646800  0.37874000  1
  Mg  Mg15  1  0.77894900  0.65055400  0.40972200  1
  Mg  Mg16  1  0.55782100  0.48126100  0.35394700  1
  Mg  Mg17  1  0.86190300  0.20268400  0.35759100  1
  Mg  Mg18  1  0.82524700  0.26504900  0.43269200  1
  Mg  Mg19  1  0.32524700  0.76504900  0.43269200  1
  Mg  Mg20  1  0.87154500  0.87954500  0.45566300  1
  Mg  Mg21  1  0.39433400  0.57363000  0.48664500  1
  Mg  Mg22  1  0.17320600  0.40433800  0.43087000  1
  Mg  Mg23  1  0.47728800  0.12576100  0.43451400  1
  Mg  Mg24  1  0.44063200  0.18812600  0.50961500  1
  Mg  Mg25  1  0.94063200  0.68812600  0.50961500  1
  Mg  Mg26  1  0.48692900  0.80262200  0.53258600  1
  Mg  Mg27  1  0.00971900  0.49670700  0.56356800  1
  Mg  Mg28  1  0.78859100  0.32741500  0.50779400  1
  Mg  Mg29  1  0.09267300  0.04883800  0.51143700  1
  Mg  Mg30  1  0.05601600  0.11120300  0.58653800  1
  Mg  Mg31  1  0.55601600  0.61120300  0.58653800  1
  Mg  Mg32  1  0.10231400  0.72569900  0.60950900  1
  Mg  Mg33  1  0.62510300  0.41978400  0.64049100  1
  Mg  Mg34  1  0.40397500  0.25049100  0.58471700  1
  Mg  Mg35  1  0.70805700  0.97191500  0.58836000  1
  Mg  Mg36  1  0.67140100  0.03428000  0.66346200  1
  Mg  Mg37  1  0.17140100  0.53428000  0.66346200  1
  Mg  Mg38  1  0.71769900  0.64877600  0.68643200  1
  Mg  Mg39  1  0.24048800  0.34286100  0.71741400  1
  Mg  Mg40  1  0.01936000  0.17356800  0.66164000  1
  Mg  Mg41  1  0.32344200  0.89499200  0.66528300  1
  Mg  Mg42  1  0.28678600  0.95735700  0.74038500  1
  Mg  Mg43  1  0.78678600  0.45735700  0.74038500  1
  Mg  Mg44  1  0.63474500  0.09664500  0.73856300  1
  Mg  Mg45  1  0.93882700  0.81806900  0.74220600  1
  Pd  Pd46  1  0.93704400  0.34132500  0.24527400  1
  Pd  Pd47  1  0.63652800  0.57338900  0.23549500  1
  Pd  Pd48  1  0.22202200  0.86820200  0.21839600  1
  Pd  Pd49  1  0.35154900  0.04651200  0.26237300  1
  Pd  Pd50  1  0.31673100  0.22947300  0.21210800  1
  Pd  Pd51  1  0.25684000  0.68524200  0.26866200  1
  Pd  Pd52  1  0.95388700  0.71232800  0.22925200  1
  Pd  Pd53  1  0.61968400  0.20238600  0.25151700  1
  Pd  Pd54  1  0.78678600  0.95735700  0.24038500  1
  Pd  Pd55  1  0.28678600  0.45735700  0.24038500  1
  Pd  Pd56  1  0.55242800  0.26440200  0.32219700  1
  Pd  Pd57  1  0.25191200  0.49646600  0.31241800  1
  Pd  Pd58  1  0.83740700  0.79127900  0.29531900  1
  Pd  Pd59  1  0.96693400  0.96958900  0.33929600  1
  Pd  Pd60  1  0.93211600  0.15255000  0.28903100  1
  Pd  Pd61  1  0.87222500  0.60831800  0.34558500  1
  Pd  Pd62  1  0.56927200  0.63540500  0.30617500  1
  Pd  Pd63  1  0.23506800  0.12546300  0.32844000  1
  Pd  Pd64  1  0.40217000  0.88043400  0.31730800  1
  Pd  Pd65  1  0.90217000  0.38043400  0.31730800  1
  Pd  Pd66  1  0.16781300  0.18747900  0.39912000  1
  Pd  Pd67  1  0.86729700  0.41954300  0.38934100  1
  Pd  Pd68  1  0.45279100  0.71435600  0.37224200  1
  Pd  Pd69  1  0.58231800  0.89266600  0.41621900  1
  Pd  Pd70  1  0.54750000  0.07562700  0.36595400  1
  Pd  Pd71  1  0.48760900  0.53139500  0.42250800  1
  Pd  Pd72  1  0.18465700  0.55848200  0.38309800  1
  Pd  Pd73  1  0.85045300  0.04854000  0.40536300  1
  Pd  Pd74  1  0.01755500  0.80351100  0.39423100  1
  Pd  Pd75  1  0.51755500  0.30351100  0.39423100  1
  Pd  Pd76  1  0.78319700  0.11055600  0.47604300  1
  Pd  Pd77  1  0.48268100  0.34262000  0.46626400  1
  Pd  Pd78  1  0.06817600  0.63743300  0.44916600  1
  Pd  Pd79  1  0.19770300  0.81574300  0.49314200  1
  Pd  Pd80  1  0.16288500  0.99870300  0.44287700  1
  Pd  Pd81  1  0.10299400  0.45447200  0.49943100  1
  Pd  Pd82  1  0.80004100  0.48155900  0.46002100  1
  Pd  Pd83  1  0.46583800  0.97161700  0.48228600  1
  Pd  Pd84  1  0.63293900  0.72658800  0.47115400  1
  Pd  Pd85  1  0.13293900  0.22658800  0.47115400  1
  Pd  Pd86  1  0.39858200  0.03363200  0.55296600  1
  Pd  Pd87  1  0.09806600  0.26569700  0.54318800  1
  Pd  Pd88  1  0.68356100  0.56051000  0.52608900  1
  Pd  Pd89  1  0.81308700  0.73881900  0.57006500  1
  Pd  Pd90  1  0.77826900  0.92178000  0.51980000  1
  Pd  Pd91  1  0.71837900  0.37754900  0.57635400  1
  Pd  Pd92  1  0.41542600  0.40463600  0.53694400  1
  Pd  Pd93  1  0.08122200  0.89469400  0.55920900  1
  Pd  Pd94  1  0.24832400  0.64966500  0.54807700  1
  Pd  Pd95  1  0.74832400  0.14966500  0.54807700  1
  Pd  Pd96  1  0.01396700  0.95670900  0.62988900  1
  Pd  Pd97  1  0.71345100  0.18877400  0.62011100  1
  Pd  Pd98  1  0.29894500  0.48358700  0.60301200  1
  Pd  Pd99  1  0.42847200  0.66189600  0.64698800  1
  Pd  Pd100  1  0.39365400  0.84485700  0.59672300  1
  Pd  Pd101  1  0.33376300  0.30062600  0.65327700  1
  Pd  Pd102  1  0.03081100  0.32771300  0.61386800  1
  Pd  Pd103  1  0.69660700  0.81777100  0.63613200  1
  Pd  Pd104  1  0.86370900  0.57274200  0.62500000  1
  Pd  Pd105  1  0.36370900  0.07274200  0.62500000  1
  Pd  Pd106  1  0.62935100  0.87978600  0.70681200  1
  Pd  Pd107  1  0.32883500  0.11185100  0.69703400  1
  Pd  Pd108  1  0.91433000  0.40666400  0.67993500  1
  Pd  Pd109  1  0.04385700  0.58497300  0.72391100  1
  Pd  Pd110  1  0.00903900  0.76793400  0.67364600  1
  Pd  Pd111  1  0.94914800  0.22370300  0.73020000  1
  Pd  Pd112  1  0.64619500  0.25079000  0.69079100  1
  Pd  Pd113  1  0.31199100  0.74084800  0.71305600  1
  Pd  Pd114  1  0.47909300  0.49581900  0.70192300  1
  Pd  Pd115  1  0.97909300  0.99581900  0.70192300  1
