# generated using pymatgen
data_Mg3Hg
_symmetry_space_group_name_H-M   'P 1'
_cell_length_a   6.29546068
_cell_length_b   8.04033709
_cell_length_c   44.48279200
_cell_angle_alpha   87.34489136
_cell_angle_beta   94.05780633
_cell_angle_gamma   66.95260759
_symmetry_Int_Tables_number   1
_chemical_formula_structural   Mg3Hg
_chemical_formula_sum   'Mg42 Hg14'
_cell_volume   2059.96631706
_cell_formula_units_Z   14
loop_
 _symmetry_equiv_pos_site_id
 _symmetry_equiv_pos_as_xyz
  1  'x, y, z'
loop_
 _atom_site_type_symbol
 _atom_site_label
 _atom_site_symmetry_multiplicity
 _atom_site_fract_x
 _atom_site_fract_y
 _atom_site_fract_z
 _atom_site_occupancy
  Mg  Mg0  1  0.07074000  0.90745500  0.25726800  1
  Mg  Mg1  1  0.64921600  0.20252200  0.21511600  1
  Mg  Mg2  1  0.15504500  0.20252200  0.21511600  1
  Mg  Mg3  1  0.67828900  0.21414400  0.28488400  1
  Mg  Mg4  1  0.18411800  0.21414400  0.28488400  1
  Mg  Mg5  1  0.76259400  0.50921100  0.24273200  1
  Mg  Mg6  1  0.90407300  0.32412200  0.34060200  1
  Mg  Mg7  1  0.48254900  0.61918900  0.29844900  1
  Mg  Mg8  1  0.98837800  0.61918900  0.29844900  1
  Mg  Mg9  1  0.51162200  0.63081100  0.36821700  1
  Mg  Mg10  1  0.01745100  0.63081100  0.36821700  1
  Mg  Mg11  1  0.59592700  0.92587800  0.32606500  1
  Mg  Mg12  1  0.73740600  0.74078900  0.42393500  1
  Mg  Mg13  1  0.31588200  0.03585600  0.38178300  1
  Mg  Mg14  1  0.82171100  0.03585600  0.38178300  1
  Mg  Mg15  1  0.34495500  0.04747800  0.45155100  1
  Mg  Mg16  1  0.85078400  0.04747800  0.45155100  1
  Mg  Mg17  1  0.42926000  0.34254500  0.40939800  1
  Mg  Mg18  1  0.57074000  0.15745500  0.50726800  1
  Mg  Mg19  1  0.14921600  0.45252200  0.46511600  1
  Mg  Mg20  1  0.65504500  0.45252200  0.46511600  1
  Mg  Mg21  1  0.17828900  0.46414400  0.53488400  1
  Mg  Mg22  1  0.68411800  0.46414400  0.53488400  1
  Mg  Mg23  1  0.26259400  0.75921100  0.49273200  1
  Mg  Mg24  1  0.40407300  0.57412200  0.59060200  1
  Mg  Mg25  1  0.98254900  0.86918900  0.54844900  1
  Mg  Mg26  1  0.48837800  0.86918900  0.54844900  1
  Mg  Mg27  1  0.01162200  0.88081100  0.61821700  1
  Mg  Mg28  1  0.51745100  0.88081100  0.61821700  1
  Mg  Mg29  1  0.09592700  0.17587800  0.57606500  1
  Mg  Mg30  1  0.23740600  0.99078900  0.67393500  1
  Mg  Mg31  1  0.81588200  0.28585600  0.63178300  1
  Mg  Mg32  1  0.32171100  0.28585600  0.63178300  1
  Mg  Mg33  1  0.84495500  0.29747800  0.70155100  1
  Mg  Mg34  1  0.35078400  0.29747800  0.70155100  1
  Mg  Mg35  1  0.92926000  0.59254500  0.65939800  1
  Mg  Mg36  1  0.07074000  0.40745500  0.75726800  1
  Mg  Mg37  1  0.64921600  0.70252200  0.71511600  1
  Mg  Mg38  1  0.15504500  0.70252200  0.71511600  1
  Mg  Mg39  1  0.67828900  0.71414400  0.78488400  1
  Mg  Mg40  1  0.18411800  0.71414400  0.78488400  1
  Mg  Mg41  1  0.76259400  0.00921100  0.74273200  1
  Hg  Hg42  1  0.56944400  0.90972200  0.25694400  1
  Hg  Hg43  1  0.26388900  0.50694400  0.24305600  1
  Hg  Hg44  1  0.40277800  0.32638900  0.34027800  1
  Hg  Hg45  1  0.09722200  0.92361100  0.32638900  1
  Hg  Hg46  1  0.23611100  0.74305600  0.42361100  1
  Hg  Hg47  1  0.93055600  0.34027800  0.40972200  1
  Hg  Hg48  1  0.06944400  0.15972200  0.50694400  1
  Hg  Hg49  1  0.76388900  0.75694400  0.49305600  1
  Hg  Hg50  1  0.90277800  0.57638900  0.59027800  1
  Hg  Hg51  1  0.59722200  0.17361100  0.57638900  1
  Hg  Hg52  1  0.73611100  0.99305600  0.67361100  1
  Hg  Hg53  1  0.43055600  0.59027800  0.65972200  1
  Hg  Hg54  1  0.56944400  0.40972200  0.75694400  1
  Hg  Hg55  1  0.26388900  0.00694400  0.74305600  1
