# generated using pymatgen
data_Tm23Mg7
_symmetry_space_group_name_H-M   'P 1'
_cell_length_a   3.51094100
_cell_length_b   9.27261600
_cell_length_c   45.64223700
_cell_angle_alpha   90.00000000
_cell_angle_beta   90.00000000
_cell_angle_gamma   90.00000000
_symmetry_Int_Tables_number   1
_chemical_formula_structural   Tm23Mg7
_chemical_formula_sum   'Tm23 Mg7'
_cell_volume   1485.91076194
_cell_formula_units_Z   1
loop_
 _symmetry_equiv_pos_site_id
 _symmetry_equiv_pos_as_xyz
  1  'x, y, z'
loop_
 _atom_site_type_symbol
 _atom_site_label
 _atom_site_symmetry_multiplicity
 _atom_site_fract_x
 _atom_site_fract_y
 _atom_site_fract_z
 _atom_site_occupancy
  Tm  Tm0  1  0.50000000  0.75784200  0.21153800  1
  Tm  Tm1  1  0.00000000  0.50000000  0.25000000  1
  Tm  Tm2  1  0.50000000  0.24215800  0.21153800  1
  Tm  Tm3  1  0.50000000  0.75784200  0.28846200  1
  Tm  Tm4  1  0.00000000  0.50000000  0.32692300  1
  Tm  Tm5  1  0.50000000  0.24215800  0.28846200  1
  Tm  Tm6  1  0.50000000  0.75784200  0.36538500  1
  Tm  Tm7  1  0.00000000  0.50000000  0.40384600  1
  Tm  Tm8  1  0.50000000  0.24215800  0.36538500  1
  Tm  Tm9  1  0.50000000  0.75784200  0.44230800  1
  Tm  Tm10  1  0.00000000  0.50000000  0.48076900  1
  Tm  Tm11  1  0.50000000  0.24215800  0.44230800  1
  Tm  Tm12  1  0.50000000  0.75784200  0.51923100  1
  Tm  Tm13  1  0.00000000  0.50000000  0.55769200  1
  Tm  Tm14  1  0.50000000  0.24215800  0.51923100  1
  Tm  Tm15  1  0.50000000  0.75784200  0.59615400  1
  Tm  Tm16  1  0.00000000  0.50000000  0.63461500  1
  Tm  Tm17  1  0.50000000  0.24215800  0.59615400  1
  Tm  Tm18  1  0.50000000  0.75784200  0.67307700  1
  Tm  Tm19  1  0.00000000  0.50000000  0.71153800  1
  Tm  Tm20  1  0.50000000  0.24215800  0.67307700  1
  Tm  Tm21  1  0.50000000  0.75784200  0.75000000  1
  Tm  Tm22  1  0.50000000  0.24215800  0.75000000  1
  Mg  Mg23  1  0.00000000  0.00000000  0.25000000  1
  Mg  Mg24  1  0.00000000  0.00000000  0.32692300  1
  Mg  Mg25  1  0.00000000  0.00000000  0.40384600  1
  Mg  Mg26  1  0.00000000  0.00000000  0.48076900  1
  Mg  Mg27  1  0.00000000  0.00000000  0.55769200  1
  Mg  Mg28  1  0.00000000  0.00000000  0.63461500  1
  Mg  Mg29  1  0.00000000  0.00000000  0.71153800  1
