# generated using pymatgen
data_MgPb
_symmetry_space_group_name_H-M   'P 1'
_cell_length_a   5.22762700
_cell_length_b   6.83301744
_cell_length_c   44.89333700
_cell_angle_alpha   88.96054670
_cell_angle_beta   90.00000000
_cell_angle_gamma   90.00000000
_symmetry_Int_Tables_number   1
_chemical_formula_structural   MgPb
_chemical_formula_sum   'Mg18 Pb18'
_cell_volume   1603.34704872
_cell_formula_units_Z   18
loop_
 _symmetry_equiv_pos_site_id
 _symmetry_equiv_pos_as_xyz
  1  'x, y, z'
loop_
 _atom_site_type_symbol
 _atom_site_label
 _atom_site_symmetry_multiplicity
 _atom_site_fract_x
 _atom_site_fract_y
 _atom_site_fract_z
 _atom_site_occupancy
  Mg  Mg0  1  0.75000000  0.13460100  0.21223600  1
  Mg  Mg1  1  0.25000000  0.59873200  0.25443000  1
  Mg  Mg2  1  0.75000000  0.86793400  0.27890300  1
  Mg  Mg3  1  0.25000000  0.33206600  0.32109700  1
  Mg  Mg4  1  0.75000000  0.60126800  0.34557000  1
  Mg  Mg5  1  0.25000000  0.06539900  0.38776400  1
  Mg  Mg6  1  0.75000000  0.33460100  0.41223600  1
  Mg  Mg7  1  0.25000000  0.79873200  0.45443000  1
  Mg  Mg8  1  0.75000000  0.06793400  0.47890300  1
  Mg  Mg9  1  0.25000000  0.53206600  0.52109700  1
  Mg  Mg10  1  0.75000000  0.80126800  0.54557000  1
  Mg  Mg11  1  0.25000000  0.26539900  0.58776400  1
  Mg  Mg12  1  0.75000000  0.53460100  0.61223600  1
  Mg  Mg13  1  0.25000000  0.99873200  0.65443000  1
  Mg  Mg14  1  0.75000000  0.26793400  0.67890300  1
  Mg  Mg15  1  0.25000000  0.73206600  0.72109700  1
  Mg  Mg16  1  0.75000000  0.00126800  0.74557000  1
  Mg  Mg17  1  0.25000000  0.46539900  0.78776400  1
  Pb  Pb18  1  0.75000000  0.65107900  0.21373400  1
  Pb  Pb19  1  0.25000000  0.08225500  0.25293200  1
  Pb  Pb20  1  0.75000000  0.38441200  0.28040100  1
  Pb  Pb21  1  0.25000000  0.81558800  0.31959900  1
  Pb  Pb22  1  0.75000000  0.11774500  0.34706800  1
  Pb  Pb23  1  0.25000000  0.54892100  0.38626600  1
  Pb  Pb24  1  0.75000000  0.85107900  0.41373400  1
  Pb  Pb25  1  0.25000000  0.28225500  0.45293200  1
  Pb  Pb26  1  0.75000000  0.58441200  0.48040100  1
  Pb  Pb27  1  0.25000000  0.01558800  0.51959900  1
  Pb  Pb28  1  0.75000000  0.31774500  0.54706800  1
  Pb  Pb29  1  0.25000000  0.74892100  0.58626600  1
  Pb  Pb30  1  0.75000000  0.05107900  0.61373400  1
  Pb  Pb31  1  0.25000000  0.48225500  0.65293200  1
  Pb  Pb32  1  0.75000000  0.78441200  0.68040100  1
  Pb  Pb33  1  0.25000000  0.21558800  0.71959900  1
  Pb  Pb34  1  0.75000000  0.51774500  0.74706800  1
  Pb  Pb35  1  0.25000000  0.94892100  0.78626600  1
