# generated using pymatgen
data_Pm17Mg8
_symmetry_space_group_name_H-M   'P 1'
_cell_length_a   6.79888396
_cell_length_b   8.90561694
_cell_length_c   43.55696400
_cell_angle_alpha   90.95301810
_cell_angle_beta   92.28710105
_cell_angle_gamma   96.91119972
_symmetry_Int_Tables_number   1
_chemical_formula_structural   Pm17Mg8
_chemical_formula_sum   'Pm34 Mg16'
_cell_volume   2615.43875584
_cell_formula_units_Z   2
loop_
 _symmetry_equiv_pos_site_id
 _symmetry_equiv_pos_as_xyz
  1  'x, y, z'
loop_
 _atom_site_type_symbol
 _atom_site_label
 _atom_site_symmetry_multiplicity
 _atom_site_fract_x
 _atom_site_fract_y
 _atom_site_fract_z
 _atom_site_occupancy
  Pm  Pm0  1  0.01244200  0.41412000  0.23774900  1
  Pm  Pm1  1  0.20726900  0.72920700  0.18904200  1
  Pm  Pm2  1  0.60490700  0.03826000  0.21463200  1
  Pm  Pm3  1  0.69579400  0.65174500  0.19191100  1
  Pm  Pm4  1  0.72672700  0.48554900  0.30917700  1
  Pm  Pm5  1  0.92155500  0.80063500  0.26047000  1
  Pm  Pm6  1  0.31919300  0.10968900  0.28606100  1
  Pm  Pm7  1  0.41007900  0.72317400  0.26333900  1
  Pm  Pm8  1  0.44101300  0.55697800  0.38060600  1
  Pm  Pm9  1  0.63584100  0.87206400  0.33189900  1
  Pm  Pm10  1  0.03347800  0.18111800  0.35748900  1
  Pm  Pm11  1  0.12436500  0.79460300  0.33476800  1
  Pm  Pm12  1  0.15529900  0.62840600  0.45203400  1
  Pm  Pm13  1  0.35012600  0.94349300  0.40332700  1
  Pm  Pm14  1  0.74776400  0.25254600  0.42891800  1
  Pm  Pm15  1  0.83865100  0.86603100  0.40619600  1
  Pm  Pm16  1  0.86958500  0.69983500  0.52346300  1
  Pm  Pm17  1  0.06441200  0.01492100  0.47475600  1
  Pm  Pm18  1  0.46205000  0.32397500  0.50034700  1
  Pm  Pm19  1  0.55293600  0.93746000  0.47762500  1
  Pm  Pm20  1  0.58387000  0.77126300  0.59489100  1
  Pm  Pm21  1  0.77869800  0.08635000  0.54618500  1
  Pm  Pm22  1  0.17633500  0.39540300  0.57177500  1
  Pm  Pm23  1  0.26722200  0.00888800  0.54905400  1
  Pm  Pm24  1  0.29815600  0.84269200  0.66632000  1
  Pm  Pm25  1  0.49298400  0.15777800  0.61761300  1
  Pm  Pm26  1  0.89062100  0.46683200  0.64320400  1
  Pm  Pm27  1  0.98150800  0.08031700  0.62048200  1
  Pm  Pm28  1  0.01244200  0.91412000  0.73774900  1
  Pm  Pm29  1  0.20726900  0.22920700  0.68904200  1
  Pm  Pm30  1  0.60490700  0.53826000  0.71463200  1
  Pm  Pm31  1  0.69579400  0.15174500  0.69191100  1
  Pm  Pm32  1  0.92155500  0.30063500  0.76047000  1
  Pm  Pm33  1  0.41007900  0.22317400  0.76333900  1
  Mg  Mg34  1  0.11033200  0.07488200  0.21327600  1
  Mg  Mg35  1  0.50701600  0.37749900  0.23910500  1
  Mg  Mg36  1  0.82461800  0.14631000  0.28470500  1
  Mg  Mg37  1  0.22130200  0.44892800  0.31053400  1
  Mg  Mg38  1  0.53890400  0.21773900  0.35613300  1
  Mg  Mg39  1  0.93558800  0.52035600  0.38196200  1
  Mg  Mg40  1  0.25318900  0.28916700  0.42756200  1
  Mg  Mg41  1  0.64987400  0.59178500  0.45339100  1
  Mg  Mg42  1  0.96747500  0.36059600  0.49899000  1
  Mg  Mg43  1  0.36415900  0.66321400  0.52481900  1
  Mg  Mg44  1  0.68176100  0.43202500  0.57041900  1
  Mg  Mg45  1  0.07844500  0.73464200  0.59624800  1
  Mg  Mg46  1  0.39604700  0.50345300  0.64184700  1
  Mg  Mg47  1  0.79273100  0.80607100  0.66767600  1
  Mg  Mg48  1  0.11033200  0.57488200  0.71327600  1
  Mg  Mg49  1  0.50701600  0.87749900  0.73910500  1
