# generated using pymatgen
data_Mg17Zn8
_symmetry_space_group_name_H-M   'P 1'
_cell_length_a   4.91773400
_cell_length_b   7.92196460
_cell_length_c   42.58017600
_cell_angle_alpha   90.77495215
_cell_angle_beta   90.00000000
_cell_angle_gamma   90.00000000
_symmetry_Int_Tables_number   1
_chemical_formula_structural   Mg17Zn8
_chemical_formula_sum   'Mg34 Zn16'
_cell_volume   1658.69164908
_cell_formula_units_Z   2
loop_
 _symmetry_equiv_pos_site_id
 _symmetry_equiv_pos_as_xyz
  1  'x, y, z'
loop_
 _atom_site_type_symbol
 _atom_site_label
 _atom_site_symmetry_multiplicity
 _atom_site_fract_x
 _atom_site_fract_y
 _atom_site_fract_z
 _atom_site_occupancy
  Mg  Mg0  1  0.75000000  0.69526500  0.75497800  1
  Mg  Mg1  1  0.25000000  0.06930300  0.76883100  1
  Mg  Mg2  1  0.75000000  0.76669400  0.68355000  1
  Mg  Mg3  1  0.75000000  0.37359700  0.70602700  1
  Mg  Mg4  1  0.25000000  0.46239900  0.74635300  1
  Mg  Mg5  1  0.25000000  0.14073100  0.69740300  1
  Mg  Mg6  1  0.75000000  0.83812200  0.61212100  1
  Mg  Mg7  1  0.75000000  0.44502600  0.63459900  1
  Mg  Mg8  1  0.25000000  0.53382800  0.67492500  1
  Mg  Mg9  1  0.25000000  0.21216000  0.62597400  1
  Mg  Mg10  1  0.75000000  0.90955100  0.54069200  1
  Mg  Mg11  1  0.75000000  0.51645500  0.56317000  1
  Mg  Mg12  1  0.25000000  0.60525600  0.60349600  1
  Mg  Mg13  1  0.25000000  0.28358800  0.55454600  1
  Mg  Mg14  1  0.75000000  0.98097900  0.46926400  1
  Mg  Mg15  1  0.75000000  0.58788300  0.49174200  1
  Mg  Mg16  1  0.25000000  0.67668500  0.53206800  1
  Mg  Mg17  1  0.25000000  0.35501700  0.48311700  1
  Mg  Mg18  1  0.75000000  0.05240800  0.39783500  1
  Mg  Mg19  1  0.75000000  0.65931200  0.42031300  1
  Mg  Mg20  1  0.25000000  0.74811300  0.46063900  1
  Mg  Mg21  1  0.25000000  0.42644600  0.41168900  1
  Mg  Mg22  1  0.75000000  0.12383700  0.32640700  1
  Mg  Mg23  1  0.75000000  0.73074000  0.34888500  1
  Mg  Mg24  1  0.25000000  0.81954200  0.38921100  1
  Mg  Mg25  1  0.25000000  0.49787400  0.34026000  1
  Mg  Mg26  1  0.75000000  0.19526500  0.25497800  1
  Mg  Mg27  1  0.75000000  0.80216900  0.27745600  1
  Mg  Mg28  1  0.25000000  0.89097100  0.31778200  1
  Mg  Mg29  1  0.25000000  0.56930300  0.26883100  1
  Mg  Mg30  1  0.75000000  0.26669400  0.18355000  1
  Mg  Mg31  1  0.75000000  0.87359700  0.20602700  1
  Mg  Mg32  1  0.25000000  0.96239900  0.24635300  1
  Mg  Mg33  1  0.25000000  0.64073100  0.19740300  1
  Zn  Zn34  1  0.75000000  0.02904100  0.73030300  1
  Zn  Zn35  1  0.25000000  0.80695600  0.72207800  1
  Zn  Zn36  1  0.75000000  0.10047000  0.65887500  1
  Zn  Zn37  1  0.25000000  0.87838400  0.65064900  1
  Zn  Zn38  1  0.75000000  0.17189800  0.58744600  1
  Zn  Zn39  1  0.25000000  0.94981300  0.57922100  1
  Zn  Zn40  1  0.75000000  0.24332700  0.51601700  1
  Zn  Zn41  1  0.25000000  0.02124100  0.50779200  1
  Zn  Zn42  1  0.75000000  0.31475500  0.44458900  1
  Zn  Zn43  1  0.25000000  0.09267000  0.43636300  1
  Zn  Zn44  1  0.75000000  0.38618400  0.37316000  1
  Zn  Zn45  1  0.25000000  0.16409800  0.36493500  1
  Zn  Zn46  1  0.75000000  0.45761200  0.30173200  1
  Zn  Zn47  1  0.25000000  0.23552700  0.29350600  1
  Zn  Zn48  1  0.75000000  0.52904100  0.23030300  1
  Zn  Zn49  1  0.25000000  0.30695600  0.22207800  1
