# generated using pymatgen
data_Lu3Mg
_symmetry_space_group_name_H-M   'P 1'
_cell_length_a   6.87894338
_cell_length_b   8.79149489
_cell_length_c   44.47489300
_cell_angle_alpha   91.38583809
_cell_angle_beta   94.43540539
_cell_angle_gamma   66.96911863
_symmetry_Int_Tables_number   1
_chemical_formula_structural   Lu3Mg
_chemical_formula_sum   'Lu42 Mg14'
_cell_volume   2467.82250929
_cell_formula_units_Z   14
loop_
 _symmetry_equiv_pos_site_id
 _symmetry_equiv_pos_as_xyz
  1  'x, y, z'
loop_
 _atom_site_type_symbol
 _atom_site_label
 _atom_site_symmetry_multiplicity
 _atom_site_fract_x
 _atom_site_fract_y
 _atom_site_fract_z
 _atom_site_occupancy
  Lu  Lu0  1  0.15216000  0.70344000  0.18957800  1
  Lu  Lu1  1  0.55876400  0.43237100  0.23475600  1
  Lu  Lu2  1  0.06180400  0.43237100  0.23475600  1
  Lu  Lu3  1  0.75637800  0.02217500  0.21978900  1
  Lu  Lu4  1  0.25941800  0.02217500  0.21978900  1
  Lu  Lu5  1  0.66602200  0.75110600  0.26496700  1
  Lu  Lu6  1  0.97034200  0.15798500  0.28048700  1
  Lu  Lu7  1  0.37694500  0.88691600  0.32566500  1
  Lu  Lu8  1  0.87998600  0.88691600  0.32566500  1
  Lu  Lu9  1  0.57456000  0.47672000  0.31069800  1
  Lu  Lu10  1  0.07760000  0.47672000  0.31069800  1
  Lu  Lu11  1  0.48420400  0.20565100  0.35587600  1
  Lu  Lu12  1  0.78852400  0.61253100  0.37139600  1
  Lu  Lu13  1  0.19512700  0.34146200  0.41657500  1
  Lu  Lu14  1  0.69816700  0.34146200  0.41657500  1
  Lu  Lu15  1  0.39274200  0.93126500  0.40160700  1
  Lu  Lu16  1  0.89578200  0.93126500  0.40160700  1
  Lu  Lu17  1  0.30238500  0.66019600  0.44678500  1
  Lu  Lu18  1  0.60670500  0.06707600  0.46230500  1
  Lu  Lu19  1  0.01330900  0.79600700  0.50748400  1
  Lu  Lu20  1  0.51634900  0.79600700  0.50748400  1
  Lu  Lu21  1  0.21092400  0.38581100  0.49251600  1
  Lu  Lu22  1  0.71396400  0.38581100  0.49251600  1
  Lu  Lu23  1  0.12056700  0.11474200  0.53769500  1
  Lu  Lu24  1  0.42488700  0.52162200  0.55321500  1
  Lu  Lu25  1  0.83149100  0.25055300  0.59839300  1
  Lu  Lu26  1  0.33453100  0.25055300  0.59839300  1
  Lu  Lu27  1  0.02910500  0.84035600  0.58342500  1
  Lu  Lu28  1  0.53214600  0.84035600  0.58342500  1
  Lu  Lu29  1  0.93874900  0.56928700  0.62860400  1
  Lu  Lu30  1  0.24306900  0.97616700  0.64412400  1
  Lu  Lu31  1  0.64967300  0.70509800  0.68930200  1
  Lu  Lu32  1  0.15271300  0.70509800  0.68930200  1
  Lu  Lu33  1  0.84728700  0.29490200  0.67433500  1
  Lu  Lu34  1  0.35032700  0.29490200  0.67433500  1
  Lu  Lu35  1  0.75693100  0.02383300  0.71951300  1
  Lu  Lu36  1  0.06125100  0.43071300  0.73503300  1
  Lu  Lu37  1  0.46785400  0.15964400  0.78021100  1
  Lu  Lu38  1  0.97089500  0.15964400  0.78021100  1
  Lu  Lu39  1  0.66546900  0.74944700  0.76524400  1
  Lu  Lu40  1  0.16850900  0.74944700  0.76524400  1
  Lu  Lu41  1  0.57511300  0.47837800  0.81042200  1
  Mg  Mg42  1  0.65151500  0.70454500  0.18939400  1
  Mg  Mg43  1  0.16666700  0.75000000  0.26515200  1
  Mg  Mg44  1  0.46969700  0.15909100  0.28030300  1
  Mg  Mg45  1  0.98484800  0.20454500  0.35606100  1
  Mg  Mg46  1  0.28787900  0.61363600  0.37121200  1
  Mg  Mg47  1  0.80303000  0.65909100  0.44697000  1
  Mg  Mg48  1  0.10606100  0.06818200  0.46212100  1
  Mg  Mg49  1  0.62121200  0.11363600  0.53787900  1
  Mg  Mg50  1  0.92424200  0.52272700  0.55303000  1
  Mg  Mg51  1  0.43939400  0.56818200  0.62878800  1
  Mg  Mg52  1  0.74242400  0.97727300  0.64393900  1
  Mg  Mg53  1  0.25757600  0.02272700  0.71969700  1
  Mg  Mg54  1  0.56060600  0.43181800  0.73484800  1
  Mg  Mg55  1  0.07575800  0.47727300  0.81060600  1
