# generated using pymatgen
data_Mg3Zn
_symmetry_space_group_name_H-M   'P 1'
_cell_length_a   4.95983900
_cell_length_b   6.14549200
_cell_length_c   42.57722000
_cell_angle_alpha   90.00000000
_cell_angle_beta   90.00000000
_cell_angle_gamma   90.00000000
_symmetry_Int_Tables_number   1
_chemical_formula_structural   Mg3Zn
_chemical_formula_sum   'Mg30 Zn10'
_cell_volume   1297.78137893
_cell_formula_units_Z   10
loop_
 _symmetry_equiv_pos_site_id
 _symmetry_equiv_pos_as_xyz
  1  'x, y, z'
loop_
 _atom_site_type_symbol
 _atom_site_label
 _atom_site_symmetry_multiplicity
 _atom_site_fract_x
 _atom_site_fract_y
 _atom_site_fract_z
 _atom_site_occupancy
  Mg  Mg0  1  0.25000000  0.75575400  0.29118700  1
  Mg  Mg1  1  0.25000000  0.00000000  0.23012600  1
  Mg  Mg2  1  0.25000000  0.24424600  0.29118700  1
  Mg  Mg3  1  0.75000000  0.50000000  0.26987400  1
  Mg  Mg4  1  0.75000000  0.25575400  0.20881300  1
  Mg  Mg5  1  0.75000000  0.74424600  0.20881300  1
  Mg  Mg6  1  0.25000000  0.25575400  0.41618700  1
  Mg  Mg7  1  0.25000000  0.50000000  0.35512600  1
  Mg  Mg8  1  0.25000000  0.74424600  0.41618700  1
  Mg  Mg9  1  0.75000000  1.00000000  0.39487400  1
  Mg  Mg10  1  0.75000000  0.75575400  0.33381300  1
  Mg  Mg11  1  0.75000000  0.24424600  0.33381300  1
  Mg  Mg12  1  0.25000000  0.75575400  0.54118700  1
  Mg  Mg13  1  0.25000000  0.00000000  0.48012600  1
  Mg  Mg14  1  0.25000000  0.24424600  0.54118700  1
  Mg  Mg15  1  0.75000000  0.50000000  0.51987400  1
  Mg  Mg16  1  0.75000000  0.25575400  0.45881300  1
  Mg  Mg17  1  0.75000000  0.74424600  0.45881300  1
  Mg  Mg18  1  0.25000000  0.25575400  0.66618700  1
  Mg  Mg19  1  0.25000000  0.50000000  0.60512600  1
  Mg  Mg20  1  0.25000000  0.74424600  0.66618700  1
  Mg  Mg21  1  0.75000000  0.00000000  0.64487400  1
  Mg  Mg22  1  0.75000000  0.75575400  0.58381300  1
  Mg  Mg23  1  0.75000000  0.24424600  0.58381300  1
  Mg  Mg24  1  0.25000000  0.75575400  0.79118700  1
  Mg  Mg25  1  0.25000000  0.00000000  0.73012600  1
  Mg  Mg26  1  0.25000000  0.24424600  0.79118700  1
  Mg  Mg27  1  0.75000000  0.50000000  0.76987400  1
  Mg  Mg28  1  0.75000000  0.25575400  0.70881300  1
  Mg  Mg29  1  0.75000000  0.74424600  0.70881300  1
  Zn  Zn30  1  0.25000000  0.50000000  0.22916700  1
  Zn  Zn31  1  0.75000000  0.00000000  0.27083300  1
  Zn  Zn32  1  0.25000000  0.00000000  0.35416700  1
  Zn  Zn33  1  0.75000000  0.50000000  0.39583300  1
  Zn  Zn34  1  0.25000000  0.50000000  0.47916700  1
  Zn  Zn35  1  0.75000000  0.00000000  0.52083300  1
  Zn  Zn36  1  0.25000000  0.00000000  0.60416700  1
  Zn  Zn37  1  0.75000000  0.50000000  0.64583300  1
  Zn  Zn38  1  0.25000000  0.50000000  0.72916700  1
  Zn  Zn39  1  0.75000000  0.00000000  0.77083300  1
