# generated using pymatgen
data_Tb21Mg8
_symmetry_space_group_name_H-M   'P 1'
_cell_length_a   3.54692000
_cell_length_b   10.19123257
_cell_length_c   43.44398300
_cell_angle_alpha   84.27392277
_cell_angle_beta   90.00000000
_cell_angle_gamma   90.00000000
_symmetry_Int_Tables_number   1
_chemical_formula_structural   Tb21Mg8
_chemical_formula_sum   'Tb21 Mg8'
_cell_volume   1562.55495751
_cell_formula_units_Z   1
loop_
 _symmetry_equiv_pos_site_id
 _symmetry_equiv_pos_as_xyz
  1  'x, y, z'
loop_
 _atom_site_type_symbol
 _atom_site_label
 _atom_site_symmetry_multiplicity
 _atom_site_fract_x
 _atom_site_fract_y
 _atom_site_fract_z
 _atom_site_occupancy
  Tb  Tb0  1  0.50000000  0.58893300  0.27984700  1
  Tb  Tb1  1  0.00000000  0.28946200  0.29807700  1
  Tb  Tb2  1  0.50000000  0.98999200  0.31630700  1
  Tb  Tb3  1  0.50000000  0.43508600  0.35677000  1
  Tb  Tb4  1  0.00000000  0.13561600  0.37500000  1
  Tb  Tb5  1  0.50000000  0.83614600  0.39323000  1
  Tb  Tb6  1  0.50000000  0.28124000  0.43369300  1
  Tb  Tb7  1  0.00000000  0.98177000  0.45192300  1
  Tb  Tb8  1  0.50000000  0.68230000  0.47015300  1
  Tb  Tb9  1  0.50000000  0.12739400  0.51061600  1
  Tb  Tb10  1  0.00000000  0.82792400  0.52884600  1
  Tb  Tb11  1  0.50000000  0.52845400  0.54707600  1
  Tb  Tb12  1  0.50000000  0.97354800  0.58753900  1
  Tb  Tb13  1  0.00000000  0.67407800  0.60576900  1
  Tb  Tb14  1  0.50000000  0.37460700  0.62399900  1
  Tb  Tb15  1  0.50000000  0.81970200  0.66446200  1
  Tb  Tb16  1  0.00000000  0.52023200  0.68269200  1
  Tb  Tb17  1  0.50000000  0.22076100  0.70092200  1
  Tb  Tb18  1  0.50000000  0.66585600  0.74138500  1
  Tb  Tb19  1  0.00000000  0.36638500  0.75961500  1
  Tb  Tb20  1  0.50000000  0.06691500  0.77784500  1
  Mg  Mg21  1  0.00000000  0.86638500  0.25961500  1
  Mg  Mg22  1  0.00000000  0.71253900  0.33653800  1
  Mg  Mg23  1  0.00000000  0.55869300  0.41346200  1
  Mg  Mg24  1  0.00000000  0.40484700  0.49038500  1
  Mg  Mg25  1  0.00000000  0.25100100  0.56730800  1
  Mg  Mg26  1  0.00000000  0.09715500  0.64423100  1
  Mg  Mg27  1  0.00000000  0.94330800  0.72115400  1
  Mg  Mg28  1  0.00000000  0.78946200  0.79807700  1
