# generated using pymatgen
data_Mg17B112
_symmetry_space_group_name_H-M   'P 1'
_cell_length_a   7.26364917
_cell_length_b   7.26364924
_cell_length_c   41.50303500
_cell_angle_alpha   90.48958354
_cell_angle_beta   90.48958355
_cell_angle_gamma   67.87756161
_symmetry_Int_Tables_number   1
_chemical_formula_structural   Mg17B112
_chemical_formula_sum   'Mg17 B112'
_cell_volume   2028.41254556
_cell_formula_units_Z   1
loop_
 _symmetry_equiv_pos_site_id
 _symmetry_equiv_pos_as_xyz
  1  'x, y, z'
loop_
 _atom_site_type_symbol
 _atom_site_label
 _atom_site_symmetry_multiplicity
 _atom_site_fract_x
 _atom_site_fract_y
 _atom_site_fract_z
 _atom_site_occupancy
  Mg  Mg0  1  0.26028700  0.76028700  0.68945300  1
  Mg  Mg1  1  0.01028700  0.51028700  0.56445300  1
  Mg  Mg2  1  0.13528700  0.63528700  0.62695300  1
  Mg  Mg3  1  0.45813400  0.18744100  0.59570300  1
  Mg  Mg4  1  0.81244100  0.08313400  0.65820300  1
  Mg  Mg5  1  0.76028700  0.26028700  0.43945300  1
  Mg  Mg6  1  0.88528700  0.38528700  0.50195300  1
  Mg  Mg7  1  0.20813400  0.93744100  0.47070300  1
  Mg  Mg8  1  0.56244100  0.83313400  0.53320300  1
  Mg  Mg9  1  0.51028700  0.01028700  0.31445300  1
  Mg  Mg10  1  0.63528700  0.13528700  0.37695300  1
  Mg  Mg11  1  0.95813400  0.68744100  0.34570300  1
  Mg  Mg12  1  0.31244100  0.58313400  0.40820300  1
  Mg  Mg13  1  0.26028700  0.76028700  0.18945300  1
  Mg  Mg14  1  0.38528700  0.88528700  0.25195300  1
  Mg  Mg15  1  0.70813400  0.43744100  0.22070300  1
  Mg  Mg16  1  0.06244100  0.33313400  0.28320300  1
  B  B17  1  0.12540300  0.35592400  0.60939000  1
  B  B18  1  0.08559400  0.17503700  0.58555000  1
  B  B19  1  0.21228800  0.30173200  0.64889700  1
  B  B20  1  0.12490600  0.77222300  0.57474000  1
  B  B21  1  0.40927200  0.36050100  0.66868700  1
  B  B22  1  0.26032800  0.93349400  0.57594200  1
  B  B23  1  0.43254800  0.10571500  0.66205300  1
  B  B24  1  0.39722300  0.74990600  0.63724000  1
  B  B25  1  0.28965100  0.52017100  0.58201600  1
  B  B26  1  0.53507400  0.48630200  0.64772000  1
  B  B27  1  0.59384300  0.68328600  0.66750900  1
  B  B28  1  0.47053700  0.55998000  0.60585600  1
  B  B29  1  0.55849400  0.88532800  0.63844200  1
  B  B30  1  0.48071500  0.80754800  0.59955300  1
  B  B31  1  0.78986000  0.46302600  0.65435400  1
  B  B32  1  0.71208000  0.38524700  0.61546400  1
  B  B33  1  0.80003700  0.71059400  0.64805000  1
  B  B34  1  0.67673200  0.58728800  0.58639700  1
  B  B35  1  0.73550100  0.78427200  0.60618700  1
  B  B36  1  0.98092400  0.75040300  0.67189000  1
  B  B37  1  0.87335100  0.52066800  0.61666600  1
  B  B38  1  0.83802600  0.16486000  0.59185400  1
  B  B39  1  0.01024700  0.33708000  0.67796400  1
  B  B40  1  0.86130200  0.91007400  0.58522000  1
  B  B41  1  0.14566800  0.49835100  0.67916600  1
  B  B42  1  0.05828600  0.96884300  0.60500900  1
  B  B43  1  0.18498000  0.09553700  0.66835600  1
  B  B44  1  0.14517100  0.91465100  0.64451600  1
  B  B45  1  0.87540300  0.10592400  0.48439000  1
  B  B46  1  0.83559400  0.92503700  0.46055000  1
  B  B47  1  0.96228800  0.05173200  0.52389700  1
  B  B48  1  0.87490600  0.52222300  0.44974000  1
  B  B49  1  0.15927200  0.11050100  0.54368700  1
  B  B50  1  0.01032800  0.68349400  0.45094200  1
  B  B51  1  0.18254800  0.85571500  0.53705300  1
  B  B52  1  0.14722300  0.49990600  0.51224000  1
  B  B53  1  0.03965100  0.27017100  0.45701600  1
  B  B54  1  0.28507400  0.23630200  0.52272000  1
  B  B55  1  0.34384300  0.43328600  0.54250900  1
  B  B56  1  0.22053700  0.30998000  0.48085600  1
  B  B57  1  0.30849400  0.63532800  0.51344200  1
  B  B58  1  0.23071500  0.55754800  0.47455300  1
  B  B59  1  0.53986000  0.21302600  0.52935400  1
  B  B60  1  0.46208000  0.13524700  0.49046400  1
  B  B61  1  0.55003700  0.46059400  0.52305000  1
  B  B62  1  0.42673200  0.33728800  0.46139700  1
  B  B63  1  0.48550100  0.53427200  0.48118700  1
  B  B64  1  0.73092400  0.50040300  0.54689000  1
  B  B65  1  0.62335100  0.27066800  0.49166600  1
  B  B66  1  0.58802600  0.91486000  0.46685400  1
  B  B67  1  0.76024700  0.08708000  0.55296400  1
  B  B68  1  0.61130200  0.66007400  0.46022000  1
  B  B69  1  0.89566800  0.24835100  0.55416600  1
  B  B70  1  0.80828600  0.71884300  0.48000900  1
  B  B71  1  0.93498000  0.84553700  0.54335600  1
  B  B72  1  0.89517100  0.66465100  0.51951600  1
  B  B73  1  0.62540300  0.85592400  0.35939000  1
  B  B74  1  0.58559400  0.67503700  0.33555000  1
  B  B75  1  0.71228800  0.80173200  0.39889700  1
  B  B76  1  0.62490600  0.27222300  0.32474000  1
  B  B77  1  0.90927200  0.86050100  0.41868700  1
  B  B78  1  0.76032800  0.43349400  0.32594200  1
  B  B79  1  0.93254800  0.60571500  0.41205300  1
  B  B80  1  0.89722300  0.24990600  0.38724000  1
  B  B81  1  0.78965100  0.02017100  0.33201600  1
  B  B82  1  0.03507400  0.98630200  0.39772000  1
  B  B83  1  0.09384300  0.18328600  0.41750900  1
  B  B84  1  0.97053700  0.05998000  0.35585600  1
  B  B85  1  0.05849400  0.38532800  0.38844200  1
  B  B86  1  0.98071500  0.30754800  0.34955300  1
  B  B87  1  0.28986000  0.96302600  0.40435400  1
  B  B88  1  0.21208000  0.88524700  0.36546400  1
  B  B89  1  0.30003700  0.21059400  0.39805000  1
  B  B90  1  0.17673200  0.08728800  0.33639700  1
  B  B91  1  0.23550100  0.28427200  0.35618700  1
  B  B92  1  0.48092400  0.25040300  0.42189000  1
  B  B93  1  0.37335100  0.02066800  0.36666600  1
  B  B94  1  0.33802600  0.66486000  0.34185400  1
  B  B95  1  0.51024700  0.83708000  0.42796400  1
  B  B96  1  0.36130200  0.41007400  0.33522000  1
  B  B97  1  0.64566800  0.99835100  0.42916600  1
  B  B98  1  0.55828600  0.46884300  0.35500900  1
  B  B99  1  0.68498000  0.59553700  0.41835600  1
  B  B100  1  0.64517100  0.41465100  0.39451600  1
  B  B101  1  0.37540300  0.60592400  0.23439000  1
  B  B102  1  0.33559400  0.42503700  0.21055000  1
  B  B103  1  0.46228800  0.55173200  0.27389700  1
  B  B104  1  0.37490600  0.02222300  0.19974000  1
  B  B105  1  0.65927200  0.61050100  0.29368700  1
  B  B106  1  0.51032800  0.18349400  0.20094200  1
  B  B107  1  0.68254800  0.35571500  0.28705300  1
  B  B108  1  0.64722300  0.99990600  0.26224000  1
  B  B109  1  0.53965100  0.77017100  0.20701600  1
  B  B110  1  0.78507400  0.73630200  0.27272000  1
  B  B111  1  0.84384300  0.93328600  0.29250900  1
  B  B112  1  0.72053700  0.80998000  0.23085600  1
  B  B113  1  0.80849400  0.13532800  0.26344200  1
  B  B114  1  0.73071500  0.05754800  0.22455300  1
  B  B115  1  0.03986000  0.71302600  0.27935400  1
  B  B116  1  0.96208000  0.63524700  0.24046400  1
  B  B117  1  0.05003700  0.96059400  0.27305000  1
  B  B118  1  0.92673200  0.83728800  0.21139700  1
  B  B119  1  0.98550100  0.03427200  0.23118700  1
  B  B120  1  0.23092400  0.00040300  0.29689000  1
  B  B121  1  0.12335100  0.77066800  0.24166600  1
  B  B122  1  0.08802600  0.41486000  0.21685400  1
  B  B123  1  0.26024700  0.58708000  0.30296400  1
  B  B124  1  0.11130200  0.16007400  0.21022000  1
  B  B125  1  0.39566800  0.74835100  0.30416600  1
  B  B126  1  0.30828600  0.21884300  0.23000900  1
  B  B127  1  0.43498000  0.34553700  0.29335600  1
  B  B128  1  0.39517100  0.16465100  0.26951600  1
