# generated using pymatgen
data_Mg9P38
_symmetry_space_group_name_H-M   'P 1'
_cell_length_a   5.19237500
_cell_length_b   7.59593169
_cell_length_c   40.98305900
_cell_angle_alpha   90.00000000
_cell_angle_beta   90.00000000
_cell_angle_gamma   98.60372853
_symmetry_Int_Tables_number   1
_chemical_formula_structural   Mg9P38
_chemical_formula_sum   'Mg9 P38'
_cell_volume   1598.21976176
_cell_formula_units_Z   1
loop_
 _symmetry_equiv_pos_site_id
 _symmetry_equiv_pos_as_xyz
  1  'x, y, z'
loop_
 _atom_site_type_symbol
 _atom_site_label
 _atom_site_symmetry_multiplicity
 _atom_site_fract_x
 _atom_site_fract_y
 _atom_site_fract_z
 _atom_site_occupancy
  Mg  Mg0  1  0.00000000  0.00000000  0.29375000  1
  Mg  Mg1  1  0.00000000  0.50000000  0.23125000  1
  Mg  Mg2  1  0.00000000  0.00000000  0.41875000  1
  Mg  Mg3  1  0.00000000  0.50000000  0.35625000  1
  Mg  Mg4  1  0.00000000  0.00000000  0.54375000  1
  Mg  Mg5  1  0.00000000  0.50000000  0.48125000  1
  Mg  Mg6  1  0.00000000  0.00000000  0.66875000  1
  Mg  Mg7  1  0.00000000  0.50000000  0.60625000  1
  Mg  Mg8  1  0.00000000  0.50000000  0.73125000  1
  P  P9  1  0.74704600  0.74632100  0.25722100  1
  P  P10  1  0.25295400  0.75367900  0.19472100  1
  P  P11  1  0.25295400  0.25367900  0.20527900  1
  P  P12  1  0.74704600  0.24632100  0.26777900  1
  P  P13  1  0.60311100  0.40046000  0.30730100  1
  P  P14  1  0.39688900  0.09954000  0.24480100  1
  P  P15  1  0.39688900  0.59954000  0.28019900  1
  P  P16  1  0.60311100  0.90046000  0.21769900  1
  P  P17  1  0.74704600  0.74632100  0.38222100  1
  P  P18  1  0.25295400  0.75367900  0.31972100  1
  P  P19  1  0.25295400  0.25367900  0.33027900  1
  P  P20  1  0.74704600  0.24632100  0.39277900  1
  P  P21  1  0.60311100  0.40046000  0.43230100  1
  P  P22  1  0.39688900  0.09954000  0.36980100  1
  P  P23  1  0.39688900  0.59954000  0.40519900  1
  P  P24  1  0.60311100  0.90046000  0.34269900  1
  P  P25  1  0.74704600  0.74632100  0.50722100  1
  P  P26  1  0.25295400  0.75367900  0.44472100  1
  P  P27  1  0.25295400  0.25367900  0.45527900  1
  P  P28  1  0.74704600  0.24632100  0.51777900  1
  P  P29  1  0.60311100  0.40046000  0.55730100  1
  P  P30  1  0.39688900  0.09954000  0.49480100  1
  P  P31  1  0.39688900  0.59954000  0.53019900  1
  P  P32  1  0.60311100  0.90046000  0.46769900  1
  P  P33  1  0.74704600  0.74632100  0.63222100  1
  P  P34  1  0.25295400  0.75367900  0.56972100  1
  P  P35  1  0.25295400  0.25367900  0.58027900  1
  P  P36  1  0.74704600  0.24632100  0.64277900  1
  P  P37  1  0.60311100  0.40046000  0.68230100  1
  P  P38  1  0.39688900  0.09954000  0.61980100  1
  P  P39  1  0.39688900  0.59954000  0.65519900  1
  P  P40  1  0.60311100  0.90046000  0.59269900  1
  P  P41  1  0.74704600  0.74632100  0.75722100  1
  P  P42  1  0.25295400  0.75367900  0.69472100  1
  P  P43  1  0.25295400  0.25367900  0.70527900  1
  P  P44  1  0.74704600  0.24632100  0.76777900  1
  P  P45  1  0.39688900  0.09954000  0.74480100  1
  P  P46  1  0.60311100  0.90046000  0.71769900  1
