# generated using pymatgen
data_Pr5Mg54
_symmetry_space_group_name_H-M   'P 1'
_cell_length_a   7.86707097
_cell_length_b   7.86707161
_cell_length_c   41.13233300
_cell_angle_alpha   89.89596976
_cell_angle_beta   89.89596975
_cell_angle_gamma   81.82603946
_symmetry_Int_Tables_number   1
_chemical_formula_structural   Pr5Mg54
_chemical_formula_sum   'Pr5 Mg54'
_cell_volume   2519.84413203
_cell_formula_units_Z   1
loop_
 _symmetry_equiv_pos_site_id
 _symmetry_equiv_pos_as_xyz
  1  'x, y, z'
loop_
 _atom_site_type_symbol
 _atom_site_label
 _atom_site_symmetry_multiplicity
 _atom_site_fract_x
 _atom_site_fract_y
 _atom_site_fract_z
 _atom_site_occupancy
  Pr  Pr0  1  0.17010600  0.17010600  0.72115400  1
  Pr  Pr1  1  0.42010600  0.42010600  0.59615400  1
  Pr  Pr2  1  0.67010600  0.67010600  0.47115400  1
  Pr  Pr3  1  0.92010600  0.92010600  0.34615400  1
  Pr  Pr4  1  0.17010600  0.17010600  0.22115400  1
  Mg  Mg5  1  0.17010600  0.67010600  0.72115400  1
  Mg  Mg6  1  0.67010600  0.17010600  0.72115400  1
  Mg  Mg7  1  0.81785700  0.52235600  0.72115400  1
  Mg  Mg8  1  0.52235600  0.81785700  0.72115400  1
  Mg  Mg9  1  0.88528100  0.88528100  0.75701600  1
  Mg  Mg10  1  0.45493100  0.45493100  0.68529100  1
  Mg  Mg11  1  0.42010600  0.92010600  0.59615400  1
  Mg  Mg12  1  0.79510600  0.29510600  0.65865400  1
  Mg  Mg13  1  0.92010600  0.42010600  0.59615400  1
  Mg  Mg14  1  0.29510600  0.79510600  0.65865400  1
  Mg  Mg15  1  0.68429300  0.68429300  0.64018500  1
  Mg  Mg16  1  0.06785700  0.77235600  0.59615400  1
  Mg  Mg17  1  0.77235600  0.06785700  0.59615400  1
  Mg  Mg18  1  0.90591900  0.90591900  0.67712300  1
  Mg  Mg19  1  0.13528100  0.13528100  0.63201600  1
  Mg  Mg20  1  0.50820600  0.08200600  0.65865400  1
  Mg  Mg21  1  0.08200600  0.50820600  0.65865400  1
  Mg  Mg22  1  0.70493100  0.70493100  0.56029100  1
  Mg  Mg23  1  0.67010600  0.17010600  0.47115400  1
  Mg  Mg24  1  0.04510600  0.54510600  0.53365400  1
  Mg  Mg25  1  0.17010600  0.67010600  0.47115400  1
  Mg  Mg26  1  0.54510600  0.04510600  0.53365400  1
  Mg  Mg27  1  0.93429300  0.93429300  0.51518500  1
  Mg  Mg28  1  0.31785700  0.02235600  0.47115400  1
  Mg  Mg29  1  0.02235600  0.31785700  0.47115400  1
  Mg  Mg30  1  0.15591900  0.15591900  0.55212300  1
  Mg  Mg31  1  0.38528100  0.38528100  0.50701600  1
  Mg  Mg32  1  0.75820600  0.33200600  0.53365400  1
  Mg  Mg33  1  0.33200600  0.75820600  0.53365400  1
  Mg  Mg34  1  0.95493100  0.95493100  0.43529100  1
  Mg  Mg35  1  0.92010600  0.42010600  0.34615400  1
  Mg  Mg36  1  0.29510600  0.79510600  0.40865400  1
  Mg  Mg37  1  0.42010600  0.92010600  0.34615400  1
  Mg  Mg38  1  0.79510600  0.29510600  0.40865400  1
  Mg  Mg39  1  0.18429300  0.18429300  0.39018500  1
  Mg  Mg40  1  0.56785700  0.27235600  0.34615400  1
  Mg  Mg41  1  0.27235600  0.56785700  0.34615400  1
  Mg  Mg42  1  0.40591900  0.40591900  0.42712300  1
  Mg  Mg43  1  0.63528100  0.63528100  0.38201600  1
  Mg  Mg44  1  0.00820600  0.58200600  0.40865400  1
  Mg  Mg45  1  0.58200600  0.00820600  0.40865400  1
  Mg  Mg46  1  0.20493100  0.20493100  0.31029100  1
  Mg  Mg47  1  0.17010600  0.67010600  0.22115400  1
  Mg  Mg48  1  0.54510600  0.04510600  0.28365400  1
  Mg  Mg49  1  0.67010600  0.17010600  0.22115400  1
  Mg  Mg50  1  0.04510600  0.54510600  0.28365400  1
  Mg  Mg51  1  0.43429300  0.43429300  0.26518500  1
  Mg  Mg52  1  0.81785700  0.52235600  0.22115400  1
  Mg  Mg53  1  0.52235600  0.81785700  0.22115400  1
  Mg  Mg54  1  0.65591900  0.65591900  0.30212300  1
  Mg  Mg55  1  0.88528100  0.88528100  0.25701600  1
  Mg  Mg56  1  0.25820600  0.83200600  0.28365400  1
  Mg  Mg57  1  0.83200600  0.25820600  0.28365400  1
  Mg  Mg58  1  0.45493100  0.45493100  0.18529100  1
