# generated using pymatgen
data_La4Mg39
_symmetry_space_group_name_H-M   'P 1'
_cell_length_a   10.38875200
_cell_length_b   14.48655120
_cell_length_c   47.03743100
_cell_angle_alpha   91.51171628
_cell_angle_beta   90.00000000
_cell_angle_gamma   68.98788168
_symmetry_Int_Tables_number   1
_chemical_formula_structural   La4Mg39
_chemical_formula_sum   'La12 Mg117'
_cell_volume   6605.64073251
_cell_formula_units_Z   3
loop_
 _symmetry_equiv_pos_site_id
 _symmetry_equiv_pos_as_xyz
  1  'x, y, z'
loop_
 _atom_site_type_symbol
 _atom_site_label
 _atom_site_symmetry_multiplicity
 _atom_site_fract_x
 _atom_site_fract_y
 _atom_site_fract_z
 _atom_site_occupancy
  La  La0  1  0.44305400  0.11389300  0.32581500  1
  La  La1  1  0.15733900  0.68532100  0.30200500  1
  La  La2  1  0.72876800  0.54246400  0.34962400  1
  La  La3  1  0.87162500  0.25675000  0.27819500  1
  La  La4  1  0.15733900  0.68532100  0.46867200  1
  La  La5  1  0.87162500  0.25675000  0.44486200  1
  La  La6  1  0.44305400  0.11389300  0.49248100  1
  La  La7  1  0.58591100  0.82817800  0.42105300  1
  La  La8  1  0.87162500  0.25675000  0.61152900  1
  La  La9  1  0.58591100  0.82817800  0.58771900  1
  La  La10  1  0.15733900  0.68532100  0.63533800  1
  La  La11  1  0.30019700  0.39960700  0.56391000  1
  Mg  Mg12  1  0.51613000  0.48107100  0.29372000  1
  Mg  Mg13  1  0.14946500  0.70107000  0.22038700  1
  Mg  Mg14  1  0.00279900  0.48107100  0.29372000  1
  Mg  Mg15  1  0.72851100  0.05630800  0.26864100  1
  Mg  Mg16  1  0.05781500  0.88436900  0.35176700  1
  Mg  Mg17  1  0.62924400  0.74151200  0.23271900  1
  Mg  Mg18  1  0.54257800  0.91484500  0.27605300  1
  Mg  Mg19  1  0.25686300  0.48627300  0.25224300  1
  Mg  Mg20  1  0.44305400  0.11389300  0.24248100  1
  Mg  Mg21  1  0.94305400  0.61389300  0.24248100  1
  Mg  Mg22  1  0.44305400  0.61389300  0.24248100  1
  Mg  Mg23  1  0.30019700  0.89960700  0.31391000  1
  Mg  Mg24  1  0.80019700  0.89960700  0.31391000  1
  Mg  Mg25  1  0.30019700  0.39960700  0.31391000  1
  Mg  Mg26  1  0.51851800  0.27153300  0.27326800  1
  Mg  Mg27  1  0.88614100  0.83026300  0.25369100  1
  Mg  Mg28  1  0.50400200  0.69801900  0.29777200  1
  Mg  Mg29  1  0.09639100  0.10119500  0.33004700  1
  Mg  Mg30  1  0.99996700  0.39752200  0.23127100  1
  Mg  Mg31  1  0.39044400  0.52768100  0.35455200  1
  Mg  Mg32  1  0.79797800  0.69801900  0.29777200  1
  Mg  Mg33  1  0.08187500  0.52768100  0.35455200  1
  Mg  Mg34  1  0.28359600  0.83026300  0.25369100  1
  Mg  Mg35  1  0.60251100  0.39752200  0.23127100  1
  Mg  Mg36  1  0.20994900  0.27153300  0.27326800  1
  Mg  Mg37  1  0.80241500  0.10119500  0.33004700  1
  Mg  Mg38  1  0.01854800  0.96290500  0.28584600  1
  Mg  Mg39  1  0.08426300  0.31814300  0.33410000  1
  Mg  Mg40  1  0.59759400  0.31814300  0.33410000  1
  Mg  Mg41  1  0.15759600  0.17147700  0.21632200  1
  Mg  Mg42  1  0.67092700  0.17147700  0.21632200  1
  Mg  Mg43  1  0.58184500  0.83630900  0.34197400  1
  Mg  Mg44  1  0.21518000  0.05630800  0.26864100  1
  Mg  Mg45  1  0.73664200  0.52671500  0.26457500  1
  Mg  Mg46  1  0.23041600  0.05249900  0.43657700  1
  Mg  Mg47  1  0.86375100  0.27249800  0.36324400  1
  Mg  Mg48  1  0.71708500  0.05249900  0.43657700  1
  Mg  Mg49  1  0.44279700  0.62773700  0.41149800  1
  Mg  Mg50  1  0.77210100  0.45579800  0.49462400  1
  Mg  Mg51  1  0.34353000  0.31294100  0.37557700  1
  Mg  Mg52  1  0.25686300  0.48627300  0.41891000  1
  Mg  Mg53  1  0.97114900  0.05770200  0.39510000  1
  Mg  Mg54  1  0.15733900  0.68532100  0.38533800  1
  Mg  Mg55  1  0.65733900  0.18532100  0.38533800  1
  Mg  Mg56  1  0.15733900  0.18532100  0.38533800  1
  Mg  Mg57  1  0.01448200  0.47103600  0.45676700  1
  Mg  Mg58  1  0.51448200  0.47103600  0.45676700  1
  Mg  Mg59  1  0.01448200  0.97103600  0.45676700  1
  Mg  Mg60  1  0.23280400  0.84296100  0.41612500  1
  Mg  Mg61  1  0.60042600  0.40169200  0.39654800  1
  Mg  Mg62  1  0.21828800  0.26944800  0.44062900  1
  Mg  Mg63  1  0.81067600  0.67262300  0.47290400  1
  Mg  Mg64  1  0.71425200  0.96895100  0.37412800  1
  Mg  Mg65  1  0.10472900  0.09911000  0.49740900  1
  Mg  Mg66  1  0.51226400  0.26944800  0.44062900  1
  Mg  Mg67  1  0.79616100  0.09911000  0.49740900  1
  Mg  Mg68  1  0.99788200  0.40169200  0.39654800  1
  Mg  Mg69  1  0.31679700  0.96895100  0.37412800  1
  Mg  Mg70  1  0.92423500  0.84296100  0.41612500  1
  Mg  Mg71  1  0.51670100  0.67262300  0.47290400  1
  Mg  Mg72  1  0.73283300  0.53433300  0.42870300  1
  Mg  Mg73  1  0.79854900  0.88957200  0.47695700  1
  Mg  Mg74  1  0.31188000  0.88957200  0.47695700  1
  Mg  Mg75  1  0.87188200  0.74290600  0.35917900  1
  Mg  Mg76  1  0.38521300  0.74290600  0.35917900  1
  Mg  Mg77  1  0.29613100  0.40773800  0.48483100  1
  Mg  Mg78  1  0.92946600  0.62773700  0.41149800  1
  Mg  Mg79  1  0.45092800  0.09814400  0.40743300  1
  Mg  Mg80  1  0.94470200  0.62392800  0.57943400  1
  Mg  Mg81  1  0.57803700  0.84392700  0.50610100  1
  Mg  Mg82  1  0.43137000  0.62392800  0.57943400  1
  Mg  Mg83  1  0.15708300  0.19916500  0.55435500  1
  Mg  Mg84  1  0.48638700  0.02722600  0.63748100  1
  Mg  Mg85  1  0.05781500  0.88436900  0.51843400  1
  Mg  Mg86  1  0.97114900  0.05770200  0.56176700  1
  Mg  Mg87  1  0.68543500  0.62913000  0.53795700  1
  Mg  Mg88  1  0.87162500  0.25675000  0.52819500  1
  Mg  Mg89  1  0.37162500  0.75675000  0.52819500  1
  Mg  Mg90  1  0.87162500  0.75675000  0.52819500  1
  Mg  Mg91  1  0.72876800  0.04246400  0.59962400  1
  Mg  Mg92  1  0.22876800  0.04246400  0.59962400  1
  Mg  Mg93  1  0.72876800  0.54246400  0.59962400  1
  Mg  Mg94  1  0.94708900  0.41439000  0.55898200  1
  Mg  Mg95  1  0.31471200  0.97312000  0.53940500  1
  Mg  Mg96  1  0.93257400  0.84087600  0.58348700  1
  Mg  Mg97  1  0.52496200  0.24405200  0.61576200  1
  Mg  Mg98  1  0.42853800  0.54037900  0.51698600  1
  Mg  Mg99  1  0.81901500  0.67053800  0.64026600  1
  Mg  Mg100  1  0.22655000  0.84087600  0.58348700  1
  Mg  Mg101  1  0.51044600  0.67053800  0.64026600  1
  Mg  Mg102  1  0.71216800  0.97312000  0.53940500  1
  Mg  Mg103  1  0.03108300  0.54037900  0.51698600  1
  Mg  Mg104  1  0.63852100  0.41439000  0.55898200  1
  Mg  Mg105  1  0.23098600  0.24405200  0.61576200  1
  Mg  Mg106  1  0.44711900  0.10576200  0.57156000  1
  Mg  Mg107  1  0.51283400  0.46100000  0.61981400  1
  Mg  Mg108  1  0.02616500  0.46100000  0.61981400  1
  Mg  Mg109  1  0.58616700  0.31433400  0.50203600  1
  Mg  Mg110  1  0.09949800  0.31433400  0.50203600  1
  Mg  Mg111  1  0.01041700  0.97916600  0.62768800  1
  Mg  Mg112  1  0.64375200  0.19916500  0.55435500  1
  Mg  Mg113  1  0.16521400  0.66957300  0.55029000  1
  Mg  Mg114  1  0.29232200  0.41535600  0.64895800  1
  Mg  Mg115  1  0.87136900  0.77059400  0.69721200  1
  Mg  Mg116  1  0.77210100  0.45579800  0.66129100  1
  Mg  Mg117  1  0.39972100  0.20055900  0.68081400  1
  Mg  Mg118  1  0.58591100  0.82817800  0.67105300  1
  Mg  Mg119  1  0.08591100  0.32817800  0.67105300  1
  Mg  Mg120  1  0.58591100  0.32817800  0.67105300  1
  Mg  Mg121  1  0.02899800  0.54454900  0.68226200  1
  Mg  Mg122  1  0.14282400  0.11180800  0.65984300  1
  Mg  Mg123  1  0.42645300  0.54454900  0.68226200  1
  Mg  Mg124  1  0.74536800  0.11180800  0.65984300  1
  Mg  Mg125  1  0.30045300  0.88576300  0.64489300  1
  Mg  Mg126  1  0.81378400  0.88576300  0.64489300  1
  Mg  Mg127  1  0.35803700  0.77059400  0.69721200  1
  Mg  Mg128  1  0.87949900  0.24100100  0.69314700  1
