# generated using pymatgen
data_Mg22Zn119
_symmetry_space_group_name_H-M   'P 1'
_cell_length_a   9.38239124
_cell_length_b   9.87228504
_cell_length_c   47.88422100
_cell_angle_alpha   93.42143374
_cell_angle_beta   90.35613488
_cell_angle_gamma   117.39448675
_symmetry_Int_Tables_number   1
_chemical_formula_structural   Mg22Zn119
_chemical_formula_sum   'Mg22 Zn119'
_cell_volume   3928.07221196
_cell_formula_units_Z   1
loop_
 _symmetry_equiv_pos_site_id
 _symmetry_equiv_pos_as_xyz
  1  'x, y, z'
loop_
 _atom_site_type_symbol
 _atom_site_label
 _atom_site_symmetry_multiplicity
 _atom_site_fract_x
 _atom_site_fract_y
 _atom_site_fract_z
 _atom_site_occupancy
  Mg  Mg0  1  0.54076100  0.38959900  0.71572600  1
  Mg  Mg1  1  0.34441100  0.38074500  0.77177400  1
  Mg  Mg2  1  0.44076100  0.18959900  0.61572600  1
  Mg  Mg3  1  0.24441100  0.18074500  0.67177400  1
  Mg  Mg4  1  0.69964100  0.73356200  0.69661700  1
  Mg  Mg5  1  0.08553100  0.83678100  0.69088300  1
  Mg  Mg6  1  0.34076100  0.98959900  0.51572600  1
  Mg  Mg7  1  0.14441100  0.98074500  0.57177400  1
  Mg  Mg8  1  0.59964100  0.53356200  0.59661700  1
  Mg  Mg9  1  0.98553100  0.63678100  0.59088300  1
  Mg  Mg10  1  0.24076100  0.78959900  0.41572600  1
  Mg  Mg11  1  0.04441100  0.78074500  0.47177400  1
  Mg  Mg12  1  0.49964100  0.33356200  0.49661700  1
  Mg  Mg13  1  0.88553100  0.43678100  0.49088300  1
  Mg  Mg14  1  0.14076100  0.58959900  0.31572600  1
  Mg  Mg15  1  0.94441100  0.58074500  0.37177400  1
  Mg  Mg16  1  0.39964100  0.13356200  0.39661700  1
  Mg  Mg17  1  0.78553100  0.23678100  0.39088300  1
  Mg  Mg18  1  0.04076100  0.38959900  0.21572600  1
  Mg  Mg19  1  0.84441100  0.38074500  0.27177400  1
  Mg  Mg20  1  0.29964100  0.93356200  0.29661700  1
  Mg  Mg21  1  0.68553100  0.03678100  0.29088300  1
  Zn  Zn22  1  0.62614900  0.94502900  0.74042500  1
  Zn  Zn23  1  0.78816900  0.26295300  0.72276200  1
  Zn  Zn24  1  0.21394100  0.11417000  0.73102800  1
  Zn  Zn25  1  0.67123100  0.65617400  0.75647200  1
  Zn  Zn26  1  0.95599100  0.70495000  0.78183500  1
  Zn  Zn27  1  0.45699300  0.71168700  0.78084900  1
  Zn  Zn28  1  0.25902300  0.82531500  0.74707500  1
  Zn  Zn29  1  0.72629300  0.43102500  0.76898000  1
  Zn  Zn30  1  0.47760800  0.15751400  0.75608000  1
  Zn  Zn31  1  0.40756400  0.61282900  0.73142000  1
  Zn  Zn32  1  0.42817900  0.05865700  0.70665100  1
  Zn  Zn33  1  0.97971100  0.16645500  0.75619500  1
  Zn  Zn34  1  0.09700300  0.50739100  0.76473800  1
  Zn  Zn35  1  0.90546100  0.60388900  0.73130500  1
  Zn  Zn36  1  0.92918100  0.06539400  0.70566500  1
  Zn  Zn37  1  0.94258600  0.88517200  0.74375000  1
  Zn  Zn38  1  0.12526200  0.56987600  0.70571100  1
  Zn  Zn39  1  0.75991000  0.20046800  0.78178900  1
  Zn  Zn40  1  0.15887900  0.33931800  0.71852000  1
  Zn  Zn41  1  0.39258600  0.78517200  0.69375000  1
  Zn  Zn42  1  0.52614900  0.74502900  0.64042500  1
  Zn  Zn43  1  0.68816900  0.06295300  0.62276200  1
  Zn  Zn44  1  0.11394100  0.91417000  0.63102800  1
  Zn  Zn45  1  0.57123100  0.45617400  0.65647200  1
  Zn  Zn46  1  0.85599100  0.50495000  0.68183500  1
  Zn  Zn47  1  0.35699300  0.51168700  0.68084900  1
  Zn  Zn48  1  0.15902300  0.62531500  0.64707500  1
  Zn  Zn49  1  0.62629300  0.23102500  0.66898000  1
  Zn  Zn50  1  0.37760800  0.95751400  0.65608000  1
  Zn  Zn51  1  0.30756400  0.41282900  0.63142000  1
  Zn  Zn52  1  0.32817900  0.85865700  0.60665100  1
  Zn  Zn53  1  0.87971100  0.96645500  0.65619500  1
  Zn  Zn54  1  0.99700300  0.30739100  0.66473800  1
  Zn  Zn55  1  0.80546100  0.40388900  0.63130500  1
  Zn  Zn56  1  0.82918100  0.86539400  0.60566500  1
  Zn  Zn57  1  0.84258600  0.68517200  0.64375000  1
  Zn  Zn58  1  0.02526200  0.36987600  0.60571100  1
  Zn  Zn59  1  0.65991000  0.00046800  0.68178900  1
  Zn  Zn60  1  0.05887900  0.13931800  0.61852000  1
  Zn  Zn61  1  0.29258600  0.58517200  0.59375000  1
  Zn  Zn62  1  0.42614900  0.54502900  0.54042500  1
  Zn  Zn63  1  0.58816900  0.86295300  0.52276200  1
  Zn  Zn64  1  0.01394100  0.71417000  0.53102800  1
  Zn  Zn65  1  0.47123100  0.25617400  0.55647200  1
  Zn  Zn66  1  0.75599100  0.30495000  0.58183500  1
  Zn  Zn67  1  0.25699300  0.31168700  0.58084900  1
  Zn  Zn68  1  0.05902300  0.42531500  0.54707500  1
  Zn  Zn69  1  0.52629300  0.03102500  0.56898000  1
  Zn  Zn70  1  0.27760800  0.75751400  0.55608000  1
  Zn  Zn71  1  0.20756400  0.21282900  0.53142000  1
  Zn  Zn72  1  0.22817900  0.65865700  0.50665100  1
  Zn  Zn73  1  0.77971100  0.76645500  0.55619500  1
  Zn  Zn74  1  0.89700300  0.10739100  0.56473800  1
  Zn  Zn75  1  0.70546100  0.20388900  0.53130500  1
  Zn  Zn76  1  0.72918100  0.66539400  0.50566500  1
  Zn  Zn77  1  0.74258600  0.48517200  0.54375000  1
  Zn  Zn78  1  0.92526200  0.16987600  0.50571100  1
  Zn  Zn79  1  0.55991000  0.80046800  0.58178900  1
  Zn  Zn80  1  0.95887900  0.93931800  0.51852000  1
  Zn  Zn81  1  0.19258600  0.38517200  0.49375000  1
  Zn  Zn82  1  0.32614900  0.34502900  0.44042500  1
  Zn  Zn83  1  0.48816900  0.66295300  0.42276200  1
  Zn  Zn84  1  0.91394100  0.51417000  0.43102800  1
  Zn  Zn85  1  0.37123100  0.05617400  0.45647200  1
  Zn  Zn86  1  0.65599100  0.10495000  0.48183500  1
  Zn  Zn87  1  0.15699300  0.11168700  0.48084900  1
  Zn  Zn88  1  0.95902300  0.22531500  0.44707500  1
  Zn  Zn89  1  0.42629300  0.83102500  0.46898000  1
  Zn  Zn90  1  0.17760800  0.55751400  0.45608000  1
  Zn  Zn91  1  0.10756400  0.01282900  0.43142000  1
  Zn  Zn92  1  0.12817900  0.45865700  0.40665100  1
  Zn  Zn93  1  0.67971100  0.56645500  0.45619500  1
  Zn  Zn94  1  0.79700300  0.90739100  0.46473800  1
  Zn  Zn95  1  0.60546100  0.00388900  0.43130500  1
  Zn  Zn96  1  0.62918100  0.46539400  0.40566500  1
  Zn  Zn97  1  0.64258600  0.28517200  0.44375000  1
  Zn  Zn98  1  0.82526200  0.96987600  0.40571100  1
  Zn  Zn99  1  0.45991000  0.60046800  0.48178900  1
  Zn  Zn100  1  0.85887900  0.73931800  0.41852000  1
  Zn  Zn101  1  0.09258600  0.18517200  0.39375000  1
  Zn  Zn102  1  0.22614900  0.14502900  0.34042500  1
  Zn  Zn103  1  0.38816900  0.46295300  0.32276200  1
  Zn  Zn104  1  0.81394100  0.31417000  0.33102800  1
  Zn  Zn105  1  0.27123100  0.85617400  0.35647200  1
  Zn  Zn106  1  0.55599100  0.90495000  0.38183500  1
  Zn  Zn107  1  0.05699300  0.91168700  0.38084900  1
  Zn  Zn108  1  0.85902300  0.02531500  0.34707500  1
  Zn  Zn109  1  0.32629300  0.63102500  0.36898000  1
  Zn  Zn110  1  0.07760800  0.35751400  0.35608000  1
  Zn  Zn111  1  0.00756400  0.81282900  0.33142000  1
  Zn  Zn112  1  0.02817900  0.25865700  0.30665100  1
  Zn  Zn113  1  0.57971100  0.36645500  0.35619500  1
  Zn  Zn114  1  0.69700300  0.70739100  0.36473800  1
  Zn  Zn115  1  0.50546100  0.80388900  0.33130500  1
  Zn  Zn116  1  0.52918100  0.26539400  0.30566500  1
  Zn  Zn117  1  0.54258600  0.08517200  0.34375000  1
  Zn  Zn118  1  0.72526200  0.76987600  0.30571100  1
  Zn  Zn119  1  0.35991000  0.40046800  0.38178900  1
  Zn  Zn120  1  0.75887900  0.53931800  0.31852000  1
  Zn  Zn121  1  0.99258600  0.98517200  0.29375000  1
  Zn  Zn122  1  0.12614900  0.94502900  0.24042500  1
  Zn  Zn123  1  0.28816900  0.26295300  0.22276200  1
  Zn  Zn124  1  0.71394100  0.11417000  0.23102800  1
  Zn  Zn125  1  0.17123100  0.65617400  0.25647200  1
  Zn  Zn126  1  0.45599100  0.70495000  0.28183500  1
  Zn  Zn127  1  0.95699300  0.71168700  0.28084900  1
  Zn  Zn128  1  0.75902300  0.82531500  0.24707500  1
  Zn  Zn129  1  0.22629300  0.43102500  0.26898000  1
  Zn  Zn130  1  0.97760800  0.15751400  0.25608000  1
  Zn  Zn131  1  0.90756400  0.61282900  0.23142000  1
  Zn  Zn132  1  0.92817900  0.05865700  0.20665100  1
  Zn  Zn133  1  0.47971100  0.16645500  0.25619500  1
  Zn  Zn134  1  0.59700300  0.50739100  0.26473800  1
  Zn  Zn135  1  0.40546100  0.60388900  0.23130500  1
  Zn  Zn136  1  0.42918100  0.06539400  0.20566500  1
  Zn  Zn137  1  0.44258600  0.88517200  0.24375000  1
  Zn  Zn138  1  0.62526200  0.56987600  0.20571100  1
  Zn  Zn139  1  0.25991000  0.20046800  0.28178900  1
  Zn  Zn140  1  0.65887900  0.33931800  0.21852000  1
