# generated using pymatgen
data_Mg10As7
_symmetry_space_group_name_H-M   'P 1'
_cell_length_a   12.47509700
_cell_length_b   12.47509700
_cell_length_c   62.37548700
_cell_angle_alpha   90.00000000
_cell_angle_beta   90.00000000
_cell_angle_gamma   90.00000000
_symmetry_Int_Tables_number   1
_chemical_formula_structural   Mg10As7
_chemical_formula_sum   'Mg120 As84'
_cell_volume   9707.37510768
_cell_formula_units_Z   12
loop_
 _symmetry_equiv_pos_site_id
 _symmetry_equiv_pos_as_xyz
  1  'x, y, z'
loop_
 _atom_site_type_symbol
 _atom_site_label
 _atom_site_symmetry_multiplicity
 _atom_site_fract_x
 _atom_site_fract_y
 _atom_site_fract_z
 _atom_site_occupancy
  Mg  Mg0  1  0.87074000  0.39487400  0.22783900  1
  Mg  Mg1  1  0.87074000  0.60512600  0.38216100  1
  Mg  Mg2  1  0.12926000  0.89487400  0.38216100  1
  Mg  Mg3  1  0.13580500  0.87074000  0.27602500  1
  Mg  Mg4  1  0.89487400  0.86419500  0.22914800  1
  Mg  Mg5  1  0.10512600  0.36419500  0.38085200  1
  Mg  Mg6  1  0.86419500  0.62926000  0.27602500  1
  Mg  Mg7  1  0.10512600  0.63580500  0.22914800  1
  Mg  Mg8  1  0.63580500  0.62926000  0.23397500  1
  Mg  Mg9  1  0.89487400  0.13580500  0.38085200  1
  Mg  Mg10  1  0.36419500  0.87074000  0.23397500  1
  Mg  Mg11  1  0.12926000  0.10512600  0.22783900  1
  Mg  Mg12  1  0.62926000  0.10512600  0.38216100  1
  Mg  Mg13  1  0.62926000  0.89487400  0.22783900  1
  Mg  Mg14  1  0.37074000  0.60512600  0.22783900  1
  Mg  Mg15  1  0.36419500  0.62926000  0.33397500  1
  Mg  Mg16  1  0.37074000  0.39487400  0.38216100  1
  Mg  Mg17  1  0.13580500  0.62926000  0.37602500  1
  Mg  Mg18  1  0.60512600  0.36419500  0.22914800  1
  Mg  Mg19  1  0.86419500  0.87074000  0.37602500  1
  Mg  Mg20  1  0.39487400  0.86419500  0.38085200  1
  Mg  Mg21  1  0.63580500  0.87074000  0.33397500  1
  Mg  Mg22  1  0.39487400  0.13580500  0.22914800  1
  Mg  Mg23  1  0.60512600  0.63580500  0.38085200  1
  Mg  Mg24  1  0.37074000  0.89487400  0.32783900  1
  Mg  Mg25  1  0.37074000  0.10512600  0.28216100  1
  Mg  Mg26  1  0.62926000  0.39487400  0.28216100  1
  Mg  Mg27  1  0.63580500  0.37074000  0.37602500  1
  Mg  Mg28  1  0.39487400  0.36419500  0.32914800  1
  Mg  Mg29  1  0.60512600  0.86419500  0.28085200  1
  Mg  Mg30  1  0.36419500  0.12926000  0.37602500  1
  Mg  Mg31  1  0.60512600  0.13580500  0.32914800  1
  Mg  Mg32  1  0.13580500  0.12926000  0.33397500  1
  Mg  Mg33  1  0.39487400  0.63580500  0.28085200  1
  Mg  Mg34  1  0.86419500  0.37074000  0.33397500  1
  Mg  Mg35  1  0.62926000  0.60512600  0.32783900  1
  Mg  Mg36  1  0.12926000  0.60512600  0.28216100  1
  Mg  Mg37  1  0.12926000  0.39487400  0.32783900  1
  Mg  Mg38  1  0.87074000  0.10512600  0.32783900  1
  Mg  Mg39  1  0.86419500  0.12926000  0.23397500  1
  Mg  Mg40  1  0.87074000  0.89487400  0.28216100  1
  Mg  Mg41  1  0.63580500  0.12926000  0.27602500  1
  Mg  Mg42  1  0.10512600  0.86419500  0.32914800  1
  Mg  Mg43  1  0.36419500  0.37074000  0.27602500  1
  Mg  Mg44  1  0.89487400  0.36419500  0.28085200  1
  Mg  Mg45  1  0.13580500  0.37074000  0.23397500  1
  Mg  Mg46  1  0.89487400  0.63580500  0.32914800  1
  Mg  Mg47  1  0.10512600  0.13580500  0.28085200  1
  Mg  Mg48  1  0.87074000  0.39487400  0.42783900  1
  Mg  Mg49  1  0.87074000  0.60512600  0.58216100  1
  Mg  Mg50  1  0.12926000  0.89487400  0.58216100  1
  Mg  Mg51  1  0.13580500  0.87074000  0.47602500  1
  Mg  Mg52  1  0.89487400  0.86419500  0.42914800  1
  Mg  Mg53  1  0.10512600  0.36419500  0.58085200  1
  Mg  Mg54  1  0.86419500  0.62926000  0.47602500  1
  Mg  Mg55  1  0.10512600  0.63580500  0.42914800  1
  Mg  Mg56  1  0.63580500  0.62926000  0.43397500  1
  Mg  Mg57  1  0.89487400  0.13580500  0.58085200  1
  Mg  Mg58  1  0.36419500  0.87074000  0.43397500  1
  Mg  Mg59  1  0.12926000  0.10512600  0.42783900  1
  Mg  Mg60  1  0.62926000  0.10512600  0.58216100  1
  Mg  Mg61  1  0.62926000  0.89487400  0.42783900  1
  Mg  Mg62  1  0.37074000  0.60512600  0.42783900  1
  Mg  Mg63  1  0.36419500  0.62926000  0.53397500  1
  Mg  Mg64  1  0.37074000  0.39487400  0.58216100  1
  Mg  Mg65  1  0.13580500  0.62926000  0.57602500  1
  Mg  Mg66  1  0.60512600  0.36419500  0.42914800  1
  Mg  Mg67  1  0.86419500  0.87074000  0.57602500  1
  Mg  Mg68  1  0.39487400  0.86419500  0.58085200  1
  Mg  Mg69  1  0.63580500  0.87074000  0.53397500  1
  Mg  Mg70  1  0.39487400  0.13580500  0.42914800  1
  Mg  Mg71  1  0.60512600  0.63580500  0.58085200  1
  Mg  Mg72  1  0.37074000  0.89487400  0.52783900  1
  Mg  Mg73  1  0.37074000  0.10512600  0.48216100  1
  Mg  Mg74  1  0.62926000  0.39487400  0.48216100  1
  Mg  Mg75  1  0.63580500  0.37074000  0.57602500  1
  Mg  Mg76  1  0.39487400  0.36419500  0.52914800  1
  Mg  Mg77  1  0.60512600  0.86419500  0.48085200  1
  Mg  Mg78  1  0.36419500  0.12926000  0.57602500  1
  Mg  Mg79  1  0.60512600  0.13580500  0.52914800  1
  Mg  Mg80  1  0.13580500  0.12926000  0.53397500  1
  Mg  Mg81  1  0.39487400  0.63580500  0.48085200  1
  Mg  Mg82  1  0.86419500  0.37074000  0.53397500  1
  Mg  Mg83  1  0.62926000  0.60512600  0.52783900  1
  Mg  Mg84  1  0.12926000  0.60512600  0.48216100  1
  Mg  Mg85  1  0.12926000  0.39487400  0.52783900  1
  Mg  Mg86  1  0.87074000  0.10512600  0.52783900  1
  Mg  Mg87  1  0.86419500  0.12926000  0.43397500  1
  Mg  Mg88  1  0.87074000  0.89487400  0.48216100  1
  Mg  Mg89  1  0.63580500  0.12926000  0.47602500  1
  Mg  Mg90  1  0.10512600  0.86419500  0.52914800  1
  Mg  Mg91  1  0.36419500  0.37074000  0.47602500  1
  Mg  Mg92  1  0.89487400  0.36419500  0.48085200  1
  Mg  Mg93  1  0.13580500  0.37074000  0.43397500  1
  Mg  Mg94  1  0.89487400  0.63580500  0.52914800  1
  Mg  Mg95  1  0.10512600  0.13580500  0.48085200  1
  Mg  Mg96  1  0.87074000  0.39487400  0.62783900  1
  Mg  Mg97  1  0.13580500  0.87074000  0.67602500  1
  Mg  Mg98  1  0.89487400  0.86419500  0.62914800  1
  Mg  Mg99  1  0.86419500  0.62926000  0.67602500  1
  Mg  Mg100  1  0.10512600  0.63580500  0.62914800  1
  Mg  Mg101  1  0.63580500  0.62926000  0.63397500  1
  Mg  Mg102  1  0.36419500  0.87074000  0.63397500  1
  Mg  Mg103  1  0.12926000  0.10512600  0.62783900  1
  Mg  Mg104  1  0.62926000  0.89487400  0.62783900  1
  Mg  Mg105  1  0.37074000  0.60512600  0.62783900  1
  Mg  Mg106  1  0.60512600  0.36419500  0.62914800  1
  Mg  Mg107  1  0.39487400  0.13580500  0.62914800  1
  Mg  Mg108  1  0.37074000  0.10512600  0.68216100  1
  Mg  Mg109  1  0.62926000  0.39487400  0.68216100  1
  Mg  Mg110  1  0.60512600  0.86419500  0.68085200  1
  Mg  Mg111  1  0.39487400  0.63580500  0.68085200  1
  Mg  Mg112  1  0.12926000  0.60512600  0.68216100  1
  Mg  Mg113  1  0.86419500  0.12926000  0.63397500  1
  Mg  Mg114  1  0.87074000  0.89487400  0.68216100  1
  Mg  Mg115  1  0.63580500  0.12926000  0.67602500  1
  Mg  Mg116  1  0.36419500  0.37074000  0.67602500  1
  Mg  Mg117  1  0.89487400  0.36419500  0.68085200  1
  Mg  Mg118  1  0.13580500  0.37074000  0.63397500  1
  Mg  Mg119  1  0.10512600  0.13580500  0.68085200  1
  As  As120  1  1.00000000  0.75000000  0.30058100  1
  As  As121  1  0.25000000  0.77209400  0.35500000  1
  As  As122  1  0.22790600  0.50000000  0.20500000  1
  As  As123  1  0.25000000  0.22790600  0.25500000  1
  As  As124  1  0.27209400  0.50000000  0.30500000  1
  As  As125  1  0.50000000  0.75000000  0.20941900  1
  As  As126  1  0.50000000  0.75000000  0.30941900  1
  As  As127  1  0.25000000  0.72790600  0.25500000  1
  As  As128  1  0.27209400  0.00000000  0.20500000  1
  As  As129  1  0.25000000  0.27209400  0.35500000  1
  As  As130  1  0.22790600  0.00000000  0.30500000  1
  As  As131  1  1.00000000  0.75000000  0.40058100  1
  As  As132  1  0.50000000  0.00000000  0.35500000  1
  As  As133  1  0.00000000  0.00000000  0.35500000  1
  As  As134  1  1.00000000  0.50000000  0.35500000  1
  As  As135  1  0.00000000  0.00000000  0.25500000  1
  As  As136  1  0.50000000  0.25000000  0.40058100  1
  As  As137  1  0.75000000  0.27209400  0.25500000  1
  As  As138  1  0.72790600  0.00000000  0.30500000  1
  As  As139  1  0.75000000  0.72790600  0.35500000  1
  As  As140  1  0.77209400  0.00000000  0.20500000  1
  As  As141  1  0.00000000  0.25000000  0.30941900  1
  As  As142  1  1.00000000  0.25000000  0.20941900  1
  As  As143  1  0.75000000  0.22790600  0.35500000  1
  As  As144  1  0.77209400  0.50000000  0.30500000  1
  As  As145  1  0.75000000  0.77209400  0.25500000  1
  As  As146  1  0.72790600  0.50000000  0.20500000  1
  As  As147  1  0.50000000  0.25000000  0.30058100  1
  As  As148  1  1.00000000  0.50000000  0.25500000  1
  As  As149  1  0.50000000  0.50000000  0.25500000  1
  As  As150  1  0.50000000  0.00000000  0.25500000  1
  As  As151  1  0.50000000  0.50000000  0.35500000  1
  As  As152  1  0.00000000  0.75000000  0.50058100  1
  As  As153  1  0.25000000  0.77209400  0.55500000  1
  As  As154  1  0.22790600  0.50000000  0.40500000  1
  As  As155  1  0.25000000  0.22790600  0.45500000  1
  As  As156  1  0.27209400  0.50000000  0.50500000  1
  As  As157  1  0.50000000  0.75000000  0.40941900  1
  As  As158  1  0.50000000  0.75000000  0.50941900  1
  As  As159  1  0.25000000  0.72790600  0.45500000  1
  As  As160  1  0.27209400  0.00000000  0.40500000  1
  As  As161  1  0.25000000  0.27209400  0.55500000  1
  As  As162  1  0.22790600  0.00000000  0.50500000  1
  As  As163  1  0.00000000  0.75000000  0.60058100  1
  As  As164  1  0.50000000  0.00000000  0.55500000  1
  As  As165  1  0.00000000  0.00000000  0.55500000  1
  As  As166  1  0.00000000  0.50000000  0.55500000  1
  As  As167  1  0.00000000  0.00000000  0.45500000  1
  As  As168  1  0.50000000  0.25000000  0.60058100  1
  As  As169  1  0.75000000  0.27209400  0.45500000  1
  As  As170  1  0.72790600  0.00000000  0.50500000  1
  As  As171  1  0.75000000  0.72790600  0.55500000  1
  As  As172  1  0.77209400  0.00000000  0.40500000  1
  As  As173  1  0.00000000  0.25000000  0.50941900  1
  As  As174  1  0.00000000  0.25000000  0.40941900  1
  As  As175  1  0.75000000  0.22790600  0.55500000  1
  As  As176  1  0.77209400  0.50000000  0.50500000  1
  As  As177  1  0.75000000  0.77209400  0.45500000  1
  As  As178  1  0.72790600  0.50000000  0.40500000  1
  As  As179  1  0.50000000  0.25000000  0.50058100  1
  As  As180  1  1.00000000  0.50000000  0.45500000  1
  As  As181  1  0.50000000  0.50000000  0.45500000  1
  As  As182  1  0.50000000  0.00000000  0.45500000  1
  As  As183  1  0.50000000  0.50000000  0.55500000  1
  As  As184  1  0.00000000  0.75000000  0.70058100  1
  As  As185  1  0.22790600  0.50000000  0.60500000  1
  As  As186  1  0.25000000  0.22790600  0.65500000  1
  As  As187  1  0.27209400  0.50000000  0.70500000  1
  As  As188  1  0.50000000  0.75000000  0.60941900  1
  As  As189  1  0.25000000  0.72790600  0.65500000  1
  As  As190  1  0.27209400  0.00000000  0.60500000  1
  As  As191  1  0.22790600  0.00000000  0.70500000  1
  As  As192  1  0.00000000  0.00000000  0.65500000  1
  As  As193  1  0.75000000  0.27209400  0.65500000  1
  As  As194  1  0.72790600  0.00000000  0.70500000  1
  As  As195  1  0.77209400  0.00000000  0.60500000  1
  As  As196  1  1.00000000  0.25000000  0.60941900  1
  As  As197  1  0.77209400  0.50000000  0.70500000  1
  As  As198  1  0.75000000  0.77209400  0.65500000  1
  As  As199  1  0.72790600  0.50000000  0.60500000  1
  As  As200  1  0.50000000  0.25000000  0.70058100  1
  As  As201  1  0.00000000  0.50000000  0.65500000  1
  As  As202  1  0.50000000  0.50000000  0.65500000  1
  As  As203  1  0.50000000  0.00000000  0.65500000  1
