# generated using pymatgen
data_LiMg2
_symmetry_space_group_name_H-M   'P 1'
_cell_length_a   5.91597348
_cell_length_b   8.55483817
_cell_length_c   41.39076100
_cell_angle_alpha   92.80394366
_cell_angle_beta   91.01073281
_cell_angle_gamma   95.27772267
_symmetry_Int_Tables_number   1
_chemical_formula_structural   LiMg2
_chemical_formula_sum   'Li20 Mg40'
_cell_volume   2082.90014689
_cell_formula_units_Z   20
loop_
 _symmetry_equiv_pos_site_id
 _symmetry_equiv_pos_as_xyz
  1  'x, y, z'
loop_
 _atom_site_type_symbol
 _atom_site_label
 _atom_site_symmetry_multiplicity
 _atom_site_fract_x
 _atom_site_fract_y
 _atom_site_fract_z
 _atom_site_occupancy
  Li  Li0  1  0.21600000  0.42400300  0.19600000  1
  Li  Li1  1  0.53400000  0.01349700  0.24150000  1
  Li  Li2  1  0.96600000  0.48650300  0.25850000  1
  Li  Li3  1  0.28400000  0.07599700  0.30400000  1
  Li  Li4  1  0.71600000  0.54900300  0.32100000  1
  Li  Li5  1  0.03400000  0.13849700  0.36650000  1
  Li  Li6  1  0.46600000  0.61150300  0.38350000  1
  Li  Li7  1  0.78400000  0.20099700  0.42900000  1
  Li  Li8  1  0.21600000  0.67400300  0.44600000  1
  Li  Li9  1  0.53400000  0.26349700  0.49150000  1
  Li  Li10  1  0.96600000  0.73650300  0.50850000  1
  Li  Li11  1  0.28400000  0.32599700  0.55400000  1
  Li  Li12  1  0.71600000  0.79900300  0.57100000  1
  Li  Li13  1  0.03400000  0.38849700  0.61650000  1
  Li  Li14  1  0.46600000  0.86150300  0.63350000  1
  Li  Li15  1  0.78400000  0.45099700  0.67900000  1
  Li  Li16  1  0.21600000  0.92400300  0.69600000  1
  Li  Li17  1  0.53400000  0.51349700  0.74150000  1
  Li  Li18  1  0.96600000  0.98650300  0.75850000  1
  Li  Li19  1  0.28400000  0.57599700  0.80400000  1
  Mg  Mg20  1  0.13300600  0.78079900  0.21674800  1
  Mg  Mg21  1  0.04971700  0.13530800  0.23757100  1
  Mg  Mg22  1  0.61699400  0.65670100  0.22075200  1
  Mg  Mg23  1  0.70028300  0.30219200  0.19992900  1
  Mg  Mg24  1  0.88300600  0.84329900  0.27924800  1
  Mg  Mg25  1  0.79971700  0.19780800  0.30007100  1
  Mg  Mg26  1  0.36699400  0.71920100  0.28325200  1
  Mg  Mg27  1  0.45028300  0.36469200  0.26242900  1
  Mg  Mg28  1  0.63300600  0.90579900  0.34174800  1
  Mg  Mg29  1  0.54971700  0.26030800  0.36257100  1
  Mg  Mg30  1  0.11699400  0.78170100  0.34575200  1
  Mg  Mg31  1  0.20028300  0.42719200  0.32492900  1
  Mg  Mg32  1  0.38300600  0.96829900  0.40424800  1
  Mg  Mg33  1  0.29971700  0.32280800  0.42507100  1
  Mg  Mg34  1  0.86699400  0.84420100  0.40825200  1
  Mg  Mg35  1  0.95028300  0.48969200  0.38742900  1
  Mg  Mg36  1  0.13300600  0.03079900  0.46674800  1
  Mg  Mg37  1  0.04971700  0.38530800  0.48757100  1
  Mg  Mg38  1  0.61699400  0.90670100  0.47075200  1
  Mg  Mg39  1  0.70028300  0.55219200  0.44992900  1
  Mg  Mg40  1  0.88300600  0.09329900  0.52924800  1
  Mg  Mg41  1  0.79971700  0.44780800  0.55007100  1
  Mg  Mg42  1  0.36699400  0.96920100  0.53325200  1
  Mg  Mg43  1  0.45028300  0.61469200  0.51242900  1
  Mg  Mg44  1  0.63300600  0.15579900  0.59174800  1
  Mg  Mg45  1  0.54971700  0.51030800  0.61257100  1
  Mg  Mg46  1  0.11699400  0.03170100  0.59575200  1
  Mg  Mg47  1  0.20028300  0.67719200  0.57492900  1
  Mg  Mg48  1  0.38300600  0.21829900  0.65424800  1
  Mg  Mg49  1  0.29971700  0.57280800  0.67507100  1
  Mg  Mg50  1  0.86699400  0.09420100  0.65825200  1
  Mg  Mg51  1  0.95028300  0.73969200  0.63742900  1
  Mg  Mg52  1  0.13300600  0.28079900  0.71674800  1
  Mg  Mg53  1  0.04971700  0.63530800  0.73757100  1
  Mg  Mg54  1  0.61699400  0.15670100  0.72075200  1
  Mg  Mg55  1  0.70028300  0.80219200  0.69992900  1
  Mg  Mg56  1  0.88300600  0.34329900  0.77924800  1
  Mg  Mg57  1  0.79971700  0.69780800  0.80007100  1
  Mg  Mg58  1  0.36699400  0.21920100  0.78325200  1
  Mg  Mg59  1  0.45028300  0.86469200  0.76242900  1
