# generated using pymatgen
data_MgTe2
_symmetry_space_group_name_H-M   'P 1'
_cell_length_a   10.05447285
_cell_length_b   10.05447185
_cell_length_c   45.52356000
_cell_angle_alpha   83.65980636
_cell_angle_beta   83.65980700
_cell_angle_gamma   59.99999954
_symmetry_Int_Tables_number   1
_chemical_formula_structural   MgTe2
_chemical_formula_sum   'Mg28 Te56'
_cell_volume   3952.98842470
_cell_formula_units_Z   28
loop_
 _symmetry_equiv_pos_site_id
 _symmetry_equiv_pos_as_xyz
  1  'x, y, z'
loop_
 _atom_site_type_symbol
 _atom_site_label
 _atom_site_symmetry_multiplicity
 _atom_site_fract_x
 _atom_site_fract_y
 _atom_site_fract_z
 _atom_site_occupancy
  Mg  Mg0  1  0.81818200  0.81818200  0.22727300  1
  Mg  Mg1  1  0.81818200  0.31818200  0.22727300  1
  Mg  Mg2  1  0.31818200  0.81818200  0.22727300  1
  Mg  Mg3  1  0.31818200  0.31818200  0.22727300  1
  Mg  Mg4  1  0.45454500  0.45454500  0.31818200  1
  Mg  Mg5  1  0.45454500  0.95454500  0.31818200  1
  Mg  Mg6  1  0.95454500  0.45454500  0.31818200  1
  Mg  Mg7  1  0.95454500  0.95454500  0.31818200  1
  Mg  Mg8  1  0.09090900  0.09090900  0.40909100  1
  Mg  Mg9  1  0.09090900  0.59090900  0.40909100  1
  Mg  Mg10  1  0.59090900  0.09090900  0.40909100  1
  Mg  Mg11  1  0.59090900  0.59090900  0.40909100  1
  Mg  Mg12  1  0.72727300  0.72727300  0.50000000  1
  Mg  Mg13  1  0.72727300  0.22727300  0.50000000  1
  Mg  Mg14  1  0.22727300  0.72727300  0.50000000  1
  Mg  Mg15  1  0.22727300  0.22727300  0.50000000  1
  Mg  Mg16  1  0.36363600  0.36363600  0.59090900  1
  Mg  Mg17  1  0.36363600  0.86363600  0.59090900  1
  Mg  Mg18  1  0.86363600  0.36363600  0.59090900  1
  Mg  Mg19  1  0.86363600  0.86363600  0.59090900  1
  Mg  Mg20  1  0.00000000  1.00000000  0.68181800  1
  Mg  Mg21  1  0.00000000  0.50000000  0.68181800  1
  Mg  Mg22  1  0.50000000  0.00000000  0.68181800  1
  Mg  Mg23  1  0.50000000  0.50000000  0.68181800  1
  Mg  Mg24  1  0.63636400  0.63636400  0.77272700  1
  Mg  Mg25  1  0.63636400  0.13636400  0.77272700  1
  Mg  Mg26  1  0.13636400  0.63636400  0.77272700  1
  Mg  Mg27  1  0.13636400  0.13636400  0.77272700  1
  Te  Te28  1  0.14666700  0.14666700  0.24181600  1
  Te  Te29  1  0.57212500  0.84544600  0.19212200  1
  Te  Te30  1  0.07212500  0.57212500  0.19212200  1
  Te  Te31  1  0.84544600  0.07212500  0.19212200  1
  Te  Te32  1  0.48969600  0.48969600  0.21272900  1
  Te  Te33  1  0.06423800  0.79091800  0.26242400  1
  Te  Te34  1  0.56423800  0.06423800  0.26242400  1
  Te  Te35  1  0.79091800  0.56423800  0.26242400  1
  Te  Te36  1  0.78303100  0.78303100  0.33272500  1
  Te  Te37  1  0.20848900  0.48180900  0.28303100  1
  Te  Te38  1  0.70848900  0.20848900  0.28303100  1
  Te  Te39  1  0.48180900  0.70848900  0.28303100  1
  Te  Te40  1  0.12606000  0.12606000  0.30363800  1
  Te  Te41  1  0.70060200  0.42728200  0.35333300  1
  Te  Te42  1  0.20060200  0.70060200  0.35333300  1
  Te  Te43  1  0.42728200  0.20060200  0.35333300  1
  Te  Te44  1  0.41939500  0.41939500  0.42363500  1
  Te  Te45  1  0.84485300  0.11817300  0.37394000  1
  Te  Te46  1  0.34485300  0.84485300  0.37394000  1
  Te  Te47  1  0.11817300  0.34485300  0.37394000  1
  Te  Te48  1  0.76242400  0.76242400  0.39454700  1
  Te  Te49  1  0.33696600  0.06364500  0.44424200  1
  Te  Te50  1  0.83696600  0.33696600  0.44424200  1
  Te  Te51  1  0.06364500  0.83696600  0.44424200  1
  Te  Te52  1  0.05575800  0.05575800  0.51454400  1
  Te  Te53  1  0.48121600  0.75453600  0.46484900  1
  Te  Te54  1  0.98121600  0.48121600  0.46484900  1
  Te  Te55  1  0.75453600  0.98121600  0.46484900  1
  Te  Te56  1  0.39878700  0.39878700  0.48545600  1
  Te  Te57  1  0.97332900  0.70000900  0.53515100  1
  Te  Te58  1  0.47332900  0.97332900  0.53515100  1
  Te  Te59  1  0.70000900  0.47332900  0.53515100  1
  Te  Te60  1  0.69212200  0.69212200  0.60545300  1
  Te  Te61  1  0.11758000  0.39090000  0.55575800  1
  Te  Te62  1  0.61758000  0.11758000  0.55575800  1
  Te  Te63  1  0.39090000  0.61758000  0.55575800  1
  Te  Te64  1  0.03515100  0.03515100  0.57636500  1
  Te  Te65  1  0.60969300  0.33637300  0.62606000  1
  Te  Te66  1  0.10969300  0.60969300  0.62606000  1
  Te  Te67  1  0.33637300  0.10969300  0.62606000  1
  Te  Te68  1  0.32848500  0.32848500  0.69636200  1
  Te  Te69  1  0.75394400  0.02726400  0.64666700  1
  Te  Te70  1  0.25394400  0.75394400  0.64666700  1
  Te  Te71  1  0.02726400  0.25394400  0.64666700  1
  Te  Te72  1  0.67151500  0.67151500  0.66727500  1
  Te  Te73  1  0.24605600  0.97273600  0.71696900  1
  Te  Te74  1  0.74605600  0.24605600  0.71696900  1
  Te  Te75  1  0.97273600  0.74605600  0.71696900  1
  Te  Te76  1  0.96484900  0.96484900  0.78727100  1
  Te  Te77  1  0.39030700  0.66362700  0.73757600  1
  Te  Te78  1  0.89030700  0.39030700  0.73757600  1
  Te  Te79  1  0.66362700  0.89030700  0.73757600  1
  Te  Te80  1  0.30787800  0.30787800  0.75818400  1
  Te  Te81  1  0.88242000  0.60910000  0.80787800  1
  Te  Te82  1  0.38242000  0.88242000  0.80787800  1
  Te  Te83  1  0.60910000  0.38242000  0.80787800  1
