# generated using pymatgen
data_Mg7Zn38
_symmetry_space_group_name_H-M   'P 1'
_cell_length_a   4.98183600
_cell_length_b   9.38239070
_cell_length_c   50.43080200
_cell_angle_alpha   88.98550828
_cell_angle_beta   90.00000000
_cell_angle_gamma   90.00000000
_symmetry_Int_Tables_number   1
_chemical_formula_structural   Mg7Zn38
_chemical_formula_sum   'Mg14 Zn76'
_cell_volume   2356.84343743
_cell_formula_units_Z   2
loop_
 _symmetry_equiv_pos_site_id
 _symmetry_equiv_pos_as_xyz
  1  'x, y, z'
loop_
 _atom_site_type_symbol
 _atom_site_label
 _atom_site_symmetry_multiplicity
 _atom_site_fract_x
 _atom_site_fract_y
 _atom_site_fract_z
 _atom_site_occupancy
  Mg  Mg0  1  0.50000000  0.23046900  0.21908800  1
  Mg  Mg1  1  1.00000000  0.42239300  0.23924600  1
  Mg  Mg2  1  0.50000000  0.24357100  0.48872400  1
  Mg  Mg3  1  0.00000000  0.40929100  0.30294300  1
  Mg  Mg4  1  0.00000000  0.73046900  0.38575400  1
  Mg  Mg5  1  0.50000000  0.92239300  0.40591200  1
  Mg  Mg6  1  0.00000000  0.74357100  0.32205700  1
  Mg  Mg7  1  0.50000000  0.90929100  0.46960900  1
  Mg  Mg8  1  0.50000000  0.23046900  0.55242100  1
  Mg  Mg9  1  1.00000000  0.42239300  0.57257900  1
  Mg  Mg10  1  0.00000000  0.40929100  0.63627600  1
  Mg  Mg11  1  0.00000000  0.73046900  0.71908800  1
  Mg  Mg12  1  0.50000000  0.92239300  0.73924600  1
  Mg  Mg13  1  0.00000000  0.74357100  0.65539100  1
  Zn  Zn14  1  0.50000000  0.57643100  0.47916700  1
  Zn  Zn15  1  0.50000000  0.92279700  0.30141500  1
  Zn  Zn16  1  0.50000000  0.91973800  0.24254100  1
  Zn  Zn17  1  0.50000000  0.41957500  0.27009300  1
  Zn  Zn18  1  1.00000000  0.23328700  0.18824000  1
  Zn  Zn19  1  0.25265100  0.97291500  0.18856500  1
  Zn  Zn20  1  0.24714400  0.47528200  0.18711400  1
  Zn  Zn21  1  0.00000000  0.73006600  0.49025100  1
  Zn  Zn22  1  1.00000000  0.06565100  0.22993500  1
  Zn  Zn23  1  0.74714400  0.17758100  0.27122000  1
  Zn  Zn24  1  0.75285600  0.47528200  0.18711400  1
  Zn  Zn25  1  0.25285600  0.17758100  0.27122000  1
  Zn  Zn26  1  0.75265100  0.67994800  0.26976800  1
  Zn  Zn27  1  0.00000000  0.73312400  0.21579300  1
  Zn  Zn28  1  0.74734900  0.97291500  0.18856500  1
  Zn  Zn29  1  0.24734900  0.67994800  0.26976800  1
  Zn  Zn30  1  1.00000000  0.07643100  0.47916700  1
  Zn  Zn31  1  0.50000000  0.73610800  0.18570300  1
  Zn  Zn32  1  1.00000000  0.91675500  0.27263000  1
  Zn  Zn33  1  0.50000000  0.58721100  0.22839900  1
  Zn  Zn34  1  1.00000000  0.07643100  0.31250000  1
  Zn  Zn35  1  0.00000000  0.42279700  0.46808200  1
  Zn  Zn36  1  0.00000000  0.41973800  0.40920700  1
  Zn  Zn37  1  1.00000000  0.91957500  0.43676000  1
  Zn  Zn38  1  0.50000000  0.73328700  0.35490700  1
  Zn  Zn39  1  0.75265100  0.47291500  0.35523200  1
  Zn  Zn40  1  0.74714400  0.97528200  0.35378000  1
  Zn  Zn41  1  0.50000000  0.23006600  0.32358500  1
  Zn  Zn42  1  0.50000000  0.56565100  0.39660100  1
  Zn  Zn43  1  0.24714400  0.67758100  0.43788600  1
  Zn  Zn44  1  0.25285600  0.97528200  0.35378000  1
  Zn  Zn45  1  0.75285600  0.67758100  0.43788600  1
  Zn  Zn46  1  0.25265100  0.17994800  0.43643500  1
  Zn  Zn47  1  0.50000000  0.23312400  0.38245900  1
  Zn  Zn48  1  0.24734900  0.47291500  0.35523200  1
  Zn  Zn49  1  0.74734900  0.17994800  0.43643500  1
  Zn  Zn50  1  0.50000000  0.57643100  0.31250000  1
  Zn  Zn51  1  1.00000000  0.23610800  0.35237000  1
  Zn  Zn52  1  0.50000000  0.41675500  0.43929700  1
  Zn  Zn53  1  0.00000000  0.08721100  0.39506500  1
  Zn  Zn54  1  0.50000000  0.92279700  0.63474900  1
  Zn  Zn55  1  0.50000000  0.91973800  0.57587400  1
  Zn  Zn56  1  0.50000000  0.41957500  0.60342600  1
  Zn  Zn57  1  0.00000000  0.23328700  0.52157400  1
  Zn  Zn58  1  0.25265100  0.97291500  0.52189900  1
  Zn  Zn59  1  0.24714400  0.47528200  0.52044700  1
  Zn  Zn60  1  0.00000000  0.06565100  0.56326800  1
  Zn  Zn61  1  0.74714400  0.17758100  0.60455300  1
  Zn  Zn62  1  0.75285600  0.47528200  0.52044700  1
  Zn  Zn63  1  0.25285600  0.17758100  0.60455300  1
  Zn  Zn64  1  0.75265100  0.67994800  0.60310100  1
  Zn  Zn65  1  1.00000000  0.73312400  0.54912600  1
  Zn  Zn66  1  0.74734900  0.97291500  0.52189900  1
  Zn  Zn67  1  0.24734900  0.67994800  0.60310100  1
  Zn  Zn68  1  0.50000000  0.73610800  0.51903600  1
  Zn  Zn69  1  1.00000000  0.91675500  0.60596400  1
  Zn  Zn70  1  0.50000000  0.58721100  0.56173200  1
  Zn  Zn71  1  1.00000000  0.07643100  0.64583300  1
  Zn  Zn72  1  0.00000000  0.41973800  0.74254100  1
  Zn  Zn73  1  1.00000000  0.91957500  0.77009300  1
  Zn  Zn74  1  0.50000000  0.73328700  0.68824000  1
  Zn  Zn75  1  0.75265100  0.47291500  0.68856500  1
  Zn  Zn76  1  0.74714400  0.97528200  0.68711400  1
  Zn  Zn77  1  0.50000000  0.23006600  0.65691800  1
  Zn  Zn78  1  0.50000000  0.56565100  0.72993500  1
  Zn  Zn79  1  0.24714400  0.67758100  0.77122000  1
  Zn  Zn80  1  0.25285600  0.97528200  0.68711400  1
  Zn  Zn81  1  0.75285600  0.67758100  0.77122000  1
  Zn  Zn82  1  0.25265100  0.17994800  0.76976800  1
  Zn  Zn83  1  0.50000000  0.23312400  0.71579300  1
  Zn  Zn84  1  0.24734900  0.47291500  0.68856500  1
  Zn  Zn85  1  0.74734900  0.17994800  0.76976800  1
  Zn  Zn86  1  0.50000000  0.57643100  0.64583300  1
  Zn  Zn87  1  0.00000000  0.23610800  0.68570300  1
  Zn  Zn88  1  0.50000000  0.41675500  0.77263000  1
  Zn  Zn89  1  1.00000000  0.08721100  0.72839900  1
