# generated using pymatgen
data_Ba18Mg143
_symmetry_space_group_name_H-M   'P 1'
_cell_length_a   10.57648963
_cell_length_b   15.70975700
_cell_length_c   46.10185000
_cell_angle_alpha   90.00000000
_cell_angle_beta   96.58677793
_cell_angle_gamma   90.00000000
_symmetry_Int_Tables_number   1
_chemical_formula_structural   Ba18Mg143
_chemical_formula_sum   'Ba18 Mg143'
_cell_volume   7609.44884752
_cell_formula_units_Z   1
loop_
 _symmetry_equiv_pos_site_id
 _symmetry_equiv_pos_as_xyz
  1  'x, y, z'
loop_
 _atom_site_type_symbol
 _atom_site_label
 _atom_site_symmetry_multiplicity
 _atom_site_fract_x
 _atom_site_fract_y
 _atom_site_fract_z
 _atom_site_occupancy
  Ba  Ba0  1  0.54149400  0.00363400  0.25087700  1
  Ba  Ba1  1  0.54149400  0.32969900  0.25087700  1
  Ba  Ba2  1  0.60816100  0.33696800  0.38421100  1
  Ba  Ba3  1  0.60816100  0.66303200  0.38421100  1
  Ba  Ba4  1  0.07482800  0.67030100  0.31754400  1
  Ba  Ba5  1  0.07482800  0.99636600  0.31754400  1
  Ba  Ba6  1  0.14149400  0.00363400  0.45087700  1
  Ba  Ba7  1  0.14149400  0.32969900  0.45087700  1
  Ba  Ba8  1  0.20816100  0.33696800  0.58421100  1
  Ba  Ba9  1  0.20816100  0.66303200  0.58421100  1
  Ba  Ba10  1  0.67482800  0.67030100  0.51754400  1
  Ba  Ba11  1  0.67482800  0.99636600  0.51754400  1
  Ba  Ba12  1  0.74149400  0.00363400  0.65087700  1
  Ba  Ba13  1  0.74149400  0.32969900  0.65087700  1
  Ba  Ba14  1  0.80816100  0.33696800  0.78421100  1
  Ba  Ba15  1  0.80816100  0.66303200  0.78421100  1
  Ba  Ba16  1  0.27482800  0.67030100  0.71754400  1
  Ba  Ba17  1  0.27482800  0.99636600  0.71754400  1
  Mg  Mg18  1  0.57520800  0.17998800  0.31830500  1
  Mg  Mg19  1  0.30549800  0.15334500  0.28459100  1
  Mg  Mg20  1  0.54149400  0.76345300  0.25087700  1
  Mg  Mg21  1  0.72517200  0.00000000  0.32570500  1
  Mg  Mg22  1  0.54149400  0.56988000  0.25087700  1
  Mg  Mg23  1  0.78230000  0.33333300  0.31754400  1
  Mg  Mg24  1  0.34149400  0.16666700  0.35087700  1
  Mg  Mg25  1  0.43264400  0.00000000  0.32570500  1
  Mg  Mg26  1  0.10778100  0.15334500  0.38345000  1
  Mg  Mg27  1  0.81120500  0.15334500  0.28459100  1
  Mg  Mg28  1  0.57482800  0.83333300  0.31754400  1
  Mg  Mg29  1  0.36735600  0.33333300  0.31754400  1
  Mg  Mg30  1  0.84149400  0.16666700  0.35087700  1
  Mg  Mg31  1  0.95781600  0.33333300  0.37604900  1
  Mg  Mg32  1  0.04187500  0.51332200  0.25163800  1
  Mg  Mg33  1  0.60816100  0.09678600  0.38421100  1
  Mg  Mg34  1  0.25034500  0.33333300  0.37604900  1
  Mg  Mg35  1  0.19183900  0.33333300  0.25903800  1
  Mg  Mg36  1  0.33845100  0.51332200  0.35049700  1
  Mg  Mg37  1  0.60816100  0.90321400  0.38421100  1
  Mg  Mg38  1  0.24896600  0.66666700  0.25087700  1
  Mg  Mg39  1  0.80816100  0.50000000  0.28421100  1
  Mg  Mg40  1  0.89931100  0.33333300  0.25903800  1
  Mg  Mg41  1  0.84415700  0.51332200  0.35049700  1
  Mg  Mg42  1  0.57444700  0.48667800  0.31678300  1
  Mg  Mg43  1  0.04149400  0.16666700  0.25087700  1
  Mg  Mg44  1  0.83402300  0.66666700  0.25087700  1
  Mg  Mg45  1  0.30816100  0.50000000  0.28421100  1
  Mg  Mg46  1  0.42448300  0.66666700  0.30938300  1
  Mg  Mg47  1  0.10854100  0.84665500  0.38497100  1
  Mg  Mg48  1  0.83883100  0.82001200  0.35125800  1
  Mg  Mg49  1  0.07482800  0.43012000  0.31754400  1
  Mg  Mg50  1  0.71701100  0.66666700  0.30938300  1
  Mg  Mg51  1  0.80511800  0.84665500  0.28383000  1
  Mg  Mg52  1  0.07482800  0.23654700  0.31754400  1
  Mg  Mg53  1  0.31563300  0.00000000  0.38421100  1
  Mg  Mg54  1  0.31082400  0.84665500  0.28383000  1
  Mg  Mg55  1  0.04111400  0.82001200  0.25011600  1
  Mg  Mg56  1  0.34453800  0.82001200  0.35125800  1
  Mg  Mg57  1  0.10816100  0.50000000  0.38421100  1
  Mg  Mg58  1  0.90068900  0.00000000  0.38421100  1
  Mg  Mg59  1  0.49115000  0.00000000  0.44271600  1
  Mg  Mg60  1  0.17520800  0.17998800  0.51830500  1
  Mg  Mg61  1  0.90549800  0.15334500  0.48459100  1
  Mg  Mg62  1  0.14149400  0.76345300  0.45087700  1
  Mg  Mg63  1  0.78367800  0.00000000  0.44271600  1
  Mg  Mg64  1  0.32517200  0.00000000  0.52570500  1
  Mg  Mg65  1  0.87178400  0.17998800  0.41716300  1
  Mg  Mg66  1  0.14149400  0.56988000  0.45087700  1
  Mg  Mg67  1  0.38230000  0.33333300  0.51754400  1
  Mg  Mg68  1  0.94149400  0.16666700  0.55087700  1
  Mg  Mg69  1  0.03264400  0.00000000  0.52570500  1
  Mg  Mg70  1  0.37749100  0.17998800  0.41716300  1
  Mg  Mg71  1  0.70778100  0.15334500  0.58345000  1
  Mg  Mg72  1  0.41120500  0.15334500  0.48459100  1
  Mg  Mg73  1  0.17482800  0.83333300  0.51754400  1
  Mg  Mg74  1  0.96735600  0.33333300  0.51754400  1
  Mg  Mg75  1  0.44149400  0.16666700  0.55087700  1
  Mg  Mg76  1  0.55781600  0.33333300  0.57604900  1
  Mg  Mg77  1  0.64187500  0.51332200  0.45163800  1
  Mg  Mg78  1  0.37216500  0.48667800  0.41792400  1
  Mg  Mg79  1  0.20816100  0.09678600  0.58421100  1
  Mg  Mg80  1  0.85034500  0.33333300  0.57604900  1
  Mg  Mg81  1  0.79183900  0.33333300  0.45903800  1
  Mg  Mg82  1  0.93845100  0.51332200  0.55049700  1
  Mg  Mg83  1  0.20816100  0.90321400  0.58421100  1
  Mg  Mg84  1  0.84896600  0.66666700  0.45087700  1
  Mg  Mg85  1  0.40816100  0.50000000  0.48421100  1
  Mg  Mg86  1  0.49931100  0.33333300  0.45903800  1
  Mg  Mg87  1  0.44415700  0.51332200  0.55049700  1
  Mg  Mg88  1  0.17444700  0.48667800  0.51678300  1
  Mg  Mg89  1  0.87787100  0.48667800  0.41792400  1
  Mg  Mg90  1  0.64149400  0.16666700  0.45087700  1
  Mg  Mg91  1  0.43402300  0.66666700  0.45087700  1
  Mg  Mg92  1  0.90816100  0.50000000  0.48421100  1
  Mg  Mg93  1  0.02448300  0.66666700  0.50938300  1
  Mg  Mg94  1  0.70854100  0.84665500  0.58497100  1
  Mg  Mg95  1  0.43883100  0.82001200  0.55125800  1
  Mg  Mg96  1  0.67482800  0.43012000  0.51754400  1
  Mg  Mg97  1  0.31701100  0.66666700  0.50938300  1
  Mg  Mg98  1  0.25850600  0.66666700  0.39237200  1
  Mg  Mg99  1  0.40511800  0.84665500  0.48383000  1
  Mg  Mg100  1  0.67482800  0.23654700  0.51754400  1
  Mg  Mg101  1  0.91563300  0.00000000  0.58421100  1
  Mg  Mg102  1  0.87482800  0.83333300  0.41754400  1
  Mg  Mg103  1  0.96597700  0.66666700  0.39237200  1
  Mg  Mg104  1  0.91082400  0.84665500  0.48383000  1
  Mg  Mg105  1  0.64111400  0.82001200  0.45011600  1
  Mg  Mg106  1  0.94453800  0.82001200  0.55125800  1
  Mg  Mg107  1  0.70816100  0.50000000  0.58421100  1
  Mg  Mg108  1  0.50068900  0.00000000  0.58421100  1
  Mg  Mg109  1  0.37482800  0.83333300  0.41754400  1
  Mg  Mg110  1  0.09115000  0.00000000  0.64271600  1
  Mg  Mg111  1  0.77520800  0.17998800  0.71830500  1
  Mg  Mg112  1  0.50549800  0.15334500  0.68459100  1
  Mg  Mg113  1  0.74149400  0.76345300  0.65087700  1
  Mg  Mg114  1  0.38367800  0.00000000  0.64271600  1
  Mg  Mg115  1  0.92517200  0.00000000  0.72570500  1
  Mg  Mg116  1  0.47178400  0.17998800  0.61716300  1
  Mg  Mg117  1  0.74149400  0.56988000  0.65087700  1
  Mg  Mg118  1  0.98230000  0.33333300  0.71754400  1
  Mg  Mg119  1  0.54149400  0.16666700  0.75087700  1
  Mg  Mg120  1  0.63264400  0.00000000  0.72570500  1
  Mg  Mg121  1  0.97749100  0.17998800  0.61716300  1
  Mg  Mg122  1  0.30778100  0.15334500  0.78345000  1
  Mg  Mg123  1  0.01120500  0.15334500  0.68459100  1
  Mg  Mg124  1  0.77482800  0.83333300  0.71754400  1
  Mg  Mg125  1  0.56735600  0.33333300  0.71754400  1
  Mg  Mg126  1  0.04149400  0.16666700  0.75087700  1
  Mg  Mg127  1  0.15781600  0.33333300  0.77604900  1
  Mg  Mg128  1  0.24187500  0.51332200  0.65163800  1
  Mg  Mg129  1  0.97216500  0.48667800  0.61792400  1
  Mg  Mg130  1  0.80816100  0.09678600  0.78421100  1
  Mg  Mg131  1  0.45034500  0.33333300  0.77604900  1
  Mg  Mg132  1  0.39183900  0.33333300  0.65903800  1
  Mg  Mg133  1  0.53845100  0.51332200  0.75049700  1
  Mg  Mg134  1  0.80816100  0.90321400  0.78421100  1
  Mg  Mg135  1  0.44896600  0.66666700  0.65087700  1
  Mg  Mg136  1  0.00816100  0.50000000  0.68421100  1
  Mg  Mg137  1  0.09931100  0.33333300  0.65903800  1
  Mg  Mg138  1  0.04415700  0.51332200  0.75049700  1
  Mg  Mg139  1  0.77444700  0.48667800  0.71678300  1
  Mg  Mg140  1  0.47787100  0.48667800  0.61792400  1
  Mg  Mg141  1  0.24149400  0.16666700  0.65087700  1
  Mg  Mg142  1  0.03402300  0.66666700  0.65087700  1
  Mg  Mg143  1  0.50816100  0.50000000  0.68421100  1
  Mg  Mg144  1  0.62448300  0.66666700  0.70938300  1
  Mg  Mg145  1  0.30854100  0.84665500  0.78497100  1
  Mg  Mg146  1  0.03883100  0.82001200  0.75125800  1
  Mg  Mg147  1  0.27482800  0.43012000  0.71754400  1
  Mg  Mg148  1  0.91701100  0.66666700  0.70938300  1
  Mg  Mg149  1  0.85850600  0.66666700  0.59237200  1
  Mg  Mg150  1  0.00511800  0.84665500  0.68383000  1
  Mg  Mg151  1  0.27482800  0.23654700  0.71754400  1
  Mg  Mg152  1  0.51563300  0.00000000  0.78421100  1
  Mg  Mg153  1  0.47482800  0.83333300  0.61754400  1
  Mg  Mg154  1  0.56597700  0.66666700  0.59237200  1
  Mg  Mg155  1  0.51082400  0.84665500  0.68383000  1
  Mg  Mg156  1  0.24111400  0.82001200  0.65011600  1
  Mg  Mg157  1  0.54453800  0.82001200  0.75125800  1
  Mg  Mg158  1  0.30816100  0.50000000  0.78421100  1
  Mg  Mg159  1  0.10068900  0.00000000  0.78421100  1
  Mg  Mg160  1  0.97482800  0.83333300  0.61754400  1
