# generated using pymatgen
data_Th12Mg23
_symmetry_space_group_name_H-M   'P 1'
_cell_length_a   6.04237963
_cell_length_b   6.04237990
_cell_length_c   49.45900700
_cell_angle_alpha   86.49792394
_cell_angle_beta   86.49792378
_cell_angle_gamma   59.99999951
_symmetry_Int_Tables_number   1
_chemical_formula_structural   Th12Mg23
_chemical_formula_sum   'Th12 Mg23'
_cell_volume   1559.94406624
_cell_formula_units_Z   1
loop_
 _symmetry_equiv_pos_site_id
 _symmetry_equiv_pos_as_xyz
  1  'x, y, z'
loop_
 _atom_site_type_symbol
 _atom_site_label
 _atom_site_symmetry_multiplicity
 _atom_site_fract_x
 _atom_site_fract_y
 _atom_site_fract_z
 _atom_site_occupancy
  Th  Th0  1  0.42083300  0.64166700  0.29583300  1
  Th  Th1  1  0.44583300  0.66666700  0.22083300  1
  Th  Th2  1  0.72083300  0.94166700  0.39583300  1
  Th  Th3  1  0.74583300  0.96666700  0.32083300  1
  Th  Th4  1  0.02083300  0.24166700  0.49583300  1
  Th  Th5  1  0.04583300  0.26666700  0.42083300  1
  Th  Th6  1  0.32083300  0.54166700  0.59583300  1
  Th  Th7  1  0.34583300  0.56666700  0.52083300  1
  Th  Th8  1  0.62083300  0.84166700  0.69583300  1
  Th  Th9  1  0.64583300  0.86666700  0.62083300  1
  Th  Th10  1  0.92083300  0.14166700  0.79583300  1
  Th  Th11  1  0.94583300  0.16666700  0.72083300  1
  Mg  Mg12  1  0.93333300  0.65416700  0.25833300  1
  Mg  Mg13  1  0.93333300  0.15416700  0.25833300  1
  Mg  Mg14  1  0.43333300  0.15416700  0.25833300  1
  Mg  Mg15  1  0.23333300  0.95416700  0.35833300  1
  Mg  Mg16  1  0.23333300  0.45416700  0.35833300  1
  Mg  Mg17  1  0.73333300  0.45416700  0.35833300  1
  Mg  Mg18  1  0.08333300  0.30416700  0.30833300  1
  Mg  Mg19  1  0.53333300  0.25416700  0.45833300  1
  Mg  Mg20  1  0.53333300  0.75416700  0.45833300  1
  Mg  Mg21  1  0.03333300  0.75416700  0.45833300  1
  Mg  Mg22  1  0.38333300  0.60416700  0.40833300  1
  Mg  Mg23  1  0.83333300  0.55416700  0.55833300  1
  Mg  Mg24  1  0.83333300  0.05416700  0.55833300  1
  Mg  Mg25  1  0.33333300  0.05416700  0.55833300  1
  Mg  Mg26  1  0.68333300  0.90416700  0.50833300  1
  Mg  Mg27  1  0.13333300  0.85416700  0.65833300  1
  Mg  Mg28  1  0.13333300  0.35416700  0.65833300  1
  Mg  Mg29  1  0.63333300  0.35416700  0.65833300  1
  Mg  Mg30  1  0.98333300  0.20416700  0.60833300  1
  Mg  Mg31  1  0.43333300  0.15416700  0.75833300  1
  Mg  Mg32  1  0.43333300  0.65416700  0.75833300  1
  Mg  Mg33  1  0.93333300  0.65416700  0.75833300  1
  Mg  Mg34  1  0.28333300  0.50416700  0.70833300  1
