# generated using pymatgen
data_Yb8Mg3
_symmetry_space_group_name_H-M   'P 1'
_cell_length_a   3.76282700
_cell_length_b   5.87266200
_cell_length_c   55.68846400
_cell_angle_alpha   90.00000000
_cell_angle_beta   90.00000000
_cell_angle_gamma   90.00000000
_symmetry_Int_Tables_number   1
_chemical_formula_structural   Yb8Mg3
_chemical_formula_sum   'Yb16 Mg6'
_cell_volume   1230.59315990
_cell_formula_units_Z   2
loop_
 _symmetry_equiv_pos_site_id
 _symmetry_equiv_pos_as_xyz
  1  'x, y, z'
loop_
 _atom_site_type_symbol
 _atom_site_label
 _atom_site_symmetry_multiplicity
 _atom_site_fract_x
 _atom_site_fract_y
 _atom_site_fract_z
 _atom_site_occupancy
  Yb  Yb0  1  0.50000000  0.25000000  0.16965700  1
  Yb  Yb1  1  0.00000000  0.25000000  0.23333900  1
  Yb  Yb2  1  0.00000000  0.75000000  0.27478700  1
  Yb  Yb3  1  0.50000000  0.75000000  0.21110600  1
  Yb  Yb4  1  0.00000000  0.25000000  0.33632400  1
  Yb  Yb5  1  0.50000000  0.25000000  0.40000500  1
  Yb  Yb6  1  0.50000000  0.75000000  0.44145400  1
  Yb  Yb7  1  0.00000000  0.75000000  0.37777200  1
  Yb  Yb8  1  0.50000000  0.25000000  0.50299100  1
  Yb  Yb9  1  1.00000000  0.25000000  0.56667200  1
  Yb  Yb10  1  0.00000000  0.75000000  0.60812000  1
  Yb  Yb11  1  0.50000000  0.75000000  0.54443900  1
  Yb  Yb12  1  1.00000000  0.25000000  0.66965700  1
  Yb  Yb13  1  0.50000000  0.25000000  0.73333900  1
  Yb  Yb14  1  0.50000000  0.75000000  0.77478700  1
  Yb  Yb15  1  1.00000000  0.75000000  0.71110600  1
  Mg  Mg16  1  0.50000000  0.25000000  0.28572500  1
  Mg  Mg17  1  1.00000000  0.75000000  0.49205300  1
  Mg  Mg18  1  1.00000000  0.25000000  0.45239100  1
  Mg  Mg19  1  0.50000000  0.75000000  0.32538600  1
  Mg  Mg20  1  0.50000000  0.25000000  0.61905800  1
  Mg  Mg21  1  0.50000000  0.75000000  0.65872000  1
