# generated using pymatgen
data_Mg104Zn191
_symmetry_space_group_name_H-M   'P 1'
_cell_length_a   13.26606221
_cell_length_b   15.53344873
_cell_length_c   48.04736100
_cell_angle_alpha   89.05057746
_cell_angle_beta   95.72936823
_cell_angle_gamma   107.07914806
_symmetry_Int_Tables_number   1
_chemical_formula_structural   Mg104Zn191
_chemical_formula_sum   'Mg104 Zn191'
_cell_volume   9416.24909417
_cell_formula_units_Z   1
loop_
 _symmetry_equiv_pos_site_id
 _symmetry_equiv_pos_as_xyz
  1  'x, y, z'
loop_
 _atom_site_type_symbol
 _atom_site_label
 _atom_site_symmetry_multiplicity
 _atom_site_fract_x
 _atom_site_fract_y
 _atom_site_fract_z
 _atom_site_occupancy
  Mg  Mg0  1  0.88387300  0.03839700  0.28016100  1
  Mg  Mg1  1  0.11612700  0.12887500  0.28347600  1
  Mg  Mg2  1  0.68159700  0.34380000  0.29081100  1
  Mg  Mg3  1  0.31840300  0.82347200  0.27282500  1
  Mg  Mg4  1  0.74900600  0.03105400  0.32941600  1
  Mg  Mg5  1  0.06923400  0.87958900  0.36434600  1
  Mg  Mg6  1  0.60977900  0.48075600  0.32662100  1
  Mg  Mg7  1  0.88387300  0.13839700  0.38016100  1
  Mg  Mg8  1  0.96931900  0.72396700  0.31999400  1
  Mg  Mg9  1  0.57175100  0.13721100  0.30734000  1
  Mg  Mg10  1  0.71853500  0.68861600  0.31025400  1
  Mg  Mg11  1  0.11612700  0.22887500  0.38347600  1
  Mg  Mg12  1  0.64336400  0.82445200  0.34645000  1
  Mg  Mg13  1  0.03068100  0.54330500  0.34364200  1
  Mg  Mg14  1  0.39022100  0.78651500  0.33701500  1
  Mg  Mg15  1  0.35663600  0.44282000  0.31718600  1
  Mg  Mg16  1  0.01360900  0.04887700  0.34214800  1
  Mg  Mg17  1  0.68159700  0.44380000  0.39081100  1
  Mg  Mg18  1  0.31840300  0.92347200  0.37282500  1
  Mg  Mg19  1  0.28146500  0.57865600  0.35338200  1
  Mg  Mg20  1  0.25099400  0.23621700  0.33422000  1
  Mg  Mg21  1  0.42824900  0.13006100  0.35629600  1
  Mg  Mg22  1  0.93076600  0.38768300  0.29929000  1
  Mg  Mg23  1  0.98639100  0.21839500  0.32148900  1
  Mg  Mg24  1  0.74900600  0.13105400  0.42941600  1
  Mg  Mg25  1  0.06923400  0.97958900  0.46434600  1
  Mg  Mg26  1  0.60977900  0.58075600  0.42662100  1
  Mg  Mg27  1  0.88387300  0.23839700  0.48016100  1
  Mg  Mg28  1  0.96931900  0.82396700  0.41999400  1
  Mg  Mg29  1  0.57175100  0.23721100  0.40734000  1
  Mg  Mg30  1  0.71853500  0.78861600  0.41025400  1
  Mg  Mg31  1  0.11612700  0.32887500  0.48347600  1
  Mg  Mg32  1  0.64336400  0.92445200  0.44645000  1
  Mg  Mg33  1  0.03068100  0.64330500  0.44364200  1
  Mg  Mg34  1  0.39022100  0.88651500  0.43701500  1
  Mg  Mg35  1  0.35663600  0.54282000  0.41718600  1
  Mg  Mg36  1  0.01360900  0.14887700  0.44214800  1
  Mg  Mg37  1  0.68159700  0.54380000  0.49081100  1
  Mg  Mg38  1  0.31840300  0.02347200  0.47282500  1
  Mg  Mg39  1  0.28146500  0.67865600  0.45338200  1
  Mg  Mg40  1  0.25099400  0.33621700  0.43422000  1
  Mg  Mg41  1  0.42824900  0.23006100  0.45629600  1
  Mg  Mg42  1  0.93076600  0.48768300  0.39929000  1
  Mg  Mg43  1  0.98639100  0.31839500  0.42148900  1
  Mg  Mg44  1  0.74900600  0.23105400  0.52941600  1
  Mg  Mg45  1  0.06923400  0.07958900  0.56434600  1
  Mg  Mg46  1  0.60977900  0.68075600  0.52662100  1
  Mg  Mg47  1  0.88387300  0.33839700  0.58016100  1
  Mg  Mg48  1  0.96931900  0.92396700  0.51999400  1
  Mg  Mg49  1  0.57175100  0.33721100  0.50734000  1
  Mg  Mg50  1  0.71853500  0.88861600  0.51025400  1
  Mg  Mg51  1  0.11612700  0.42887500  0.58347600  1
  Mg  Mg52  1  0.64336400  0.02445200  0.54645000  1
  Mg  Mg53  1  0.03068100  0.74330500  0.54364200  1
  Mg  Mg54  1  0.39022100  0.98651500  0.53701500  1
  Mg  Mg55  1  0.35663600  0.64282000  0.51718600  1
  Mg  Mg56  1  0.01360900  0.24887700  0.54214800  1
  Mg  Mg57  1  0.68159700  0.64380000  0.59081100  1
  Mg  Mg58  1  0.31840300  0.12347200  0.57282500  1
  Mg  Mg59  1  0.28146500  0.77865600  0.55338200  1
  Mg  Mg60  1  0.25099400  0.43621700  0.53422000  1
  Mg  Mg61  1  0.42824900  0.33006100  0.55629600  1
  Mg  Mg62  1  0.93076600  0.58768300  0.49929000  1
  Mg  Mg63  1  0.98639100  0.41839500  0.52148900  1
  Mg  Mg64  1  0.74900600  0.33105400  0.62941600  1
  Mg  Mg65  1  0.06923400  0.17958900  0.66434600  1
  Mg  Mg66  1  0.60977900  0.78075600  0.62662100  1
  Mg  Mg67  1  0.88387300  0.43839700  0.68016100  1
  Mg  Mg68  1  0.96931900  0.02396700  0.61999400  1
  Mg  Mg69  1  0.57175100  0.43721100  0.60734000  1
  Mg  Mg70  1  0.71853500  0.98861600  0.61025400  1
  Mg  Mg71  1  0.11612700  0.52887500  0.68347600  1
  Mg  Mg72  1  0.64336400  0.12445200  0.64645000  1
  Mg  Mg73  1  0.03068100  0.84330500  0.64364200  1
  Mg  Mg74  1  0.39022100  0.08651500  0.63701500  1
  Mg  Mg75  1  0.35663600  0.74282000  0.61718600  1
  Mg  Mg76  1  0.01360900  0.34887700  0.64214800  1
  Mg  Mg77  1  0.68159700  0.74380000  0.69081100  1
  Mg  Mg78  1  0.31840300  0.22347200  0.67282500  1
  Mg  Mg79  1  0.28146500  0.87865600  0.65338200  1
  Mg  Mg80  1  0.25099400  0.53621700  0.63422000  1
  Mg  Mg81  1  0.42824900  0.43006100  0.65629600  1
  Mg  Mg82  1  0.93076600  0.68768300  0.59929000  1
  Mg  Mg83  1  0.98639100  0.51839500  0.62148900  1
  Mg  Mg84  1  0.74900600  0.43105400  0.72941600  1
  Mg  Mg85  1  0.06923400  0.27958900  0.76434600  1
  Mg  Mg86  1  0.60977900  0.88075600  0.72662100  1
  Mg  Mg87  1  0.88387300  0.53839700  0.78016100  1
  Mg  Mg88  1  0.96931900  0.12396700  0.71999400  1
  Mg  Mg89  1  0.57175100  0.53721100  0.70734000  1
  Mg  Mg90  1  0.71853500  0.08861600  0.71025400  1
  Mg  Mg91  1  0.11612700  0.62887500  0.78347600  1
  Mg  Mg92  1  0.64336400  0.22445200  0.74645000  1
  Mg  Mg93  1  0.03068100  0.94330500  0.74364200  1
  Mg  Mg94  1  0.39022100  0.18651500  0.73701500  1
  Mg  Mg95  1  0.35663600  0.84282000  0.71718600  1
  Mg  Mg96  1  0.01360900  0.44887700  0.74214800  1
  Mg  Mg97  1  0.68159700  0.84380000  0.79081100  1
  Mg  Mg98  1  0.31840300  0.32347200  0.77282500  1
  Mg  Mg99  1  0.28146500  0.97865600  0.75338200  1
  Mg  Mg100  1  0.25099400  0.63621700  0.73422000  1
  Mg  Mg101  1  0.42824900  0.53006100  0.75629600  1
  Mg  Mg102  1  0.93076600  0.78768300  0.69929000  1
  Mg  Mg103  1  0.98639100  0.61839500  0.72148900  1
  Zn  Zn104  1  0.84920500  0.65956700  0.26546000  1
  Zn  Zn105  1  0.51358900  0.75553100  0.29086100  1
  Zn  Zn106  1  0.14473200  0.33941300  0.28928400  1
  Zn  Zn107  1  0.15079500  0.50770500  0.29817700  1
  Zn  Zn108  1  0.65881200  0.03354100  0.26852700  1
  Zn  Zn109  1  0.66294100  0.53650000  0.26828400  1
  Zn  Zn110  1  0.33705900  0.63077100  0.29535300  1
  Zn  Zn111  1  0.50000000  0.58363600  0.28181800  1
  Zn  Zn112  1  0.69712500  0.87513100  0.28877600  1
  Zn  Zn113  1  0.79093800  0.18666200  0.28700600  1
  Zn  Zn114  1  0.30287500  0.29214100  0.27486100  1
  Zn  Zn115  1  0.20906200  0.98061000  0.27663000  1
  Zn  Zn116  1  0.85526800  0.82785900  0.27435200  1
  Zn  Zn117  1  0.00000000  0.58363600  0.28181800  1
  Zn  Zn118  1  0.34118800  0.13373100  0.29511000  1
  Zn  Zn119  1  0.48641100  0.41174100  0.27277500  1
  Zn  Zn120  1  0.84920500  0.75956700  0.36546000  1
  Zn  Zn121  1  0.03575800  0.92114500  0.30194000  1
  Zn  Zn122  1  0.51358900  0.85553100  0.39086100  1
  Zn  Zn123  1  0.14473200  0.43941300  0.38928400  1
  Zn  Zn124  1  0.17856500  0.68713600  0.30855400  1
  Zn  Zn125  1  0.85936100  0.87732100  0.32503500  1
  Zn  Zn126  1  0.50000000  0.63363600  0.33181800  1
  Zn  Zn127  1  0.15079500  0.60770500  0.39817700  1
  Zn  Zn128  1  0.37496700  0.97891900  0.31419500  1
  Zn  Zn129  1  0.82105800  0.53065600  0.30571600  1
  Zn  Zn130  1  0.53087400  0.92754900  0.30125500  1
  Zn  Zn131  1  0.65881200  0.13354100  0.36852700  1
  Zn  Zn132  1  0.66294100  0.63650000  0.36828400  1
  Zn  Zn133  1  0.80881900  0.41438600  0.34494600  1
  Zn  Zn134  1  0.96424200  0.34612600  0.36169600  1
  Zn  Zn135  1  0.62503300  0.28835200  0.34944100  1
  Zn  Zn136  1  0.78829600  0.23682700  0.33535200  1
  Zn  Zn137  1  0.17894200  0.73661600  0.35792100  1
  Zn  Zn138  1  0.14063900  0.38995100  0.33860200  1
  Zn  Zn139  1  0.33705900  0.73077100  0.39535300  1
  Zn  Zn140  1  0.21170400  0.03044500  0.32828400  1
  Zn  Zn141  1  0.82143500  0.58013600  0.35508200  1
  Zn  Zn142  1  0.50000000  0.68363600  0.38181800  1
  Zn  Zn143  1  0.69712500  0.97513100  0.38877600  1
  Zn  Zn144  1  0.52936800  0.97754100  0.35072100  1
  Zn  Zn145  1  0.79093800  0.28666200  0.38700600  1
  Zn  Zn146  1  0.30287500  0.39214100  0.37486100  1
  Zn  Zn147  1  0.20906200  0.08061000  0.37663000  1
  Zn  Zn148  1  0.19118100  0.85288500  0.31869000  1
  Zn  Zn149  1  0.47063200  0.28973100  0.31291500  1
  Zn  Zn150  1  0.85526800  0.92785900  0.37435200  1
  Zn  Zn151  1  0.00000000  0.68363600  0.38181800  1
  Zn  Zn152  1  0.46912600  0.33972300  0.36238100  1
  Zn  Zn153  1  0.34118800  0.23373100  0.39511000  1
  Zn  Zn154  1  0.48641100  0.51174100  0.37277500  1
  Zn  Zn155  1  0.84920500  0.85956700  0.46546000  1
  Zn  Zn156  1  0.03575800  0.02114500  0.40194000  1
  Zn  Zn157  1  0.51358900  0.95553100  0.49086100  1
  Zn  Zn158  1  0.14473200  0.53941300  0.48928400  1
  Zn  Zn159  1  0.17856500  0.78713600  0.40855400  1
  Zn  Zn160  1  0.85936100  0.97732100  0.42503500  1
  Zn  Zn161  1  0.50000000  0.73363600  0.43181800  1
  Zn  Zn162  1  0.15079500  0.70770500  0.49817700  1
  Zn  Zn163  1  0.37496700  0.07891900  0.41419500  1
  Zn  Zn164  1  0.82105800  0.63065600  0.40571600  1
  Zn  Zn165  1  0.53087400  0.02754900  0.40125500  1
  Zn  Zn166  1  0.65881200  0.23354100  0.46852700  1
  Zn  Zn167  1  0.66294100  0.73650000  0.46828400  1
  Zn  Zn168  1  0.80881900  0.51438600  0.44494600  1
  Zn  Zn169  1  0.96424200  0.44612600  0.46169600  1
  Zn  Zn170  1  0.62503300  0.38835200  0.44944100  1
  Zn  Zn171  1  0.78829600  0.33682700  0.43535200  1
  Zn  Zn172  1  0.17894200  0.83661600  0.45792100  1
  Zn  Zn173  1  0.14063900  0.48995100  0.43860200  1
  Zn  Zn174  1  0.33705900  0.83077100  0.49535300  1
  Zn  Zn175  1  0.21170400  0.13044500  0.42828400  1
  Zn  Zn176  1  0.82143500  0.68013600  0.45508200  1
  Zn  Zn177  1  0.50000000  0.78363600  0.48181800  1
  Zn  Zn178  1  0.69712500  0.07513100  0.48877600  1
  Zn  Zn179  1  0.52936800  0.07754100  0.45072100  1
  Zn  Zn180  1  0.79093800  0.38666200  0.48700600  1
  Zn  Zn181  1  0.30287500  0.49214100  0.47486100  1
  Zn  Zn182  1  0.20906200  0.18061000  0.47663000  1
  Zn  Zn183  1  0.19118100  0.95288500  0.41869000  1
  Zn  Zn184  1  0.47063200  0.38973100  0.41291500  1
  Zn  Zn185  1  0.85526800  0.02785900  0.47435200  1
  Zn  Zn186  1  0.00000000  0.78363600  0.48181800  1
  Zn  Zn187  1  0.46912600  0.43972300  0.46238100  1
  Zn  Zn188  1  0.34118800  0.33373100  0.49511000  1
  Zn  Zn189  1  0.48641100  0.61174100  0.47277500  1
  Zn  Zn190  1  0.84920500  0.95956700  0.56546000  1
  Zn  Zn191  1  0.03575800  0.12114500  0.50194000  1
  Zn  Zn192  1  0.51358900  0.05553100  0.59086100  1
  Zn  Zn193  1  0.14473200  0.63941300  0.58928400  1
  Zn  Zn194  1  0.17856500  0.88713600  0.50855400  1
  Zn  Zn195  1  0.85936100  0.07732100  0.52503500  1
  Zn  Zn196  1  0.50000000  0.83363600  0.53181800  1
  Zn  Zn197  1  0.15079500  0.80770500  0.59817700  1
  Zn  Zn198  1  0.37496700  0.17891900  0.51419500  1
  Zn  Zn199  1  0.82105800  0.73065600  0.50571600  1
  Zn  Zn200  1  0.53087400  0.12754900  0.50125500  1
  Zn  Zn201  1  0.65881200  0.33354100  0.56852700  1
  Zn  Zn202  1  0.66294100  0.83650000  0.56828400  1
  Zn  Zn203  1  0.80881900  0.61438600  0.54494600  1
  Zn  Zn204  1  0.96424200  0.54612600  0.56169600  1
  Zn  Zn205  1  0.62503300  0.48835200  0.54944100  1
  Zn  Zn206  1  0.78829600  0.43682700  0.53535200  1
  Zn  Zn207  1  0.17894200  0.93661600  0.55792100  1
  Zn  Zn208  1  0.14063900  0.58995100  0.53860200  1
  Zn  Zn209  1  0.33705900  0.93077100  0.59535300  1
  Zn  Zn210  1  0.21170400  0.23044500  0.52828400  1
  Zn  Zn211  1  0.82143500  0.78013600  0.55508200  1
  Zn  Zn212  1  0.50000000  0.88363600  0.58181800  1
  Zn  Zn213  1  0.69712500  0.17513100  0.58877600  1
  Zn  Zn214  1  0.52936800  0.17754100  0.55072100  1
  Zn  Zn215  1  0.79093800  0.48666200  0.58700600  1
  Zn  Zn216  1  0.30287500  0.59214100  0.57486100  1
  Zn  Zn217  1  0.20906200  0.28061000  0.57663000  1
  Zn  Zn218  1  0.19118100  0.05288500  0.51869000  1
  Zn  Zn219  1  0.47063200  0.48973100  0.51291500  1
  Zn  Zn220  1  0.85526800  0.12785900  0.57435200  1
  Zn  Zn221  1  0.00000000  0.88363600  0.58181800  1
  Zn  Zn222  1  0.46912600  0.53972300  0.56238100  1
  Zn  Zn223  1  0.34118800  0.43373100  0.59511000  1
  Zn  Zn224  1  0.48641100  0.71174100  0.57277500  1
  Zn  Zn225  1  0.84920500  0.05956700  0.66546000  1
  Zn  Zn226  1  0.03575800  0.22114500  0.60194000  1
  Zn  Zn227  1  0.51358900  0.15553100  0.69086100  1
  Zn  Zn228  1  0.14473200  0.73941300  0.68928400  1
  Zn  Zn229  1  0.17856500  0.98713600  0.60855400  1
  Zn  Zn230  1  0.85936100  0.17732100  0.62503500  1
  Zn  Zn231  1  0.50000000  0.93363600  0.63181800  1
  Zn  Zn232  1  0.15079500  0.90770500  0.69817700  1
  Zn  Zn233  1  0.37496700  0.27891900  0.61419500  1
  Zn  Zn234  1  0.82105800  0.83065600  0.60571600  1
  Zn  Zn235  1  0.53087400  0.22754900  0.60125500  1
  Zn  Zn236  1  0.65881200  0.43354100  0.66852700  1
  Zn  Zn237  1  0.66294100  0.93650000  0.66828400  1
  Zn  Zn238  1  0.80881900  0.71438600  0.64494600  1
  Zn  Zn239  1  0.96424200  0.64612600  0.66169600  1
  Zn  Zn240  1  0.62503300  0.58835200  0.64944100  1
  Zn  Zn241  1  0.78829600  0.53682700  0.63535200  1
  Zn  Zn242  1  0.17894200  0.03661600  0.65792100  1
  Zn  Zn243  1  0.14063900  0.68995100  0.63860200  1
  Zn  Zn244  1  0.33705900  0.03077100  0.69535300  1
  Zn  Zn245  1  0.21170400  0.33044500  0.62828400  1
  Zn  Zn246  1  0.82143500  0.88013600  0.65508200  1
  Zn  Zn247  1  0.50000000  0.98363600  0.68181800  1
  Zn  Zn248  1  0.69712500  0.27513100  0.68877600  1
  Zn  Zn249  1  0.52936800  0.27754100  0.65072100  1
  Zn  Zn250  1  0.79093800  0.58666200  0.68700600  1
  Zn  Zn251  1  0.30287500  0.69214100  0.67486100  1
  Zn  Zn252  1  0.20906200  0.38061000  0.67663000  1
  Zn  Zn253  1  0.19118100  0.15288500  0.61869000  1
  Zn  Zn254  1  0.47063200  0.58973100  0.61291500  1
  Zn  Zn255  1  0.85526800  0.22785900  0.67435200  1
  Zn  Zn256  1  0.00000000  0.98363600  0.68181800  1
  Zn  Zn257  1  0.46912600  0.63972300  0.66238100  1
  Zn  Zn258  1  0.34118800  0.53373100  0.69511000  1
  Zn  Zn259  1  0.48641100  0.81174100  0.67277500  1
  Zn  Zn260  1  0.84920500  0.15956700  0.76546000  1
  Zn  Zn261  1  0.03575800  0.32114500  0.70194000  1
  Zn  Zn262  1  0.51358900  0.25553100  0.79086100  1
  Zn  Zn263  1  0.14473200  0.83941300  0.78928400  1
  Zn  Zn264  1  0.17856500  0.08713600  0.70855400  1
  Zn  Zn265  1  0.85936100  0.27732100  0.72503500  1
  Zn  Zn266  1  0.50000000  0.03363600  0.73181800  1
  Zn  Zn267  1  0.15079500  0.00770500  0.79817700  1
  Zn  Zn268  1  0.37496700  0.37891900  0.71419500  1
  Zn  Zn269  1  0.82105800  0.93065600  0.70571600  1
  Zn  Zn270  1  0.53087400  0.32754900  0.70125500  1
  Zn  Zn271  1  0.65881200  0.53354100  0.76852700  1
  Zn  Zn272  1  0.66294100  0.03650000  0.76828400  1
  Zn  Zn273  1  0.80881900  0.81438600  0.74494600  1
  Zn  Zn274  1  0.96424200  0.74612600  0.76169600  1
  Zn  Zn275  1  0.62503300  0.68835200  0.74944100  1
  Zn  Zn276  1  0.78829600  0.63682700  0.73535200  1
  Zn  Zn277  1  0.17894200  0.13661600  0.75792100  1
  Zn  Zn278  1  0.14063900  0.78995100  0.73860200  1
  Zn  Zn279  1  0.33705900  0.13077100  0.79535300  1
  Zn  Zn280  1  0.21170400  0.43044500  0.72828400  1
  Zn  Zn281  1  0.82143500  0.98013600  0.75508200  1
  Zn  Zn282  1  0.50000000  0.08363600  0.78181800  1
  Zn  Zn283  1  0.69712500  0.37513100  0.78877600  1
  Zn  Zn284  1  0.52936800  0.37754100  0.75072100  1
  Zn  Zn285  1  0.79093800  0.68666200  0.78700600  1
  Zn  Zn286  1  0.30287500  0.79214100  0.77486100  1
  Zn  Zn287  1  0.20906200  0.48061000  0.77663000  1
  Zn  Zn288  1  0.19118100  0.25288500  0.71869000  1
  Zn  Zn289  1  0.47063200  0.68973100  0.71291500  1
  Zn  Zn290  1  0.85526800  0.32785900  0.77435200  1
  Zn  Zn291  1  0.00000000  0.08363600  0.78181800  1
  Zn  Zn292  1  0.46912600  0.73972300  0.76238100  1
  Zn  Zn293  1  0.34118800  0.63373100  0.79511000  1
  Zn  Zn294  1  0.48641100  0.91174100  0.77277500  1
