# generated using pymatgen
data_Mg21Au65
_symmetry_space_group_name_H-M   'P 1'
_cell_length_a   5.98733200
_cell_length_b   22.16206628
_cell_length_c   43.22761900
_cell_angle_alpha   91.91421088
_cell_angle_beta   90.00000000
_cell_angle_gamma   90.00000000
_symmetry_Int_Tables_number   1
_chemical_formula_structural   Mg21Au65
_chemical_formula_sum   'Mg42 Au130'
_cell_volume   5732.74315522
_cell_formula_units_Z   2
loop_
 _symmetry_equiv_pos_site_id
 _symmetry_equiv_pos_as_xyz
  1  'x, y, z'
loop_
 _atom_site_type_symbol
 _atom_site_label
 _atom_site_symmetry_multiplicity
 _atom_site_fract_x
 _atom_site_fract_y
 _atom_site_fract_z
 _atom_site_occupancy
  Mg  Mg0  1  0.50000000  0.77770800  0.35631800  1
  Mg  Mg1  1  0.00000000  0.97984500  0.30618200  1
  Mg  Mg2  1  0.00000000  0.79697000  0.28920200  1
  Mg  Mg3  1  0.50000000  0.96058400  0.37329800  1
  Mg  Mg4  1  0.50000000  0.47952600  0.30586300  1
  Mg  Mg5  1  0.00000000  0.27802800  0.35663700  1
  Mg  Mg6  1  0.00000000  0.59896900  0.33870200  1
  Mg  Mg7  1  0.50000000  0.15858500  0.32379800  1
  Mg  Mg8  1  0.50000000  0.39697000  0.38920200  1
  Mg  Mg9  1  0.00000000  0.36058400  0.27329800  1
  Mg  Mg10  1  0.50000000  0.97770800  0.55631800  1
  Mg  Mg11  1  0.00000000  0.17984500  0.50618200  1
  Mg  Mg12  1  0.00000000  0.07952600  0.40586300  1
  Mg  Mg13  1  0.50000000  0.87802800  0.45663700  1
  Mg  Mg14  1  0.50000000  0.19896900  0.43870200  1
  Mg  Mg15  1  0.00000000  0.75858500  0.42379800  1
  Mg  Mg16  1  0.00000000  0.99697000  0.48920200  1
  Mg  Mg17  1  0.50000000  0.16058400  0.57329800  1
  Mg  Mg18  1  0.00000000  0.37770800  0.45631800  1
  Mg  Mg19  1  0.50000000  0.57984500  0.40618200  1
  Mg  Mg20  1  0.50000000  0.67952600  0.50586300  1
  Mg  Mg21  1  0.00000000  0.47802800  0.55663700  1
  Mg  Mg22  1  0.00000000  0.79896900  0.53870200  1
  Mg  Mg23  1  0.50000000  0.35858500  0.52379800  1
  Mg  Mg24  1  0.50000000  0.59697000  0.58920200  1
  Mg  Mg25  1  0.00000000  0.56058400  0.47329800  1
  Mg  Mg26  1  0.50000000  0.17770800  0.75631800  1
  Mg  Mg27  1  0.00000000  0.37984500  0.70618200  1
  Mg  Mg28  1  0.00000000  0.27952600  0.60586300  1
  Mg  Mg29  1  0.50000000  0.07802800  0.65663700  1
  Mg  Mg30  1  0.50000000  0.39896900  0.63870200  1
  Mg  Mg31  1  0.00000000  0.95858500  0.62379800  1
  Mg  Mg32  1  0.00000000  0.19697000  0.68920200  1
  Mg  Mg33  1  0.50000000  0.36058400  0.77329800  1
  Mg  Mg34  1  0.00000000  0.57770800  0.65631800  1
  Mg  Mg35  1  0.50000000  0.77984500  0.60618200  1
  Mg  Mg36  1  0.50000000  0.87952600  0.70586300  1
  Mg  Mg37  1  0.00000000  0.67802800  0.75663700  1
  Mg  Mg38  1  0.00000000  0.99896900  0.73870200  1
  Mg  Mg39  1  0.50000000  0.55858500  0.72379800  1
  Mg  Mg40  1  0.50000000  0.79697000  0.78920200  1
  Mg  Mg41  1  0.00000000  0.76058400  0.67329800  1
  Au  Au42  1  0.74887800  0.17877700  0.38125000  1
  Au  Au43  1  0.25112200  0.07877700  0.28125000  1
  Au  Au44  1  0.25112200  0.17877700  0.38125000  1
  Au  Au45  1  0.74887800  0.07877700  0.28125000  1
  Au  Au46  1  0.00000000  0.77971700  0.35615200  1
  Au  Au47  1  0.50000000  0.97783700  0.30634800  1
  Au  Au48  1  0.25204300  0.85938300  0.39859900  1
  Au  Au49  1  0.75204300  0.89817100  0.26390100  1
  Au  Au50  1  0.24795700  0.89817100  0.26390100  1
  Au  Au51  1  0.74795700  0.85938300  0.39859900  1
  Au  Au52  1  0.74955100  0.05917100  0.34865200  1
  Au  Au53  1  0.24955100  0.69838300  0.31384800  1
  Au  Au54  1  0.75044900  0.69838300  0.31384800  1
  Au  Au55  1  0.25044900  0.05917100  0.34865200  1
  Au  Au56  1  0.75000000  0.87877700  0.33125000  1
  Au  Au57  1  0.25000000  0.87877700  0.33125000  1
  Au  Au58  1  0.50000000  0.79819800  0.28889500  1
  Au  Au59  1  0.00000000  0.95935600  0.37360500  1
  Au  Au60  1  0.24887800  0.57877700  0.28125000  1
  Au  Au61  1  0.75112200  0.67877700  0.38125000  1
  Au  Au62  1  0.75112200  0.57877700  0.28125000  1
  Au  Au63  1  0.24887800  0.67877700  0.38125000  1
  Au  Au64  1  0.00000000  0.47805600  0.30656700  1
  Au  Au65  1  0.50000000  0.27949700  0.35593300  1
  Au  Au66  1  0.75204300  0.25938300  0.29859900  1
  Au  Au67  1  0.25204300  0.49817100  0.36390100  1
  Au  Au68  1  0.74795700  0.49817100  0.36390100  1
  Au  Au69  1  0.24795700  0.25938300  0.29859900  1
  Au  Au70  1  0.25000000  0.37877700  0.33125000  1
  Au  Au71  1  0.75000000  0.37877700  0.33125000  1
  Au  Au72  1  0.00000000  0.39819800  0.38889500  1
  Au  Au73  1  0.50000000  0.35935600  0.27360500  1
  Au  Au74  1  0.50000000  0.59630900  0.33936700  1
  Au  Au75  1  0.00000000  0.16124400  0.32313300  1
  Au  Au76  1  0.74887800  0.37877700  0.58125000  1
  Au  Au77  1  0.25112200  0.27877700  0.48125000  1
  Au  Au78  1  0.25112200  0.37877700  0.58125000  1
  Au  Au79  1  0.74887800  0.27877700  0.48125000  1
  Au  Au80  1  0.50000000  0.07805600  0.40656700  1
  Au  Au81  1  0.00000000  0.87949700  0.45593300  1
  Au  Au82  1  0.00000000  0.97971700  0.55615200  1
  Au  Au83  1  0.50000000  0.17783700  0.50634800  1
  Au  Au84  1  0.25204300  0.05938300  0.59859900  1
  Au  Au85  1  0.75204300  0.09817100  0.46390100  1
  Au  Au86  1  0.24795700  0.09817100  0.46390100  1
  Au  Au87  1  0.74795700  0.05938300  0.59859900  1
  Au  Au88  1  0.74955100  0.25917100  0.54865200  1
  Au  Au89  1  0.24955100  0.89838300  0.51384800  1
  Au  Au90  1  0.75044900  0.89838300  0.51384800  1
  Au  Au91  1  0.25044900  0.25917100  0.54865200  1
  Au  Au92  1  0.75000000  0.07877700  0.53125000  1
  Au  Au93  1  0.25000000  0.07877700  0.53125000  1
  Au  Au94  1  0.75000000  0.97877700  0.43125000  1
  Au  Au95  1  0.25000000  0.97877700  0.43125000  1
  Au  Au96  1  0.50000000  0.99819800  0.48889500  1
  Au  Au97  1  1.00000000  0.15935600  0.57360500  1
  Au  Au98  1  0.00000000  0.19630900  0.43936700  1
  Au  Au99  1  0.50000000  0.76124400  0.42313300  1
  Au  Au100  1  0.24887800  0.77877700  0.48125000  1
  Au  Au101  1  0.75112200  0.87877700  0.58125000  1
  Au  Au102  1  0.75112200  0.77877700  0.48125000  1
  Au  Au103  1  0.24887800  0.87877700  0.58125000  1
  Au  Au104  1  0.00000000  0.67805600  0.50656700  1
  Au  Au105  1  0.50000000  0.47949700  0.55593300  1
  Au  Au106  1  0.50000000  0.37971700  0.45615200  1
  Au  Au107  1  0.00000000  0.57783700  0.40634800  1
  Au  Au108  1  0.75204300  0.45938300  0.49859900  1
  Au  Au109  1  0.25204300  0.69817100  0.56390100  1
  Au  Au110  1  0.74795700  0.69817100  0.56390100  1
  Au  Au111  1  0.24795700  0.45938300  0.49859900  1
  Au  Au112  1  0.24955100  0.65917100  0.44865200  1
  Au  Au113  1  0.74955100  0.29838300  0.41384800  1
  Au  Au114  1  0.25044900  0.29838300  0.41384800  1
  Au  Au115  1  0.75044900  0.65917100  0.44865200  1
  Au  Au116  1  0.25000000  0.47877700  0.43125000  1
  Au  Au117  1  0.75000000  0.47877700  0.43125000  1
  Au  Au118  1  0.25000000  0.57877700  0.53125000  1
  Au  Au119  1  0.75000000  0.57877700  0.53125000  1
  Au  Au120  1  0.00000000  0.59819800  0.58889500  1
  Au  Au121  1  0.50000000  0.55935600  0.47360500  1
  Au  Au122  1  0.50000000  0.79630900  0.53936700  1
  Au  Au123  1  0.00000000  0.36124400  0.52313300  1
  Au  Au124  1  0.74887800  0.57877700  0.78125000  1
  Au  Au125  1  0.25112200  0.47877700  0.68125000  1
  Au  Au126  1  0.25112200  0.57877700  0.78125000  1
  Au  Au127  1  0.74887800  0.47877700  0.68125000  1
  Au  Au128  1  0.50000000  0.27805600  0.60656700  1
  Au  Au129  1  0.00000000  0.07949700  0.65593300  1
  Au  Au130  1  0.00000000  0.17971700  0.75615200  1
  Au  Au131  1  0.50000000  0.37783700  0.70634800  1
  Au  Au132  1  0.25204300  0.25938300  0.79859900  1
  Au  Au133  1  0.75204300  0.29817100  0.66390100  1
  Au  Au134  1  0.24795700  0.29817100  0.66390100  1
  Au  Au135  1  0.74795700  0.25938300  0.79859900  1
  Au  Au136  1  0.74955100  0.45917100  0.74865200  1
  Au  Au137  1  0.24955100  0.09838300  0.71384800  1
  Au  Au138  1  0.75044900  0.09838300  0.71384800  1
  Au  Au139  1  0.25044900  0.45917100  0.74865200  1
  Au  Au140  1  0.75000000  0.27877700  0.73125000  1
  Au  Au141  1  0.25000000  0.27877700  0.73125000  1
  Au  Au142  1  0.75000000  0.17877700  0.63125000  1
  Au  Au143  1  0.25000000  0.17877700  0.63125000  1
  Au  Au144  1  0.50000000  0.19819800  0.68889500  1
  Au  Au145  1  0.00000000  0.35935600  0.77360500  1
  Au  Au146  1  0.00000000  0.39630900  0.63936700  1
  Au  Au147  1  0.50000000  0.96124400  0.62313300  1
  Au  Au148  1  0.24887800  0.97877700  0.68125000  1
  Au  Au149  1  0.75112200  0.07877700  0.78125000  1
  Au  Au150  1  0.75112200  0.97877700  0.68125000  1
  Au  Au151  1  0.24887800  0.07877700  0.78125000  1
  Au  Au152  1  0.00000000  0.87805600  0.70656700  1
  Au  Au153  1  0.50000000  0.67949700  0.75593300  1
  Au  Au154  1  0.50000000  0.57971700  0.65615200  1
  Au  Au155  1  0.00000000  0.77783700  0.60634800  1
  Au  Au156  1  0.75204300  0.65938300  0.69859900  1
  Au  Au157  1  0.25204300  0.89817100  0.76390100  1
  Au  Au158  1  0.74795700  0.89817100  0.76390100  1
  Au  Au159  1  0.24795700  0.65938300  0.69859900  1
  Au  Au160  1  0.24955100  0.85917100  0.64865200  1
  Au  Au161  1  0.74955100  0.49838300  0.61384800  1
  Au  Au162  1  0.25044900  0.49838300  0.61384800  1
  Au  Au163  1  0.75044900  0.85917100  0.64865200  1
  Au  Au164  1  0.25000000  0.67877700  0.63125000  1
  Au  Au165  1  0.75000000  0.67877700  0.63125000  1
  Au  Au166  1  0.25000000  0.77877700  0.73125000  1
  Au  Au167  1  0.75000000  0.77877700  0.73125000  1
  Au  Au168  1  0.00000000  0.79819800  0.78889500  1
  Au  Au169  1  0.50000000  0.75935600  0.67360500  1
  Au  Au170  1  0.50000000  0.99630900  0.73936700  1
  Au  Au171  1  0.00000000  0.56124400  0.72313300  1
