# generated using pymatgen
data_Sm2Mg
_symmetry_space_group_name_H-M   'P 1'
_cell_length_a   3.79076100
_cell_length_b   18.24769137
_cell_length_c   42.84868300
_cell_angle_alpha   96.05477005
_cell_angle_beta   90.00000000
_cell_angle_gamma   90.00000000
_symmetry_Int_Tables_number   1
_chemical_formula_structural   Sm2Mg
_chemical_formula_sum   'Sm40 Mg20'
_cell_volume   2947.42201632
_cell_formula_units_Z   20
loop_
 _symmetry_equiv_pos_site_id
 _symmetry_equiv_pos_as_xyz
  1  'x, y, z'
loop_
 _atom_site_type_symbol
 _atom_site_label
 _atom_site_symmetry_multiplicity
 _atom_site_fract_x
 _atom_site_fract_y
 _atom_site_fract_z
 _atom_site_occupancy
  Sm  Sm0  1  1.00000000  0.98445000  0.26115000  1
  Sm  Sm1  1  0.50000000  0.82494800  0.28393600  1
  Sm  Sm2  1  0.50000000  0.64055000  0.23885000  1
  Sm  Sm3  1  1.00000000  0.80005200  0.21606400  1
  Sm  Sm4  1  0.50000000  0.42195000  0.19865000  1
  Sm  Sm5  1  1.00000000  0.26244800  0.22143600  1
  Sm  Sm6  1  0.00000000  0.20305000  0.30135000  1
  Sm  Sm7  1  0.50000000  0.36255200  0.27856400  1
  Sm  Sm8  1  0.00000000  0.10945000  0.38615000  1
  Sm  Sm9  1  0.50000000  0.94994800  0.40893600  1
  Sm  Sm10  1  0.50000000  0.76555000  0.36385000  1
  Sm  Sm11  1  1.00000000  0.92505200  0.34106400  1
  Sm  Sm12  1  0.50000000  0.54695000  0.32365000  1
  Sm  Sm13  1  0.00000000  0.38744800  0.34643600  1
  Sm  Sm14  1  0.00000000  0.32805000  0.42635000  1
  Sm  Sm15  1  0.50000000  0.48755200  0.40356400  1
  Sm  Sm16  1  1.00000000  0.23445000  0.51115000  1
  Sm  Sm17  1  0.50000000  0.07494800  0.53393600  1
  Sm  Sm18  1  0.50000000  0.89055000  0.48885000  1
  Sm  Sm19  1  0.00000000  0.05005200  0.46606400  1
  Sm  Sm20  1  0.50000000  0.67195000  0.44865000  1
  Sm  Sm21  1  0.00000000  0.51244800  0.47143600  1
  Sm  Sm22  1  1.00000000  0.45305000  0.55135000  1
  Sm  Sm23  1  0.50000000  0.61255200  0.52856400  1
  Sm  Sm24  1  1.00000000  0.35945000  0.63615000  1
  Sm  Sm25  1  0.50000000  0.19994800  0.65893600  1
  Sm  Sm26  1  0.50000000  0.01555000  0.61385000  1
  Sm  Sm27  1  1.00000000  0.17505200  0.59106400  1
  Sm  Sm28  1  0.50000000  0.79695000  0.57365000  1
  Sm  Sm29  1  1.00000000  0.63744800  0.59643600  1
  Sm  Sm30  1  0.00000000  0.57805000  0.67635000  1
  Sm  Sm31  1  0.50000000  0.73755200  0.65356400  1
  Sm  Sm32  1  1.00000000  0.48445000  0.76115000  1
  Sm  Sm33  1  0.50000000  0.32494800  0.78393600  1
  Sm  Sm34  1  0.50000000  0.14055000  0.73885000  1
  Sm  Sm35  1  1.00000000  0.30005200  0.71606400  1
  Sm  Sm36  1  0.50000000  0.92195000  0.69865000  1
  Sm  Sm37  1  0.00000000  0.76244800  0.72143600  1
  Sm  Sm38  1  1.00000000  0.70305000  0.80135000  1
  Sm  Sm39  1  0.50000000  0.86255200  0.77856400  1
  Mg  Mg40  1  1.00000000  0.68471500  0.30396900  1
  Mg  Mg41  1  0.50000000  0.94028500  0.19603100  1
  Mg  Mg42  1  0.50000000  0.12221500  0.24146900  1
  Mg  Mg43  1  1.00000000  0.50278500  0.25853100  1
  Mg  Mg44  1  1.00000000  0.80971500  0.42896900  1
  Mg  Mg45  1  0.50000000  0.06528500  0.32103100  1
  Mg  Mg46  1  0.50000000  0.24721500  0.36646900  1
  Mg  Mg47  1  1.00000000  0.62778500  0.38353100  1
  Mg  Mg48  1  0.00000000  0.93471500  0.55396900  1
  Mg  Mg49  1  0.50000000  0.19028500  0.44603100  1
  Mg  Mg50  1  0.50000000  0.37221500  0.49146900  1
  Mg  Mg51  1  1.00000000  0.75278500  0.50853100  1
  Mg  Mg52  1  1.00000000  0.05971500  0.67896900  1
  Mg  Mg53  1  0.50000000  0.31528500  0.57103100  1
  Mg  Mg54  1  0.50000000  0.49721500  0.61646900  1
  Mg  Mg55  1  1.00000000  0.87778500  0.63353100  1
  Mg  Mg56  1  1.00000000  0.18471500  0.80396900  1
  Mg  Mg57  1  0.50000000  0.44028500  0.69603100  1
  Mg  Mg58  1  0.50000000  0.62221500  0.74146900  1
  Mg  Mg59  1  0.00000000  0.00278500  0.75853100  1
