# generated using pymatgen
data_Mg24Zr47
_symmetry_space_group_name_H-M   'P 1'
_cell_length_a   5.60261400
_cell_length_b   23.65093053
_cell_length_c   42.05072000
_cell_angle_alpha   93.92114994
_cell_angle_beta   90.00000000
_cell_angle_gamma   83.19769941
_symmetry_Int_Tables_number   1
_chemical_formula_structural   Mg24Zr47
_chemical_formula_sum   'Mg48 Zr94'
_cell_volume   5519.65720973
_cell_formula_units_Z   2
loop_
 _symmetry_equiv_pos_site_id
 _symmetry_equiv_pos_as_xyz
  1  'x, y, z'
loop_
 _atom_site_type_symbol
 _atom_site_label
 _atom_site_symmetry_multiplicity
 _atom_site_fract_x
 _atom_site_fract_y
 _atom_site_fract_z
 _atom_site_occupancy
  Mg  Mg0  1  0.52850600  0.00000000  0.22863200  1
  Mg  Mg1  1  0.19517300  0.33333300  0.20299100  1
  Mg  Mg2  1  0.36183900  0.66666700  0.21581200  1
  Mg  Mg3  1  0.02850600  0.00000000  0.26709400  1
  Mg  Mg4  1  0.69517300  0.33333300  0.24145300  1
  Mg  Mg5  1  0.86183900  0.66666700  0.25427400  1
  Mg  Mg6  1  0.52850600  0.00000000  0.30555600  1
  Mg  Mg7  1  0.19517300  0.33333300  0.27991500  1
  Mg  Mg8  1  0.36183900  0.66666700  0.29273500  1
  Mg  Mg9  1  0.02850600  0.00000000  0.34401700  1
  Mg  Mg10  1  0.69517300  0.33333300  0.31837600  1
  Mg  Mg11  1  0.86183900  0.66666700  0.33119700  1
  Mg  Mg12  1  0.52850600  0.00000000  0.38247900  1
  Mg  Mg13  1  0.19517300  0.33333300  0.35683800  1
  Mg  Mg14  1  0.36183900  0.66666700  0.36965800  1
  Mg  Mg15  1  0.02850600  0.00000000  0.42094000  1
  Mg  Mg16  1  0.69517300  0.33333300  0.39529900  1
  Mg  Mg17  1  0.86183900  0.66666700  0.40812000  1
  Mg  Mg18  1  0.52850600  0.00000000  0.45940200  1
  Mg  Mg19  1  0.19517300  0.33333300  0.43376100  1
  Mg  Mg20  1  0.36183900  0.66666700  0.44658100  1
  Mg  Mg21  1  0.02850600  0.00000000  0.49786300  1
  Mg  Mg22  1  0.69517300  0.33333300  0.47222200  1
  Mg  Mg23  1  0.86183900  0.66666700  0.48504300  1
  Mg  Mg24  1  0.52850600  0.00000000  0.53632500  1
  Mg  Mg25  1  0.19517300  0.33333300  0.51068400  1
  Mg  Mg26  1  0.36183900  0.66666700  0.52350400  1
  Mg  Mg27  1  0.02850600  0.00000000  0.57478600  1
  Mg  Mg28  1  0.69517300  0.33333300  0.54914500  1
  Mg  Mg29  1  0.86183900  0.66666700  0.56196600  1
  Mg  Mg30  1  0.52850600  0.00000000  0.61324800  1
  Mg  Mg31  1  0.19517300  0.33333300  0.58760700  1
  Mg  Mg32  1  0.36183900  0.66666700  0.60042700  1
  Mg  Mg33  1  0.02850600  0.00000000  0.65170900  1
  Mg  Mg34  1  0.69517300  0.33333300  0.62606800  1
  Mg  Mg35  1  0.86183900  0.66666700  0.63888900  1
  Mg  Mg36  1  0.52850600  0.00000000  0.69017100  1
  Mg  Mg37  1  0.19517300  0.33333300  0.66453000  1
  Mg  Mg38  1  0.36183900  0.66666700  0.67735000  1
  Mg  Mg39  1  0.02850600  0.00000000  0.72863200  1
  Mg  Mg40  1  0.69517300  0.33333300  0.70299100  1
  Mg  Mg41  1  0.86183900  0.66666700  0.71581200  1
  Mg  Mg42  1  0.52850600  0.00000000  0.76709400  1
  Mg  Mg43  1  0.19517300  0.33333300  0.74145300  1
  Mg  Mg44  1  0.36183900  0.66666700  0.75427400  1
  Mg  Mg45  1  0.02850600  0.00000000  0.80555600  1
  Mg  Mg46  1  0.69517300  0.33333300  0.77991500  1
  Mg  Mg47  1  0.86183900  0.66666700  0.79273500  1
  Zr  Zr48  1  0.25218500  0.88597600  0.22424700  1
  Zr  Zr49  1  0.63816100  0.78069100  0.22019800  1
  Zr  Zr50  1  0.08551800  0.55264200  0.21142600  1
  Zr  Zr51  1  0.47149400  0.44735800  0.20737700  1
  Zr  Zr52  1  0.75218500  0.88597600  0.26270800  1
  Zr  Zr53  1  0.13816100  0.78069100  0.25865900  1
  Zr  Zr54  1  0.41885100  0.21930900  0.23706700  1
  Zr  Zr55  1  0.80482700  0.11402400  0.23301800  1
  Zr  Zr56  1  0.58551800  0.55264200  0.24988800  1
  Zr  Zr57  1  0.97149400  0.44735800  0.24583900  1
  Zr  Zr58  1  0.25218500  0.88597600  0.30117000  1
  Zr  Zr59  1  0.63816100  0.78069100  0.29712100  1
  Zr  Zr60  1  0.91885100  0.21930900  0.27552900  1
  Zr  Zr61  1  0.30482700  0.11402400  0.27148000  1
  Zr  Zr62  1  0.08551800  0.55264200  0.28834900  1
  Zr  Zr63  1  0.47149400  0.44735800  0.28430000  1
  Zr  Zr64  1  0.75218500  0.88597600  0.33963200  1
  Zr  Zr65  1  0.13816100  0.78069100  0.33558200  1
  Zr  Zr66  1  0.41885100  0.21930900  0.31399100  1
  Zr  Zr67  1  0.80482700  0.11402400  0.30994100  1
  Zr  Zr68  1  0.58551800  0.55264200  0.32681100  1
  Zr  Zr69  1  0.97149400  0.44735800  0.32276200  1
  Zr  Zr70  1  0.25218500  0.88597600  0.37809300  1
  Zr  Zr71  1  0.63816100  0.78069100  0.37404400  1
  Zr  Zr72  1  0.91885100  0.21930900  0.35245200  1
  Zr  Zr73  1  0.30482700  0.11402400  0.34840300  1
  Zr  Zr74  1  0.08551800  0.55264200  0.36527300  1
  Zr  Zr75  1  0.47149400  0.44735800  0.36122300  1
  Zr  Zr76  1  0.75218500  0.88597600  0.41655500  1
  Zr  Zr77  1  0.13816100  0.78069100  0.41250500  1
  Zr  Zr78  1  0.41885100  0.21930900  0.39091400  1
  Zr  Zr79  1  0.80482700  0.11402400  0.38686400  1
  Zr  Zr80  1  0.58551800  0.55264200  0.40373400  1
  Zr  Zr81  1  0.97149400  0.44735800  0.39968500  1
  Zr  Zr82  1  0.25218500  0.88597600  0.45501600  1
  Zr  Zr83  1  0.63816100  0.78069100  0.45096700  1
  Zr  Zr84  1  0.91885100  0.21930900  0.42937500  1
  Zr  Zr85  1  0.30482700  0.11402400  0.42532600  1
  Zr  Zr86  1  0.08551800  0.55264200  0.44219600  1
  Zr  Zr87  1  0.47149400  0.44735800  0.43814600  1
  Zr  Zr88  1  0.75218500  0.88597600  0.49347800  1
  Zr  Zr89  1  0.13816100  0.78069100  0.48942800  1
  Zr  Zr90  1  0.41885100  0.21930900  0.46783700  1
  Zr  Zr91  1  0.80482700  0.11402400  0.46378700  1
  Zr  Zr92  1  0.58551800  0.55264200  0.48065700  1
  Zr  Zr93  1  0.97149400  0.44735800  0.47660800  1
  Zr  Zr94  1  0.25218500  0.88597600  0.53193900  1
  Zr  Zr95  1  0.63816100  0.78069100  0.52789000  1
  Zr  Zr96  1  0.91885100  0.21930900  0.50629800  1
  Zr  Zr97  1  0.30482700  0.11402400  0.50224900  1
  Zr  Zr98  1  0.08551800  0.55264200  0.51911900  1
  Zr  Zr99  1  0.47149400  0.44735800  0.51506900  1
  Zr  Zr100  1  0.75218500  0.88597600  0.57040100  1
  Zr  Zr101  1  0.13816100  0.78069100  0.56635100  1
  Zr  Zr102  1  0.41885100  0.21930900  0.54476000  1
  Zr  Zr103  1  0.80482700  0.11402400  0.54071000  1
  Zr  Zr104  1  0.58551800  0.55264200  0.55758000  1
  Zr  Zr105  1  0.97149400  0.44735800  0.55353100  1
  Zr  Zr106  1  0.25218500  0.88597600  0.60886200  1
  Zr  Zr107  1  0.63816100  0.78069100  0.60481300  1
  Zr  Zr108  1  0.91885100  0.21930900  0.58322100  1
  Zr  Zr109  1  0.30482700  0.11402400  0.57917200  1
  Zr  Zr110  1  0.08551800  0.55264200  0.59604200  1
  Zr  Zr111  1  0.47149400  0.44735800  0.59199200  1
  Zr  Zr112  1  0.75218500  0.88597600  0.64732400  1
  Zr  Zr113  1  0.13816100  0.78069100  0.64327400  1
  Zr  Zr114  1  0.41885100  0.21930900  0.62168300  1
  Zr  Zr115  1  0.80482700  0.11402400  0.61763300  1
  Zr  Zr116  1  0.58551800  0.55264200  0.63450300  1
  Zr  Zr117  1  0.97149400  0.44735800  0.63045400  1
  Zr  Zr118  1  0.25218500  0.88597600  0.68578500  1
  Zr  Zr119  1  0.63816100  0.78069100  0.68173600  1
  Zr  Zr120  1  0.91885100  0.21930900  0.66014400  1
  Zr  Zr121  1  0.30482700  0.11402400  0.65609500  1
  Zr  Zr122  1  0.08551800  0.55264200  0.67296500  1
  Zr  Zr123  1  0.47149400  0.44735800  0.66891500  1
  Zr  Zr124  1  0.75218500  0.88597600  0.72424700  1
  Zr  Zr125  1  0.13816100  0.78069100  0.72019800  1
  Zr  Zr126  1  0.41885100  0.21930900  0.69860600  1
  Zr  Zr127  1  0.80482700  0.11402400  0.69455600  1
  Zr  Zr128  1  0.58551800  0.55264200  0.71142600  1
  Zr  Zr129  1  0.97149400  0.44735800  0.70737700  1
  Zr  Zr130  1  0.25218500  0.88597600  0.76270800  1
  Zr  Zr131  1  0.63816100  0.78069100  0.75865900  1
  Zr  Zr132  1  0.91885100  0.21930900  0.73706700  1
  Zr  Zr133  1  0.30482700  0.11402400  0.73301800  1
  Zr  Zr134  1  0.08551800  0.55264200  0.74988800  1
  Zr  Zr135  1  0.47149400  0.44735800  0.74583900  1
  Zr  Zr136  1  0.75218500  0.88597600  0.80117000  1
  Zr  Zr137  1  0.13816100  0.78069100  0.79712100  1
  Zr  Zr138  1  0.41885100  0.21930900  0.77552900  1
  Zr  Zr139  1  0.80482700  0.11402400  0.77148000  1
  Zr  Zr140  1  0.58551800  0.55264200  0.78834900  1
  Zr  Zr141  1  0.97149400  0.44735800  0.78430000  1
