# generated using pymatgen
data_Pr7Mg4
_symmetry_space_group_name_H-M   'P 1'
_cell_length_a   3.86864600
_cell_length_b   5.72809200
_cell_length_c   52.50645400
_cell_angle_alpha   90.00000000
_cell_angle_beta   90.00000000
_cell_angle_gamma   90.00000000
_symmetry_Int_Tables_number   1
_chemical_formula_structural   Pr7Mg4
_chemical_formula_sum   'Pr14 Mg8'
_cell_volume   1163.54093106
_cell_formula_units_Z   2
loop_
 _symmetry_equiv_pos_site_id
 _symmetry_equiv_pos_as_xyz
  1  'x, y, z'
loop_
 _atom_site_type_symbol
 _atom_site_label
 _atom_site_symmetry_multiplicity
 _atom_site_fract_x
 _atom_site_fract_y
 _atom_site_fract_z
 _atom_site_occupancy
  Pr  Pr0  1  0.00000000  0.75000000  0.47313100  1
  Pr  Pr1  1  0.50000000  0.25000000  0.24909200  1
  Pr  Pr2  1  0.50000000  0.75000000  0.30646400  1
  Pr  Pr3  1  0.00000000  0.75000000  0.36643000  1
  Pr  Pr4  1  0.00000000  0.25000000  0.41575800  1
  Pr  Pr5  1  0.50000000  0.25000000  0.35579200  1
  Pr  Pr6  1  0.00000000  0.75000000  0.80646400  1
  Pr  Pr7  1  0.50000000  0.75000000  0.53309700  1
  Pr  Pr8  1  0.50000000  0.25000000  0.58242500  1
  Pr  Pr9  1  0.00000000  0.25000000  0.52245900  1
  Pr  Pr10  1  0.50000000  0.75000000  0.63979700  1
  Pr  Pr11  1  0.00000000  0.75000000  0.69976300  1
  Pr  Pr12  1  0.00000000  0.25000000  0.74909200  1
  Pr  Pr13  1  0.50000000  0.25000000  0.68912500  1
  Mg  Mg14  1  0.00000000  0.75000000  0.25383100  1
  Mg  Mg15  1  0.50000000  0.25000000  0.46839100  1
  Mg  Mg16  1  0.50000000  0.75000000  0.42049800  1
  Mg  Mg17  1  1.00000000  0.25000000  0.30172500  1
  Mg  Mg18  1  0.00000000  0.75000000  0.58716400  1
  Mg  Mg19  1  0.50000000  0.25000000  0.80172500  1
  Mg  Mg20  1  0.50000000  0.75000000  0.75383100  1
  Mg  Mg21  1  0.00000000  0.25000000  0.63505800  1
