# generated using pymatgen
data_MgZr2
_symmetry_space_group_name_H-M   'P 1'
_cell_length_a   5.60261400
_cell_length_b   23.65093053
_cell_length_c   42.05072000
_cell_angle_alpha   93.92114994
_cell_angle_beta   90.00000000
_cell_angle_gamma   83.19769941
_symmetry_Int_Tables_number   1
_chemical_formula_structural   MgZr2
_chemical_formula_sum   'Mg48 Zr96'
_cell_volume   5519.65720973
_cell_formula_units_Z   48
loop_
 _symmetry_equiv_pos_site_id
 _symmetry_equiv_pos_as_xyz
  1  'x, y, z'
loop_
 _atom_site_type_symbol
 _atom_site_label
 _atom_site_symmetry_multiplicity
 _atom_site_fract_x
 _atom_site_fract_y
 _atom_site_fract_z
 _atom_site_occupancy
  Mg  Mg0  1  0.58333300  0.00000000  0.22435900  1
  Mg  Mg1  1  0.25000000  0.33333300  0.19871800  1
  Mg  Mg2  1  0.41666700  0.66666700  0.21153800  1
  Mg  Mg3  1  0.08333300  0.00000000  0.26282100  1
  Mg  Mg4  1  0.75000000  0.33333300  0.23717900  1
  Mg  Mg5  1  0.91666700  0.66666700  0.25000000  1
  Mg  Mg6  1  0.58333300  0.00000000  0.30128200  1
  Mg  Mg7  1  0.25000000  0.33333300  0.27564100  1
  Mg  Mg8  1  0.41666700  0.66666700  0.28846200  1
  Mg  Mg9  1  0.08333300  0.00000000  0.33974400  1
  Mg  Mg10  1  0.75000000  0.33333300  0.31410300  1
  Mg  Mg11  1  0.91666700  0.66666700  0.32692300  1
  Mg  Mg12  1  0.58333300  0.00000000  0.37820500  1
  Mg  Mg13  1  0.25000000  0.33333300  0.35256400  1
  Mg  Mg14  1  0.41666700  0.66666700  0.36538500  1
  Mg  Mg15  1  0.08333300  0.00000000  0.41666700  1
  Mg  Mg16  1  0.75000000  0.33333300  0.39102600  1
  Mg  Mg17  1  0.91666700  0.66666700  0.40384600  1
  Mg  Mg18  1  0.58333300  0.00000000  0.45512800  1
  Mg  Mg19  1  0.25000000  0.33333300  0.42948700  1
  Mg  Mg20  1  0.41666700  0.66666700  0.44230800  1
  Mg  Mg21  1  0.08333300  0.00000000  0.49359000  1
  Mg  Mg22  1  0.75000000  0.33333300  0.46794900  1
  Mg  Mg23  1  0.91666700  0.66666700  0.48076900  1
  Mg  Mg24  1  0.58333300  0.00000000  0.53205100  1
  Mg  Mg25  1  0.25000000  0.33333300  0.50641000  1
  Mg  Mg26  1  0.41666700  0.66666700  0.51923100  1
  Mg  Mg27  1  0.08333300  0.00000000  0.57051300  1
  Mg  Mg28  1  0.75000000  0.33333300  0.54487200  1
  Mg  Mg29  1  0.91666700  0.66666700  0.55769200  1
  Mg  Mg30  1  0.58333300  0.00000000  0.60897400  1
  Mg  Mg31  1  0.25000000  0.33333300  0.58333300  1
  Mg  Mg32  1  0.41666700  0.66666700  0.59615400  1
  Mg  Mg33  1  0.08333300  0.00000000  0.64743600  1
  Mg  Mg34  1  0.75000000  0.33333300  0.62179500  1
  Mg  Mg35  1  0.91666700  0.66666700  0.63461500  1
  Mg  Mg36  1  0.58333300  0.00000000  0.68589700  1
  Mg  Mg37  1  0.25000000  0.33333300  0.66025600  1
  Mg  Mg38  1  0.41666700  0.66666700  0.67307700  1
  Mg  Mg39  1  0.08333300  0.00000000  0.72435900  1
  Mg  Mg40  1  0.75000000  0.33333300  0.69871800  1
  Mg  Mg41  1  0.91666700  0.66666700  0.71153800  1
  Mg  Mg42  1  0.58333300  0.00000000  0.76282100  1
  Mg  Mg43  1  0.25000000  0.33333300  0.73717900  1
  Mg  Mg44  1  0.41666700  0.66666700  0.75000000  1
  Mg  Mg45  1  0.08333300  0.00000000  0.80128200  1
  Mg  Mg46  1  0.75000000  0.33333300  0.77564100  1
  Mg  Mg47  1  0.91666700  0.66666700  0.78846200  1
  Zr  Zr48  1  0.30701200  0.88597600  0.21997300  1
  Zr  Zr49  1  0.69298800  0.78069100  0.21592400  1
  Zr  Zr50  1  0.97367900  0.21930900  0.19433200  1
  Zr  Zr51  1  0.85965500  0.11402400  0.22874500  1
  Zr  Zr52  1  0.14034500  0.55264200  0.20715300  1
  Zr  Zr53  1  0.52632100  0.44735800  0.20310300  1
  Zr  Zr54  1  0.80701200  0.88597600  0.25843500  1
  Zr  Zr55  1  0.19298800  0.78069100  0.25438600  1
  Zr  Zr56  1  0.47367900  0.21930900  0.23279400  1
  Zr  Zr57  1  0.35965500  0.11402400  0.26720600  1
  Zr  Zr58  1  0.64034500  0.55264200  0.24561400  1
  Zr  Zr59  1  0.02632100  0.44735800  0.24156500  1
  Zr  Zr60  1  0.30701200  0.88597600  0.29689700  1
  Zr  Zr61  1  0.69298800  0.78069100  0.29284700  1
  Zr  Zr62  1  0.97367900  0.21930900  0.27125500  1
  Zr  Zr63  1  0.85965500  0.11402400  0.30566800  1
  Zr  Zr64  1  0.14034500  0.55264200  0.28407600  1
  Zr  Zr65  1  0.52632100  0.44735800  0.28002700  1
  Zr  Zr66  1  0.80701200  0.88597600  0.33535800  1
  Zr  Zr67  1  0.19298800  0.78069100  0.33130900  1
  Zr  Zr68  1  0.47367900  0.21930900  0.30971700  1
  Zr  Zr69  1  0.35965500  0.11402400  0.34412900  1
  Zr  Zr70  1  0.64034500  0.55264200  0.32253800  1
  Zr  Zr71  1  0.02632100  0.44735800  0.31848800  1
  Zr  Zr72  1  0.30701200  0.88597600  0.37382000  1
  Zr  Zr73  1  0.69298800  0.78069100  0.36977000  1
  Zr  Zr74  1  0.97367900  0.21930900  0.34817900  1
  Zr  Zr75  1  0.85965500  0.11402400  0.38259100  1
  Zr  Zr76  1  0.14034500  0.55264200  0.36099900  1
  Zr  Zr77  1  0.52632100  0.44735800  0.35695000  1
  Zr  Zr78  1  0.80701200  0.88597600  0.41228100  1
  Zr  Zr79  1  0.19298800  0.78069100  0.40823200  1
  Zr  Zr80  1  0.47367900  0.21930900  0.38664000  1
  Zr  Zr81  1  0.35965500  0.11402400  0.42105200  1
  Zr  Zr82  1  0.64034500  0.55264200  0.39946100  1
  Zr  Zr83  1  0.02632100  0.44735800  0.39541100  1
  Zr  Zr84  1  0.30701200  0.88597600  0.45074300  1
  Zr  Zr85  1  0.69298800  0.78069100  0.44669300  1
  Zr  Zr86  1  0.97367900  0.21930900  0.42510200  1
  Zr  Zr87  1  0.85965500  0.11402400  0.45951400  1
  Zr  Zr88  1  0.14034500  0.55264200  0.43792200  1
  Zr  Zr89  1  0.52632100  0.44735800  0.43387300  1
  Zr  Zr90  1  0.80701200  0.88597600  0.48920400  1
  Zr  Zr91  1  0.19298800  0.78069100  0.48515500  1
  Zr  Zr92  1  0.47367900  0.21930900  0.46356300  1
  Zr  Zr93  1  0.35965500  0.11402400  0.49797500  1
  Zr  Zr94  1  0.64034500  0.55264200  0.47638400  1
  Zr  Zr95  1  0.02632100  0.44735800  0.47233400  1
  Zr  Zr96  1  0.30701200  0.88597600  0.52766600  1
  Zr  Zr97  1  0.69298800  0.78069100  0.52361600  1
  Zr  Zr98  1  0.97367900  0.21930900  0.50202500  1
  Zr  Zr99  1  0.85965500  0.11402400  0.53643700  1
  Zr  Zr100  1  0.14034500  0.55264200  0.51484500  1
  Zr  Zr101  1  0.52632100  0.44735800  0.51079600  1
  Zr  Zr102  1  0.80701200  0.88597600  0.56612700  1
  Zr  Zr103  1  0.19298800  0.78069100  0.56207800  1
  Zr  Zr104  1  0.47367900  0.21930900  0.54048600  1
  Zr  Zr105  1  0.35965500  0.11402400  0.57489800  1
  Zr  Zr106  1  0.64034500  0.55264200  0.55330700  1
  Zr  Zr107  1  0.02632100  0.44735800  0.54925700  1
  Zr  Zr108  1  0.30701200  0.88597600  0.60458900  1
  Zr  Zr109  1  0.69298800  0.78069100  0.60053900  1
  Zr  Zr110  1  0.97367900  0.21930900  0.57894800  1
  Zr  Zr111  1  0.85965500  0.11402400  0.61336000  1
  Zr  Zr112  1  0.14034500  0.55264200  0.59176800  1
  Zr  Zr113  1  0.52632100  0.44735800  0.58771900  1
  Zr  Zr114  1  0.80701200  0.88597600  0.64305000  1
  Zr  Zr115  1  0.19298800  0.78069100  0.63900100  1
  Zr  Zr116  1  0.47367900  0.21930900  0.61740900  1
  Zr  Zr117  1  0.35965500  0.11402400  0.65182100  1
  Zr  Zr118  1  0.64034500  0.55264200  0.63023000  1
  Zr  Zr119  1  0.02632100  0.44735800  0.62618000  1
  Zr  Zr120  1  0.30701200  0.88597600  0.68151200  1
  Zr  Zr121  1  0.69298800  0.78069100  0.67746200  1
  Zr  Zr122  1  0.97367900  0.21930900  0.65587100  1
  Zr  Zr123  1  0.85965500  0.11402400  0.69028300  1
  Zr  Zr124  1  0.14034500  0.55264200  0.66869100  1
  Zr  Zr125  1  0.52632100  0.44735800  0.66464200  1
  Zr  Zr126  1  0.80701200  0.88597600  0.71997300  1
  Zr  Zr127  1  0.19298800  0.78069100  0.71592400  1
  Zr  Zr128  1  0.47367900  0.21930900  0.69433200  1
  Zr  Zr129  1  0.35965500  0.11402400  0.72874500  1
  Zr  Zr130  1  0.64034500  0.55264200  0.70715300  1
  Zr  Zr131  1  0.02632100  0.44735800  0.70310300  1
  Zr  Zr132  1  0.30701200  0.88597600  0.75843500  1
  Zr  Zr133  1  0.69298800  0.78069100  0.75438600  1
  Zr  Zr134  1  0.97367900  0.21930900  0.73279400  1
  Zr  Zr135  1  0.85965500  0.11402400  0.76720600  1
  Zr  Zr136  1  0.14034500  0.55264200  0.74561400  1
  Zr  Zr137  1  0.52632100  0.44735800  0.74156500  1
  Zr  Zr138  1  0.80701200  0.88597600  0.79689700  1
  Zr  Zr139  1  0.19298800  0.78069100  0.79284700  1
  Zr  Zr140  1  0.47367900  0.21930900  0.77125500  1
  Zr  Zr141  1  0.35965500  0.11402400  0.80566800  1
  Zr  Zr142  1  0.64034500  0.55264200  0.78407600  1
  Zr  Zr143  1  0.02632100  0.44735800  0.78002700  1
