# generated using pymatgen
data_Ac13Mg7
_symmetry_space_group_name_H-M   'P 1'
_cell_length_a   7.30057611
_cell_length_b   9.27560843
_cell_length_c   44.03331300
_cell_angle_alpha   91.12457096
_cell_angle_beta   90.27666292
_cell_angle_gamma   112.15081221
_symmetry_Int_Tables_number   1
_chemical_formula_structural   Ac13Mg7
_chemical_formula_sum   'Ac26 Mg14'
_cell_volume   2760.96959488
_cell_formula_units_Z   2
loop_
 _symmetry_equiv_pos_site_id
 _symmetry_equiv_pos_as_xyz
  1  'x, y, z'
loop_
 _atom_site_type_symbol
 _atom_site_label
 _atom_site_symmetry_multiplicity
 _atom_site_fract_x
 _atom_site_fract_y
 _atom_site_fract_z
 _atom_site_occupancy
  Ac  Ac0  1  0.53442300  0.53061400  0.22952600  1
  Ac  Ac1  1  0.93779900  0.35741200  0.24269600  1
  Ac  Ac2  1  0.57674500  0.94816500  0.27125200  1
  Ac  Ac3  1  0.97881000  0.77319400  0.28430400  1
  Ac  Ac4  1  0.61775600  0.36394700  0.31286000  1
  Ac  Ac5  1  0.02113200  0.19074500  0.32602900  1
  Ac  Ac6  1  0.66007900  0.78149800  0.35458500  1
  Ac  Ac7  1  0.06214400  0.60652700  0.36763700  1
  Ac  Ac8  1  0.70109000  0.19728100  0.39619300  1
  Ac  Ac9  1  0.10446600  0.02407800  0.40936300  1
  Ac  Ac10  1  0.74341200  0.61483200  0.43791800  1
  Ac  Ac11  1  0.14547700  0.43986000  0.45097100  1
  Ac  Ac12  1  0.78442300  0.03061400  0.47952600  1
  Ac  Ac13  1  0.18779900  0.85741200  0.49269600  1
  Ac  Ac14  1  0.82674500  0.44816500  0.52125200  1
  Ac  Ac15  1  0.22881000  0.27319400  0.53430400  1
  Ac  Ac16  1  0.86775600  0.86394700  0.56286000  1
  Ac  Ac17  1  0.27113200  0.69074500  0.57602900  1
  Ac  Ac18  1  0.91007900  0.28149800  0.60458500  1
  Ac  Ac19  1  0.31214400  0.10652700  0.61763700  1
  Ac  Ac20  1  0.95109000  0.69728100  0.64619300  1
  Ac  Ac21  1  0.35446600  0.52407800  0.65936300  1
  Ac  Ac22  1  0.99341200  0.11483200  0.68791800  1
  Ac  Ac23  1  0.39547700  0.93986000  0.70097100  1
  Ac  Ac24  1  0.03442300  0.53061400  0.72952600  1
  Ac  Ac25  1  0.43779900  0.35741200  0.74269600  1
  Mg  Mg26  1  0.21593100  0.73587900  0.21526400  1
  Mg  Mg27  1  0.25629100  0.15214600  0.25695800  1
  Mg  Mg28  1  0.29926500  0.56921300  0.29859800  1
  Mg  Mg29  1  0.33962400  0.98548000  0.34029100  1
  Mg  Mg30  1  0.38259800  0.40254600  0.38193100  1
  Mg  Mg31  1  0.42295700  0.81881300  0.42362400  1
  Mg  Mg32  1  0.46593100  0.23587900  0.46526400  1
  Mg  Mg33  1  0.50629100  0.65214600  0.50695800  1
  Mg  Mg34  1  0.54926500  0.06921300  0.54859800  1
  Mg  Mg35  1  0.58962400  0.48548000  0.59029100  1
  Mg  Mg36  1  0.63259800  0.90254600  0.63193100  1
  Mg  Mg37  1  0.67295700  0.31881300  0.67362400  1
  Mg  Mg38  1  0.71593100  0.73587900  0.71526400  1
  Mg  Mg39  1  0.75629100  0.15214600  0.75695800  1
