# generated using pymatgen
data_Mg14Zn69
_symmetry_space_group_name_H-M   'P 1'
_cell_length_a   4.98183571
_cell_length_b   9.87228479
_cell_length_c   49.62169200
_cell_angle_alpha   87.16066620
_cell_angle_beta   87.12264785
_cell_angle_gamma   75.38550100
_symmetry_Int_Tables_number   1
_chemical_formula_structural   Mg14Zn69
_chemical_formula_sum   'Mg14 Zn69'
_cell_volume   2356.84330036
_cell_formula_units_Z   1
loop_
 _symmetry_equiv_pos_site_id
 _symmetry_equiv_pos_as_xyz
  1  'x, y, z'
loop_
 _atom_site_type_symbol
 _atom_site_label
 _atom_site_symmetry_multiplicity
 _atom_site_fract_x
 _atom_site_fract_y
 _atom_site_fract_z
 _atom_site_occupancy
  Mg  Mg0  1  0.70126300  0.78130200  0.81617200  1
  Mg  Mg1  1  0.21967100  0.78655300  0.77410600  1
  Mg  Mg2  1  0.37317000  0.57449000  0.67917000  1
  Mg  Mg3  1  0.38109700  0.49336600  0.74444100  1
  Mg  Mg4  1  0.53459600  0.28130200  0.64950500  1
  Mg  Mg5  1  0.05300400  0.28655300  0.60743900  1
  Mg  Mg6  1  0.20650300  0.07449000  0.51250400  1
  Mg  Mg7  1  0.21443000  0.99336600  0.57777400  1
  Mg  Mg8  1  0.36793000  0.78130200  0.48283900  1
  Mg  Mg9  1  0.88633700  0.78655300  0.44077200  1
  Mg  Mg10  1  0.03983700  0.57449000  0.34583700  1
  Mg  Mg11  1  0.04776300  0.49336600  0.41110800  1
  Mg  Mg12  1  0.20126300  0.28130200  0.31617200  1
  Mg  Mg13  1  0.71967100  0.28655300  0.27410600  1
  Zn  Zn14  1  0.46046700  0.28392800  0.79513900  1
  Zn  Zn15  1  0.95836100  0.25699100  0.82628700  1
  Zn  Zn16  1  0.64501700  0.02039900  0.68956700  1
  Zn  Zn17  1  0.79725900  0.64633100  0.75915200  1
  Zn  Zn18  1  0.12367500  0.92152400  0.83112600  1
  Zn  Zn19  1  0.74856500  0.28987600  0.70769200  1
  Zn  Zn20  1  0.83338200  0.04759200  0.79135700  1
  Zn  Zn21  1  0.96257200  0.31086400  0.76399100  1
  Zn  Zn22  1  0.08918300  0.15008200  0.67155200  1
  Zn  Zn23  1  0.59326400  0.52026400  0.79892100  1
  Zn  Zn24  1  0.32767000  0.04759200  0.79135700  1
  Zn  Zn25  1  0.08755200  0.52026400  0.79892100  1
  Zn  Zn26  1  0.50040000  0.77798000  0.71591900  1
  Zn  Zn27  1  0.10925000  0.04745700  0.73404400  1
  Zn  Zn28  1  0.25386700  0.28987600  0.70769200  1
  Zn  Zn29  1  0.00570100  0.77798000  0.71591900  1
  Zn  Zn30  1  0.87713300  0.53392800  0.71180600  1
  Zn  Zn31  1  0.53352800  0.18435300  0.74859100  1
  Zn  Zn32  1  0.22073900  0.88350300  0.67502000  1
  Zn  Zn33  1  0.66508400  0.91777300  0.75206000  1
  Zn  Zn34  1  0.29380000  0.78392800  0.62847200  1
  Zn  Zn35  1  0.79169400  0.75699100  0.65962000  1
  Zn  Zn36  1  0.47835000  0.52039900  0.52290100  1
  Zn  Zn37  1  0.63059200  0.14633100  0.59248500  1
  Zn  Zn38  1  0.95700800  0.42152400  0.66445900  1
  Zn  Zn39  1  0.58189900  0.78987600  0.54102600  1
  Zn  Zn40  1  0.66671500  0.54759200  0.62469000  1
  Zn  Zn41  1  0.79590600  0.81086400  0.59732400  1
  Zn  Zn42  1  0.92251600  0.65008200  0.50488500  1
  Zn  Zn43  1  0.42659700  0.02026400  0.63225400  1
  Zn  Zn44  1  0.16100300  0.54759200  0.62469000  1
  Zn  Zn45  1  0.92088500  0.02026400  0.63225400  1
  Zn  Zn46  1  0.33373400  0.27798000  0.54925200  1
  Zn  Zn47  1  0.94258300  0.54745700  0.56737700  1
  Zn  Zn48  1  0.08720000  0.78987600  0.54102600  1
  Zn  Zn49  1  0.83903500  0.27798000  0.54925200  1
  Zn  Zn50  1  0.71046700  0.03392800  0.54513900  1
  Zn  Zn51  1  0.36686100  0.68435300  0.58192500  1
  Zn  Zn52  1  0.05407200  0.38350300  0.50835300  1
  Zn  Zn53  1  0.49841700  0.41777300  0.58539300  1
  Zn  Zn54  1  0.12713300  0.28392800  0.46180600  1
  Zn  Zn55  1  0.62502800  0.25699100  0.49295400  1
  Zn  Zn56  1  0.31168400  0.02039900  0.35623400  1
  Zn  Zn57  1  0.46392500  0.64633100  0.42581800  1
  Zn  Zn58  1  0.79034200  0.92152400  0.49779300  1
  Zn  Zn59  1  0.41523200  0.28987600  0.37435900  1
  Zn  Zn60  1  0.50004800  0.04759200  0.45802400  1
  Zn  Zn61  1  0.62923900  0.31086400  0.43065800  1
  Zn  Zn62  1  0.75585000  0.15008200  0.33821800  1
  Zn  Zn63  1  0.25993000  0.52026400  0.46558700  1
  Zn  Zn64  1  0.99433700  0.04759200  0.45802400  1
  Zn  Zn65  1  0.75421900  0.52026400  0.46558700  1
  Zn  Zn66  1  0.16706700  0.77798000  0.38258500  1
  Zn  Zn67  1  0.77591600  0.04745700  0.40071000  1
  Zn  Zn68  1  0.92053300  0.28987600  0.37435900  1
  Zn  Zn69  1  0.67236800  0.77798000  0.38258500  1
  Zn  Zn70  1  0.54380000  0.53392800  0.37847200  1
  Zn  Zn71  1  0.20019500  0.18435300  0.41525800  1
  Zn  Zn72  1  0.88740500  0.88350300  0.34168600  1
  Zn  Zn73  1  0.33175000  0.91777300  0.41872600  1
  Zn  Zn74  1  0.96046700  0.78392800  0.29513900  1
  Zn  Zn75  1  0.45836100  0.75699100  0.32628700  1
  Zn  Zn76  1  0.29725900  0.14633100  0.25915200  1
  Zn  Zn77  1  0.62367500  0.42152400  0.33112600  1
  Zn  Zn78  1  0.33338200  0.54759200  0.29135700  1
  Zn  Zn79  1  0.46257200  0.81086400  0.26399100  1
  Zn  Zn80  1  0.09326400  0.02026400  0.29892100  1
  Zn  Zn81  1  0.82767000  0.54759200  0.29135700  1
  Zn  Zn82  1  0.58755200  0.02026400  0.29892100  1
