# generated using pymatgen
data_Mg12Cu25
_symmetry_space_group_name_H-M   'P 1'
_cell_length_a   4.97853684
_cell_length_b   4.97853667
_cell_length_c   44.80683400
_cell_angle_alpha   86.81526574
_cell_angle_beta   86.81526585
_cell_angle_gamma   60.00000166
_symmetry_Int_Tables_number   1
_chemical_formula_structural   Mg12Cu25
_chemical_formula_sum   'Mg12 Cu25'
_cell_volume   959.80472128
_cell_formula_units_Z   1
loop_
 _symmetry_equiv_pos_site_id
 _symmetry_equiv_pos_as_xyz
  1  'x, y, z'
loop_
 _atom_site_type_symbol
 _atom_site_label
 _atom_site_symmetry_multiplicity
 _atom_site_fract_x
 _atom_site_fract_y
 _atom_site_fract_z
 _atom_site_occupancy
  Mg  Mg0  1  0.08712100  0.08712100  0.73106100  1
  Mg  Mg1  1  0.06439400  0.06439400  0.79924200  1
  Mg  Mg2  1  0.45075800  0.45075800  0.64015200  1
  Mg  Mg3  1  0.42803000  0.42803000  0.70833300  1
  Mg  Mg4  1  0.81439400  0.81439400  0.54924200  1
  Mg  Mg5  1  0.79166700  0.79166700  0.61742400  1
  Mg  Mg6  1  0.17803000  0.17803000  0.45833300  1
  Mg  Mg7  1  0.15530300  0.15530300  0.52651500  1
  Mg  Mg8  1  0.54166700  0.54166700  0.36742400  1
  Mg  Mg9  1  0.51893900  0.51893900  0.43560600  1
  Mg  Mg10  1  0.90530300  0.90530300  0.27651500  1
  Mg  Mg11  1  0.88257600  0.88257600  0.34469700  1
  Cu  Cu12  1  0.57575800  0.07575800  0.76515200  1
  Cu  Cu13  1  0.39393900  0.39393900  0.81060600  1
  Cu  Cu14  1  0.57575800  0.57575800  0.76515200  1
  Cu  Cu15  1  0.07575800  0.57575800  0.76515200  1
  Cu  Cu16  1  0.93939400  0.43939400  0.67424200  1
  Cu  Cu17  1  0.75757600  0.75757600  0.71969700  1
  Cu  Cu18  1  0.93939400  0.93939400  0.67424200  1
  Cu  Cu19  1  0.43939400  0.93939400  0.67424200  1
  Cu  Cu20  1  0.30303000  0.80303000  0.58333300  1
  Cu  Cu21  1  0.12121200  0.12121200  0.62878800  1
  Cu  Cu22  1  0.30303000  0.30303000  0.58333300  1
  Cu  Cu23  1  0.80303000  0.30303000  0.58333300  1
  Cu  Cu24  1  0.66666700  0.16666700  0.49242400  1
  Cu  Cu25  1  0.48484800  0.48484800  0.53787900  1
  Cu  Cu26  1  0.66666700  0.66666700  0.49242400  1
  Cu  Cu27  1  0.16666700  0.66666700  0.49242400  1
  Cu  Cu28  1  0.03030300  0.53030300  0.40151500  1
  Cu  Cu29  1  0.84848500  0.84848500  0.44697000  1
  Cu  Cu30  1  0.03030300  0.03030300  0.40151500  1
  Cu  Cu31  1  0.53030300  0.03030300  0.40151500  1
  Cu  Cu32  1  0.39393900  0.89393900  0.31060600  1
  Cu  Cu33  1  0.21212100  0.21212100  0.35606100  1
  Cu  Cu34  1  0.39393900  0.39393900  0.31060600  1
  Cu  Cu35  1  0.89393900  0.39393900  0.31060600  1
  Cu  Cu36  1  0.57575800  0.57575800  0.26515200  1
