# generated using pymatgen
data_Mg23B158
_symmetry_space_group_name_H-M   'P 1'
_cell_length_a   10.07244113
_cell_length_b   12.05234828
_cell_length_c   43.84258900
_cell_angle_alpha   85.56912893
_cell_angle_beta   87.53461614
_cell_angle_gamma   72.91219278
_symmetry_Int_Tables_number   1
_chemical_formula_structural   Mg23B158
_chemical_formula_sum   'Mg46 B316'
_cell_volume   5071.03078932
_cell_formula_units_Z   2
loop_
 _symmetry_equiv_pos_site_id
 _symmetry_equiv_pos_as_xyz
  1  'x, y, z'
loop_
 _atom_site_type_symbol
 _atom_site_label
 _atom_site_symmetry_multiplicity
 _atom_site_fract_x
 _atom_site_fract_y
 _atom_site_fract_z
 _atom_site_occupancy
  Mg  Mg0  1  0.24021300  0.74347600  0.20781200  1
  Mg  Mg1  1  0.09021300  0.64347600  0.25781200  1
  Mg  Mg2  1  0.09547100  0.07054500  0.29427800  1
  Mg  Mg3  1  0.43495600  0.61640600  0.27134700  1
  Mg  Mg4  1  0.59021300  0.14347600  0.25781200  1
  Mg  Mg5  1  0.74021300  0.24347600  0.20781300  1
  Mg  Mg6  1  0.74547100  0.67054500  0.24427800  1
  Mg  Mg7  1  0.08495600  0.21640600  0.22134700  1
  Mg  Mg8  1  0.94021300  0.54347600  0.30781200  1
  Mg  Mg9  1  0.79021300  0.44347600  0.35781200  1
  Mg  Mg10  1  0.79547100  0.87054500  0.39427800  1
  Mg  Mg11  1  0.13495600  0.41640600  0.37134700  1
  Mg  Mg12  1  0.29021300  0.94347600  0.35781200  1
  Mg  Mg13  1  0.44021300  0.04347600  0.30781200  1
  Mg  Mg14  1  0.44547100  0.47054500  0.34427800  1
  Mg  Mg15  1  0.78495600  0.01640600  0.32134700  1
  Mg  Mg16  1  0.64021300  0.34347600  0.40781200  1
  Mg  Mg17  1  0.49021300  0.24347600  0.45781200  1
  Mg  Mg18  1  0.49547100  0.67054500  0.49427800  1
  Mg  Mg19  1  0.83495600  0.21640600  0.47134700  1
  Mg  Mg20  1  0.99021300  0.74347600  0.45781300  1
  Mg  Mg21  1  0.14021300  0.84347600  0.40781200  1
  Mg  Mg22  1  0.14547100  0.27054500  0.44427800  1
  Mg  Mg23  1  0.48495600  0.81640600  0.42134700  1
  Mg  Mg24  1  0.34021300  0.14347600  0.50781300  1
  Mg  Mg25  1  0.19021300  0.04347600  0.55781200  1
  Mg  Mg26  1  0.19547100  0.47054500  0.59427800  1
  Mg  Mg27  1  0.53495600  0.01640600  0.57134700  1
  Mg  Mg28  1  0.69021300  0.54347600  0.55781200  1
  Mg  Mg29  1  0.84021300  0.64347600  0.50781200  1
  Mg  Mg30  1  0.84547100  0.07054500  0.54427800  1
  Mg  Mg31  1  0.18495600  0.61640600  0.52134700  1
  Mg  Mg32  1  0.04021300  0.94347600  0.60781200  1
  Mg  Mg33  1  0.89021300  0.84347600  0.65781200  1
  Mg  Mg34  1  0.89547100  0.27054500  0.69427800  1
  Mg  Mg35  1  0.23495600  0.81640600  0.67134700  1
  Mg  Mg36  1  0.39021300  0.34347600  0.65781200  1
  Mg  Mg37  1  0.54021300  0.44347600  0.60781200  1
  Mg  Mg38  1  0.54547100  0.87054500  0.64427800  1
  Mg  Mg39  1  0.88495600  0.41640600  0.62134700  1
  Mg  Mg40  1  0.74021300  0.74347600  0.70781200  1
  Mg  Mg41  1  0.59021300  0.64347600  0.75781200  1
  Mg  Mg42  1  0.09021300  0.14347600  0.75781200  1
  Mg  Mg43  1  0.24021300  0.24347600  0.70781200  1
  Mg  Mg44  1  0.24547100  0.67054500  0.74427800  1
  Mg  Mg45  1  0.58495600  0.21640600  0.72134700  1
  B  B46  1  0.60374500  0.13282500  0.20838900  1
  B  B47  1  0.49715200  0.04612100  0.22040700  1
  B  B48  1  0.34918500  0.94747600  0.26972900  1
  B  B49  1  0.31646400  0.91290600  0.20694900  1
  B  B50  1  0.34830400  0.08125900  0.24698700  1
  B  B51  1  0.32839600  0.05818700  0.20728000  1
  B  B52  1  0.23506100  0.99596400  0.23839100  1
  B  B53  1  0.06334100  0.84237000  0.24221700  1
  B  B54  1  0.53804600  0.30802200  0.23028800  1
  B  B55  1  0.29798300  0.21544700  0.26376100  1
  B  B56  1  0.39385200  0.32158600  0.25484000  1
  B  B57  1  0.24588500  0.22294200  0.30416200  1
  B  B58  1  0.05717900  0.99282000  0.23996300  1
  B  B59  1  0.96384400  0.93059700  0.27107500  1
  B  B60  1  0.56658300  0.75635400  0.29455000  1
  B  B61  1  0.77324800  0.89413100  0.22566200  1
  B  B62  1  0.28454100  0.46400900  0.26146300  1
  B  B63  1  0.43657500  0.56536500  0.21078500  1
  B  B64  1  0.23244400  0.47150400  0.30186400  1
  B  B65  1  0.29238100  0.57892900  0.23533700  1
  B  B66  1  0.76708500  0.04458100  0.22340800  1
  B  B67  1  0.59536600  0.89098800  0.22723400  1
  B  B68  1  0.50203100  0.82876400  0.25834500  1
  B  B69  1  0.48212300  0.80569300  0.21863800  1
  B  B70  1  0.51396300  0.97404500  0.25867600  1
  B  B71  1  0.18124200  0.73947500  0.29589600  1
  B  B72  1  0.33327500  0.84083000  0.24521800  1
  B  B73  1  0.22668200  0.75412600  0.25723600  1
  B  B74  1  0.95374500  0.53282500  0.25838900  1
  B  B75  1  0.84715200  0.44612100  0.27040700  1
  B  B76  1  0.99918500  0.54747600  0.21972900  1
  B  B77  1  0.66646400  0.31290600  0.25694900  1
  B  B78  1  0.69830400  0.48125900  0.29698700  1
  B  B79  1  0.67839600  0.45818700  0.25728000  1
  B  B80  1  0.58506100  0.39596400  0.28839100  1
  B  B81  1  0.41334100  0.24237000  0.29221700  1
  B  B82  1  0.88804600  0.70802200  0.28028800  1
  B  B83  1  0.94798300  0.81544700  0.21376100  1
  B  B84  1  0.04385200  0.92158600  0.20484000  1
  B  B85  1  0.89588500  0.82294200  0.25416200  1
  B  B86  1  0.40717900  0.39282000  0.28996300  1
  B  B87  1  0.61384400  0.53059700  0.22107500  1
  B  B88  1  0.21658300  0.35635400  0.24455000  1
  B  B89  1  0.12324800  0.29413100  0.27566200  1
  B  B90  1  0.93454100  0.06400900  0.21146300  1
  B  B91  1  0.78657500  0.96536500  0.26078500  1
  B  B92  1  0.88244400  0.07150400  0.25186400  1
  B  B93  1  0.64238100  0.97892900  0.28533700  1
  B  B94  1  0.11708500  0.44458100  0.27340800  1
  B  B95  1  0.94536600  0.29098800  0.27723400  1
  B  B96  1  0.15203100  0.42876400  0.20834500  1
  B  B97  1  0.83212300  0.20569300  0.26863800  1
  B  B98  1  0.16396300  0.57404500  0.20867600  1
  B  B99  1  0.83124200  0.33947500  0.24589600  1
  B  B100  1  0.68327500  0.24083000  0.29521800  1
  B  B101  1  0.87668200  0.35412600  0.20723600  1
  B  B102  1  0.30374500  0.93282500  0.30838900  1
  B  B103  1  0.19715200  0.84612100  0.32040700  1
  B  B104  1  0.04918500  0.74747600  0.36972900  1
  B  B105  1  0.01646400  0.71290600  0.30694900  1
  B  B106  1  0.04830400  0.88125900  0.34698700  1
  B  B107  1  0.02839600  0.85818700  0.30728000  1
  B  B108  1  0.93506100  0.79596400  0.33839100  1
  B  B109  1  0.76334100  0.64237000  0.34221700  1
  B  B110  1  0.23804600  0.10802200  0.33028800  1
  B  B111  1  0.99798300  0.01544700  0.36376100  1
  B  B112  1  0.09385200  0.12158600  0.35484000  1
  B  B113  1  0.94588500  0.02294200  0.40416200  1
  B  B114  1  0.75717900  0.79282000  0.33996300  1
  B  B115  1  0.66384400  0.73059700  0.37107500  1
  B  B116  1  0.26658300  0.55635400  0.39455000  1
  B  B117  1  0.47324800  0.69413100  0.32566200  1
  B  B118  1  0.98454100  0.26400900  0.36146300  1
  B  B119  1  0.13657500  0.36536500  0.31078500  1
  B  B120  1  0.93244400  0.27150400  0.40186400  1
  B  B121  1  0.99238100  0.37892900  0.33533700  1
  B  B122  1  0.46708500  0.84458100  0.32340800  1
  B  B123  1  0.29536600  0.69098800  0.32723400  1
  B  B124  1  0.20203100  0.62876400  0.35834500  1
  B  B125  1  0.18212300  0.60569300  0.31863800  1
  B  B126  1  0.21396300  0.77404500  0.35867600  1
  B  B127  1  0.88124200  0.53947500  0.39589600  1
  B  B128  1  0.03327500  0.64083000  0.34521800  1
  B  B129  1  0.92668200  0.55412600  0.35723600  1
  B  B130  1  0.65374500  0.33282500  0.35838900  1
  B  B131  1  0.54715200  0.24612100  0.37040700  1
  B  B132  1  0.69918500  0.34747600  0.31972900  1
  B  B133  1  0.36646400  0.11290600  0.35694900  1
  B  B134  1  0.39830400  0.28125900  0.39698700  1
  B  B135  1  0.37839600  0.25818700  0.35728000  1
  B  B136  1  0.28506100  0.19596400  0.38839100  1
  B  B137  1  0.11334100  0.04237000  0.39221700  1
  B  B138  1  0.58804600  0.50802200  0.38028800  1
  B  B139  1  0.64798300  0.61544700  0.31376100  1
  B  B140  1  0.74385200  0.72158600  0.30484000  1
  B  B141  1  0.59588500  0.62294200  0.35416200  1
  B  B142  1  0.10717900  0.19282000  0.38996300  1
  B  B143  1  0.31384400  0.33059700  0.32107500  1
  B  B144  1  0.91658300  0.15635400  0.34455000  1
  B  B145  1  0.82324800  0.09413100  0.37566200  1
  B  B146  1  0.63454100  0.86400900  0.31146300  1
  B  B147  1  0.48657500  0.76536500  0.36078500  1
  B  B148  1  0.58244400  0.87150400  0.35186400  1
  B  B149  1  0.34238100  0.77892900  0.38533700  1
  B  B150  1  0.81708500  0.24458100  0.37340800  1
  B  B151  1  0.64536600  0.09098800  0.37723400  1
  B  B152  1  0.85203100  0.22876400  0.30834500  1
  B  B153  1  0.53212300  0.00569300  0.36863800  1
  B  B154  1  0.86396300  0.37404500  0.30867600  1
  B  B155  1  0.53124200  0.13947500  0.34589600  1
  B  B156  1  0.38327500  0.04083000  0.39521800  1
  B  B157  1  0.57668200  0.15412600  0.30723600  1
  B  B158  1  0.00374500  0.73282500  0.40838900  1
  B  B159  1  0.89715200  0.64612100  0.42040700  1
  B  B160  1  0.74918500  0.54747600  0.46972900  1
  B  B161  1  0.71646400  0.51290600  0.40694900  1
  B  B162  1  0.74830400  0.68125900  0.44698700  1
  B  B163  1  0.72839600  0.65818700  0.40728000  1
  B  B164  1  0.63506100  0.59596400  0.43839100  1
  B  B165  1  0.46334100  0.44237000  0.44221700  1
  B  B166  1  0.93804600  0.90802200  0.43028800  1
  B  B167  1  0.69798300  0.81544700  0.46376100  1
  B  B168  1  0.79385200  0.92158600  0.45484000  1
  B  B169  1  0.64588500  0.82294200  0.50416200  1
  B  B170  1  0.45717900  0.59282000  0.43996300  1
  B  B171  1  0.36384400  0.53059700  0.47107500  1
  B  B172  1  0.96658300  0.35635400  0.49455000  1
  B  B173  1  0.17324800  0.49413100  0.42566200  1
  B  B174  1  0.68454100  0.06400900  0.46146300  1
  B  B175  1  0.83657500  0.16536500  0.41078500  1
  B  B176  1  0.63244400  0.07150400  0.50186400  1
  B  B177  1  0.69238100  0.17892900  0.43533700  1
  B  B178  1  0.16708500  0.64458100  0.42340800  1
  B  B179  1  0.99536600  0.49098800  0.42723400  1
  B  B180  1  0.90203100  0.42876400  0.45834500  1
  B  B181  1  0.88212300  0.40569300  0.41863800  1
  B  B182  1  0.91396300  0.57404500  0.45867600  1
  B  B183  1  0.58124200  0.33947500  0.49589600  1
  B  B184  1  0.73327500  0.44083000  0.44521800  1
  B  B185  1  0.62668200  0.35412600  0.45723600  1
  B  B186  1  0.35374500  0.13282500  0.45838900  1
  B  B187  1  0.24715200  0.04612100  0.47040700  1
  B  B188  1  0.39918500  0.14747600  0.41972900  1
  B  B189  1  0.06646400  0.91290600  0.45694900  1
  B  B190  1  0.09830400  0.08125900  0.49698700  1
  B  B191  1  0.07839600  0.05818700  0.45728000  1
  B  B192  1  0.98506100  0.99596400  0.48839100  1
  B  B193  1  0.81334100  0.84237000  0.49221700  1
  B  B194  1  0.28804600  0.30802200  0.48028800  1
  B  B195  1  0.34798300  0.41544700  0.41376100  1
  B  B196  1  0.44385200  0.52158600  0.40484000  1
  B  B197  1  0.29588500  0.42294200  0.45416200  1
  B  B198  1  0.80717900  0.99282000  0.48996300  1
  B  B199  1  0.01384400  0.13059700  0.42107500  1
  B  B200  1  0.61658300  0.95635400  0.44455000  1
  B  B201  1  0.52324800  0.89413100  0.47566200  1
  B  B202  1  0.33454100  0.66400900  0.41146300  1
  B  B203  1  0.18657500  0.56536500  0.46078500  1
  B  B204  1  0.28244400  0.67150400  0.45186400  1
  B  B205  1  0.04238100  0.57892900  0.48533700  1
  B  B206  1  0.51708500  0.04458100  0.47340800  1
  B  B207  1  0.34536600  0.89098800  0.47723400  1
  B  B208  1  0.55203100  0.02876400  0.40834500  1
  B  B209  1  0.23212300  0.80569300  0.46863800  1
  B  B210  1  0.56396300  0.17404500  0.40867600  1
  B  B211  1  0.23124200  0.93947500  0.44589600  1
  B  B212  1  0.08327500  0.84083000  0.49521800  1
  B  B213  1  0.27668200  0.95412600  0.40723600  1
  B  B214  1  0.70374500  0.53282500  0.50838900  1
  B  B215  1  0.59715200  0.44612100  0.52040700  1
  B  B216  1  0.44918500  0.34747600  0.56972900  1
  B  B217  1  0.41646400  0.31290600  0.50694900  1
  B  B218  1  0.44830400  0.48125900  0.54698700  1
  B  B219  1  0.42839600  0.45818700  0.50728000  1
  B  B220  1  0.33506100  0.39596400  0.53839100  1
  B  B221  1  0.16334100  0.24237000  0.54221700  1
  B  B222  1  0.63804600  0.70802200  0.53028800  1
  B  B223  1  0.39798300  0.61544700  0.56376100  1
  B  B224  1  0.49385200  0.72158600  0.55484000  1
  B  B225  1  0.34588500  0.62294200  0.60416200  1
  B  B226  1  0.15717900  0.39282000  0.53996300  1
  B  B227  1  0.06384400  0.33059700  0.57107500  1
  B  B228  1  0.66658300  0.15635400  0.59455000  1
  B  B229  1  0.87324800  0.29413100  0.52566200  1
  B  B230  1  0.38454100  0.86400900  0.56146300  1
  B  B231  1  0.53657500  0.96536500  0.51078500  1
  B  B232  1  0.33244400  0.87150400  0.60186400  1
  B  B233  1  0.39238100  0.97892900  0.53533700  1
  B  B234  1  0.86708500  0.44458100  0.52340800  1
  B  B235  1  0.69536600  0.29098800  0.52723400  1
  B  B236  1  0.60203100  0.22876400  0.55834500  1
  B  B237  1  0.58212300  0.20569300  0.51863800  1
  B  B238  1  0.61396300  0.37404500  0.55867600  1
  B  B239  1  0.28124200  0.13947500  0.59589600  1
  B  B240  1  0.43327500  0.24083000  0.54521800  1
  B  B241  1  0.32668200  0.15412600  0.55723600  1
  B  B242  1  0.05374500  0.93282500  0.55838900  1
  B  B243  1  0.94715200  0.84612100  0.57040700  1
  B  B244  1  0.09918500  0.94747600  0.51972900  1
  B  B245  1  0.76646400  0.71290600  0.55694900  1
  B  B246  1  0.79830400  0.88125900  0.59698700  1
  B  B247  1  0.77839600  0.85818700  0.55728000  1
  B  B248  1  0.68506100  0.79596400  0.58839100  1
  B  B249  1  0.51334100  0.64237000  0.59221700  1
  B  B250  1  0.98804600  0.10802200  0.58028800  1
  B  B251  1  0.04798300  0.21544700  0.51376100  1
  B  B252  1  0.14385200  0.32158600  0.50484000  1
  B  B253  1  0.99588500  0.22294200  0.55416200  1
  B  B254  1  0.50717900  0.79282000  0.58996300  1
  B  B255  1  0.71384400  0.93059700  0.52107500  1
  B  B256  1  0.31658300  0.75635400  0.54455000  1
  B  B257  1  0.22324800  0.69413100  0.57566200  1
  B  B258  1  0.03454100  0.46400900  0.51146300  1
  B  B259  1  0.88657500  0.36536500  0.56078500  1
  B  B260  1  0.98244400  0.47150400  0.55186400  1
  B  B261  1  0.74238100  0.37892900  0.58533700  1
  B  B262  1  0.21708500  0.84458100  0.57340800  1
  B  B263  1  0.04536600  0.69098800  0.57723400  1
  B  B264  1  0.25203100  0.82876400  0.50834500  1
  B  B265  1  0.93212300  0.60569300  0.56863800  1
  B  B266  1  0.26396300  0.97404500  0.50867600  1
  B  B267  1  0.93124200  0.73947500  0.54589600  1
  B  B268  1  0.78327500  0.64083000  0.59521800  1
  B  B269  1  0.97668200  0.75412600  0.50723600  1
  B  B270  1  0.40374500  0.33282500  0.60838900  1
  B  B271  1  0.29715200  0.24612100  0.62040700  1
  B  B272  1  0.14918500  0.14747600  0.66972900  1
  B  B273  1  0.11646400  0.11290600  0.60694900  1
  B  B274  1  0.14830400  0.28125900  0.64698700  1
  B  B275  1  0.12839600  0.25818700  0.60728000  1
  B  B276  1  0.03506100  0.19596400  0.63839100  1
  B  B277  1  0.86334100  0.04237000  0.64221700  1
  B  B278  1  0.33804600  0.50802200  0.63028800  1
  B  B279  1  0.09798300  0.41544700  0.66376100  1
  B  B280  1  0.19385200  0.52158600  0.65484000  1
  B  B281  1  0.04588500  0.42294200  0.70416200  1
  B  B282  1  0.85717900  0.19282000  0.63996300  1
  B  B283  1  0.76384400  0.13059700  0.67107500  1
  B  B284  1  0.36658300  0.95635400  0.69455000  1
  B  B285  1  0.57324800  0.09413100  0.62566200  1
  B  B286  1  0.08454100  0.66400900  0.66146300  1
  B  B287  1  0.23657500  0.76536500  0.61078500  1
  B  B288  1  0.03244400  0.67150400  0.70186400  1
  B  B289  1  0.09238100  0.77892900  0.63533700  1
  B  B290  1  0.56708500  0.24458100  0.62340800  1
  B  B291  1  0.39536600  0.09098800  0.62723400  1
  B  B292  1  0.30203100  0.02876400  0.65834500  1
  B  B293  1  0.28212300  0.00569300  0.61863800  1
  B  B294  1  0.31396300  0.17404500  0.65867600  1
  B  B295  1  0.98124200  0.93947500  0.69589600  1
  B  B296  1  0.13327500  0.04083000  0.64521800  1
  B  B297  1  0.02668200  0.95412600  0.65723600  1
  B  B298  1  0.75374500  0.73282500  0.65838900  1
  B  B299  1  0.64715200  0.64612100  0.67040700  1
  B  B300  1  0.79918500  0.74747600  0.61972900  1
  B  B301  1  0.46646400  0.51290600  0.65694900  1
  B  B302  1  0.49830400  0.68125900  0.69698700  1
  B  B303  1  0.47839600  0.65818700  0.65728000  1
  B  B304  1  0.38506100  0.59596400  0.68839100  1
  B  B305  1  0.21334100  0.44237000  0.69221700  1
  B  B306  1  0.68804600  0.90802200  0.68028800  1
  B  B307  1  0.74798300  0.01544700  0.61376100  1
  B  B308  1  0.84385200  0.12158600  0.60484000  1
  B  B309  1  0.69588500  0.02294200  0.65416200  1
  B  B310  1  0.20717900  0.59282000  0.68996300  1
  B  B311  1  0.41384400  0.73059700  0.62107500  1
  B  B312  1  0.01658300  0.55635400  0.64455000  1
  B  B313  1  0.92324800  0.49413100  0.67566200  1
  B  B314  1  0.73454100  0.26400900  0.61146300  1
  B  B315  1  0.58657500  0.16536500  0.66078500  1
  B  B316  1  0.68244400  0.27150400  0.65186400  1
  B  B317  1  0.44238100  0.17892900  0.68533700  1
  B  B318  1  0.91708500  0.64458100  0.67340800  1
  B  B319  1  0.74536600  0.49098800  0.67723400  1
  B  B320  1  0.95203100  0.62876400  0.60834500  1
  B  B321  1  0.63212300  0.40569300  0.66863800  1
  B  B322  1  0.96396300  0.77404500  0.60867600  1
  B  B323  1  0.63124200  0.53947500  0.64589600  1
  B  B324  1  0.48327500  0.44083000  0.69521800  1
  B  B325  1  0.67668200  0.55412600  0.60723600  1
  B  B326  1  0.10374500  0.13282500  0.70838900  1
  B  B327  1  0.99715200  0.04612100  0.72040700  1
  B  B328  1  0.81646400  0.91290600  0.70694900  1
  B  B329  1  0.84830400  0.08125900  0.74698700  1
  B  B330  1  0.82839600  0.05818700  0.70728000  1
  B  B331  1  0.73506100  0.99596400  0.73839100  1
  B  B332  1  0.56334100  0.84237000  0.74221700  1
  B  B333  1  0.03804600  0.30802200  0.73028800  1
  B  B334  1  0.89385200  0.32158600  0.75484000  1
  B  B335  1  0.55717900  0.99282000  0.73996300  1
  B  B336  1  0.27324800  0.89413100  0.72566200  1
  B  B337  1  0.93657500  0.56536500  0.71078500  1
  B  B338  1  0.79238100  0.57892900  0.73533700  1
  B  B339  1  0.26708500  0.04458100  0.72340800  1
  B  B340  1  0.09536600  0.89098800  0.72723400  1
  B  B341  1  0.00203100  0.82876400  0.75834500  1
  B  B342  1  0.98212300  0.80569300  0.71863800  1
  B  B343  1  0.01396300  0.97404500  0.75867600  1
  B  B344  1  0.83327500  0.84083000  0.74521800  1
  B  B345  1  0.72668200  0.75412600  0.75723600  1
  B  B346  1  0.45374500  0.53282500  0.75838900  1
  B  B347  1  0.49918500  0.54747600  0.71972900  1
  B  B348  1  0.16646400  0.31290600  0.75694900  1
  B  B349  1  0.17839600  0.45818700  0.75728000  1
  B  B350  1  0.44798300  0.81544700  0.71376100  1
  B  B351  1  0.54385200  0.92158600  0.70484000  1
  B  B352  1  0.39588500  0.82294200  0.75416200  1
  B  B353  1  0.11384400  0.53059700  0.72107500  1
  B  B354  1  0.71658300  0.35635400  0.74455000  1
  B  B355  1  0.43454100  0.06400900  0.71146300  1
  B  B356  1  0.28657500  0.96536500  0.76078500  1
  B  B357  1  0.38244400  0.07150400  0.75186400  1
  B  B358  1  0.65203100  0.42876400  0.70834500  1
  B  B359  1  0.66396300  0.57404500  0.70867600  1
  B  B360  1  0.33124200  0.33947500  0.74589600  1
  B  B361  1  0.37668200  0.35412600  0.70723600  1
