# generated using pymatgen
data_MgPb2
_symmetry_space_group_name_H-M   'P 1'
_cell_length_a   3.51663700
_cell_length_b   16.03892100
_cell_length_c   42.63696100
_cell_angle_alpha   90.00000000
_cell_angle_beta   90.00000000
_cell_angle_gamma   90.00000000
_symmetry_Int_Tables_number   1
_chemical_formula_structural   MgPb2
_chemical_formula_sum   'Mg18 Pb36'
_cell_volume   2404.85519863
_cell_formula_units_Z   18
loop_
 _symmetry_equiv_pos_site_id
 _symmetry_equiv_pos_as_xyz
  1  'x, y, z'
loop_
 _atom_site_type_symbol
 _atom_site_label
 _atom_site_symmetry_multiplicity
 _atom_site_fract_x
 _atom_site_fract_y
 _atom_site_fract_z
 _atom_site_occupancy
  Mg  Mg0  1  0.25000000  0.25000000  0.19047600  1
  Mg  Mg1  1  0.25000000  0.75000000  0.23809500  1
  Mg  Mg2  1  0.75000000  0.25000000  0.26190500  1
  Mg  Mg3  1  0.75000000  0.75000000  0.30952400  1
  Mg  Mg4  1  0.25000000  0.25000000  0.33333300  1
  Mg  Mg5  1  0.25000000  0.75000000  0.38095200  1
  Mg  Mg6  1  0.75000000  0.25000000  0.40476200  1
  Mg  Mg7  1  0.75000000  0.75000000  0.45238100  1
  Mg  Mg8  1  0.25000000  0.25000000  0.47619000  1
  Mg  Mg9  1  0.25000000  0.75000000  0.52381000  1
  Mg  Mg10  1  0.75000000  0.25000000  0.54761900  1
  Mg  Mg11  1  0.75000000  0.75000000  0.59523800  1
  Mg  Mg12  1  0.25000000  0.25000000  0.61904800  1
  Mg  Mg13  1  0.25000000  0.75000000  0.66666700  1
  Mg  Mg14  1  0.75000000  0.25000000  0.69047600  1
  Mg  Mg15  1  0.75000000  0.75000000  0.73809500  1
  Mg  Mg16  1  0.25000000  0.25000000  0.76190500  1
  Mg  Mg17  1  0.25000000  0.75000000  0.80952400  1
  Pb  Pb18  1  0.25000000  0.09594200  0.23809500  1
  Pb  Pb19  1  0.25000000  0.40405800  0.23809500  1
  Pb  Pb20  1  0.25000000  0.59594200  0.19047600  1
  Pb  Pb21  1  0.25000000  0.90405800  0.19047600  1
  Pb  Pb22  1  0.75000000  0.09594200  0.30952400  1
  Pb  Pb23  1  0.75000000  0.40405800  0.30952400  1
  Pb  Pb24  1  0.75000000  0.59594200  0.26190500  1
  Pb  Pb25  1  0.75000000  0.90405800  0.26190500  1
  Pb  Pb26  1  0.25000000  0.09594200  0.38095200  1
  Pb  Pb27  1  0.25000000  0.40405800  0.38095200  1
  Pb  Pb28  1  0.25000000  0.59594200  0.33333300  1
  Pb  Pb29  1  0.25000000  0.90405800  0.33333300  1
  Pb  Pb30  1  0.75000000  0.09594200  0.45238100  1
  Pb  Pb31  1  0.75000000  0.40405800  0.45238100  1
  Pb  Pb32  1  0.75000000  0.59594200  0.40476200  1
  Pb  Pb33  1  0.75000000  0.90405800  0.40476200  1
  Pb  Pb34  1  0.25000000  0.09594200  0.52381000  1
  Pb  Pb35  1  0.25000000  0.40405800  0.52381000  1
  Pb  Pb36  1  0.25000000  0.59594200  0.47619000  1
  Pb  Pb37  1  0.25000000  0.90405800  0.47619000  1
  Pb  Pb38  1  0.75000000  0.09594200  0.59523800  1
  Pb  Pb39  1  0.75000000  0.40405800  0.59523800  1
  Pb  Pb40  1  0.75000000  0.59594200  0.54761900  1
  Pb  Pb41  1  0.75000000  0.90405800  0.54761900  1
  Pb  Pb42  1  0.25000000  0.09594200  0.66666700  1
  Pb  Pb43  1  0.25000000  0.40405800  0.66666700  1
  Pb  Pb44  1  0.25000000  0.59594200  0.61904800  1
  Pb  Pb45  1  0.25000000  0.90405800  0.61904800  1
  Pb  Pb46  1  0.75000000  0.09594200  0.73809500  1
  Pb  Pb47  1  0.75000000  0.40405800  0.73809500  1
  Pb  Pb48  1  0.75000000  0.59594200  0.69047600  1
  Pb  Pb49  1  0.75000000  0.90405800  0.69047600  1
  Pb  Pb50  1  0.25000000  0.09594200  0.80952400  1
  Pb  Pb51  1  0.25000000  0.40405800  0.80952400  1
  Pb  Pb52  1  0.25000000  0.59594200  0.76190500  1
  Pb  Pb53  1  0.25000000  0.90405800  0.76190500  1
