# generated using pymatgen
data_Mg23Au68
_symmetry_space_group_name_H-M   'P 1'
_cell_length_a   10.43041218
_cell_length_b   11.29953425
_cell_length_c   49.40543900
_cell_angle_alpha   85.63582371
_cell_angle_beta   88.14566253
_cell_angle_gamma   98.74753851
_symmetry_Int_Tables_number   1
_chemical_formula_structural   Mg23Au68
_chemical_formula_sum   'Mg46 Au136'
_cell_volume   5732.74310784
_cell_formula_units_Z   2
loop_
 _symmetry_equiv_pos_site_id
 _symmetry_equiv_pos_as_xyz
  1  'x, y, z'
loop_
 _atom_site_type_symbol
 _atom_site_label
 _atom_site_symmetry_multiplicity
 _atom_site_fract_x
 _atom_site_fract_y
 _atom_site_fract_z
 _atom_site_occupancy
  Mg  Mg0  1  0.39871500  0.64298200  0.75315900  1
  Mg  Mg1  1  0.92819200  0.56978100  0.77809100  1
  Mg  Mg2  1  0.87803300  0.21866400  0.72793200  1
  Mg  Mg3  1  0.34887500  0.29410000  0.70331800  1
  Mg  Mg4  1  0.11765900  0.27020400  0.79435100  1
  Mg  Mg5  1  0.20924900  0.94256000  0.73689900  1
  Mg  Mg6  1  0.58791200  0.34445400  0.76960100  1
  Mg  Mg7  1  0.73899600  0.86830900  0.76164900  1
  Mg  Mg8  1  0.29871500  0.94298200  0.65315900  1
  Mg  Mg9  1  0.82819200  0.86978100  0.67809100  1
  Mg  Mg10  1  0.77803300  0.51866400  0.62793200  1
  Mg  Mg11  1  0.24887500  0.59410000  0.60331800  1
  Mg  Mg12  1  0.01765900  0.57020400  0.69435100  1
  Mg  Mg13  1  0.10924900  0.24256000  0.63689900  1
  Mg  Mg14  1  0.48791200  0.64445400  0.66960100  1
  Mg  Mg15  1  0.63899600  0.16830900  0.66164900  1
  Mg  Mg16  1  0.19871500  0.24298200  0.55315900  1
  Mg  Mg17  1  0.72819200  0.16978100  0.57809100  1
  Mg  Mg18  1  0.67803300  0.81866400  0.52793200  1
  Mg  Mg19  1  0.14887500  0.89410000  0.50331800  1
  Mg  Mg20  1  0.91765900  0.87020400  0.59435100  1
  Mg  Mg21  1  0.00924900  0.54256000  0.53689900  1
  Mg  Mg22  1  0.38791200  0.94445400  0.56960100  1
  Mg  Mg23  1  0.53899600  0.46830900  0.56164900  1
  Mg  Mg24  1  0.09871500  0.54298200  0.45315900  1
  Mg  Mg25  1  0.62819200  0.46978100  0.47809100  1
  Mg  Mg26  1  0.57803300  0.11866400  0.42793200  1
  Mg  Mg27  1  0.04887500  0.19410000  0.40331800  1
  Mg  Mg28  1  0.81765900  0.17020400  0.49435100  1
  Mg  Mg29  1  0.90924900  0.84256000  0.43689900  1
  Mg  Mg30  1  0.28791200  0.24445400  0.46960100  1
  Mg  Mg31  1  0.43899600  0.76830900  0.46164900  1
  Mg  Mg32  1  0.99871500  0.84298200  0.35315900  1
  Mg  Mg33  1  0.52819200  0.76978100  0.37809100  1
  Mg  Mg34  1  0.47803300  0.41866400  0.32793200  1
  Mg  Mg35  1  0.94887500  0.49410000  0.30331800  1
  Mg  Mg36  1  0.71765900  0.47020400  0.39435100  1
  Mg  Mg37  1  0.80924900  0.14256000  0.33689900  1
  Mg  Mg38  1  0.18791200  0.54445400  0.36960100  1
  Mg  Mg39  1  0.33899600  0.06830900  0.36164900  1
  Mg  Mg40  1  0.89871500  0.14298200  0.25315900  1
  Mg  Mg41  1  0.42819200  0.06978100  0.27809100  1
  Mg  Mg42  1  0.61765900  0.77020400  0.29435100  1
  Mg  Mg43  1  0.70924900  0.44256000  0.23689900  1
  Mg  Mg44  1  0.08791200  0.84445400  0.26960100  1
  Mg  Mg45  1  0.23899600  0.36830900  0.26164900  1
  Au  Au46  1  0.18834200  0.03171800  0.79051300  1
  Au  Au47  1  0.18856600  0.53104500  0.79073700  1
  Au  Au48  1  0.13856600  0.18104500  0.74073700  1
  Au  Au49  1  0.13834200  0.68171800  0.74051300  1
  Au  Au50  1  0.92403700  0.06895500  0.77828400  1
  Au  Au51  1  0.40287100  0.14380900  0.75296600  1
  Au  Au52  1  0.35298100  0.79457800  0.70307600  1
  Au  Au53  1  0.87392700  0.71818600  0.72817400  1
  Au  Au54  1  0.47384700  0.90474600  0.74950400  1
  Au  Au55  1  0.80347000  0.45679200  0.73215500  1
  Au  Au56  1  0.85306100  0.30801700  0.78174600  1
  Au  Au57  1  0.52343800  0.75597200  0.79909500  1
  Au  Au58  1  0.99809400  0.83041400  0.77428100  1
  Au  Au59  1  0.27872400  0.53261900  0.70687900  1
  Au  Au60  1  0.32881400  0.38234900  0.75696900  1
  Au  Au61  1  0.94818400  0.98014500  0.72437100  1
  Au  Au62  1  0.66345400  0.60638200  0.76562500  1
  Au  Au63  1  0.61345400  0.75638200  0.71562500  1
  Au  Au64  1  0.61345400  0.25638200  0.71562500  1
  Au  Au65  1  0.66345400  0.10638200  0.76562500  1
  Au  Au66  1  0.54082800  0.49491400  0.71944700  1
  Au  Au67  1  0.68608000  0.01784900  0.71180300  1
  Au  Au68  1  0.06134300  0.41920600  0.74468300  1
  Au  Au69  1  0.26556500  0.79355700  0.78656700  1
  Au  Au70  1  0.08834200  0.33171800  0.69051300  1
  Au  Au71  1  0.08856600  0.83104500  0.69073700  1
  Au  Au72  1  0.03856600  0.48104500  0.64073700  1
  Au  Au73  1  0.03834200  0.98171800  0.64051300  1
  Au  Au74  1  0.82403700  0.36895500  0.67828400  1
  Au  Au75  1  0.30287100  0.44380900  0.65296600  1
  Au  Au76  1  0.25298100  0.09457800  0.60307600  1
  Au  Au77  1  0.77392700  0.01818600  0.62817400  1
  Au  Au78  1  0.37384700  0.20474600  0.64950400  1
  Au  Au79  1  0.70347000  0.75679200  0.63215500  1
  Au  Au80  1  0.75306100  0.60801700  0.68174600  1
  Au  Au81  1  0.42343800  0.05597200  0.69909500  1
  Au  Au82  1  0.89809400  0.13041400  0.67428100  1
  Au  Au83  1  0.17872400  0.83261900  0.60687900  1
  Au  Au84  1  0.22881400  0.68234900  0.65696900  1
  Au  Au85  1  0.84818400  0.28014500  0.62437100  1
  Au  Au86  1  0.56345400  0.90638200  0.66562500  1
  Au  Au87  1  0.51345400  0.05638200  0.61562500  1
  Au  Au88  1  0.51345400  0.55638200  0.61562500  1
  Au  Au89  1  0.56345400  0.40638200  0.66562500  1
  Au  Au90  1  0.44082800  0.79491400  0.61944700  1
  Au  Au91  1  0.58608000  0.31784900  0.61180300  1
  Au  Au92  1  0.96134300  0.71920600  0.64468300  1
  Au  Au93  1  0.16556500  0.09355700  0.68656700  1
  Au  Au94  1  0.98834200  0.63171800  0.59051300  1
  Au  Au95  1  0.98856600  0.13104500  0.59073700  1
  Au  Au96  1  0.93856600  0.78104500  0.54073700  1
  Au  Au97  1  0.93834200  0.28171800  0.54051300  1
  Au  Au98  1  0.72403700  0.66895500  0.57828400  1
  Au  Au99  1  0.20287100  0.74380900  0.55296600  1
  Au  Au100  1  0.15298100  0.39457800  0.50307600  1
  Au  Au101  1  0.67392700  0.31818600  0.52817400  1
  Au  Au102  1  0.27384700  0.50474600  0.54950400  1
  Au  Au103  1  0.60347000  0.05679200  0.53215500  1
  Au  Au104  1  0.65306100  0.90801700  0.58174600  1
  Au  Au105  1  0.32343800  0.35597200  0.59909500  1
  Au  Au106  1  0.79809400  0.43041400  0.57428100  1
  Au  Au107  1  0.07872400  0.13261900  0.50687900  1
  Au  Au108  1  0.12881400  0.98234900  0.55696900  1
  Au  Au109  1  0.74818400  0.58014500  0.52437100  1
  Au  Au110  1  0.46345400  0.20638200  0.56562500  1
  Au  Au111  1  0.41345400  0.35638200  0.51562500  1
  Au  Au112  1  0.41345400  0.85638200  0.51562500  1
  Au  Au113  1  0.46345400  0.70638200  0.56562500  1
  Au  Au114  1  0.34082800  0.09491400  0.51944700  1
  Au  Au115  1  0.48608000  0.61784900  0.51180300  1
  Au  Au116  1  0.86134300  0.01920600  0.54468300  1
  Au  Au117  1  0.06556500  0.39355700  0.58656700  1
  Au  Au118  1  0.88834200  0.93171800  0.49051300  1
  Au  Au119  1  0.88856600  0.43104500  0.49073700  1
  Au  Au120  1  0.83856600  0.08104500  0.44073700  1
  Au  Au121  1  0.83834200  0.58171800  0.44051300  1
  Au  Au122  1  0.62403700  0.96895500  0.47828400  1
  Au  Au123  1  0.10287100  0.04380900  0.45296600  1
  Au  Au124  1  0.05298100  0.69457800  0.40307600  1
  Au  Au125  1  0.57392700  0.61818600  0.42817400  1
  Au  Au126  1  0.17384700  0.80474600  0.44950400  1
  Au  Au127  1  0.50347000  0.35679200  0.43215500  1
  Au  Au128  1  0.55306100  0.20801700  0.48174600  1
  Au  Au129  1  0.22343800  0.65597200  0.49909500  1
  Au  Au130  1  0.69809400  0.73041400  0.47428100  1
  Au  Au131  1  0.97872400  0.43261900  0.40687900  1
  Au  Au132  1  0.02881400  0.28234900  0.45696900  1
  Au  Au133  1  0.64818400  0.88014500  0.42437100  1
  Au  Au134  1  0.36345400  0.50638200  0.46562500  1
  Au  Au135  1  0.31345400  0.65638200  0.41562500  1
  Au  Au136  1  0.31345400  0.15638200  0.41562500  1
  Au  Au137  1  0.36345400  0.00638200  0.46562500  1
  Au  Au138  1  0.24082800  0.39491400  0.41944700  1
  Au  Au139  1  0.38608000  0.91784900  0.41180300  1
  Au  Au140  1  0.76134300  0.31920600  0.44468300  1
  Au  Au141  1  0.96556500  0.69355700  0.48656700  1
  Au  Au142  1  0.78834200  0.23171800  0.39051300  1
  Au  Au143  1  0.78856600  0.73104500  0.39073700  1
  Au  Au144  1  0.73856600  0.38104500  0.34073700  1
  Au  Au145  1  0.73834200  0.88171800  0.34051300  1
  Au  Au146  1  0.52403700  0.26895500  0.37828400  1
  Au  Au147  1  0.00287100  0.34380900  0.35296600  1
  Au  Au148  1  0.95298100  0.99457800  0.30307600  1
  Au  Au149  1  0.47392700  0.91818600  0.32817400  1
  Au  Au150  1  0.07384700  0.10474600  0.34950400  1
  Au  Au151  1  0.40347000  0.65679200  0.33215500  1
  Au  Au152  1  0.45306100  0.50801700  0.38174600  1
  Au  Au153  1  0.12343800  0.95597200  0.39909500  1
  Au  Au154  1  0.59809400  0.03041400  0.37428100  1
  Au  Au155  1  0.87872400  0.73261900  0.30687900  1
  Au  Au156  1  0.92881400  0.58234900  0.35696900  1
  Au  Au157  1  0.54818400  0.18014500  0.32437100  1
  Au  Au158  1  0.26345400  0.80638200  0.36562500  1
  Au  Au159  1  0.21345400  0.95638200  0.31562500  1
  Au  Au160  1  0.21345400  0.45638200  0.31562500  1
  Au  Au161  1  0.26345400  0.30638200  0.36562500  1
  Au  Au162  1  0.14082800  0.69491400  0.31944700  1
  Au  Au163  1  0.28608000  0.21784900  0.31180300  1
  Au  Au164  1  0.66134300  0.61920600  0.34468300  1
  Au  Au165  1  0.86556500  0.99355700  0.38656700  1
  Au  Au166  1  0.68834200  0.53171800  0.29051300  1
  Au  Au167  1  0.68856600  0.03104500  0.29073700  1
  Au  Au168  1  0.63856600  0.68104500  0.24073700  1
  Au  Au169  1  0.63834200  0.18171800  0.24051300  1
  Au  Au170  1  0.42403700  0.56895500  0.27828400  1
  Au  Au171  1  0.90287100  0.64380900  0.25296600  1
  Au  Au172  1  0.97384700  0.40474600  0.24950400  1
  Au  Au173  1  0.30347000  0.95679200  0.23215500  1
  Au  Au174  1  0.35306100  0.80801700  0.28174600  1
  Au  Au175  1  0.02343800  0.25597200  0.29909500  1
  Au  Au176  1  0.49809400  0.33041400  0.27428100  1
  Au  Au177  1  0.82881400  0.88234900  0.25696900  1
  Au  Au178  1  0.16345400  0.10638200  0.26562500  1
  Au  Au179  1  0.16345400  0.60638200  0.26562500  1
  Au  Au180  1  0.56134300  0.91920600  0.24468300  1
  Au  Au181  1  0.76556500  0.29355700  0.28656700  1
