# generated using pymatgen
data_Mg5Ga2
_symmetry_space_group_name_H-M   'P 1'
_cell_length_a   6.82567400
_cell_length_b   8.32987963
_cell_length_c   44.97897400
_cell_angle_alpha   95.18614183
_cell_angle_beta   90.00000000
_cell_angle_gamma   114.18663396
_symmetry_Int_Tables_number   1
_chemical_formula_structural   Mg5Ga2
_chemical_formula_sum   'Mg50 Ga20'
_cell_volume   2321.39307391
_cell_formula_units_Z   10
loop_
 _symmetry_equiv_pos_site_id
 _symmetry_equiv_pos_as_xyz
  1  'x, y, z'
loop_
 _atom_site_type_symbol
 _atom_site_label
 _atom_site_symmetry_multiplicity
 _atom_site_fract_x
 _atom_site_fract_y
 _atom_site_fract_z
 _atom_site_occupancy
  Mg  Mg0  1  0.64558200  0.98030700  0.73966500  1
  Mg  Mg1  1  0.47941800  0.26969300  0.76033500  1
  Mg  Mg2  1  0.85277500  0.39469300  0.69783500  1
  Mg  Mg3  1  0.27222500  0.85530700  0.80216500  1
  Mg  Mg4  1  0.03125000  0.06250000  0.78125000  1
  Mg  Mg5  1  0.09375000  0.18750000  0.71875000  1
  Mg  Mg6  1  0.82589800  0.65179600  0.75191400  1
  Mg  Mg7  1  0.23660200  0.47320400  0.81058600  1
  Mg  Mg8  1  0.29910200  0.59820400  0.74808600  1
  Mg  Mg9  1  0.88839800  0.77679600  0.68941400  1
  Mg  Mg10  1  0.77058200  0.23030700  0.61466500  1
  Mg  Mg11  1  0.60441800  0.51969300  0.63533500  1
  Mg  Mg12  1  0.97777500  0.64469300  0.57283500  1
  Mg  Mg13  1  0.39722500  0.10530700  0.67716500  1
  Mg  Mg14  1  0.15625000  0.31250000  0.65625000  1
  Mg  Mg15  1  0.21875000  0.43750000  0.59375000  1
  Mg  Mg16  1  0.95089800  0.90179600  0.62691400  1
  Mg  Mg17  1  0.36160200  0.72320400  0.68558600  1
  Mg  Mg18  1  0.42410200  0.84820400  0.62308600  1
  Mg  Mg19  1  0.01339800  0.02679600  0.56441400  1
  Mg  Mg20  1  0.89558200  0.48030700  0.48966500  1
  Mg  Mg21  1  0.72941800  0.76969300  0.51033500  1
  Mg  Mg22  1  0.10277500  0.89469300  0.44783500  1
  Mg  Mg23  1  0.52222500  0.35530700  0.55216500  1
  Mg  Mg24  1  0.28125000  0.56250000  0.53125000  1
  Mg  Mg25  1  0.34375000  0.68750000  0.46875000  1
  Mg  Mg26  1  0.07589800  0.15179600  0.50191400  1
  Mg  Mg27  1  0.48660200  0.97320400  0.56058600  1
  Mg  Mg28  1  0.54910200  0.09820400  0.49808600  1
  Mg  Mg29  1  0.13839800  0.27679600  0.43941400  1
  Mg  Mg30  1  0.02058200  0.73030700  0.36466500  1
  Mg  Mg31  1  0.85441800  0.01969300  0.38533500  1
  Mg  Mg32  1  0.22777500  0.14469300  0.32283500  1
  Mg  Mg33  1  0.64722500  0.60530700  0.42716500  1
  Mg  Mg34  1  0.40625000  0.81250000  0.40625000  1
  Mg  Mg35  1  0.46875000  0.93750000  0.34375000  1
  Mg  Mg36  1  0.20089800  0.40179600  0.37691400  1
  Mg  Mg37  1  0.61160200  0.22320400  0.43558600  1
  Mg  Mg38  1  0.67410200  0.34820400  0.37308600  1
  Mg  Mg39  1  0.26339800  0.52679600  0.31441400  1
  Mg  Mg40  1  0.14558200  0.98030700  0.23966500  1
  Mg  Mg41  1  0.97941800  0.26969300  0.26033500  1
  Mg  Mg42  1  0.35277500  0.39469300  0.19783500  1
  Mg  Mg43  1  0.77222500  0.85530700  0.30216500  1
  Mg  Mg44  1  0.53125000  0.06250000  0.28125000  1
  Mg  Mg45  1  0.59375000  0.18750000  0.21875000  1
  Mg  Mg46  1  0.32589800  0.65179600  0.25191400  1
  Mg  Mg47  1  0.73660200  0.47320400  0.31058600  1
  Mg  Mg48  1  0.79910200  0.59820400  0.24808600  1
  Mg  Mg49  1  0.38839800  0.77679600  0.18941400  1
  Ga  Ga50  1  0.21482200  0.91077700  0.73469800  1
  Ga  Ga51  1  0.91017800  0.33922300  0.76530200  1
  Ga  Ga52  1  0.49154600  0.46422300  0.70280200  1
  Ga  Ga53  1  0.63345400  0.78577700  0.79719800  1
  Ga  Ga54  1  0.33982200  0.16077700  0.60969800  1
  Ga  Ga55  1  0.03517800  0.58922300  0.64030200  1
  Ga  Ga56  1  0.61654600  0.71422300  0.57780200  1
  Ga  Ga57  1  0.75845400  0.03577700  0.67219800  1
  Ga  Ga58  1  0.46482200  0.41077700  0.48469800  1
  Ga  Ga59  1  0.16017800  0.83922300  0.51530200  1
  Ga  Ga60  1  0.74154600  0.96422300  0.45280200  1
  Ga  Ga61  1  0.88345400  0.28577700  0.54719800  1
  Ga  Ga62  1  0.58982200  0.66077700  0.35969800  1
  Ga  Ga63  1  0.28517800  0.08922300  0.39030200  1
  Ga  Ga64  1  0.86654600  0.21422300  0.32780200  1
  Ga  Ga65  1  0.00845400  0.53577700  0.42219800  1
  Ga  Ga66  1  0.71482200  0.91077700  0.23469800  1
  Ga  Ga67  1  0.41017800  0.33922300  0.26530200  1
  Ga  Ga68  1  0.99154600  0.46422300  0.20280200  1
  Ga  Ga69  1  0.13345400  0.78577700  0.29719800  1
