# generated using pymatgen
data_Mg2Zn
_symmetry_space_group_name_H-M   'P 1'
_cell_length_a   3.10114600
_cell_length_b   16.29714987
_cell_length_c   46.90763000
_cell_angle_alpha   91.78078140
_cell_angle_beta   90.00000000
_cell_angle_gamma   90.00000000
_symmetry_Int_Tables_number   1
_chemical_formula_structural   Mg2Zn
_chemical_formula_sum   'Mg48 Zn24'
_cell_volume   2369.55921295
_cell_formula_units_Z   24
loop_
 _symmetry_equiv_pos_site_id
 _symmetry_equiv_pos_as_xyz
  1  'x, y, z'
loop_
 _atom_site_type_symbol
 _atom_site_label
 _atom_site_symmetry_multiplicity
 _atom_site_fract_x
 _atom_site_fract_y
 _atom_site_fract_z
 _atom_site_occupancy
  Mg  Mg0  1  1.00000000  0.98772500  0.28469700  1
  Mg  Mg1  1  0.50000000  0.72094600  0.20322800  1
  Mg  Mg2  1  0.00000000  0.82905400  0.24677200  1
  Mg  Mg3  1  0.50000000  0.66227500  0.26530300  1
  Mg  Mg4  1  0.50000000  0.43772500  0.23469700  1
  Mg  Mg5  1  1.00000000  0.27094600  0.25322800  1
  Mg  Mg6  1  0.50000000  0.37905400  0.29677200  1
  Mg  Mg7  1  0.00000000  0.11227500  0.21530300  1
  Mg  Mg8  1  0.00000000  0.08772500  0.38469700  1
  Mg  Mg9  1  0.50000000  0.82094600  0.30322800  1
  Mg  Mg10  1  0.00000000  0.92905400  0.34677200  1
  Mg  Mg11  1  0.50000000  0.76227500  0.36530300  1
  Mg  Mg12  1  0.50000000  0.53772500  0.33469700  1
  Mg  Mg13  1  0.00000000  0.37094600  0.35322800  1
  Mg  Mg14  1  0.50000000  0.47905400  0.39677200  1
  Mg  Mg15  1  0.00000000  0.21227500  0.31530300  1
  Mg  Mg16  1  0.00000000  0.18772500  0.48469700  1
  Mg  Mg17  1  0.50000000  0.92094600  0.40322800  1
  Mg  Mg18  1  0.00000000  0.02905400  0.44677200  1
  Mg  Mg19  1  0.50000000  0.86227500  0.46530300  1
  Mg  Mg20  1  0.50000000  0.63772500  0.43469700  1
  Mg  Mg21  1  0.00000000  0.47094600  0.45322800  1
  Mg  Mg22  1  0.50000000  0.57905400  0.49677200  1
  Mg  Mg23  1  0.00000000  0.31227500  0.41530300  1
  Mg  Mg24  1  0.00000000  0.28772500  0.58469700  1
  Mg  Mg25  1  0.50000000  0.02094600  0.50322800  1
  Mg  Mg26  1  0.00000000  0.12905400  0.54677200  1
  Mg  Mg27  1  0.50000000  0.96227500  0.56530300  1
  Mg  Mg28  1  0.50000000  0.73772500  0.53469700  1
  Mg  Mg29  1  0.00000000  0.57094600  0.55322800  1
  Mg  Mg30  1  0.50000000  0.67905400  0.59677200  1
  Mg  Mg31  1  0.00000000  0.41227500  0.51530300  1
  Mg  Mg32  1  0.00000000  0.38772500  0.68469700  1
  Mg  Mg33  1  0.50000000  0.12094600  0.60322800  1
  Mg  Mg34  1  0.00000000  0.22905400  0.64677200  1
  Mg  Mg35  1  0.50000000  0.06227500  0.66530300  1
  Mg  Mg36  1  0.50000000  0.83772500  0.63469700  1
  Mg  Mg37  1  1.00000000  0.67094600  0.65322800  1
  Mg  Mg38  1  0.50000000  0.77905400  0.69677200  1
  Mg  Mg39  1  0.00000000  0.51227500  0.61530300  1
  Mg  Mg40  1  1.00000000  0.48772500  0.78469700  1
  Mg  Mg41  1  0.50000000  0.22094600  0.70322800  1
  Mg  Mg42  1  0.00000000  0.32905400  0.74677200  1
  Mg  Mg43  1  0.50000000  0.16227500  0.76530300  1
  Mg  Mg44  1  0.50000000  0.93772500  0.73469700  1
  Mg  Mg45  1  0.00000000  0.77094600  0.75322800  1
  Mg  Mg46  1  0.50000000  0.87905400  0.79677200  1
  Mg  Mg47  1  0.00000000  0.61227500  0.71530300  1
  Zn  Zn48  1  0.00000000  0.57682000  0.21924200  1
  Zn  Zn49  1  0.50000000  0.97318000  0.23075800  1
  Zn  Zn50  1  0.50000000  0.12682000  0.26924200  1
  Zn  Zn51  1  0.00000000  0.52318000  0.28075800  1
  Zn  Zn52  1  0.00000000  0.67682000  0.31924200  1
  Zn  Zn53  1  0.50000000  0.07318000  0.33075800  1
  Zn  Zn54  1  0.50000000  0.22682000  0.36924200  1
  Zn  Zn55  1  0.00000000  0.62318000  0.38075800  1
  Zn  Zn56  1  0.00000000  0.77682000  0.41924200  1
  Zn  Zn57  1  0.50000000  0.17318000  0.43075800  1
  Zn  Zn58  1  0.50000000  0.32682000  0.46924200  1
  Zn  Zn59  1  0.00000000  0.72318000  0.48075800  1
  Zn  Zn60  1  0.00000000  0.87682000  0.51924200  1
  Zn  Zn61  1  0.50000000  0.27318000  0.53075800  1
  Zn  Zn62  1  0.50000000  0.42682000  0.56924200  1
  Zn  Zn63  1  0.00000000  0.82318000  0.58075800  1
  Zn  Zn64  1  0.00000000  0.97682000  0.61924200  1
  Zn  Zn65  1  0.50000000  0.37318000  0.63075800  1
  Zn  Zn66  1  0.50000000  0.52682000  0.66924200  1
  Zn  Zn67  1  0.00000000  0.92318000  0.68075800  1
  Zn  Zn68  1  0.00000000  0.07682000  0.71924200  1
  Zn  Zn69  1  0.50000000  0.47318000  0.73075800  1
  Zn  Zn70  1  0.50000000  0.62682000  0.76924200  1
  Zn  Zn71  1  0.00000000  0.02318000  0.78075800  1
