# generated using pymatgen
data_Mg5Zn26
_symmetry_space_group_name_H-M   'P 1'
_cell_length_a   9.87228468
_cell_length_b   10.01271756
_cell_length_c   44.05125300
_cell_angle_alpha   91.09811949
_cell_angle_beta   91.84980966
_cell_angle_gamma   115.42228829
_symmetry_Int_Tables_number   1
_chemical_formula_structural   Mg5Zn26
_chemical_formula_sum   'Mg20 Zn104'
_cell_volume   3928.07219552
_cell_formula_units_Z   4
loop_
 _symmetry_equiv_pos_site_id
 _symmetry_equiv_pos_as_xyz
  1  'x, y, z'
loop_
 _atom_site_type_symbol
 _atom_site_label
 _atom_site_symmetry_multiplicity
 _atom_site_fract_x
 _atom_site_fract_y
 _atom_site_fract_z
 _atom_site_occupancy
  Mg  Mg0  1  0.37948700  0.93996100  0.64293000  1
  Mg  Mg1  1  0.18642200  0.62594800  0.67373700  1
  Mg  Mg2  1  0.17791400  0.12057100  0.64161900  1
  Mg  Mg3  1  0.38799400  0.44533800  0.67504700  1
  Mg  Mg4  1  0.57948700  0.13996100  0.54293000  1
  Mg  Mg5  1  0.38642200  0.82594800  0.57373700  1
  Mg  Mg6  1  0.37791400  0.32057100  0.54161900  1
  Mg  Mg7  1  0.58799400  0.64533800  0.57504700  1
  Mg  Mg8  1  0.77948700  0.33996100  0.44293000  1
  Mg  Mg9  1  0.58642200  0.02594800  0.47373700  1
  Mg  Mg10  1  0.57791400  0.52057100  0.44161900  1
  Mg  Mg11  1  0.78799400  0.84533800  0.47504700  1
  Mg  Mg12  1  0.97948700  0.53996100  0.34293000  1
  Mg  Mg13  1  0.78642200  0.22594800  0.37373700  1
  Mg  Mg14  1  0.77791400  0.72057100  0.34161900  1
  Mg  Mg15  1  0.98799400  0.04533800  0.37504700  1
  Mg  Mg16  1  0.17948700  0.73996100  0.24293000  1
  Mg  Mg17  1  0.98642200  0.42594800  0.27373700  1
  Mg  Mg18  1  0.97791400  0.92057100  0.24161900  1
  Mg  Mg19  1  0.18799400  0.24533800  0.27504700  1
  Zn  Zn20  1  0.68295400  0.68295400  0.70833300  1
  Zn  Zn21  1  0.44388200  0.93927500  0.70941100  1
  Zn  Zn22  1  0.18295400  0.18295400  0.70833300  1
  Zn  Zn23  1  0.92202700  0.42663400  0.70725500  1
  Zn  Zn24  1  0.88295400  0.88295400  0.60833300  1
  Zn  Zn25  1  0.87260800  0.93911500  0.67369700  1
  Zn  Zn26  1  0.69843100  0.11818700  0.67400300  1
  Zn  Zn27  1  0.38121800  0.63566000  0.62401900  1
  Zn  Zn28  1  0.18469100  0.93024800  0.69264800  1
  Zn  Zn29  1  0.54343300  0.28704200  0.64395000  1
  Zn  Zn30  1  0.93828600  0.69060400  0.69316300  1
  Zn  Zn31  1  0.69330100  0.62679300  0.64297000  1
  Zn  Zn32  1  0.64388200  0.13927500  0.60941100  1
  Zn  Zn33  1  0.52876500  0.77644700  0.67293300  1
  Zn  Zn34  1  0.03714400  0.78946200  0.64373400  1
  Zn  Zn35  1  0.62762300  0.87530500  0.62350400  1
  Zn  Zn36  1  0.12141500  0.37780700  0.62324700  1
  Zn  Zn37  1  0.86747800  0.44772200  0.64266400  1
  Zn  Zn38  1  0.44449400  0.18810200  0.69342000  1
  Zn  Zn39  1  0.02247500  0.27886700  0.67271700  1
  Zn  Zn40  1  0.38295400  0.38295400  0.60833300  1
  Zn  Zn41  1  0.67482200  0.43560400  0.69236600  1
  Zn  Zn42  1  0.89108700  0.13030400  0.62430100  1
  Zn  Zn43  1  0.12202700  0.62663400  0.60725500  1
  Zn  Zn44  1  0.08295400  0.08295400  0.50833300  1
  Zn  Zn45  1  0.07260800  0.13911500  0.57369700  1
  Zn  Zn46  1  0.89843100  0.31818700  0.57400300  1
  Zn  Zn47  1  0.58121800  0.83566000  0.52401900  1
  Zn  Zn48  1  0.38469100  0.13024800  0.59264800  1
  Zn  Zn49  1  0.74343300  0.48704200  0.54395000  1
  Zn  Zn50  1  0.13828600  0.89060400  0.59316300  1
  Zn  Zn51  1  0.89330100  0.82679300  0.54297000  1
  Zn  Zn52  1  0.84388200  0.33927500  0.50941100  1
  Zn  Zn53  1  0.72876500  0.97644700  0.57293300  1
  Zn  Zn54  1  0.23714400  0.98946200  0.54373400  1
  Zn  Zn55  1  0.82762300  0.07530500  0.52350400  1
  Zn  Zn56  1  0.32141500  0.57780700  0.52324700  1
  Zn  Zn57  1  0.06747800  0.64772200  0.54266400  1
  Zn  Zn58  1  0.64449400  0.38810200  0.59342000  1
  Zn  Zn59  1  0.22247500  0.47886700  0.57271700  1
  Zn  Zn60  1  0.58295400  0.58295400  0.50833300  1
  Zn  Zn61  1  0.87482200  0.63560400  0.59236600  1
  Zn  Zn62  1  0.09108700  0.33030400  0.52430100  1
  Zn  Zn63  1  0.32202700  0.82663400  0.50725500  1
  Zn  Zn64  1  0.28295400  0.28295400  0.40833300  1
  Zn  Zn65  1  0.27260800  0.33911500  0.47369700  1
  Zn  Zn66  1  0.09843100  0.51818700  0.47400300  1
  Zn  Zn67  1  0.78121800  0.03566000  0.42401900  1
  Zn  Zn68  1  0.58469100  0.33024800  0.49264800  1
  Zn  Zn69  1  0.94343300  0.68704200  0.44395000  1
  Zn  Zn70  1  0.33828600  0.09060400  0.49316300  1
  Zn  Zn71  1  0.09330100  0.02679300  0.44297000  1
  Zn  Zn72  1  0.04388200  0.53927500  0.40941100  1
  Zn  Zn73  1  0.92876500  0.17644700  0.47293300  1
  Zn  Zn74  1  0.43714400  0.18946200  0.44373400  1
  Zn  Zn75  1  0.02762300  0.27530500  0.42350400  1
  Zn  Zn76  1  0.52141500  0.77780700  0.42324700  1
  Zn  Zn77  1  0.26747800  0.84772200  0.44266400  1
  Zn  Zn78  1  0.84449400  0.58810200  0.49342000  1
  Zn  Zn79  1  0.42247500  0.67886700  0.47271700  1
  Zn  Zn80  1  0.78295400  0.78295400  0.40833300  1
  Zn  Zn81  1  0.07482200  0.83560400  0.49236600  1
  Zn  Zn82  1  0.29108700  0.53030400  0.42430100  1
  Zn  Zn83  1  0.52202700  0.02663400  0.40725500  1
  Zn  Zn84  1  0.48295400  0.48295400  0.30833300  1
  Zn  Zn85  1  0.47260800  0.53911500  0.37369700  1
  Zn  Zn86  1  0.29843100  0.71818700  0.37400300  1
  Zn  Zn87  1  0.98121800  0.23566000  0.32401900  1
  Zn  Zn88  1  0.78469100  0.53024800  0.39264800  1
  Zn  Zn89  1  0.14343300  0.88704200  0.34395000  1
  Zn  Zn90  1  0.53828600  0.29060400  0.39316300  1
  Zn  Zn91  1  0.29330100  0.22679300  0.34297000  1
  Zn  Zn92  1  0.24388200  0.73927500  0.30941100  1
  Zn  Zn93  1  0.12876500  0.37644700  0.37293300  1
  Zn  Zn94  1  0.63714400  0.38946200  0.34373400  1
  Zn  Zn95  1  0.22762300  0.47530500  0.32350400  1
  Zn  Zn96  1  0.72141500  0.97780700  0.32324700  1
  Zn  Zn97  1  0.46747800  0.04772200  0.34266400  1
  Zn  Zn98  1  0.04449400  0.78810200  0.39342000  1
  Zn  Zn99  1  0.62247500  0.87886700  0.37271700  1
  Zn  Zn100  1  0.98295400  0.98295400  0.30833300  1
  Zn  Zn101  1  0.27482200  0.03560400  0.39236600  1
  Zn  Zn102  1  0.49108700  0.73030400  0.32430100  1
  Zn  Zn103  1  0.72202700  0.22663400  0.30725500  1
  Zn  Zn104  1  0.68295400  0.68295400  0.20833300  1
  Zn  Zn105  1  0.67260800  0.73911500  0.27369700  1
  Zn  Zn106  1  0.49843100  0.91818700  0.27400300  1
  Zn  Zn107  1  0.18121800  0.43566000  0.22401900  1
  Zn  Zn108  1  0.98469100  0.73024800  0.29264800  1
  Zn  Zn109  1  0.34343300  0.08704200  0.24395000  1
  Zn  Zn110  1  0.73828600  0.49060400  0.29316300  1
  Zn  Zn111  1  0.49330100  0.42679300  0.24297000  1
  Zn  Zn112  1  0.44388200  0.93927500  0.20941100  1
  Zn  Zn113  1  0.32876500  0.57644700  0.27293300  1
  Zn  Zn114  1  0.83714400  0.58946200  0.24373400  1
  Zn  Zn115  1  0.42762300  0.67530500  0.22350400  1
  Zn  Zn116  1  0.92141500  0.17780700  0.22324700  1
  Zn  Zn117  1  0.66747800  0.24772200  0.24266400  1
  Zn  Zn118  1  0.24449400  0.98810200  0.29342000  1
  Zn  Zn119  1  0.82247500  0.07886700  0.27271700  1
  Zn  Zn120  1  0.18295400  0.18295400  0.20833300  1
  Zn  Zn121  1  0.47482200  0.23560400  0.29236600  1
  Zn  Zn122  1  0.69108700  0.93030400  0.22430100  1
  Zn  Zn123  1  0.92202700  0.42663400  0.20725500  1
