# generated using pymatgen
data_Lu3Mg
_symmetry_space_group_name_H-M   'P 1'
_cell_length_a   5.47453400
_cell_length_b   6.87894400
_cell_length_c   47.65872100
_cell_angle_alpha   90.00000000
_cell_angle_beta   90.00000000
_cell_angle_gamma   90.00000000
_symmetry_Int_Tables_number   1
_chemical_formula_structural   Lu3Mg
_chemical_formula_sum   'Lu30 Mg10'
_cell_volume   1794.78038475
_cell_formula_units_Z   10
loop_
 _symmetry_equiv_pos_site_id
 _symmetry_equiv_pos_as_xyz
  1  'x, y, z'
loop_
 _atom_site_type_symbol
 _atom_site_label
 _atom_site_symmetry_multiplicity
 _atom_site_fract_x
 _atom_site_fract_y
 _atom_site_fract_z
 _atom_site_occupancy
  Lu  Lu0  1  0.75000000  0.00000000  0.22942000  1
  Lu  Lu1  1  0.75000000  0.24848000  0.29154000  1
  Lu  Lu2  1  0.75000000  0.75152000  0.29154000  1
  Lu  Lu3  1  0.25000000  0.74848000  0.20846000  1
  Lu  Lu4  1  0.25000000  0.25152000  0.20846000  1
  Lu  Lu5  1  0.25000000  0.50000000  0.27058000  1
  Lu  Lu6  1  0.75000000  0.50000000  0.35442000  1
  Lu  Lu7  1  0.75000000  0.74848000  0.41654000  1
  Lu  Lu8  1  0.75000000  0.25152000  0.41654000  1
  Lu  Lu9  1  0.25000000  0.24848000  0.33346000  1
  Lu  Lu10  1  0.25000000  0.75152000  0.33346000  1
  Lu  Lu11  1  0.25000000  1.00000000  0.39558000  1
  Lu  Lu12  1  0.75000000  0.00000000  0.47942000  1
  Lu  Lu13  1  0.75000000  0.24848000  0.54154000  1
  Lu  Lu14  1  0.75000000  0.75152000  0.54154000  1
  Lu  Lu15  1  0.25000000  0.74848000  0.45846000  1
  Lu  Lu16  1  0.25000000  0.25152000  0.45846000  1
  Lu  Lu17  1  0.25000000  0.50000000  0.52058000  1
  Lu  Lu18  1  0.75000000  0.50000000  0.60442000  1
  Lu  Lu19  1  0.75000000  0.74848000  0.66654000  1
  Lu  Lu20  1  0.75000000  0.25152000  0.66654000  1
  Lu  Lu21  1  0.25000000  0.24848000  0.58346000  1
  Lu  Lu22  1  0.25000000  0.75152000  0.58346000  1
  Lu  Lu23  1  0.25000000  0.00000000  0.64558000  1
  Lu  Lu24  1  0.75000000  0.00000000  0.72942000  1
  Lu  Lu25  1  0.75000000  0.24848000  0.79154000  1
  Lu  Lu26  1  0.75000000  0.75152000  0.79154000  1
  Lu  Lu27  1  0.25000000  0.74848000  0.70846000  1
  Lu  Lu28  1  0.25000000  0.25152000  0.70846000  1
  Lu  Lu29  1  0.25000000  0.50000000  0.77058000  1
  Mg  Mg30  1  0.75000000  0.50000000  0.22916700  1
  Mg  Mg31  1  0.25000000  0.00000000  0.27083300  1
  Mg  Mg32  1  0.75000000  1.00000000  0.35416700  1
  Mg  Mg33  1  0.25000000  0.50000000  0.39583300  1
  Mg  Mg34  1  0.75000000  0.50000000  0.47916700  1
  Mg  Mg35  1  0.25000000  0.00000000  0.52083300  1
  Mg  Mg36  1  0.75000000  0.00000000  0.60416700  1
  Mg  Mg37  1  0.25000000  0.50000000  0.64583300  1
  Mg  Mg38  1  0.75000000  0.50000000  0.72916700  1
  Mg  Mg39  1  0.25000000  0.00000000  0.77083300  1
