# generated using pymatgen
data_MgGa2
_symmetry_space_group_name_H-M   'P 1'
_cell_length_a   7.12476600
_cell_length_b   7.53303794
_cell_length_c   41.48873900
_cell_angle_alpha   84.79128315
_cell_angle_beta   90.00000000
_cell_angle_gamma   90.00000000
_symmetry_Int_Tables_number   1
_chemical_formula_structural   MgGa2
_chemical_formula_sum   'Mg24 Ga48'
_cell_volume   2217.55247646
_cell_formula_units_Z   24
loop_
 _symmetry_equiv_pos_site_id
 _symmetry_equiv_pos_as_xyz
  1  'x, y, z'
loop_
 _atom_site_type_symbol
 _atom_site_label
 _atom_site_symmetry_multiplicity
 _atom_site_fract_x
 _atom_site_fract_y
 _atom_site_fract_z
 _atom_site_occupancy
  Mg  Mg0  1  0.75000000  0.73684200  0.21052600  1
  Mg  Mg1  1  0.25000000  0.73684200  0.21052600  1
  Mg  Mg2  1  0.75000000  0.21052600  0.26315800  1
  Mg  Mg3  1  0.25000000  0.21052600  0.26315800  1
  Mg  Mg4  1  0.75000000  0.68421100  0.31578900  1
  Mg  Mg5  1  0.25000000  0.68421100  0.31578900  1
  Mg  Mg6  1  0.75000000  0.15789500  0.36842100  1
  Mg  Mg7  1  0.25000000  0.15789500  0.36842100  1
  Mg  Mg8  1  0.75000000  0.63157900  0.42105300  1
  Mg  Mg9  1  0.25000000  0.63157900  0.42105300  1
  Mg  Mg10  1  0.75000000  0.10526300  0.47368400  1
  Mg  Mg11  1  0.25000000  0.10526300  0.47368400  1
  Mg  Mg12  1  0.75000000  0.57894700  0.52631600  1
  Mg  Mg13  1  0.25000000  0.57894700  0.52631600  1
  Mg  Mg14  1  0.75000000  0.05263200  0.57894700  1
  Mg  Mg15  1  0.25000000  0.05263200  0.57894700  1
  Mg  Mg16  1  0.75000000  0.52631600  0.63157900  1
  Mg  Mg17  1  0.25000000  0.52631600  0.63157900  1
  Mg  Mg18  1  0.75000000  1.00000000  0.68421100  1
  Mg  Mg19  1  0.25000000  1.00000000  0.68421100  1
  Mg  Mg20  1  0.75000000  0.47368400  0.73684200  1
  Mg  Mg21  1  0.25000000  0.47368400  0.73684200  1
  Mg  Mg22  1  0.75000000  0.94736800  0.78947400  1
  Mg  Mg23  1  0.25000000  0.94736800  0.78947400  1
  Ga  Ga24  1  0.94773200  0.07017500  0.21052600  1
  Ga  Ga25  1  0.44773200  0.40350900  0.21052600  1
  Ga  Ga26  1  0.55226800  0.07017500  0.21052600  1
  Ga  Ga27  1  0.05226800  0.40350900  0.21052600  1
  Ga  Ga28  1  0.94773200  0.54386000  0.26315800  1
  Ga  Ga29  1  0.44773200  0.87719300  0.26315800  1
  Ga  Ga30  1  0.55226800  0.54386000  0.26315800  1
  Ga  Ga31  1  0.05226800  0.87719300  0.26315800  1
  Ga  Ga32  1  0.94773200  0.01754400  0.31578900  1
  Ga  Ga33  1  0.44773200  0.35087700  0.31578900  1
  Ga  Ga34  1  0.55226800  0.01754400  0.31578900  1
  Ga  Ga35  1  0.05226800  0.35087700  0.31578900  1
  Ga  Ga36  1  0.94773200  0.49122800  0.36842100  1
  Ga  Ga37  1  0.44773200  0.82456100  0.36842100  1
  Ga  Ga38  1  0.55226800  0.49122800  0.36842100  1
  Ga  Ga39  1  0.05226800  0.82456100  0.36842100  1
  Ga  Ga40  1  0.94773200  0.96491200  0.42105300  1
  Ga  Ga41  1  0.44773200  0.29824600  0.42105300  1
  Ga  Ga42  1  0.55226800  0.96491200  0.42105300  1
  Ga  Ga43  1  0.05226800  0.29824600  0.42105300  1
  Ga  Ga44  1  0.94773200  0.43859600  0.47368400  1
  Ga  Ga45  1  0.44773200  0.77193000  0.47368400  1
  Ga  Ga46  1  0.55226800  0.43859600  0.47368400  1
  Ga  Ga47  1  0.05226800  0.77193000  0.47368400  1
  Ga  Ga48  1  0.94773200  0.91228100  0.52631600  1
  Ga  Ga49  1  0.44773200  0.24561400  0.52631600  1
  Ga  Ga50  1  0.55226800  0.91228100  0.52631600  1
  Ga  Ga51  1  0.05226800  0.24561400  0.52631600  1
  Ga  Ga52  1  0.94773200  0.38596500  0.57894700  1
  Ga  Ga53  1  0.44773200  0.71929800  0.57894700  1
  Ga  Ga54  1  0.55226800  0.38596500  0.57894700  1
  Ga  Ga55  1  0.05226800  0.71929800  0.57894700  1
  Ga  Ga56  1  0.94773200  0.85964900  0.63157900  1
  Ga  Ga57  1  0.44773200  0.19298200  0.63157900  1
  Ga  Ga58  1  0.55226800  0.85964900  0.63157900  1
  Ga  Ga59  1  0.05226800  0.19298200  0.63157900  1
  Ga  Ga60  1  0.94773200  0.33333300  0.68421100  1
  Ga  Ga61  1  0.44773200  0.66666700  0.68421100  1
  Ga  Ga62  1  0.55226800  0.33333300  0.68421100  1
  Ga  Ga63  1  0.05226800  0.66666700  0.68421100  1
  Ga  Ga64  1  0.94773200  0.80701800  0.73684200  1
  Ga  Ga65  1  0.44773200  0.14035100  0.73684200  1
  Ga  Ga66  1  0.55226800  0.80701800  0.73684200  1
  Ga  Ga67  1  0.05226800  0.14035100  0.73684200  1
  Ga  Ga68  1  0.94773200  0.28070200  0.78947400  1
  Ga  Ga69  1  0.44773200  0.61403500  0.78947400  1
  Ga  Ga70  1  0.55226800  0.28070200  0.78947400  1
  Ga  Ga71  1  0.05226800  0.61403500  0.78947400  1
