# generated using pymatgen
data_Mg31Hg14
_symmetry_space_group_name_H-M   'P 1'
_cell_length_a   7.97718666
_cell_length_b   9.83847239
_cell_length_c   45.39858300
_cell_angle_alpha   91.26955969
_cell_angle_beta   89.07673454
_cell_angle_gamma   73.25679879
_symmetry_Int_Tables_number   1
_chemical_formula_structural   Mg31Hg14
_chemical_formula_sum   'Mg62 Hg28'
_cell_volume   3410.19980381
_cell_formula_units_Z   2
loop_
 _symmetry_equiv_pos_site_id
 _symmetry_equiv_pos_as_xyz
  1  'x, y, z'
loop_
 _atom_site_type_symbol
 _atom_site_label
 _atom_site_symmetry_multiplicity
 _atom_site_fract_x
 _atom_site_fract_y
 _atom_site_fract_z
 _atom_site_occupancy
  Mg  Mg0  1  0.25794600  0.10673200  0.24452700  1
  Mg  Mg1  1  0.27937200  0.66192700  0.25547300  1
  Mg  Mg2  1  0.48753600  0.34303900  0.23965500  1
  Mg  Mg3  1  0.04978200  0.42562000  0.26034500  1
  Mg  Mg4  1  0.94939400  0.94792800  0.24919100  1
  Mg  Mg5  1  0.58792400  0.82073100  0.25080900  1
  Mg  Mg6  1  0.95025400  0.95288600  0.32145000  1
  Mg  Mg7  1  0.97167900  0.50808100  0.33239600  1
  Mg  Mg8  1  0.58038100  0.09503600  0.28891800  1
  Mg  Mg9  1  0.64924400  0.51977700  0.28800500  1
  Mg  Mg10  1  0.17984300  0.18919300  0.31657800  1
  Mg  Mg11  1  0.74209000  0.27177400  0.33726800  1
  Mg  Mg12  1  0.64170200  0.79408200  0.32611400  1
  Mg  Mg13  1  0.28023100  0.66688400  0.32773200  1
  Mg  Mg14  1  0.64256100  0.79904000  0.39837300  1
  Mg  Mg15  1  0.66398700  0.35423400  0.40931900  1
  Mg  Mg16  1  0.27268900  0.94119000  0.36584100  1
  Mg  Mg17  1  0.34155200  0.36593100  0.36492800  1
  Mg  Mg18  1  0.87215100  0.03534700  0.39350100  1
  Mg  Mg19  1  0.43439700  0.11792700  0.41419100  1
  Mg  Mg20  1  0.33401000  0.64023600  0.40303700  1
  Mg  Mg21  1  0.97253900  0.51303800  0.40465600  1
  Mg  Mg22  1  0.33486900  0.64519400  0.47529600  1
  Mg  Mg23  1  0.35629500  0.20038800  0.48624200  1
  Mg  Mg24  1  0.96499600  0.78734300  0.44276500  1
  Mg  Mg25  1  0.03386000  0.21208500  0.44185100  1
  Mg  Mg26  1  0.56445900  0.88150100  0.47042400  1
  Mg  Mg27  1  0.12670500  0.96408100  0.49111400  1
  Mg  Mg28  1  0.02631700  0.48639000  0.47996000  1
  Mg  Mg29  1  0.66484700  0.35919200  0.48157900  1
  Mg  Mg30  1  0.02717700  0.49134700  0.55221900  1
  Mg  Mg31  1  0.04860300  0.04654200  0.56316500  1
  Mg  Mg32  1  0.65730400  0.63349700  0.51968800  1
  Mg  Mg33  1  0.72616800  0.05823800  0.51877400  1
  Mg  Mg34  1  0.25676600  0.72765400  0.54734800  1
  Mg  Mg35  1  0.81901300  0.81023500  0.56803700  1
  Mg  Mg36  1  0.71862500  0.33254400  0.55688300  1
  Mg  Mg37  1  0.35715400  0.20534600  0.55850200  1
  Mg  Mg38  1  0.71948400  0.33750100  0.62914200  1
  Mg  Mg39  1  0.74091000  0.89269600  0.64008800  1
  Mg  Mg40  1  0.34961200  0.47965100  0.59661100  1
  Mg  Mg41  1  0.41847500  0.90439200  0.59569700  1
  Mg  Mg42  1  0.94907400  0.57380800  0.62427100  1
  Mg  Mg43  1  0.51132000  0.65638900  0.64496000  1
  Mg  Mg44  1  0.41093300  0.17869700  0.63380600  1
  Mg  Mg45  1  0.04946200  0.05150000  0.63542500  1
  Mg  Mg46  1  0.41179200  0.18365500  0.70606600  1
  Mg  Mg47  1  0.43321800  0.73885000  0.71701100  1
  Mg  Mg48  1  0.04191900  0.32580500  0.67353400  1
  Mg  Mg49  1  0.11078300  0.75054600  0.67262000  1
  Mg  Mg50  1  0.64138200  0.41996200  0.70119400  1
  Mg  Mg51  1  0.20362800  0.50254300  0.72188300  1
  Mg  Mg52  1  0.10324000  0.02485100  0.71072900  1
  Mg  Mg53  1  0.74177000  0.89765400  0.71234800  1
  Mg  Mg54  1  0.10410000  0.02980900  0.78298900  1
  Mg  Mg55  1  0.12552600  0.58500400  0.79393400  1
  Mg  Mg56  1  0.73422700  0.17195900  0.75045700  1
  Mg  Mg57  1  0.80309100  0.59670000  0.74954300  1
  Mg  Mg58  1  0.33368900  0.26611600  0.77811700  1
  Mg  Mg59  1  0.89593600  0.34869700  0.79880600  1
  Mg  Mg60  1  0.79554800  0.87100500  0.78765200  1
  Mg  Mg61  1  0.43407700  0.74380800  0.78927100  1
  Hg  Hg62  1  0.91877300  0.71105600  0.28240600  1
  Hg  Hg63  1  0.31085200  0.90375700  0.29451700  1
  Hg  Hg64  1  0.35202800  0.39460700  0.29909200  1
  Hg  Hg65  1  0.87759800  0.22020600  0.27783100  1
  Hg  Hg66  1  0.61108100  0.55721000  0.35932900  1
  Hg  Hg67  1  0.00316000  0.74991100  0.37144000  1
  Hg  Hg68  1  0.04433500  0.24076100  0.37601500  1
  Hg  Hg69  1  0.56990600  0.06636000  0.35475400  1
  Hg  Hg70  1  0.30338900  0.40336300  0.43625200  1
  Hg  Hg71  1  0.69546700  0.59606500  0.44836300  1
  Hg  Hg72  1  0.73664300  0.08691400  0.45293800  1
  Hg  Hg73  1  0.26221300  0.91251400  0.43167700  1
  Hg  Hg74  1  0.99569600  0.24951700  0.51317500  1
  Hg  Hg75  1  0.38777500  0.44221800  0.52528600  1
  Hg  Hg76  1  0.42895100  0.93306800  0.52986200  1
  Hg  Hg77  1  0.95452100  0.75866700  0.50860000  1
  Hg  Hg78  1  0.68800400  0.09567100  0.59009800  1
  Hg  Hg79  1  0.08008300  0.28837200  0.60221000  1
  Hg  Hg80  1  0.12125800  0.77922200  0.60678500  1
  Hg  Hg81  1  0.64682900  0.60482100  0.58552300  1
  Hg  Hg82  1  0.38031200  0.94182500  0.66702100  1
  Hg  Hg83  1  0.77239000  0.13452600  0.67913300  1
  Hg  Hg84  1  0.81356600  0.62537600  0.68370800  1
  Hg  Hg85  1  0.33913600  0.45097500  0.66244600  1
  Hg  Hg86  1  0.07262000  0.78797900  0.74394400  1
  Hg  Hg87  1  0.46469800  0.98068000  0.75605600  1
  Hg  Hg88  1  0.50587400  0.47153000  0.76063100  1
  Hg  Hg89  1  0.03144400  0.29712900  0.73936900  1
