# generated using pymatgen
data_La14Mg3
_symmetry_space_group_name_H-M   'P 1'
_cell_length_a   3.76223921
_cell_length_b   12.59775334
_cell_length_c   45.02321400
_cell_angle_alpha   82.52614143
_cell_angle_beta   87.60542978
_cell_angle_gamma   81.41237189
_symmetry_Int_Tables_number   1
_chemical_formula_structural   La14Mg3
_chemical_formula_sum   'La28 Mg6'
_cell_volume   2091.51562882
_cell_formula_units_Z   2
loop_
 _symmetry_equiv_pos_site_id
 _symmetry_equiv_pos_as_xyz
  1  'x, y, z'
loop_
 _atom_site_type_symbol
 _atom_site_label
 _atom_site_symmetry_multiplicity
 _atom_site_fract_x
 _atom_site_fract_y
 _atom_site_fract_z
 _atom_site_occupancy
  La  La0  1  0.59003400  0.06910200  0.75083100  1
  La  La1  1  0.19673400  0.82292700  0.78360600  1
  La  La2  1  0.80326600  0.66040600  0.73306100  1
  La  La3  1  0.40996600  0.41423100  0.76583600  1
  La  La4  1  0.59003400  0.15243600  0.66749700  1
  La  La5  1  0.19673400  0.90626000  0.70027200  1
  La  La6  1  0.80326600  0.74374000  0.64972800  1
  La  La7  1  0.40996600  0.49756400  0.68250300  1
  La  La8  1  0.59003400  0.23576900  0.58416400  1
  La  La9  1  0.19673400  0.98959400  0.61693900  1
  La  La10  1  0.80326600  0.82707300  0.56639400  1
  La  La11  1  0.40996600  0.58089800  0.59916900  1
  La  La12  1  0.59003400  0.31910200  0.50083100  1
  La  La13  1  0.19673400  0.07292700  0.53360600  1
  La  La14  1  0.80326600  0.91040600  0.48306100  1
  La  La15  1  0.40996600  0.66423100  0.51583600  1
  La  La16  1  0.59003400  0.40243600  0.41749700  1
  La  La17  1  0.19673400  0.15626000  0.45027200  1
  La  La18  1  0.80326600  0.99374000  0.39972800  1
  La  La19  1  0.40996600  0.74756400  0.43250300  1
  La  La20  1  0.59003400  0.48576900  0.33416400  1
  La  La21  1  0.19673400  0.23959400  0.36693900  1
  La  La22  1  0.80326600  0.07707300  0.31639400  1
  La  La23  1  0.40996600  0.83089800  0.34916900  1
  La  La24  1  0.59003400  0.56910200  0.25083100  1
  La  La25  1  0.19673400  0.32292700  0.28360600  1
  La  La26  1  0.80326600  0.16040600  0.23306100  1
  La  La27  1  0.40996600  0.91423100  0.26583600  1
  Mg  Mg28  1  0.00000000  0.28333300  0.71666700  1
  Mg  Mg29  1  1.00000000  0.36666700  0.63333300  1
  Mg  Mg30  1  1.00000000  0.45000000  0.55000000  1
  Mg  Mg31  1  0.00000000  0.53333300  0.46666700  1
  Mg  Mg32  1  1.00000000  0.61666700  0.38333300  1
  Mg  Mg33  1  0.00000000  0.70000000  0.30000000  1
