# generated using pymatgen
data_Mg21Ga20
_symmetry_space_group_name_H-M   'P 1'
_cell_length_a   8.03816789
_cell_length_b   8.03816859
_cell_length_c   49.15939500
_cell_angle_alpha   88.74412318
_cell_angle_beta   88.74412307
_cell_angle_gamma   83.19111861
_symmetry_Int_Tables_number   1
_chemical_formula_structural   Mg21Ga20
_chemical_formula_sum   'Mg42 Ga40'
_cell_volume   3152.53743401
_cell_formula_units_Z   2
loop_
 _symmetry_equiv_pos_site_id
 _symmetry_equiv_pos_as_xyz
  1  'x, y, z'
loop_
 _atom_site_type_symbol
 _atom_site_label
 _atom_site_symmetry_multiplicity
 _atom_site_fract_x
 _atom_site_fract_y
 _atom_site_fract_z
 _atom_site_occupancy
  Mg  Mg0  1  0.88535200  0.73992200  0.77124800  1
  Mg  Mg1  1  0.20148700  0.93724000  0.79719200  1
  Mg  Mg2  1  0.62089600  0.88514300  0.71173500  1
  Mg  Mg3  1  0.95132000  0.09675000  0.74482400  1
  Mg  Mg4  1  0.32820800  0.18277800  0.74267600  1
  Mg  Mg5  1  0.65863100  0.39438400  0.77576500  1
  Mg  Mg6  1  0.27804000  0.54228700  0.79030800  1
  Mg  Mg7  1  0.39417600  0.53960600  0.71625200  1
  Mg  Mg8  1  0.68535200  0.53992200  0.67124800  1
  Mg  Mg9  1  0.00148700  0.73724000  0.69719200  1
  Mg  Mg10  1  0.42089600  0.68514300  0.61173500  1
  Mg  Mg11  1  0.75132000  0.89675000  0.64482400  1
  Mg  Mg12  1  0.12820800  0.98277800  0.64267600  1
  Mg  Mg13  1  0.45863100  0.19438400  0.67576500  1
  Mg  Mg14  1  0.07804000  0.34228700  0.69030800  1
  Mg  Mg15  1  0.19417600  0.33960600  0.61625200  1
  Mg  Mg16  1  0.48535200  0.33992200  0.57124800  1
  Mg  Mg17  1  0.80148700  0.53724000  0.59719200  1
  Mg  Mg18  1  0.22089600  0.48514300  0.51173500  1
  Mg  Mg19  1  0.55132000  0.69675000  0.54482400  1
  Mg  Mg20  1  0.92820800  0.78277800  0.54267600  1
  Mg  Mg21  1  0.25863100  0.99438400  0.57576500  1
  Mg  Mg22  1  0.87804000  0.14228700  0.59030800  1
  Mg  Mg23  1  0.99417600  0.13960600  0.51625200  1
  Mg  Mg24  1  0.28535200  0.13992200  0.47124800  1
  Mg  Mg25  1  0.60148700  0.33724000  0.49719200  1
  Mg  Mg26  1  0.02089600  0.28514300  0.41173500  1
  Mg  Mg27  1  0.35132000  0.49675000  0.44482400  1
  Mg  Mg28  1  0.72820800  0.58277800  0.44267600  1
  Mg  Mg29  1  0.05863100  0.79438400  0.47576500  1
  Mg  Mg30  1  0.67804000  0.94228700  0.49030800  1
  Mg  Mg31  1  0.79417600  0.93960600  0.41625200  1
  Mg  Mg32  1  0.08535200  0.93992200  0.37124800  1
  Mg  Mg33  1  0.40148700  0.13724000  0.39719200  1
  Mg  Mg34  1  0.82089600  0.08514300  0.31173500  1
  Mg  Mg35  1  0.15132000  0.29675000  0.34482400  1
  Mg  Mg36  1  0.52820800  0.38277800  0.34267600  1
  Mg  Mg37  1  0.85863100  0.59438400  0.37576500  1
  Mg  Mg38  1  0.47804000  0.74228700  0.39030800  1
  Mg  Mg39  1  0.59417600  0.73960600  0.31625200  1
  Mg  Mg40  1  0.20148700  0.93724000  0.29719200  1
  Mg  Mg41  1  0.27804000  0.54228700  0.29030800  1
  Ga  Ga42  1  0.51559200  0.72960000  0.76079500  1
  Ga  Ga43  1  0.19794700  0.80046500  0.74496900  1
  Ga  Ga44  1  0.62925900  0.02674100  0.76637000  1
  Ga  Ga45  1  0.21161400  0.99760600  0.70054400  1
  Ga  Ga46  1  0.06791400  0.28192200  0.78695600  1
  Ga  Ga47  1  0.65026900  0.25278700  0.72113000  1
  Ga  Ga48  1  0.08158100  0.47906200  0.74253100  1
  Ga  Ga49  1  0.76393600  0.54992800  0.72670500  1
  Ga  Ga50  1  0.31559200  0.52960000  0.66079500  1
  Ga  Ga51  1  0.99794700  0.60046500  0.64496900  1
  Ga  Ga52  1  0.42925900  0.82674100  0.66637000  1
  Ga  Ga53  1  0.01161400  0.79760600  0.60054400  1
  Ga  Ga54  1  0.86791400  0.08192200  0.68695600  1
  Ga  Ga55  1  0.45026900  0.05278700  0.62113000  1
  Ga  Ga56  1  0.88158100  0.27906200  0.64253100  1
  Ga  Ga57  1  0.56393600  0.34992800  0.62670500  1
  Ga  Ga58  1  0.11559200  0.32960000  0.56079500  1
  Ga  Ga59  1  0.79794700  0.40046500  0.54496900  1
  Ga  Ga60  1  0.22925900  0.62674100  0.56637000  1
  Ga  Ga61  1  0.81161400  0.59760600  0.50054400  1
  Ga  Ga62  1  0.66791400  0.88192200  0.58695600  1
  Ga  Ga63  1  0.25026900  0.85278700  0.52113000  1
  Ga  Ga64  1  0.68158100  0.07906200  0.54253100  1
  Ga  Ga65  1  0.36393600  0.14992800  0.52670500  1
  Ga  Ga66  1  0.91559200  0.12960000  0.46079500  1
  Ga  Ga67  1  0.59794700  0.20046500  0.44496900  1
  Ga  Ga68  1  0.02925900  0.42674100  0.46637000  1
  Ga  Ga69  1  0.61161400  0.39760600  0.40054400  1
  Ga  Ga70  1  0.46791400  0.68192200  0.48695600  1
  Ga  Ga71  1  0.05026900  0.65278700  0.42113000  1
  Ga  Ga72  1  0.48158100  0.87906200  0.44253100  1
  Ga  Ga73  1  0.16393600  0.94992800  0.42670500  1
  Ga  Ga74  1  0.71559200  0.92960000  0.36079500  1
  Ga  Ga75  1  0.39794700  0.00046500  0.34496900  1
  Ga  Ga76  1  0.82925900  0.22674100  0.36637000  1
  Ga  Ga77  1  0.41161400  0.19760600  0.30054400  1
  Ga  Ga78  1  0.26791400  0.48192200  0.38695600  1
  Ga  Ga79  1  0.85026900  0.45278700  0.32113000  1
  Ga  Ga80  1  0.28158100  0.67906200  0.34253100  1
  Ga  Ga81  1  0.96393600  0.74992800  0.32670500  1
