# generated using pymatgen
data_Yb3Mg
_symmetry_space_group_name_H-M   'P 1'
_cell_length_a   9.48692578
_cell_length_b   9.48692571
_cell_length_c   40.91549600
_cell_angle_alpha   86.00900547
_cell_angle_beta   93.99099450
_cell_angle_gamma   95.73647435
_symmetry_Int_Tables_number   1
_chemical_formula_structural   Yb3Mg
_chemical_formula_sum   'Yb48 Mg16'
_cell_volume   3647.85358549
_cell_formula_units_Z   16
loop_
 _symmetry_equiv_pos_site_id
 _symmetry_equiv_pos_as_xyz
  1  'x, y, z'
loop_
 _atom_site_type_symbol
 _atom_site_label
 _atom_site_symmetry_multiplicity
 _atom_site_fract_x
 _atom_site_fract_y
 _atom_site_fract_z
 _atom_site_occupancy
  Yb  Yb0  1  0.75985200  0.06997300  0.21234800  1
  Yb  Yb1  1  0.26228100  0.56754500  0.21072900  1
  Yb  Yb2  1  0.45863600  0.88171300  0.25000000  1
  Yb  Yb3  1  0.92598000  0.73367200  0.21153800  1
  Yb  Yb4  1  0.12233500  0.04784000  0.25080900  1
  Yb  Yb5  1  0.62476300  0.54541100  0.24919100  1
  Yb  Yb6  1  0.14446800  0.68535800  0.28927100  1
  Yb  Yb7  1  0.64689600  0.18292900  0.28765200  1
  Yb  Yb8  1  0.84325100  0.49709700  0.32692300  1
  Yb  Yb9  1  0.31059500  0.34905600  0.28846200  1
  Yb  Yb10  1  0.50695000  0.66322400  0.32773300  1
  Yb  Yb11  1  0.00937800  0.16079600  0.32611400  1
  Yb  Yb12  1  0.52908300  0.30074200  0.36619400  1
  Yb  Yb13  1  0.03151200  0.79831400  0.36457500  1
  Yb  Yb14  1  0.22786700  0.11248200  0.40384600  1
  Yb  Yb15  1  0.69521000  0.96444100  0.36538500  1
  Yb  Yb16  1  0.89156500  0.27860900  0.40465600  1
  Yb  Yb17  1  0.39399400  0.77618100  0.40303700  1
  Yb  Yb18  1  0.91369900  0.91612700  0.44311700  1
  Yb  Yb19  1  0.41612700  0.41369900  0.44149800  1
  Yb  Yb20  1  0.61248200  0.72786700  0.48076900  1
  Yb  Yb21  1  0.07982600  0.57982600  0.44230800  1
  Yb  Yb22  1  0.27618100  0.89399400  0.48157900  1
  Yb  Yb23  1  0.77860900  0.39156500  0.47996000  1
  Yb  Yb24  1  0.29831400  0.53151200  0.52004000  1
  Yb  Yb25  1  0.80074200  0.02908300  0.51842100  1
  Yb  Yb26  1  0.99709700  0.34325100  0.55769200  1
  Yb  Yb27  1  0.46444100  0.19521000  0.51923100  1
  Yb  Yb28  1  0.66079600  0.50937800  0.55850200  1
  Yb  Yb29  1  0.16322400  0.00695000  0.55688300  1
  Yb  Yb30  1  0.68292900  0.14689600  0.59696300  1
  Yb  Yb31  1  0.18535800  0.64446800  0.59534400  1
  Yb  Yb32  1  0.38171300  0.95863600  0.63461500  1
  Yb  Yb33  1  0.84905600  0.81059500  0.59615400  1
  Yb  Yb34  1  0.04541100  0.12476300  0.63542500  1
  Yb  Yb35  1  0.54784000  0.62233500  0.63380600  1
  Yb  Yb36  1  0.06754500  0.76228100  0.67388600  1
  Yb  Yb37  1  0.56997300  0.25985200  0.67226700  1
  Yb  Yb38  1  0.76632800  0.57402000  0.71153800  1
  Yb  Yb39  1  0.23367200  0.42598000  0.67307700  1
  Yb  Yb40  1  0.43002700  0.74014800  0.71234800  1
  Yb  Yb41  1  0.93245500  0.23771900  0.71072900  1
  Yb  Yb42  1  0.45216000  0.37766500  0.75080900  1
  Yb  Yb43  1  0.95458900  0.87523700  0.74919100  1
  Yb  Yb44  1  0.15094400  0.18940500  0.78846200  1
  Yb  Yb45  1  0.61828700  0.04136400  0.75000000  1
  Yb  Yb46  1  0.81464200  0.35553200  0.78927100  1
  Yb  Yb47  1  0.31707100  0.85310400  0.78765200  1
  Mg  Mg48  1  0.95512800  0.37820500  0.25000000  1
  Mg  Mg49  1  0.42948700  0.23717900  0.21153800  1
  Mg  Mg50  1  0.33974400  0.99359000  0.32692300  1
  Mg  Mg51  1  0.81410300  0.85256400  0.28846200  1
  Mg  Mg52  1  0.72435900  0.60897400  0.40384600  1
  Mg  Mg53  1  0.19871800  0.46794900  0.36538500  1
  Mg  Mg54  1  0.10897400  0.22435900  0.48076900  1
  Mg  Mg55  1  0.58333300  0.08333300  0.44230800  1
  Mg  Mg56  1  0.49359000  0.83974400  0.55769200  1
  Mg  Mg57  1  0.96794900  0.69871800  0.51923100  1
  Mg  Mg58  1  0.87820500  0.45512800  0.63461500  1
  Mg  Mg59  1  0.35256400  0.31410300  0.59615400  1
  Mg  Mg60  1  0.26282100  0.07051300  0.71153800  1
  Mg  Mg61  1  0.73717900  0.92948700  0.67307700  1
  Mg  Mg62  1  0.64743600  0.68589700  0.78846200  1
  Mg  Mg63  1  0.12179500  0.54487200  0.75000000  1
