# generated using pymatgen
data_Dy13Mg6
_symmetry_space_group_name_H-M   'P 1'
_cell_length_a   5.47816800
_cell_length_b   8.74776954
_cell_length_c   43.36727000
_cell_angle_alpha   90.82850130
_cell_angle_beta   90.00000000
_cell_angle_gamma   90.00000000
_symmetry_Int_Tables_number   1
_chemical_formula_structural   Dy13Mg6
_chemical_formula_sum   'Dy26 Mg12'
_cell_volume   2078.01825148
_cell_formula_units_Z   2
loop_
 _symmetry_equiv_pos_site_id
 _symmetry_equiv_pos_as_xyz
  1  'x, y, z'
loop_
 _atom_site_type_symbol
 _atom_site_label
 _atom_site_symmetry_multiplicity
 _atom_site_fract_x
 _atom_site_fract_y
 _atom_site_fract_z
 _atom_site_occupancy
  Dy  Dy0  1  0.25000000  0.62856900  0.77013200  1
  Dy  Dy1  1  0.25000000  0.32448100  0.71343300  1
  Dy  Dy2  1  0.75000000  0.98025400  0.78542300  1
  Dy  Dy3  1  0.75000000  0.36767600  0.75878900  1
  Dy  Dy4  1  0.25000000  0.71190200  0.68679900  1
  Dy  Dy5  1  0.25000000  0.40781400  0.63010000  1
  Dy  Dy6  1  0.75000000  0.06358800  0.70209000  1
  Dy  Dy7  1  0.75000000  0.45100900  0.67545600  1
  Dy  Dy8  1  0.25000000  0.79523500  0.60346600  1
  Dy  Dy9  1  0.25000000  0.49114800  0.54676600  1
  Dy  Dy10  1  0.75000000  0.14692100  0.61875600  1
  Dy  Dy11  1  0.75000000  0.53434200  0.59212300  1
  Dy  Dy12  1  0.25000000  0.87856900  0.52013200  1
  Dy  Dy13  1  0.25000000  0.57448100  0.46343300  1
  Dy  Dy14  1  0.75000000  0.23025400  0.53542300  1
  Dy  Dy15  1  0.75000000  0.61767600  0.50878900  1
  Dy  Dy16  1  0.25000000  0.96190200  0.43679900  1
  Dy  Dy17  1  0.25000000  0.65781400  0.38010000  1
  Dy  Dy18  1  0.75000000  0.31358800  0.45209000  1
  Dy  Dy19  1  0.75000000  0.70100900  0.42545600  1
  Dy  Dy20  1  0.25000000  0.04523500  0.35346600  1
  Dy  Dy21  1  0.25000000  0.74114800  0.29676600  1
  Dy  Dy22  1  0.75000000  0.39692100  0.36875600  1
  Dy  Dy23  1  0.75000000  0.78434200  0.34212300  1
  Dy  Dy24  1  0.25000000  0.12856900  0.27013200  1
  Dy  Dy25  1  0.75000000  0.48025400  0.28542300  1
  Mg  Mg26  1  0.25000000  0.97456500  0.74169800  1
  Mg  Mg27  1  0.75000000  0.71759100  0.73052500  1
  Mg  Mg28  1  0.25000000  0.05789900  0.65836400  1
  Mg  Mg29  1  0.75000000  0.80092500  0.64719100  1
  Mg  Mg30  1  0.25000000  0.14123200  0.57503100  1
  Mg  Mg31  1  0.75000000  0.88425800  0.56385800  1
  Mg  Mg32  1  0.25000000  0.22456500  0.49169800  1
  Mg  Mg33  1  0.75000000  0.96759100  0.48052500  1
  Mg  Mg34  1  0.25000000  0.30789900  0.40836400  1
  Mg  Mg35  1  0.75000000  0.05092500  0.39719100  1
  Mg  Mg36  1  0.25000000  0.39123200  0.32503100  1
  Mg  Mg37  1  0.75000000  0.13425800  0.31385800  1
