# generated using pymatgen
data_Mg122Zn217
_symmetry_space_group_name_H-M   'P 1'
_cell_length_a   15.05205963
_cell_length_b   15.58232832
_cell_length_c   44.40935000
_cell_angle_alpha   95.28205411
_cell_angle_beta   87.96000798
_cell_angle_gamma   92.33702888
_symmetry_Int_Tables_number   1
_chemical_formula_structural   Mg122Zn217
_chemical_formula_sum   'Mg122 Zn217'
_cell_volume   10357.87463183
_cell_formula_units_Z   1
loop_
 _symmetry_equiv_pos_site_id
 _symmetry_equiv_pos_as_xyz
  1  'x, y, z'
loop_
 _atom_site_type_symbol
 _atom_site_label
 _atom_site_symmetry_multiplicity
 _atom_site_fract_x
 _atom_site_fract_y
 _atom_site_fract_z
 _atom_site_occupancy
  Mg  Mg0  1  0.64302700  0.84683100  0.23695000  1
  Mg  Mg1  1  0.90930400  0.63346000  0.26392500  1
  Mg  Mg2  1  0.55147000  0.32316200  0.21311500  1
  Mg  Mg3  1  0.82234700  0.92565500  0.21472300  1
  Mg  Mg4  1  0.94865600  0.59182300  0.19429200  1
  Mg  Mg5  1  0.49150900  0.98793200  0.22408100  1
  Mg  Mg6  1  0.58867400  0.51161400  0.24889100  1
  Mg  Mg7  1  0.97465000  0.97284400  0.25469800  1
  Mg  Mg8  1  0.60694400  0.65797500  0.20217000  1
  Mg  Mg9  1  0.03016000  0.39758400  0.18422100  1
  Mg  Mg10  1  0.24552800  0.57533600  0.25630700  1
  Mg  Mg11  1  0.19005300  0.24052400  0.26725200  1
  Mg  Mg12  1  0.83452100  0.81536800  0.27350400  1
  Mg  Mg13  1  0.53030100  0.17552300  0.25960800  1
  Mg  Mg14  1  0.26669600  0.72297600  0.20981400  1
  Mg  Mg15  1  0.20832400  0.38688500  0.22053100  1
  Mg  Mg16  1  0.15397100  0.05166800  0.23247200  1
  Mg  Mg17  1  0.30548800  0.91056600  0.24534000  1
  Mg  Mg18  1  0.88769400  0.26503900  0.20549600  1
  Mg  Mg19  1  0.96247600  0.08313100  0.19591700  1
  Mg  Mg20  1  0.46120800  0.75592200  0.32785900  1
  Mg  Mg21  1  0.72748500  0.54255100  0.35483500  1
  Mg  Mg22  1  0.36965100  0.23225300  0.30402400  1
  Mg  Mg23  1  0.64052900  0.83474600  0.30563200  1
  Mg  Mg24  1  0.76683800  0.50091400  0.28520100  1
  Mg  Mg25  1  0.30969100  0.89702300  0.31499000  1
  Mg  Mg26  1  0.40685500  0.42070500  0.33980000  1
  Mg  Mg27  1  0.79283200  0.88193400  0.34560800  1
  Mg  Mg28  1  0.42512600  0.56706600  0.29307900  1
  Mg  Mg29  1  0.84834200  0.30667500  0.27513000  1
  Mg  Mg30  1  0.06371000  0.48442700  0.34721600  1
  Mg  Mg31  1  0.00823500  0.14961500  0.35816100  1
  Mg  Mg32  1  0.65270300  0.72445900  0.36441300  1
  Mg  Mg33  1  0.34848300  0.08461400  0.35051700  1
  Mg  Mg34  1  0.08487800  0.63206700  0.30072300  1
  Mg  Mg35  1  0.02650600  0.29597600  0.31144000  1
  Mg  Mg36  1  0.97215300  0.96075900  0.32338100  1
  Mg  Mg37  1  0.12367000  0.81965700  0.33624900  1
  Mg  Mg38  1  0.70587600  0.17413000  0.29640500  1
  Mg  Mg39  1  0.78065800  0.99222200  0.28682700  1
  Mg  Mg40  1  0.27939000  0.66501300  0.41876800  1
  Mg  Mg41  1  0.54566700  0.45164100  0.44574400  1
  Mg  Mg42  1  0.18783300  0.14134400  0.39493300  1
  Mg  Mg43  1  0.45871100  0.74383700  0.39654100  1
  Mg  Mg44  1  0.58501900  0.41000500  0.37611000  1
  Mg  Mg45  1  0.12787300  0.80611400  0.40589900  1
  Mg  Mg46  1  0.22503700  0.32979500  0.43070900  1
  Mg  Mg47  1  0.61101400  0.79102500  0.43651700  1
  Mg  Mg48  1  0.24330800  0.47615600  0.38398800  1
  Mg  Mg49  1  0.66652300  0.21576600  0.36603900  1
  Mg  Mg50  1  0.88189100  0.39351800  0.43812500  1
  Mg  Mg51  1  0.82641700  0.05870600  0.44907000  1
  Mg  Mg52  1  0.47088500  0.63355000  0.45532200  1
  Mg  Mg53  1  0.16666500  0.99370500  0.44142600  1
  Mg  Mg54  1  0.90306000  0.54115700  0.39163200  1
  Mg  Mg55  1  0.84468700  0.20506700  0.40234900  1
  Mg  Mg56  1  0.79033400  0.86985000  0.41429000  1
  Mg  Mg57  1  0.94185200  0.72874800  0.42715800  1
  Mg  Mg58  1  0.52405800  0.08322100  0.38731400  1
  Mg  Mg59  1  0.59884000  0.90131300  0.37773600  1
  Mg  Mg60  1  0.09757200  0.57410400  0.50967700  1
  Mg  Mg61  1  0.36384900  0.36073200  0.53665300  1
  Mg  Mg62  1  0.00601500  0.05043500  0.48584200  1
  Mg  Mg63  1  0.27689300  0.65292800  0.48745000  1
  Mg  Mg64  1  0.40320100  0.31909600  0.46701900  1
  Mg  Mg65  1  0.94605500  0.71520500  0.49680800  1
  Mg  Mg66  1  0.04321900  0.23888600  0.52161800  1
  Mg  Mg67  1  0.42919600  0.70011600  0.52742600  1
  Mg  Mg68  1  0.06149000  0.38524700  0.47489700  1
  Mg  Mg69  1  0.48470500  0.12485700  0.45694800  1
  Mg  Mg70  1  0.70007300  0.30260900  0.52903400  1
  Mg  Mg71  1  0.64459900  0.96779700  0.53997900  1
  Mg  Mg72  1  0.28906700  0.54264100  0.54623100  1
  Mg  Mg73  1  0.98484700  0.90279600  0.53233500  1
  Mg  Mg74  1  0.72124200  0.45024800  0.48254100  1
  Mg  Mg75  1  0.66286900  0.11415800  0.49325800  1
  Mg  Mg76  1  0.60851600  0.77894100  0.50519900  1
  Mg  Mg77  1  0.76003400  0.63783900  0.51806800  1
  Mg  Mg78  1  0.34223900  0.99231200  0.47822300  1
  Mg  Mg79  1  0.41702200  0.81040400  0.46864500  1
  Mg  Mg80  1  0.91575400  0.48319400  0.60058600  1
  Mg  Mg81  1  0.18203100  0.26982300  0.62756200  1
  Mg  Mg82  1  0.82419700  0.95952600  0.57675100  1
  Mg  Mg83  1  0.09507400  0.56201900  0.57835900  1
  Mg  Mg84  1  0.22138300  0.22818700  0.55792800  1
  Mg  Mg85  1  0.76423700  0.62429600  0.58771800  1
  Mg  Mg86  1  0.86140100  0.14797700  0.61252700  1
  Mg  Mg87  1  0.24737800  0.60920700  0.61833500  1
  Mg  Mg88  1  0.87967100  0.29433800  0.56580600  1
  Mg  Mg89  1  0.30288700  0.03394800  0.54785700  1
  Mg  Mg90  1  0.51825500  0.21170000  0.61994300  1
  Mg  Mg91  1  0.46278100  0.87688800  0.63088800  1
  Mg  Mg92  1  0.10724800  0.45173100  0.63714000  1
  Mg  Mg93  1  0.80302800  0.81188700  0.62324400  1
  Mg  Mg94  1  0.53942400  0.35933900  0.57345000  1
  Mg  Mg95  1  0.48105100  0.02324900  0.58416700  1
  Mg  Mg96  1  0.42669800  0.68803200  0.59610800  1
  Mg  Mg97  1  0.57821500  0.54693000  0.60897700  1
  Mg  Mg98  1  0.16042100  0.90140300  0.56913200  1
  Mg  Mg99  1  0.23520400  0.71949500  0.55955400  1
  Mg  Mg100  1  0.73393600  0.39228500  0.69149500  1
  Mg  Mg101  1  0.00021300  0.17891400  0.71847100  1
  Mg  Mg102  1  0.64237900  0.86861700  0.66766000  1
  Mg  Mg103  1  0.91325600  0.47111000  0.66926900  1
  Mg  Mg104  1  0.03956500  0.13727800  0.64883700  1
  Mg  Mg105  1  0.58241800  0.53338700  0.67862700  1
  Mg  Mg106  1  0.67958300  0.05706800  0.70343600  1
  Mg  Mg107  1  0.06555900  0.51829800  0.70924400  1
  Mg  Mg108  1  0.69785300  0.20342900  0.65671500  1
  Mg  Mg109  1  0.12106900  0.94303900  0.63876600  1
  Mg  Mg110  1  0.33643700  0.12079100  0.71085200  1
  Mg  Mg111  1  0.28096200  0.78597900  0.72179700  1
  Mg  Mg112  1  0.92543000  0.36082200  0.72804900  1
  Mg  Mg113  1  0.62121000  0.72097800  0.71415300  1
  Mg  Mg114  1  0.35760500  0.26843000  0.66435900  1
  Mg  Mg115  1  0.29923300  0.93234000  0.67507600  1
  Mg  Mg116  1  0.24488000  0.59712200  0.68701700  1
  Mg  Mg117  1  0.39639700  0.45602100  0.69988600  1
  Mg  Mg118  1  0.97860300  0.81049400  0.66004100  1
  Mg  Mg119  1  0.05338500  0.62858500  0.65046300  1
  Mg  Mg120  1  0.85774700  0.04636900  0.73974600  1
  Mg  Mg121  1  0.93925100  0.85213000  0.72967500  1
  Zn  Zn122  1  0.77130400  0.55333900  0.22291100  1
  Zn  Zn123  1  0.95757400  0.77829600  0.22305200  1
  Zn  Zn124  1  0.42486500  0.61849000  0.22832200  1
  Zn  Zn125  1  0.09486400  0.22337700  0.20889400  1
  Zn  Zn126  1  0.14989000  0.56242700  0.19829800  1
  Zn  Zn127  1  0.79559400  0.71858500  0.21584400  1
  Zn  Zn128  1  0.39849900  0.44924900  0.23471100  1
  Zn  Zn129  1  0.02569300  0.34516000  0.24651100  1
  Zn  Zn130  1  0.19627500  0.77356000  0.27330600  1
  Zn  Zn131  1  0.73659700  0.38089200  0.22619000  1
  Zn  Zn132  1  0.36133700  0.73970800  0.26872900  1
  Zn  Zn133  1  0.65689500  0.96223700  0.18491900  1
  Zn  Zn134  1  0.65955000  0.46470300  0.18565600  1
  Zn  Zn135  1  0.71180100  0.21911400  0.23246900  1
  Zn  Zn136  1  0.83942400  0.12020300  0.24637000  1
  Zn  Zn137  1  0.60072200  0.12493900  0.19611500  1
  Zn  Zn138  1  0.77353200  0.09227500  0.19134200  1
  Zn  Zn139  1  0.06040000  0.51760600  0.24323100  1
  Zn  Zn140  1  0.00140400  0.17991400  0.25357800  1
  Zn  Zn141  1  0.31926500  0.52470500  0.19285700  1
  Zn  Zn142  1  0.20528400  0.89713300  0.18717000  1
  Zn  Zn143  1  0.64710700  0.33607200  0.27112400  1
  Zn  Zn144  1  0.48940800  0.49470400  0.18925600  1
  Zn  Zn145  1  0.53457400  0.70326200  0.26523600  1
  Zn  Zn146  1  0.45179400  0.78621500  0.22274700  1
  Zn  Zn147  1  0.68243800  0.04358900  0.23821000  1
  Zn  Zn148  1  0.26242400  0.19523700  0.20418600  1
  Zn  Zn149  1  0.11455900  0.85491000  0.23121100  1
  Zn  Zn150  1  0.08519700  0.67938500  0.23695200  1
  Zn  Zn151  1  0.34520300  0.11228400  0.24667400  1
  Zn  Zn152  1  0.70213300  0.67512200  0.26052700  1
  Zn  Zn153  1  0.89849900  0.44924900  0.23471100  1
  Zn  Zn154  1  0.43566100  0.15879100  0.20069300  1
  Zn  Zn155  1  0.32192100  0.02717000  0.19359300  1
  Zn  Zn156  1  0.37213200  0.28000800  0.24110000  1
  Zn  Zn157  1  0.58948600  0.46243000  0.31382000  1
  Zn  Zn158  1  0.77575600  0.68738700  0.31396100  1
  Zn  Zn159  1  0.24304700  0.52758100  0.31923100  1
  Zn  Zn160  1  0.91304600  0.13246800  0.29980300  1
  Zn  Zn161  1  0.96807200  0.47151800  0.28920700  1
  Zn  Zn162  1  0.61377500  0.62767600  0.30675300  1
  Zn  Zn163  1  0.21668100  0.35834000  0.32562000  1
  Zn  Zn164  1  0.84387500  0.25425000  0.33742000  1
  Zn  Zn165  1  0.01445700  0.68265100  0.36421500  1
  Zn  Zn166  1  0.55477900  0.28998300  0.31710000  1
  Zn  Zn167  1  0.17951900  0.64879900  0.35963800  1
  Zn  Zn168  1  0.47507700  0.87132800  0.27582800  1
  Zn  Zn169  1  0.47773200  0.37379400  0.27656500  1
  Zn  Zn170  1  0.52998300  0.12820500  0.32337800  1
  Zn  Zn171  1  0.65760500  0.02929400  0.33727900  1
  Zn  Zn172  1  0.41890400  0.03403000  0.28702400  1
  Zn  Zn173  1  0.59171400  0.00136500  0.28225200  1
  Zn  Zn174  1  0.87858200  0.42669700  0.33414000  1
  Zn  Zn175  1  0.81958600  0.08900400  0.34448700  1
  Zn  Zn176  1  0.13744700  0.43379600  0.28376600  1
  Zn  Zn177  1  0.02346600  0.80622400  0.27807900  1
  Zn  Zn178  1  0.46528900  0.24516300  0.36203300  1
  Zn  Zn179  1  0.30759000  0.40379500  0.28016500  1
  Zn  Zn180  1  0.35275500  0.61235300  0.35614500  1
  Zn  Zn181  1  0.26997600  0.69530600  0.31365600  1
  Zn  Zn182  1  0.50062000  0.95268000  0.32911900  1
  Zn  Zn183  1  0.08060600  0.10432800  0.29509500  1
  Zn  Zn184  1  0.93274100  0.76400100  0.32212100  1
  Zn  Zn185  1  0.90337900  0.58847600  0.32786100  1
  Zn  Zn186  1  0.16338500  0.02137500  0.33758300  1
  Zn  Zn187  1  0.52031500  0.58421300  0.35143700  1
  Zn  Zn188  1  0.71668100  0.35834000  0.32562000  1
  Zn  Zn189  1  0.25384300  0.06788200  0.29160200  1
  Zn  Zn190  1  0.14010300  0.93626100  0.28450300  1
  Zn  Zn191  1  0.19031400  0.18909900  0.33200900  1
  Zn  Zn192  1  0.40766800  0.37152100  0.40472900  1
  Zn  Zn193  1  0.59393700  0.59647700  0.40487000  1
  Zn  Zn194  1  0.06122900  0.43667200  0.41014000  1
  Zn  Zn195  1  0.73122800  0.04155900  0.39071200  1
  Zn  Zn196  1  0.78625400  0.38060800  0.38011600  1
  Zn  Zn197  1  0.43195700  0.53676700  0.39766200  1
  Zn  Zn198  1  0.03486200  0.26743100  0.41652900  1
  Zn  Zn199  1  0.66205700  0.16334100  0.42832900  1
  Zn  Zn200  1  0.83263900  0.59174200  0.45512400  1
  Zn  Zn201  1  0.37296100  0.19907400  0.40800900  1
  Zn  Zn202  1  0.99770000  0.55789000  0.45054700  1
  Zn  Zn203  1  0.29325800  0.78041900  0.36673700  1
  Zn  Zn204  1  0.29591400  0.28288500  0.36747400  1
  Zn  Zn205  1  0.34816400  0.03729600  0.41428700  1
  Zn  Zn206  1  0.47578700  0.93838500  0.42818800  1
  Zn  Zn207  1  0.23708600  0.94312100  0.37793300  1
  Zn  Zn208  1  0.40989500  0.91045600  0.37316100  1
  Zn  Zn209  1  0.69676400  0.33578800  0.42504900  1
  Zn  Zn210  1  0.63776700  0.99809500  0.43539600  1
  Zn  Zn211  1  0.95562900  0.34288600  0.37467500  1
  Zn  Zn212  1  0.84164700  0.71531500  0.36898800  1
  Zn  Zn213  1  0.28347100  0.15425400  0.45294200  1
  Zn  Zn214  1  0.12577100  0.31288600  0.37107400  1
  Zn  Zn215  1  0.17093700  0.52144400  0.44705400  1
  Zn  Zn216  1  0.08815800  0.60439700  0.40456500  1
  Zn  Zn217  1  0.31880200  0.86177000  0.42002800  1
  Zn  Zn218  1  0.89878700  0.01341900  0.38600400  1
  Zn  Zn219  1  0.75092300  0.67309200  0.41303000  1
  Zn  Zn220  1  0.72156000  0.49756700  0.41877100  1
  Zn  Zn221  1  0.98156700  0.93046500  0.42849200  1
  Zn  Zn222  1  0.33849700  0.49330400  0.44234600  1
  Zn  Zn223  1  0.53486200  0.26743100  0.41652900  1
  Zn  Zn224  1  0.07202400  0.97697300  0.38251100  1
  Zn  Zn225  1  0.95828500  0.84535200  0.37541200  1
  Zn  Zn226  1  0.00849600  0.09819000  0.42291800  1
  Zn  Zn227  1  0.22585000  0.28061200  0.49563800  1
  Zn  Zn228  1  0.41211900  0.50556800  0.49577900  1
  Zn  Zn229  1  0.87941100  0.34576300  0.50104900  1
  Zn  Zn230  1  0.54940900  0.95065000  0.48162100  1
  Zn  Zn231  1  0.60443600  0.28969900  0.47102500  1
  Zn  Zn232  1  0.25013900  0.44585800  0.48857100  1
  Zn  Zn233  1  0.85304400  0.17652200  0.50743800  1
  Zn  Zn234  1  0.48023900  0.07243200  0.51923800  1
  Zn  Zn235  1  0.65082000  0.50083300  0.54603400  1
  Zn  Zn236  1  0.19114300  0.10816500  0.49891800  1
  Zn  Zn237  1  0.81588200  0.46698100  0.54145600  1
  Zn  Zn238  1  0.11144000  0.68951000  0.45764600  1
  Zn  Zn239  1  0.11409600  0.19197600  0.45838300  1
  Zn  Zn240  1  0.16634600  0.94638700  0.50519600  1
  Zn  Zn241  1  0.29396900  0.84747600  0.51909700  1
  Zn  Zn242  1  0.05526800  0.85221100  0.46884200  1
  Zn  Zn243  1  0.22807700  0.81954700  0.46407000  1
  Zn  Zn244  1  0.51494600  0.24487900  0.51595800  1
  Zn  Zn245  1  0.45594900  0.90718600  0.52630500  1
  Zn  Zn246  1  0.77381100  0.25197700  0.46558400  1
  Zn  Zn247  1  0.65982900  0.62440600  0.45989700  1
  Zn  Zn248  1  0.10165300  0.06334500  0.54385100  1
  Zn  Zn249  1  0.94395300  0.22197700  0.46198300  1
  Zn  Zn250  1  0.98911900  0.43053500  0.53796300  1
  Zn  Zn251  1  0.90634000  0.51348800  0.49547400  1
  Zn  Zn252  1  0.13698300  0.77086100  0.51093700  1
  Zn  Zn253  1  0.71696900  0.92250900  0.47691300  1
  Zn  Zn254  1  0.56910500  0.58218300  0.50393900  1
  Zn  Zn255  1  0.53974200  0.40665800  0.50968000  1
  Zn  Zn256  1  0.79974900  0.83955600  0.51940200  1
  Zn  Zn257  1  0.15667900  0.40239500  0.53325500  1
  Zn  Zn258  1  0.35304400  0.17652200  0.50743800  1
  Zn  Zn259  1  0.89020600  0.88606400  0.47342000  1
  Zn  Zn260  1  0.77646600  0.75444300  0.46632100  1
  Zn  Zn261  1  0.82667800  0.00728100  0.51382700  1
  Zn  Zn262  1  0.04403100  0.18970300  0.58654700  1
  Zn  Zn263  1  0.23030100  0.41465900  0.58668800  1
  Zn  Zn264  1  0.69759200  0.25485400  0.59195800  1
  Zn  Zn265  1  0.36759100  0.85974000  0.57253000  1
  Zn  Zn266  1  0.42261800  0.19879000  0.56193400  1
  Zn  Zn267  1  0.06832100  0.35494900  0.57948000  1
  Zn  Zn268  1  0.67122600  0.08561300  0.59834700  1
  Zn  Zn269  1  0.29842100  0.98152300  0.61014700  1
  Zn  Zn270  1  0.46900200  0.40992400  0.63694300  1
  Zn  Zn271  1  0.00932400  0.01725600  0.58982700  1
  Zn  Zn272  1  0.63406400  0.37607200  0.63236500  1
  Zn  Zn273  1  0.92962200  0.59860100  0.54855500  1
  Zn  Zn274  1  0.93227700  0.10106700  0.54929200  1
  Zn  Zn275  1  0.98452800  0.85547700  0.59610500  1
  Zn  Zn276  1  0.11215100  0.75656700  0.61000600  1
  Zn  Zn277  1  0.87345000  0.76130200  0.55975200  1
  Zn  Zn278  1  0.04625900  0.72863800  0.55497900  1
  Zn  Zn279  1  0.33312800  0.15397000  0.60686700  1
  Zn  Zn280  1  0.27413100  0.81627700  0.61721400  1
  Zn  Zn281  1  0.59199300  0.16106800  0.55649300  1
  Zn  Zn282  1  0.47801100  0.53349700  0.55080600  1
  Zn  Zn283  1  0.91983400  0.97243600  0.63476000  1
  Zn  Zn284  1  0.76213500  0.13106800  0.55289300  1
  Zn  Zn285  1  0.80730100  0.33962600  0.62887200  1
  Zn  Zn286  1  0.72452200  0.42257900  0.58638400  1
  Zn  Zn287  1  0.95516500  0.67995200  0.60184600  1
  Zn  Zn288  1  0.53515100  0.83160000  0.56782200  1
  Zn  Zn289  1  0.38728700  0.49127400  0.59484800  1
  Zn  Zn290  1  0.35792400  0.31574900  0.60058900  1
  Zn  Zn291  1  0.61793000  0.74864700  0.61031100  1
  Zn  Zn292  1  0.97486100  0.31148600  0.62416400  1
  Zn  Zn293  1  0.17122600  0.08561300  0.59834700  1
  Zn  Zn294  1  0.70838800  0.79515400  0.56432900  1
  Zn  Zn295  1  0.59464800  0.66353400  0.55723000  1
  Zn  Zn296  1  0.64486000  0.91637200  0.60473600  1
  Zn  Zn297  1  0.86221300  0.09879400  0.67745600  1
  Zn  Zn298  1  0.04848300  0.32375000  0.67759700  1
  Zn  Zn299  1  0.51577400  0.16394500  0.68286700  1
  Zn  Zn300  1  0.18577300  0.76883100  0.66343900  1
  Zn  Zn301  1  0.24079900  0.10788100  0.65284300  1
  Zn  Zn302  1  0.88650300  0.26404000  0.67038900  1
  Zn  Zn303  1  0.48940800  0.99470400  0.68925600  1
  Zn  Zn304  1  0.11660200  0.89061400  0.70105600  1
  Zn  Zn305  1  0.28718400  0.31901500  0.72785200  1
  Zn  Zn306  1  0.82750600  0.92634700  0.68073600  1
  Zn  Zn307  1  0.45224600  0.28516200  0.72327400  1
  Zn  Zn308  1  0.74780400  0.50769200  0.63946400  1
  Zn  Zn309  1  0.75045900  0.01015800  0.64020100  1
  Zn  Zn310  1  0.80271000  0.76456800  0.68701500  1
  Zn  Zn311  1  0.93033300  0.66565800  0.70091500  1
  Zn  Zn312  1  0.69163100  0.67039300  0.65066100  1
  Zn  Zn313  1  0.86444100  0.63772900  0.64588800  1
  Zn  Zn314  1  0.15130900  0.06306100  0.69777600  1
  Zn  Zn315  1  0.09231300  0.72536800  0.70812300  1
  Zn  Zn316  1  0.41017500  0.07015900  0.64740200  1
  Zn  Zn317  1  0.29619300  0.44258800  0.64171500  1
  Zn  Zn318  1  0.73801600  0.88152700  0.72566900  1
  Zn  Zn319  1  0.58031700  0.04015800  0.64380200  1
  Zn  Zn320  1  0.62548300  0.24871600  0.71978100  1
  Zn  Zn321  1  0.54270300  0.33167000  0.67729300  1
  Zn  Zn322  1  0.77334700  0.58904300  0.69275500  1
  Zn  Zn323  1  0.35333300  0.74069100  0.65873100  1
  Zn  Zn324  1  0.20546900  0.40036500  0.68575700  1
  Zn  Zn325  1  0.17610600  0.22483900  0.69149800  1
  Zn  Zn326  1  0.43611200  0.65773800  0.70122000  1
  Zn  Zn327  1  0.79304300  0.22057600  0.71507300  1
  Zn  Zn328  1  0.98940800  0.99470400  0.68925600  1
  Zn  Zn329  1  0.52657000  0.70424500  0.65523800  1
  Zn  Zn330  1  0.41283000  0.57262500  0.64813900  1
  Zn  Zn331  1  0.46304100  0.82546300  0.69564500  1
  Zn  Zn332  1  0.56598600  0.41678300  0.73037300  1
  Zn  Zn333  1  0.56864100  0.91924900  0.73111000  1
  Zn  Zn334  1  0.68262300  0.54682000  0.73679700  1
  Zn  Zn335  1  0.22835600  0.97925000  0.73831100  1
  Zn  Zn336  1  0.11437500  0.35167900  0.73262400  1
  Zn  Zn337  1  0.39849900  0.94924900  0.73471100  1
  Zn  Zn338  1  0.23101200  0.48171600  0.73904800  1
