# generated using pymatgen
data_Mg2Cd
_symmetry_space_group_name_H-M   'P 1'
_cell_length_a   6.08289758
_cell_length_b   8.21260687
_cell_length_c   42.73648200
_cell_angle_alpha   91.15721162
_cell_angle_beta   91.74581926
_cell_angle_gamma   95.77864034
_symmetry_Int_Tables_number   1
_chemical_formula_structural   Mg2Cd
_chemical_formula_sum   'Mg40 Cd20'
_cell_volume   2122.54658665
_cell_formula_units_Z   20
loop_
 _symmetry_equiv_pos_site_id
 _symmetry_equiv_pos_as_xyz
  1  'x, y, z'
loop_
 _atom_site_type_symbol
 _atom_site_label
 _atom_site_symmetry_multiplicity
 _atom_site_fract_x
 _atom_site_fract_y
 _atom_site_fract_z
 _atom_site_occupancy
  Mg  Mg0  1  0.04854900  0.12625700  0.23786300  1
  Mg  Mg1  1  0.13121900  0.76694500  0.21719500  1
  Mg  Mg2  1  0.61878100  0.67055500  0.22030500  1
  Mg  Mg3  1  0.70145100  0.31124300  0.19963700  1
  Mg  Mg4  1  0.79854900  0.18875700  0.30036300  1
  Mg  Mg5  1  0.88121900  0.82944500  0.27969500  1
  Mg  Mg6  1  0.36878100  0.73305500  0.28280500  1
  Mg  Mg7  1  0.45145100  0.37374300  0.26213700  1
  Mg  Mg8  1  0.54854900  0.25125700  0.36286300  1
  Mg  Mg9  1  0.63121900  0.89194500  0.34219500  1
  Mg  Mg10  1  0.11878100  0.79555500  0.34530500  1
  Mg  Mg11  1  0.20145100  0.43624300  0.32463700  1
  Mg  Mg12  1  0.29854900  0.31375700  0.42536300  1
  Mg  Mg13  1  0.38121900  0.95444500  0.40469500  1
  Mg  Mg14  1  0.86878100  0.85805500  0.40780500  1
  Mg  Mg15  1  0.95145100  0.49874300  0.38713700  1
  Mg  Mg16  1  0.04854900  0.37625700  0.48786300  1
  Mg  Mg17  1  0.13121900  0.01694500  0.46719500  1
  Mg  Mg18  1  0.61878100  0.92055500  0.47030500  1
  Mg  Mg19  1  0.70145100  0.56124300  0.44963700  1
  Mg  Mg20  1  0.79854900  0.43875700  0.55036300  1
  Mg  Mg21  1  0.88121900  0.07944500  0.52969500  1
  Mg  Mg22  1  0.36878100  0.98305500  0.53280500  1
  Mg  Mg23  1  0.45145100  0.62374300  0.51213700  1
  Mg  Mg24  1  0.54854900  0.50125700  0.61286300  1
  Mg  Mg25  1  0.63121900  0.14194500  0.59219500  1
  Mg  Mg26  1  0.11878100  0.04555500  0.59530500  1
  Mg  Mg27  1  0.20145100  0.68624300  0.57463700  1
  Mg  Mg28  1  0.29854900  0.56375700  0.67536300  1
  Mg  Mg29  1  0.38121900  0.20444500  0.65469500  1
  Mg  Mg30  1  0.86878100  0.10805500  0.65780500  1
  Mg  Mg31  1  0.95145100  0.74874300  0.63713700  1
  Mg  Mg32  1  0.04854900  0.62625700  0.73786300  1
  Mg  Mg33  1  0.13121900  0.26694500  0.71719500  1
  Mg  Mg34  1  0.61878100  0.17055500  0.72030500  1
  Mg  Mg35  1  0.70145100  0.81124300  0.69963700  1
  Mg  Mg36  1  0.79854900  0.68875700  0.80036300  1
  Mg  Mg37  1  0.88121900  0.32944500  0.77969500  1
  Mg  Mg38  1  0.36878100  0.23305500  0.78280500  1
  Mg  Mg39  1  0.45145100  0.87374300  0.76213700  1
  Cd  Cd40  1  0.21545100  0.41974400  0.19613700  1
  Cd  Cd41  1  0.53454900  0.01775600  0.24136300  1
  Cd  Cd42  1  0.96545100  0.48224400  0.25863700  1
  Cd  Cd43  1  0.28454900  0.08025600  0.30386300  1
  Cd  Cd44  1  0.71545100  0.54474400  0.32113700  1
  Cd  Cd45  1  0.03454900  0.14275600  0.36636300  1
  Cd  Cd46  1  0.46545100  0.60724400  0.38363700  1
  Cd  Cd47  1  0.78454900  0.20525600  0.42886300  1
  Cd  Cd48  1  0.21545100  0.66974400  0.44613700  1
  Cd  Cd49  1  0.53454900  0.26775600  0.49136300  1
  Cd  Cd50  1  0.96545100  0.73224400  0.50863700  1
  Cd  Cd51  1  0.28454900  0.33025600  0.55386300  1
  Cd  Cd52  1  0.71545100  0.79474400  0.57113700  1
  Cd  Cd53  1  0.03454900  0.39275600  0.61636300  1
  Cd  Cd54  1  0.46545100  0.85724400  0.63363700  1
  Cd  Cd55  1  0.78454900  0.45525600  0.67886300  1
  Cd  Cd56  1  0.21545100  0.91974400  0.69613700  1
  Cd  Cd57  1  0.53454900  0.51775600  0.74136300  1
  Cd  Cd58  1  0.96545100  0.98224400  0.75863700  1
  Cd  Cd59  1  0.28454900  0.58025600  0.80386300  1
