# generated using pymatgen
data_Mg3Cd
_symmetry_space_group_name_H-M   'P 1'
_cell_length_a   6.30670400
_cell_length_b   8.12497382
_cell_length_c   44.92856900
_cell_angle_alpha   93.38299134
_cell_angle_beta   90.00000000
_cell_angle_gamma   67.16329262
_symmetry_Int_Tables_number   1
_chemical_formula_structural   Mg3Cd
_chemical_formula_sum   'Mg42 Cd14'
_cell_volume   2117.40690686
_cell_formula_units_Z   14
loop_
 _symmetry_equiv_pos_site_id
 _symmetry_equiv_pos_as_xyz
  1  'x, y, z'
loop_
 _atom_site_type_symbol
 _atom_site_label
 _atom_site_symmetry_multiplicity
 _atom_site_fract_x
 _atom_site_fract_y
 _atom_site_fract_z
 _atom_site_occupancy
  Mg  Mg0  1  0.23144100  0.04101700  0.24316400  1
  Mg  Mg1  1  0.60351700  0.79296600  0.28450600  1
  Mg  Mg2  1  0.72754200  0.04101700  0.24316400  1
  Mg  Mg3  1  0.51855900  0.45898300  0.25683600  1
  Mg  Mg4  1  0.14648300  0.70703400  0.21549400  1
  Mg  Mg5  1  0.02245800  0.45898300  0.25683600  1
  Mg  Mg6  1  0.98144100  0.54101700  0.32649700  1
  Mg  Mg7  1  0.35351700  0.29296600  0.36783900  1
  Mg  Mg8  1  0.47754200  0.54101700  0.32649700  1
  Mg  Mg9  1  0.26855900  0.95898300  0.34016900  1
  Mg  Mg10  1  0.89648300  0.20703400  0.29882800  1
  Mg  Mg11  1  0.77245800  0.95898300  0.34016900  1
  Mg  Mg12  1  0.73144100  0.04101700  0.40983100  1
  Mg  Mg13  1  0.10351700  0.79296600  0.45117200  1
  Mg  Mg14  1  0.22754200  0.04101700  0.40983100  1
  Mg  Mg15  1  0.01855900  0.45898300  0.42350300  1
  Mg  Mg16  1  0.64648300  0.70703400  0.38216100  1
  Mg  Mg17  1  0.52245800  0.45898300  0.42350300  1
  Mg  Mg18  1  0.48144100  0.54101700  0.49316400  1
  Mg  Mg19  1  0.85351700  0.29296600  0.53450600  1
  Mg  Mg20  1  0.97754200  0.54101700  0.49316400  1
  Mg  Mg21  1  0.76855900  0.95898300  0.50683600  1
  Mg  Mg22  1  0.39648300  0.20703400  0.46549400  1
  Mg  Mg23  1  0.27245800  0.95898300  0.50683600  1
  Mg  Mg24  1  0.23144100  0.04101700  0.57649700  1
  Mg  Mg25  1  0.60351700  0.79296600  0.61783900  1
  Mg  Mg26  1  0.72754200  0.04101700  0.57649700  1
  Mg  Mg27  1  0.51855900  0.45898300  0.59016900  1
  Mg  Mg28  1  0.14648300  0.70703400  0.54882800  1
  Mg  Mg29  1  0.02245800  0.45898300  0.59016900  1
  Mg  Mg30  1  0.98144100  0.54101700  0.65983100  1
  Mg  Mg31  1  0.35351700  0.29296600  0.70117200  1
  Mg  Mg32  1  0.47754200  0.54101700  0.65983100  1
  Mg  Mg33  1  0.26855900  0.95898300  0.67350300  1
  Mg  Mg34  1  0.89648300  0.20703400  0.63216100  1
  Mg  Mg35  1  0.77245800  0.95898300  0.67350300  1
  Mg  Mg36  1  0.73144100  0.04101700  0.74316400  1
  Mg  Mg37  1  0.10351700  0.79296600  0.78450600  1
  Mg  Mg38  1  0.22754200  0.04101700  0.74316400  1
  Mg  Mg39  1  0.01855900  0.45898300  0.75683600  1
  Mg  Mg40  1  0.64648300  0.70703400  0.71549400  1
  Mg  Mg41  1  0.52245800  0.45898300  0.75683600  1
  Cd  Cd42  1  0.10416700  0.79166700  0.28472200  1
  Cd  Cd43  1  0.64583300  0.70833300  0.21527800  1
  Cd  Cd44  1  0.85416700  0.29166700  0.36805600  1
  Cd  Cd45  1  0.39583300  0.20833300  0.29861100  1
  Cd  Cd46  1  0.60416700  0.79166700  0.45138900  1
  Cd  Cd47  1  0.14583300  0.70833300  0.38194400  1
  Cd  Cd48  1  0.35416700  0.29166700  0.53472200  1
  Cd  Cd49  1  0.89583300  0.20833300  0.46527800  1
  Cd  Cd50  1  0.10416700  0.79166700  0.61805600  1
  Cd  Cd51  1  0.64583300  0.70833300  0.54861100  1
  Cd  Cd52  1  0.85416700  0.29166700  0.70138900  1
  Cd  Cd53  1  0.39583300  0.20833300  0.63194400  1
  Cd  Cd54  1  0.60416700  0.79166700  0.78472200  1
  Cd  Cd55  1  0.14583300  0.70833300  0.71527800  1
