# generated using pymatgen
data_Mg116Zn205
_symmetry_space_group_name_H-M   'P 1'
_cell_length_a   13.26606209
_cell_length_b   14.70723619
_cell_length_c   50.02254400
_cell_angle_alpha   94.04592358
_cell_angle_beta   85.51984715
_cell_angle_gamma   104.27395804
_symmetry_Int_Tables_number   1
_chemical_formula_structural   Mg116Zn205
_chemical_formula_sum   'Mg116 Zn205'
_cell_volume   9416.24948960
_cell_formula_units_Z   1
loop_
 _symmetry_equiv_pos_site_id
 _symmetry_equiv_pos_as_xyz
  1  'x, y, z'
loop_
 _atom_site_type_symbol
 _atom_site_label
 _atom_site_symmetry_multiplicity
 _atom_site_fract_x
 _atom_site_fract_y
 _atom_site_fract_z
 _atom_site_occupancy
  Mg  Mg0  1  0.71948800  0.89982000  0.22939800  1
  Mg  Mg1  1  0.02342700  0.71342500  0.24568800  1
  Mg  Mg2  1  0.53780700  0.35231700  0.27185300  1
  Mg  Mg3  1  0.79795100  0.95641800  0.28580300  1
  Mg  Mg4  1  0.87899000  0.60215500  0.29021000  1
  Mg  Mg5  1  0.55148700  0.02805300  0.22014500  1
  Mg  Mg6  1  0.64050800  0.57654400  0.27790800  1
  Mg  Mg7  1  0.01817400  0.04358200  0.29783400  1
  Mg  Mg8  1  0.61917600  0.67618400  0.22406800  1
  Mg  Mg9  1  0.93713500  0.39784500  0.29342700  1
  Mg  Mg10  1  0.37831800  0.64768300  0.21178300  1
  Mg  Mg11  1  0.29694900  0.32381600  0.25956800  1
  Mg  Mg12  1  0.97085100  0.90491200  0.24263900  1
  Mg  Mg13  1  0.65554900  0.25117100  0.22592800  1
  Mg  Mg14  1  0.26057600  0.74882900  0.25770800  1
  Mg  Mg15  1  0.27561800  0.42345600  0.20572800  1
  Mg  Mg16  1  0.19663700  0.10018000  0.25423800  1
  Mg  Mg17  1  0.36463800  0.97194700  0.26349100  1
  Mg  Mg18  1  0.89269900  0.28657500  0.23794800  1
  Mg  Mg19  1  0.94527400  0.09508800  0.24099800  1
  Mg  Mg20  1  0.61948800  0.89982000  0.32939800  1
  Mg  Mg21  1  0.92342700  0.71342500  0.34568800  1
  Mg  Mg22  1  0.43780700  0.35231700  0.37185300  1
  Mg  Mg23  1  0.69795100  0.95641800  0.38580300  1
  Mg  Mg24  1  0.77899000  0.60215500  0.39021000  1
  Mg  Mg25  1  0.45148700  0.02805300  0.32014500  1
  Mg  Mg26  1  0.54050800  0.57654400  0.37790800  1
  Mg  Mg27  1  0.91817400  0.04358200  0.39783400  1
  Mg  Mg28  1  0.51917600  0.67618400  0.32406800  1
  Mg  Mg29  1  0.83713500  0.39784500  0.39342700  1
  Mg  Mg30  1  0.27831800  0.64768300  0.31178300  1
  Mg  Mg31  1  0.19694900  0.32381600  0.35956800  1
  Mg  Mg32  1  0.87085100  0.90491200  0.34263900  1
  Mg  Mg33  1  0.55554900  0.25117100  0.32592800  1
  Mg  Mg34  1  0.16057600  0.74882900  0.35770800  1
  Mg  Mg35  1  0.17561800  0.42345600  0.30572800  1
  Mg  Mg36  1  0.09663700  0.10018000  0.35423800  1
  Mg  Mg37  1  0.26463800  0.97194700  0.36349100  1
  Mg  Mg38  1  0.79269900  0.28657500  0.33794800  1
  Mg  Mg39  1  0.84527400  0.09508800  0.34099800  1
  Mg  Mg40  1  0.51948800  0.89982000  0.42939800  1
  Mg  Mg41  1  0.82342700  0.71342500  0.44568800  1
  Mg  Mg42  1  0.33780700  0.35231700  0.47185300  1
  Mg  Mg43  1  0.59795100  0.95641800  0.48580300  1
  Mg  Mg44  1  0.67899000  0.60215500  0.49021000  1
  Mg  Mg45  1  0.35148700  0.02805300  0.42014500  1
  Mg  Mg46  1  0.44050800  0.57654400  0.47790800  1
  Mg  Mg47  1  0.81817400  0.04358200  0.49783400  1
  Mg  Mg48  1  0.41917600  0.67618400  0.42406800  1
  Mg  Mg49  1  0.73713500  0.39784500  0.49342700  1
  Mg  Mg50  1  0.17831800  0.64768300  0.41178300  1
  Mg  Mg51  1  0.09694900  0.32381600  0.45956800  1
  Mg  Mg52  1  0.77085100  0.90491200  0.44263900  1
  Mg  Mg53  1  0.45554900  0.25117100  0.42592800  1
  Mg  Mg54  1  0.06057600  0.74882900  0.45770800  1
  Mg  Mg55  1  0.07561800  0.42345600  0.40572800  1
  Mg  Mg56  1  0.99663700  0.10018000  0.45423800  1
  Mg  Mg57  1  0.16463800  0.97194700  0.46349100  1
  Mg  Mg58  1  0.69269900  0.28657500  0.43794800  1
  Mg  Mg59  1  0.74527400  0.09508800  0.44099800  1
  Mg  Mg60  1  0.41948800  0.89982000  0.52939800  1
  Mg  Mg61  1  0.72342700  0.71342500  0.54568800  1
  Mg  Mg62  1  0.23780700  0.35231700  0.57185300  1
  Mg  Mg63  1  0.49795100  0.95641800  0.58580300  1
  Mg  Mg64  1  0.57899000  0.60215500  0.59021000  1
  Mg  Mg65  1  0.25148700  0.02805300  0.52014500  1
  Mg  Mg66  1  0.34050800  0.57654400  0.57790800  1
  Mg  Mg67  1  0.71817400  0.04358200  0.59783400  1
  Mg  Mg68  1  0.31917600  0.67618400  0.52406800  1
  Mg  Mg69  1  0.63713500  0.39784500  0.59342700  1
  Mg  Mg70  1  0.07831800  0.64768300  0.51178300  1
  Mg  Mg71  1  0.99694900  0.32381600  0.55956800  1
  Mg  Mg72  1  0.67085100  0.90491200  0.54263900  1
  Mg  Mg73  1  0.35554900  0.25117100  0.52592800  1
  Mg  Mg74  1  0.96057600  0.74882900  0.55770800  1
  Mg  Mg75  1  0.97561800  0.42345600  0.50572800  1
  Mg  Mg76  1  0.89663700  0.10018000  0.55423800  1
  Mg  Mg77  1  0.06463800  0.97194700  0.56349100  1
  Mg  Mg78  1  0.59269900  0.28657500  0.53794800  1
  Mg  Mg79  1  0.64527400  0.09508800  0.54099800  1
  Mg  Mg80  1  0.31948800  0.89982000  0.62939800  1
  Mg  Mg81  1  0.62342700  0.71342500  0.64568800  1
  Mg  Mg82  1  0.13780700  0.35231700  0.67185300  1
  Mg  Mg83  1  0.39795100  0.95641800  0.68580300  1
  Mg  Mg84  1  0.47899000  0.60215500  0.69021000  1
  Mg  Mg85  1  0.15148700  0.02805300  0.62014500  1
  Mg  Mg86  1  0.24050800  0.57654400  0.67790800  1
  Mg  Mg87  1  0.61817400  0.04358200  0.69783400  1
  Mg  Mg88  1  0.21917600  0.67618400  0.62406800  1
  Mg  Mg89  1  0.53713500  0.39784500  0.69342700  1
  Mg  Mg90  1  0.97831800  0.64768300  0.61178300  1
  Mg  Mg91  1  0.89694900  0.32381600  0.65956800  1
  Mg  Mg92  1  0.57085100  0.90491200  0.64263900  1
  Mg  Mg93  1  0.25554900  0.25117100  0.62592800  1
  Mg  Mg94  1  0.86057600  0.74882900  0.65770800  1
  Mg  Mg95  1  0.87561800  0.42345600  0.60572800  1
  Mg  Mg96  1  0.79663700  0.10018000  0.65423800  1
  Mg  Mg97  1  0.96463800  0.97194700  0.66349100  1
  Mg  Mg98  1  0.49269900  0.28657500  0.63794800  1
  Mg  Mg99  1  0.54527400  0.09508800  0.64099800  1
  Mg  Mg100  1  0.21948800  0.89982000  0.72939800  1
  Mg  Mg101  1  0.52342700  0.71342500  0.74568800  1
  Mg  Mg102  1  0.03780700  0.35231700  0.77185300  1
  Mg  Mg103  1  0.05148700  0.02805300  0.72014500  1
  Mg  Mg104  1  0.14050800  0.57654400  0.77790800  1
  Mg  Mg105  1  0.11917600  0.67618400  0.72406800  1
  Mg  Mg106  1  0.87831800  0.64768300  0.71178300  1
  Mg  Mg107  1  0.79694900  0.32381600  0.75956800  1
  Mg  Mg108  1  0.47085100  0.90491200  0.74263900  1
  Mg  Mg109  1  0.15554900  0.25117100  0.72592800  1
  Mg  Mg110  1  0.76057600  0.74882900  0.75770800  1
  Mg  Mg111  1  0.77561800  0.42345600  0.70572800  1
  Mg  Mg112  1  0.69663700  0.10018000  0.75423800  1
  Mg  Mg113  1  0.86463800  0.97194700  0.76349100  1
  Mg  Mg114  1  0.39269900  0.28657500  0.73794800  1
  Mg  Mg115  1  0.44527400  0.09508800  0.74099800  1
  Zn  Zn116  1  0.81439800  0.59229000  0.23468900  1
  Zn  Zn117  1  0.94195900  0.81738700  0.29367900  1
  Zn  Zn118  1  0.44632300  0.66285200  0.26714600  1
  Zn  Zn119  1  0.12049700  0.24831100  0.22411600  1
  Zn  Zn120  1  0.10221500  0.57676400  0.27623100  1
  Zn  Zn121  1  0.84916000  0.75046900  0.21008100  1
  Zn  Zn122  1  0.40806300  0.50000000  0.29181800  1
  Zn  Zn123  1  0.10172800  0.40771000  0.24894800  1
  Zn  Zn124  1  0.36436200  0.86290600  0.21048600  1
  Zn  Zn125  1  0.76291100  0.42312300  0.25802800  1
  Zn  Zn126  1  0.43705200  0.82447600  0.29370300  1
  Zn  Zn127  1  0.58384700  0.96319600  0.27484600  1
  Zn  Zn128  1  0.63789900  0.46639900  0.22492400  1
  Zn  Zn129  1  0.72699100  0.26762300  0.28170800  1
  Zn  Zn130  1  0.87416600  0.18261300  0.28995700  1
  Zn  Zn131  1  0.55176300  0.13709400  0.27315000  1
  Zn  Zn132  1  0.73286000  0.09965700  0.25531800  1
  Zn  Zn133  1  0.15321500  0.57687700  0.22560900  1
  Zn  Zn134  1  0.06696500  0.24953100  0.27355500  1
  Zn  Zn135  1  0.27822700  0.53360100  0.25871300  1
  Zn  Zn136  1  0.18326600  0.90034300  0.22831900  1
  Zn  Zn137  1  0.81391000  0.42323600  0.20740600  1
  Zn  Zn138  1  0.45806300  0.50000000  0.24181800  1
  Zn  Zn139  1  0.61977700  0.78453800  0.27722900  1
  Zn  Zn140  1  0.48602800  0.82500200  0.24322100  1
  Zn  Zn141  1  0.78402900  0.09783900  0.20679000  1
  Zn  Zn142  1  0.29634900  0.21546200  0.20640700  1
  Zn  Zn143  1  0.13209600  0.90216100  0.27684700  1
  Zn  Zn144  1  0.18913400  0.73237700  0.20192800  1
  Zn  Zn145  1  0.43009700  0.17499800  0.24041500  1
  Zn  Zn146  1  0.79562800  0.75168900  0.25952100  1
  Zn  Zn147  1  0.95806300  0.50000000  0.24181800  1
  Zn  Zn148  1  0.37907400  0.17552400  0.28993400  1
  Zn  Zn149  1  0.33227900  0.03680400  0.20879000  1
  Zn  Zn150  1  0.46980200  0.33714800  0.21649000  1
  Zn  Zn151  1  0.71439800  0.59229000  0.33468900  1
  Zn  Zn152  1  0.84195900  0.81738700  0.39367900  1
  Zn  Zn153  1  0.34632300  0.66285200  0.36714600  1
  Zn  Zn154  1  0.02049700  0.24831100  0.32411600  1
  Zn  Zn155  1  0.00221500  0.57676400  0.37623100  1
  Zn  Zn156  1  0.74916000  0.75046900  0.31008100  1
  Zn  Zn157  1  0.30806300  0.50000000  0.39181800  1
  Zn  Zn158  1  0.00172800  0.40771000  0.34894800  1
  Zn  Zn159  1  0.26436200  0.86290600  0.31048600  1
  Zn  Zn160  1  0.66291100  0.42312300  0.35802800  1
  Zn  Zn161  1  0.33705200  0.82447600  0.39370300  1
  Zn  Zn162  1  0.48384700  0.96319600  0.37484600  1
  Zn  Zn163  1  0.53789900  0.46639900  0.32492400  1
  Zn  Zn164  1  0.62699100  0.26762300  0.38170800  1
  Zn  Zn165  1  0.77416600  0.18261300  0.38995700  1
  Zn  Zn166  1  0.45176300  0.13709400  0.37315000  1
  Zn  Zn167  1  0.63286000  0.09965700  0.35531800  1
  Zn  Zn168  1  0.05321500  0.57687700  0.32560900  1
  Zn  Zn169  1  0.96696500  0.24953100  0.37355500  1
  Zn  Zn170  1  0.17822700  0.53360100  0.35871300  1
  Zn  Zn171  1  0.08326600  0.90034300  0.32831900  1
  Zn  Zn172  1  0.71391000  0.42323600  0.30740600  1
  Zn  Zn173  1  0.35806300  0.50000000  0.34181800  1
  Zn  Zn174  1  0.51977700  0.78453800  0.37722900  1
  Zn  Zn175  1  0.38602800  0.82500200  0.34322100  1
  Zn  Zn176  1  0.68402900  0.09783900  0.30679000  1
  Zn  Zn177  1  0.19634900  0.21546200  0.30640700  1
  Zn  Zn178  1  0.03209600  0.90216100  0.37684700  1
  Zn  Zn179  1  0.08913400  0.73237700  0.30192800  1
  Zn  Zn180  1  0.33009700  0.17499800  0.34041500  1
  Zn  Zn181  1  0.69562800  0.75168900  0.35952100  1
  Zn  Zn182  1  0.85806300  0.50000000  0.34181800  1
  Zn  Zn183  1  0.27907400  0.17552400  0.38993400  1
  Zn  Zn184  1  0.23227900  0.03680400  0.30879000  1
  Zn  Zn185  1  0.36980200  0.33714800  0.31649000  1
  Zn  Zn186  1  0.61439800  0.59229000  0.43468900  1
  Zn  Zn187  1  0.74195900  0.81738700  0.49367900  1
  Zn  Zn188  1  0.24632300  0.66285200  0.46714600  1
  Zn  Zn189  1  0.92049700  0.24831100  0.42411600  1
  Zn  Zn190  1  0.90221500  0.57676400  0.47623100  1
  Zn  Zn191  1  0.64916000  0.75046900  0.41008100  1
  Zn  Zn192  1  0.20806300  0.50000000  0.49181800  1
  Zn  Zn193  1  0.90172800  0.40771000  0.44894800  1
  Zn  Zn194  1  0.16436200  0.86290600  0.41048600  1
  Zn  Zn195  1  0.56291100  0.42312300  0.45802800  1
  Zn  Zn196  1  0.23705200  0.82447600  0.49370300  1
  Zn  Zn197  1  0.38384700  0.96319600  0.47484600  1
  Zn  Zn198  1  0.43789900  0.46639900  0.42492400  1
  Zn  Zn199  1  0.52699100  0.26762300  0.48170800  1
  Zn  Zn200  1  0.67416600  0.18261300  0.48995700  1
  Zn  Zn201  1  0.35176300  0.13709400  0.47315000  1
  Zn  Zn202  1  0.53286000  0.09965700  0.45531800  1
  Zn  Zn203  1  0.95321500  0.57687700  0.42560900  1
  Zn  Zn204  1  0.86696500  0.24953100  0.47355500  1
  Zn  Zn205  1  0.07822700  0.53360100  0.45871300  1
  Zn  Zn206  1  0.98326600  0.90034300  0.42831900  1
  Zn  Zn207  1  0.61391000  0.42323600  0.40740600  1
  Zn  Zn208  1  0.25806300  0.50000000  0.44181800  1
  Zn  Zn209  1  0.41977700  0.78453800  0.47722900  1
  Zn  Zn210  1  0.28602800  0.82500200  0.44322100  1
  Zn  Zn211  1  0.58402900  0.09783900  0.40679000  1
  Zn  Zn212  1  0.09634900  0.21546200  0.40640700  1
  Zn  Zn213  1  0.93209600  0.90216100  0.47684700  1
  Zn  Zn214  1  0.98913400  0.73237700  0.40192800  1
  Zn  Zn215  1  0.23009700  0.17499800  0.44041500  1
  Zn  Zn216  1  0.59562800  0.75168900  0.45952100  1
  Zn  Zn217  1  0.75806300  0.50000000  0.44181800  1
  Zn  Zn218  1  0.17907400  0.17552400  0.48993400  1
  Zn  Zn219  1  0.13227900  0.03680400  0.40879000  1
  Zn  Zn220  1  0.26980200  0.33714800  0.41649000  1
  Zn  Zn221  1  0.51439800  0.59229000  0.53468900  1
  Zn  Zn222  1  0.64195900  0.81738700  0.59367900  1
  Zn  Zn223  1  0.14632300  0.66285200  0.56714600  1
  Zn  Zn224  1  0.82049700  0.24831100  0.52411600  1
  Zn  Zn225  1  0.80221500  0.57676400  0.57623100  1
  Zn  Zn226  1  0.54916000  0.75046900  0.51008100  1
  Zn  Zn227  1  0.10806300  0.50000000  0.59181800  1
  Zn  Zn228  1  0.80172800  0.40771000  0.54894800  1
  Zn  Zn229  1  0.06436200  0.86290600  0.51048600  1
  Zn  Zn230  1  0.46291100  0.42312300  0.55802800  1
  Zn  Zn231  1  0.13705200  0.82447600  0.59370300  1
  Zn  Zn232  1  0.28384700  0.96319600  0.57484600  1
  Zn  Zn233  1  0.33789900  0.46639900  0.52492400  1
  Zn  Zn234  1  0.42699100  0.26762300  0.58170800  1
  Zn  Zn235  1  0.57416600  0.18261300  0.58995700  1
  Zn  Zn236  1  0.25176300  0.13709400  0.57315000  1
  Zn  Zn237  1  0.43286000  0.09965700  0.55531800  1
  Zn  Zn238  1  0.85321500  0.57687700  0.52560900  1
  Zn  Zn239  1  0.76696500  0.24953100  0.57355500  1
  Zn  Zn240  1  0.97822700  0.53360100  0.55871300  1
  Zn  Zn241  1  0.88326600  0.90034300  0.52831900  1
  Zn  Zn242  1  0.51391000  0.42323600  0.50740600  1
  Zn  Zn243  1  0.15806300  0.50000000  0.54181800  1
  Zn  Zn244  1  0.31977700  0.78453800  0.57722900  1
  Zn  Zn245  1  0.18602800  0.82500200  0.54322100  1
  Zn  Zn246  1  0.48402900  0.09783900  0.50679000  1
  Zn  Zn247  1  0.99634900  0.21546200  0.50640700  1
  Zn  Zn248  1  0.83209600  0.90216100  0.57684700  1
  Zn  Zn249  1  0.88913400  0.73237700  0.50192800  1
  Zn  Zn250  1  0.13009700  0.17499800  0.54041500  1
  Zn  Zn251  1  0.49562800  0.75168900  0.55952100  1
  Zn  Zn252  1  0.65806300  0.50000000  0.54181800  1
  Zn  Zn253  1  0.07907400  0.17552400  0.58993400  1
  Zn  Zn254  1  0.03227900  0.03680400  0.50879000  1
  Zn  Zn255  1  0.16980200  0.33714800  0.51649000  1
  Zn  Zn256  1  0.41439800  0.59229000  0.63468900  1
  Zn  Zn257  1  0.54195900  0.81738700  0.69367900  1
  Zn  Zn258  1  0.04632300  0.66285200  0.66714600  1
  Zn  Zn259  1  0.72049700  0.24831100  0.62411600  1
  Zn  Zn260  1  0.70221500  0.57676400  0.67623100  1
  Zn  Zn261  1  0.44916000  0.75046900  0.61008100  1
  Zn  Zn262  1  0.00806300  0.50000000  0.69181800  1
  Zn  Zn263  1  0.70172800  0.40771000  0.64894800  1
  Zn  Zn264  1  0.96436200  0.86290600  0.61048600  1
  Zn  Zn265  1  0.36291100  0.42312300  0.65802800  1
  Zn  Zn266  1  0.03705200  0.82447600  0.69370300  1
  Zn  Zn267  1  0.18384700  0.96319600  0.67484600  1
  Zn  Zn268  1  0.23789900  0.46639900  0.62492400  1
  Zn  Zn269  1  0.32699100  0.26762300  0.68170800  1
  Zn  Zn270  1  0.47416600  0.18261300  0.68995700  1
  Zn  Zn271  1  0.15176300  0.13709400  0.67315000  1
  Zn  Zn272  1  0.33286000  0.09965700  0.65531800  1
  Zn  Zn273  1  0.75321500  0.57687700  0.62560900  1
  Zn  Zn274  1  0.66696500  0.24953100  0.67355500  1
  Zn  Zn275  1  0.87822700  0.53360100  0.65871300  1
  Zn  Zn276  1  0.78326600  0.90034300  0.62831900  1
  Zn  Zn277  1  0.41391000  0.42323600  0.60740600  1
  Zn  Zn278  1  0.05806300  0.50000000  0.64181800  1
  Zn  Zn279  1  0.21977700  0.78453800  0.67722900  1
  Zn  Zn280  1  0.08602800  0.82500200  0.64322100  1
  Zn  Zn281  1  0.38402900  0.09783900  0.60679000  1
  Zn  Zn282  1  0.89634900  0.21546200  0.60640700  1
  Zn  Zn283  1  0.73209600  0.90216100  0.67684700  1
  Zn  Zn284  1  0.78913400  0.73237700  0.60192800  1
  Zn  Zn285  1  0.03009700  0.17499800  0.64041500  1
  Zn  Zn286  1  0.39562800  0.75168900  0.65952100  1
  Zn  Zn287  1  0.55806300  0.50000000  0.64181800  1
  Zn  Zn288  1  0.97907400  0.17552400  0.68993400  1
  Zn  Zn289  1  0.93227900  0.03680400  0.60879000  1
  Zn  Zn290  1  0.06980200  0.33714800  0.61649000  1
  Zn  Zn291  1  0.31439800  0.59229000  0.73468900  1
  Zn  Zn292  1  0.94632300  0.66285200  0.76714600  1
  Zn  Zn293  1  0.62049700  0.24831100  0.72411600  1
  Zn  Zn294  1  0.60221500  0.57676400  0.77623100  1
  Zn  Zn295  1  0.34916000  0.75046900  0.71008100  1
  Zn  Zn296  1  0.60172800  0.40771000  0.74894800  1
  Zn  Zn297  1  0.86436200  0.86290600  0.71048600  1
  Zn  Zn298  1  0.26291100  0.42312300  0.75802800  1
  Zn  Zn299  1  0.08384700  0.96319600  0.77484600  1
  Zn  Zn300  1  0.13789900  0.46639900  0.72492400  1
  Zn  Zn301  1  0.22699100  0.26762300  0.78170800  1
  Zn  Zn302  1  0.05176300  0.13709400  0.77315000  1
  Zn  Zn303  1  0.23286000  0.09965700  0.75531800  1
  Zn  Zn304  1  0.65321500  0.57687700  0.72560900  1
  Zn  Zn305  1  0.56696500  0.24953100  0.77355500  1
  Zn  Zn306  1  0.77822700  0.53360100  0.75871300  1
  Zn  Zn307  1  0.68326600  0.90034300  0.72831900  1
  Zn  Zn308  1  0.31391000  0.42323600  0.70740600  1
  Zn  Zn309  1  0.95806300  0.50000000  0.74181800  1
  Zn  Zn310  1  0.11977700  0.78453800  0.77722900  1
  Zn  Zn311  1  0.98602800  0.82500200  0.74322100  1
  Zn  Zn312  1  0.28402900  0.09783900  0.70679000  1
  Zn  Zn313  1  0.79634900  0.21546200  0.70640700  1
  Zn  Zn314  1  0.63209600  0.90216100  0.77684700  1
  Zn  Zn315  1  0.68913400  0.73237700  0.70192800  1
  Zn  Zn316  1  0.93009700  0.17499800  0.74041500  1
  Zn  Zn317  1  0.29562800  0.75168900  0.75952100  1
  Zn  Zn318  1  0.45806300  0.50000000  0.74181800  1
  Zn  Zn319  1  0.83227900  0.03680400  0.70879000  1
  Zn  Zn320  1  0.96980200  0.33714800  0.71649000  1
