# generated using pymatgen
data_Mg7Cd19
_symmetry_space_group_name_H-M   'P 1'
_cell_length_a   6.29994100
_cell_length_b   8.11902589
_cell_length_c   44.89839300
_cell_angle_alpha   93.33807398
_cell_angle_beta   90.00000000
_cell_angle_gamma   67.17150525
_symmetry_Int_Tables_number   1
_chemical_formula_structural   Mg7Cd19
_chemical_formula_sum   'Mg14 Cd38'
_cell_volume   2112.41086475
_cell_formula_units_Z   2
loop_
 _symmetry_equiv_pos_site_id
 _symmetry_equiv_pos_as_xyz
  1  'x, y, z'
loop_
 _atom_site_type_symbol
 _atom_site_label
 _atom_site_symmetry_multiplicity
 _atom_site_fract_x
 _atom_site_fract_y
 _atom_site_fract_z
 _atom_site_occupancy
  Mg  Mg0  1  0.58325300  0.83349400  0.23611100  1
  Mg  Mg1  1  0.29158600  0.41682800  0.22222200  1
  Mg  Mg2  1  0.33325300  0.33349400  0.31944400  1
  Mg  Mg3  1  0.04158600  0.91682800  0.30555600  1
  Mg  Mg4  1  0.08325300  0.83349400  0.40277800  1
  Mg  Mg5  1  0.79158600  0.41682800  0.38888900  1
  Mg  Mg6  1  0.83325300  0.33349400  0.48611100  1
  Mg  Mg7  1  0.54158600  0.91682800  0.47222200  1
  Mg  Mg8  1  0.58325300  0.83349400  0.56944400  1
  Mg  Mg9  1  0.29158600  0.41682800  0.55555600  1
  Mg  Mg10  1  0.33325300  0.33349400  0.65277800  1
  Mg  Mg11  1  0.04158600  0.91682800  0.63888900  1
  Mg  Mg12  1  0.08325300  0.83349400  0.73611100  1
  Mg  Mg13  1  0.79158600  0.41682800  0.72222200  1
  Cd  Cd14  1  0.95852100  0.58360200  0.27776000  1
  Cd  Cd15  1  0.66631800  0.16672000  0.26390700  1
  Cd  Cd16  1  0.16696200  0.16672000  0.26390700  1
  Cd  Cd17  1  0.08336000  0.83328000  0.23614700  1
  Cd  Cd18  1  0.45787700  0.58360200  0.27776000  1
  Cd  Cd19  1  0.79147900  0.41704200  0.22218600  1
  Cd  Cd20  1  0.70852100  0.08360200  0.36109300  1
  Cd  Cd21  1  0.41631800  0.66672000  0.34724000  1
  Cd  Cd22  1  0.91696200  0.66672000  0.34724000  1
  Cd  Cd23  1  0.83336000  0.33328000  0.31948000  1
  Cd  Cd24  1  0.20787700  0.08360200  0.36109300  1
  Cd  Cd25  1  0.54147900  0.91704200  0.30552000  1
  Cd  Cd26  1  0.45852100  0.58360200  0.44442700  1
  Cd  Cd27  1  0.16631800  0.16672000  0.43057300  1
  Cd  Cd28  1  0.66696200  0.16672000  0.43057300  1
  Cd  Cd29  1  0.58336000  0.83328000  0.40281400  1
  Cd  Cd30  1  0.95787700  0.58360200  0.44442700  1
  Cd  Cd31  1  0.29147900  0.41704200  0.38885300  1
  Cd  Cd32  1  0.20852100  0.08360200  0.52776000  1
  Cd  Cd33  1  0.91631800  0.66672000  0.51390700  1
  Cd  Cd34  1  0.41696200  0.66672000  0.51390700  1
  Cd  Cd35  1  0.33336000  0.33328000  0.48614700  1
  Cd  Cd36  1  0.70787700  0.08360200  0.52776000  1
  Cd  Cd37  1  0.04147900  0.91704200  0.47218600  1
  Cd  Cd38  1  0.95852100  0.58360200  0.61109300  1
  Cd  Cd39  1  0.66631800  0.16672000  0.59724000  1
  Cd  Cd40  1  0.16696200  0.16672000  0.59724000  1
  Cd  Cd41  1  0.08336000  0.83328000  0.56948000  1
  Cd  Cd42  1  0.45787700  0.58360200  0.61109300  1
  Cd  Cd43  1  0.79147900  0.41704200  0.55552000  1
  Cd  Cd44  1  0.70852100  0.08360200  0.69442700  1
  Cd  Cd45  1  0.41631800  0.66672000  0.68057300  1
  Cd  Cd46  1  0.91696200  0.66672000  0.68057300  1
  Cd  Cd47  1  0.83336000  0.33328000  0.65281400  1
  Cd  Cd48  1  0.20787700  0.08360200  0.69442700  1
  Cd  Cd49  1  0.54147900  0.91704200  0.63885300  1
  Cd  Cd50  1  0.58336000  0.83328000  0.73614700  1
  Cd  Cd51  1  0.29147900  0.41704200  0.72218600  1
