# generated using pymatgen
data_Y12Mg23
_symmetry_space_group_name_H-M   'P 1'
_cell_length_a   6.05148162
_cell_length_b   6.05148110
_cell_length_c   49.53350900
_cell_angle_alpha   86.49792341
_cell_angle_beta   86.49792371
_cell_angle_gamma   60.00000048
_symmetry_Int_Tables_number   1
_chemical_formula_structural   Y12Mg23
_chemical_formula_sum   'Y12 Mg23'
_cell_volume   1567.00397672
_cell_formula_units_Z   1
loop_
 _symmetry_equiv_pos_site_id
 _symmetry_equiv_pos_as_xyz
  1  'x, y, z'
loop_
 _atom_site_type_symbol
 _atom_site_label
 _atom_site_symmetry_multiplicity
 _atom_site_fract_x
 _atom_site_fract_y
 _atom_site_fract_z
 _atom_site_occupancy
  Y  Y0  1  0.64166700  0.64166700  0.29583300  1
  Y  Y1  1  0.66666700  0.66666700  0.22083300  1
  Y  Y2  1  0.94166700  0.94166700  0.39583300  1
  Y  Y3  1  0.96666700  0.96666700  0.32083300  1
  Y  Y4  1  0.24166700  0.24166700  0.49583300  1
  Y  Y5  1  0.26666700  0.26666700  0.42083300  1
  Y  Y6  1  0.54166700  0.54166700  0.59583300  1
  Y  Y7  1  0.56666700  0.56666700  0.52083300  1
  Y  Y8  1  0.84166700  0.84166700  0.69583300  1
  Y  Y9  1  0.86666700  0.86666700  0.62083300  1
  Y  Y10  1  0.14166700  0.14166700  0.79583300  1
  Y  Y11  1  0.16666700  0.16666700  0.72083300  1
  Mg  Mg12  1  0.15416700  0.65416700  0.25833300  1
  Mg  Mg13  1  0.65416700  0.15416700  0.25833300  1
  Mg  Mg14  1  0.15416700  0.15416700  0.25833300  1
  Mg  Mg15  1  0.45416700  0.95416700  0.35833300  1
  Mg  Mg16  1  0.30416700  0.30416700  0.30833300  1
  Mg  Mg17  1  0.95416700  0.45416700  0.35833300  1
  Mg  Mg18  1  0.45416700  0.45416700  0.35833300  1
  Mg  Mg19  1  0.75416700  0.25416700  0.45833300  1
  Mg  Mg20  1  0.60416700  0.60416700  0.40833300  1
  Mg  Mg21  1  0.25416700  0.75416700  0.45833300  1
  Mg  Mg22  1  0.75416700  0.75416700  0.45833300  1
  Mg  Mg23  1  0.05416700  0.55416700  0.55833300  1
  Mg  Mg24  1  0.90416700  0.90416700  0.50833300  1
  Mg  Mg25  1  0.55416700  0.05416700  0.55833300  1
  Mg  Mg26  1  0.05416700  0.05416700  0.55833300  1
  Mg  Mg27  1  0.35416700  0.85416700  0.65833300  1
  Mg  Mg28  1  0.20416700  0.20416700  0.60833300  1
  Mg  Mg29  1  0.85416700  0.35416700  0.65833300  1
  Mg  Mg30  1  0.35416700  0.35416700  0.65833300  1
  Mg  Mg31  1  0.65416700  0.15416700  0.75833300  1
  Mg  Mg32  1  0.50416700  0.50416700  0.70833300  1
  Mg  Mg33  1  0.15416700  0.65416700  0.75833300  1
  Mg  Mg34  1  0.65416700  0.65416700  0.75833300  1
