# generated using pymatgen
data_Mg9B17
_symmetry_space_group_name_H-M   'P 1'
_cell_length_a   5.34638500
_cell_length_b   4.66300634
_cell_length_c   40.95627300
_cell_angle_alpha   88.82665242
_cell_angle_beta   90.00000000
_cell_angle_gamma   55.02096071
_symmetry_Int_Tables_number   1
_chemical_formula_structural   Mg9B17
_chemical_formula_sum   'Mg18 B34'
_cell_volume   836.34741397
_cell_formula_units_Z   2
loop_
 _symmetry_equiv_pos_site_id
 _symmetry_equiv_pos_as_xyz
  1  'x, y, z'
loop_
 _atom_site_type_symbol
 _atom_site_label
 _atom_site_symmetry_multiplicity
 _atom_site_fract_x
 _atom_site_fract_y
 _atom_site_fract_z
 _atom_site_occupancy
  Mg  Mg0  1  0.68965500  0.87069000  0.21839100  1
  Mg  Mg1  1  0.27586200  0.69827600  0.25287400  1
  Mg  Mg2  1  0.86206900  0.52586200  0.28735600  1
  Mg  Mg3  1  0.44827600  0.35344800  0.32183900  1
  Mg  Mg4  1  0.03448300  0.18103400  0.35632200  1
  Mg  Mg5  1  0.62069000  0.00862100  0.39080500  1
  Mg  Mg6  1  0.20689700  0.83620700  0.42528700  1
  Mg  Mg7  1  0.79310300  0.66379300  0.45977000  1
  Mg  Mg8  1  0.37931000  0.49137900  0.49425300  1
  Mg  Mg9  1  0.96551700  0.31896600  0.52873600  1
  Mg  Mg10  1  0.55172400  0.14655200  0.56321800  1
  Mg  Mg11  1  0.13793100  0.97413800  0.59770100  1
  Mg  Mg12  1  0.72413800  0.80172400  0.63218400  1
  Mg  Mg13  1  0.31034500  0.62931000  0.66666700  1
  Mg  Mg14  1  0.89655200  0.45689700  0.70114900  1
  Mg  Mg15  1  0.48275900  0.28448300  0.73563200  1
  Mg  Mg16  1  0.06896600  0.11206900  0.77011500  1
  Mg  Mg17  1  0.65517200  0.93965500  0.80459800  1
  B  B18  1  0.14942500  0.28448300  0.23563200  1
  B  B19  1  0.81609200  0.28448300  0.23563200  1
  B  B20  1  0.73563200  0.11206900  0.27011500  1
  B  B21  1  0.40229900  0.11206900  0.27011500  1
  B  B22  1  0.32183900  0.93965500  0.30459800  1
  B  B23  1  0.98850600  0.93965500  0.30459800  1
  B  B24  1  0.90804600  0.76724100  0.33908000  1
  B  B25  1  0.57471300  0.76724100  0.33908000  1
  B  B26  1  0.49425300  0.59482800  0.37356300  1
  B  B27  1  0.16092000  0.59482800  0.37356300  1
  B  B28  1  0.08046000  0.42241400  0.40804600  1
  B  B29  1  0.74712600  0.42241400  0.40804600  1
  B  B30  1  0.66666700  0.25000000  0.44252900  1
  B  B31  1  0.33333300  0.25000000  0.44252900  1
  B  B32  1  0.25287400  0.07758600  0.47701100  1
  B  B33  1  0.91954000  0.07758600  0.47701100  1
  B  B34  1  0.83908000  0.90517200  0.51149400  1
  B  B35  1  0.50574700  0.90517200  0.51149400  1
  B  B36  1  0.42528700  0.73275900  0.54597700  1
  B  B37  1  0.09195400  0.73275900  0.54597700  1
  B  B38  1  0.01149400  0.56034500  0.58046000  1
  B  B39  1  0.67816100  0.56034500  0.58046000  1
  B  B40  1  0.59770100  0.38793100  0.61494300  1
  B  B41  1  0.26436800  0.38793100  0.61494300  1
  B  B42  1  0.18390800  0.21551700  0.64942500  1
  B  B43  1  0.85057500  0.21551700  0.64942500  1
  B  B44  1  0.77011500  0.04310300  0.68390800  1
  B  B45  1  0.43678200  0.04310300  0.68390800  1
  B  B46  1  0.35632200  0.87069000  0.71839100  1
  B  B47  1  0.02298900  0.87069000  0.71839100  1
  B  B48  1  0.94252900  0.69827600  0.75287400  1
  B  B49  1  0.60919500  0.69827600  0.75287400  1
  B  B50  1  0.52873600  0.52586200  0.78735600  1
  B  B51  1  0.19540200  0.52586200  0.78735600  1
