# generated using pymatgen
data_Mg137Pd56
_symmetry_space_group_name_H-M   'P 1'
_cell_length_a   11.93708013
_cell_length_b   11.93708005
_cell_length_c   42.77055300
_cell_angle_alpha   94.13972168
_cell_angle_beta   85.86027835
_cell_angle_gamma   100.22975759
_symmetry_Int_Tables_number   1
_chemical_formula_structural   Mg137Pd56
_chemical_formula_sum   'Mg137 Pd56'
_cell_volume   5971.05965499
_cell_formula_units_Z   1
loop_
 _symmetry_equiv_pos_site_id
 _symmetry_equiv_pos_as_xyz
  1  'x, y, z'
loop_
 _atom_site_type_symbol
 _atom_site_label
 _atom_site_symmetry_multiplicity
 _atom_site_fract_x
 _atom_site_fract_y
 _atom_site_fract_z
 _atom_site_occupancy
  Mg  Mg0  1  0.31099000  0.49746000  0.20974400  1
  Mg  Mg1  1  0.79063100  0.01781900  0.22331700  1
  Mg  Mg2  1  0.51995300  0.86314600  0.26198500  1
  Mg  Mg3  1  0.02915800  0.16239200  0.23506100  1
  Mg  Mg4  1  0.54951700  0.64203300  0.22148800  1
  Mg  Mg5  1  0.82019400  0.79670600  0.18282000  1
  Mg  Mg6  1  0.16399900  0.02755100  0.26877100  1
  Mg  Mg7  1  0.68435800  0.50719200  0.25519900  1
  Mg  Mg8  1  0.95503500  0.66186500  0.21653000  1
  Mg  Mg9  1  0.53978500  0.26866500  0.26694300  1
  Mg  Mg10  1  0.65579000  0.15266000  0.18960700  1
  Mg  Mg11  1  0.38511200  0.99798700  0.22827500  1
  Mg  Mg12  1  0.57562100  0.88539500  0.18904300  1
  Mg  Mg13  1  0.04372500  0.41729100  0.21030700  1
  Mg  Mg14  1  0.79996700  0.27800100  0.24513000  1
  Mg  Mg15  1  0.76452700  0.77445700  0.25576200  1
  Mg  Mg16  1  0.29642300  0.24256100  0.23449800  1
  Mg  Mg17  1  0.54018100  0.38185100  0.19967500  1
  Mg  Mg18  1  0.35189200  0.64810800  0.26785700  1
  Mg  Mg19  1  0.17007400  0.82992600  0.22240300  1
  Mg  Mg20  1  0.67462600  0.13382400  0.30065300  1
  Mg  Mg21  1  0.15426700  0.65418300  0.31422600  1
  Mg  Mg22  1  0.88359000  0.49951000  0.35289400  1
  Mg  Mg23  1  0.39279400  0.79875600  0.32597000  1
  Mg  Mg24  1  0.91315300  0.27839700  0.31239800  1
  Mg  Mg25  1  0.18383100  0.43306900  0.27372900  1
  Mg  Mg26  1  0.52763500  0.66391500  0.35968000  1
  Mg  Mg27  1  0.04799400  0.14355600  0.34610800  1
  Mg  Mg28  1  0.31867200  0.29822900  0.30744000  1
  Mg  Mg29  1  0.90342200  0.90502900  0.35785200  1
  Mg  Mg30  1  0.01942600  0.78902400  0.28051600  1
  Mg  Mg31  1  0.74874900  0.63435100  0.31918400  1
  Mg  Mg32  1  0.93925700  0.52175900  0.27995200  1
  Mg  Mg33  1  0.40736100  0.05365500  0.30121600  1
  Mg  Mg34  1  0.16360300  0.91436500  0.33603900  1
  Mg  Mg35  1  0.12816300  0.41082100  0.34667100  1
  Mg  Mg36  1  0.66005900  0.87892500  0.32540700  1
  Mg  Mg37  1  0.90381700  0.01821500  0.29058400  1
  Mg  Mg38  1  0.71552800  0.28447200  0.35876600  1
  Mg  Mg39  1  0.53371000  0.46629000  0.31331200  1
  Mg  Mg40  1  0.03826300  0.77018800  0.39156200  1
  Mg  Mg41  1  0.51790400  0.29054700  0.40513500  1
  Mg  Mg42  1  0.24722600  0.13587400  0.44380300  1
  Mg  Mg43  1  0.75643100  0.43511900  0.41687900  1
  Mg  Mg44  1  0.27679000  0.91476000  0.40330700  1
  Mg  Mg45  1  0.54746700  0.06943300  0.36463800  1
  Mg  Mg46  1  0.89127200  0.30027800  0.45058900  1
  Mg  Mg47  1  0.41163100  0.77991900  0.43701700  1
  Mg  Mg48  1  0.68230800  0.93459200  0.39834900  1
  Mg  Mg49  1  0.26705800  0.54139200  0.44876100  1
  Mg  Mg50  1  0.38306300  0.42538800  0.37142500  1
  Mg  Mg51  1  0.11238500  0.27071500  0.41009300  1
  Mg  Mg52  1  0.30289400  0.15812300  0.37086200  1
  Mg  Mg53  1  0.77099800  0.69001900  0.39212500  1
  Mg  Mg54  1  0.52724000  0.55072800  0.42694800  1
  Mg  Mg55  1  0.49180000  0.04718400  0.43758000  1
  Mg  Mg56  1  0.02369600  0.51528800  0.41631600  1
  Mg  Mg57  1  0.26745400  0.65457900  0.38149400  1
  Mg  Mg58  1  0.07916500  0.92083500  0.44967500  1
  Mg  Mg59  1  0.89734700  0.10265300  0.40422100  1
  Mg  Mg60  1  0.40189900  0.40655100  0.48247100  1
  Mg  Mg61  1  0.88154000  0.92691000  0.49604400  1
  Mg  Mg62  1  0.61086200  0.77223700  0.53471200  1
  Mg  Mg63  1  0.12006700  0.07148300  0.50778800  1
  Mg  Mg64  1  0.64042600  0.55112400  0.49421600  1
  Mg  Mg65  1  0.91110400  0.70579700  0.45554700  1
  Mg  Mg66  1  0.25490800  0.93664200  0.54149900  1
  Mg  Mg67  1  0.77526700  0.41628300  0.52792600  1
  Mg  Mg68  1  0.04594400  0.57095600  0.48925800  1
  Mg  Mg69  1  0.63069400  0.17775600  0.53967000  1
  Mg  Mg70  1  0.74669900  0.06175100  0.46233400  1
  Mg  Mg71  1  0.47602100  0.90707800  0.50100200  1
  Mg  Mg72  1  0.66653000  0.79448600  0.46177100  1
  Mg  Mg73  1  0.13463400  0.32638200  0.48303500  1
  Mg  Mg74  1  0.89087600  0.18709200  0.51785700  1
  Mg  Mg75  1  0.85543600  0.68354800  0.52848900  1
  Mg  Mg76  1  0.38733200  0.15165200  0.50722500  1
  Mg  Mg77  1  0.63109000  0.29094200  0.47240300  1
  Mg  Mg78  1  0.44280100  0.55719900  0.54058400  1
  Mg  Mg79  1  0.26098300  0.73901700  0.49513000  1
  Mg  Mg80  1  0.76553500  0.04291500  0.57338000  1
  Mg  Mg81  1  0.24517600  0.56327400  0.58695300  1
  Mg  Mg82  1  0.97449900  0.40860100  0.62562100  1
  Mg  Mg83  1  0.48370300  0.70784600  0.59869700  1
  Mg  Mg84  1  0.00406200  0.18748700  0.58512500  1
  Mg  Mg85  1  0.27474000  0.34216000  0.54645700  1
  Mg  Mg86  1  0.61854400  0.57300600  0.63240800  1
  Mg  Mg87  1  0.13890300  0.05264700  0.61883500  1
  Mg  Mg88  1  0.40958100  0.20731900  0.58016700  1
  Mg  Mg89  1  0.99433100  0.81411900  0.63057900  1
  Mg  Mg90  1  0.11033500  0.69811500  0.55324300  1
  Mg  Mg91  1  0.83965800  0.54344200  0.59191100  1
  Mg  Mg92  1  0.03016600  0.43085000  0.55268000  1
  Mg  Mg93  1  0.49827000  0.96274600  0.57394400  1
  Mg  Mg94  1  0.25451200  0.82345600  0.60876600  1
  Mg  Mg95  1  0.21907200  0.31991200  0.61939800  1
  Mg  Mg96  1  0.75096800  0.78801600  0.59813400  1
  Mg  Mg97  1  0.99472600  0.92730600  0.56331200  1
  Mg  Mg98  1  0.80643700  0.19356300  0.63149400  1
  Mg  Mg99  1  0.62461900  0.37538100  0.58603900  1
  Mg  Mg100  1  0.12917200  0.67927900  0.66429000  1
  Mg  Mg101  1  0.60881300  0.19963800  0.67786200  1
  Mg  Mg102  1  0.33813500  0.04496500  0.71653000  1
  Mg  Mg103  1  0.84734000  0.34421000  0.68960700  1
  Mg  Mg104  1  0.36769900  0.82385100  0.67603400  1
  Mg  Mg105  1  0.63837600  0.97852400  0.63736600  1
  Mg  Mg106  1  0.98218100  0.20936900  0.72331700  1
  Mg  Mg107  1  0.50254000  0.68901000  0.70974400  1
  Mg  Mg108  1  0.77321700  0.84368300  0.67107600  1
  Mg  Mg109  1  0.35796700  0.45048300  0.72148800  1
  Mg  Mg110  1  0.47397200  0.33447800  0.64415200  1
  Mg  Mg111  1  0.20329400  0.17980600  0.68282000  1
  Mg  Mg112  1  0.39380300  0.06721300  0.64358900  1
  Mg  Mg113  1  0.86190700  0.59910900  0.66485300  1
  Mg  Mg114  1  0.61814900  0.45981900  0.69967500  1
  Mg  Mg115  1  0.58270900  0.95627500  0.71030700  1
  Mg  Mg116  1  0.11460500  0.42437900  0.68904300  1
  Mg  Mg117  1  0.35836300  0.56366900  0.65422100  1
  Mg  Mg118  1  0.17007400  0.82992600  0.72240300  1
  Mg  Mg119  1  0.98825600  0.01174400  0.67694800  1
  Mg  Mg120  1  0.49280800  0.31564200  0.75519900  1
  Mg  Mg121  1  0.97244900  0.83600100  0.76877100  1
  Mg  Mg122  1  0.70177100  0.68132800  0.80744000  1
  Mg  Mg123  1  0.21097600  0.98057400  0.78051600  1
  Mg  Mg124  1  0.73133500  0.46021500  0.76694300  1
  Mg  Mg125  1  0.00201300  0.61488800  0.72827500  1
  Mg  Mg126  1  0.86617600  0.32537400  0.80065300  1
  Mg  Mg127  1  0.13685400  0.48004700  0.76198500  1
  Mg  Mg128  1  0.83760800  0.97084200  0.73506100  1
  Mg  Mg129  1  0.56693100  0.81616900  0.77372900  1
  Mg  Mg130  1  0.75743900  0.70357700  0.73449800  1
  Mg  Mg131  1  0.22554300  0.23547300  0.75576200  1
  Mg  Mg132  1  0.98178500  0.09618300  0.79058400  1
  Mg  Mg133  1  0.94634500  0.59263900  0.80121600  1
  Mg  Mg134  1  0.47824100  0.06074300  0.77995200  1
  Mg  Mg135  1  0.72199900  0.20003300  0.74513000  1
  Mg  Mg136  1  0.35189200  0.64810800  0.76785700  1
  Pd  Pd137  1  0.90867200  0.21590500  0.18819600  1
  Pd  Pd138  1  0.37423400  0.75034200  0.21115400  1
  Pd  Pd139  1  0.13640600  0.61444000  0.24513000  1
  Pd  Pd140  1  0.43147600  0.44394700  0.25660900  1
  Pd  Pd141  1  0.96591300  0.90951000  0.23365100  1
  Pd  Pd142  1  0.20374100  0.04541200  0.19967500  1
  Pd  Pd143  1  0.59431600  0.07235000  0.24513000  1
  Pd  Pd144  1  0.74583100  0.58750200  0.19967500  1
  Pd  Pd145  1  0.27230800  0.85226900  0.27910500  1
  Pd  Pd146  1  0.73787100  0.38670600  0.30206400  1
  Pd  Pd147  1  0.50004300  0.25080400  0.33603900  1
  Pd  Pd148  1  0.79511200  0.08031100  0.34751800  1
  Pd  Pd149  1  0.32955000  0.54587400  0.32456000  1
  Pd  Pd150  1  0.56737800  0.68177500  0.29058400  1
  Pd  Pd151  1  0.95795300  0.70871400  0.33603900  1
  Pd  Pd152  1  0.10946800  0.22386600  0.29058400  1
  Pd  Pd153  1  0.63594400  0.48863200  0.37001400  1
  Pd  Pd154  1  0.10150700  0.02306900  0.39297300  1
  Pd  Pd155  1  0.86367900  0.88716800  0.42694800  1
  Pd  Pd156  1  0.15874900  0.71667500  0.43842700  1
  Pd  Pd157  1  0.69318600  0.18223700  0.41546900  1
  Pd  Pd158  1  0.93101400  0.31813900  0.38149400  1
  Pd  Pd159  1  0.32158900  0.34507800  0.42694800  1
  Pd  Pd160  1  0.47310400  0.86022900  0.38149400  1
  Pd  Pd161  1  0.99958100  0.12499600  0.46092300  1
  Pd  Pd162  1  0.46514300  0.65943300  0.48388200  1
  Pd  Pd163  1  0.22731500  0.52353100  0.51785700  1
  Pd  Pd164  1  0.52238500  0.35303800  0.52933600  1
  Pd  Pd165  1  0.05682200  0.81860100  0.50637800  1
  Pd  Pd166  1  0.29465000  0.95450300  0.47240300  1
  Pd  Pd167  1  0.68522500  0.98144100  0.51785700  1
  Pd  Pd168  1  0.83674100  0.49659300  0.47240300  1
  Pd  Pd169  1  0.36321700  0.76135900  0.55183300  1
  Pd  Pd170  1  0.82878000  0.29579700  0.57479100  1
  Pd  Pd171  1  0.59095200  0.15989500  0.60876600  1
  Pd  Pd172  1  0.88602100  0.98940200  0.62024500  1
  Pd  Pd173  1  0.42045900  0.45496500  0.59728700  1
  Pd  Pd174  1  0.65828700  0.59086600  0.56331200  1
  Pd  Pd175  1  0.04886200  0.61780500  0.60876600  1
  Pd  Pd176  1  0.20037700  0.13295600  0.56331200  1
  Pd  Pd177  1  0.72685400  0.39772300  0.64274200  1
  Pd  Pd178  1  0.19241600  0.93216000  0.66570000  1
  Pd  Pd179  1  0.95458800  0.79625900  0.69967500  1
  Pd  Pd180  1  0.24965800  0.62576600  0.71115400  1
  Pd  Pd181  1  0.78409500  0.09132800  0.68819600  1
  Pd  Pd182  1  0.02192300  0.22723000  0.65422100  1
  Pd  Pd183  1  0.41249800  0.25416900  0.69967500  1
  Pd  Pd184  1  0.56401300  0.76932000  0.65422100  1
  Pd  Pd185  1  0.09049000  0.03408700  0.73365100  1
  Pd  Pd186  1  0.55605300  0.56852400  0.75660900  1
  Pd  Pd187  1  0.31822500  0.43262200  0.79058400  1
  Pd  Pd188  1  0.61329400  0.26212900  0.80206400  1
  Pd  Pd189  1  0.14773100  0.72769200  0.77910500  1
  Pd  Pd190  1  0.38556000  0.86359400  0.74513000  1
  Pd  Pd191  1  0.77613400  0.89053200  0.79058400  1
  Pd  Pd192  1  0.92765000  0.40568400  0.74513000  1
