# generated using pymatgen
data_MgZn3
_symmetry_space_group_name_H-M   'P 1'
_cell_length_a   4.57917500
_cell_length_b   5.75474300
_cell_length_c   49.83753800
_cell_angle_alpha   90.00000000
_cell_angle_beta   90.00000000
_cell_angle_gamma   90.00000000
_symmetry_Int_Tables_number   1
_chemical_formula_structural   MgZn3
_chemical_formula_sum   'Mg12 Zn36'
_cell_volume   1313.31756924
_cell_formula_units_Z   12
loop_
 _symmetry_equiv_pos_site_id
 _symmetry_equiv_pos_as_xyz
  1  'x, y, z'
loop_
 _atom_site_type_symbol
 _atom_site_label
 _atom_site_symmetry_multiplicity
 _atom_site_fract_x
 _atom_site_fract_y
 _atom_site_fract_z
 _atom_site_occupancy
  Mg  Mg0  1  0.25000000  0.50000000  0.23333300  1
  Mg  Mg1  1  0.75000000  0.00000000  0.26666700  1
  Mg  Mg2  1  0.25000000  0.00000000  0.33333300  1
  Mg  Mg3  1  0.75000000  0.50000000  0.36666700  1
  Mg  Mg4  1  0.25000000  0.50000000  0.43333300  1
  Mg  Mg5  1  0.75000000  0.00000000  0.46666700  1
  Mg  Mg6  1  0.25000000  0.00000000  0.53333300  1
  Mg  Mg7  1  0.75000000  0.50000000  0.56666700  1
  Mg  Mg8  1  0.25000000  0.50000000  0.63333300  1
  Mg  Mg9  1  0.75000000  0.00000000  0.66666700  1
  Mg  Mg10  1  0.25000000  0.00000000  0.73333300  1
  Mg  Mg11  1  0.75000000  0.50000000  0.76666700  1
  Zn  Zn12  1  0.25000000  0.74040500  0.28397300  1
  Zn  Zn13  1  0.25000000  0.00000000  0.23205400  1
  Zn  Zn14  1  0.25000000  0.25959500  0.28397300  1
  Zn  Zn15  1  0.75000000  0.50000000  0.26794600  1
  Zn  Zn16  1  0.75000000  0.24040500  0.21602700  1
  Zn  Zn17  1  0.75000000  0.75959500  0.21602700  1
  Zn  Zn18  1  0.25000000  0.24040500  0.38397300  1
  Zn  Zn19  1  0.25000000  0.50000000  0.33205400  1
  Zn  Zn20  1  0.25000000  0.75959500  0.38397300  1
  Zn  Zn21  1  0.75000000  1.00000000  0.36794600  1
  Zn  Zn22  1  0.75000000  0.74040500  0.31602700  1
  Zn  Zn23  1  0.75000000  0.25959500  0.31602700  1
  Zn  Zn24  1  0.25000000  0.74040500  0.48397300  1
  Zn  Zn25  1  0.25000000  0.00000000  0.43205400  1
  Zn  Zn26  1  0.25000000  0.25959500  0.48397300  1
  Zn  Zn27  1  0.75000000  0.50000000  0.46794600  1
  Zn  Zn28  1  0.75000000  0.24040500  0.41602700  1
  Zn  Zn29  1  0.75000000  0.75959500  0.41602700  1
  Zn  Zn30  1  0.25000000  0.24040500  0.58397300  1
  Zn  Zn31  1  0.25000000  0.50000000  0.53205400  1
  Zn  Zn32  1  0.25000000  0.75959500  0.58397300  1
  Zn  Zn33  1  0.75000000  0.00000000  0.56794600  1
  Zn  Zn34  1  0.75000000  0.74040500  0.51602700  1
  Zn  Zn35  1  0.75000000  0.25959500  0.51602700  1
  Zn  Zn36  1  0.25000000  0.74040500  0.68397300  1
  Zn  Zn37  1  0.25000000  0.00000000  0.63205400  1
  Zn  Zn38  1  0.25000000  0.25959500  0.68397300  1
  Zn  Zn39  1  0.75000000  0.50000000  0.66794600  1
  Zn  Zn40  1  0.75000000  0.24040500  0.61602700  1
  Zn  Zn41  1  0.75000000  0.75959500  0.61602700  1
  Zn  Zn42  1  0.25000000  0.24040500  0.78397300  1
  Zn  Zn43  1  0.25000000  0.50000000  0.73205400  1
  Zn  Zn44  1  0.25000000  0.75959500  0.78397300  1
  Zn  Zn45  1  0.75000000  0.00000000  0.76794600  1
  Zn  Zn46  1  0.75000000  0.74040500  0.71602700  1
  Zn  Zn47  1  0.75000000  0.25959500  0.71602700  1
