# generated using pymatgen
data_Mg11Pt5
_symmetry_space_group_name_H-M   'P 1'
_cell_length_a   5.33237400
_cell_length_b   5.33237405
_cell_length_c   45.15508500
_cell_angle_alpha   90.00000000
_cell_angle_beta   90.00000000
_cell_angle_gamma   115.73280348
_symmetry_Int_Tables_number   1
_chemical_formula_structural   Mg11Pt5
_chemical_formula_sum   'Mg22 Pt10'
_cell_volume   1156.61823228
_cell_formula_units_Z   2
loop_
 _symmetry_equiv_pos_site_id
 _symmetry_equiv_pos_as_xyz
  1  'x, y, z'
loop_
 _atom_site_type_symbol
 _atom_site_label
 _atom_site_symmetry_multiplicity
 _atom_site_fract_x
 _atom_site_fract_y
 _atom_site_fract_z
 _atom_site_occupancy
  Mg  Mg0  1  0.27492000  0.72508000  0.21666700  1
  Mg  Mg1  1  0.09164000  0.90836000  0.28001100  1
  Mg  Mg2  1  0.90836000  0.09164000  0.21666700  1
  Mg  Mg3  1  0.59164000  0.40836000  0.25332300  1
  Mg  Mg4  1  0.77492000  0.22508000  0.31666700  1
  Mg  Mg5  1  0.59164000  0.40836000  0.38001100  1
  Mg  Mg6  1  0.40836000  0.59164000  0.31666700  1
  Mg  Mg7  1  0.09164000  0.90836000  0.35332300  1
  Mg  Mg8  1  0.27492000  0.72508000  0.41666700  1
  Mg  Mg9  1  0.09164000  0.90836000  0.48001100  1
  Mg  Mg10  1  0.90836000  0.09164000  0.41666700  1
  Mg  Mg11  1  0.59164000  0.40836000  0.45332300  1
  Mg  Mg12  1  0.77492000  0.22508000  0.51666700  1
  Mg  Mg13  1  0.59164000  0.40836000  0.58001100  1
  Mg  Mg14  1  0.40836000  0.59164000  0.51666700  1
  Mg  Mg15  1  0.09164000  0.90836000  0.55332300  1
  Mg  Mg16  1  0.27492000  0.72508000  0.61666700  1
  Mg  Mg17  1  0.09164000  0.90836000  0.68001100  1
  Mg  Mg18  1  0.90836000  0.09164000  0.61666700  1
  Mg  Mg19  1  0.59164000  0.40836000  0.65332300  1
  Mg  Mg20  1  0.77492000  0.22508000  0.71666700  1
  Mg  Mg21  1  0.40836000  0.59164000  0.71666700  1
  Pt  Pt22  1  0.09164000  0.40836000  0.26666700  1
  Pt  Pt23  1  0.59164000  0.90836000  0.26666700  1
  Pt  Pt24  1  0.59164000  0.90836000  0.36666700  1
  Pt  Pt25  1  0.09164000  0.40836000  0.36666700  1
  Pt  Pt26  1  0.09164000  0.40836000  0.46666700  1
  Pt  Pt27  1  0.59164000  0.90836000  0.46666700  1
  Pt  Pt28  1  0.59164000  0.90836000  0.56666700  1
  Pt  Pt29  1  0.09164000  0.40836000  0.56666700  1
  Pt  Pt30  1  0.09164000  0.40836000  0.66666700  1
  Pt  Pt31  1  0.59164000  0.90836000  0.66666700  1
