# generated using pymatgen
data_Mg10Be117
_symmetry_space_group_name_H-M   'P 1'
_cell_length_a   7.13400264
_cell_length_b   7.13400270
_cell_length_c   46.78078400
_cell_angle_alpha   85.62699019
_cell_angle_beta   85.62699015
_cell_angle_gamma   60.00000065
_symmetry_Int_Tables_number   1
_chemical_formula_structural   Mg10Be117
_chemical_formula_sum   'Mg10 Be117'
_cell_volume   2053.87870868
_cell_formula_units_Z   1
loop_
 _symmetry_equiv_pos_site_id
 _symmetry_equiv_pos_as_xyz
  1  'x, y, z'
loop_
 _atom_site_type_symbol
 _atom_site_label
 _atom_site_symmetry_multiplicity
 _atom_site_fract_x
 _atom_site_fract_y
 _atom_site_fract_z
 _atom_site_occupancy
  Mg  Mg0  1  0.67451400  0.30012300  0.81026800  1
  Mg  Mg1  1  0.36201400  0.98762300  0.74776800  1
  Mg  Mg2  1  0.04951400  0.67512300  0.68526800  1
  Mg  Mg3  1  0.73701400  0.36262300  0.62276800  1
  Mg  Mg4  1  0.42451400  0.05012300  0.56026800  1
  Mg  Mg5  1  0.11201400  0.73762300  0.49776800  1
  Mg  Mg6  1  0.79951400  0.42512300  0.43526800  1
  Mg  Mg7  1  0.48701400  0.11262300  0.37276800  1
  Mg  Mg8  1  0.17451400  0.80012300  0.31026800  1
  Mg  Mg9  1  0.86201400  0.48762300  0.24776800  1
  Be  Be10  1  0.01826400  0.64387300  0.77901800  1
  Be  Be11  1  0.70576400  0.33137300  0.71651800  1
  Be  Be12  1  0.83665100  0.68740100  0.74269500  1
  Be  Be13  1  0.37429300  0.77475900  0.80519500  1
  Be  Be14  1  0.43972300  0.29047300  0.70833800  1
  Be  Be15  1  0.66486400  0.64649400  0.70833800  1
  Be  Be16  1  0.74666400  0.01625100  0.72469800  1
  Be  Be17  1  0.50517200  0.99990100  0.80519500  1
  Be  Be18  1  0.39064300  0.59741400  0.72469800  1
  Be  Be19  1  0.06179300  0.81828000  0.74269500  1
  Be  Be20  1  0.19267200  0.46225900  0.74269500  1
  Be  Be21  1  0.33338500  0.60297300  0.77083800  1
  Be  Be22  1  0.34973600  0.84446500  0.69034100  1
  Be  Be23  1  0.28430600  0.32875100  0.78719800  1
  Be  Be24  1  0.21885700  0.20048600  0.69034100  1
  Be  Be25  1  0.75222300  0.95899400  0.77083800  1
  Be  Be26  1  0.70314300  0.68477200  0.78719800  1
  Be  Be27  1  0.14915100  0.13078000  0.80519500  1
  Be  Be28  1  0.97180600  0.37227200  0.72469800  1
  Be  Be29  1  0.02088500  0.06533100  0.70833800  1
  Be  Be30  1  0.53135700  0.28784400  0.75284100  1
  Be  Be31  1  0.66223600  0.51298600  0.75284100  1
  Be  Be32  1  0.88737700  0.15696500  0.75284100  1
  Be  Be33  1  0.97736400  0.37783100  0.77083800  1
  Be  Be34  1  0.57487700  0.97534400  0.69034100  1
  Be  Be35  1  0.05916400  0.90991400  0.78719800  1
  Be  Be36  1  0.39326400  0.01887300  0.65401800  1
  Be  Be37  1  0.08076400  0.70637300  0.59151800  1
  Be  Be38  1  0.21165100  0.06240100  0.61769500  1
  Be  Be39  1  0.74929300  0.14975900  0.68019500  1
  Be  Be40  1  0.81472300  0.66547300  0.58333800  1
  Be  Be41  1  0.03986400  0.02149400  0.58333800  1
  Be  Be42  1  0.12166400  0.39125100  0.59969800  1
  Be  Be43  1  0.88017200  0.37490100  0.68019500  1
  Be  Be44  1  0.76564300  0.97241400  0.59969800  1
  Be  Be45  1  0.43679300  0.19328000  0.61769500  1
  Be  Be46  1  0.56767200  0.83725900  0.61769500  1
  Be  Be47  1  0.70838500  0.97797300  0.64583800  1
  Be  Be48  1  0.72473600  0.21946500  0.56534100  1
  Be  Be49  1  0.65930600  0.70375100  0.66219800  1
  Be  Be50  1  0.59385700  0.57548600  0.56534100  1
  Be  Be51  1  0.12722300  0.33399400  0.64583800  1
  Be  Be52  1  0.07814300  0.05977200  0.66219800  1
  Be  Be53  1  0.52415100  0.50578000  0.68019500  1
  Be  Be54  1  0.34680600  0.74727200  0.59969800  1
  Be  Be55  1  0.39588500  0.44033100  0.58333800  1
  Be  Be56  1  0.90635700  0.66284400  0.62784100  1
  Be  Be57  1  0.03723600  0.88798600  0.62784100  1
  Be  Be58  1  0.26237700  0.53196500  0.62784100  1
  Be  Be59  1  0.35236400  0.75283100  0.64583800  1
  Be  Be60  1  0.94987700  0.35034400  0.56534100  1
  Be  Be61  1  0.43416400  0.28491400  0.66219800  1
  Be  Be62  1  0.76826400  0.39387300  0.52901800  1
  Be  Be63  1  0.45576400  0.08137300  0.46651800  1
  Be  Be64  1  0.58665100  0.43740100  0.49269500  1
  Be  Be65  1  0.12429300  0.52475900  0.55519500  1
  Be  Be66  1  0.18972300  0.04047300  0.45833800  1
  Be  Be67  1  0.41486400  0.39649400  0.45833800  1
  Be  Be68  1  0.49666400  0.76625100  0.47469800  1
  Be  Be69  1  0.25517200  0.74990100  0.55519500  1
  Be  Be70  1  0.14064300  0.34741400  0.47469800  1
  Be  Be71  1  0.81179300  0.56828000  0.49269500  1
  Be  Be72  1  0.94267200  0.21225900  0.49269500  1
  Be  Be73  1  0.08338500  0.35297300  0.52083800  1
  Be  Be74  1  0.09973600  0.59446500  0.44034100  1
  Be  Be75  1  0.03430600  0.07875100  0.53719800  1
  Be  Be76  1  0.96885700  0.95048600  0.44034100  1
  Be  Be77  1  0.50222300  0.70899400  0.52083800  1
  Be  Be78  1  0.45314300  0.43477200  0.53719800  1
  Be  Be79  1  0.89915100  0.88078000  0.55519500  1
  Be  Be80  1  0.72180600  0.12227200  0.47469800  1
  Be  Be81  1  0.77088500  0.81533100  0.45833800  1
  Be  Be82  1  0.28135700  0.03784400  0.50284100  1
  Be  Be83  1  0.41223600  0.26298600  0.50284100  1
  Be  Be84  1  0.63737700  0.90696500  0.50284100  1
  Be  Be85  1  0.72736400  0.12783100  0.52083800  1
  Be  Be86  1  0.32487700  0.72534400  0.44034100  1
  Be  Be87  1  0.80916400  0.65991400  0.53719800  1
  Be  Be88  1  0.14326400  0.76887300  0.40401800  1
  Be  Be89  1  0.83076400  0.45637300  0.34151800  1
  Be  Be90  1  0.96165100  0.81240100  0.36769500  1
  Be  Be91  1  0.49929300  0.89975900  0.43019500  1
  Be  Be92  1  0.56472300  0.41547300  0.33333800  1
  Be  Be93  1  0.78986400  0.77149400  0.33333800  1
  Be  Be94  1  0.87166400  0.14125100  0.34969800  1
  Be  Be95  1  0.63017200  0.12490100  0.43019500  1
  Be  Be96  1  0.51564300  0.72241400  0.34969800  1
  Be  Be97  1  0.18679300  0.94328000  0.36769500  1
  Be  Be98  1  0.31767200  0.58725900  0.36769500  1
  Be  Be99  1  0.45838500  0.72797300  0.39583800  1
  Be  Be100  1  0.47473600  0.96946500  0.31534100  1
  Be  Be101  1  0.40930600  0.45375100  0.41219800  1
  Be  Be102  1  0.34385700  0.32548600  0.31534100  1
  Be  Be103  1  0.87722300  0.08399400  0.39583800  1
  Be  Be104  1  0.82814300  0.80977200  0.41219800  1
  Be  Be105  1  0.27415100  0.25578000  0.43019500  1
  Be  Be106  1  0.09680600  0.49727200  0.34969800  1
  Be  Be107  1  0.14588500  0.19033100  0.33333800  1
  Be  Be108  1  0.65635700  0.41284400  0.37784100  1
  Be  Be109  1  0.78723600  0.63798600  0.37784100  1
  Be  Be110  1  0.01237700  0.28196500  0.37784100  1
  Be  Be111  1  0.10236400  0.50283100  0.39583800  1
  Be  Be112  1  0.69987700  0.10034400  0.31534100  1
  Be  Be113  1  0.18416400  0.03491400  0.41219800  1
  Be  Be114  1  0.51826400  0.14387300  0.27901800  1
  Be  Be115  1  0.87429300  0.27475900  0.30519500  1
  Be  Be116  1  0.00517200  0.49990100  0.30519500  1
  Be  Be117  1  0.83338500  0.10297300  0.27083800  1
  Be  Be118  1  0.78430600  0.82875100  0.28719800  1
  Be  Be119  1  0.25222300  0.45899400  0.27083800  1
  Be  Be120  1  0.20314300  0.18477200  0.28719800  1
  Be  Be121  1  0.64915100  0.63078000  0.30519500  1
  Be  Be122  1  0.03135700  0.78784400  0.25284100  1
  Be  Be123  1  0.16223600  0.01298600  0.25284100  1
  Be  Be124  1  0.38737700  0.65696500  0.25284100  1
  Be  Be125  1  0.47736400  0.87783100  0.27083800  1
  Be  Be126  1  0.55916400  0.40991400  0.28719800  1
