# generated using pymatgen
data_Mg2Ir3
_symmetry_space_group_name_H-M   'P 1'
_cell_length_a   5.24707500
_cell_length_b   8.54477426
_cell_length_c   55.75889500
_cell_angle_alpha   88.31672616
_cell_angle_beta   90.00000000
_cell_angle_gamma   90.00000000
_symmetry_Int_Tables_number   1
_chemical_formula_structural   Mg2Ir3
_chemical_formula_sum   'Mg34 Ir51'
_cell_volume   2498.87525280
_cell_formula_units_Z   17
loop_
 _symmetry_equiv_pos_site_id
 _symmetry_equiv_pos_as_xyz
  1  'x, y, z'
loop_
 _atom_site_type_symbol
 _atom_site_label
 _atom_site_symmetry_multiplicity
 _atom_site_fract_x
 _atom_site_fract_y
 _atom_site_fract_z
 _atom_site_occupancy
  Mg  Mg0  1  0.50000000  0.89267800  0.18995500  1
  Mg  Mg1  1  0.00000000  0.04191200  0.21004500  1
  Mg  Mg2  1  0.00000000  0.51884700  0.26514400  1
  Mg  Mg3  1  0.50000000  0.08241000  0.46818900  1
  Mg  Mg4  1  0.50000000  0.53637400  0.18641300  1
  Mg  Mg5  1  0.00000000  0.39821700  0.21358700  1
  Mg  Mg6  1  0.50000000  0.68928200  0.47590000  1
  Mg  Mg7  1  0.00000000  0.91197500  0.25743300  1
  Mg  Mg8  1  0.50000000  0.70953000  0.27632300  1
  Mg  Mg9  1  0.00000000  0.89172700  0.45701100  1
  Mg  Mg10  1  0.00000000  0.72601200  0.35662100  1
  Mg  Mg11  1  0.50000000  0.87524600  0.37671200  1
  Mg  Mg12  1  0.50000000  0.35218000  0.43181100  1
  Mg  Mg13  1  0.00000000  0.24907700  0.30152200  1
  Mg  Mg14  1  0.00000000  0.36970700  0.35308000  1
  Mg  Mg15  1  0.50000000  0.23155000  0.38025300  1
  Mg  Mg16  1  0.00000000  0.85594900  0.30923300  1
  Mg  Mg17  1  0.50000000  0.74530800  0.42410000  1
  Mg  Mg18  1  0.00000000  0.54286400  0.44298900  1
  Mg  Mg19  1  0.50000000  0.05839400  0.29034400  1
  Mg  Mg20  1  0.50000000  0.55934500  0.52328800  1
  Mg  Mg21  1  0.00000000  0.70857900  0.54337900  1
  Mg  Mg22  1  0.00000000  0.18551400  0.59847800  1
  Mg  Mg23  1  0.50000000  0.20304100  0.51974700  1
  Mg  Mg24  1  0.00000000  0.06488300  0.54692000  1
  Mg  Mg25  1  0.00000000  0.57864200  0.59076700  1
  Mg  Mg26  1  0.50000000  0.37619700  0.60965600  1
  Mg  Mg27  1  0.00000000  0.39267800  0.68995500  1
  Mg  Mg28  1  0.50000000  0.54191200  0.71004500  1
  Mg  Mg29  1  0.00000000  0.91574400  0.63485600  1
  Mg  Mg30  1  0.00000000  0.03637400  0.68641300  1
  Mg  Mg31  1  0.50000000  0.89821700  0.71358700  1
  Mg  Mg32  1  1.00000000  0.52261600  0.64256700  1
  Mg  Mg33  1  0.50000000  0.72506000  0.62367700  1
  Ir  Ir34  1  0.00000000  0.64526700  0.49370700  1
  Ir  Ir35  1  0.50000000  0.95599000  0.23962600  1
  Ir  Ir36  1  0.24951300  0.71041500  0.22735200  1
  Ir  Ir37  1  0.25048700  0.22417500  0.17264800  1
  Ir  Ir38  1  0.74951300  0.22417500  0.17264800  1
  Ir  Ir39  1  0.75048700  0.71041500  0.22735200  1
  Ir  Ir40  1  0.00000000  0.21729500  0.45000000  1
  Ir  Ir41  1  0.50000000  0.21292700  0.21134500  1
  Ir  Ir42  1  0.00000000  0.72166400  0.18865500  1
  Ir  Ir43  1  0.50000000  0.46235300  0.23805700  1
  Ir  Ir44  1  0.00000000  0.13890400  0.49527600  1
  Ir  Ir45  1  0.26606200  0.39113200  0.48025600  1
  Ir  Ir46  1  0.23393800  0.21012500  0.25307700  1
  Ir  Ir47  1  0.76606200  0.21012500  0.25307700  1
  Ir  Ir48  1  0.73393800  0.39113200  0.48025600  1
  Ir  Ir49  1  0.50000000  0.81193400  0.32704100  1
  Ir  Ir50  1  0.00000000  0.78932300  0.40629300  1
  Ir  Ir51  1  0.74951300  0.54374900  0.39401900  1
  Ir  Ir52  1  0.75048700  0.05750900  0.33931500  1
  Ir  Ir53  1  0.24951300  0.05750900  0.33931500  1
  Ir  Ir54  1  0.25048700  0.54374900  0.39401900  1
  Ir  Ir55  1  0.50000000  0.38396200  0.28333300  1
  Ir  Ir56  1  0.00000000  0.04626000  0.37801200  1
  Ir  Ir57  1  0.50000000  0.55499700  0.35532100  1
  Ir  Ir58  1  1.00000000  0.29568700  0.40472400  1
  Ir  Ir59  1  0.50000000  0.30557100  0.32860900  1
  Ir  Ir60  1  0.76606200  0.55779900  0.31358900  1
  Ir  Ir61  1  0.73393800  0.04345800  0.41974400  1
  Ir  Ir62  1  0.26606200  0.04345800  0.41974400  1
  Ir  Ir63  1  0.23393800  0.55779900  0.31358900  1
  Ir  Ir64  1  0.50000000  0.62265700  0.57295900  1
  Ir  Ir65  1  0.24951300  0.37708200  0.56068500  1
  Ir  Ir66  1  0.25048700  0.89084200  0.50598100  1
  Ir  Ir67  1  0.74951300  0.89084200  0.50598100  1
  Ir  Ir68  1  0.75048700  0.37708200  0.56068500  1
  Ir  Ir69  1  0.50000000  0.87959400  0.54467900  1
  Ir  Ir70  1  1.00000000  0.38833000  0.52198800  1
  Ir  Ir71  1  0.50000000  0.12902000  0.57139100  1
  Ir  Ir72  1  0.23393800  0.87679200  0.58641100  1
  Ir  Ir73  1  0.76606200  0.87679200  0.58641100  1
  Ir  Ir74  1  0.50000000  0.47860100  0.66037400  1
  Ir  Ir75  1  0.74951300  0.21041500  0.72735200  1
  Ir  Ir76  1  0.75048700  0.72417500  0.67264800  1
  Ir  Ir77  1  0.24951300  0.72417500  0.67264800  1
  Ir  Ir78  1  0.25048700  0.21041500  0.72735200  1
  Ir  Ir79  1  0.50000000  0.05062900  0.61666700  1
  Ir  Ir80  1  0.00000000  0.71292700  0.71134500  1
  Ir  Ir81  1  0.50000000  0.22166400  0.68865500  1
  Ir  Ir82  1  0.50000000  0.97223700  0.66194300  1
  Ir  Ir83  1  0.76606200  0.22446600  0.64692300  1
  Ir  Ir84  1  0.23393800  0.22446600  0.64692300  1
