# generated using pymatgen
data_Mg4Pd13
_symmetry_space_group_name_H-M   'P 1'
_cell_length_a   3.99223937
_cell_length_b   8.37818128
_cell_length_c   42.70095100
_cell_angle_alpha   85.92323921
_cell_angle_beta   87.32064953
_cell_angle_gamma   76.21659808
_symmetry_Int_Tables_number   1
_chemical_formula_structural   Mg4Pd13
_chemical_formula_sum   'Mg12 Pd39'
_cell_volume   1382.95503653
_cell_formula_units_Z   3
loop_
 _symmetry_equiv_pos_site_id
 _symmetry_equiv_pos_as_xyz
  1  'x, y, z'
loop_
 _atom_site_type_symbol
 _atom_site_label
 _atom_site_symmetry_multiplicity
 _atom_site_fract_x
 _atom_site_fract_y
 _atom_site_fract_z
 _atom_site_occupancy
  Mg  Mg0  1  0.17495200  0.88316800  0.76692800  1
  Mg  Mg1  1  0.95002600  0.35551100  0.74443600  1
  Mg  Mg2  1  0.26586100  0.79225900  0.67601900  1
  Mg  Mg3  1  0.04093600  0.26460200  0.65352600  1
  Mg  Mg4  1  0.35677000  0.70135000  0.58511000  1
  Mg  Mg5  1  0.13184500  0.17369300  0.56261700  1
  Mg  Mg6  1  0.44767900  0.61044100  0.49420100  1
  Mg  Mg7  1  0.22275400  0.08278400  0.47170800  1
  Mg  Mg8  1  0.53858800  0.51953200  0.40329200  1
  Mg  Mg9  1  0.31366300  0.99187500  0.38079900  1
  Mg  Mg10  1  0.62949700  0.42862300  0.31238300  1
  Mg  Mg11  1  0.40457200  0.90096600  0.28989000  1
  Pd  Pd12  1  0.56248900  0.11934000  0.75568200  1
  Pd  Pd13  1  0.01703500  0.16479400  0.80113600  1
  Pd  Pd14  1  0.78976200  0.64206700  0.77840900  1
  Pd  Pd15  1  0.33521600  0.59661200  0.73295500  1
  Pd  Pd16  1  0.40361400  0.40297800  0.78979400  1
  Pd  Pd17  1  0.63045600  0.92661000  0.81247800  1
  Pd  Pd18  1  0.65339800  0.02843100  0.66477300  1
  Pd  Pd19  1  0.10794400  0.07388500  0.71022700  1
  Pd  Pd20  1  0.88067100  0.55115800  0.68750000  1
  Pd  Pd21  1  0.42612600  0.50570300  0.64204500  1
  Pd  Pd22  1  0.49452300  0.31206900  0.69888500  1
  Pd  Pd23  1  0.72136500  0.83570100  0.72156900  1
  Pd  Pd24  1  0.74430700  0.93752200  0.57386400  1
  Pd  Pd25  1  0.19885300  0.98297600  0.61931800  1
  Pd  Pd26  1  0.97158000  0.46024900  0.59659100  1
  Pd  Pd27  1  0.51703500  0.41479400  0.55113600  1
  Pd  Pd28  1  0.58543200  0.22116000  0.60797600  1
  Pd  Pd29  1  0.81227400  0.74479200  0.63066000  1
  Pd  Pd30  1  0.83521600  0.84661200  0.48295500  1
  Pd  Pd31  1  0.28976200  0.89206700  0.52840900  1
  Pd  Pd32  1  0.06248900  0.36934000  0.50568200  1
  Pd  Pd33  1  0.60794400  0.32388500  0.46022700  1
  Pd  Pd34  1  0.67634100  0.13025100  0.51706700  1
  Pd  Pd35  1  0.90318300  0.65388300  0.53975100  1
  Pd  Pd36  1  0.92612600  0.75570300  0.39204500  1
  Pd  Pd37  1  0.38067100  0.80115800  0.43750000  1
  Pd  Pd38  1  0.15339800  0.27843100  0.41477300  1
  Pd  Pd39  1  0.69885300  0.23297600  0.36931800  1
  Pd  Pd40  1  0.76725000  0.03934200  0.42615800  1
  Pd  Pd41  1  0.99409200  0.56297400  0.44884200  1
  Pd  Pd42  1  0.01703500  0.66479400  0.30113600  1
  Pd  Pd43  1  0.47158000  0.71024900  0.34659100  1
  Pd  Pd44  1  0.24430700  0.18752200  0.32386400  1
  Pd  Pd45  1  0.78976200  0.14206700  0.27840900  1
  Pd  Pd46  1  0.85815900  0.94843300  0.33524900  1
  Pd  Pd47  1  0.08500100  0.47206500  0.35793300  1
  Pd  Pd48  1  0.56248900  0.61934000  0.25568200  1
  Pd  Pd49  1  0.94906800  0.85752400  0.24434000  1
  Pd  Pd50  1  0.17591000  0.38115600  0.26702400  1
