# generated using pymatgen
data_Mg5P24
_symmetry_space_group_name_H-M   'P 1'
_cell_length_a   5.19237519
_cell_length_b   9.16199237
_cell_length_c   42.38861300
_cell_angle_alpha   92.43695802
_cell_angle_beta   87.58880221
_cell_angle_gamma   97.12465569
_symmetry_Int_Tables_number   1
_chemical_formula_structural   Mg5P24
_chemical_formula_sum   'Mg10 P48'
_cell_volume   1997.77481472
_cell_formula_units_Z   2
loop_
 _symmetry_equiv_pos_site_id
 _symmetry_equiv_pos_as_xyz
  1  'x, y, z'
loop_
 _atom_site_type_symbol
 _atom_site_label
 _atom_site_symmetry_multiplicity
 _atom_site_fract_x
 _atom_site_fract_y
 _atom_site_fract_z
 _atom_site_occupancy
  Mg  Mg0  1  0.90192800  0.70578300  0.29000000  1
  Mg  Mg1  1  0.90192800  0.20578300  0.29000000  1
  Mg  Mg2  1  0.80192800  0.40578300  0.39000000  1
  Mg  Mg3  1  0.80192800  0.90578300  0.39000000  1
  Mg  Mg4  1  0.70192800  0.10578300  0.49000000  1
  Mg  Mg5  1  0.70192800  0.60578300  0.49000000  1
  Mg  Mg6  1  0.60192800  0.80578300  0.59000000  1
  Mg  Mg7  1  0.60192800  0.30578300  0.59000000  1
  Mg  Mg8  1  0.50192800  0.50578300  0.69000000  1
  Mg  Mg9  1  0.50192800  0.00578300  0.69000000  1
  P  P10  1  0.70356500  0.61587700  0.23540900  1
  P  P11  1  0.15873700  0.47102800  0.28614500  1
  P  P12  1  0.20029100  0.09568800  0.24459100  1
  P  P13  1  0.74511800  0.24053800  0.19385500  1
  P  P14  1  0.55415300  0.25358300  0.24088700  1
  P  P15  1  0.32802200  0.89293900  0.26079500  1
  P  P16  1  0.34970300  0.45798300  0.23911300  1
  P  P17  1  0.57583400  0.81862700  0.21920500  1
  P  P18  1  0.60356500  0.31587700  0.33540900  1
  P  P19  1  0.05873700  0.17102800  0.38614500  1
  P  P20  1  0.10029100  0.79568800  0.34459100  1
  P  P21  1  0.64511800  0.94053800  0.29385500  1
  P  P22  1  0.45415300  0.95358300  0.34088700  1
  P  P23  1  0.22802200  0.59293900  0.36079500  1
  P  P24  1  0.24970300  0.15798300  0.33911300  1
  P  P25  1  0.47583400  0.51862700  0.31920500  1
  P  P26  1  0.50356500  0.01587700  0.43540900  1
  P  P27  1  0.95873700  0.87102800  0.48614500  1
  P  P28  1  0.00029100  0.49568800  0.44459100  1
  P  P29  1  0.54511800  0.64053800  0.39385500  1
  P  P30  1  0.35415300  0.65358300  0.44088700  1
  P  P31  1  0.12802200  0.29293900  0.46079500  1
  P  P32  1  0.14970300  0.85798300  0.43911300  1
  P  P33  1  0.37583400  0.21862700  0.41920500  1
  P  P34  1  0.40356500  0.71587700  0.53540900  1
  P  P35  1  0.85873700  0.57102800  0.58614500  1
  P  P36  1  0.90029100  0.19568800  0.54459100  1
  P  P37  1  0.44511800  0.34053800  0.49385500  1
  P  P38  1  0.25415300  0.35358300  0.54088700  1
  P  P39  1  0.02802200  0.99293900  0.56079500  1
  P  P40  1  0.04970300  0.55798300  0.53911300  1
  P  P41  1  0.27583400  0.91862700  0.51920500  1
  P  P42  1  0.30356500  0.41587700  0.63540900  1
  P  P43  1  0.75873700  0.27102800  0.68614500  1
  P  P44  1  0.80029100  0.89568800  0.64459100  1
  P  P45  1  0.34511800  0.04053800  0.59385500  1
  P  P46  1  0.15415300  0.05358300  0.64088700  1
  P  P47  1  0.92802200  0.69293900  0.66079500  1
  P  P48  1  0.94970300  0.25798300  0.63911300  1
  P  P49  1  0.17583400  0.61862700  0.61920500  1
  P  P50  1  0.20356500  0.11587700  0.73540900  1
  P  P51  1  0.65873700  0.97102800  0.78614500  1
  P  P52  1  0.70029100  0.59568800  0.74459100  1
  P  P53  1  0.24511800  0.74053800  0.69385500  1
  P  P54  1  0.05415300  0.75358300  0.74088700  1
  P  P55  1  0.82802200  0.39293900  0.76079500  1
  P  P56  1  0.84970300  0.95798300  0.73911300  1
  P  P57  1  0.07583400  0.31862700  0.71920500  1
