# generated using pymatgen
data_Mg20Zn31
_symmetry_space_group_name_H-M   'P 1'
_cell_length_a   5.07402229
_cell_length_b   14.70723601
_cell_length_c   50.49845100
_cell_angle_alpha   88.21601723
_cell_angle_beta   89.67566990
_cell_angle_gamma   90.29193359
_symmetry_Int_Tables_number   1
_chemical_formula_structural   Mg20Zn31
_chemical_formula_sum   'Mg40 Zn62'
_cell_volume   3766.49971225
_cell_formula_units_Z   2
loop_
 _symmetry_equiv_pos_site_id
 _symmetry_equiv_pos_as_xyz
  1  'x, y, z'
loop_
 _atom_site_type_symbol
 _atom_site_label
 _atom_site_symmetry_multiplicity
 _atom_site_fract_x
 _atom_site_fract_y
 _atom_site_fract_z
 _atom_site_occupancy
  Mg  Mg0  1  0.22342200  0.89979100  0.45593000  1
  Mg  Mg1  1  0.22063400  0.16624400  0.37587300  1
  Mg  Mg2  1  0.72926000  0.41248800  0.49073700  1
  Mg  Mg3  1  0.72681200  0.87691000  0.42221400  1
  Mg  Mg4  1  0.72546300  0.25253500  0.40085200  1
  Mg  Mg5  1  0.22732600  0.72724500  0.50024400  1
  Mg  Mg6  1  0.72308600  0.21544900  0.46354800  1
  Mg  Mg7  1  0.72262800  0.84781000  0.36415000  1
  Mg  Mg8  1  0.22390000  0.09701700  0.48234100  1
  Mg  Mg9  1  0.72397700  0.47218500  0.38551200  1
  Mg  Mg10  1  0.72018000  0.31223200  0.29562700  1
  Mg  Mg11  1  0.22554000  0.62770400  0.30402300  1
  Mg  Mg12  1  0.22331900  0.96085100  0.38978000  1
  Mg  Mg13  1  0.22441700  0.53158800  0.47278300  1
  Mg  Mg14  1  0.22502300  0.19313200  0.31358100  1
  Mg  Mg15  1  0.72635400  0.50927100  0.32281600  1
  Mg  Mg16  1  0.22601900  0.82492900  0.33043300  1
  Mg  Mg17  1  0.22211500  0.99747500  0.28612000  1
  Mg  Mg18  1  0.22880600  0.55847600  0.41049000  1
  Mg  Mg19  1  0.22612100  0.76386900  0.39658400  1
  Mg  Mg20  1  0.72342200  0.64979100  0.70593000  1
  Mg  Mg21  1  0.72063400  0.91624400  0.62587300  1
  Mg  Mg22  1  0.22926000  0.16248800  0.74073700  1
  Mg  Mg23  1  0.22681200  0.62691000  0.67221400  1
  Mg  Mg24  1  0.22546300  0.00253500  0.65085200  1
  Mg  Mg25  1  0.72732600  0.47724500  0.75024400  1
  Mg  Mg26  1  0.22308600  0.96544900  0.71354800  1
  Mg  Mg27  1  0.22262800  0.59781000  0.61415000  1
  Mg  Mg28  1  0.72390000  0.84701700  0.73234100  1
  Mg  Mg29  1  0.22397700  0.22218500  0.63551200  1
  Mg  Mg30  1  0.22018000  0.06223200  0.54562700  1
  Mg  Mg31  1  0.72554000  0.37770400  0.55402300  1
  Mg  Mg32  1  0.72331900  0.71085100  0.63978000  1
  Mg  Mg33  1  0.72441700  0.28158800  0.72278300  1
  Mg  Mg34  1  0.72502300  0.94313200  0.56358100  1
  Mg  Mg35  1  0.22635400  0.25927100  0.57281600  1
  Mg  Mg36  1  0.72601900  0.57492900  0.58043300  1
  Mg  Mg37  1  0.72211500  0.74747500  0.53612000  1
  Mg  Mg38  1  0.72880600  0.30847600  0.66049000  1
  Mg  Mg39  1  0.72612100  0.51386900  0.64658400  1
  Zn  Zn40  1  0.22061900  0.23237200  0.43088100  1
  Zn  Zn41  1  0.72399000  0.05391200  0.38424200  1
  Zn  Zn42  1  0.47411300  0.65023200  0.35699900  1
  Zn  Zn43  1  0.96987700  0.33023700  0.34854100  1
  Zn  Zn44  1  0.47176800  0.07673100  0.42834200  1
  Zn  Zn45  1  0.22882100  0.49234800  0.35548300  1
  Zn  Zn46  1  0.72552600  0.09319600  0.29944000  1
  Zn  Zn47  1  0.97315300  0.39450200  0.43791700  1
  Zn  Zn48  1  0.72384500  0.81386700  0.47847900  1
  Zn  Zn49  1  0.22513600  0.31169700  0.47744600  1
  Zn  Zn50  1  0.73022900  0.54694200  0.44097700  1
  Zn  Zn51  1  0.72545000  0.67080800  0.40212100  1
  Zn  Zn52  1  0.72391400  0.63152400  0.48692400  1
  Zn  Zn53  1  0.98387300  0.70977700  0.44610800  1
  Zn  Zn54  1  0.47628700  0.33021800  0.34844600  1
  Zn  Zn55  1  0.97767200  0.64798900  0.35802200  1
  Zn  Zn56  1  0.22430400  0.41302300  0.30891700  1
  Zn  Zn57  1  0.46556700  0.01494300  0.34025600  1
  Zn  Zn58  1  0.47956300  0.39448300  0.43782300  1
  Zn  Zn59  1  0.71917000  0.00210400  0.46890100  1
  Zn  Zn60  1  0.47047300  0.71225600  0.44544700  1
  Zn  Zn61  1  0.73027000  0.72261600  0.31746300  1
  Zn  Zn62  1  0.97896700  0.01246400  0.34091600  1
  Zn  Zn63  1  0.71921100  0.17777800  0.34538700  1
  Zn  Zn64  1  0.97532800  0.07448800  0.42936500  1
  Zn  Zn65  1  0.22472000  0.36236000  0.39318200  1
  Zn  Zn66  1  0.72559500  0.91085300  0.30788500  1
  Zn  Zn67  1  0.72061900  0.98237200  0.68088100  1
  Zn  Zn68  1  0.22399000  0.80391200  0.63424200  1
  Zn  Zn69  1  0.72823300  0.07790500  0.51478500  1
  Zn  Zn70  1  0.97411300  0.40023200  0.60699900  1
  Zn  Zn71  1  0.46987700  0.08023700  0.59854100  1
  Zn  Zn72  1  0.97176800  0.82673100  0.67834200  1
  Zn  Zn73  1  0.47472000  0.23736000  0.51818200  1
  Zn  Zn74  1  0.72882100  0.24234800  0.60548300  1
  Zn  Zn75  1  0.22552600  0.84319600  0.54944000  1
  Zn  Zn76  1  0.47315300  0.14450200  0.68791700  1
  Zn  Zn77  1  0.47131100  0.92060200  0.51046300  1
  Zn  Zn78  1  0.22384500  0.56386700  0.72847900  1
  Zn  Zn79  1  0.72513600  0.06169700  0.72744600  1
  Zn  Zn80  1  0.23022900  0.29694200  0.69097700  1
  Zn  Zn81  1  0.22545000  0.42080800  0.65212100  1
  Zn  Zn82  1  0.22391400  0.38152400  0.73692400  1
  Zn  Zn83  1  0.48387300  0.45977700  0.69610800  1
  Zn  Zn84  1  0.97628700  0.08021800  0.59844600  1
  Zn  Zn85  1  0.47767200  0.39798900  0.60802200  1
  Zn  Zn86  1  0.72430400  0.16302300  0.55891700  1
  Zn  Zn87  1  0.96556700  0.76494300  0.59025600  1
  Zn  Zn88  1  0.97956300  0.14448300  0.68782300  1
  Zn  Zn89  1  0.97472000  0.23736000  0.51818200  1
  Zn  Zn90  1  0.21917000  0.75210400  0.71890100  1
  Zn  Zn91  1  0.97537400  0.91970000  0.51084000  1
  Zn  Zn92  1  0.97047300  0.46225600  0.69544700  1
  Zn  Zn93  1  0.23027000  0.47261600  0.56746300  1
  Zn  Zn94  1  0.47896700  0.76246400  0.59091600  1
  Zn  Zn95  1  0.21921100  0.92777800  0.59538700  1
  Zn  Zn96  1  0.97406600  0.55502000  0.52552400  1
  Zn  Zn97  1  0.47532800  0.82448800  0.67936500  1
  Zn  Zn98  1  0.72472000  0.11236000  0.64318200  1
  Zn  Zn99  1  0.47812900  0.55411800  0.52590000  1
  Zn  Zn100  1  0.22559500  0.66085300  0.55788500  1
  Zn  Zn101  1  0.22120700  0.39681500  0.52157900  1
