# generated using pymatgen
data_MgPd2
_symmetry_space_group_name_H-M   'P 1'
_cell_length_a   6.94548400
_cell_length_b   8.17953600
_cell_length_c   43.48413300
_cell_angle_alpha   90.00000000
_cell_angle_beta   87.55073761
_cell_angle_gamma   90.00000000
_symmetry_Int_Tables_number   1
_chemical_formula_structural   MgPd2
_chemical_formula_sum   'Mg30 Pd60'
_cell_volume   2468.11317673
_cell_formula_units_Z   30
loop_
 _symmetry_equiv_pos_site_id
 _symmetry_equiv_pos_as_xyz
  1  'x, y, z'
loop_
 _atom_site_type_symbol
 _atom_site_label
 _atom_site_symmetry_multiplicity
 _atom_site_fract_x
 _atom_site_fract_y
 _atom_site_fract_z
 _atom_site_occupancy
  Mg  Mg0  1  0.51162500  0.59827400  0.25626100  1
  Mg  Mg1  1  0.91145200  0.40172600  0.24373900  1
  Mg  Mg2  1  0.20393300  0.90172600  0.21779900  1
  Mg  Mg3  1  0.60375900  0.09827400  0.20527800  1
  Mg  Mg4  1  0.12701000  0.59827400  0.33318400  1
  Mg  Mg5  1  0.52683600  0.40172600  0.32066200  1
  Mg  Mg6  1  0.81931700  0.90172600  0.29472200  1
  Mg  Mg7  1  0.21914400  0.09827400  0.28220100  1
  Mg  Mg8  1  0.74239400  0.59827400  0.41010700  1
  Mg  Mg9  1  0.14222100  0.40172600  0.39758500  1
  Mg  Mg10  1  0.43470200  0.90172600  0.37164500  1
  Mg  Mg11  1  0.83452900  0.09827400  0.35912400  1
  Mg  Mg12  1  0.35777900  0.59827400  0.48703000  1
  Mg  Mg13  1  0.75760600  0.40172600  0.47450800  1
  Mg  Mg14  1  0.05008700  0.90172600  0.44856900  1
  Mg  Mg15  1  0.44991300  0.09827400  0.43604700  1
  Mg  Mg16  1  0.97316400  0.59827400  0.56395300  1
  Mg  Mg17  1  0.37299000  0.40172600  0.55143100  1
  Mg  Mg18  1  0.66547100  0.90172600  0.52549200  1
  Mg  Mg19  1  0.06529800  0.09827400  0.51297000  1
  Mg  Mg20  1  0.58854800  0.59827400  0.64087600  1
  Mg  Mg21  1  0.98837500  0.40172600  0.62835500  1
  Mg  Mg22  1  0.28085600  0.90172600  0.60241500  1
  Mg  Mg23  1  0.68068300  0.09827400  0.58989300  1
  Mg  Mg24  1  0.20393300  0.59827400  0.71779900  1
  Mg  Mg25  1  0.60375900  0.40172600  0.70527800  1
  Mg  Mg26  1  0.89624100  0.90172600  0.67933800  1
  Mg  Mg27  1  0.29606700  0.09827400  0.66681600  1
  Mg  Mg28  1  0.51162500  0.90172600  0.75626100  1
  Mg  Mg29  1  0.91145200  0.09827400  0.74373900  1
  Pd  Pd30  1  0.51760000  0.92737900  0.25700800  1
  Pd  Pd31  1  0.90547700  0.07262100  0.24299200  1
  Pd  Pd32  1  0.20990800  0.57262100  0.21854600  1
  Pd  Pd33  1  0.59778400  0.42737900  0.20453100  1
  Pd  Pd34  1  0.57349300  0.26411300  0.26399400  1
  Pd  Pd35  1  0.84958400  0.73588700  0.23600600  1
  Pd  Pd36  1  0.26580000  0.23588700  0.22553300  1
  Pd  Pd37  1  0.54189200  0.76411300  0.19754400  1
  Pd  Pd38  1  0.13298500  0.92737900  0.33393100  1
  Pd  Pd39  1  0.52086100  0.07262100  0.31991500  1
  Pd  Pd40  1  0.82529300  0.57262100  0.29546900  1
  Pd  Pd41  1  0.21316900  0.42737900  0.28145400  1
  Pd  Pd42  1  0.18887700  0.26411300  0.34091700  1
  Pd  Pd43  1  0.46496900  0.73588700  0.31292900  1
  Pd  Pd44  1  0.88118500  0.23588700  0.30245600  1
  Pd  Pd45  1  0.15727600  0.76411300  0.27446700  1
  Pd  Pd46  1  0.74837000  0.92737900  0.41085400  1
  Pd  Pd47  1  0.13624600  0.07262100  0.39683800  1
  Pd  Pd48  1  0.44067700  0.57262100  0.37239200  1
  Pd  Pd49  1  0.82855400  0.42737900  0.35837700  1
  Pd  Pd50  1  0.80426200  0.26411300  0.41784000  1
  Pd  Pd51  1  0.08035300  0.73588700  0.38985200  1
  Pd  Pd52  1  0.49657000  0.23588700  0.37937900  1
  Pd  Pd53  1  0.77266100  0.76411300  0.35139000  1
  Pd  Pd54  1  0.36375400  0.92737900  0.48777700  1
  Pd  Pd55  1  0.75163000  0.07262100  0.47376100  1
  Pd  Pd56  1  0.05606200  0.57262100  0.44931500  1
  Pd  Pd57  1  0.44393800  0.42737900  0.43530000  1
  Pd  Pd58  1  0.41964700  0.26411300  0.49476400  1
  Pd  Pd59  1  0.69573800  0.73588700  0.46677500  1
  Pd  Pd60  1  0.11195400  0.23588700  0.45630200  1
  Pd  Pd61  1  0.38804600  0.76411300  0.42831300  1
  Pd  Pd62  1  0.97913900  0.92737900  0.56470000  1
  Pd  Pd63  1  0.36701500  0.07262100  0.55068500  1
  Pd  Pd64  1  0.67144600  0.57262100  0.52623900  1
  Pd  Pd65  1  0.05932300  0.42737900  0.51222300  1
  Pd  Pd66  1  0.03503100  0.26411300  0.57168700  1
  Pd  Pd67  1  0.31112300  0.73588700  0.54369800  1
  Pd  Pd68  1  0.72733900  0.23588700  0.53322500  1
  Pd  Pd69  1  0.00343000  0.76411300  0.50523600  1
  Pd  Pd70  1  0.59452300  0.92737900  0.64162300  1
  Pd  Pd71  1  0.98240000  0.07262100  0.62760800  1
  Pd  Pd72  1  0.28683100  0.57262100  0.60316200  1
  Pd  Pd73  1  0.67470700  0.42737900  0.58914600  1
  Pd  Pd74  1  0.65041600  0.26411300  0.64861000  1
  Pd  Pd75  1  0.92650700  0.73588700  0.62062100  1
  Pd  Pd76  1  0.34272400  0.23588700  0.61014800  1
  Pd  Pd77  1  0.61881500  0.76411300  0.58216000  1
  Pd  Pd78  1  0.20990800  0.92737900  0.71854600  1
  Pd  Pd79  1  0.59778400  0.07262100  0.70453100  1
  Pd  Pd80  1  0.90221600  0.57262100  0.68008500  1
  Pd  Pd81  1  0.29009200  0.42737900  0.66606900  1
  Pd  Pd82  1  0.26580000  0.26411300  0.72553300  1
  Pd  Pd83  1  0.54189200  0.73588700  0.69754400  1
  Pd  Pd84  1  0.95810800  0.23588700  0.68707100  1
  Pd  Pd85  1  0.23420000  0.76411300  0.65908300  1
  Pd  Pd86  1  0.51760000  0.57262100  0.75700800  1
  Pd  Pd87  1  0.90547700  0.42737900  0.74299200  1
  Pd  Pd88  1  0.57349300  0.23588700  0.76399400  1
  Pd  Pd89  1  0.84958400  0.76411300  0.73600600  1
