# generated using pymatgen
data_Ce2Mg27
_symmetry_space_group_name_H-M   'P 1'
_cell_length_a   7.86989906
_cell_length_b   7.86989915
_cell_length_c   41.05208600
_cell_angle_alpha   89.75311460
_cell_angle_beta   89.75311460
_cell_angle_gamma   81.87972292
_symmetry_Int_Tables_number   1
_chemical_formula_structural   Ce2Mg27
_chemical_formula_sum   'Ce4 Mg54'
_cell_volume   2517.04027290
_cell_formula_units_Z   2
loop_
 _symmetry_equiv_pos_site_id
 _symmetry_equiv_pos_as_xyz
  1  'x, y, z'
loop_
 _atom_site_type_symbol
 _atom_site_label
 _atom_site_symmetry_multiplicity
 _atom_site_fract_x
 _atom_site_fract_y
 _atom_site_fract_z
 _atom_site_occupancy
  Ce  Ce0  1  0.17017200  0.17017200  0.72115400  1
  Ce  Ce1  1  0.42017200  0.42017200  0.59615400  1
  Ce  Ce2  1  0.67017200  0.67017200  0.47115400  1
  Ce  Ce3  1  0.92017200  0.92017200  0.34615400  1
  Mg  Mg4  1  0.25775700  0.83258800  0.78365400  1
  Mg  Mg5  1  0.83258800  0.25775700  0.78365400  1
  Mg  Mg6  1  0.88573400  0.88573400  0.75708100  1
  Mg  Mg7  1  0.45461100  0.45461100  0.68522700  1
  Mg  Mg8  1  0.81896700  0.52137800  0.72115400  1
  Mg  Mg9  1  0.52137800  0.81896700  0.72115400  1
  Mg  Mg10  1  0.43357700  0.43357700  0.76505500  1
  Mg  Mg11  1  0.65676800  0.65676800  0.80225300  1
  Mg  Mg12  1  0.54517200  0.04517200  0.78365400  1
  Mg  Mg13  1  0.67017200  0.17017200  0.72115400  1
  Mg  Mg14  1  0.17017200  0.67017200  0.72115400  1
  Mg  Mg15  1  0.04517200  0.54517200  0.78365400  1
  Mg  Mg16  1  0.50775700  0.08258800  0.65865400  1
  Mg  Mg17  1  0.08258800  0.50775700  0.65865400  1
  Mg  Mg18  1  0.13573400  0.13573400  0.63208100  1
  Mg  Mg19  1  0.70461100  0.70461100  0.56022700  1
  Mg  Mg20  1  0.06896700  0.77137800  0.59615400  1
  Mg  Mg21  1  0.77137800  0.06896700  0.59615400  1
  Mg  Mg22  1  0.68357700  0.68357700  0.64005500  1
  Mg  Mg23  1  0.90676800  0.90676800  0.67725300  1
  Mg  Mg24  1  0.79517200  0.29517200  0.65865400  1
  Mg  Mg25  1  0.92017200  0.42017200  0.59615400  1
  Mg  Mg26  1  0.42017200  0.92017200  0.59615400  1
  Mg  Mg27  1  0.29517200  0.79517200  0.65865400  1
  Mg  Mg28  1  0.75775700  0.33258800  0.53365400  1
  Mg  Mg29  1  0.33258800  0.75775700  0.53365400  1
  Mg  Mg30  1  0.38573400  0.38573400  0.50708100  1
  Mg  Mg31  1  0.95461100  0.95461100  0.43522700  1
  Mg  Mg32  1  0.31896700  0.02137800  0.47115400  1
  Mg  Mg33  1  0.02137800  0.31896700  0.47115400  1
  Mg  Mg34  1  0.93357700  0.93357700  0.51505500  1
  Mg  Mg35  1  0.15676800  0.15676800  0.55225300  1
  Mg  Mg36  1  0.04517200  0.54517200  0.53365400  1
  Mg  Mg37  1  0.17017200  0.67017200  0.47115400  1
  Mg  Mg38  1  0.67017200  0.17017200  0.47115400  1
  Mg  Mg39  1  0.54517200  0.04517200  0.53365400  1
  Mg  Mg40  1  0.00775700  0.58258800  0.40865400  1
  Mg  Mg41  1  0.58258800  0.00775700  0.40865400  1
  Mg  Mg42  1  0.63573400  0.63573400  0.38208100  1
  Mg  Mg43  1  0.20461100  0.20461100  0.31022700  1
  Mg  Mg44  1  0.56896700  0.27137800  0.34615400  1
  Mg  Mg45  1  0.27137800  0.56896700  0.34615400  1
  Mg  Mg46  1  0.18357700  0.18357700  0.39005500  1
  Mg  Mg47  1  0.40676800  0.40676800  0.42725300  1
  Mg  Mg48  1  0.29517200  0.79517200  0.40865400  1
  Mg  Mg49  1  0.42017200  0.92017200  0.34615400  1
  Mg  Mg50  1  0.92017200  0.42017200  0.34615400  1
  Mg  Mg51  1  0.79517200  0.29517200  0.40865400  1
  Mg  Mg52  1  0.25775700  0.83258800  0.28365400  1
  Mg  Mg53  1  0.83258800  0.25775700  0.28365400  1
  Mg  Mg54  1  0.43357700  0.43357700  0.26505500  1
  Mg  Mg55  1  0.65676800  0.65676800  0.30225300  1
  Mg  Mg56  1  0.54517200  0.04517200  0.28365400  1
  Mg  Mg57  1  0.04517200  0.54517200  0.28365400  1
