# generated using pymatgen
data_Mg16Ag7
_symmetry_space_group_name_H-M   'P 1'
_cell_length_a   3.33664900
_cell_length_b   5.87374700
_cell_length_c   41.45987800
_cell_angle_alpha   92.10167038
_cell_angle_beta   90.00000000
_cell_angle_gamma   106.50091279
_symmetry_Int_Tables_number   1
_chemical_formula_structural   Mg16Ag7
_chemical_formula_sum   'Mg16 Ag7'
_cell_volume   778.52182693
_cell_formula_units_Z   1
loop_
 _symmetry_equiv_pos_site_id
 _symmetry_equiv_pos_as_xyz
  1  'x, y, z'
loop_
 _atom_site_type_symbol
 _atom_site_label
 _atom_site_symmetry_multiplicity
 _atom_site_fract_x
 _atom_site_fract_y
 _atom_site_fract_z
 _atom_site_occupancy
  Mg  Mg0  1  0.19217600  0.38435200  0.76810400  1
  Mg  Mg1  1  0.91151500  0.82302900  0.74471600  1
  Mg  Mg2  1  0.26909900  0.53819800  0.69118100  1
  Mg  Mg3  1  0.98843800  0.97687500  0.66779300  1
  Mg  Mg4  1  0.34602200  0.69204400  0.61425800  1
  Mg  Mg5  1  0.06536100  0.13072200  0.59087000  1
  Mg  Mg6  1  0.42294500  0.84589000  0.53733500  1
  Mg  Mg7  1  0.14228400  0.28456800  0.51394700  1
  Mg  Mg8  1  0.49986800  0.99973600  0.46041200  1
  Mg  Mg9  1  0.21920700  0.43841400  0.43702400  1
  Mg  Mg10  1  0.57679100  0.15358200  0.38348900  1
  Mg  Mg11  1  0.29613000  0.59226000  0.36010100  1
  Mg  Mg12  1  0.65371400  0.30742800  0.30656600  1
  Mg  Mg13  1  0.37305300  0.74610600  0.28317800  1
  Mg  Mg14  1  0.73063700  0.46127500  0.22964300  1
  Mg  Mg15  1  0.44997600  0.89995200  0.20625500  1
  Ag  Ag16  1  0.59030700  0.18061300  0.71794900  1
  Ag  Ag17  1  0.66723000  0.33446000  0.64102600  1
  Ag  Ag18  1  0.74415300  0.48830600  0.56410300  1
  Ag  Ag19  1  0.82107600  0.64215200  0.48717900  1
  Ag  Ag20  1  0.89799900  0.79599800  0.41025600  1
  Ag  Ag21  1  0.97492200  0.94984400  0.33333300  1
  Ag  Ag22  1  0.05184500  0.10369000  0.25641000  1
