# generated using pymatgen
data_Mg7B47
_symmetry_space_group_name_H-M   'P 1'
_cell_length_a   5.97250318
_cell_length_b   7.26364858
_cell_length_c   45.01062000
_cell_angle_alpha   86.50256948
_cell_angle_beta   86.19588580
_cell_angle_gamma   65.72461627
_symmetry_Int_Tables_number   1
_chemical_formula_structural   Mg7B47
_chemical_formula_sum   'Mg14 B94'
_cell_volume   1774.86073170
_cell_formula_units_Z   2
loop_
 _symmetry_equiv_pos_site_id
 _symmetry_equiv_pos_as_xyz
  1  'x, y, z'
loop_
 _atom_site_type_symbol
 _atom_site_label
 _atom_site_symmetry_multiplicity
 _atom_site_fract_x
 _atom_site_fract_y
 _atom_site_fract_z
 _atom_site_occupancy
  Mg  Mg0  1  0.33602600  0.15830600  0.66964300  1
  Mg  Mg1  1  0.83602600  0.15830600  0.66964300  1
  Mg  Mg2  1  0.76459700  0.44402000  0.52678600  1
  Mg  Mg3  1  0.26459700  0.44402000  0.52678600  1
  Mg  Mg4  1  0.25117400  0.88305800  0.61459300  1
  Mg  Mg5  1  0.84944900  0.71926700  0.58183500  1
  Mg  Mg6  1  0.19316900  0.72973400  0.38392900  1
  Mg  Mg7  1  0.69316900  0.72973400  0.38392900  1
  Mg  Mg8  1  0.67974600  0.16877200  0.47173600  1
  Mg  Mg9  1  0.27802000  0.00498200  0.43897800  1
  Mg  Mg10  1  0.62174000  0.01544800  0.24107100  1
  Mg  Mg11  1  0.12174000  0.01544800  0.24107100  1
  Mg  Mg12  1  0.10831700  0.45448700  0.32887900  1
  Mg  Mg13  1  0.70659200  0.29069600  0.29612100  1
  B  B14  1  0.71342400  0.89007400  0.68307800  1
  B  B15  1  0.20634200  0.92127900  0.66603700  1
  B  B16  1  0.75154400  0.85448600  0.64242600  1
  B  B17  1  0.52577200  0.79032200  0.66491200  1
  B  B18  1  0.01899400  0.79032200  0.66491200  1
  B  B19  1  0.65305800  0.52628900  0.67437300  1
  B  B20  1  0.14628000  0.52628900  0.67437300  1
  B  B21  1  0.92050800  0.46212500  0.69686000  1
  B  B22  1  0.46571000  0.39533200  0.67324900  1
  B  B23  1  0.95862700  0.42653700  0.65620800  1
  B  B24  1  0.08120100  0.20284600  0.63475200  1
  B  B25  1  0.32901100  0.23303400  0.61572200  1
  B  B26  1  0.82223300  0.23303400  0.61572200  1
  B  B27  1  0.57886000  0.28101500  0.56126600  1
  B  B28  1  0.65569500  0.07014600  0.61846400  1
  B  B29  1  0.50115800  0.10260700  0.58396100  1
  B  B30  1  0.81227400  0.10260700  0.58396100  1
  B  B31  1  0.14199600  0.17578800  0.54022100  1
  B  B32  1  0.63491300  0.20699400  0.52318000  1
  B  B33  1  0.18011500  0.14020000  0.49956900  1
  B  B34  1  0.95434300  0.07603600  0.52205500  1
  B  B35  1  0.44756500  0.07603600  0.52205500  1
  B  B36  1  0.07537200  0.97891700  0.55922300  1
  B  B37  1  0.38648800  0.97891700  0.55922300  1
  B  B38  1  0.71413500  0.62340900  0.63720500  1
  B  B39  1  0.02525100  0.62340900  0.63720500  1
  B  B40  1  0.08162900  0.81200300  0.53151600  1
  B  B41  1  0.57485100  0.81200300  0.53151600  1
  B  B42  1  0.34907900  0.74784000  0.55400300  1
  B  B43  1  0.89428100  0.68104600  0.53039200  1
  B  B44  1  0.38719900  0.71225200  0.51335100  1
  B  B45  1  0.28834900  0.49971900  0.61246700  1
  B  B46  1  0.59946500  0.49971900  0.61246700  1
  B  B47  1  0.44492800  0.53218000  0.57796500  1
  B  B48  1  0.52176300  0.32131100  0.63516300  1
  B  B49  1  0.27839000  0.36929100  0.58070600  1
  B  B50  1  0.77161200  0.36929100  0.58070600  1
  B  B51  1  0.01942200  0.39947900  0.56167700  1
  B  B52  1  0.50977200  0.48856100  0.49189500  1
  B  B53  1  0.75758200  0.51874800  0.47286500  1
  B  B54  1  0.25080400  0.51874800  0.47286500  1
  B  B55  1  0.00743100  0.56672900  0.41840900  1
  B  B56  1  0.08426700  0.35586000  0.47560700  1
  B  B57  1  0.92972900  0.38832100  0.44110400  1
  B  B58  1  0.24084600  0.38832100  0.44110400  1
  B  B59  1  0.57056700  0.46150300  0.39736300  1
  B  B60  1  0.06348500  0.49270800  0.38032300  1
  B  B61  1  0.60868700  0.42591500  0.35671200  1
  B  B62  1  0.38291500  0.36175100  0.37919800  1
  B  B63  1  0.87613700  0.36175100  0.37919800  1
  B  B64  1  0.50394300  0.26463100  0.41636600  1
  B  B65  1  0.81506000  0.26463100  0.41636600  1
  B  B66  1  0.14270600  0.90912300  0.49434800  1
  B  B67  1  0.45382300  0.90912300  0.49434800  1
  B  B68  1  0.51020100  0.09771800  0.38865900  1
  B  B69  1  0.00342300  0.09771800  0.38865900  1
  B  B70  1  0.77765000  0.03355400  0.41114500  1
  B  B71  1  0.32285300  0.96676000  0.38753500  1
  B  B72  1  0.81577000  0.99796600  0.37049400  1
  B  B73  1  0.71692000  0.78543300  0.46961000  1
  B  B74  1  0.02803700  0.78543300  0.46961000  1
  B  B75  1  0.87349900  0.81789400  0.43510800  1
  B  B76  1  0.95033500  0.60702500  0.49230500  1
  B  B77  1  0.70696200  0.65500600  0.43784900  1
  B  B78  1  0.20018400  0.65500600  0.43784900  1
  B  B79  1  0.44799300  0.68519300  0.41882000  1
  B  B80  1  0.93834400  0.77427500  0.34903700  1
  B  B81  1  0.18615400  0.80446300  0.33000800  1
  B  B82  1  0.67937600  0.80446300  0.33000800  1
  B  B83  1  0.43600200  0.85244300  0.27555200  1
  B  B84  1  0.51283800  0.64157400  0.33275000  1
  B  B85  1  0.35830100  0.67403500  0.29824700  1
  B  B86  1  0.66941700  0.67403500  0.29824700  1
  B  B87  1  0.99913800  0.74721700  0.25450600  1
  B  B88  1  0.49205600  0.77842200  0.23746500  1
  B  B89  1  0.03725800  0.71162900  0.21385500  1
  B  B90  1  0.81148600  0.64746500  0.23634100  1
  B  B91  1  0.30470800  0.64746500  0.23634100  1
  B  B92  1  0.93251500  0.55034500  0.27350900  1
  B  B93  1  0.24363100  0.55034500  0.27350900  1
  B  B94  1  0.57127700  0.19483700  0.35149100  1
  B  B95  1  0.88239400  0.19483700  0.35149100  1
  B  B96  1  0.93877200  0.38343200  0.24580200  1
  B  B97  1  0.43199400  0.38343200  0.24580200  1
  B  B98  1  0.20622200  0.31926800  0.26828800  1
  B  B99  1  0.75142400  0.25247500  0.24467700  1
  B  B100  1  0.24434200  0.28368000  0.22763700  1
  B  B101  1  0.14549100  0.07114700  0.32675300  1
  B  B102  1  0.45660800  0.07114700  0.32675300  1
  B  B103  1  0.30207100  0.10360800  0.29225000  1
  B  B104  1  0.37890600  0.89273900  0.34944800  1
  B  B105  1  0.13553300  0.94072000  0.29499200  1
  B  B106  1  0.62875500  0.94072000  0.29499200  1
  B  B107  1  0.87656500  0.97090800  0.27596300  1
