# generated using pymatgen
data_Mg11Hg5
_symmetry_space_group_name_H-M   'P 1'
_cell_length_a   4.75496500
_cell_length_b   6.40514000
_cell_length_c   43.06560200
_cell_angle_alpha   90.00000000
_cell_angle_beta   90.00000000
_cell_angle_gamma   90.00000000
_symmetry_Int_Tables_number   1
_chemical_formula_structural   Mg11Hg5
_chemical_formula_sum   'Mg22 Hg10'
_cell_volume   1311.61529908
_cell_formula_units_Z   2
loop_
 _symmetry_equiv_pos_site_id
 _symmetry_equiv_pos_as_xyz
  1  'x, y, z'
loop_
 _atom_site_type_symbol
 _atom_site_label
 _atom_site_symmetry_multiplicity
 _atom_site_fract_x
 _atom_site_fract_y
 _atom_site_fract_z
 _atom_site_occupancy
  Mg  Mg0  1  0.25000000  0.46739600  0.20895800  1
  Mg  Mg1  1  0.75000000  0.53260400  0.32437500  1
  Mg  Mg2  1  0.25000000  0.96739600  0.22437500  1
  Mg  Mg3  1  0.75000000  0.03260400  0.30895800  1
  Mg  Mg4  1  0.75000000  0.67749800  0.25427100  1
  Mg  Mg5  1  0.25000000  0.32250200  0.27906300  1
  Mg  Mg6  1  0.75000000  0.17749800  0.37906300  1
  Mg  Mg7  1  0.25000000  0.82250200  0.35427100  1
  Mg  Mg8  1  0.25000000  0.46739600  0.40895800  1
  Mg  Mg9  1  0.75000000  0.53260400  0.52437500  1
  Mg  Mg10  1  0.25000000  0.96739600  0.42437500  1
  Mg  Mg11  1  0.75000000  0.03260400  0.50895800  1
  Mg  Mg12  1  0.75000000  0.67749800  0.45427100  1
  Mg  Mg13  1  0.25000000  0.32250200  0.47906300  1
  Mg  Mg14  1  0.75000000  0.17749800  0.57906300  1
  Mg  Mg15  1  0.25000000  0.82250200  0.55427100  1
  Mg  Mg16  1  0.25000000  0.46739600  0.60895800  1
  Mg  Mg17  1  0.75000000  0.53260400  0.72437500  1
  Mg  Mg18  1  0.25000000  0.96739600  0.62437500  1
  Mg  Mg19  1  0.75000000  0.03260400  0.70895800  1
  Mg  Mg20  1  0.75000000  0.67749800  0.65427100  1
  Mg  Mg21  1  0.25000000  0.32250200  0.67906300  1
  Hg  Hg22  1  0.25000000  0.27973800  0.34497400  1
  Hg  Hg23  1  0.75000000  0.72026200  0.38835900  1
  Hg  Hg24  1  0.25000000  0.77973800  0.28835900  1
  Hg  Hg25  1  0.75000000  0.22026200  0.24497400  1
  Hg  Hg26  1  0.25000000  0.27973800  0.54497400  1
  Hg  Hg27  1  0.75000000  0.72026200  0.58835900  1
  Hg  Hg28  1  0.25000000  0.77973800  0.48835900  1
  Hg  Hg29  1  0.75000000  0.22026200  0.44497400  1
  Hg  Hg30  1  0.25000000  0.77973800  0.68835900  1
  Hg  Hg31  1  0.75000000  0.22026200  0.64497400  1
