# generated using pymatgen
data_Sr5Mg6
_symmetry_space_group_name_H-M   'P 1'
_cell_length_a   4.17414100
_cell_length_b   4.17414100
_cell_length_c   41.74141200
_cell_angle_alpha   90.00000000
_cell_angle_beta   90.00000000
_cell_angle_gamma   90.00000000
_symmetry_Int_Tables_number   1
_chemical_formula_structural   Sr5Mg6
_chemical_formula_sum   'Sr5 Mg6'
_cell_volume   727.27953380
_cell_formula_units_Z   1
loop_
 _symmetry_equiv_pos_site_id
 _symmetry_equiv_pos_as_xyz
  1  'x, y, z'
loop_
 _atom_site_type_symbol
 _atom_site_label
 _atom_site_symmetry_multiplicity
 _atom_site_fract_x
 _atom_site_fract_y
 _atom_site_fract_z
 _atom_site_occupancy
  Sr  Sr0  1  0.50000000  0.50000000  0.32500000  1
  Sr  Sr1  1  0.50000000  0.50000000  0.42500000  1
  Sr  Sr2  1  0.50000000  0.50000000  0.52500000  1
  Sr  Sr3  1  0.50000000  0.50000000  0.62500000  1
  Sr  Sr4  1  0.50000000  0.50000000  0.72500000  1
  Mg  Mg5  1  0.00000000  0.00000000  0.27500000  1
  Mg  Mg6  1  0.00000000  0.00000000  0.37500000  1
  Mg  Mg7  1  0.00000000  0.00000000  0.47500000  1
  Mg  Mg8  1  0.00000000  0.00000000  0.57500000  1
  Mg  Mg9  1  0.00000000  0.00000000  0.67500000  1
  Mg  Mg10  1  0.00000000  0.00000000  0.77500000  1
