# generated using pymatgen
data_Ho2Mg
_symmetry_space_group_name_H-M   'P 1'
_cell_length_a   3.67361200
_cell_length_b   17.91934624
_cell_length_c   41.80471200
_cell_angle_alpha   96.38806847
_cell_angle_beta   90.00000000
_cell_angle_gamma   90.00000000
_symmetry_Int_Tables_number   1
_chemical_formula_structural   Ho2Mg
_chemical_formula_sum   'Ho40 Mg20'
_cell_volume   2734.86434684
_cell_formula_units_Z   20
loop_
 _symmetry_equiv_pos_site_id
 _symmetry_equiv_pos_as_xyz
  1  'x, y, z'
loop_
 _atom_site_type_symbol
 _atom_site_label
 _atom_site_symmetry_multiplicity
 _atom_site_fract_x
 _atom_site_fract_y
 _atom_site_fract_z
 _atom_site_occupancy
  Ho  Ho0  1  0.00000000  0.98114400  0.26162200  1
  Ho  Ho1  1  0.50000000  0.82391400  0.28408400  1
  Ho  Ho2  1  0.50000000  0.64385600  0.23837800  1
  Ho  Ho3  1  0.00000000  0.80108600  0.21591600  1
  Ho  Ho4  1  0.50000000  0.41864400  0.19912200  1
  Ho  Ho5  1  0.00000000  0.26141400  0.22158400  1
  Ho  Ho6  1  0.00000000  0.20635600  0.30087800  1
  Ho  Ho7  1  0.50000000  0.36358600  0.27841600  1
  Ho  Ho8  1  0.00000000  0.10614400  0.38662200  1
  Ho  Ho9  1  0.50000000  0.94891400  0.40908400  1
  Ho  Ho10  1  0.50000000  0.76885600  0.36337800  1
  Ho  Ho11  1  0.00000000  0.92608600  0.34091600  1
  Ho  Ho12  1  0.50000000  0.54364400  0.32412200  1
  Ho  Ho13  1  0.00000000  0.38641400  0.34658400  1
  Ho  Ho14  1  0.00000000  0.33135600  0.42587800  1
  Ho  Ho15  1  0.50000000  0.48858600  0.40341600  1
  Ho  Ho16  1  0.00000000  0.23114400  0.51162200  1
  Ho  Ho17  1  0.50000000  0.07391400  0.53408400  1
  Ho  Ho18  1  0.50000000  0.89385600  0.48837800  1
  Ho  Ho19  1  0.00000000  0.05108600  0.46591600  1
  Ho  Ho20  1  0.50000000  0.66864400  0.44912200  1
  Ho  Ho21  1  0.00000000  0.51141400  0.47158400  1
  Ho  Ho22  1  0.00000000  0.45635600  0.55087800  1
  Ho  Ho23  1  0.50000000  0.61358600  0.52841600  1
  Ho  Ho24  1  0.00000000  0.35614400  0.63662200  1
  Ho  Ho25  1  0.50000000  0.19891400  0.65908400  1
  Ho  Ho26  1  0.50000000  0.01885600  0.61337800  1
  Ho  Ho27  1  0.00000000  0.17608600  0.59091600  1
  Ho  Ho28  1  0.50000000  0.79364400  0.57412200  1
  Ho  Ho29  1  0.00000000  0.63641400  0.59658400  1
  Ho  Ho30  1  0.00000000  0.58135600  0.67587800  1
  Ho  Ho31  1  0.50000000  0.73858600  0.65341600  1
  Ho  Ho32  1  1.00000000  0.48114400  0.76162200  1
  Ho  Ho33  1  0.50000000  0.32391400  0.78408400  1
  Ho  Ho34  1  0.50000000  0.14385600  0.73837800  1
  Ho  Ho35  1  0.00000000  0.30108600  0.71591600  1
  Ho  Ho36  1  0.50000000  0.91864400  0.69912200  1
  Ho  Ho37  1  0.00000000  0.76141400  0.72158400  1
  Ho  Ho38  1  0.00000000  0.70635600  0.80087800  1
  Ho  Ho39  1  0.50000000  0.86358600  0.77841600  1
  Mg  Mg40  1  0.00000000  0.68290900  0.30422700  1
  Mg  Mg41  1  0.50000000  0.94209100  0.19577300  1
  Mg  Mg42  1  0.50000000  0.12040900  0.24172700  1
  Mg  Mg43  1  0.00000000  0.50459100  0.25827300  1
  Mg  Mg44  1  0.00000000  0.80790900  0.42922700  1
  Mg  Mg45  1  0.50000000  0.06709100  0.32077300  1
  Mg  Mg46  1  0.50000000  0.24540900  0.36672700  1
  Mg  Mg47  1  0.00000000  0.62959100  0.38327300  1
  Mg  Mg48  1  0.00000000  0.93290900  0.55422700  1
  Mg  Mg49  1  0.50000000  0.19209100  0.44577300  1
  Mg  Mg50  1  0.50000000  0.37040900  0.49172700  1
  Mg  Mg51  1  0.00000000  0.75459100  0.50827300  1
  Mg  Mg52  1  0.00000000  0.05790900  0.67922700  1
  Mg  Mg53  1  0.50000000  0.31709100  0.57077300  1
  Mg  Mg54  1  0.50000000  0.49540900  0.61672700  1
  Mg  Mg55  1  0.00000000  0.87959100  0.63327300  1
  Mg  Mg56  1  0.00000000  0.18290900  0.80422700  1
  Mg  Mg57  1  0.50000000  0.44209100  0.69577300  1
  Mg  Mg58  1  0.50000000  0.62040900  0.74172700  1
  Mg  Mg59  1  0.00000000  0.00459100  0.75827300  1
