# generated using pymatgen
data_Mg26Hg15
_symmetry_space_group_name_H-M   'P 1'
_cell_length_a   8.30244900
_cell_length_b   10.23075567
_cell_length_c   45.97526500
_cell_angle_alpha   89.07002719
_cell_angle_beta   90.00000000
_cell_angle_gamma   66.06127792
_symmetry_Int_Tables_number   1
_chemical_formula_structural   Mg26Hg15
_chemical_formula_sum   'Mg52 Hg30'
_cell_volume   3568.66965593
_cell_formula_units_Z   2
loop_
 _symmetry_equiv_pos_site_id
 _symmetry_equiv_pos_as_xyz
  1  'x, y, z'
loop_
 _atom_site_type_symbol
 _atom_site_label
 _atom_site_symmetry_multiplicity
 _atom_site_fract_x
 _atom_site_fract_y
 _atom_site_fract_z
 _atom_site_occupancy
  Mg  Mg0  1  0.06251400  0.12290300  0.29354300  1
  Mg  Mg1  1  0.56582400  0.62042100  0.29395700  1
  Mg  Mg2  1  0.01210000  0.47166200  0.31875000  1
  Mg  Mg3  1  0.71375500  0.82042100  0.34395700  1
  Mg  Mg4  1  0.86251400  0.52290300  0.39354300  1
  Mg  Mg5  1  0.36582400  0.02042100  0.39395700  1
  Mg  Mg6  1  0.71458300  0.32290300  0.34354300  1
  Mg  Mg7  1  0.41623800  0.67166200  0.36875000  1
  Mg  Mg8  1  0.11416900  0.77166200  0.31041700  1
  Mg  Mg9  1  0.41416900  0.17166200  0.32708300  1
  Mg  Mg10  1  0.31416900  0.37166200  0.37708300  1
  Mg  Mg11  1  0.01416900  0.97166200  0.36041700  1
  Mg  Mg12  1  0.81210000  0.87166200  0.41875000  1
  Mg  Mg13  1  0.51375500  0.22042100  0.44395700  1
  Mg  Mg14  1  0.66251400  0.92290300  0.49354300  1
  Mg  Mg15  1  0.16582400  0.42042100  0.49395700  1
  Mg  Mg16  1  0.51458300  0.72290300  0.44354300  1
  Mg  Mg17  1  0.21623800  0.07166200  0.46875000  1
  Mg  Mg18  1  0.91416900  0.17166200  0.41041700  1
  Mg  Mg19  1  0.21416900  0.57166200  0.42708300  1
  Mg  Mg20  1  0.11416900  0.77166200  0.47708300  1
  Mg  Mg21  1  0.81416900  0.37166200  0.46041700  1
  Mg  Mg22  1  0.61210000  0.27166200  0.51875000  1
  Mg  Mg23  1  0.31375500  0.62042100  0.54395700  1
  Mg  Mg24  1  0.46251400  0.32290300  0.59354300  1
  Mg  Mg25  1  0.96582400  0.82042100  0.59395700  1
  Mg  Mg26  1  0.31458300  0.12290300  0.54354300  1
  Mg  Mg27  1  0.01623800  0.47166200  0.56875000  1
  Mg  Mg28  1  0.71416900  0.57166200  0.51041700  1
  Mg  Mg29  1  0.01416900  0.97166200  0.52708300  1
  Mg  Mg30  1  0.91416900  0.17166200  0.57708300  1
  Mg  Mg31  1  0.61416900  0.77166200  0.56041700  1
  Mg  Mg32  1  0.41210000  0.67166200  0.61875000  1
  Mg  Mg33  1  0.11375500  0.02042100  0.64395700  1
  Mg  Mg34  1  0.26251400  0.72290300  0.69354300  1
  Mg  Mg35  1  0.76582400  0.22042100  0.69395700  1
  Mg  Mg36  1  0.11458300  0.52290300  0.64354300  1
  Mg  Mg37  1  0.81623800  0.87166200  0.66875000  1
  Mg  Mg38  1  0.51416900  0.97166200  0.61041700  1
  Mg  Mg39  1  0.81416900  0.37166200  0.62708300  1
  Mg  Mg40  1  0.71416900  0.57166200  0.67708300  1
  Mg  Mg41  1  0.41416900  0.17166200  0.66041700  1
  Mg  Mg42  1  0.21210000  0.07166200  0.71875000  1
  Mg  Mg43  1  0.91375500  0.42042100  0.74395700  1
  Mg  Mg44  1  0.06251400  0.12290300  0.79354300  1
  Mg  Mg45  1  0.56582400  0.62042100  0.79395700  1
  Mg  Mg46  1  0.91458300  0.92290300  0.74354300  1
  Mg  Mg47  1  0.61623800  0.27166200  0.76875000  1
  Mg  Mg48  1  0.31416900  0.37166200  0.71041700  1
  Mg  Mg49  1  0.61416900  0.77166200  0.72708300  1
  Mg  Mg50  1  0.51416900  0.97166200  0.77708300  1
  Mg  Mg51  1  0.21416900  0.57166200  0.76041700  1
  Hg  Hg52  1  0.37454800  0.47166200  0.31875000  1
  Hg  Hg53  1  0.78624500  0.03788900  0.30771200  1
  Hg  Hg54  1  0.35247200  0.90543500  0.32978800  1
  Hg  Hg55  1  0.07586600  0.23788900  0.35771200  1
  Hg  Hg56  1  0.64209300  0.10543500  0.37978800  1
  Hg  Hg57  1  0.05379000  0.67166200  0.36875000  1
  Hg  Hg58  1  0.17454800  0.87166200  0.41875000  1
  Hg  Hg59  1  0.58624500  0.43788900  0.40771200  1
  Hg  Hg60  1  0.15247200  0.30543500  0.42978800  1
  Hg  Hg61  1  0.87586600  0.63788900  0.45771200  1
  Hg  Hg62  1  0.44209300  0.50543500  0.47978800  1
  Hg  Hg63  1  0.85379000  0.07166200  0.46875000  1
  Hg  Hg64  1  0.97454800  0.27166200  0.51875000  1
  Hg  Hg65  1  0.38624500  0.83788900  0.50771200  1
  Hg  Hg66  1  0.95247200  0.70543500  0.52978800  1
  Hg  Hg67  1  0.67586600  0.03788900  0.55771200  1
  Hg  Hg68  1  0.24209300  0.90543500  0.57978800  1
  Hg  Hg69  1  0.65379000  0.47166200  0.56875000  1
  Hg  Hg70  1  0.77454800  0.67166200  0.61875000  1
  Hg  Hg71  1  0.18624500  0.23788900  0.60771200  1
  Hg  Hg72  1  0.75247200  0.10543500  0.62978800  1
  Hg  Hg73  1  0.47586600  0.43788900  0.65771200  1
  Hg  Hg74  1  0.04209300  0.30543500  0.67978800  1
  Hg  Hg75  1  0.45379000  0.87166200  0.66875000  1
  Hg  Hg76  1  0.57454800  0.07166200  0.71875000  1
  Hg  Hg77  1  0.98624500  0.63788900  0.70771200  1
  Hg  Hg78  1  0.55247200  0.50543500  0.72978800  1
  Hg  Hg79  1  0.27586600  0.83788900  0.75771200  1
  Hg  Hg80  1  0.84209300  0.70543500  0.77978800  1
  Hg  Hg81  1  0.25379000  0.27166200  0.76875000  1
