# generated using pymatgen
data_Mg8Zn15
_symmetry_space_group_name_H-M   'P 1'
_cell_length_a   5.07402229
_cell_length_b   14.70723601
_cell_length_c   50.49845100
_cell_angle_alpha   88.21601723
_cell_angle_beta   89.67566990
_cell_angle_gamma   90.29193359
_symmetry_Int_Tables_number   1
_chemical_formula_structural   Mg8Zn15
_chemical_formula_sum   'Mg24 Zn45'
_cell_volume   3766.49971225
_cell_formula_units_Z   3
loop_
 _symmetry_equiv_pos_site_id
 _symmetry_equiv_pos_as_xyz
  1  'x, y, z'
loop_
 _atom_site_type_symbol
 _atom_site_label
 _atom_site_symmetry_multiplicity
 _atom_site_fract_x
 _atom_site_fract_y
 _atom_site_fract_z
 _atom_site_occupancy
  Mg  Mg0  1  0.18160200  0.87888200  0.46956700  1
  Mg  Mg1  1  0.17881500  0.14533400  0.38951000  1
  Mg  Mg2  1  0.18744100  0.64157800  0.25437300  1
  Mg  Mg3  1  0.68499300  0.85600100  0.43585000  1
  Mg  Mg4  1  0.68364400  0.23162500  0.41448800  1
  Mg  Mg5  1  0.68550600  0.95633500  0.26388000  1
  Mg  Mg6  1  0.68126700  0.19454000  0.47718400  1
  Mg  Mg7  1  0.68080900  0.82690000  0.37778600  1
  Mg  Mg8  1  0.18208100  0.07610700  0.49597700  1
  Mg  Mg9  1  0.68215800  0.45127600  0.39914800  1
  Mg  Mg10  1  0.67836100  0.29132300  0.30926300  1
  Mg  Mg11  1  0.18372100  0.60679400  0.31765900  1
  Mg  Mg12  1  0.18150000  0.93994100  0.40341600  1
  Mg  Mg13  1  0.18259800  0.51067900  0.48641900  1
  Mg  Mg14  1  0.18320400  0.17222200  0.32721700  1
  Mg  Mg15  1  0.68453500  0.48836100  0.33645200  1
  Mg  Mg16  1  0.18420000  0.80401900  0.34407000  1
  Mg  Mg17  1  0.18029500  0.97656600  0.29975600  1
  Mg  Mg18  1  0.18698700  0.53756700  0.42412700  1
  Mg  Mg19  1  0.18430200  0.74296000  0.41022000  1
  Mg  Mg20  1  0.68744100  0.39157800  0.50437300  1
  Mg  Mg21  1  0.18550600  0.70633500  0.51388000  1
  Mg  Mg22  1  0.17836100  0.04132300  0.55926300  1
  Mg  Mg23  1  0.68029500  0.72656600  0.54975600  1
  Zn  Zn24  1  0.17880000  0.21146200  0.44451700  1
  Zn  Zn25  1  0.68217100  0.03300200  0.39787900  1
  Zn  Zn26  1  0.18641400  0.30699500  0.27842100  1
  Zn  Zn27  1  0.43229300  0.62932300  0.37063500  1
  Zn  Zn28  1  0.92805800  0.30932800  0.36217700  1
  Zn  Zn29  1  0.42994900  0.05582200  0.44197800  1
  Zn  Zn30  1  0.93290100  0.46645000  0.28181800  1
  Zn  Zn31  1  0.18700200  0.47143900  0.36911900  1
  Zn  Zn32  1  0.68370700  0.07228600  0.31307600  1
  Zn  Zn33  1  0.93133400  0.37359200  0.45155400  1
  Zn  Zn34  1  0.92949200  0.14969300  0.27410000  1
  Zn  Zn35  1  0.68202600  0.79295700  0.49211500  1
  Zn  Zn36  1  0.18331700  0.29078700  0.49108300  1
  Zn  Zn37  1  0.68841000  0.52603200  0.45461300  1
  Zn  Zn38  1  0.68363100  0.64989900  0.41575800  1
  Zn  Zn39  1  0.18209500  0.86061500  0.25056000  1
  Zn  Zn40  1  0.94205400  0.68886800  0.45974400  1
  Zn  Zn41  1  0.43446800  0.30930900  0.36208300  1
  Zn  Zn42  1  0.93585300  0.62707900  0.37165800  1
  Zn  Zn43  1  0.18248500  0.39211400  0.32255400  1
  Zn  Zn44  1  0.42374800  0.99403300  0.35389200  1
  Zn  Zn45  1  0.43774400  0.37357300  0.45145900  1
  Zn  Zn46  1  0.43290100  0.46645000  0.28181800  1
  Zn  Zn47  1  0.67735100  0.98119400  0.48253700  1
  Zn  Zn48  1  0.43355500  0.14879000  0.27447600  1
  Zn  Zn49  1  0.42865400  0.69134600  0.45908400  1
  Zn  Zn50  1  0.68845100  0.70170700  0.33109900  1
  Zn  Zn51  1  0.93714800  0.99155500  0.35455300  1
  Zn  Zn52  1  0.67739200  0.15686900  0.35902300  1
  Zn  Zn53  1  0.43224700  0.78411100  0.28916000  1
  Zn  Zn54  1  0.93350800  0.05357800  0.44300100  1
  Zn  Zn55  1  0.18290100  0.34145000  0.40681800  1
  Zn  Zn56  1  0.93631000  0.78320800  0.28953700  1
  Zn  Zn57  1  0.68377600  0.88994400  0.32152100  1
  Zn  Zn58  1  0.67938800  0.62590600  0.28521500  1
  Zn  Zn59  1  0.68641400  0.05699500  0.52842100  1
  Zn  Zn60  1  0.43290100  0.21645000  0.53181800  1
  Zn  Zn61  1  0.18370700  0.82228600  0.56307600  1
  Zn  Zn62  1  0.42949200  0.89969300  0.52410000  1
  Zn  Zn63  1  0.68209500  0.61061500  0.50056000  1
  Zn  Zn64  1  0.93290100  0.21645000  0.53181800  1
  Zn  Zn65  1  0.93355500  0.89879000  0.52447600  1
  Zn  Zn66  1  0.93224700  0.53411100  0.53916000  1
  Zn  Zn67  1  0.43631000  0.53320800  0.53953700  1
  Zn  Zn68  1  0.17938800  0.37590600  0.53521500  1
