# generated using pymatgen
data_Tm4Mg7
_symmetry_space_group_name_H-M   'P 1'
_cell_length_a   5.19544600
_cell_length_b   5.19544581
_cell_length_c   42.53180600
_cell_angle_alpha   90.00000000
_cell_angle_beta   90.00000000
_cell_angle_gamma   120.00000121
_symmetry_Int_Tables_number   1
_chemical_formula_structural   Tm4Mg7
_chemical_formula_sum   'Tm8 Mg14'
_cell_volume   994.23742142
_cell_formula_units_Z   2
loop_
 _symmetry_equiv_pos_site_id
 _symmetry_equiv_pos_as_xyz
  1  'x, y, z'
loop_
 _atom_site_type_symbol
 _atom_site_label
 _atom_site_symmetry_multiplicity
 _atom_site_fract_x
 _atom_site_fract_y
 _atom_site_fract_z
 _atom_site_occupancy
  Tm  Tm0  1  0.00000000  0.00000000  0.25641000  1
  Tm  Tm1  1  0.00000000  0.00000000  0.33333300  1
  Tm  Tm2  1  0.00000000  0.00000000  0.41025600  1
  Tm  Tm3  1  0.00000000  0.00000000  0.48717900  1
  Tm  Tm4  1  0.00000000  0.00000000  0.56410300  1
  Tm  Tm5  1  0.00000000  0.00000000  0.64102600  1
  Tm  Tm6  1  0.00000000  0.00000000  0.71794900  1
  Tm  Tm7  1  0.00000000  0.00000000  0.79487200  1
  Mg  Mg8  1  0.33333300  0.66666700  0.29487200  1
  Mg  Mg9  1  0.66666700  0.33333300  0.29487200  1
  Mg  Mg10  1  0.33333300  0.66666700  0.37179500  1
  Mg  Mg11  1  0.66666700  0.33333300  0.37179500  1
  Mg  Mg12  1  0.33333300  0.66666700  0.44871800  1
  Mg  Mg13  1  0.66666700  0.33333300  0.44871800  1
  Mg  Mg14  1  0.33333300  0.66666700  0.52564100  1
  Mg  Mg15  1  0.66666700  0.33333300  0.52564100  1
  Mg  Mg16  1  0.33333300  0.66666700  0.60256400  1
  Mg  Mg17  1  0.66666700  0.33333300  0.60256400  1
  Mg  Mg18  1  0.33333300  0.66666700  0.67948700  1
  Mg  Mg19  1  0.66666700  0.33333300  0.67948700  1
  Mg  Mg20  1  0.33333300  0.66666700  0.75641000  1
  Mg  Mg21  1  0.66666700  0.33333300  0.75641000  1
