# generated using pymatgen
data_Mg5Ga2
_symmetry_space_group_name_H-M   'P 1'
_cell_length_a   9.16112904
_cell_length_b   15.19729366
_cell_length_c   43.27204700
_cell_angle_alpha   89.39542574
_cell_angle_beta   90.04668781
_cell_angle_gamma   74.44431518
_symmetry_Int_Tables_number   1
_chemical_formula_structural   Mg5Ga2
_chemical_formula_sum   'Mg120 Ga48'
_cell_volume   5803.48213205
_cell_formula_units_Z   24
loop_
 _symmetry_equiv_pos_site_id
 _symmetry_equiv_pos_as_xyz
  1  'x, y, z'
loop_
 _atom_site_type_symbol
 _atom_site_label
 _atom_site_symmetry_multiplicity
 _atom_site_fract_x
 _atom_site_fract_y
 _atom_site_fract_z
 _atom_site_occupancy
  Mg  Mg0  1  0.56018400  0.05887100  0.22381100  1
  Mg  Mg1  1  0.73981600  0.39112900  0.22618900  1
  Mg  Mg2  1  0.12633000  0.41004300  0.20727500  1
  Mg  Mg3  1  0.17367000  0.03995700  0.24272500  1
  Mg  Mg4  1  0.90000000  0.97500000  0.22500000  1
  Mg  Mg5  1  0.70000000  0.92500000  0.27500000  1
  Mg  Mg6  1  0.80612500  0.18621900  0.24846900  1
  Mg  Mg7  1  0.29387500  0.21378100  0.25153100  1
  Mg  Mg8  1  0.49387500  0.26378100  0.20153100  1
  Mg  Mg9  1  0.60612500  0.13621900  0.29846900  1
  Mg  Mg10  1  0.86018400  0.50887100  0.27381100  1
  Mg  Mg11  1  0.03981600  0.84112900  0.27618900  1
  Mg  Mg12  1  0.42633000  0.86004300  0.25727500  1
  Mg  Mg13  1  0.47367000  0.48995700  0.29272500  1
  Mg  Mg14  1  0.20000000  0.42500000  0.27500000  1
  Mg  Mg15  1  0.40000000  0.47500000  0.22500000  1
  Mg  Mg16  1  0.10612500  0.63621900  0.29846900  1
  Mg  Mg17  1  0.99387500  0.76378100  0.20153100  1
  Mg  Mg18  1  0.79387500  0.71378100  0.25153100  1
  Mg  Mg19  1  0.30612500  0.68621900  0.24846900  1
  Mg  Mg20  1  0.16018400  0.95887100  0.32381100  1
  Mg  Mg21  1  0.33981600  0.29112900  0.32618900  1
  Mg  Mg22  1  0.72633000  0.31004300  0.30727500  1
  Mg  Mg23  1  0.77367000  0.93995700  0.34272500  1
  Mg  Mg24  1  0.50000000  0.87500000  0.32500000  1
  Mg  Mg25  1  0.30000000  0.82500000  0.37500000  1
  Mg  Mg26  1  0.40612500  0.08621900  0.34846900  1
  Mg  Mg27  1  0.89387500  0.11378100  0.35153100  1
  Mg  Mg28  1  0.09387500  0.16378100  0.30153100  1
  Mg  Mg29  1  0.20612500  0.03621900  0.39846900  1
  Mg  Mg30  1  0.46018400  0.40887100  0.37381100  1
  Mg  Mg31  1  0.63981600  0.74112900  0.37618900  1
  Mg  Mg32  1  0.02633000  0.76004300  0.35727500  1
  Mg  Mg33  1  0.07367000  0.38995700  0.39272500  1
  Mg  Mg34  1  0.80000000  0.32500000  0.37500000  1
  Mg  Mg35  1  0.00000000  0.37500000  0.32500000  1
  Mg  Mg36  1  0.70612500  0.53621900  0.39846900  1
  Mg  Mg37  1  0.59387500  0.66378100  0.30153100  1
  Mg  Mg38  1  0.39387500  0.61378100  0.35153100  1
  Mg  Mg39  1  0.90612500  0.58621900  0.34846900  1
  Mg  Mg40  1  0.76018400  0.85887100  0.42381100  1
  Mg  Mg41  1  0.93981600  0.19112900  0.42618900  1
  Mg  Mg42  1  0.32633000  0.21004300  0.40727500  1
  Mg  Mg43  1  0.37367000  0.83995700  0.44272500  1
  Mg  Mg44  1  0.10000000  0.77500000  0.42500000  1
  Mg  Mg45  1  0.90000000  0.72500000  0.47500000  1
  Mg  Mg46  1  0.00612500  0.98621900  0.44846900  1
  Mg  Mg47  1  0.49387500  0.01378100  0.45153100  1
  Mg  Mg48  1  0.69387500  0.06378100  0.40153100  1
  Mg  Mg49  1  0.80612500  0.93621900  0.49846900  1
  Mg  Mg50  1  0.06018400  0.30887100  0.47381100  1
  Mg  Mg51  1  0.23981600  0.64112900  0.47618900  1
  Mg  Mg52  1  0.62633000  0.66004300  0.45727500  1
  Mg  Mg53  1  0.67367000  0.28995700  0.49272500  1
  Mg  Mg54  1  0.40000000  0.22500000  0.47500000  1
  Mg  Mg55  1  0.60000000  0.27500000  0.42500000  1
  Mg  Mg56  1  0.30612500  0.43621900  0.49846900  1
  Mg  Mg57  1  0.19387500  0.56378100  0.40153100  1
  Mg  Mg58  1  0.99387500  0.51378100  0.45153100  1
  Mg  Mg59  1  0.50612500  0.48621900  0.44846900  1
  Mg  Mg60  1  0.36018400  0.75887100  0.52381100  1
  Mg  Mg61  1  0.53981600  0.09112900  0.52618900  1
  Mg  Mg62  1  0.92633000  0.11004300  0.50727500  1
  Mg  Mg63  1  0.97367000  0.73995700  0.54272500  1
  Mg  Mg64  1  0.70000000  0.67500000  0.52500000  1
  Mg  Mg65  1  0.50000000  0.62500000  0.57500000  1
  Mg  Mg66  1  0.60612500  0.88621900  0.54846900  1
  Mg  Mg67  1  0.09387500  0.91378100  0.55153100  1
  Mg  Mg68  1  0.29387500  0.96378100  0.50153100  1
  Mg  Mg69  1  0.40612500  0.83621900  0.59846900  1
  Mg  Mg70  1  0.66018400  0.20887100  0.57381100  1
  Mg  Mg71  1  0.83981600  0.54112900  0.57618900  1
  Mg  Mg72  1  0.22633000  0.56004300  0.55727500  1
  Mg  Mg73  1  0.27367000  0.18995700  0.59272500  1
  Mg  Mg74  1  1.00000000  0.12500000  0.57500000  1
  Mg  Mg75  1  0.20000000  0.17500000  0.52500000  1
  Mg  Mg76  1  0.90612500  0.33621900  0.59846900  1
  Mg  Mg77  1  0.79387500  0.46378100  0.50153100  1
  Mg  Mg78  1  0.59387500  0.41378100  0.55153100  1
  Mg  Mg79  1  0.10612500  0.38621900  0.54846900  1
  Mg  Mg80  1  0.96018400  0.65887100  0.62381100  1
  Mg  Mg81  1  0.13981600  0.99112900  0.62618900  1
  Mg  Mg82  1  0.52633000  0.01004300  0.60727500  1
  Mg  Mg83  1  0.57367000  0.63995700  0.64272500  1
  Mg  Mg84  1  0.30000000  0.57500000  0.62500000  1
  Mg  Mg85  1  0.10000000  0.52500000  0.67500000  1
  Mg  Mg86  1  0.20612500  0.78621900  0.64846900  1
  Mg  Mg87  1  0.69387500  0.81378100  0.65153100  1
  Mg  Mg88  1  0.89387500  0.86378100  0.60153100  1
  Mg  Mg89  1  0.00612500  0.73621900  0.69846900  1
  Mg  Mg90  1  0.26018400  0.10887100  0.67381100  1
  Mg  Mg91  1  0.43981600  0.44112900  0.67618900  1
  Mg  Mg92  1  0.82633000  0.46004300  0.65727500  1
  Mg  Mg93  1  0.87367000  0.08995700  0.69272500  1
  Mg  Mg94  1  0.60000000  0.02500000  0.67500000  1
  Mg  Mg95  1  0.80000000  0.07500000  0.62500000  1
  Mg  Mg96  1  0.50612500  0.23621900  0.69846900  1
  Mg  Mg97  1  0.39387500  0.36378100  0.60153100  1
  Mg  Mg98  1  0.19387500  0.31378100  0.65153100  1
  Mg  Mg99  1  0.70612500  0.28621900  0.64846900  1
  Mg  Mg100  1  0.56018400  0.55887100  0.72381100  1
  Mg  Mg101  1  0.73981600  0.89112900  0.72618900  1
  Mg  Mg102  1  0.12633000  0.91004300  0.70727500  1
  Mg  Mg103  1  0.17367000  0.53995700  0.74272500  1
  Mg  Mg104  1  0.90000000  0.47500000  0.72500000  1
  Mg  Mg105  1  0.70000000  0.42500000  0.77500000  1
  Mg  Mg106  1  0.80612500  0.68621900  0.74846900  1
  Mg  Mg107  1  0.29387500  0.71378100  0.75153100  1
  Mg  Mg108  1  0.49387500  0.76378100  0.70153100  1
  Mg  Mg109  1  0.60612500  0.63621900  0.79846900  1
  Mg  Mg110  1  0.86018400  0.00887100  0.77381100  1
  Mg  Mg111  1  0.03981600  0.34112900  0.77618900  1
  Mg  Mg112  1  0.42633000  0.36004300  0.75727500  1
  Mg  Mg113  1  0.47367000  0.98995700  0.79272500  1
  Mg  Mg114  1  0.20000000  0.92500000  0.77500000  1
  Mg  Mg115  1  0.40000000  0.97500000  0.72500000  1
  Mg  Mg116  1  0.10612500  0.13621900  0.79846900  1
  Mg  Mg117  1  0.99387500  0.26378100  0.70153100  1
  Mg  Mg118  1  0.79387500  0.21378100  0.75153100  1
  Mg  Mg119  1  0.30612500  0.18621900  0.74846900  1
  Ga  Ga120  1  0.90669500  0.03422900  0.28818500  1
  Ga  Ga121  1  0.99330500  0.31577100  0.26181500  1
  Ga  Ga122  1  0.50462600  0.31388500  0.26370200  1
  Ga  Ga123  1  0.39537400  0.03611500  0.28629800  1
  Ga  Ga124  1  0.60669500  0.58422900  0.23818500  1
  Ga  Ga125  1  0.69330500  0.86577100  0.21181500  1
  Ga  Ga126  1  0.20462600  0.86388500  0.21370200  1
  Ga  Ga127  1  0.09537400  0.58611500  0.23629800  1
  Ga  Ga128  1  0.50669500  0.93422900  0.38818500  1
  Ga  Ga129  1  0.59330500  0.21577100  0.36181500  1
  Ga  Ga130  1  0.10462600  0.21388500  0.36370200  1
  Ga  Ga131  1  0.99537400  0.93611500  0.38629800  1
  Ga  Ga132  1  0.20669500  0.48422900  0.33818500  1
  Ga  Ga133  1  0.29330500  0.76577100  0.31181500  1
  Ga  Ga134  1  0.80462600  0.76388500  0.31370200  1
  Ga  Ga135  1  0.69537400  0.48611500  0.33629800  1
  Ga  Ga136  1  0.10669500  0.83422900  0.48818500  1
  Ga  Ga137  1  0.19330500  0.11577100  0.46181500  1
  Ga  Ga138  1  0.70462600  0.11388500  0.46370200  1
  Ga  Ga139  1  0.59537400  0.83611500  0.48629800  1
  Ga  Ga140  1  0.80669500  0.38422900  0.43818500  1
  Ga  Ga141  1  0.89330500  0.66577100  0.41181500  1
  Ga  Ga142  1  0.40462600  0.66388500  0.41370200  1
  Ga  Ga143  1  0.29537400  0.38611500  0.43629800  1
  Ga  Ga144  1  0.70669500  0.73422900  0.58818500  1
  Ga  Ga145  1  0.79330500  0.01577100  0.56181500  1
  Ga  Ga146  1  0.30462600  0.01388500  0.56370200  1
  Ga  Ga147  1  0.19537400  0.73611500  0.58629800  1
  Ga  Ga148  1  0.40669500  0.28422900  0.53818500  1
  Ga  Ga149  1  0.49330500  0.56577100  0.51181500  1
  Ga  Ga150  1  0.00462600  0.56388500  0.51370200  1
  Ga  Ga151  1  0.89537400  0.28611500  0.53629800  1
  Ga  Ga152  1  0.30669500  0.63422900  0.68818500  1
  Ga  Ga153  1  0.39330500  0.91577100  0.66181500  1
  Ga  Ga154  1  0.90462600  0.91388500  0.66370200  1
  Ga  Ga155  1  0.79537400  0.63611500  0.68629800  1
  Ga  Ga156  1  0.00669500  0.18422900  0.63818500  1
  Ga  Ga157  1  0.09330500  0.46577100  0.61181500  1
  Ga  Ga158  1  0.60462600  0.46388500  0.61370200  1
  Ga  Ga159  1  0.49537400  0.18611500  0.63629800  1
  Ga  Ga160  1  0.90669500  0.53422900  0.78818500  1
  Ga  Ga161  1  0.99330500  0.81577100  0.76181500  1
  Ga  Ga162  1  0.50462600  0.81388500  0.76370200  1
  Ga  Ga163  1  0.39537400  0.53611500  0.78629800  1
  Ga  Ga164  1  0.60669500  0.08422900  0.73818500  1
  Ga  Ga165  1  0.69330500  0.36577100  0.71181500  1
  Ga  Ga166  1  0.20462600  0.36388500  0.71370200  1
  Ga  Ga167  1  0.09537400  0.08611500  0.73629800  1
