# generated using pymatgen
data_Mg2Au
_symmetry_space_group_name_H-M   'P 1'
_cell_length_a   9.63509784
_cell_length_b   19.42687858
_cell_length_c   43.05516600
_cell_angle_alpha   101.95555315
_cell_angle_beta   93.60749084
_cell_angle_gamma   84.09650850
_symmetry_Int_Tables_number   1
_chemical_formula_structural   Mg2Au
_chemical_formula_sum   'Mg152 Au76'
_cell_volume   7835.26025205
_cell_formula_units_Z   76
loop_
 _symmetry_equiv_pos_site_id
 _symmetry_equiv_pos_as_xyz
  1  'x, y, z'
loop_
 _atom_site_type_symbol
 _atom_site_label
 _atom_site_symmetry_multiplicity
 _atom_site_fract_x
 _atom_site_fract_y
 _atom_site_fract_z
 _atom_site_occupancy
  Mg  Mg0  1  0.76943800  0.94424700  0.27052300  1
  Mg  Mg1  1  0.92488400  0.05575300  0.24462900  1
  Mg  Mg2  1  0.41478300  0.11223800  0.24978200  1
  Mg  Mg3  1  0.27954000  0.88776200  0.26536900  1
  Mg  Mg4  1  0.17220500  0.32132500  0.24606100  1
  Mg  Mg5  1  0.52211700  0.67867500  0.26909000  1
  Mg  Mg6  1  0.05098600  0.48719800  0.25102300  1
  Mg  Mg7  1  0.64333700  0.51280200  0.26412900  1
  Mg  Mg8  1  0.58762000  0.94424700  0.36143200  1
  Mg  Mg9  1  0.35424900  0.44424700  0.27994600  1
  Mg  Mg10  1  0.74306600  0.05575300  0.33553800  1
  Mg  Mg11  1  0.15825600  0.55575300  0.32611400  1
  Mg  Mg12  1  0.64781700  0.61223800  0.33123100  1
  Mg  Mg13  1  0.23296500  0.11223800  0.34069100  1
  Mg  Mg14  1  0.86468800  0.38776200  0.27483000  1
  Mg  Mg15  1  0.09772200  0.88776200  0.35627800  1
  Mg  Mg16  1  0.70476900  0.27669700  0.30027600  1
  Mg  Mg17  1  0.29802700  0.77669700  0.31063800  1
  Mg  Mg18  1  0.80773500  0.72330300  0.30578400  1
  Mg  Mg19  1  0.21447700  0.22330300  0.29542200  1
  Mg  Mg20  1  0.99618100  0.82132500  0.28205900  1
  Mg  Mg21  1  0.99038700  0.32132500  0.33697000  1
  Mg  Mg22  1  0.51632400  0.17867500  0.32400200  1
  Mg  Mg23  1  0.34029900  0.67867500  0.35999900  1
  Mg  Mg24  1  0.86916800  0.48719800  0.34193200  1
  Mg  Mg25  1  0.05708300  0.98719800  0.30725600  1
  Mg  Mg26  1  0.46151900  0.51280200  0.35503800  1
  Mg  Mg27  1  0.45542100  0.01280200  0.29880500  1
  Mg  Mg28  1  0.93085600  0.15308100  0.31166200  1
  Mg  Mg29  1  0.11689200  0.65308100  0.27677700  1
  Mg  Mg30  1  0.58164800  0.84691900  0.29439900  1
  Mg  Mg31  1  0.39561300  0.34691900  0.32928400  1
  Mg  Mg32  1  0.40580200  0.94424700  0.45234100  1
  Mg  Mg33  1  0.17243100  0.44424700  0.37085500  1
  Mg  Mg34  1  0.56124800  0.05575300  0.42644700  1
  Mg  Mg35  1  0.97643700  0.55575300  0.41702300  1
  Mg  Mg36  1  0.46599900  0.61223800  0.42214000  1
  Mg  Mg37  1  0.05114600  0.11223800  0.43160100  1
  Mg  Mg38  1  0.68286900  0.38776200  0.36573900  1
  Mg  Mg39  1  0.91590400  0.88776200  0.44718700  1
  Mg  Mg40  1  0.52295100  0.27669700  0.39118500  1
  Mg  Mg41  1  0.11620900  0.77669700  0.40154700  1
  Mg  Mg42  1  0.62591700  0.72330300  0.39669300  1
  Mg  Mg43  1  0.03265900  0.22330300  0.38633100  1
  Mg  Mg44  1  0.81436300  0.82132500  0.37296800  1
  Mg  Mg45  1  0.80856900  0.32132500  0.42787900  1
  Mg  Mg46  1  0.33450600  0.17867500  0.41491100  1
  Mg  Mg47  1  0.15848100  0.67867500  0.45090800  1
  Mg  Mg48  1  0.68735000  0.48719800  0.43284100  1
  Mg  Mg49  1  0.87526500  0.98719800  0.39816500  1
  Mg  Mg50  1  0.27970000  0.51280200  0.44594700  1
  Mg  Mg51  1  0.27360300  0.01280200  0.38971400  1
  Mg  Mg52  1  0.74903800  0.15308100  0.40257100  1
  Mg  Mg53  1  0.93507300  0.65308100  0.36768600  1
  Mg  Mg54  1  0.39983000  0.84691900  0.38530800  1
  Mg  Mg55  1  0.21379500  0.34691900  0.42019300  1
  Mg  Mg56  1  0.22398400  0.94424700  0.54325000  1
  Mg  Mg57  1  0.99061200  0.44424700  0.46176400  1
  Mg  Mg58  1  0.37943000  0.05575300  0.51735600  1
  Mg  Mg59  1  0.79461900  0.55575300  0.50793300  1
  Mg  Mg60  1  0.28418100  0.61223800  0.51304900  1
  Mg  Mg61  1  0.86932800  0.11223800  0.52251000  1
  Mg  Mg62  1  0.50105100  0.38776200  0.45664800  1
  Mg  Mg63  1  0.73408500  0.88776200  0.53809600  1
  Mg  Mg64  1  0.34113300  0.27669700  0.48209400  1
  Mg  Mg65  1  0.93439100  0.77669700  0.49245600  1
  Mg  Mg66  1  0.44409900  0.72330300  0.48760300  1
  Mg  Mg67  1  0.85084100  0.22330300  0.47724100  1
  Mg  Mg68  1  0.63254400  0.82132500  0.46387700  1
  Mg  Mg69  1  0.62675100  0.32132500  0.51878900  1
  Mg  Mg70  1  0.15268700  0.17867500  0.50582000  1
  Mg  Mg71  1  0.97666300  0.67867500  0.54181800  1
  Mg  Mg72  1  0.50553100  0.48719800  0.52375000  1
  Mg  Mg73  1  0.69344700  0.98719800  0.48907400  1
  Mg  Mg74  1  0.09788200  0.51280200  0.53685600  1
  Mg  Mg75  1  0.09178500  0.01280200  0.48062300  1
  Mg  Mg76  1  0.56722000  0.15308100  0.49348000  1
  Mg  Mg77  1  0.75325500  0.65308100  0.45859500  1
  Mg  Mg78  1  0.21801200  0.84691900  0.47621700  1
  Mg  Mg79  1  0.03197700  0.34691900  0.51110200  1
  Mg  Mg80  1  0.04216600  0.94424700  0.63415900  1
  Mg  Mg81  1  0.80879400  0.44424700  0.55267400  1
  Mg  Mg82  1  0.19761100  0.05575300  0.60826500  1
  Mg  Mg83  1  0.61280100  0.55575300  0.59884200  1
  Mg  Mg84  1  0.10236200  0.61223800  0.60395800  1
  Mg  Mg85  1  0.68751000  0.11223800  0.61341900  1
  Mg  Mg86  1  0.31923300  0.38776200  0.54755700  1
  Mg  Mg87  1  0.55226700  0.88776200  0.62900500  1
  Mg  Mg88  1  0.15931500  0.27669700  0.57300400  1
  Mg  Mg89  1  0.75257300  0.77669700  0.58336600  1
  Mg  Mg90  1  0.26228000  0.72330300  0.57851200  1
  Mg  Mg91  1  0.66902300  0.22330300  0.56815000  1
  Mg  Mg92  1  0.45072600  0.82132500  0.55478600  1
  Mg  Mg93  1  0.44493300  0.32132500  0.60969800  1
  Mg  Mg94  1  0.97086900  0.17867500  0.59672900  1
  Mg  Mg95  1  0.79484500  0.67867500  0.63272700  1
  Mg  Mg96  1  0.32371300  0.48719800  0.61465900  1
  Mg  Mg97  1  0.51162900  0.98719800  0.57998300  1
  Mg  Mg98  1  0.91606400  0.51280200  0.62776500  1
  Mg  Mg99  1  0.90996700  0.01280200  0.57153200  1
  Mg  Mg100  1  0.38540200  0.15308100  0.58438900  1
  Mg  Mg101  1  0.57143700  0.65308100  0.54950400  1
  Mg  Mg102  1  0.03619400  0.84691900  0.56712600  1
  Mg  Mg103  1  0.85015800  0.34691900  0.60201100  1
  Mg  Mg104  1  0.86034800  0.94424700  0.72506800  1
  Mg  Mg105  1  0.62697600  0.44424700  0.64358300  1
  Mg  Mg106  1  0.01579300  0.05575300  0.69917400  1
  Mg  Mg107  1  0.43098300  0.55575300  0.68975100  1
  Mg  Mg108  1  0.92054400  0.61223800  0.69486700  1
  Mg  Mg109  1  0.50569200  0.11223800  0.70432800  1
  Mg  Mg110  1  0.13741500  0.38776200  0.63846600  1
  Mg  Mg111  1  0.37044900  0.88776200  0.71991500  1
  Mg  Mg112  1  0.97749700  0.27669700  0.66391300  1
  Mg  Mg113  1  0.57075400  0.77669700  0.67427500  1
  Mg  Mg114  1  0.08046200  0.72330300  0.66942100  1
  Mg  Mg115  1  0.48720500  0.22330300  0.65905900  1
  Mg  Mg116  1  0.26890800  0.82132500  0.64569500  1
  Mg  Mg117  1  0.26311400  0.32132500  0.70060700  1
  Mg  Mg118  1  0.78905100  0.17867500  0.68763800  1
  Mg  Mg119  1  0.61302600  0.67867500  0.72363600  1
  Mg  Mg120  1  0.14189500  0.48719800  0.70556800  1
  Mg  Mg121  1  0.32981000  0.98719800  0.67089200  1
  Mg  Mg122  1  0.73424600  0.51280200  0.71867400  1
  Mg  Mg123  1  0.72814900  0.01280200  0.66244100  1
  Mg  Mg124  1  0.20358300  0.15308100  0.67529800  1
  Mg  Mg125  1  0.38961900  0.65308100  0.64041300  1
  Mg  Mg126  1  0.85437600  0.84691900  0.65803500  1
  Mg  Mg127  1  0.66834000  0.34691900  0.69292000  1
  Mg  Mg128  1  0.67852900  0.94424700  0.81597700  1
  Mg  Mg129  1  0.44515800  0.44424700  0.73449200  1
  Mg  Mg130  1  0.83397500  0.05575300  0.79008300  1
  Mg  Mg131  1  0.24916500  0.55575300  0.78066000  1
  Mg  Mg132  1  0.73872600  0.61223800  0.78577600  1
  Mg  Mg133  1  0.32387400  0.11223800  0.79523700  1
  Mg  Mg134  1  0.95559700  0.38776200  0.72937500  1
  Mg  Mg135  1  0.18863100  0.88776200  0.81082400  1
  Mg  Mg136  1  0.79567900  0.27669700  0.75482200  1
  Mg  Mg137  1  0.38893600  0.77669700  0.76518400  1
  Mg  Mg138  1  0.89864400  0.72330300  0.76033000  1
  Mg  Mg139  1  0.30538600  0.22330300  0.74996800  1
  Mg  Mg140  1  0.08709000  0.82132500  0.73660400  1
  Mg  Mg141  1  0.08129600  0.32132500  0.79151600  1
  Mg  Mg142  1  0.60723300  0.17867500  0.77854800  1
  Mg  Mg143  1  0.43120800  0.67867500  0.81454500  1
  Mg  Mg144  1  0.96007700  0.48719800  0.79647700  1
  Mg  Mg145  1  0.14799200  0.98719800  0.76180100  1
  Mg  Mg146  1  0.55242800  0.51280200  0.80958300  1
  Mg  Mg147  1  0.54633000  0.01280200  0.75335000  1
  Mg  Mg148  1  0.02176500  0.15308100  0.76620700  1
  Mg  Mg149  1  0.20780100  0.65308100  0.73132300  1
  Mg  Mg150  1  0.67255800  0.84691900  0.74894400  1
  Mg  Mg151  1  0.48652200  0.34691900  0.78382900  1
  Au  Au152  1  0.74345300  0.75574700  0.24669100  1
  Au  Au153  1  0.44877900  0.25574700  0.26950500  1
  Au  Au154  1  0.95086900  0.24425300  0.26846000  1
  Au  Au155  1  0.24554300  0.74425300  0.24564600  1
  Au  Au156  1  0.67817600  0.08760800  0.27631200  1
  Au  Au157  1  0.39338000  0.58760800  0.30022300  1
  Au  Au158  1  0.83432900  0.91239200  0.32974900  1
  Au  Au159  1  0.11912400  0.41239200  0.30583700  1
  Au  Au160  1  0.61825400  0.42008800  0.30659600  1
  Au  Au161  1  0.33240000  0.92008800  0.33039000  1
  Au  Au162  1  0.89425000  0.57991200  0.29946500  1
  Au  Au163  1  0.18010500  0.07991200  0.27567100  1
  Au  Au164  1  0.56163500  0.75574700  0.33760000  1
  Au  Au165  1  0.26696100  0.25574700  0.36041400  1
  Au  Au166  1  0.76905100  0.24425300  0.35936900  1
  Au  Au167  1  0.06372500  0.74425300  0.33655500  1
  Au  Au168  1  0.49635700  0.08760800  0.36722100  1
  Au  Au169  1  0.21156200  0.58760800  0.39113200  1
  Au  Au170  1  0.65251100  0.91239200  0.42065800  1
  Au  Au171  1  0.93730600  0.41239200  0.39674600  1
  Au  Au172  1  0.43643600  0.42008800  0.39750500  1
  Au  Au173  1  0.15058200  0.92008800  0.42129900  1
  Au  Au174  1  0.71243200  0.57991200  0.39037400  1
  Au  Au175  1  0.99828700  0.07991200  0.36658000  1
  Au  Au176  1  0.37981700  0.75574700  0.42850900  1
  Au  Au177  1  0.08514300  0.25574700  0.45132300  1
  Au  Au178  1  0.58723300  0.24425300  0.45027800  1
  Au  Au179  1  0.88190700  0.74425300  0.42746400  1
  Au  Au180  1  0.31453900  0.08760800  0.45813000  1
  Au  Au181  1  0.02974400  0.58760800  0.48204100  1
  Au  Au182  1  0.47069300  0.91239200  0.51156700  1
  Au  Au183  1  0.75548800  0.41239200  0.48765600  1
  Au  Au184  1  0.25461800  0.42008800  0.48841400  1
  Au  Au185  1  0.96876300  0.92008800  0.51220800  1
  Au  Au186  1  0.53061400  0.57991200  0.48128300  1
  Au  Au187  1  0.81646800  0.07991200  0.45748900  1
  Au  Au188  1  0.19799900  0.75574700  0.51941900  1
  Au  Au189  1  0.90332500  0.25574700  0.54223300  1
  Au  Au190  1  0.40541500  0.24425300  0.54118800  1
  Au  Au191  1  0.70008900  0.74425300  0.51837400  1
  Au  Au192  1  0.13272100  0.08760800  0.54903900  1
  Au  Au193  1  0.84792600  0.58760800  0.57295100  1
  Au  Au194  1  0.28887400  0.91239200  0.60247600  1
  Au  Au195  1  0.57366900  0.41239200  0.57856500  1
  Au  Au196  1  0.07280000  0.42008800  0.57932300  1
  Au  Au197  1  0.78694500  0.92008800  0.60311700  1
  Au  Au198  1  0.34879600  0.57991200  0.57219200  1
  Au  Au199  1  0.63465000  0.07991200  0.54839800  1
  Au  Au200  1  0.01618000  0.75574700  0.61032800  1
  Au  Au201  1  0.72150700  0.25574700  0.63314200  1
  Au  Au202  1  0.22359700  0.24425300  0.63209700  1
  Au  Au203  1  0.51827000  0.74425300  0.60928300  1
  Au  Au204  1  0.95090300  0.08760800  0.63994800  1
  Au  Au205  1  0.66610800  0.58760800  0.66386000  1
  Au  Au206  1  0.10705600  0.91239200  0.69338500  1
  Au  Au207  1  0.39185100  0.41239200  0.66947400  1
  Au  Au208  1  0.89098200  0.42008800  0.67023200  1
  Au  Au209  1  0.60512700  0.92008800  0.69402600  1
  Au  Au210  1  0.16697700  0.57991200  0.66310100  1
  Au  Au211  1  0.45283200  0.07991200  0.63930700  1
  Au  Au212  1  0.83436200  0.75574700  0.70123700  1
  Au  Au213  1  0.53968900  0.25574700  0.72405100  1
  Au  Au214  1  0.04177900  0.24425300  0.72300600  1
  Au  Au215  1  0.33645200  0.74425300  0.70019200  1
  Au  Au216  1  0.76908500  0.08760800  0.73085700  1
  Au  Au217  1  0.48429000  0.58760800  0.75476900  1
  Au  Au218  1  0.92523800  0.91239200  0.78429400  1
  Au  Au219  1  0.21003300  0.41239200  0.76038300  1
  Au  Au220  1  0.70916300  0.42008800  0.76114100  1
  Au  Au221  1  0.42330900  0.92008800  0.78493500  1
  Au  Au222  1  0.98515900  0.57991200  0.75401000  1
  Au  Au223  1  0.27101400  0.07991200  0.73021600  1
  Au  Au224  1  0.65254400  0.75574700  0.79214600  1
  Au  Au225  1  0.35787000  0.25574700  0.81496000  1
  Au  Au226  1  0.85996000  0.24425300  0.81391500  1
  Au  Au227  1  0.15463400  0.74425300  0.79110100  1
