# generated using pymatgen
data_Mg4Zn19
_symmetry_space_group_name_H-M   'P 1'
_cell_length_a   12.10891185
_cell_length_b   12.10891214
_cell_length_c   49.92632400
_cell_angle_alpha   90.00000000
_cell_angle_beta   83.03472392
_cell_angle_gamma   60.00000117
_symmetry_Int_Tables_number   1
_chemical_formula_structural   Mg4Zn19
_chemical_formula_sum   'Mg36 Zn171'
_cell_volume   6277.26392985
_cell_formula_units_Z   9
loop_
 _symmetry_equiv_pos_site_id
 _symmetry_equiv_pos_as_xyz
  1  'x, y, z'
loop_
 _atom_site_type_symbol
 _atom_site_label
 _atom_site_symmetry_multiplicity
 _atom_site_fract_x
 _atom_site_fract_y
 _atom_site_fract_z
 _atom_site_occupancy
  Mg  Mg0  1  0.76228000  0.32171000  0.26487000  1
  Mg  Mg1  1  0.06483100  0.82171000  0.26487000  1
  Mg  Mg2  1  0.26228000  0.12426100  0.26487000  1
  Mg  Mg3  1  0.30177000  0.70324100  0.30436000  1
  Mg  Mg4  1  0.10432100  0.40069000  0.30436000  1
  Mg  Mg5  1  0.60432100  0.20324100  0.30436000  1
  Mg  Mg6  1  0.36228000  0.02171000  0.36487000  1
  Mg  Mg7  1  0.66483100  0.52171000  0.36487000  1
  Mg  Mg8  1  0.86228000  0.82426100  0.36487000  1
  Mg  Mg9  1  0.90177000  0.40324100  0.40436000  1
  Mg  Mg10  1  0.70432100  0.10069000  0.40436000  1
  Mg  Mg11  1  0.20432100  0.90324100  0.40436000  1
  Mg  Mg12  1  0.96228000  0.72171000  0.46487000  1
  Mg  Mg13  1  0.26483100  0.22171000  0.46487000  1
  Mg  Mg14  1  0.46228000  0.52426100  0.46487000  1
  Mg  Mg15  1  0.50177000  0.10324100  0.50436000  1
  Mg  Mg16  1  0.30432100  0.80069000  0.50436000  1
  Mg  Mg17  1  0.80432100  0.60324100  0.50436000  1
  Mg  Mg18  1  0.56228000  0.42171000  0.56487000  1
  Mg  Mg19  1  0.86483100  0.92171000  0.56487000  1
  Mg  Mg20  1  0.06228000  0.22426100  0.56487000  1
  Mg  Mg21  1  0.10177000  0.80324100  0.60436000  1
  Mg  Mg22  1  0.90432100  0.50069000  0.60436000  1
  Mg  Mg23  1  0.40432100  0.30324100  0.60436000  1
  Mg  Mg24  1  0.16228000  0.12171000  0.66487000  1
  Mg  Mg25  1  0.46483100  0.62171000  0.66487000  1
  Mg  Mg26  1  0.66228000  0.92426100  0.66487000  1
  Mg  Mg27  1  0.70177000  0.50324100  0.70436000  1
  Mg  Mg28  1  0.50432100  0.20069000  0.70436000  1
  Mg  Mg29  1  0.00432100  0.00324100  0.70436000  1
  Mg  Mg30  1  0.76228000  0.82171000  0.76487000  1
  Mg  Mg31  1  0.06483100  0.32171000  0.76487000  1
  Mg  Mg32  1  0.26228000  0.62426100  0.76487000  1
  Mg  Mg33  1  0.30177000  0.20324100  0.80436000  1
  Mg  Mg34  1  0.10432100  0.90069000  0.80436000  1
  Mg  Mg35  1  0.60432100  0.70324100  0.80436000  1
  Zn  Zn36  1  0.88599900  0.08204800  0.29203900  1
  Zn  Zn37  1  0.15360800  0.97259700  0.29203900  1
  Zn  Zn38  1  0.99545000  0.24020600  0.29203900  1
  Zn  Zn39  1  0.37115200  0.28474600  0.27719200  1
  Zn  Zn40  1  0.21299400  0.55235500  0.27719200  1
  Zn  Zn41  1  0.48060300  0.44290300  0.27719200  1
  Zn  Zn42  1  0.98330100  0.11247600  0.33461500  1
  Zn  Zn43  1  0.59275200  0.69456400  0.30725300  1
  Zn  Zn44  1  0.81912400  0.69456400  0.30725300  1
  Zn  Zn45  1  0.59275200  0.92093700  0.30725300  1
  Zn  Zn46  1  0.14747700  0.53038700  0.36197800  1
  Zn  Zn47  1  0.37385000  0.30401500  0.36197800  1
  Zn  Zn48  1  0.37385000  0.53038700  0.36197800  1
  Zn  Zn49  1  0.92025300  0.56519000  0.35037700  1
  Zn  Zn50  1  0.57787300  0.06519000  0.35037700  1
  Zn  Zn51  1  0.42025300  0.72280900  0.35037700  1
  Zn  Zn52  1  0.38872900  0.15976200  0.31885300  1
  Zn  Zn53  1  0.54634900  0.50214200  0.31885300  1
  Zn  Zn54  1  0.04634900  0.65976200  0.31885300  1
  Zn  Zn55  1  0.63949000  0.78438100  0.35033200  1
  Zn  Zn56  1  0.15186800  0.74724800  0.36271000  1
  Zn  Zn57  1  0.15186800  0.30913700  0.36271000  1
  Zn  Zn58  1  0.58997800  0.30913700  0.36271000  1
  Zn  Zn59  1  0.32711200  0.44057000  0.31889900  1
  Zn  Zn60  1  0.81473400  0.47770400  0.30652100  1
  Zn  Zn61  1  0.81473400  0.91581400  0.30652100  1
  Zn  Zn62  1  0.37662300  0.91581400  0.30652100  1
  Zn  Zn63  1  0.48599900  0.78204800  0.39203900  1
  Zn  Zn64  1  0.75360800  0.67259700  0.39203900  1
  Zn  Zn65  1  0.59545000  0.94020600  0.39203900  1
  Zn  Zn66  1  0.97115200  0.98474600  0.37719200  1
  Zn  Zn67  1  0.93952000  0.34724900  0.34556100  1
  Zn  Zn68  1  0.78136300  0.07964000  0.34556100  1
  Zn  Zn69  1  0.02708100  0.87770200  0.32367000  1
  Zn  Zn70  1  0.81299400  0.25235500  0.37719200  1
  Zn  Zn71  1  0.18523900  0.14531100  0.32367000  1
  Zn  Zn72  1  0.08060300  0.14290300  0.37719200  1
  Zn  Zn73  1  0.75947200  0.30346900  0.32367000  1
  Zn  Zn74  1  0.20712900  0.92148300  0.34556100  1
  Zn  Zn75  1  0.58330100  0.81247600  0.43461500  1
  Zn  Zn76  1  0.19275200  0.39456400  0.40725300  1
  Zn  Zn77  1  0.41912400  0.39456400  0.40725300  1
  Zn  Zn78  1  0.19275200  0.62093700  0.40725300  1
  Zn  Zn79  1  0.74747700  0.23038700  0.46197800  1
  Zn  Zn80  1  0.97385000  0.00401500  0.46197800  1
  Zn  Zn81  1  0.97385000  0.23038700  0.46197800  1
  Zn  Zn82  1  0.52025300  0.26519000  0.45037700  1
  Zn  Zn83  1  0.17787300  0.76519000  0.45037700  1
  Zn  Zn84  1  0.02025300  0.42280900  0.45037700  1
  Zn  Zn85  1  0.98872900  0.85976200  0.41885300  1
  Zn  Zn86  1  0.14634900  0.20214200  0.41885300  1
  Zn  Zn87  1  0.64634900  0.35976200  0.41885300  1
  Zn  Zn88  1  0.23949000  0.48438100  0.45033200  1
  Zn  Zn89  1  0.75186800  0.44724800  0.46271000  1
  Zn  Zn90  1  0.75186800  0.00913700  0.46271000  1
  Zn  Zn91  1  0.18997800  0.00913700  0.46271000  1
  Zn  Zn92  1  0.92711200  0.14057000  0.41889900  1
  Zn  Zn93  1  0.41473400  0.17770400  0.40652100  1
  Zn  Zn94  1  0.41473400  0.61581400  0.40652100  1
  Zn  Zn95  1  0.97662300  0.61581400  0.40652100  1
  Zn  Zn96  1  0.08599900  0.48204800  0.49203900  1
  Zn  Zn97  1  0.35360800  0.37259700  0.49203900  1
  Zn  Zn98  1  0.19545000  0.64020600  0.49203900  1
  Zn  Zn99  1  0.57115200  0.68474600  0.47719200  1
  Zn  Zn100  1  0.53952000  0.04724900  0.44556100  1
  Zn  Zn101  1  0.38136300  0.77964000  0.44556100  1
  Zn  Zn102  1  0.62708100  0.57770200  0.42367000  1
  Zn  Zn103  1  0.41299400  0.95235500  0.47719200  1
  Zn  Zn104  1  0.78523900  0.84531100  0.42367000  1
  Zn  Zn105  1  0.68060300  0.84290300  0.47719200  1
  Zn  Zn106  1  0.35947200  0.00346900  0.42367000  1
  Zn  Zn107  1  0.80712900  0.62148300  0.44556100  1
  Zn  Zn108  1  0.18330100  0.51247600  0.53461500  1
  Zn  Zn109  1  0.79275200  0.09456400  0.50725300  1
  Zn  Zn110  1  0.01912400  0.09456400  0.50725300  1
  Zn  Zn111  1  0.79275200  0.32093700  0.50725300  1
  Zn  Zn112  1  0.34747700  0.93038700  0.56197800  1
  Zn  Zn113  1  0.57385000  0.70401500  0.56197800  1
  Zn  Zn114  1  0.57385000  0.93038700  0.56197800  1
  Zn  Zn115  1  0.12025300  0.96519000  0.55037700  1
  Zn  Zn116  1  0.77787300  0.46519000  0.55037700  1
  Zn  Zn117  1  0.62025300  0.12280900  0.55037700  1
  Zn  Zn118  1  0.58872900  0.55976200  0.51885300  1
  Zn  Zn119  1  0.74634900  0.90214200  0.51885300  1
  Zn  Zn120  1  0.24634900  0.05976200  0.51885300  1
  Zn  Zn121  1  0.83949000  0.18438100  0.55033200  1
  Zn  Zn122  1  0.35186800  0.14724800  0.56271000  1
  Zn  Zn123  1  0.35186800  0.70913700  0.56271000  1
  Zn  Zn124  1  0.78997800  0.70913700  0.56271000  1
  Zn  Zn125  1  0.52711200  0.84057000  0.51889900  1
  Zn  Zn126  1  0.01473400  0.87770400  0.50652100  1
  Zn  Zn127  1  0.01473400  0.31581400  0.50652100  1
  Zn  Zn128  1  0.57662300  0.31581400  0.50652100  1
  Zn  Zn129  1  0.68599900  0.18204800  0.59203900  1
  Zn  Zn130  1  0.95360800  0.07259700  0.59203900  1
  Zn  Zn131  1  0.79545000  0.34020600  0.59203900  1
  Zn  Zn132  1  0.17115200  0.38474600  0.57719200  1
  Zn  Zn133  1  0.13952000  0.74724900  0.54556100  1
  Zn  Zn134  1  0.98136300  0.47964000  0.54556100  1
  Zn  Zn135  1  0.22708100  0.27770200  0.52367000  1
  Zn  Zn136  1  0.01299400  0.65235500  0.57719200  1
  Zn  Zn137  1  0.38523900  0.54531100  0.52367000  1
  Zn  Zn138  1  0.28060300  0.54290300  0.57719200  1
  Zn  Zn139  1  0.95947200  0.70346900  0.52367000  1
  Zn  Zn140  1  0.40712900  0.32148300  0.54556100  1
  Zn  Zn141  1  0.78330100  0.21247600  0.63461500  1
  Zn  Zn142  1  0.39275200  0.79456400  0.60725300  1
  Zn  Zn143  1  0.61912400  0.79456400  0.60725300  1
  Zn  Zn144  1  0.39275200  0.02093700  0.60725300  1
  Zn  Zn145  1  0.94747700  0.63038700  0.66197800  1
  Zn  Zn146  1  0.17385000  0.40401500  0.66197800  1
  Zn  Zn147  1  0.17385000  0.63038700  0.66197800  1
  Zn  Zn148  1  0.72025300  0.66519000  0.65037700  1
  Zn  Zn149  1  0.37787300  0.16519000  0.65037700  1
  Zn  Zn150  1  0.22025300  0.82280900  0.65037700  1
  Zn  Zn151  1  0.18872900  0.25976200  0.61885300  1
  Zn  Zn152  1  0.34634900  0.60214200  0.61885300  1
  Zn  Zn153  1  0.84634900  0.75976200  0.61885300  1
  Zn  Zn154  1  0.43949000  0.88438100  0.65033200  1
  Zn  Zn155  1  0.95186800  0.84724800  0.66271000  1
  Zn  Zn156  1  0.95186800  0.40913700  0.66271000  1
  Zn  Zn157  1  0.38997800  0.40913700  0.66271000  1
  Zn  Zn158  1  0.12711200  0.54057000  0.61889900  1
  Zn  Zn159  1  0.61473400  0.57770400  0.60652100  1
  Zn  Zn160  1  0.61473400  0.01581400  0.60652100  1
  Zn  Zn161  1  0.17662300  0.01581400  0.60652100  1
  Zn  Zn162  1  0.28599900  0.88204800  0.69203900  1
  Zn  Zn163  1  0.55360800  0.77259700  0.69203900  1
  Zn  Zn164  1  0.39545000  0.04020600  0.69203900  1
  Zn  Zn165  1  0.77115200  0.08474600  0.67719200  1
  Zn  Zn166  1  0.73952000  0.44724900  0.64556100  1
  Zn  Zn167  1  0.58136300  0.17964000  0.64556100  1
  Zn  Zn168  1  0.82708100  0.97770200  0.62367000  1
  Zn  Zn169  1  0.61299400  0.35235500  0.67719200  1
  Zn  Zn170  1  0.98523900  0.24531100  0.62367000  1
  Zn  Zn171  1  0.88060300  0.24290300  0.67719200  1
  Zn  Zn172  1  0.55947200  0.40346900  0.62367000  1
  Zn  Zn173  1  0.00712900  0.02148300  0.64556100  1
  Zn  Zn174  1  0.38330100  0.91247600  0.73461500  1
  Zn  Zn175  1  0.99275200  0.49456400  0.70725300  1
  Zn  Zn176  1  0.21912400  0.49456400  0.70725300  1
  Zn  Zn177  1  0.99275200  0.72093700  0.70725300  1
  Zn  Zn178  1  0.54747700  0.33038700  0.76197800  1
  Zn  Zn179  1  0.77385000  0.10401500  0.76197800  1
  Zn  Zn180  1  0.77385000  0.33038700  0.76197800  1
  Zn  Zn181  1  0.32025300  0.36519000  0.75037700  1
  Zn  Zn182  1  0.97787300  0.86519000  0.75037700  1
  Zn  Zn183  1  0.82025300  0.52280900  0.75037700  1
  Zn  Zn184  1  0.78872900  0.95976200  0.71885300  1
  Zn  Zn185  1  0.94634900  0.30214200  0.71885300  1
  Zn  Zn186  1  0.44634900  0.45976200  0.71885300  1
  Zn  Zn187  1  0.03949000  0.58438100  0.75033200  1
  Zn  Zn188  1  0.55186800  0.54724800  0.76271000  1
  Zn  Zn189  1  0.55186800  0.10913700  0.76271000  1
  Zn  Zn190  1  0.98997800  0.10913700  0.76271000  1
  Zn  Zn191  1  0.72711200  0.24057000  0.71889900  1
  Zn  Zn192  1  0.21473400  0.27770400  0.70652100  1
  Zn  Zn193  1  0.21473400  0.71581400  0.70652100  1
  Zn  Zn194  1  0.77662300  0.71581400  0.70652100  1
  Zn  Zn195  1  0.88599900  0.58204800  0.79203900  1
  Zn  Zn196  1  0.15360800  0.47259700  0.79203900  1
  Zn  Zn197  1  0.99545000  0.74020600  0.79203900  1
  Zn  Zn198  1  0.37115200  0.78474600  0.77719200  1
  Zn  Zn199  1  0.33952000  0.14724900  0.74556100  1
  Zn  Zn200  1  0.18136300  0.87964000  0.74556100  1
  Zn  Zn201  1  0.42708100  0.67770200  0.72367000  1
  Zn  Zn202  1  0.21299400  0.05235500  0.77719200  1
  Zn  Zn203  1  0.58523900  0.94531100  0.72367000  1
  Zn  Zn204  1  0.48060300  0.94290300  0.77719200  1
  Zn  Zn205  1  0.15947200  0.10346900  0.72367000  1
  Zn  Zn206  1  0.60712900  0.72148300  0.74556100  1
