# generated using pymatgen
data_Mg125Ir28
_symmetry_space_group_name_H-M   'P 1'
_cell_length_a   18.30800199
_cell_length_b   18.30800171
_cell_length_c   46.43980600
_cell_angle_alpha   90.32248290
_cell_angle_beta   89.67751711
_cell_angle_gamma   78.71339112
_symmetry_Int_Tables_number   1
_chemical_formula_structural   Mg125Ir28
_chemical_formula_sum   'Mg375 Ir84'
_cell_volume   15264.19257997
_cell_formula_units_Z   3
loop_
 _symmetry_equiv_pos_site_id
 _symmetry_equiv_pos_as_xyz
  1  'x, y, z'
loop_
 _atom_site_type_symbol
 _atom_site_label
 _atom_site_symmetry_multiplicity
 _atom_site_fract_x
 _atom_site_fract_y
 _atom_site_fract_z
 _atom_site_occupancy
  Mg  Mg0  1  0.81751400  0.01582000  0.26367200  1
  Mg  Mg1  1  0.02584700  0.64082000  0.28450500  1
  Mg  Mg2  1  0.31751400  0.51582000  0.26367200  1
  Mg  Mg3  1  0.90084700  0.76582000  0.22200500  1
  Mg  Mg4  1  0.77108700  0.86145500  0.25752100  1
  Mg  Mg5  1  0.89707600  0.76959100  0.28639100  1
  Mg  Mg6  1  0.72187800  0.97891300  0.21585400  1
  Mg  Mg7  1  0.28060700  0.42018400  0.31149000  1
  Mg  Mg8  1  0.15461800  0.51204900  0.28262000  1
  Mg  Mg9  1  0.07981600  0.55272600  0.22815600  1
  Mg  Mg10  1  0.17168000  0.82832000  0.27408900  1
  Mg  Mg11  1  0.06940100  0.75577500  0.23869100  1
  Mg  Mg12  1  0.08542900  0.39124500  0.31021800  1
  Mg  Mg13  1  0.28589600  0.34928800  0.25194200  1
  Mg  Mg14  1  0.19441800  0.66224100  0.26971600  1
  Mg  Mg15  1  0.91322100  0.59493600  0.23985500  1
  Mg  Mg16  1  0.96626500  0.89039500  0.25879300  1
  Mg  Mg17  1  0.56997800  0.06520500  0.23490000  1
  Mg  Mg18  1  0.85727600  0.61939800  0.29929500  1
  Mg  Mg19  1  0.23418000  0.26582000  0.30533900  1
  Mg  Mg20  1  0.73418000  0.76582000  0.30533900  1
  Mg  Mg21  1  0.10918000  0.39082000  0.24283900  1
  Mg  Mg22  1  0.31751400  0.01582000  0.26367200  1
  Mg  Mg23  1  0.60918000  0.89082000  0.24283900  1
  Mg  Mg24  1  0.18775300  0.11145500  0.29918700  1
  Mg  Mg25  1  0.13854500  0.22891300  0.25752100  1
  Mg  Mg26  1  0.44727400  0.92018400  0.22815600  1
  Mg  Mg27  1  0.49648200  0.80272600  0.26982300  1
  Mg  Mg28  1  0.46334700  0.20332000  0.25325500  1
  Mg  Mg29  1  0.48606800  0.00577500  0.28035700  1
  Mg  Mg30  1  0.25209600  0.89124500  0.22688400  1
  Mg  Mg31  1  0.64838300  0.71643400  0.25077700  1
  Mg  Mg32  1  0.70256200  0.59928800  0.29360800  1
  Mg  Mg33  1  0.61108500  0.91224100  0.31138300  1
  Mg  Mg34  1  0.32988800  0.84493600  0.28152200  1
  Mg  Mg35  1  0.14895900  0.02586500  0.24698600  1
  Mg  Mg36  1  0.38293100  0.14039500  0.30045900  1
  Mg  Mg37  1  0.98664500  0.31520500  0.27656700  1
  Mg  Mg38  1  0.93246500  0.43235200  0.23373600  1
  Mg  Mg39  1  0.02394200  0.11939800  0.21596100  1
  Mg  Mg40  1  0.30513900  0.18670400  0.24582200  1
  Mg  Mg41  1  0.40084700  0.76582000  0.22200500  1
  Mg  Mg42  1  0.60918000  0.39082000  0.24283900  1
  Mg  Mg43  1  0.90084700  0.26582000  0.22200500  1
  Mg  Mg44  1  0.52584700  0.64082000  0.28450500  1
  Mg  Mg45  1  0.73418000  0.26582000  0.30533900  1
  Mg  Mg46  1  0.02584700  0.14082000  0.28450500  1
  Mg  Mg47  1  0.35442000  0.61145500  0.21585400  1
  Mg  Mg48  1  0.48040900  0.51959100  0.24472400  1
  Mg  Mg49  1  0.55521100  0.47891300  0.29918700  1
  Mg  Mg50  1  0.86394100  0.17018400  0.26982300  1
  Mg  Mg51  1  0.73795100  0.26204900  0.24095300  1
  Mg  Mg52  1  0.91314900  0.05272600  0.31149000  1
  Mg  Mg53  1  0.88001400  0.45332000  0.29492200  1
  Mg  Mg54  1  0.75501400  0.57832000  0.23242200  1
  Mg  Mg55  1  0.66876300  0.14124500  0.26855100  1
  Mg  Mg56  1  0.06504900  0.96643400  0.29244300  1
  Mg  Mg57  1  0.77775200  0.41224100  0.22804900  1
  Mg  Mg58  1  0.56562600  0.27586500  0.28865300  1
  Mg  Mg59  1  0.54959800  0.64039500  0.21712600  1
  Mg  Mg60  1  0.34913200  0.68235200  0.27540200  1
  Mg  Mg61  1  0.44060900  0.36939800  0.25762800  1
  Mg  Mg62  1  0.72180600  0.43670400  0.28748800  1
  Mg  Mg63  1  0.06751400  0.76582000  0.38867200  1
  Mg  Mg64  1  0.27584700  0.39082000  0.40950500  1
  Mg  Mg65  1  0.56751400  0.26582000  0.38867200  1
  Mg  Mg66  1  0.94251400  0.89082000  0.32617200  1
  Mg  Mg67  1  0.15084700  0.51582000  0.34700500  1
  Mg  Mg68  1  0.44251400  0.39082000  0.32617200  1
  Mg  Mg69  1  0.02108700  0.61145500  0.38252100  1
  Mg  Mg70  1  0.14707600  0.51959100  0.41139100  1
  Mg  Mg71  1  0.97187800  0.72891300  0.34085400  1
  Mg  Mg72  1  0.53060700  0.17018400  0.43649000  1
  Mg  Mg73  1  0.40461800  0.26204900  0.40762000  1
  Mg  Mg74  1  0.32981600  0.30272600  0.35315600  1
  Mg  Mg75  1  0.29668000  0.70332000  0.33658900  1
  Mg  Mg76  1  0.42168000  0.57832000  0.39908900  1
  Mg  Mg77  1  0.31940100  0.50577500  0.36369100  1
  Mg  Mg78  1  0.33542900  0.14124500  0.43521800  1
  Mg  Mg79  1  0.48171600  0.21643400  0.33411000  1
  Mg  Mg80  1  0.53589600  0.09928800  0.37694200  1
  Mg  Mg81  1  0.44441800  0.41224100  0.39471600  1
  Mg  Mg82  1  0.16322100  0.34493600  0.36485500  1
  Mg  Mg83  1  0.98229300  0.52586500  0.33032000  1
  Mg  Mg84  1  0.21626500  0.64039500  0.38379300  1
  Mg  Mg85  1  0.81997800  0.81520500  0.35990000  1
  Mg  Mg86  1  0.76579800  0.93235200  0.31706900  1
  Mg  Mg87  1  0.10727600  0.36939800  0.42429500  1
  Mg  Mg88  1  0.13847200  0.68670400  0.32915500  1
  Mg  Mg89  1  0.48418000  0.01582000  0.43033900  1
  Mg  Mg90  1  0.44251400  0.89082000  0.32617200  1
  Mg  Mg91  1  0.98418000  0.51582000  0.43033900  1
  Mg  Mg92  1  0.35918000  0.14082000  0.36783900  1
  Mg  Mg93  1  0.56751400  0.76582000  0.38867200  1
  Mg  Mg94  1  0.85918000  0.64082000  0.36783900  1
  Mg  Mg95  1  0.43775300  0.86145500  0.42418700  1
  Mg  Mg96  1  0.31374300  0.01959100  0.32805700  1
  Mg  Mg97  1  0.38854500  0.97891300  0.38252100  1
  Mg  Mg98  1  0.69727400  0.67018400  0.35315600  1
  Mg  Mg99  1  0.57128500  0.76204900  0.32428600  1
  Mg  Mg100  1  0.74648200  0.55272600  0.39482300  1
  Mg  Mg101  1  0.71334700  0.95332000  0.37825500  1
  Mg  Mg102  1  0.58834700  0.07832000  0.31575500  1
  Mg  Mg103  1  0.73606800  0.75577500  0.40535700  1
  Mg  Mg104  1  0.50209600  0.64124500  0.35188400  1
  Mg  Mg105  1  0.89838300  0.46643400  0.37577700  1
  Mg  Mg106  1  0.95256200  0.34928800  0.41860800  1
  Mg  Mg107  1  0.86108500  0.66224100  0.43638300  1
  Mg  Mg108  1  0.57988800  0.59493600  0.40652200  1
  Mg  Mg109  1  0.39895900  0.77586500  0.37198600  1
  Mg  Mg110  1  0.63293100  0.89039500  0.42545900  1
  Mg  Mg111  1  0.23664500  0.06520500  0.40156700  1
  Mg  Mg112  1  0.18246500  0.18235200  0.35873600  1
  Mg  Mg113  1  0.27394200  0.86939800  0.34096100  1
  Mg  Mg114  1  0.55513900  0.93670400  0.37082200  1
  Mg  Mg115  1  0.65084700  0.51582000  0.34700500  1
  Mg  Mg116  1  0.85918000  0.14082000  0.36783900  1
  Mg  Mg117  1  0.15084700  0.01582000  0.34700500  1
  Mg  Mg118  1  0.77584700  0.39082000  0.40950500  1
  Mg  Mg119  1  0.98418000  0.01582000  0.43033900  1
  Mg  Mg120  1  0.27584700  0.89082000  0.40950500  1
  Mg  Mg121  1  0.60442000  0.36145500  0.34085400  1
  Mg  Mg122  1  0.73040900  0.26959100  0.36972400  1
  Mg  Mg123  1  0.80521100  0.22891300  0.42418700  1
  Mg  Mg124  1  0.11394100  0.92018400  0.39482300  1
  Mg  Mg125  1  0.98795100  0.01204900  0.36595300  1
  Mg  Mg126  1  0.16314900  0.80272600  0.43649000  1
  Mg  Mg127  1  0.13001400  0.20332000  0.41992200  1
  Mg  Mg128  1  0.00501400  0.32832000  0.35742200  1
  Mg  Mg129  1  0.90273400  0.25577500  0.32202400  1
  Mg  Mg130  1  0.91876300  0.89124500  0.39355100  1
  Mg  Mg131  1  0.31504900  0.71643400  0.41744300  1
  Mg  Mg132  1  0.11922900  0.84928800  0.33527500  1
  Mg  Mg133  1  0.02775200  0.16224100  0.35304900  1
  Mg  Mg134  1  0.74655500  0.09493600  0.32318900  1
  Mg  Mg135  1  0.81562600  0.02586500  0.41365300  1
  Mg  Mg136  1  0.79959800  0.39039500  0.34212600  1
  Mg  Mg137  1  0.40331100  0.56520500  0.31823400  1
  Mg  Mg138  1  0.59913200  0.43235200  0.40040200  1
  Mg  Mg139  1  0.69060900  0.11939800  0.38262800  1
  Mg  Mg140  1  0.97180600  0.18670400  0.41248800  1
  Mg  Mg141  1  0.31751400  0.51582000  0.51367200  1
  Mg  Mg142  1  0.52584700  0.14082000  0.53450500  1
  Mg  Mg143  1  0.81751400  0.01582000  0.51367200  1
  Mg  Mg144  1  0.19251400  0.64082000  0.45117200  1
  Mg  Mg145  1  0.40084700  0.26582000  0.47200500  1
  Mg  Mg146  1  0.69251400  0.14082000  0.45117200  1
  Mg  Mg147  1  0.27108700  0.36145500  0.50752100  1
  Mg  Mg148  1  0.39707600  0.26959100  0.53639100  1
  Mg  Mg149  1  0.22187800  0.47891300  0.46585400  1
  Mg  Mg150  1  0.78060700  0.92018400  0.56149000  1
  Mg  Mg151  1  0.65461800  0.01204900  0.53262000  1
  Mg  Mg152  1  0.57981600  0.05272600  0.47815600  1
  Mg  Mg153  1  0.54668000  0.45332000  0.46158900  1
  Mg  Mg154  1  0.67168000  0.32832000  0.52408900  1
  Mg  Mg155  1  0.56940100  0.25577500  0.48869100  1
  Mg  Mg156  1  0.58542900  0.89124500  0.56021800  1
  Mg  Mg157  1  0.73171600  0.96643400  0.45911000  1
  Mg  Mg158  1  0.78589600  0.84928800  0.50194200  1
  Mg  Mg159  1  0.69441800  0.16224100  0.51971600  1
  Mg  Mg160  1  0.41322100  0.09493600  0.48985500  1
  Mg  Mg161  1  0.23229300  0.27586500  0.45532000  1
  Mg  Mg162  1  0.46626500  0.39039500  0.50879300  1
  Mg  Mg163  1  0.06997800  0.56520500  0.48490000  1
  Mg  Mg164  1  0.01579800  0.68235200  0.44206900  1
  Mg  Mg165  1  0.35727600  0.11939800  0.54929500  1
  Mg  Mg166  1  0.38847200  0.43670400  0.45415500  1
  Mg  Mg167  1  0.73418000  0.76582000  0.55533900  1
  Mg  Mg168  1  0.69251400  0.64082000  0.45117200  1
  Mg  Mg169  1  0.23418000  0.26582000  0.55533900  1
  Mg  Mg170  1  0.60918000  0.89082000  0.49283900  1
  Mg  Mg171  1  0.81751400  0.51582000  0.51367200  1
  Mg  Mg172  1  0.10918000  0.39082000  0.49283900  1
  Mg  Mg173  1  0.68775300  0.61145500  0.54918700  1
  Mg  Mg174  1  0.56374300  0.76959100  0.45305700  1
  Mg  Mg175  1  0.63854500  0.72891300  0.50752100  1
  Mg  Mg176  1  0.94727400  0.42018400  0.47815600  1
  Mg  Mg177  1  0.82128500  0.51204900  0.44928600  1
  Mg  Mg178  1  0.99648200  0.30272600  0.51982300  1
  Mg  Mg179  1  0.96334700  0.70332000  0.50325500  1
  Mg  Mg180  1  0.83834700  0.82832000  0.44075500  1
  Mg  Mg181  1  0.98606800  0.50577500  0.53035700  1
  Mg  Mg182  1  0.75209600  0.39124500  0.47688400  1
  Mg  Mg183  1  0.14838300  0.21643400  0.50077700  1
  Mg  Mg184  1  0.20256200  0.09928800  0.54360800  1
  Mg  Mg185  1  0.11108500  0.41224100  0.56138300  1
  Mg  Mg186  1  0.82988800  0.34493600  0.53152200  1
  Mg  Mg187  1  0.64895900  0.52586500  0.49698600  1
  Mg  Mg188  1  0.88293100  0.64039500  0.55045900  1
  Mg  Mg189  1  0.48664500  0.81520500  0.52656700  1
  Mg  Mg190  1  0.43246500  0.93235200  0.48373600  1
  Mg  Mg191  1  0.52394200  0.61939800  0.46596100  1
  Mg  Mg192  1  0.80513900  0.68670400  0.49582200  1
  Mg  Mg193  1  0.90084700  0.26582000  0.47200500  1
  Mg  Mg194  1  0.10918000  0.89082000  0.49283900  1
  Mg  Mg195  1  0.40084700  0.76582000  0.47200500  1
  Mg  Mg196  1  0.02584700  0.14082000  0.53450500  1
  Mg  Mg197  1  0.23418000  0.76582000  0.55533900  1
  Mg  Mg198  1  0.52584700  0.64082000  0.53450500  1
  Mg  Mg199  1  0.85442000  0.11145500  0.46585400  1
  Mg  Mg200  1  0.98040900  0.01959100  0.49472400  1
  Mg  Mg201  1  0.05521100  0.97891300  0.54918700  1
  Mg  Mg202  1  0.36394100  0.67018400  0.51982300  1
  Mg  Mg203  1  0.23795100  0.76204900  0.49095300  1
  Mg  Mg204  1  0.41314900  0.55272600  0.56149000  1
  Mg  Mg205  1  0.38001400  0.95332000  0.54492200  1
  Mg  Mg206  1  0.25501400  0.07832000  0.48242200  1
  Mg  Mg207  1  0.15273400  0.00577500  0.44702400  1
  Mg  Mg208  1  0.16876300  0.64124500  0.51855100  1
  Mg  Mg209  1  0.56504900  0.46643400  0.54244300  1
  Mg  Mg210  1  0.36922900  0.59928800  0.46027500  1
  Mg  Mg211  1  0.27775200  0.91224100  0.47804900  1
  Mg  Mg212  1  0.99655500  0.84493600  0.44818900  1
  Mg  Mg213  1  0.06562600  0.77586500  0.53865300  1
  Mg  Mg214  1  0.04959800  0.14039500  0.46712600  1
  Mg  Mg215  1  0.65331100  0.31520500  0.44323400  1
  Mg  Mg216  1  0.84913200  0.18235200  0.52540200  1
  Mg  Mg217  1  0.94060900  0.86939800  0.50762800  1
  Mg  Mg218  1  0.22180600  0.93670400  0.53748800  1
  Mg  Mg219  1  0.56751400  0.26582000  0.63867200  1
  Mg  Mg220  1  0.77584700  0.89082000  0.65950500  1
  Mg  Mg221  1  0.06751400  0.76582000  0.63867200  1
  Mg  Mg222  1  0.44251400  0.39082000  0.57617200  1
  Mg  Mg223  1  0.65084700  0.01582000  0.59700500  1
  Mg  Mg224  1  0.94251400  0.89082000  0.57617200  1
  Mg  Mg225  1  0.52108700  0.11145500  0.63252100  1
  Mg  Mg226  1  0.64707600  0.01959100  0.66139100  1
  Mg  Mg227  1  0.47187800  0.22891300  0.59085400  1
  Mg  Mg228  1  0.03060700  0.67018400  0.68649000  1
  Mg  Mg229  1  0.90461800  0.76204900  0.65762000  1
  Mg  Mg230  1  0.82981600  0.80272600  0.60315600  1
  Mg  Mg231  1  0.79668000  0.20332000  0.58658900  1
  Mg  Mg232  1  0.92168000  0.07832000  0.64908900  1
  Mg  Mg233  1  0.81940100  0.00577500  0.61369100  1
  Mg  Mg234  1  0.83542900  0.64124500  0.68521800  1
  Mg  Mg235  1  0.98171600  0.71643400  0.58411000  1
  Mg  Mg236  1  0.03589600  0.59928800  0.62694200  1
  Mg  Mg237  1  0.94441800  0.91224100  0.64471600  1
  Mg  Mg238  1  0.66322100  0.84493600  0.61485500  1
  Mg  Mg239  1  0.48229300  0.02586500  0.58032000  1
  Mg  Mg240  1  0.71626500  0.14039500  0.63379300  1
  Mg  Mg241  1  0.31997800  0.31520500  0.60990000  1
  Mg  Mg242  1  0.26579800  0.43235200  0.56706900  1
  Mg  Mg243  1  0.60727600  0.86939800  0.67429500  1
  Mg  Mg244  1  0.63847200  0.18670400  0.57915500  1
  Mg  Mg245  1  0.98418000  0.51582000  0.68033900  1
  Mg  Mg246  1  0.94251400  0.39082000  0.57617200  1
  Mg  Mg247  1  0.48418000  0.01582000  0.68033900  1
  Mg  Mg248  1  0.85918000  0.64082000  0.61783900  1
  Mg  Mg249  1  0.06751400  0.26582000  0.63867200  1
  Mg  Mg250  1  0.35918000  0.14082000  0.61783900  1
  Mg  Mg251  1  0.93775300  0.36145500  0.67418700  1
  Mg  Mg252  1  0.81374300  0.51959100  0.57805700  1
  Mg  Mg253  1  0.88854500  0.47891300  0.63252100  1
  Mg  Mg254  1  0.19727400  0.17018400  0.60315600  1
  Mg  Mg255  1  0.07128500  0.26204900  0.57428600  1
  Mg  Mg256  1  0.24648200  0.05272600  0.64482300  1
  Mg  Mg257  1  0.21334700  0.45332000  0.62825500  1
  Mg  Mg258  1  0.08834700  0.57832000  0.56575500  1
  Mg  Mg259  1  0.23606800  0.25577500  0.65535700  1
  Mg  Mg260  1  0.00209600  0.14124500  0.60188400  1
  Mg  Mg261  1  0.39838300  0.96643400  0.62577700  1
  Mg  Mg262  1  0.45256200  0.84928800  0.66860800  1
  Mg  Mg263  1  0.36108500  0.16224100  0.68638300  1
  Mg  Mg264  1  0.07988800  0.09493600  0.65652200  1
  Mg  Mg265  1  0.89895900  0.27586500  0.62198600  1
  Mg  Mg266  1  0.13293100  0.39039500  0.67545900  1
  Mg  Mg267  1  0.73664500  0.56520500  0.65156700  1
  Mg  Mg268  1  0.68246500  0.68235200  0.60873600  1
  Mg  Mg269  1  0.77394200  0.36939800  0.59096100  1
  Mg  Mg270  1  0.05513900  0.43670400  0.62082200  1
  Mg  Mg271  1  0.15084700  0.01582000  0.59700500  1
  Mg  Mg272  1  0.35918000  0.64082000  0.61783900  1
  Mg  Mg273  1  0.65084700  0.51582000  0.59700500  1
  Mg  Mg274  1  0.27584700  0.89082000  0.65950500  1
  Mg  Mg275  1  0.48418000  0.51582000  0.68033900  1
  Mg  Mg276  1  0.77584700  0.39082000  0.65950500  1
  Mg  Mg277  1  0.10442000  0.86145500  0.59085400  1
  Mg  Mg278  1  0.23040900  0.76959100  0.61972400  1
  Mg  Mg279  1  0.30521100  0.72891300  0.67418700  1
  Mg  Mg280  1  0.61394100  0.42018400  0.64482300  1
  Mg  Mg281  1  0.48795100  0.51204900  0.61595300  1
  Mg  Mg282  1  0.66314900  0.30272600  0.68649000  1
  Mg  Mg283  1  0.63001400  0.70332000  0.66992200  1
  Mg  Mg284  1  0.50501400  0.82832000  0.60742200  1
  Mg  Mg285  1  0.40273400  0.75577500  0.57202400  1
  Mg  Mg286  1  0.41876300  0.39124500  0.64355100  1
  Mg  Mg287  1  0.81504900  0.21643400  0.66744300  1
  Mg  Mg288  1  0.61922900  0.34928800  0.58527500  1
  Mg  Mg289  1  0.52775200  0.66224100  0.60304900  1
  Mg  Mg290  1  0.24655500  0.59493600  0.57318900  1
  Mg  Mg291  1  0.31562600  0.52586500  0.66365300  1
  Mg  Mg292  1  0.29959800  0.89039500  0.59212600  1
  Mg  Mg293  1  0.90331100  0.06520500  0.56823400  1
  Mg  Mg294  1  0.09913200  0.93235200  0.65040200  1
  Mg  Mg295  1  0.19060900  0.61939800  0.63262800  1
  Mg  Mg296  1  0.47180600  0.68670400  0.66248800  1
  Mg  Mg297  1  0.81751400  0.01582000  0.76367200  1
  Mg  Mg298  1  0.02584700  0.64082000  0.78450500  1
  Mg  Mg299  1  0.31751400  0.51582000  0.76367200  1
  Mg  Mg300  1  0.69251400  0.14082000  0.70117200  1
  Mg  Mg301  1  0.90084700  0.76582000  0.72200500  1
  Mg  Mg302  1  0.19251400  0.64082000  0.70117200  1
  Mg  Mg303  1  0.77108700  0.86145500  0.75752100  1
  Mg  Mg304  1  0.89707600  0.76959100  0.78639100  1
  Mg  Mg305  1  0.72187800  0.97891300  0.71585400  1
  Mg  Mg306  1  0.28060700  0.42018400  0.81149000  1
  Mg  Mg307  1  0.15461800  0.51204900  0.78262000  1
  Mg  Mg308  1  0.07981600  0.55272600  0.72815600  1
  Mg  Mg309  1  0.04668000  0.95332000  0.71158900  1
  Mg  Mg310  1  0.17168000  0.82832000  0.77408900  1
  Mg  Mg311  1  0.06940100  0.75577500  0.73869100  1
  Mg  Mg312  1  0.08542900  0.39124500  0.81021800  1
  Mg  Mg313  1  0.23171600  0.46643400  0.70911000  1
  Mg  Mg314  1  0.28589600  0.34928800  0.75194200  1
  Mg  Mg315  1  0.19441800  0.66224100  0.76971600  1
  Mg  Mg316  1  0.91322100  0.59493600  0.73985500  1
  Mg  Mg317  1  0.73229300  0.77586500  0.70532000  1
  Mg  Mg318  1  0.96626500  0.89039500  0.75879300  1
  Mg  Mg319  1  0.56997800  0.06520500  0.73490000  1
  Mg  Mg320  1  0.51579800  0.18235200  0.69206900  1
  Mg  Mg321  1  0.85727600  0.61939800  0.79929500  1
  Mg  Mg322  1  0.88847200  0.93670400  0.70415500  1
  Mg  Mg323  1  0.23418000  0.26582000  0.80533900  1
  Mg  Mg324  1  0.19251400  0.14082000  0.70117200  1
  Mg  Mg325  1  0.73418000  0.76582000  0.80533900  1
  Mg  Mg326  1  0.10918000  0.39082000  0.74283900  1
  Mg  Mg327  1  0.31751400  0.01582000  0.76367200  1
  Mg  Mg328  1  0.60918000  0.89082000  0.74283900  1
  Mg  Mg329  1  0.18775300  0.11145500  0.79918700  1
  Mg  Mg330  1  0.06374300  0.26959100  0.70305700  1
  Mg  Mg331  1  0.13854500  0.22891300  0.75752100  1
  Mg  Mg332  1  0.44727400  0.92018400  0.72815600  1
  Mg  Mg333  1  0.32128500  0.01204900  0.69928600  1
  Mg  Mg334  1  0.49648200  0.80272600  0.76982300  1
  Mg  Mg335  1  0.46334700  0.20332000  0.75325500  1
  Mg  Mg336  1  0.33834700  0.32832000  0.69075500  1
  Mg  Mg337  1  0.48606800  0.00577500  0.78035700  1
  Mg  Mg338  1  0.25209600  0.89124500  0.72688400  1
  Mg  Mg339  1  0.64838300  0.71643400  0.75077700  1
  Mg  Mg340  1  0.70256200  0.59928800  0.79360800  1
  Mg  Mg341  1  0.61108500  0.91224100  0.81138300  1
  Mg  Mg342  1  0.32988800  0.84493600  0.78152200  1
  Mg  Mg343  1  0.14895900  0.02586500  0.74698600  1
  Mg  Mg344  1  0.38293100  0.14039500  0.80045900  1
  Mg  Mg345  1  0.98664500  0.31520500  0.77656700  1
  Mg  Mg346  1  0.93246500  0.43235200  0.73373600  1
  Mg  Mg347  1  0.02394200  0.11939800  0.71596100  1
  Mg  Mg348  1  0.30513900  0.18670400  0.74582200  1
  Mg  Mg349  1  0.40084700  0.76582000  0.72200500  1
  Mg  Mg350  1  0.60918000  0.39082000  0.74283900  1
  Mg  Mg351  1  0.90084700  0.26582000  0.72200500  1
  Mg  Mg352  1  0.52584700  0.64082000  0.78450500  1
  Mg  Mg353  1  0.73418000  0.26582000  0.80533900  1
  Mg  Mg354  1  0.02584700  0.14082000  0.78450500  1
  Mg  Mg355  1  0.35442000  0.61145500  0.71585400  1
  Mg  Mg356  1  0.48040900  0.51959100  0.74472400  1
  Mg  Mg357  1  0.55521100  0.47891300  0.79918700  1
  Mg  Mg358  1  0.86394100  0.17018400  0.76982300  1
  Mg  Mg359  1  0.73795100  0.26204900  0.74095300  1
  Mg  Mg360  1  0.91314900  0.05272600  0.81149000  1
  Mg  Mg361  1  0.88001400  0.45332000  0.79492200  1
  Mg  Mg362  1  0.75501400  0.57832000  0.73242200  1
  Mg  Mg363  1  0.65273400  0.50577500  0.69702400  1
  Mg  Mg364  1  0.66876300  0.14124500  0.76855100  1
  Mg  Mg365  1  0.06504900  0.96643400  0.79244300  1
  Mg  Mg366  1  0.86922900  0.09928800  0.71027500  1
  Mg  Mg367  1  0.77775200  0.41224100  0.72804900  1
  Mg  Mg368  1  0.49655500  0.34493600  0.69818900  1
  Mg  Mg369  1  0.56562600  0.27586500  0.78865300  1
  Mg  Mg370  1  0.54959800  0.64039500  0.71712600  1
  Mg  Mg371  1  0.15331100  0.81520500  0.69323400  1
  Mg  Mg372  1  0.34913200  0.68235200  0.77540200  1
  Mg  Mg373  1  0.44060900  0.36939800  0.75762800  1
  Mg  Mg374  1  0.72180600  0.43670400  0.78748800  1
  Ir  Ir375  1  0.79817600  0.70780800  0.25400300  1
  Ir  Ir376  1  0.67467200  0.99199400  0.27259300  1
  Ir  Ir377  1  0.04219200  0.78515700  0.29567000  1
  Ir  Ir378  1  0.37702200  0.28964500  0.29641800  1
  Ir  Ir379  1  0.00950200  0.49648200  0.27334100  1
  Ir  Ir380  1  0.21484300  0.95780800  0.29567000  1
  Ir  Ir381  1  0.42018400  0.07383200  0.23167400  1
  Ir  Ir382  1  0.25800600  0.74199400  0.23092600  1
  Ir  Ir383  1  0.62552600  0.53515700  0.25400300  1
  Ir  Ir384  1  0.83685100  0.32383200  0.27334100  1
  Ir  Ir385  1  0.96035500  0.03964500  0.25475100  1
  Ir  Ir386  1  0.59283500  0.24648200  0.23167400  1
  Ir  Ir387  1  0.04817600  0.45780800  0.37900300  1
  Ir  Ir388  1  0.92467200  0.74199400  0.39759300  1
  Ir  Ir389  1  0.29219200  0.53515700  0.42067000  1
  Ir  Ir390  1  0.25351800  0.57383200  0.31500700  1
  Ir  Ir391  1  0.62702200  0.03964500  0.42141800  1
  Ir  Ir392  1  0.25950200  0.24648200  0.39834100  1
  Ir  Ir393  1  0.46484300  0.70780800  0.42067000  1
  Ir  Ir394  1  0.09133900  0.24199400  0.31425900  1
  Ir  Ir395  1  0.45885900  0.03515700  0.33733700  1
  Ir  Ir396  1  0.67018400  0.82383200  0.35667400  1
  Ir  Ir397  1  0.79368800  0.53964500  0.33808500  1
  Ir  Ir398  1  0.42616800  0.74648200  0.31500700  1
  Ir  Ir399  1  0.63151000  0.20780800  0.33733700  1
  Ir  Ir400  1  0.50800600  0.49199400  0.35592600  1
  Ir  Ir401  1  0.87552600  0.28515700  0.37900300  1
  Ir  Ir402  1  0.08685100  0.07383200  0.39834100  1
  Ir  Ir403  1  0.21035500  0.78964500  0.37975100  1
  Ir  Ir404  1  0.84283500  0.99648200  0.35667400  1
  Ir  Ir405  1  0.29817600  0.20780800  0.50400300  1
  Ir  Ir406  1  0.17467200  0.49199400  0.52259300  1
  Ir  Ir407  1  0.54219200  0.28515700  0.54567000  1
  Ir  Ir408  1  0.50351800  0.32383200  0.44000700  1
  Ir  Ir409  1  0.87702200  0.78964500  0.54641800  1
  Ir  Ir410  1  0.50950200  0.99648200  0.52334100  1
  Ir  Ir411  1  0.71484300  0.45780800  0.54567000  1
  Ir  Ir412  1  0.34133900  0.99199400  0.43925900  1
  Ir  Ir413  1  0.70885900  0.78515700  0.46233700  1
  Ir  Ir414  1  0.92018400  0.57383200  0.48167400  1
  Ir  Ir415  1  0.04368800  0.28964500  0.46308500  1
  Ir  Ir416  1  0.67616800  0.49648200  0.44000700  1
  Ir  Ir417  1  0.88151000  0.95780800  0.46233700  1
  Ir  Ir418  1  0.75800600  0.24199400  0.48092600  1
  Ir  Ir419  1  0.12552600  0.03515700  0.50400300  1
  Ir  Ir420  1  0.33685100  0.82383200  0.52334100  1
  Ir  Ir421  1  0.46035500  0.53964500  0.50475100  1
  Ir  Ir422  1  0.09283500  0.74648200  0.48167400  1
  Ir  Ir423  1  0.54817600  0.95780800  0.62900300  1
  Ir  Ir424  1  0.42467200  0.24199400  0.64759300  1
  Ir  Ir425  1  0.79219200  0.03515700  0.67067000  1
  Ir  Ir426  1  0.75351800  0.07383200  0.56500700  1
  Ir  Ir427  1  0.12702200  0.53964500  0.67141800  1
  Ir  Ir428  1  0.75950200  0.74648200  0.64834100  1
  Ir  Ir429  1  0.96484300  0.20780800  0.67067000  1
  Ir  Ir430  1  0.59133900  0.74199400  0.56425900  1
  Ir  Ir431  1  0.95885900  0.53515700  0.58733700  1
  Ir  Ir432  1  0.17018400  0.32383200  0.60667400  1
  Ir  Ir433  1  0.29368800  0.03964500  0.58808500  1
  Ir  Ir434  1  0.92616800  0.24648200  0.56500700  1
  Ir  Ir435  1  0.13151000  0.70780800  0.58733700  1
  Ir  Ir436  1  0.00800600  0.99199400  0.60592600  1
  Ir  Ir437  1  0.37552600  0.78515700  0.62900300  1
  Ir  Ir438  1  0.58685100  0.57383200  0.64834100  1
  Ir  Ir439  1  0.71035500  0.28964500  0.62975100  1
  Ir  Ir440  1  0.34283500  0.49648200  0.60667400  1
  Ir  Ir441  1  0.79817600  0.70780800  0.75400300  1
  Ir  Ir442  1  0.67467200  0.99199400  0.77259300  1
  Ir  Ir443  1  0.04219200  0.78515700  0.79567000  1
  Ir  Ir444  1  0.00351800  0.82383200  0.69000700  1
  Ir  Ir445  1  0.37702200  0.28964500  0.79641800  1
  Ir  Ir446  1  0.00950200  0.49648200  0.77334100  1
  Ir  Ir447  1  0.21484300  0.95780800  0.79567000  1
  Ir  Ir448  1  0.84133900  0.49199400  0.68925900  1
  Ir  Ir449  1  0.20885900  0.28515700  0.71233700  1
  Ir  Ir450  1  0.42018400  0.07383200  0.73167400  1
  Ir  Ir451  1  0.54368800  0.78964500  0.71308500  1
  Ir  Ir452  1  0.17616800  0.99648200  0.69000700  1
  Ir  Ir453  1  0.38151000  0.45780800  0.71233700  1
  Ir  Ir454  1  0.25800600  0.74199400  0.73092600  1
  Ir  Ir455  1  0.62552600  0.53515700  0.75400300  1
  Ir  Ir456  1  0.83685100  0.32383200  0.77334100  1
  Ir  Ir457  1  0.96035500  0.03964500  0.75475100  1
  Ir  Ir458  1  0.59283500  0.24648200  0.73167400  1
