# generated using pymatgen
data_La16Mg3
_symmetry_space_group_name_H-M   'P 1'
_cell_length_a   3.76223900
_cell_length_b   3.76223900
_cell_length_c   73.88194800
_cell_angle_alpha   90.00000000
_cell_angle_beta   90.00000000
_cell_angle_gamma   90.00000000
_symmetry_Int_Tables_number   1
_chemical_formula_structural   La16Mg3
_chemical_formula_sum   'La16 Mg3'
_cell_volume   1045.75776947
_cell_formula_units_Z   1
loop_
 _symmetry_equiv_pos_site_id
 _symmetry_equiv_pos_as_xyz
  1  'x, y, z'
loop_
 _atom_site_type_symbol
 _atom_site_label
 _atom_site_symmetry_multiplicity
 _atom_site_fract_x
 _atom_site_fract_y
 _atom_site_fract_z
 _atom_site_occupancy
  La  La0  1  0.50000000  0.50000000  0.18001100  1
  La  La1  1  0.00000000  0.00000000  0.21557800  1
  La  La2  1  0.50000000  0.50000000  0.25108900  1
  La  La3  1  0.00000000  0.00000000  0.28665500  1
  La  La4  1  0.00000000  0.00000000  0.34667800  1
  La  La5  1  0.50000000  0.50000000  0.38224500  1
  La  La6  1  0.00000000  0.00000000  0.41775500  1
  La  La7  1  0.50000000  0.50000000  0.45332200  1
  La  La8  1  0.50000000  0.50000000  0.51334500  1
  La  La9  1  0.00000000  0.00000000  0.54891100  1
  La  La10  1  0.50000000  0.50000000  0.58442200  1
  La  La11  1  0.00000000  0.00000000  0.61998900  1
  La  La12  1  0.00000000  0.00000000  0.68001100  1
  La  La13  1  0.50000000  0.50000000  0.71557800  1
  La  La14  1  0.00000000  0.00000000  0.75108900  1
  La  La15  1  0.50000000  0.50000000  0.78665500  1
  Mg  Mg16  1  0.00000000  0.00000000  0.48333300  1
  Mg  Mg17  1  0.50000000  0.50000000  0.31666700  1
  Mg  Mg18  1  0.50000000  0.50000000  0.65000000  1
