# generated using pymatgen
data_Mg29Ga11
_symmetry_space_group_name_H-M   'P 1'
_cell_length_a   9.16112904
_cell_length_b   15.19729366
_cell_length_c   43.27204700
_cell_angle_alpha   89.39542574
_cell_angle_beta   90.04668781
_cell_angle_gamma   74.44431518
_symmetry_Int_Tables_number   1
_chemical_formula_structural   Mg29Ga11
_chemical_formula_sum   'Mg116 Ga44'
_cell_volume   5803.48213205
_cell_formula_units_Z   4
loop_
 _symmetry_equiv_pos_site_id
 _symmetry_equiv_pos_as_xyz
  1  'x, y, z'
loop_
 _atom_site_type_symbol
 _atom_site_label
 _atom_site_symmetry_multiplicity
 _atom_site_fract_x
 _atom_site_fract_y
 _atom_site_fract_z
 _atom_site_occupancy
  Mg  Mg0  1  0.76828300  0.32053200  0.29656000  1
  Mg  Mg1  1  0.21562400  0.05044500  0.23201100  1
  Mg  Mg2  1  0.74195300  0.93548800  0.26428600  1
  Mg  Mg3  1  0.84807800  0.19670700  0.23775400  1
  Mg  Mg4  1  0.33582900  0.22426900  0.24081700  1
  Mg  Mg5  1  0.13582900  0.17426900  0.29081700  1
  Mg  Mg6  1  0.64807800  0.14670700  0.28775400  1
  Mg  Mg7  1  0.90213800  0.51935900  0.26309700  1
  Mg  Mg8  1  0.08176900  0.85161800  0.26547500  1
  Mg  Mg9  1  0.46828300  0.87053200  0.24656000  1
  Mg  Mg10  1  0.51562400  0.50044500  0.28201100  1
  Mg  Mg11  1  0.24195300  0.43548800  0.26428600  1
  Mg  Mg12  1  0.14807800  0.64670700  0.28775400  1
  Mg  Mg13  1  0.63582900  0.67426900  0.29081700  1
  Mg  Mg14  1  0.83582900  0.72426900  0.24081700  1
  Mg  Mg15  1  0.34807800  0.69670700  0.23775400  1
  Mg  Mg16  1  0.20213800  0.96935900  0.31309700  1
  Mg  Mg17  1  0.38176900  0.30161800  0.31547500  1
  Mg  Mg18  1  0.36828300  0.22053200  0.39656000  1
  Mg  Mg19  1  0.81562400  0.95044500  0.33201100  1
  Mg  Mg20  1  0.54195300  0.88548800  0.31428600  1
  Mg  Mg21  1  0.34195300  0.83548800  0.36428600  1
  Mg  Mg22  1  0.44807800  0.09670700  0.33775400  1
  Mg  Mg23  1  0.93582900  0.12426900  0.34081700  1
  Mg  Mg24  1  0.73582900  0.07426900  0.39081700  1
  Mg  Mg25  1  0.24807800  0.04670700  0.38775400  1
  Mg  Mg26  1  0.50213800  0.41935900  0.36309700  1
  Mg  Mg27  1  0.68176900  0.75161800  0.36547500  1
  Mg  Mg28  1  0.06828300  0.77053200  0.34656000  1
  Mg  Mg29  1  0.11562400  0.40044500  0.38201100  1
  Mg  Mg30  1  0.84195300  0.33548800  0.36428600  1
  Mg  Mg31  1  0.04195300  0.38548800  0.31428600  1
  Mg  Mg32  1  0.74807800  0.54670700  0.38775400  1
  Mg  Mg33  1  0.23582900  0.57426900  0.39081700  1
  Mg  Mg34  1  0.43582900  0.62426900  0.34081700  1
  Mg  Mg35  1  0.94807800  0.59670700  0.33775400  1
  Mg  Mg36  1  0.80213800  0.86935900  0.41309700  1
  Mg  Mg37  1  0.98176900  0.20161800  0.41547500  1
  Mg  Mg38  1  0.96828300  0.12053200  0.49656000  1
  Mg  Mg39  1  0.41562400  0.85044500  0.43201100  1
  Mg  Mg40  1  0.14195300  0.78548800  0.41428600  1
  Mg  Mg41  1  0.94195300  0.73548800  0.46428600  1
  Mg  Mg42  1  0.04807800  0.99670700  0.43775400  1
  Mg  Mg43  1  0.53582900  0.02426900  0.44081700  1
  Mg  Mg44  1  0.33582900  0.97426900  0.49081700  1
  Mg  Mg45  1  0.84807800  0.94670700  0.48775400  1
  Mg  Mg46  1  0.10213800  0.31935900  0.46309700  1
  Mg  Mg47  1  0.28176900  0.65161800  0.46547500  1
  Mg  Mg48  1  0.66828300  0.67053200  0.44656000  1
  Mg  Mg49  1  0.71562400  0.30044500  0.48201100  1
  Mg  Mg50  1  0.44195300  0.23548800  0.46428600  1
  Mg  Mg51  1  0.64195300  0.28548800  0.41428600  1
  Mg  Mg52  1  0.34807800  0.44670700  0.48775400  1
  Mg  Mg53  1  0.83582900  0.47426900  0.49081700  1
  Mg  Mg54  1  0.03582900  0.52426900  0.44081700  1
  Mg  Mg55  1  0.54807800  0.49670700  0.43775400  1
  Mg  Mg56  1  0.40213800  0.76935900  0.51309700  1
  Mg  Mg57  1  0.58176900  0.10161800  0.51547500  1
  Mg  Mg58  1  0.56828300  0.02053200  0.59656000  1
  Mg  Mg59  1  0.01562400  0.75044500  0.53201100  1
  Mg  Mg60  1  0.74195300  0.68548800  0.51428600  1
  Mg  Mg61  1  0.54195300  0.63548800  0.56428600  1
  Mg  Mg62  1  0.64807800  0.89670700  0.53775400  1
  Mg  Mg63  1  0.13582900  0.92426900  0.54081700  1
  Mg  Mg64  1  0.93582900  0.87426900  0.59081700  1
  Mg  Mg65  1  0.44807800  0.84670700  0.58775400  1
  Mg  Mg66  1  0.70213800  0.21935900  0.56309700  1
  Mg  Mg67  1  0.88176900  0.55161800  0.56547500  1
  Mg  Mg68  1  0.26828300  0.57053200  0.54656000  1
  Mg  Mg69  1  0.31562400  0.20044500  0.58201100  1
  Mg  Mg70  1  0.04195300  0.13548800  0.56428600  1
  Mg  Mg71  1  0.24195300  0.18548800  0.51428600  1
  Mg  Mg72  1  0.94807800  0.34670700  0.58775400  1
  Mg  Mg73  1  0.43582900  0.37426900  0.59081700  1
  Mg  Mg74  1  0.63582900  0.42426900  0.54081700  1
  Mg  Mg75  1  0.14807800  0.39670700  0.53775400  1
  Mg  Mg76  1  0.00213800  0.66935900  0.61309700  1
  Mg  Mg77  1  0.18176900  0.00161800  0.61547500  1
  Mg  Mg78  1  0.16828300  0.92053200  0.69656000  1
  Mg  Mg79  1  0.61562400  0.65044500  0.63201100  1
  Mg  Mg80  1  0.34195300  0.58548800  0.61428600  1
  Mg  Mg81  1  0.14195300  0.53548800  0.66428600  1
  Mg  Mg82  1  0.24807800  0.79670700  0.63775400  1
  Mg  Mg83  1  0.73582900  0.82426900  0.64081700  1
  Mg  Mg84  1  0.53582900  0.77426900  0.69081700  1
  Mg  Mg85  1  0.04807800  0.74670700  0.68775400  1
  Mg  Mg86  1  0.30213800  0.11935900  0.66309700  1
  Mg  Mg87  1  0.48176900  0.45161800  0.66547500  1
  Mg  Mg88  1  0.86828300  0.47053200  0.64656000  1
  Mg  Mg89  1  0.91562400  0.10044500  0.68201100  1
  Mg  Mg90  1  0.64195300  0.03548800  0.66428600  1
  Mg  Mg91  1  0.84195300  0.08548800  0.61428600  1
  Mg  Mg92  1  0.54807800  0.24670700  0.68775400  1
  Mg  Mg93  1  0.03582900  0.27426900  0.69081700  1
  Mg  Mg94  1  0.23582900  0.32426900  0.64081700  1
  Mg  Mg95  1  0.74807800  0.29670700  0.63775400  1
  Mg  Mg96  1  0.60213800  0.56935900  0.71309700  1
  Mg  Mg97  1  0.78176900  0.90161800  0.71547500  1
  Mg  Mg98  1  0.76828300  0.82053200  0.79656000  1
  Mg  Mg99  1  0.21562400  0.55044500  0.73201100  1
  Mg  Mg100  1  0.94195300  0.48548800  0.71428600  1
  Mg  Mg101  1  0.74195300  0.43548800  0.76428600  1
  Mg  Mg102  1  0.84807800  0.69670700  0.73775400  1
  Mg  Mg103  1  0.33582900  0.72426900  0.74081700  1
  Mg  Mg104  1  0.13582900  0.67426900  0.79081700  1
  Mg  Mg105  1  0.64807800  0.64670700  0.78775400  1
  Mg  Mg106  1  0.90213800  0.01935900  0.76309700  1
  Mg  Mg107  1  0.08176900  0.35161800  0.76547500  1
  Mg  Mg108  1  0.46828300  0.37053200  0.74656000  1
  Mg  Mg109  1  0.51562400  0.00044500  0.78201100  1
  Mg  Mg110  1  0.24195300  0.93548800  0.76428600  1
  Mg  Mg111  1  0.44195300  0.98548800  0.71428600  1
  Mg  Mg112  1  0.14807800  0.14670700  0.78775400  1
  Mg  Mg113  1  0.63582900  0.17426900  0.79081700  1
  Mg  Mg114  1  0.83582900  0.22426900  0.74081700  1
  Mg  Mg115  1  0.34807800  0.19670700  0.73775400  1
  Ga  Ga116  1  0.94864800  0.04471700  0.27747000  1
  Ga  Ga117  1  0.03525800  0.32626000  0.25110100  1
  Ga  Ga118  1  0.54657900  0.32437300  0.25298800  1
  Ga  Ga119  1  0.43732800  0.04660400  0.27558400  1
  Ga  Ga120  1  0.54864800  0.94471700  0.37747000  1
  Ga  Ga121  1  0.63525800  0.22626000  0.35110100  1
  Ga  Ga122  1  0.14657900  0.22437300  0.35298800  1
  Ga  Ga123  1  0.03732800  0.94660400  0.37558400  1
  Ga  Ga124  1  0.24864800  0.49471700  0.32747000  1
  Ga  Ga125  1  0.33525800  0.77626000  0.30110100  1
  Ga  Ga126  1  0.84657900  0.77437300  0.30298800  1
  Ga  Ga127  1  0.73732800  0.49660400  0.32558400  1
  Ga  Ga128  1  0.14864800  0.84471700  0.47747000  1
  Ga  Ga129  1  0.23525800  0.12626000  0.45110100  1
  Ga  Ga130  1  0.74657900  0.12437300  0.45298800  1
  Ga  Ga131  1  0.63732800  0.84660400  0.47558400  1
  Ga  Ga132  1  0.84864800  0.39471700  0.42747000  1
  Ga  Ga133  1  0.93525800  0.67626000  0.40110100  1
  Ga  Ga134  1  0.44657900  0.67437300  0.40298800  1
  Ga  Ga135  1  0.33732800  0.39660400  0.42558400  1
  Ga  Ga136  1  0.74864800  0.74471700  0.57747000  1
  Ga  Ga137  1  0.83525800  0.02626000  0.55110100  1
  Ga  Ga138  1  0.34657900  0.02437300  0.55298800  1
  Ga  Ga139  1  0.23732800  0.74660400  0.57558400  1
  Ga  Ga140  1  0.44864800  0.29471700  0.52747000  1
  Ga  Ga141  1  0.53525800  0.57626000  0.50110100  1
  Ga  Ga142  1  0.04657900  0.57437300  0.50298800  1
  Ga  Ga143  1  0.93732800  0.29660400  0.52558400  1
  Ga  Ga144  1  0.34864800  0.64471700  0.67747000  1
  Ga  Ga145  1  0.43525800  0.92626000  0.65110100  1
  Ga  Ga146  1  0.94657900  0.92437300  0.65298800  1
  Ga  Ga147  1  0.83732800  0.64660400  0.67558400  1
  Ga  Ga148  1  0.04864800  0.19471700  0.62747000  1
  Ga  Ga149  1  0.13525800  0.47626000  0.60110100  1
  Ga  Ga150  1  0.64657900  0.47437300  0.60298800  1
  Ga  Ga151  1  0.53732800  0.19660400  0.62558400  1
  Ga  Ga152  1  0.94864800  0.54471700  0.77747000  1
  Ga  Ga153  1  0.03525800  0.82626000  0.75110100  1
  Ga  Ga154  1  0.54657900  0.82437300  0.75298800  1
  Ga  Ga155  1  0.43732800  0.54660400  0.77558400  1
  Ga  Ga156  1  0.64864800  0.09471700  0.72747000  1
  Ga  Ga157  1  0.73525800  0.37626000  0.70110100  1
  Ga  Ga158  1  0.24657900  0.37437300  0.70298800  1
  Ga  Ga159  1  0.13732800  0.09660400  0.72558400  1
