# generated using pymatgen
data_Ac7Mg34
_symmetry_space_group_name_H-M   'P 1'
_cell_length_a   6.16214200
_cell_length_b   7.92855799
_cell_length_c   43.83246800
_cell_angle_alpha   93.55246342
_cell_angle_beta   90.00000000
_cell_angle_gamma   67.13232301
_symmetry_Int_Tables_number   1
_chemical_formula_structural   Ac7Mg34
_chemical_formula_sum   'Ac7 Mg34'
_cell_volume   1968.73865814
_cell_formula_units_Z   1
loop_
 _symmetry_equiv_pos_site_id
 _symmetry_equiv_pos_as_xyz
  1  'x, y, z'
loop_
 _atom_site_type_symbol
 _atom_site_label
 _atom_site_symmetry_multiplicity
 _atom_site_fract_x
 _atom_site_fract_y
 _atom_site_fract_z
 _atom_site_occupancy
  Ac  Ac0  1  0.89583300  0.20833300  0.24305600  1
  Ac  Ac1  1  0.64583300  0.70833300  0.32638900  1
  Ac  Ac2  1  0.39583300  0.20833300  0.40972200  1
  Ac  Ac3  1  0.14583300  0.70833300  0.49305600  1
  Ac  Ac4  1  0.89583300  0.20833300  0.57638900  1
  Ac  Ac5  1  0.64583300  0.70833300  0.65972200  1
  Ac  Ac6  1  0.39583300  0.20833300  0.74305600  1
  Mg  Mg7  1  0.39583300  0.70833300  0.24305600  1
  Mg  Mg8  1  0.31250000  0.37500000  0.21527800  1
  Mg  Mg9  1  0.27083300  0.45833300  0.28472200  1
  Mg  Mg10  1  0.47916700  0.04166700  0.27083300  1
  Mg  Mg11  1  0.89583300  0.70833300  0.24305600  1
  Mg  Mg12  1  0.14583300  0.20833300  0.32638900  1
  Mg  Mg13  1  0.06250000  0.87500000  0.29861100  1
  Mg  Mg14  1  0.02083300  0.95833300  0.36805600  1
  Mg  Mg15  1  0.22916700  0.54166700  0.35416700  1
  Mg  Mg16  1  0.64583300  0.20833300  0.32638900  1
  Mg  Mg17  1  0.89583300  0.70833300  0.40972200  1
  Mg  Mg18  1  0.81250000  0.37500000  0.38194400  1
  Mg  Mg19  1  0.77083300  0.45833300  0.45138900  1
  Mg  Mg20  1  0.97916700  0.04166700  0.43750000  1
  Mg  Mg21  1  0.39583300  0.70833300  0.40972200  1
  Mg  Mg22  1  0.64583300  0.20833300  0.49305600  1
  Mg  Mg23  1  0.56250000  0.87500000  0.46527800  1
  Mg  Mg24  1  0.52083300  0.95833300  0.53472200  1
  Mg  Mg25  1  0.72916700  0.54166700  0.52083300  1
  Mg  Mg26  1  0.14583300  0.20833300  0.49305600  1
  Mg  Mg27  1  0.39583300  0.70833300  0.57638900  1
  Mg  Mg28  1  0.31250000  0.37500000  0.54861100  1
  Mg  Mg29  1  0.27083300  0.45833300  0.61805600  1
  Mg  Mg30  1  0.47916700  0.04166700  0.60416700  1
  Mg  Mg31  1  0.89583300  0.70833300  0.57638900  1
  Mg  Mg32  1  0.14583300  0.20833300  0.65972200  1
  Mg  Mg33  1  0.06250000  0.87500000  0.63194400  1
  Mg  Mg34  1  0.02083300  0.95833300  0.70138900  1
  Mg  Mg35  1  0.22916700  0.54166700  0.68750000  1
  Mg  Mg36  1  0.64583300  0.20833300  0.65972200  1
  Mg  Mg37  1  0.89583300  0.70833300  0.74305600  1
  Mg  Mg38  1  0.81250000  0.37500000  0.71527800  1
  Mg  Mg39  1  0.97916700  0.04166700  0.77083300  1
  Mg  Mg40  1  0.39583300  0.70833300  0.74305600  1
