# generated using pymatgen
data_Mg9Pb16
_symmetry_space_group_name_H-M   'P 1'
_cell_length_a   3.51663700
_cell_length_b   16.41991853
_cell_length_c   45.55389600
_cell_angle_alpha   80.19370075
_cell_angle_beta   90.00000000
_cell_angle_gamma   83.85272232
_symmetry_Int_Tables_number   1
_chemical_formula_structural   Mg9Pb16
_chemical_formula_sum   'Mg18 Pb32'
_cell_volume   2576.63056259
_cell_formula_units_Z   2
loop_
 _symmetry_equiv_pos_site_id
 _symmetry_equiv_pos_as_xyz
  1  'x, y, z'
loop_
 _atom_site_type_symbol
 _atom_site_label
 _atom_site_symmetry_multiplicity
 _atom_site_fract_x
 _atom_site_fract_y
 _atom_site_fract_z
 _atom_site_occupancy
  Mg  Mg0  1  0.98627500  0.20042000  0.25000000  1
  Mg  Mg1  1  0.24183100  0.68930900  0.26111100  1
  Mg  Mg2  1  0.51960900  0.13375400  0.31666700  1
  Mg  Mg3  1  0.77516400  0.62264300  0.32777800  1
  Mg  Mg4  1  0.05294200  0.06708700  0.38333300  1
  Mg  Mg5  1  0.30849800  0.55597600  0.39444400  1
  Mg  Mg6  1  0.58627500  0.00042000  0.45000000  1
  Mg  Mg7  1  0.84183100  0.48930900  0.46111100  1
  Mg  Mg8  1  0.11960900  0.93375400  0.51666700  1
  Mg  Mg9  1  0.37516400  0.42264300  0.52777800  1
  Mg  Mg10  1  0.65294200  0.86708700  0.58333300  1
  Mg  Mg11  1  0.90849800  0.35597600  0.59444400  1
  Mg  Mg12  1  0.18627500  0.80042000  0.65000000  1
  Mg  Mg13  1  0.44183100  0.28930900  0.66111100  1
  Mg  Mg14  1  0.71960900  0.73375400  0.71666700  1
  Mg  Mg15  1  0.97516400  0.22264300  0.72777800  1
  Mg  Mg16  1  0.25294200  0.66708700  0.78333300  1
  Mg  Mg17  1  0.50849800  0.15597600  0.79444400  1
  Pb  Pb18  1  0.08039100  0.01218900  0.28417400  1
  Pb  Pb19  1  0.93660400  0.29976300  0.30471500  1
  Pb  Pb20  1  0.82483600  0.52330000  0.27306300  1
  Pb  Pb21  1  0.68104900  0.81087400  0.29360400  1
  Pb  Pb22  1  0.61372500  0.94552200  0.35084100  1
  Pb  Pb23  1  0.46993700  0.23309600  0.37138200  1
  Pb  Pb24  1  0.35816900  0.45663300  0.33972900  1
  Pb  Pb25  1  0.21438200  0.74420700  0.36027100  1
  Pb  Pb26  1  0.14705800  0.87885500  0.41750700  1
  Pb  Pb27  1  0.00327100  0.16643000  0.43804800  1
  Pb  Pb28  1  0.89150200  0.38996600  0.40639600  1
  Pb  Pb29  1  0.74771500  0.67754100  0.42693700  1
  Pb  Pb30  1  0.68039100  0.81218900  0.48417400  1
  Pb  Pb31  1  0.53660400  0.09976300  0.50471500  1
  Pb  Pb32  1  0.42483600  0.32330000  0.47306300  1
  Pb  Pb33  1  0.28104900  0.61087400  0.49360400  1
  Pb  Pb34  1  0.21372500  0.74552200  0.55084100  1
  Pb  Pb35  1  0.06993700  0.03309600  0.57138200  1
  Pb  Pb36  1  0.95816900  0.25663300  0.53972900  1
  Pb  Pb37  1  0.81438200  0.54420700  0.56027100  1
  Pb  Pb38  1  0.74705800  0.67885500  0.61750700  1
  Pb  Pb39  1  0.60327100  0.96643000  0.63804800  1
  Pb  Pb40  1  0.49150200  0.18996600  0.60639600  1
  Pb  Pb41  1  0.34771500  0.47754100  0.62693700  1
  Pb  Pb42  1  0.28039100  0.61218900  0.68417400  1
  Pb  Pb43  1  0.13660400  0.89976300  0.70471500  1
  Pb  Pb44  1  0.02483600  0.12330000  0.67306300  1
  Pb  Pb45  1  0.88104900  0.41087400  0.69360400  1
  Pb  Pb46  1  0.81372500  0.54552200  0.75084100  1
  Pb  Pb47  1  0.66993700  0.83309600  0.77138200  1
  Pb  Pb48  1  0.55816900  0.05663300  0.73972900  1
  Pb  Pb49  1  0.41438200  0.34420700  0.76027100  1
