# generated using pymatgen
data_Dy7Mg3
_symmetry_space_group_name_H-M   'P 1'
_cell_length_a   3.69704700
_cell_length_b   5.47816800
_cell_length_c   51.30137900
_cell_angle_alpha   90.00000000
_cell_angle_beta   90.00000000
_cell_angle_gamma   90.00000000
_symmetry_Int_Tables_number   1
_chemical_formula_structural   Dy7Mg3
_chemical_formula_sum   'Dy14 Mg6'
_cell_volume   1039.00911538
_cell_formula_units_Z   2
loop_
 _symmetry_equiv_pos_site_id
 _symmetry_equiv_pos_as_xyz
  1  'x, y, z'
loop_
 _atom_site_type_symbol
 _atom_site_label
 _atom_site_symmetry_multiplicity
 _atom_site_fract_x
 _atom_site_fract_y
 _atom_site_fract_z
 _atom_site_occupancy
  Dy  Dy0  1  0.50000000  0.25000000  0.47502600  1
  Dy  Dy1  1  0.00000000  0.25000000  0.20182400  1
  Dy  Dy2  1  0.00000000  0.75000000  0.24719600  1
  Dy  Dy3  1  0.50000000  0.75000000  0.18706500  1
  Dy  Dy4  1  0.00000000  0.25000000  0.30835900  1
  Dy  Dy5  1  0.50000000  0.25000000  0.36849000  1
  Dy  Dy6  1  0.50000000  0.75000000  0.41386300  1
  Dy  Dy7  1  0.00000000  0.75000000  0.35373200  1
  Dy  Dy8  1  0.00000000  0.25000000  0.53515700  1
  Dy  Dy9  1  0.00000000  0.75000000  0.58053000  1
  Dy  Dy10  1  0.50000000  0.75000000  0.52039900  1
  Dy  Dy11  1  0.00000000  0.25000000  0.64169200  1
  Dy  Dy12  1  0.50000000  0.25000000  0.70182400  1
  Dy  Dy13  1  0.00000000  0.75000000  0.68706500  1
  Mg  Mg14  1  0.50000000  0.25000000  0.25543200  1
  Mg  Mg15  1  0.00000000  0.75000000  0.46679000  1
  Mg  Mg16  1  0.00000000  0.25000000  0.42209900  1
  Mg  Mg17  1  0.50000000  0.75000000  0.30012300  1
  Mg  Mg18  1  0.50000000  0.25000000  0.58876600  1
  Mg  Mg19  1  0.50000000  0.75000000  0.63345700  1
