# generated using pymatgen
data_Mg5Tl2
_symmetry_space_group_name_H-M   'P 1'
_cell_length_a   8.77491585
_cell_length_b   8.77491626
_cell_length_c   47.52967400
_cell_angle_alpha   92.48032456
_cell_angle_beta   92.48032467
_cell_angle_gamma   114.09852797
_symmetry_Int_Tables_number   1
_chemical_formula_structural   Mg5Tl2
_chemical_formula_sum   'Mg60 Tl24'
_cell_volume   3330.18723731
_cell_formula_units_Z   12
loop_
 _symmetry_equiv_pos_site_id
 _symmetry_equiv_pos_as_xyz
  1  'x, y, z'
loop_
 _atom_site_type_symbol
 _atom_site_label
 _atom_site_symmetry_multiplicity
 _atom_site_fract_x
 _atom_site_fract_y
 _atom_site_fract_z
 _atom_site_occupancy
  Mg  Mg0  1  0.41394200  0.58384000  0.71648200  1
  Mg  Mg1  1  0.83536000  0.36464000  0.77500000  1
  Mg  Mg2  1  0.60000000  0.60000000  0.77500000  1
  Mg  Mg3  1  0.38384000  0.21394200  0.76648200  1
  Mg  Mg4  1  0.98605800  0.81616000  0.78351800  1
  Mg  Mg5  1  0.56464000  0.03536000  0.72500000  1
  Mg  Mg6  1  0.36464000  0.83536000  0.77500000  1
  Mg  Mg7  1  0.03536000  0.56464000  0.72500000  1
  Mg  Mg8  1  0.01616000  0.18605800  0.73351800  1
  Mg  Mg9  1  0.80000000  0.80000000  0.72500000  1
  Mg  Mg10  1  0.81394200  0.98384000  0.61648200  1
  Mg  Mg11  1  0.23536000  0.76464000  0.67500000  1
  Mg  Mg12  1  0.00000000  0.00000000  0.67500000  1
  Mg  Mg13  1  0.78384000  0.61394200  0.66648200  1
  Mg  Mg14  1  0.38605800  0.21616000  0.68351800  1
  Mg  Mg15  1  0.96464000  0.43536000  0.62500000  1
  Mg  Mg16  1  0.76464000  0.23536000  0.67500000  1
  Mg  Mg17  1  0.43536000  0.96464000  0.62500000  1
  Mg  Mg18  1  0.41616000  0.58605800  0.63351800  1
  Mg  Mg19  1  0.20000000  0.20000000  0.62500000  1
  Mg  Mg20  1  0.21394200  0.38384000  0.51648200  1
  Mg  Mg21  1  0.63536000  0.16464000  0.57500000  1
  Mg  Mg22  1  0.40000000  0.40000000  0.57500000  1
  Mg  Mg23  1  0.18384000  0.01394200  0.56648200  1
  Mg  Mg24  1  0.78605800  0.61616000  0.58351800  1
  Mg  Mg25  1  0.36464000  0.83536000  0.52500000  1
  Mg  Mg26  1  0.16464000  0.63536000  0.57500000  1
  Mg  Mg27  1  0.83536000  0.36464000  0.52500000  1
  Mg  Mg28  1  0.81616000  0.98605800  0.53351800  1
  Mg  Mg29  1  0.60000000  0.60000000  0.52500000  1
  Mg  Mg30  1  0.61394200  0.78384000  0.41648200  1
  Mg  Mg31  1  0.03536000  0.56464000  0.47500000  1
  Mg  Mg32  1  0.80000000  0.80000000  0.47500000  1
  Mg  Mg33  1  0.58384000  0.41394200  0.46648200  1
  Mg  Mg34  1  0.18605800  0.01616000  0.48351800  1
  Mg  Mg35  1  0.76464000  0.23536000  0.42500000  1
  Mg  Mg36  1  0.56464000  0.03536000  0.47500000  1
  Mg  Mg37  1  0.23536000  0.76464000  0.42500000  1
  Mg  Mg38  1  0.21616000  0.38605800  0.43351800  1
  Mg  Mg39  1  1.00000000  0.00000000  0.42500000  1
  Mg  Mg40  1  0.01394200  0.18384000  0.31648200  1
  Mg  Mg41  1  0.43536000  0.96464000  0.37500000  1
  Mg  Mg42  1  0.20000000  0.20000000  0.37500000  1
  Mg  Mg43  1  0.98384000  0.81394200  0.36648200  1
  Mg  Mg44  1  0.58605800  0.41616000  0.38351800  1
  Mg  Mg45  1  0.16464000  0.63536000  0.32500000  1
  Mg  Mg46  1  0.96464000  0.43536000  0.37500000  1
  Mg  Mg47  1  0.63536000  0.16464000  0.32500000  1
  Mg  Mg48  1  0.61616000  0.78605800  0.33351800  1
  Mg  Mg49  1  0.40000000  0.40000000  0.32500000  1
  Mg  Mg50  1  0.41394200  0.58384000  0.21648200  1
  Mg  Mg51  1  0.83536000  0.36464000  0.27500000  1
  Mg  Mg52  1  0.60000000  0.60000000  0.27500000  1
  Mg  Mg53  1  0.38384000  0.21394200  0.26648200  1
  Mg  Mg54  1  0.98605800  0.81616000  0.28351800  1
  Mg  Mg55  1  0.56464000  0.03536000  0.22500000  1
  Mg  Mg56  1  0.36464000  0.83536000  0.27500000  1
  Mg  Mg57  1  0.03536000  0.56464000  0.22500000  1
  Mg  Mg58  1  0.01616000  0.18605800  0.23351800  1
  Mg  Mg59  1  0.80000000  0.80000000  0.22500000  1
  Tl  Tl60  1  0.66382800  0.42016700  0.72366600  1
  Tl  Tl61  1  0.22016700  0.46382800  0.77366600  1
  Tl  Tl62  1  0.17983300  0.93617200  0.72633400  1
  Tl  Tl63  1  0.73617200  0.97983300  0.77633400  1
  Tl  Tl64  1  0.06382800  0.82016700  0.62366600  1
  Tl  Tl65  1  0.62016700  0.86382800  0.67366600  1
  Tl  Tl66  1  0.57983300  0.33617200  0.62633400  1
  Tl  Tl67  1  0.13617200  0.37983300  0.67633400  1
  Tl  Tl68  1  0.46382800  0.22016700  0.52366600  1
  Tl  Tl69  1  0.02016700  0.26382800  0.57366600  1
  Tl  Tl70  1  0.97983300  0.73617200  0.52633400  1
  Tl  Tl71  1  0.53617200  0.77983300  0.57633400  1
  Tl  Tl72  1  0.86382800  0.62016700  0.42366600  1
  Tl  Tl73  1  0.42016700  0.66382800  0.47366600  1
  Tl  Tl74  1  0.37983300  0.13617200  0.42633400  1
  Tl  Tl75  1  0.93617200  0.17983300  0.47633400  1
  Tl  Tl76  1  0.26382800  0.02016700  0.32366600  1
  Tl  Tl77  1  0.82016700  0.06382800  0.37366600  1
  Tl  Tl78  1  0.77983300  0.53617200  0.32633400  1
  Tl  Tl79  1  0.33617200  0.57983300  0.37633400  1
  Tl  Tl80  1  0.66382800  0.42016700  0.22366600  1
  Tl  Tl81  1  0.22016700  0.46382800  0.27366600  1
  Tl  Tl82  1  0.17983300  0.93617200  0.22633400  1
  Tl  Tl83  1  0.73617200  0.97983300  0.27633400  1
