# generated using pymatgen
data_Ce4Mg39
_symmetry_space_group_name_H-M   'P 1'
_cell_length_a   10.33012900
_cell_length_b   14.43775486
_cell_length_c   46.86335100
_cell_angle_alpha   91.26380978
_cell_angle_beta   90.00000000
_cell_angle_gamma   69.03810193
_symmetry_Int_Tables_number   1
_chemical_formula_structural   Ce4Mg39
_chemical_formula_sum   'Ce12 Mg117'
_cell_volume   6524.99326643
_cell_formula_units_Z   3
loop_
 _symmetry_equiv_pos_site_id
 _symmetry_equiv_pos_as_xyz
  1  'x, y, z'
loop_
 _atom_site_type_symbol
 _atom_site_label
 _atom_site_symmetry_multiplicity
 _atom_site_fract_x
 _atom_site_fract_y
 _atom_site_fract_z
 _atom_site_occupancy
  Ce  Ce0  1  0.87133700  0.25732600  0.27819500  1
  Ce  Ce1  1  0.72848000  0.54304000  0.34962400  1
  Ce  Ce2  1  0.44276600  0.11446900  0.32581500  1
  Ce  Ce3  1  0.15705100  0.68589700  0.30200500  1
  Ce  Ce4  1  0.58562300  0.82875400  0.42105300  1
  Ce  Ce5  1  0.44276600  0.11446900  0.49248100  1
  Ce  Ce6  1  0.15705100  0.68589700  0.46867200  1
  Ce  Ce7  1  0.87133700  0.25732600  0.44486200  1
  Ce  Ce8  1  0.29990900  0.40018300  0.56391000  1
  Ce  Ce9  1  0.15705100  0.68589700  0.63533800  1
  Ce  Ce10  1  0.87133700  0.25732600  0.61152900  1
  Ce  Ce11  1  0.58562300  0.82875400  0.58771900  1
  Mg  Mg12  1  0.29990900  0.40018300  0.31391000  1
  Mg  Mg13  1  0.94276600  0.61446900  0.24248100  1
  Mg  Mg14  1  0.08416800  0.31832300  0.33400000  1
  Mg  Mg15  1  0.72802900  0.05728300  0.26874000  1
  Mg  Mg16  1  0.14897700  0.70204600  0.22048500  1
  Mg  Mg17  1  0.79852600  0.69786400  0.29801600  1
  Mg  Mg18  1  0.54210500  0.91578900  0.27614500  1
  Mg  Mg19  1  0.25639100  0.48721800  0.25233500  1
  Mg  Mg20  1  0.15750300  0.17165400  0.21622300  1
  Mg  Mg21  1  0.88728500  0.83100300  0.25363600  1
  Mg  Mg22  1  0.09620800  0.10250100  0.32980400  1
  Mg  Mg23  1  0.21468800  0.05728300  0.26874000  1
  Mg  Mg24  1  0.20890100  0.27154100  0.27345700  1
  Mg  Mg25  1  0.50360900  0.69786400  0.29801600  1
  Mg  Mg26  1  0.59750900  0.31832300  0.33400000  1
  Mg  Mg27  1  0.73655400  0.52689100  0.26447700  1
  Mg  Mg28  1  0.01845700  0.96308600  0.28574500  1
  Mg  Mg29  1  0.58136000  0.83728000  0.34207400  1
  Mg  Mg30  1  0.62914000  0.74171900  0.23262700  1
  Mg  Mg31  1  0.00230800  0.48204300  0.29382000  1
  Mg  Mg32  1  0.29990900  0.90018300  0.31391000  1
  Mg  Mg33  1  0.51955800  0.27154100  0.27345700  1
  Mg  Mg34  1  0.80129100  0.10250100  0.32980400  1
  Mg  Mg35  1  0.05771200  0.88457600  0.35167500  1
  Mg  Mg36  1  0.51564900  0.48204300  0.29382000  1
  Mg  Mg37  1  0.60382000  0.39793400  0.23132600  1
  Mg  Mg38  1  0.08025900  0.52882400  0.35436300  1
  Mg  Mg39  1  0.67084300  0.17165400  0.21622300  1
  Mg  Mg40  1  0.99824600  0.39793400  0.23132600  1
  Mg  Mg41  1  0.79990900  0.90018300  0.31391000  1
  Mg  Mg42  1  0.28171200  0.83100300  0.25363600  1
  Mg  Mg43  1  0.39091600  0.52882400  0.35436300  1
  Mg  Mg44  1  0.44276600  0.61446900  0.24248100  1
  Mg  Mg45  1  0.44276600  0.11446900  0.24248100  1
  Mg  Mg46  1  0.01419400  0.97161100  0.45676700  1
  Mg  Mg47  1  0.65705100  0.18589700  0.38533800  1
  Mg  Mg48  1  0.79845400  0.88975200  0.47685700  1
  Mg  Mg49  1  0.44231500  0.62871100  0.41159700  1
  Mg  Mg50  1  0.86326300  0.27347400  0.36334300  1
  Mg  Mg51  1  0.51281200  0.26929300  0.44087300  1
  Mg  Mg52  1  0.25639100  0.48721800  0.41900200  1
  Mg  Mg53  1  0.97067700  0.05864600  0.39519200  1
  Mg  Mg54  1  0.87178800  0.74308300  0.35908000  1
  Mg  Mg55  1  0.60157100  0.40243100  0.39649400  1
  Mg  Mg56  1  0.81049300  0.67393000  0.47266100  1
  Mg  Mg57  1  0.92897400  0.62871100  0.41159700  1
  Mg  Mg58  1  0.92318700  0.84297000  0.41631400  1
  Mg  Mg59  1  0.21789500  0.26929300  0.44087300  1
  Mg  Mg60  1  0.31179400  0.88975200  0.47685700  1
  Mg  Mg61  1  0.45084000  0.09832000  0.40733400  1
  Mg  Mg62  1  0.73274300  0.53451500  0.42860300  1
  Mg  Mg63  1  0.29564600  0.40870800  0.48493100  1
  Mg  Mg64  1  0.34342600  0.31314800  0.37548400  1
  Mg  Mg65  1  0.71659400  0.05347100  0.43667700  1
  Mg  Mg66  1  0.01419400  0.47161100  0.45676700  1
  Mg  Mg67  1  0.23384300  0.84297000  0.41631400  1
  Mg  Mg68  1  0.51557600  0.67393000  0.47266100  1
  Mg  Mg69  1  0.77199800  0.45600500  0.49453200  1
  Mg  Mg70  1  0.22993500  0.05347100  0.43667700  1
  Mg  Mg71  1  0.31810500  0.96936300  0.37418300  1
  Mg  Mg72  1  0.79454500  0.10025300  0.49722000  1
  Mg  Mg73  1  0.38512900  0.74308300  0.35908000  1
  Mg  Mg74  1  0.71253200  0.96936300  0.37418300  1
  Mg  Mg75  1  0.51419400  0.47161100  0.45676700  1
  Mg  Mg76  1  0.99599700  0.40243100  0.39649400  1
  Mg  Mg77  1  0.10520200  0.10025300  0.49722000  1
  Mg  Mg78  1  0.15705100  0.18589700  0.38533800  1
  Mg  Mg79  1  0.15705100  0.68589700  0.38533800  1
  Mg  Mg80  1  0.72848000  0.54304000  0.59962400  1
  Mg  Mg81  1  0.37133700  0.75732600  0.52819500  1
  Mg  Mg82  1  0.51274000  0.46118000  0.61971400  1
  Mg  Mg83  1  0.15660000  0.20014000  0.55445400  1
  Mg  Mg84  1  0.57754900  0.84490300  0.50620000  1
  Mg  Mg85  1  0.22709800  0.84072100  0.58373000  1
  Mg  Mg86  1  0.97067700  0.05864600  0.56185900  1
  Mg  Mg87  1  0.68496200  0.63007500  0.53804900  1
  Mg  Mg88  1  0.58607400  0.31451100  0.50193700  1
  Mg  Mg89  1  0.31585700  0.97386000  0.53935100  1
  Mg  Mg90  1  0.52477900  0.24535900  0.61551800  1
  Mg  Mg91  1  0.64326000  0.20014000  0.55445400  1
  Mg  Mg92  1  0.63747200  0.41439800  0.55917100  1
  Mg  Mg93  1  0.93218100  0.84072100  0.58373000  1
  Mg  Mg94  1  0.02608000  0.46118000  0.61971400  1
  Mg  Mg95  1  0.16512600  0.66974900  0.55019100  1
  Mg  Mg96  1  0.44702800  0.10594300  0.57146000  1
  Mg  Mg97  1  0.00993200  0.98013700  0.62778800  1
  Mg  Mg98  1  0.05771200  0.88457600  0.51834100  1
  Mg  Mg99  1  0.43088000  0.62490000  0.57953400  1
  Mg  Mg100  1  0.72848000  0.04304000  0.59962400  1
  Mg  Mg101  1  0.94812900  0.41439800  0.55917100  1
  Mg  Mg102  1  0.22986200  0.24535900  0.61551800  1
  Mg  Mg103  1  0.48628300  0.02743300  0.63738900  1
  Mg  Mg104  1  0.94422000  0.62490000  0.57953400  1
  Mg  Mg105  1  0.03239100  0.54079100  0.51704000  1
  Mg  Mg106  1  0.50883100  0.67168100  0.64007700  1
  Mg  Mg107  1  0.09941500  0.31451100  0.50193700  1
  Mg  Mg108  1  0.42681700  0.54079100  0.51704000  1
  Mg  Mg109  1  0.22848000  0.04304000  0.59962400  1
  Mg  Mg110  1  0.71028300  0.97386000  0.53935100  1
  Mg  Mg111  1  0.81948800  0.67168100  0.64007700  1
  Mg  Mg112  1  0.87133700  0.75732600  0.52819500  1
  Mg  Mg113  1  0.87133700  0.25732600  0.52819500  1
  Mg  Mg114  1  0.08562300  0.32875400  0.67105300  1
  Mg  Mg115  1  0.87088600  0.77156800  0.69731100  1
  Mg  Mg116  1  0.29183400  0.41633100  0.64905700  1
  Mg  Mg117  1  0.39924800  0.20150400  0.68090700  1
  Mg  Mg118  1  0.30036000  0.88594000  0.64479400  1
  Mg  Mg119  1  0.03014300  0.54528800  0.68220800  1
  Mg  Mg120  1  0.35754600  0.77156800  0.69731100  1
  Mg  Mg121  1  0.87941100  0.24117700  0.69304800  1
  Mg  Mg122  1  0.77199800  0.45600500  0.66119900  1
  Mg  Mg123  1  0.74667700  0.11222000  0.65989700  1
  Mg  Mg124  1  0.81370000  0.88594000  0.64479400  1
  Mg  Mg125  1  0.14110300  0.11222000  0.65989700  1
  Mg  Mg126  1  0.42456900  0.54528800  0.68220800  1
  Mg  Mg127  1  0.58562300  0.32875400  0.67105300  1
  Mg  Mg128  1  0.58562300  0.82875400  0.67105300  1
