# generated using pymatgen
data_Mg2Pt
_symmetry_space_group_name_H-M   'P 1'
_cell_length_a   6.38589300
_cell_length_b   5.67252900
_cell_length_c   44.70125400
_cell_angle_alpha   90.00000000
_cell_angle_beta   90.00000000
_cell_angle_gamma   90.00000000
_symmetry_Int_Tables_number   1
_chemical_formula_structural   Mg2Pt
_chemical_formula_sum   'Mg32 Pt16'
_cell_volume   1619.26552163
_cell_formula_units_Z   16
loop_
 _symmetry_equiv_pos_site_id
 _symmetry_equiv_pos_as_xyz
  1  'x, y, z'
loop_
 _atom_site_type_symbol
 _atom_site_label
 _atom_site_symmetry_multiplicity
 _atom_site_fract_x
 _atom_site_fract_y
 _atom_site_fract_z
 _atom_site_occupancy
  Mg  Mg0  1  0.18328000  0.00000000  0.22381700  1
  Mg  Mg1  1  0.68328000  0.00000000  0.34761100  1
  Mg  Mg2  1  0.31672000  0.50000000  0.34761100  1
  Mg  Mg3  1  0.81672000  0.50000000  0.22381700  1
  Mg  Mg4  1  0.68328000  0.50000000  0.29524600  1
  Mg  Mg5  1  0.18328000  0.50000000  0.27618300  1
  Mg  Mg6  1  0.81672000  0.00000000  0.27618300  1
  Mg  Mg7  1  0.31672000  0.00000000  0.29524600  1
  Mg  Mg8  1  0.18328000  0.00000000  0.36667400  1
  Mg  Mg9  1  0.68328000  0.00000000  0.49046900  1
  Mg  Mg10  1  0.31672000  0.50000000  0.49046900  1
  Mg  Mg11  1  0.81672000  0.50000000  0.36667400  1
  Mg  Mg12  1  0.68328000  0.50000000  0.43810300  1
  Mg  Mg13  1  0.18328000  0.50000000  0.41904000  1
  Mg  Mg14  1  0.81672000  0.00000000  0.41904000  1
  Mg  Mg15  1  0.31672000  0.00000000  0.43810300  1
  Mg  Mg16  1  0.18328000  0.00000000  0.50953100  1
  Mg  Mg17  1  0.68328000  0.00000000  0.63332600  1
  Mg  Mg18  1  0.31672000  0.50000000  0.63332600  1
  Mg  Mg19  1  0.81672000  0.50000000  0.50953100  1
  Mg  Mg20  1  0.68328000  0.50000000  0.58096000  1
  Mg  Mg21  1  0.18328000  0.50000000  0.56189700  1
  Mg  Mg22  1  0.81672000  0.00000000  0.56189700  1
  Mg  Mg23  1  0.31672000  0.00000000  0.58096000  1
  Mg  Mg24  1  0.18328000  0.00000000  0.65238900  1
  Mg  Mg25  1  0.68328000  0.00000000  0.77618300  1
  Mg  Mg26  1  0.31672000  0.50000000  0.77618300  1
  Mg  Mg27  1  0.81672000  0.50000000  0.65238900  1
  Mg  Mg28  1  0.68328000  0.50000000  0.72381700  1
  Mg  Mg29  1  0.18328000  0.50000000  0.70475400  1
  Mg  Mg30  1  0.81672000  0.00000000  0.70475400  1
  Mg  Mg31  1  0.31672000  0.00000000  0.72381700  1
  Pt  Pt32  1  1.00000000  0.25000000  0.32142900  1
  Pt  Pt33  1  0.00000000  0.75000000  0.32142900  1
  Pt  Pt34  1  0.50000000  0.75000000  0.25000000  1
  Pt  Pt35  1  0.50000000  0.25000000  0.25000000  1
  Pt  Pt36  1  1.00000000  0.25000000  0.46428600  1
  Pt  Pt37  1  1.00000000  0.75000000  0.46428600  1
  Pt  Pt38  1  0.50000000  0.75000000  0.39285700  1
  Pt  Pt39  1  0.50000000  0.25000000  0.39285700  1
  Pt  Pt40  1  0.00000000  0.25000000  0.60714300  1
  Pt  Pt41  1  0.00000000  0.75000000  0.60714300  1
  Pt  Pt42  1  0.50000000  0.75000000  0.53571400  1
  Pt  Pt43  1  0.50000000  0.25000000  0.53571400  1
  Pt  Pt44  1  1.00000000  0.25000000  0.75000000  1
  Pt  Pt45  1  1.00000000  0.75000000  0.75000000  1
  Pt  Pt46  1  0.50000000  0.75000000  0.67857100  1
  Pt  Pt47  1  0.50000000  0.25000000  0.67857100  1
