# generated using pymatgen
data_Ba4Mg31
_symmetry_space_group_name_H-M   'P 1'
_cell_length_a   10.57649000
_cell_length_b   10.57648998
_cell_length_c   47.12927100
_cell_angle_alpha   90.00000000
_cell_angle_beta   90.00000000
_cell_angle_gamma   59.99999994
_symmetry_Int_Tables_number   1
_chemical_formula_structural   Ba4Mg31
_chemical_formula_sum   'Ba12 Mg93'
_cell_volume   4565.66958813
_cell_formula_units_Z   3
loop_
 _symmetry_equiv_pos_site_id
 _symmetry_equiv_pos_as_xyz
  1  'x, y, z'
loop_
 _atom_site_type_symbol
 _atom_site_label
 _atom_site_symmetry_multiplicity
 _atom_site_fract_x
 _atom_site_fract_y
 _atom_site_fract_z
 _atom_site_occupancy
  Ba  Ba0  1  0.66666700  0.66666700  0.47197200  1
  Ba  Ba1  1  0.66666700  0.66666700  0.24732700  1
  Ba  Ba2  1  0.00000000  0.00000000  0.24974900  1
  Ba  Ba3  1  0.00000000  0.00000000  0.35843800  1
  Ba  Ba4  1  0.33333300  0.33333300  0.36086100  1
  Ba  Ba5  1  0.33333300  0.33333300  0.46954900  1
  Ba  Ba6  1  0.66666700  0.66666700  0.80530500  1
  Ba  Ba7  1  0.66666700  0.66666700  0.58066000  1
  Ba  Ba8  1  0.00000000  0.00000000  0.58308300  1
  Ba  Ba9  1  0.00000000  0.00000000  0.69177100  1
  Ba  Ba10  1  0.33333300  0.33333300  0.69419400  1
  Ba  Ba11  1  0.33333300  0.33333300  0.80288200  1
  Mg  Mg12  1  0.29252800  0.00000000  0.47076000  1
  Mg  Mg13  1  0.66666700  0.66666700  0.39191100  1
  Mg  Mg14  1  0.00000000  0.29252800  0.47076000  1
  Mg  Mg15  1  0.70747200  0.00000000  0.47076000  1
  Mg  Mg16  1  0.66666700  0.66666700  0.32738700  1
  Mg  Mg17  1  0.62586100  0.04080500  0.24853800  1
  Mg  Mg18  1  0.00000000  0.70747200  0.47076000  1
  Mg  Mg19  1  0.83333300  0.83333300  0.41520500  1
  Mg  Mg20  1  0.04080500  0.62586100  0.24853800  1
  Mg  Mg21  1  0.62586100  0.33333300  0.24853800  1
  Mg  Mg22  1  0.16856900  0.16856900  0.30853400  1
  Mg  Mg23  1  0.33713800  0.83143100  0.29965300  1
  Mg  Mg24  1  0.00000000  0.00000000  0.50302200  1
  Mg  Mg25  1  0.33333300  0.62586100  0.24853800  1
  Mg  Mg26  1  0.04080500  0.33333300  0.24853800  1
  Mg  Mg27  1  0.16856900  0.66286200  0.30853400  1
  Mg  Mg28  1  0.00000000  0.00000000  0.43849800  1
  Mg  Mg29  1  0.95919500  0.37413900  0.35964900  1
  Mg  Mg30  1  0.50000000  0.00000000  0.30409400  1
  Mg  Mg31  1  0.33333300  0.04080500  0.24853800  1
  Mg  Mg32  1  0.66286200  0.16856900  0.30853400  1
  Mg  Mg33  1  0.83143100  0.83143100  0.29965300  1
  Mg  Mg34  1  0.83143100  0.33713800  0.29965300  1
  Mg  Mg35  1  0.37413900  0.95919500  0.35964900  1
  Mg  Mg36  1  0.00000000  0.50000000  0.30409400  1
  Mg  Mg37  1  0.95919500  0.66666700  0.35964900  1
  Mg  Mg38  1  0.50190200  0.50190200  0.41964500  1
  Mg  Mg39  1  0.67047100  0.16476400  0.41076400  1
  Mg  Mg40  1  0.33333300  0.33333300  0.28080000  1
  Mg  Mg41  1  0.66666700  0.95919500  0.35964900  1
  Mg  Mg42  1  0.37413900  0.66666700  0.35964900  1
  Mg  Mg43  1  0.50190200  0.99619600  0.41964500  1
  Mg  Mg44  1  0.33333300  0.33333300  0.21627600  1
  Mg  Mg45  1  0.29252800  0.70747200  0.47076000  1
  Mg  Mg46  1  0.83333300  0.33333300  0.41520500  1
  Mg  Mg47  1  0.66666700  0.37413900  0.35964900  1
  Mg  Mg48  1  0.99619600  0.50190200  0.41964500  1
  Mg  Mg49  1  0.16476400  0.16476400  0.41076400  1
  Mg  Mg50  1  0.16476400  0.67047100  0.41076400  1
  Mg  Mg51  1  0.50000000  0.50000000  0.30409400  1
  Mg  Mg52  1  0.70747200  0.29252800  0.47076000  1
  Mg  Mg53  1  0.33333300  0.83333300  0.41520500  1
  Mg  Mg54  1  0.29252800  0.00000000  0.80409400  1
  Mg  Mg55  1  0.83523600  0.83523600  0.53075600  1
  Mg  Mg56  1  0.00380400  0.49809800  0.52187500  1
  Mg  Mg57  1  0.66666700  0.66666700  0.72524500  1
  Mg  Mg58  1  0.00000000  0.29252800  0.80409400  1
  Mg  Mg59  1  0.70747200  0.00000000  0.80409400  1
  Mg  Mg60  1  0.83523600  0.32952900  0.53075600  1
  Mg  Mg61  1  0.66666700  0.66666700  0.66072000  1
  Mg  Mg62  1  0.62586100  0.04080500  0.58187100  1
  Mg  Mg63  1  0.16666700  0.66666700  0.52631600  1
  Mg  Mg64  1  0.00000000  0.70747200  0.80409400  1
  Mg  Mg65  1  0.32952900  0.83523600  0.53075600  1
  Mg  Mg66  1  0.49809800  0.49809800  0.52187500  1
  Mg  Mg67  1  0.49809800  0.00380400  0.52187500  1
  Mg  Mg68  1  0.83333300  0.83333300  0.74853800  1
  Mg  Mg69  1  0.04080500  0.62586100  0.58187100  1
  Mg  Mg70  1  0.66666700  0.16666700  0.52631600  1
  Mg  Mg71  1  0.62586100  0.33333300  0.58187100  1
  Mg  Mg72  1  0.16856900  0.16856900  0.64186700  1
  Mg  Mg73  1  0.33713800  0.83143100  0.63298600  1
  Mg  Mg74  1  0.00000000  0.00000000  0.83635600  1
  Mg  Mg75  1  0.33333300  0.62586100  0.58187100  1
  Mg  Mg76  1  0.04080500  0.33333300  0.58187100  1
  Mg  Mg77  1  0.16856900  0.66286200  0.64186700  1
  Mg  Mg78  1  0.00000000  0.00000000  0.77183100  1
  Mg  Mg79  1  0.95919500  0.37413900  0.69298200  1
  Mg  Mg80  1  0.50000000  0.00000000  0.63742700  1
  Mg  Mg81  1  0.33333300  0.04080500  0.58187100  1
  Mg  Mg82  1  0.66286200  0.16856900  0.64186700  1
  Mg  Mg83  1  0.83143100  0.83143100  0.63298600  1
  Mg  Mg84  1  0.83143100  0.33713800  0.63298600  1
  Mg  Mg85  1  0.16666700  0.16666700  0.52631600  1
  Mg  Mg86  1  0.37413900  0.95919500  0.69298200  1
  Mg  Mg87  1  0.00000000  0.50000000  0.63742700  1
  Mg  Mg88  1  0.95919500  0.66666700  0.69298200  1
  Mg  Mg89  1  0.50190200  0.50190200  0.75297900  1
  Mg  Mg90  1  0.67047100  0.16476400  0.74409700  1
  Mg  Mg91  1  0.33333300  0.33333300  0.61413300  1
  Mg  Mg92  1  0.66666700  0.95919500  0.69298200  1
  Mg  Mg93  1  0.37413900  0.66666700  0.69298200  1
  Mg  Mg94  1  0.50190200  0.99619600  0.75297900  1
  Mg  Mg95  1  0.33333300  0.33333300  0.54960900  1
  Mg  Mg96  1  0.29252800  0.70747200  0.80409400  1
  Mg  Mg97  1  0.83333300  0.33333300  0.74853800  1
  Mg  Mg98  1  0.66666700  0.37413900  0.69298200  1
  Mg  Mg99  1  0.99619600  0.50190200  0.75297900  1
  Mg  Mg100  1  0.16476400  0.16476400  0.74409700  1
  Mg  Mg101  1  0.16476400  0.67047100  0.74409700  1
  Mg  Mg102  1  0.50000000  0.50000000  0.63742700  1
  Mg  Mg103  1  0.70747200  0.29252800  0.80409400  1
  Mg  Mg104  1  0.33333300  0.83333300  0.74853800  1
