# generated using pymatgen
data_Ce8Mg3
_symmetry_space_group_name_H-M   'P 1'
_cell_length_a   3.15985600
_cell_length_b   5.24483100
_cell_length_c   55.55029700
_cell_angle_alpha   90.00000000
_cell_angle_beta   90.00000000
_cell_angle_gamma   90.00000000
_symmetry_Int_Tables_number   1
_chemical_formula_structural   Ce8Mg3
_chemical_formula_sum   'Ce16 Mg6'
_cell_volume   920.63011178
_cell_formula_units_Z   2
loop_
 _symmetry_equiv_pos_site_id
 _symmetry_equiv_pos_as_xyz
  1  'x, y, z'
loop_
 _atom_site_type_symbol
 _atom_site_label
 _atom_site_symmetry_multiplicity
 _atom_site_fract_x
 _atom_site_fract_y
 _atom_site_fract_z
 _atom_site_occupancy
  Ce  Ce0  1  0.00000000  0.75000000  0.18214600  1
  Ce  Ce1  1  0.50000000  0.75000000  0.23786700  1
  Ce  Ce2  1  0.00000000  0.25000000  0.20657700  1
  Ce  Ce3  1  0.50000000  0.25000000  0.26229800  1
  Ce  Ce4  1  0.50000000  0.75000000  0.34881300  1
  Ce  Ce5  1  0.00000000  0.75000000  0.40453400  1
  Ce  Ce6  1  0.50000000  0.25000000  0.37324400  1
  Ce  Ce7  1  0.00000000  0.25000000  0.42896500  1
  Ce  Ce8  1  0.00000000  0.75000000  0.51548000  1
  Ce  Ce9  1  0.50000000  0.75000000  0.57120100  1
  Ce  Ce10  1  0.00000000  0.25000000  0.53991100  1
  Ce  Ce11  1  0.50000000  0.25000000  0.59563200  1
  Ce  Ce12  1  0.50000000  0.75000000  0.68214600  1
  Ce  Ce13  1  0.00000000  0.75000000  0.73786700  1
  Ce  Ce14  1  0.50000000  0.25000000  0.70657700  1
  Ce  Ce15  1  0.00000000  0.25000000  0.76229800  1
  Mg  Mg16  1  0.00000000  0.75000000  0.29190100  1
  Mg  Mg17  1  0.50000000  0.25000000  0.48587700  1
  Mg  Mg18  1  0.50000000  0.75000000  0.45856800  1
  Mg  Mg19  1  0.00000000  0.25000000  0.31921000  1
  Mg  Mg20  1  0.00000000  0.75000000  0.62523500  1
  Mg  Mg21  1  0.00000000  0.25000000  0.65254300  1
