# generated using pymatgen
data_Mg19Zn9
_symmetry_space_group_name_H-M   'P 1'
_cell_length_a   5.81388121
_cell_length_b   7.92196437
_cell_length_c   41.46277500
_cell_angle_alpha   90.88177323
_cell_angle_beta   93.29618556
_cell_angle_gamma   95.99281037
_symmetry_Int_Tables_number   1
_chemical_formula_structural   Mg19Zn9
_chemical_formula_sum   'Mg38 Zn18'
_cell_volume   1895.64749741
_cell_formula_units_Z   2
loop_
 _symmetry_equiv_pos_site_id
 _symmetry_equiv_pos_as_xyz
  1  'x, y, z'
loop_
 _atom_site_type_symbol
 _atom_site_label
 _atom_site_symmetry_multiplicity
 _atom_site_fract_x
 _atom_site_fract_y
 _atom_site_fract_z
 _atom_site_occupancy
  Mg  Mg0  1  0.23155700  0.43267600  0.23873100  1
  Mg  Mg1  1  0.40288400  0.76046300  0.19589900  1
  Mg  Mg2  1  0.88674300  0.63537000  0.19993400  1
  Mg  Mg3  1  0.80807000  0.02565700  0.21960200  1
  Mg  Mg4  1  0.98155700  0.49517600  0.30123100  1
  Mg  Mg5  1  0.15288400  0.82296300  0.25839900  1
  Mg  Mg6  1  0.63674300  0.69787000  0.26243400  1
  Mg  Mg7  1  0.55807000  0.08815700  0.28210200  1
  Mg  Mg8  1  0.73155700  0.55767600  0.36373100  1
  Mg  Mg9  1  0.90288400  0.88546300  0.32089900  1
  Mg  Mg10  1  0.38674300  0.76037000  0.32493400  1
  Mg  Mg11  1  0.30807000  0.15065700  0.34460200  1
  Mg  Mg12  1  0.48155700  0.62017600  0.42623100  1
  Mg  Mg13  1  0.65288400  0.94796300  0.38339900  1
  Mg  Mg14  1  0.13674300  0.82287000  0.38743400  1
  Mg  Mg15  1  0.05807000  0.21315700  0.40710200  1
  Mg  Mg16  1  0.23155700  0.68267600  0.48873100  1
  Mg  Mg17  1  0.40288400  0.01046300  0.44589900  1
  Mg  Mg18  1  0.88674300  0.88537000  0.44993400  1
  Mg  Mg19  1  0.80807000  0.27565700  0.46960200  1
  Mg  Mg20  1  0.98155700  0.74517600  0.55123100  1
  Mg  Mg21  1  0.15288400  0.07296300  0.50839900  1
  Mg  Mg22  1  0.63674300  0.94787000  0.51243400  1
  Mg  Mg23  1  0.55807000  0.33815700  0.53210200  1
  Mg  Mg24  1  0.73155700  0.80767600  0.61373100  1
  Mg  Mg25  1  0.90288400  0.13546300  0.57089900  1
  Mg  Mg26  1  0.38674300  0.01037000  0.57493400  1
  Mg  Mg27  1  0.30807000  0.40065700  0.59460200  1
  Mg  Mg28  1  0.48155700  0.87017600  0.67623100  1
  Mg  Mg29  1  0.65288400  0.19796300  0.63339900  1
  Mg  Mg30  1  0.13674300  0.07287000  0.63743400  1
  Mg  Mg31  1  0.05807000  0.46315700  0.65710200  1
  Mg  Mg32  1  0.23155700  0.93267600  0.73873100  1
  Mg  Mg33  1  0.40288400  0.26046300  0.69589900  1
  Mg  Mg34  1  0.88674300  0.13537000  0.69993400  1
  Mg  Mg35  1  0.80807000  0.52565700  0.71960200  1
  Mg  Mg36  1  0.15288400  0.32296300  0.75839900  1
  Mg  Mg37  1  0.63674300  0.19787000  0.76243400  1
  Zn  Zn38  1  0.31791900  0.10198500  0.21714000  1
  Zn  Zn39  1  0.72170800  0.35634900  0.24119300  1
  Zn  Zn40  1  0.06791900  0.16448500  0.27964000  1
  Zn  Zn41  1  0.47170800  0.41884900  0.30369300  1
  Zn  Zn42  1  0.81791900  0.22698500  0.34214000  1
  Zn  Zn43  1  0.22170800  0.48134900  0.36619300  1
  Zn  Zn44  1  0.56791900  0.28948500  0.40464000  1
  Zn  Zn45  1  0.97170800  0.54384900  0.42869300  1
  Zn  Zn46  1  0.31791900  0.35198500  0.46714000  1
  Zn  Zn47  1  0.72170800  0.60634900  0.49119300  1
  Zn  Zn48  1  0.06791900  0.41448500  0.52964000  1
  Zn  Zn49  1  0.47170800  0.66884900  0.55369300  1
  Zn  Zn50  1  0.81791900  0.47698500  0.59214000  1
  Zn  Zn51  1  0.22170800  0.73134900  0.61619300  1
  Zn  Zn52  1  0.56791900  0.53948500  0.65464000  1
  Zn  Zn53  1  0.97170800  0.79384900  0.67869300  1
  Zn  Zn54  1  0.31791900  0.60198500  0.71714000  1
  Zn  Zn55  1  0.72170800  0.85634900  0.74119300  1
