# generated using pymatgen
data_Mg23Ga9
_symmetry_space_group_name_H-M   'P 1'
_cell_length_a   6.82567400
_cell_length_b   8.32987963
_cell_length_c   44.97897400
_cell_angle_alpha   95.18614183
_cell_angle_beta   90.00000000
_cell_angle_gamma   114.18663396
_symmetry_Int_Tables_number   1
_chemical_formula_structural   Mg23Ga9
_chemical_formula_sum   'Mg46 Ga18'
_cell_volume   2321.39307391
_cell_formula_units_Z   2
loop_
 _symmetry_equiv_pos_site_id
 _symmetry_equiv_pos_as_xyz
  1  'x, y, z'
loop_
 _atom_site_type_symbol
 _atom_site_label
 _atom_site_symmetry_multiplicity
 _atom_site_fract_x
 _atom_site_fract_y
 _atom_site_fract_z
 _atom_site_occupancy
  Mg  Mg0  1  0.62230600  0.93375500  0.76645000  1
  Mg  Mg1  1  0.45614200  0.22314200  0.78712100  1
  Mg  Mg2  1  0.82949900  0.34814200  0.72462100  1
  Mg  Mg3  1  0.37394900  0.05875500  0.70395000  1
  Mg  Mg4  1  0.00797400  0.01594800  0.80803600  1
  Mg  Mg5  1  0.07047400  0.14094800  0.74553600  1
  Mg  Mg6  1  0.80262200  0.60524500  0.77870000  1
  Mg  Mg7  1  0.33832600  0.67665200  0.71237200  1
  Mg  Mg8  1  0.27582600  0.55165200  0.77487200  1
  Mg  Mg9  1  0.86512200  0.73024500  0.71620000  1
  Mg  Mg10  1  0.74730600  0.18375500  0.64145000  1
  Mg  Mg11  1  0.58114200  0.47314200  0.66212100  1
  Mg  Mg12  1  0.95449900  0.59814200  0.59962100  1
  Mg  Mg13  1  0.49894900  0.30875500  0.57895000  1
  Mg  Mg14  1  0.13297400  0.26594800  0.68303600  1
  Mg  Mg15  1  0.19547400  0.39094800  0.62053600  1
  Mg  Mg16  1  0.92762200  0.85524500  0.65370000  1
  Mg  Mg17  1  0.46332600  0.92665200  0.58737200  1
  Mg  Mg18  1  0.40082600  0.80165200  0.64987200  1
  Mg  Mg19  1  0.99012200  0.98024500  0.59120000  1
  Mg  Mg20  1  0.87230600  0.43375500  0.51645000  1
  Mg  Mg21  1  0.70614200  0.72314200  0.53712100  1
  Mg  Mg22  1  0.07949900  0.84814200  0.47462100  1
  Mg  Mg23  1  0.62394900  0.55875500  0.45395000  1
  Mg  Mg24  1  0.25797400  0.51594800  0.55803600  1
  Mg  Mg25  1  0.32047400  0.64094800  0.49553600  1
  Mg  Mg26  1  0.05262200  0.10524500  0.52870000  1
  Mg  Mg27  1  0.58832600  0.17665200  0.46237200  1
  Mg  Mg28  1  0.52582600  0.05165200  0.52487200  1
  Mg  Mg29  1  0.11512200  0.23024500  0.46620000  1
  Mg  Mg30  1  0.99730600  0.68375500  0.39145000  1
  Mg  Mg31  1  0.83114200  0.97314200  0.41212100  1
  Mg  Mg32  1  0.20449900  0.09814200  0.34962100  1
  Mg  Mg33  1  0.74894900  0.80875500  0.32895000  1
  Mg  Mg34  1  0.38297400  0.76594800  0.43303600  1
  Mg  Mg35  1  0.44547400  0.89094800  0.37053600  1
  Mg  Mg36  1  0.17762200  0.35524500  0.40370000  1
  Mg  Mg37  1  0.71332600  0.42665200  0.33737200  1
  Mg  Mg38  1  0.65082600  0.30165200  0.39987200  1
  Mg  Mg39  1  0.24012200  0.48024500  0.34120000  1
  Mg  Mg40  1  0.12230600  0.93375500  0.26645000  1
  Mg  Mg41  1  0.95614200  0.22314200  0.28712100  1
  Mg  Mg42  1  0.50797400  0.01594800  0.30803600  1
  Mg  Mg43  1  0.57047400  0.14094800  0.24553600  1
  Mg  Mg44  1  0.30262200  0.60524500  0.27870000  1
  Mg  Mg45  1  0.77582600  0.55165200  0.27487200  1
  Ga  Ga46  1  0.19154600  0.86422500  0.76148400  1
  Ga  Ga47  1  0.88690200  0.29267200  0.79208700  1
  Ga  Ga48  1  0.46827000  0.41767200  0.72958700  1
  Ga  Ga49  1  0.73517900  0.98922500  0.69898400  1
  Ga  Ga50  1  0.31654600  0.11422500  0.63648400  1
  Ga  Ga51  1  0.01190200  0.54267200  0.66708700  1
  Ga  Ga52  1  0.59327000  0.66767200  0.60458700  1
  Ga  Ga53  1  0.86017900  0.23922500  0.57398400  1
  Ga  Ga54  1  0.44154600  0.36422500  0.51148400  1
  Ga  Ga55  1  0.13690200  0.79267200  0.54208700  1
  Ga  Ga56  1  0.71827000  0.91767200  0.47958700  1
  Ga  Ga57  1  0.98517900  0.48922500  0.44898400  1
  Ga  Ga58  1  0.56654600  0.61422500  0.38648400  1
  Ga  Ga59  1  0.26190200  0.04267200  0.41708700  1
  Ga  Ga60  1  0.84327000  0.16767200  0.35458700  1
  Ga  Ga61  1  0.11017900  0.73922500  0.32398400  1
  Ga  Ga62  1  0.69154600  0.86422500  0.26148400  1
  Ga  Ga63  1  0.38690200  0.29267200  0.29208700  1
