# generated using pymatgen
data_Mg17Zn30
_symmetry_space_group_name_H-M   'P 1'
_cell_length_a   5.07402229
_cell_length_b   14.70723601
_cell_length_c   50.49845100
_cell_angle_alpha   88.21601723
_cell_angle_beta   89.67566990
_cell_angle_gamma   90.29193359
_symmetry_Int_Tables_number   1
_chemical_formula_structural   Mg17Zn30
_chemical_formula_sum   'Mg34 Zn60'
_cell_volume   3766.49971225
_cell_formula_units_Z   2
loop_
 _symmetry_equiv_pos_site_id
 _symmetry_equiv_pos_as_xyz
  1  'x, y, z'
loop_
 _atom_site_type_symbol
 _atom_site_label
 _atom_site_symmetry_multiplicity
 _atom_site_fract_x
 _atom_site_fract_y
 _atom_site_fract_z
 _atom_site_occupancy
  Mg  Mg0  1  0.17212500  0.87414300  0.47411200  1
  Mg  Mg1  1  0.16933800  0.14059500  0.39405500  1
  Mg  Mg2  1  0.67551600  0.85126200  0.44039500  1
  Mg  Mg3  1  0.67416700  0.22688700  0.41903400  1
  Mg  Mg4  1  0.67178900  0.18980100  0.48173000  1
  Mg  Mg5  1  0.67133200  0.82216200  0.38233200  1
  Mg  Mg6  1  0.67268100  0.44653700  0.40369300  1
  Mg  Mg7  1  0.17202300  0.93520200  0.40796100  1
  Mg  Mg8  1  0.17312100  0.50594000  0.49096400  1
  Mg  Mg9  1  0.17372700  0.16748400  0.33176300  1
  Mg  Mg10  1  0.67505800  0.48362200  0.34099700  1
  Mg  Mg11  1  0.17472200  0.79928100  0.34861500  1
  Mg  Mg12  1  0.17750900  0.53282800  0.42867200  1
  Mg  Mg13  1  0.17482500  0.73822100  0.41476600  1
  Mg  Mg14  1  0.67212500  0.62414300  0.72411200  1
  Mg  Mg15  1  0.66933800  0.89059500  0.64405500  1
  Mg  Mg16  1  0.67796400  0.38683900  0.50891900  1
  Mg  Mg17  1  0.17551600  0.60126200  0.69039500  1
  Mg  Mg18  1  0.17416700  0.97688700  0.66903400  1
  Mg  Mg19  1  0.17602900  0.70159600  0.51842600  1
  Mg  Mg20  1  0.17178900  0.93980100  0.73173000  1
  Mg  Mg21  1  0.17133200  0.57216200  0.63233200  1
  Mg  Mg22  1  0.17260400  0.07136800  0.50052300  1
  Mg  Mg23  1  0.17268100  0.19653700  0.65369300  1
  Mg  Mg24  1  0.16888400  0.03658400  0.56380800  1
  Mg  Mg25  1  0.67424400  0.35205500  0.57220500  1
  Mg  Mg26  1  0.67202300  0.68520200  0.65796100  1
  Mg  Mg27  1  0.67312100  0.25594000  0.74096400  1
  Mg  Mg28  1  0.67372700  0.91748400  0.58176300  1
  Mg  Mg29  1  0.17505800  0.23362200  0.59099700  1
  Mg  Mg30  1  0.67472200  0.54928100  0.59861500  1
  Mg  Mg31  1  0.67081800  0.72182700  0.55430100  1
  Mg  Mg32  1  0.67750900  0.28282800  0.67867200  1
  Mg  Mg33  1  0.67482500  0.48822100  0.66476600  1
  Zn  Zn34  1  0.16932200  0.20672300  0.44906200  1
  Zn  Zn35  1  0.67269400  0.02826400  0.40242400  1
  Zn  Zn36  1  0.42281600  0.62458400  0.37518100  1
  Zn  Zn37  1  0.91858100  0.30458900  0.36672200  1
  Zn  Zn38  1  0.42047100  0.05108300  0.44652300  1
  Zn  Zn39  1  0.17752500  0.46670000  0.37366500  1
  Zn  Zn40  1  0.92185700  0.36885400  0.45609900  1
  Zn  Zn41  1  0.67254900  0.78821900  0.49666100  1
  Zn  Zn42  1  0.17384000  0.28604800  0.49562800  1
  Zn  Zn43  1  0.67893200  0.52129400  0.45915900  1
  Zn  Zn44  1  0.67415300  0.64516000  0.42030300  1
  Zn  Zn45  1  0.93257700  0.68412900  0.46429000  1
  Zn  Zn46  1  0.42499100  0.30457000  0.36662800  1
  Zn  Zn47  1  0.92637600  0.62234000  0.37620400  1
  Zn  Zn48  1  0.17300800  0.38737500  0.32709900  1
  Zn  Zn49  1  0.41427100  0.98929500  0.35843800  1
  Zn  Zn50  1  0.42826700  0.36883500  0.45600500  1
  Zn  Zn51  1  0.66787300  0.97645500  0.48708200  1
  Zn  Zn52  1  0.41917700  0.68660800  0.46362900  1
  Zn  Zn53  1  0.67897400  0.69696800  0.33564500  1
  Zn  Zn54  1  0.92767100  0.98681600  0.35909800  1
  Zn  Zn55  1  0.66791500  0.15213000  0.36356800  1
  Zn  Zn56  1  0.92403100  0.04884000  0.44754700  1
  Zn  Zn57  1  0.17342400  0.33671200  0.41136400  1
  Zn  Zn58  1  0.67429900  0.88520500  0.32606700  1
  Zn  Zn59  1  0.66932200  0.95672300  0.69906200  1
  Zn  Zn60  1  0.17269400  0.77826400  0.65242400  1
  Zn  Zn61  1  0.67693600  0.05225700  0.53296600  1
  Zn  Zn62  1  0.92281600  0.37458400  0.62518100  1
  Zn  Zn63  1  0.41858100  0.05458900  0.61672200  1
  Zn  Zn64  1  0.92047100  0.80108300  0.69652300  1
  Zn  Zn65  1  0.42342400  0.21171200  0.53636400  1
  Zn  Zn66  1  0.67752500  0.21670000  0.62366500  1
  Zn  Zn67  1  0.17423000  0.81754800  0.56762200  1
  Zn  Zn68  1  0.42185700  0.11885400  0.70609900  1
  Zn  Zn69  1  0.42001500  0.89495400  0.52864500  1
  Zn  Zn70  1  0.17254900  0.53821900  0.74666100  1
  Zn  Zn71  1  0.67384000  0.03604800  0.74562800  1
  Zn  Zn72  1  0.17893200  0.27129400  0.70915900  1
  Zn  Zn73  1  0.17415300  0.39516000  0.67030300  1
  Zn  Zn74  1  0.67261800  0.60587600  0.50510500  1
  Zn  Zn75  1  0.43257700  0.43412900  0.71429000  1
  Zn  Zn76  1  0.92499100  0.05457000  0.61662800  1
  Zn  Zn77  1  0.42637600  0.37234000  0.62620400  1
  Zn  Zn78  1  0.67300800  0.13737500  0.57709900  1
  Zn  Zn79  1  0.91427100  0.73929500  0.60843800  1
  Zn  Zn80  1  0.92826700  0.11883500  0.70600500  1
  Zn  Zn81  1  0.92342400  0.21171200  0.53636400  1
  Zn  Zn82  1  0.16787300  0.72645500  0.73708200  1
  Zn  Zn83  1  0.92407800  0.89405200  0.52902200  1
  Zn  Zn84  1  0.91917700  0.43660800  0.71362900  1
  Zn  Zn85  1  0.17897400  0.44696800  0.58564500  1
  Zn  Zn86  1  0.42767100  0.73681600  0.60909800  1
  Zn  Zn87  1  0.16791500  0.90213000  0.61356800  1
  Zn  Zn88  1  0.92277000  0.52937200  0.54370600  1
  Zn  Zn89  1  0.42403100  0.79884000  0.69754700  1
  Zn  Zn90  1  0.67342400  0.08671200  0.66136400  1
  Zn  Zn91  1  0.42683200  0.52847000  0.54408200  1
  Zn  Zn92  1  0.17429900  0.63520500  0.57606700  1
  Zn  Zn93  1  0.16991100  0.37116700  0.53976100  1
