# generated using pymatgen
data_Mg3Cd
_symmetry_space_group_name_H-M   'P 1'
_cell_length_a   8.12497364
_cell_length_b   8.12497379
_cell_length_c   43.03177200
_cell_angle_alpha   87.64596510
_cell_angle_beta   92.35403494
_cell_angle_gamma   95.52279383
_symmetry_Int_Tables_number   1
_chemical_formula_structural   Mg3Cd
_chemical_formula_sum   'Mg60 Cd20'
_cell_volume   2823.20925984
_cell_formula_units_Z   20
loop_
 _symmetry_equiv_pos_site_id
 _symmetry_equiv_pos_as_xyz
  1  'x, y, z'
loop_
 _atom_site_type_symbol
 _atom_site_label
 _atom_site_symmetry_multiplicity
 _atom_site_fract_x
 _atom_site_fract_y
 _atom_site_fract_z
 _atom_site_occupancy
  Mg  Mg0  1  0.11474600  0.05322000  0.23461900  1
  Mg  Mg1  1  0.61572000  0.55224600  0.23413100  1
  Mg  Mg2  1  0.92578400  0.73828400  0.20312500  1
  Mg  Mg3  1  0.26025400  0.57178000  0.20288100  1
  Mg  Mg4  1  0.75928000  0.07275400  0.20336900  1
  Mg  Mg5  1  0.44921600  0.88671600  0.23437500  1
  Mg  Mg6  1  0.48974600  0.67822000  0.29711900  1
  Mg  Mg7  1  0.99072000  0.17724600  0.29663100  1
  Mg  Mg8  1  0.30078400  0.36328400  0.26562500  1
  Mg  Mg9  1  0.63525400  0.19678000  0.26538100  1
  Mg  Mg10  1  0.13428000  0.69775400  0.26586900  1
  Mg  Mg11  1  0.82421600  0.51171600  0.29687500  1
  Mg  Mg12  1  0.86474600  0.30322000  0.35961900  1
  Mg  Mg13  1  0.36572000  0.80224600  0.35913100  1
  Mg  Mg14  1  0.67578400  0.98828400  0.32812500  1
  Mg  Mg15  1  0.01025400  0.82178000  0.32788100  1
  Mg  Mg16  1  0.50928000  0.32275400  0.32836900  1
  Mg  Mg17  1  0.19921600  0.13671600  0.35937500  1
  Mg  Mg18  1  0.23974600  0.92822000  0.42211900  1
  Mg  Mg19  1  0.74072000  0.42724600  0.42163100  1
  Mg  Mg20  1  0.05078400  0.61328400  0.39062500  1
  Mg  Mg21  1  0.38525400  0.44678000  0.39038100  1
  Mg  Mg22  1  0.88428000  0.94775400  0.39086900  1
  Mg  Mg23  1  0.57421600  0.76171600  0.42187500  1
  Mg  Mg24  1  0.61474600  0.55322000  0.48461900  1
  Mg  Mg25  1  0.11572000  0.05224600  0.48413100  1
  Mg  Mg26  1  0.42578400  0.23828400  0.45312500  1
  Mg  Mg27  1  0.76025400  0.07178000  0.45288100  1
  Mg  Mg28  1  0.25928000  0.57275400  0.45336900  1
  Mg  Mg29  1  0.94921600  0.38671600  0.48437500  1
  Mg  Mg30  1  0.98974600  0.17822000  0.54711900  1
  Mg  Mg31  1  0.49072000  0.67724600  0.54663100  1
  Mg  Mg32  1  0.80078400  0.86328400  0.51562500  1
  Mg  Mg33  1  0.13525400  0.69678000  0.51538100  1
  Mg  Mg34  1  0.63428000  0.19775400  0.51586900  1
  Mg  Mg35  1  0.32421600  0.01171600  0.54687500  1
  Mg  Mg36  1  0.36474600  0.80322000  0.60961900  1
  Mg  Mg37  1  0.86572000  0.30224600  0.60913100  1
  Mg  Mg38  1  0.17578400  0.48828400  0.57812500  1
  Mg  Mg39  1  0.51025400  0.32178000  0.57788100  1
  Mg  Mg40  1  0.00928000  0.82275400  0.57836900  1
  Mg  Mg41  1  0.69921600  0.63671600  0.60937500  1
  Mg  Mg42  1  0.73974600  0.42822000  0.67211900  1
  Mg  Mg43  1  0.24072000  0.92724600  0.67163100  1
  Mg  Mg44  1  0.55078400  0.11328400  0.64062500  1
  Mg  Mg45  1  0.88525400  0.94678000  0.64038100  1
  Mg  Mg46  1  0.38428000  0.44775400  0.64086900  1
  Mg  Mg47  1  0.07421600  0.26171600  0.67187500  1
  Mg  Mg48  1  0.11474600  0.05322000  0.73461900  1
  Mg  Mg49  1  0.61572000  0.55224600  0.73413100  1
  Mg  Mg50  1  0.92578400  0.73828400  0.70312500  1
  Mg  Mg51  1  0.26025400  0.57178000  0.70288100  1
  Mg  Mg52  1  0.75928000  0.07275400  0.70336900  1
  Mg  Mg53  1  0.44921600  0.88671600  0.73437500  1
  Mg  Mg54  1  0.48974600  0.67822000  0.79711900  1
  Mg  Mg55  1  0.99072000  0.17724600  0.79663100  1
  Mg  Mg56  1  0.30078400  0.36328400  0.76562500  1
  Mg  Mg57  1  0.63525400  0.19678000  0.76538100  1
  Mg  Mg58  1  0.13428000  0.69775400  0.76586900  1
  Mg  Mg59  1  0.82421600  0.51171600  0.79687500  1
  Cd  Cd60  1  0.42708300  0.23958300  0.20312500  1
  Cd  Cd61  1  0.94791700  0.38541700  0.23437500  1
  Cd  Cd62  1  0.80208300  0.86458300  0.26562500  1
  Cd  Cd63  1  0.32291700  0.01041700  0.29687500  1
  Cd  Cd64  1  0.17708300  0.48958300  0.32812500  1
  Cd  Cd65  1  0.69791700  0.63541700  0.35937500  1
  Cd  Cd66  1  0.55208300  0.11458300  0.39062500  1
  Cd  Cd67  1  0.07291700  0.26041700  0.42187500  1
  Cd  Cd68  1  0.92708300  0.73958300  0.45312500  1
  Cd  Cd69  1  0.44791700  0.88541700  0.48437500  1
  Cd  Cd70  1  0.30208300  0.36458300  0.51562500  1
  Cd  Cd71  1  0.82291700  0.51041700  0.54687500  1
  Cd  Cd72  1  0.67708300  0.98958300  0.57812500  1
  Cd  Cd73  1  0.19791700  0.13541700  0.60937500  1
  Cd  Cd74  1  0.05208300  0.61458300  0.64062500  1
  Cd  Cd75  1  0.57291700  0.76041700  0.67187500  1
  Cd  Cd76  1  0.42708300  0.23958300  0.70312500  1
  Cd  Cd77  1  0.94791700  0.38541700  0.73437500  1
  Cd  Cd78  1  0.80208300  0.86458300  0.76562500  1
  Cd  Cd79  1  0.32291700  0.01041700  0.79687500  1
