# generated using pymatgen
data_Mg31Sc5
_symmetry_space_group_name_H-M   'P 1'
_cell_length_a   6.41345192
_cell_length_b   6.41345160
_cell_length_c   42.05581900
_cell_angle_alpha   85.62699425
_cell_angle_beta   85.62699447
_cell_angle_gamma   60.00000161
_symmetry_Int_Tables_number   1
_chemical_formula_structural   Mg31Sc5
_chemical_formula_sum   'Mg31 Sc5'
_cell_volume   1492.28072410
_cell_formula_units_Z   1
loop_
 _symmetry_equiv_pos_site_id
 _symmetry_equiv_pos_as_xyz
  1  'x, y, z'
loop_
 _atom_site_type_symbol
 _atom_site_label
 _atom_site_symmetry_multiplicity
 _atom_site_fract_x
 _atom_site_fract_y
 _atom_site_fract_z
 _atom_site_occupancy
  Mg  Mg0  1  0.71875000  0.84375000  0.71875000  1
  Mg  Mg1  1  0.21875000  0.34375000  0.71875000  1
  Mg  Mg2  1  0.21875000  0.84375000  0.71875000  1
  Mg  Mg3  1  0.40625000  0.03125000  0.65625000  1
  Mg  Mg4  1  0.90625000  0.53125000  0.65625000  1
  Mg  Mg5  1  0.09375000  0.21875000  0.59375000  1
  Mg  Mg6  1  0.59375000  0.71875000  0.59375000  1
  Mg  Mg7  1  0.59375000  0.21875000  0.59375000  1
  Mg  Mg8  1  0.40625000  0.53125000  0.65625000  1
  Mg  Mg9  1  0.90625000  0.03125000  0.65625000  1
  Mg  Mg10  1  0.78125000  0.40625000  0.53125000  1
  Mg  Mg11  1  0.28125000  0.90625000  0.53125000  1
  Mg  Mg12  1  0.46875000  0.59375000  0.46875000  1
  Mg  Mg13  1  0.96875000  0.09375000  0.46875000  1
  Mg  Mg14  1  0.96875000  0.59375000  0.46875000  1
  Mg  Mg15  1  0.78125000  0.90625000  0.53125000  1
  Mg  Mg16  1  0.28125000  0.40625000  0.53125000  1
  Mg  Mg17  1  0.15625000  0.78125000  0.40625000  1
  Mg  Mg18  1  0.65625000  0.28125000  0.40625000  1
  Mg  Mg19  1  0.84375000  0.96875000  0.34375000  1
  Mg  Mg20  1  0.34375000  0.46875000  0.34375000  1
  Mg  Mg21  1  0.34375000  0.96875000  0.34375000  1
  Mg  Mg22  1  0.15625000  0.28125000  0.40625000  1
  Mg  Mg23  1  0.65625000  0.78125000  0.40625000  1
  Mg  Mg24  1  0.53125000  0.15625000  0.28125000  1
  Mg  Mg25  1  0.03125000  0.65625000  0.28125000  1
  Mg  Mg26  1  0.21875000  0.34375000  0.21875000  1
  Mg  Mg27  1  0.71875000  0.84375000  0.21875000  1
  Mg  Mg28  1  0.71875000  0.34375000  0.21875000  1
  Mg  Mg29  1  0.53125000  0.65625000  0.28125000  1
  Mg  Mg30  1  0.03125000  0.15625000  0.28125000  1
  Sc  Sc31  1  0.71875000  0.34375000  0.71875000  1
  Sc  Sc32  1  0.09375000  0.71875000  0.59375000  1
  Sc  Sc33  1  0.46875000  0.09375000  0.46875000  1
  Sc  Sc34  1  0.84375000  0.46875000  0.34375000  1
  Sc  Sc35  1  0.21875000  0.84375000  0.21875000  1
