# generated using pymatgen
data_Mg56Zn97
_symmetry_space_group_name_H-M   'P 1'
_cell_length_a   14.70723629
_cell_length_b   15.05206002
_cell_length_c   44.20851200
_cell_angle_alpha   83.82995566
_cell_angle_beta   98.78068454
_cell_angle_gamma   102.44989049
_symmetry_Int_Tables_number   1
_chemical_formula_structural   Mg56Zn97
_chemical_formula_sum   'Mg112 Zn194'
_cell_volume   9416.24993022
_cell_formula_units_Z   2
loop_
 _symmetry_equiv_pos_site_id
 _symmetry_equiv_pos_as_xyz
  1  'x, y, z'
loop_
 _atom_site_type_symbol
 _atom_site_label
 _atom_site_symmetry_multiplicity
 _atom_site_fract_x
 _atom_site_fract_y
 _atom_site_fract_z
 _atom_site_occupancy
  Mg  Mg0  1  0.10018000  0.15155200  0.25933700  1
  Mg  Mg1  1  0.04358200  0.95646700  0.28944600  1
  Mg  Mg2  1  0.39784500  0.89692400  0.27649500  1
  Mg  Mg3  1  0.97194700  0.27484900  0.28631600  1
  Mg  Mg4  1  0.95641800  0.79472600  0.25419000  1
  Mg  Mg5  1  0.32381600  0.22540600  0.27523200  1
  Mg  Mg6  1  0.60215500  0.85426800  0.26714200  1
  Mg  Mg7  1  0.67618400  0.52578700  0.26840500  1
  Mg  Mg8  1  0.74882900  0.19853900  0.26954800  1
  Mg  Mg9  1  0.25117100  0.55265400  0.27408800  1
  Mg  Mg10  1  0.89982000  0.59964100  0.28429900  1
  Mg  Mg11  1  0.02805300  0.47634400  0.25732000  1
  Mg  Mg12  1  0.10018000  0.95155200  0.35933700  1
  Mg  Mg13  1  0.28657500  0.72795000  0.31102400  1
  Mg  Mg14  1  0.64768300  0.14784300  0.33080500  1
  Mg  Mg15  1  0.04358200  0.75646700  0.38944600  1
  Mg  Mg16  1  0.39784500  0.69692400  0.37649500  1
  Mg  Mg17  1  0.97194700  0.07484900  0.38631600  1
  Mg  Mg18  1  0.42345600  0.07294900  0.31387400  1
  Mg  Mg19  1  0.95641800  0.59472600  0.35419000  1
  Mg  Mg20  1  0.32381600  0.02540600  0.37523200  1
  Mg  Mg21  1  0.60215500  0.65426800  0.36714200  1
  Mg  Mg22  1  0.35231700  0.40335000  0.31283100  1
  Mg  Mg23  1  0.67618400  0.32578700  0.36840500  1
  Mg  Mg24  1  0.09508800  0.76635000  0.31963700  1
  Mg  Mg25  1  0.74882900  0.99853900  0.36954800  1
  Mg  Mg26  1  0.25117100  0.35265400  0.37408800  1
  Mg  Mg27  1  0.57654400  0.47824400  0.32976200  1
  Mg  Mg28  1  0.89982000  0.39964100  0.38429900  1
  Mg  Mg29  1  0.02805300  0.27634400  0.35732000  1
  Mg  Mg30  1  0.71342500  0.82324300  0.33261200  1
  Mg  Mg31  1  0.90491200  0.78484200  0.32400000  1
  Mg  Mg32  1  0.10018000  0.75155200  0.45933700  1
  Mg  Mg33  1  0.28657500  0.52795000  0.41102400  1
  Mg  Mg34  1  0.64768300  0.94784300  0.43080500  1
  Mg  Mg35  1  0.04358200  0.55646700  0.48944600  1
  Mg  Mg36  1  0.39784500  0.49692400  0.47649500  1
  Mg  Mg37  1  0.97194700  0.87484900  0.48631600  1
  Mg  Mg38  1  0.42345600  0.87294900  0.41387400  1
  Mg  Mg39  1  0.95641800  0.39472600  0.45419000  1
  Mg  Mg40  1  0.32381600  0.82540600  0.47523200  1
  Mg  Mg41  1  0.60215500  0.45426800  0.46714200  1
  Mg  Mg42  1  0.35231700  0.20335000  0.41283100  1
  Mg  Mg43  1  0.67618400  0.12578700  0.46840500  1
  Mg  Mg44  1  0.09508800  0.56635000  0.41963700  1
  Mg  Mg45  1  0.74882900  0.79853900  0.46954800  1
  Mg  Mg46  1  0.25117100  0.15265400  0.47408800  1
  Mg  Mg47  1  0.57654400  0.27824400  0.42976200  1
  Mg  Mg48  1  0.89982000  0.19964100  0.48429900  1
  Mg  Mg49  1  0.02805300  0.07634400  0.45732000  1
  Mg  Mg50  1  0.71342500  0.62324300  0.43261200  1
  Mg  Mg51  1  0.90491200  0.58484200  0.42400000  1
  Mg  Mg52  1  0.10018000  0.55155200  0.55933700  1
  Mg  Mg53  1  0.28657500  0.32795000  0.51102400  1
  Mg  Mg54  1  0.64768300  0.74784300  0.53080500  1
  Mg  Mg55  1  0.04358200  0.35646700  0.58944600  1
  Mg  Mg56  1  0.39784500  0.29692400  0.57649500  1
  Mg  Mg57  1  0.97194700  0.67484900  0.58631600  1
  Mg  Mg58  1  0.42345600  0.67294900  0.51387400  1
  Mg  Mg59  1  0.95641800  0.19472600  0.55419000  1
  Mg  Mg60  1  0.32381600  0.62540600  0.57523200  1
  Mg  Mg61  1  0.60215500  0.25426800  0.56714200  1
  Mg  Mg62  1  0.35231700  0.00335000  0.51283100  1
  Mg  Mg63  1  0.67618400  0.92578700  0.56840500  1
  Mg  Mg64  1  0.09508800  0.36635000  0.51963700  1
  Mg  Mg65  1  0.74882900  0.59853900  0.56954800  1
  Mg  Mg66  1  0.25117100  0.95265400  0.57408800  1
  Mg  Mg67  1  0.57654400  0.07824400  0.52976200  1
  Mg  Mg68  1  0.89982000  0.99964100  0.58429900  1
  Mg  Mg69  1  0.02805300  0.87634400  0.55732000  1
  Mg  Mg70  1  0.71342500  0.42324300  0.53261200  1
  Mg  Mg71  1  0.90491200  0.38484200  0.52400000  1
  Mg  Mg72  1  0.10018000  0.35155200  0.65933700  1
  Mg  Mg73  1  0.28657500  0.12795000  0.61102400  1
  Mg  Mg74  1  0.64768300  0.54784300  0.63080500  1
  Mg  Mg75  1  0.04358200  0.15646700  0.68944600  1
  Mg  Mg76  1  0.39784500  0.09692400  0.67649500  1
  Mg  Mg77  1  0.97194700  0.47484900  0.68631600  1
  Mg  Mg78  1  0.42345600  0.47294900  0.61387400  1
  Mg  Mg79  1  0.95641800  0.99472600  0.65419000  1
  Mg  Mg80  1  0.32381600  0.42540600  0.67523200  1
  Mg  Mg81  1  0.60215500  0.05426800  0.66714200  1
  Mg  Mg82  1  0.35231700  0.80335000  0.61283100  1
  Mg  Mg83  1  0.67618400  0.72578700  0.66840500  1
  Mg  Mg84  1  0.09508800  0.16635000  0.61963700  1
  Mg  Mg85  1  0.74882900  0.39853900  0.66954800  1
  Mg  Mg86  1  0.25117100  0.75265400  0.67408800  1
  Mg  Mg87  1  0.57654400  0.87824400  0.62976200  1
  Mg  Mg88  1  0.89982000  0.79964100  0.68429900  1
  Mg  Mg89  1  0.02805300  0.67634400  0.65732000  1
  Mg  Mg90  1  0.71342500  0.22324300  0.63261200  1
  Mg  Mg91  1  0.90491200  0.18484200  0.62400000  1
  Mg  Mg92  1  0.10018000  0.15155200  0.75933700  1
  Mg  Mg93  1  0.28657500  0.92795000  0.71102400  1
  Mg  Mg94  1  0.64768300  0.34784300  0.73080500  1
  Mg  Mg95  1  0.04358200  0.95646700  0.78944600  1
  Mg  Mg96  1  0.39784500  0.89692400  0.77649500  1
  Mg  Mg97  1  0.97194700  0.27484900  0.78631600  1
  Mg  Mg98  1  0.42345600  0.27294900  0.71387400  1
  Mg  Mg99  1  0.95641800  0.79472600  0.75419000  1
  Mg  Mg100  1  0.32381600  0.22540600  0.77523200  1
  Mg  Mg101  1  0.60215500  0.85426800  0.76714200  1
  Mg  Mg102  1  0.35231700  0.60335000  0.71283100  1
  Mg  Mg103  1  0.67618400  0.52578700  0.76840500  1
  Mg  Mg104  1  0.09508800  0.96635000  0.71963700  1
  Mg  Mg105  1  0.74882900  0.19853900  0.76954800  1
  Mg  Mg106  1  0.25117100  0.55265400  0.77408800  1
  Mg  Mg107  1  0.57654400  0.67824400  0.72976200  1
  Mg  Mg108  1  0.89982000  0.59964100  0.78429900  1
  Mg  Mg109  1  0.02805300  0.47634400  0.75732000  1
  Mg  Mg110  1  0.71342500  0.02324300  0.73261200  1
  Mg  Mg111  1  0.90491200  0.98484200  0.72400000  1
  Zn  Zn112  1  0.40771000  0.08197300  0.24402700  1
  Zn  Zn113  1  0.18261300  0.85071200  0.26638200  1
  Zn  Zn114  1  0.33714800  0.41538200  0.24513100  1
  Zn  Zn115  1  0.42323600  0.70156900  0.26954900  1
  Zn  Zn116  1  0.24953100  0.02463400  0.26761900  1
  Zn  Zn117  1  0.59229000  0.66922000  0.29960900  1
  Zn  Zn118  1  0.53360100  0.21145400  0.27241900  1
  Zn  Zn119  1  0.73237700  0.00832200  0.30104600  1
  Zn  Zn120  1  0.81738700  0.90048100  0.27725500  1
  Zn  Zn121  1  0.75046900  0.72655800  0.27601800  1
  Zn  Zn122  1  0.46639900  0.53973900  0.27121800  1
  Zn  Zn123  1  0.57676400  0.04962300  0.27408700  1
  Zn  Zn124  1  0.50000000  0.37559600  0.27181800  1
  Zn  Zn125  1  0.17499800  0.35490800  0.26747800  1
  Zn  Zn126  1  0.90216100  0.07278900  0.27775300  1
  Zn  Zn127  1  0.09783900  0.67840400  0.26588400  1
  Zn  Zn128  1  0.26762300  0.74287100  0.24259000  1
  Zn  Zn129  1  0.82500200  0.39628500  0.27615800  1
  Zn  Zn130  1  0.66285200  0.33581100  0.29850500  1
  Zn  Zn131  1  0.40771000  0.88197300  0.34402700  1
  Zn  Zn132  1  0.18261300  0.65071200  0.36638200  1
  Zn  Zn133  1  0.33714800  0.21538200  0.34513100  1
  Zn  Zn134  1  0.75168900  0.62440600  0.32504800  1
  Zn  Zn135  1  0.42323600  0.50156900  0.36954900  1
  Zn  Zn136  1  0.24953100  0.82463400  0.36761900  1
  Zn  Zn137  1  0.50000000  0.27559600  0.32181800  1
  Zn  Zn138  1  0.59229000  0.46922000  0.39960900  1
  Zn  Zn139  1  0.13709400  0.41295800  0.31565400  1
  Zn  Zn140  1  0.57687700  0.95116900  0.32350300  1
  Zn  Zn141  1  0.17552400  0.25466700  0.31684600  1
  Zn  Zn142  1  0.03680400  0.11460300  0.32290900  1
  Zn  Zn143  1  0.53360100  0.01145400  0.37241900  1
  Zn  Zn144  1  0.73237700  0.80832200  0.40104600  1
  Zn  Zn145  1  0.81738700  0.70048100  0.37725500  1
  Zn  Zn146  1  0.86290600  0.13823500  0.32798300  1
  Zn  Zn147  1  0.90034300  0.97195800  0.32948900  1
  Zn  Zn148  1  0.42312300  0.60002300  0.32013400  1
  Zn  Zn149  1  0.75046900  0.52655800  0.37601800  1
  Zn  Zn150  1  0.46639900  0.33973900  0.37121800  1
  Zn  Zn151  1  0.09965700  0.57923400  0.31414700  1
  Zn  Zn152  1  0.57676400  0.84962300  0.37408700  1
  Zn  Zn153  1  0.50000000  0.17559600  0.37181800  1
  Zn  Zn154  1  0.21546200  0.08871900  0.31669400  1
  Zn  Zn155  1  0.17499800  0.15490800  0.36747800  1
  Zn  Zn156  1  0.90216100  0.87278900  0.37775300  1
  Zn  Zn157  1  0.78453800  0.46247400  0.32694200  1
  Zn  Zn158  1  0.09783900  0.47840400  0.36588400  1
  Zn  Zn159  1  0.26762300  0.54287100  0.34259000  1
  Zn  Zn160  1  0.82500200  0.19628500  0.37615800  1
  Zn  Zn161  1  0.24831100  0.92678700  0.31858900  1
  Zn  Zn162  1  0.50000000  0.77559600  0.32181800  1
  Zn  Zn163  1  0.82447600  0.29652600  0.32679000  1
  Zn  Zn164  1  0.96319600  0.43659000  0.32072800  1
  Zn  Zn165  1  0.66285200  0.13581100  0.39850500  1
  Zn  Zn166  1  0.40771000  0.68197300  0.44402700  1
  Zn  Zn167  1  0.18261300  0.45071200  0.46638200  1
  Zn  Zn168  1  0.33714800  0.01538200  0.44513100  1
  Zn  Zn169  1  0.75168900  0.42440600  0.42504800  1
  Zn  Zn170  1  0.42323600  0.30156900  0.46954900  1
  Zn  Zn171  1  0.24953100  0.62463400  0.46761900  1
  Zn  Zn172  1  0.50000000  0.07559600  0.42181800  1
  Zn  Zn173  1  0.59229000  0.26922000  0.49960900  1
  Zn  Zn174  1  0.13709400  0.21295800  0.41565400  1
  Zn  Zn175  1  0.57687700  0.75116900  0.42350300  1
  Zn  Zn176  1  0.17552400  0.05466700  0.41684600  1
  Zn  Zn177  1  0.03680400  0.91460300  0.42290900  1
  Zn  Zn178  1  0.53360100  0.81145400  0.47241900  1
  Zn  Zn179  1  0.73237700  0.60832200  0.50104600  1
  Zn  Zn180  1  0.81738700  0.50048100  0.47725500  1
  Zn  Zn181  1  0.86290600  0.93823500  0.42798300  1
  Zn  Zn182  1  0.90034300  0.77195800  0.42948900  1
  Zn  Zn183  1  0.42312300  0.40002300  0.42013400  1
  Zn  Zn184  1  0.75046900  0.32655800  0.47601800  1
  Zn  Zn185  1  0.46639900  0.13973900  0.47121800  1
  Zn  Zn186  1  0.09965700  0.37923400  0.41414700  1
  Zn  Zn187  1  0.57676400  0.64962300  0.47408700  1
  Zn  Zn188  1  0.50000000  0.97559600  0.47181800  1
  Zn  Zn189  1  0.21546200  0.88871900  0.41669400  1
  Zn  Zn190  1  0.17499800  0.95490800  0.46747800  1
  Zn  Zn191  1  0.90216100  0.67278900  0.47775300  1
  Zn  Zn192  1  0.78453800  0.26247400  0.42694200  1
  Zn  Zn193  1  0.09783900  0.27840400  0.46588400  1
  Zn  Zn194  1  0.26762300  0.34287100  0.44259000  1
  Zn  Zn195  1  0.82500200  0.99628500  0.47615800  1
  Zn  Zn196  1  0.24831100  0.72678700  0.41858900  1
  Zn  Zn197  1  0.50000000  0.57559600  0.42181800  1
  Zn  Zn198  1  0.82447600  0.09652600  0.42679000  1
  Zn  Zn199  1  0.96319600  0.23659000  0.42072800  1
  Zn  Zn200  1  0.66285200  0.93581100  0.49850500  1
  Zn  Zn201  1  0.40771000  0.48197300  0.54402700  1
  Zn  Zn202  1  0.18261300  0.25071200  0.56638200  1
  Zn  Zn203  1  0.33714800  0.81538200  0.54513100  1
  Zn  Zn204  1  0.75168900  0.22440600  0.52504800  1
  Zn  Zn205  1  0.42323600  0.10156900  0.56954900  1
  Zn  Zn206  1  0.24953100  0.42463400  0.56761900  1
  Zn  Zn207  1  0.50000000  0.87559600  0.52181800  1
  Zn  Zn208  1  0.59229000  0.06922000  0.59960900  1
  Zn  Zn209  1  0.13709400  0.01295800  0.51565400  1
  Zn  Zn210  1  0.57687700  0.55116900  0.52350300  1
  Zn  Zn211  1  0.17552400  0.85466700  0.51684600  1
  Zn  Zn212  1  0.03680400  0.71460300  0.52290900  1
  Zn  Zn213  1  0.53360100  0.61145400  0.57241900  1
  Zn  Zn214  1  0.73237700  0.40832200  0.60104600  1
  Zn  Zn215  1  0.81738700  0.30048100  0.57725500  1
  Zn  Zn216  1  0.86290600  0.73823500  0.52798300  1
  Zn  Zn217  1  0.90034300  0.57195800  0.52948900  1
  Zn  Zn218  1  0.42312300  0.20002300  0.52013400  1
  Zn  Zn219  1  0.75046900  0.12655800  0.57601800  1
  Zn  Zn220  1  0.46639900  0.93973900  0.57121800  1
  Zn  Zn221  1  0.09965700  0.17923400  0.51414700  1
  Zn  Zn222  1  0.57676400  0.44962300  0.57408700  1
  Zn  Zn223  1  0.50000000  0.77559600  0.57181800  1
  Zn  Zn224  1  0.21546200  0.68871900  0.51669400  1
  Zn  Zn225  1  0.17499800  0.75490800  0.56747800  1
  Zn  Zn226  1  0.90216100  0.47278900  0.57775300  1
  Zn  Zn227  1  0.78453800  0.06247400  0.52694200  1
  Zn  Zn228  1  0.09783900  0.07840400  0.56588400  1
  Zn  Zn229  1  0.26762300  0.14287100  0.54259000  1
  Zn  Zn230  1  0.82500200  0.79628500  0.57615800  1
  Zn  Zn231  1  0.24831100  0.52678700  0.51858900  1
  Zn  Zn232  1  0.50000000  0.37559600  0.52181800  1
  Zn  Zn233  1  0.82447600  0.89652600  0.52679000  1
  Zn  Zn234  1  0.96319600  0.03659000  0.52072800  1
  Zn  Zn235  1  0.66285200  0.73581100  0.59850500  1
  Zn  Zn236  1  0.40771000  0.28197300  0.64402700  1
  Zn  Zn237  1  0.18261300  0.05071200  0.66638200  1
  Zn  Zn238  1  0.33714800  0.61538200  0.64513100  1
  Zn  Zn239  1  0.75168900  0.02440600  0.62504800  1
  Zn  Zn240  1  0.42323600  0.90156900  0.66954900  1
  Zn  Zn241  1  0.24953100  0.22463400  0.66761900  1
  Zn  Zn242  1  0.50000000  0.67559600  0.62181800  1
  Zn  Zn243  1  0.59229000  0.86922000  0.69960900  1
  Zn  Zn244  1  0.13709400  0.81295800  0.61565400  1
  Zn  Zn245  1  0.57687700  0.35116900  0.62350300  1
  Zn  Zn246  1  0.17552400  0.65466700  0.61684600  1
  Zn  Zn247  1  0.03680400  0.51460300  0.62290900  1
  Zn  Zn248  1  0.53360100  0.41145400  0.67241900  1
  Zn  Zn249  1  0.73237700  0.20832200  0.70104600  1
  Zn  Zn250  1  0.81738700  0.10048100  0.67725500  1
  Zn  Zn251  1  0.86290600  0.53823500  0.62798300  1
  Zn  Zn252  1  0.90034300  0.37195800  0.62948900  1
  Zn  Zn253  1  0.42312300  0.00002300  0.62013400  1
  Zn  Zn254  1  0.75046900  0.92655800  0.67601800  1
  Zn  Zn255  1  0.46639900  0.73973900  0.67121800  1
  Zn  Zn256  1  0.09965700  0.97923400  0.61414700  1
  Zn  Zn257  1  0.57676400  0.24962300  0.67408700  1
  Zn  Zn258  1  0.50000000  0.57559600  0.67181800  1
  Zn  Zn259  1  0.21546200  0.48871900  0.61669400  1
  Zn  Zn260  1  0.17499800  0.55490800  0.66747800  1
  Zn  Zn261  1  0.90216100  0.27278900  0.67775300  1
  Zn  Zn262  1  0.78453800  0.86247400  0.62694200  1
  Zn  Zn263  1  0.09783900  0.87840400  0.66588400  1
  Zn  Zn264  1  0.26762300  0.94287100  0.64259000  1
  Zn  Zn265  1  0.82500200  0.59628500  0.67615800  1
  Zn  Zn266  1  0.24831100  0.32678700  0.61858900  1
  Zn  Zn267  1  0.50000000  0.17559600  0.62181800  1
  Zn  Zn268  1  0.82447600  0.69652600  0.62679000  1
  Zn  Zn269  1  0.96319600  0.83659000  0.62072800  1
  Zn  Zn270  1  0.66285200  0.53581100  0.69850500  1
  Zn  Zn271  1  0.40771000  0.08197300  0.74402700  1
  Zn  Zn272  1  0.18261300  0.85071200  0.76638200  1
  Zn  Zn273  1  0.33714800  0.41538200  0.74513100  1
  Zn  Zn274  1  0.75168900  0.82440600  0.72504800  1
  Zn  Zn275  1  0.42323600  0.70156900  0.76954900  1
  Zn  Zn276  1  0.24953100  0.02463400  0.76761900  1
  Zn  Zn277  1  0.50000000  0.47559600  0.72181800  1
  Zn  Zn278  1  0.59229000  0.66922000  0.79960900  1
  Zn  Zn279  1  0.13709400  0.61295800  0.71565400  1
  Zn  Zn280  1  0.57687700  0.15116900  0.72350300  1
  Zn  Zn281  1  0.17552400  0.45466700  0.71684600  1
  Zn  Zn282  1  0.03680400  0.31460300  0.72290900  1
  Zn  Zn283  1  0.53360100  0.21145400  0.77241900  1
  Zn  Zn284  1  0.73237700  0.00832200  0.80104600  1
  Zn  Zn285  1  0.81738700  0.90048100  0.77725500  1
  Zn  Zn286  1  0.86290600  0.33823500  0.72798300  1
  Zn  Zn287  1  0.90034300  0.17195800  0.72948900  1
  Zn  Zn288  1  0.42312300  0.80002300  0.72013400  1
  Zn  Zn289  1  0.75046900  0.72655800  0.77601800  1
  Zn  Zn290  1  0.46639900  0.53973900  0.77121800  1
  Zn  Zn291  1  0.09965700  0.77923400  0.71414700  1
  Zn  Zn292  1  0.57676400  0.04962300  0.77408700  1
  Zn  Zn293  1  0.50000000  0.37559600  0.77181800  1
  Zn  Zn294  1  0.21546200  0.28871900  0.71669400  1
  Zn  Zn295  1  0.17499800  0.35490800  0.76747800  1
  Zn  Zn296  1  0.90216100  0.07278900  0.77775300  1
  Zn  Zn297  1  0.78453800  0.66247400  0.72694200  1
  Zn  Zn298  1  0.09783900  0.67840400  0.76588400  1
  Zn  Zn299  1  0.26762300  0.74287100  0.74259000  1
  Zn  Zn300  1  0.82500200  0.39628500  0.77615800  1
  Zn  Zn301  1  0.24831100  0.12678700  0.71858900  1
  Zn  Zn302  1  0.50000000  0.97559600  0.72181800  1
  Zn  Zn303  1  0.82447600  0.49652600  0.72679000  1
  Zn  Zn304  1  0.96319600  0.63659000  0.72072800  1
  Zn  Zn305  1  0.66285200  0.33581100  0.79850500  1
