# generated using pymatgen
data_Dy4Mg11
_symmetry_space_group_name_H-M   'P 1'
_cell_length_a   5.17413500
_cell_length_b   5.17413500
_cell_length_c   51.22131900
_cell_angle_alpha   90.00000000
_cell_angle_beta   90.00000000
_cell_angle_gamma   90.00000000
_symmetry_Int_Tables_number   1
_chemical_formula_structural   Dy4Mg11
_chemical_formula_sum   'Dy8 Mg22'
_cell_volume   1371.28040281
_cell_formula_units_Z   2
loop_
 _symmetry_equiv_pos_site_id
 _symmetry_equiv_pos_as_xyz
  1  'x, y, z'
loop_
 _atom_site_type_symbol
 _atom_site_label
 _atom_site_symmetry_multiplicity
 _atom_site_fract_x
 _atom_site_fract_y
 _atom_site_fract_z
 _atom_site_occupancy
  Dy  Dy0  1  0.00000000  0.00000000  0.66071400  1
  Dy  Dy1  1  0.50000000  0.50000000  0.73214300  1
  Dy  Dy2  1  0.00000000  0.00000000  0.51785700  1
  Dy  Dy3  1  0.50000000  0.50000000  0.58928600  1
  Dy  Dy4  1  0.00000000  0.00000000  0.37500000  1
  Dy  Dy5  1  0.50000000  0.50000000  0.44642900  1
  Dy  Dy6  1  0.00000000  0.00000000  0.23214300  1
  Dy  Dy7  1  0.50000000  0.50000000  0.30357100  1
  Mg  Mg8  1  0.00000000  0.00000000  0.73214300  1
  Mg  Mg9  1  0.50000000  0.00000000  0.69642900  1
  Mg  Mg10  1  0.50000000  0.50000000  0.66071400  1
  Mg  Mg11  1  0.00000000  0.50000000  0.69642900  1
  Mg  Mg12  1  0.00000000  0.50000000  0.62500000  1
  Mg  Mg13  1  0.00000000  0.00000000  0.58928600  1
  Mg  Mg14  1  0.50000000  0.00000000  0.62500000  1
  Mg  Mg15  1  0.50000000  0.00000000  0.55357100  1
  Mg  Mg16  1  0.50000000  0.50000000  0.51785700  1
  Mg  Mg17  1  0.00000000  0.50000000  0.55357100  1
  Mg  Mg18  1  0.00000000  0.50000000  0.48214300  1
  Mg  Mg19  1  0.00000000  0.00000000  0.44642900  1
  Mg  Mg20  1  0.50000000  0.00000000  0.48214300  1
  Mg  Mg21  1  0.50000000  0.00000000  0.41071400  1
  Mg  Mg22  1  0.50000000  0.50000000  0.37500000  1
  Mg  Mg23  1  0.00000000  0.50000000  0.41071400  1
  Mg  Mg24  1  0.00000000  0.50000000  0.33928600  1
  Mg  Mg25  1  0.00000000  0.00000000  0.30357100  1
  Mg  Mg26  1  0.50000000  0.00000000  0.33928600  1
  Mg  Mg27  1  0.50000000  0.00000000  0.26785700  1
  Mg  Mg28  1  0.50000000  0.50000000  0.23214300  1
  Mg  Mg29  1  0.00000000  0.50000000  0.26785700  1
