# generated using pymatgen
data_Ce2Mg21
_symmetry_space_group_name_H-M   'P 1'
_cell_length_a   5.91556090
_cell_length_b   7.86989903
_cell_length_c   51.13613300
_cell_angle_alpha   88.75436156
_cell_angle_beta   86.68408432
_cell_angle_gamma   67.92408970
_symmetry_Int_Tables_number   1
_chemical_formula_structural   Ce2Mg21
_chemical_formula_sum   'Ce4 Mg42'
_cell_volume   2202.41018646
_cell_formula_units_Z   2
loop_
 _symmetry_equiv_pos_site_id
 _symmetry_equiv_pos_as_xyz
  1  'x, y, z'
loop_
 _atom_site_type_symbol
 _atom_site_label
 _atom_site_symmetry_multiplicity
 _atom_site_fract_x
 _atom_site_fract_y
 _atom_site_fract_z
 _atom_site_occupancy
  Ce  Ce0  1  0.41034600  0.49799000  0.68131900  1
  Ce  Ce1  1  0.98177400  0.49799000  0.53846200  1
  Ce  Ce2  1  0.55320300  0.49799000  0.39560400  1
  Ce  Ce3  1  0.12463100  0.49799000  0.25274700  1
  Mg  Mg4  1  0.81923800  0.71057400  0.65094900  1
  Mg  Mg5  1  0.00145300  0.28540500  0.71168800  1
  Mg  Mg6  1  0.78886900  0.71057400  0.71168800  1
  Mg  Mg7  1  0.03182300  0.28540500  0.65094900  1
  Mg  Mg8  1  0.91034600  0.99799000  0.68131900  1
  Mg  Mg9  1  0.41034600  0.99799000  0.68131900  1
  Mg  Mg10  1  0.39066700  0.71057400  0.50809200  1
  Mg  Mg11  1  0.57288200  0.28540500  0.56883100  1
  Mg  Mg12  1  0.36029800  0.71057400  0.56883100  1
  Mg  Mg13  1  0.60325100  0.28540500  0.50809200  1
  Mg  Mg14  1  0.13229100  0.14678400  0.58863400  1
  Mg  Mg15  1  0.25982900  0.84919500  0.63114600  1
  Mg  Mg16  1  0.61103500  0.14678400  0.63114600  1
  Mg  Mg17  1  0.78108500  0.84919500  0.58863400  1
  Mg  Mg18  1  0.19606000  0.49799000  0.60989000  1
  Mg  Mg19  1  0.69606000  0.49799000  0.60989000  1
  Mg  Mg20  1  0.48177400  0.99799000  0.53846200  1
  Mg  Mg21  1  0.98177400  0.99799000  0.53846200  1
  Mg  Mg22  1  0.96209500  0.71057400  0.36523500  1
  Mg  Mg23  1  0.14431000  0.28540500  0.42597400  1
  Mg  Mg24  1  0.93172600  0.71057400  0.42597400  1
  Mg  Mg25  1  0.17468000  0.28540500  0.36523500  1
  Mg  Mg26  1  0.70372000  0.14678400  0.44577700  1
  Mg  Mg27  1  0.83125800  0.84919500  0.48828900  1
  Mg  Mg28  1  0.18246300  0.14678400  0.48828900  1
  Mg  Mg29  1  0.35251400  0.84919500  0.44577700  1
  Mg  Mg30  1  0.76748900  0.49799000  0.46703300  1
  Mg  Mg31  1  0.26748900  0.49799000  0.46703300  1
  Mg  Mg32  1  0.05320300  0.99799000  0.39560400  1
  Mg  Mg33  1  0.55320300  0.99799000  0.39560400  1
  Mg  Mg34  1  0.53352400  0.71057400  0.22237800  1
  Mg  Mg35  1  0.71573900  0.28540500  0.28311600  1
  Mg  Mg36  1  0.50315500  0.71057400  0.28311600  1
  Mg  Mg37  1  0.74610800  0.28540500  0.22237800  1
  Mg  Mg38  1  0.27514800  0.14678400  0.30291900  1
  Mg  Mg39  1  0.40268600  0.84919500  0.34543200  1
  Mg  Mg40  1  0.75389200  0.14678400  0.34543200  1
  Mg  Mg41  1  0.92394300  0.84919500  0.30291900  1
  Mg  Mg42  1  0.33891700  0.49799000  0.32417600  1
  Mg  Mg43  1  0.83891700  0.49799000  0.32417600  1
  Mg  Mg44  1  0.62463100  0.99799000  0.25274700  1
  Mg  Mg45  1  0.12463100  0.99799000  0.25274700  1
