# generated using pymatgen
data_Tb8Mg17
_symmetry_space_group_name_H-M   'P 1'
_cell_length_a   9.78730500
_cell_length_b   10.53517100
_cell_length_c   42.57738800
_cell_angle_alpha   90.00000000
_cell_angle_beta   90.00000000
_cell_angle_gamma   90.00000000
_symmetry_Int_Tables_number   1
_chemical_formula_structural   Tb8Mg17
_chemical_formula_sum   'Tb32 Mg68'
_cell_volume   4390.19415047
_cell_formula_units_Z   4
loop_
 _symmetry_equiv_pos_site_id
 _symmetry_equiv_pos_as_xyz
  1  'x, y, z'
loop_
 _atom_site_type_symbol
 _atom_site_label
 _atom_site_symmetry_multiplicity
 _atom_site_fract_x
 _atom_site_fract_y
 _atom_site_fract_z
 _atom_site_occupancy
  Tb  Tb0  1  0.43737900  0.04519000  0.22619000  1
  Tb  Tb1  1  0.93737900  0.71185600  0.22619000  1
  Tb  Tb2  1  0.56262100  0.71185600  0.22619000  1
  Tb  Tb3  1  0.06262100  0.04519000  0.22619000  1
  Tb  Tb4  1  0.43737900  0.54519000  0.29761900  1
  Tb  Tb5  1  0.93737900  0.21185600  0.29761900  1
  Tb  Tb6  1  0.56262100  0.21185600  0.29761900  1
  Tb  Tb7  1  0.06262100  0.54519000  0.29761900  1
  Tb  Tb8  1  0.43737900  0.04519000  0.36904800  1
  Tb  Tb9  1  0.93737900  0.71185600  0.36904800  1
  Tb  Tb10  1  0.56262100  0.71185600  0.36904800  1
  Tb  Tb11  1  0.06262100  0.04519000  0.36904800  1
  Tb  Tb12  1  0.43737900  0.54519000  0.44047600  1
  Tb  Tb13  1  0.93737900  0.21185600  0.44047600  1
  Tb  Tb14  1  0.56262100  0.21185600  0.44047600  1
  Tb  Tb15  1  0.06262100  0.54519000  0.44047600  1
  Tb  Tb16  1  0.43737900  0.04519000  0.51190500  1
  Tb  Tb17  1  0.93737900  0.71185600  0.51190500  1
  Tb  Tb18  1  0.56262100  0.71185600  0.51190500  1
  Tb  Tb19  1  0.06262100  0.04519000  0.51190500  1
  Tb  Tb20  1  0.43737900  0.54519000  0.58333300  1
  Tb  Tb21  1  0.93737900  0.21185600  0.58333300  1
  Tb  Tb22  1  0.56262100  0.21185600  0.58333300  1
  Tb  Tb23  1  0.06262100  0.54519000  0.58333300  1
  Tb  Tb24  1  0.43737900  0.04519000  0.65476200  1
  Tb  Tb25  1  0.93737900  0.71185600  0.65476200  1
  Tb  Tb26  1  0.56262100  0.71185600  0.65476200  1
  Tb  Tb27  1  0.06262100  0.04519000  0.65476200  1
  Tb  Tb28  1  0.43737900  0.54519000  0.72619000  1
  Tb  Tb29  1  0.93737900  0.21185600  0.72619000  1
  Tb  Tb30  1  0.56262100  0.21185600  0.72619000  1
  Tb  Tb31  1  0.06262100  0.54519000  0.72619000  1
  Mg  Mg32  1  0.50000000  0.37852300  0.22619000  1
  Mg  Mg33  1  0.00000000  0.37852300  0.22619000  1
  Mg  Mg34  1  0.25000000  0.79284100  0.19148300  1
  Mg  Mg35  1  0.75000000  0.96420500  0.19148300  1
  Mg  Mg36  1  0.75000000  0.20715900  0.22619000  1
  Mg  Mg37  1  0.25000000  0.54988700  0.22619000  1
  Mg  Mg38  1  0.25000000  0.29284100  0.18947000  1
  Mg  Mg39  1  0.75000000  0.46420500  0.18947000  1
  Mg  Mg40  1  0.50000000  0.87852300  0.29761900  1
  Mg  Mg41  1  0.00000000  0.87852300  0.29761900  1
  Mg  Mg42  1  0.25000000  0.29284100  0.26291100  1
  Mg  Mg43  1  0.75000000  0.46420500  0.26291100  1
  Mg  Mg44  1  0.75000000  0.70715900  0.29761900  1
  Mg  Mg45  1  0.25000000  0.04988700  0.29761900  1
  Mg  Mg46  1  0.25000000  0.79284100  0.26089800  1
  Mg  Mg47  1  0.75000000  0.96420500  0.26089800  1
  Mg  Mg48  1  0.50000000  0.37852300  0.36904800  1
  Mg  Mg49  1  0.00000000  0.37852300  0.36904800  1
  Mg  Mg50  1  0.25000000  0.79284100  0.33434000  1
  Mg  Mg51  1  0.75000000  0.96420500  0.33434000  1
  Mg  Mg52  1  0.75000000  0.20715900  0.36904800  1
  Mg  Mg53  1  0.25000000  0.54988700  0.36904800  1
  Mg  Mg54  1  0.25000000  0.29284100  0.33232700  1
  Mg  Mg55  1  0.75000000  0.46420500  0.33232700  1
  Mg  Mg56  1  0.50000000  0.87852300  0.44047600  1
  Mg  Mg57  1  0.00000000  0.87852300  0.44047600  1
  Mg  Mg58  1  0.25000000  0.29284100  0.40576900  1
  Mg  Mg59  1  0.75000000  0.46420500  0.40576900  1
  Mg  Mg60  1  0.75000000  0.70715900  0.44047600  1
  Mg  Mg61  1  0.25000000  0.04988700  0.44047600  1
  Mg  Mg62  1  0.25000000  0.79284100  0.40375500  1
  Mg  Mg63  1  0.75000000  0.96420500  0.40375500  1
  Mg  Mg64  1  0.50000000  0.37852300  0.51190500  1
  Mg  Mg65  1  0.00000000  0.37852300  0.51190500  1
  Mg  Mg66  1  0.25000000  0.79284100  0.47719700  1
  Mg  Mg67  1  0.75000000  0.96420500  0.47719700  1
  Mg  Mg68  1  0.75000000  0.20715900  0.51190500  1
  Mg  Mg69  1  0.25000000  0.54988700  0.51190500  1
  Mg  Mg70  1  0.25000000  0.29284100  0.47518400  1
  Mg  Mg71  1  0.75000000  0.46420500  0.47518400  1
  Mg  Mg72  1  0.50000000  0.87852300  0.58333300  1
  Mg  Mg73  1  0.00000000  0.87852300  0.58333300  1
  Mg  Mg74  1  0.25000000  0.29284100  0.54862600  1
  Mg  Mg75  1  0.75000000  0.46420500  0.54862600  1
  Mg  Mg76  1  0.75000000  0.70715900  0.58333300  1
  Mg  Mg77  1  0.25000000  0.04988700  0.58333300  1
  Mg  Mg78  1  0.25000000  0.79284100  0.54661200  1
  Mg  Mg79  1  0.75000000  0.96420500  0.54661200  1
  Mg  Mg80  1  0.50000000  0.37852300  0.65476200  1
  Mg  Mg81  1  0.00000000  0.37852300  0.65476200  1
  Mg  Mg82  1  0.25000000  0.79284100  0.62005400  1
  Mg  Mg83  1  0.75000000  0.96420500  0.62005400  1
  Mg  Mg84  1  0.75000000  0.20715900  0.65476200  1
  Mg  Mg85  1  0.25000000  0.54988700  0.65476200  1
  Mg  Mg86  1  0.25000000  0.29284100  0.61804100  1
  Mg  Mg87  1  0.75000000  0.46420500  0.61804100  1
  Mg  Mg88  1  0.50000000  0.87852300  0.72619000  1
  Mg  Mg89  1  0.00000000  0.87852300  0.72619000  1
  Mg  Mg90  1  0.25000000  0.29284100  0.69148300  1
  Mg  Mg91  1  0.75000000  0.46420500  0.69148300  1
  Mg  Mg92  1  0.75000000  0.70715900  0.72619000  1
  Mg  Mg93  1  0.25000000  0.04988700  0.72619000  1
  Mg  Mg94  1  0.25000000  0.79284100  0.68947000  1
  Mg  Mg95  1  0.75000000  0.96420500  0.68947000  1
  Mg  Mg96  1  0.25000000  0.79284100  0.76291100  1
  Mg  Mg97  1  0.75000000  0.96420500  0.76291100  1
  Mg  Mg98  1  0.25000000  0.29284100  0.76089800  1
  Mg  Mg99  1  0.75000000  0.46420500  0.76089800  1
