# generated using pymatgen
data_Mg6Pd13
_symmetry_space_group_name_H-M   'P 1'
_cell_length_a   4.19057600
_cell_length_b   5.53884600
_cell_length_c   49.07721500
_cell_angle_alpha   90.00000000
_cell_angle_beta   90.00000000
_cell_angle_gamma   90.00000000
_symmetry_Int_Tables_number   1
_chemical_formula_structural   Mg6Pd13
_chemical_formula_sum   'Mg12 Pd26'
_cell_volume   1139.12903455
_cell_formula_units_Z   2
loop_
 _symmetry_equiv_pos_site_id
 _symmetry_equiv_pos_as_xyz
  1  'x, y, z'
loop_
 _atom_site_type_symbol
 _atom_site_label
 _atom_site_symmetry_multiplicity
 _atom_site_fract_x
 _atom_site_fract_y
 _atom_site_fract_z
 _atom_site_occupancy
  Mg  Mg0  1  0.75000000  0.16860900  0.38639900  1
  Mg  Mg1  1  0.25000000  0.83139100  0.41915700  1
  Mg  Mg2  1  0.75000000  0.66860900  0.33582300  1
  Mg  Mg3  1  0.25000000  0.33139100  0.46973200  1
  Mg  Mg4  1  0.75000000  0.16860900  0.55306600  1
  Mg  Mg5  1  0.25000000  0.83139100  0.58582300  1
  Mg  Mg6  1  0.75000000  0.66860900  0.50249000  1
  Mg  Mg7  1  0.25000000  0.33139100  0.63639900  1
  Mg  Mg8  1  0.75000000  0.16860900  0.71973200  1
  Mg  Mg9  1  0.25000000  0.83139100  0.75249000  1
  Mg  Mg10  1  0.75000000  0.66860900  0.66915700  1
  Mg  Mg11  1  0.25000000  0.33139100  0.80306600  1
  Pd  Pd12  1  0.75000000  0.15889900  0.33154800  1
  Pd  Pd13  1  0.25000000  0.84110100  0.30734100  1
  Pd  Pd14  1  0.75000000  0.15889900  0.49821500  1
  Pd  Pd15  1  0.25000000  0.84110100  0.47400800  1
  Pd  Pd16  1  0.75000000  0.65889900  0.39067400  1
  Pd  Pd17  1  0.25000000  0.34110100  0.41488100  1
  Pd  Pd18  1  0.75000000  0.06807400  0.44209200  1
  Pd  Pd19  1  0.25000000  0.93192600  0.36346300  1
  Pd  Pd20  1  0.75000000  0.56807400  0.44679700  1
  Pd  Pd21  1  0.25000000  0.43192600  0.35875900  1
  Pd  Pd22  1  0.75000000  0.15889900  0.66488100  1
  Pd  Pd23  1  0.25000000  0.84110100  0.64067400  1
  Pd  Pd24  1  0.75000000  0.65889900  0.55734100  1
  Pd  Pd25  1  0.25000000  0.34110100  0.58154800  1
  Pd  Pd26  1  0.75000000  0.06807400  0.60875900  1
  Pd  Pd27  1  0.25000000  0.93192600  0.53013000  1
  Pd  Pd28  1  0.75000000  0.56807400  0.61346300  1
  Pd  Pd29  1  0.25000000  0.43192600  0.52542600  1
  Pd  Pd30  1  0.75000000  0.15889900  0.83154800  1
  Pd  Pd31  1  0.25000000  0.84110100  0.80734100  1
  Pd  Pd32  1  0.75000000  0.65889900  0.72400800  1
  Pd  Pd33  1  0.25000000  0.34110100  0.74821500  1
  Pd  Pd34  1  0.75000000  0.06807400  0.77542600  1
  Pd  Pd35  1  0.25000000  0.93192600  0.69679700  1
  Pd  Pd36  1  0.75000000  0.56807400  0.78013000  1
  Pd  Pd37  1  0.25000000  0.43192600  0.69209200  1
