# generated using pymatgen
data_Mg20Zn37
_symmetry_space_group_name_H-M   'P 1'
_cell_length_a   5.07402229
_cell_length_b   14.70723601
_cell_length_c   50.49845100
_cell_angle_alpha   88.21601723
_cell_angle_beta   89.67566990
_cell_angle_gamma   90.29193359
_symmetry_Int_Tables_number   1
_chemical_formula_structural   Mg20Zn37
_chemical_formula_sum   'Mg20 Zn37'
_cell_volume   3766.49971225
_cell_formula_units_Z   1
loop_
 _symmetry_equiv_pos_site_id
 _symmetry_equiv_pos_as_xyz
  1  'x, y, z'
loop_
 _atom_site_type_symbol
 _atom_site_label
 _atom_site_symmetry_multiplicity
 _atom_site_fract_x
 _atom_site_fract_y
 _atom_site_fract_z
 _atom_site_occupancy
  Mg  Mg0  1  0.24530400  0.91073300  0.44229400  1
  Mg  Mg1  1  0.24251700  0.17718500  0.36223700  1
  Mg  Mg2  1  0.75114300  0.42342900  0.47710100  1
  Mg  Mg3  1  0.74869500  0.88785200  0.40857700  1
  Mg  Mg4  1  0.74734600  0.26347600  0.38721600  1
  Mg  Mg5  1  0.24920800  0.73818600  0.48660800  1
  Mg  Mg6  1  0.74496900  0.22639100  0.44991200  1
  Mg  Mg7  1  0.74451100  0.85875100  0.35051400  1
  Mg  Mg8  1  0.24578300  0.10795800  0.46870500  1
  Mg  Mg9  1  0.74586000  0.48312700  0.37187500  1
  Mg  Mg10  1  0.74206300  0.32317400  0.28199000  1
  Mg  Mg11  1  0.24742300  0.63864500  0.29038600  1
  Mg  Mg12  1  0.24520200  0.97179200  0.37614300  1
  Mg  Mg13  1  0.24630000  0.54253000  0.45914600  1
  Mg  Mg14  1  0.24690600  0.20407300  0.29994500  1
  Mg  Mg15  1  0.74823700  0.52021200  0.30917900  1
  Mg  Mg16  1  0.24790100  0.83587000  0.31679700  1
  Mg  Mg17  1  0.24399700  0.00841700  0.27248300  1
  Mg  Mg18  1  0.25068800  0.56941800  0.39685400  1
  Mg  Mg19  1  0.24800400  0.77481100  0.38294800  1
  Zn  Zn20  1  0.24250100  0.24331300  0.41724400  1
  Zn  Zn21  1  0.74587300  0.06485300  0.37060600  1
  Zn  Zn22  1  0.75011600  0.08884600  0.50114800  1
  Zn  Zn23  1  0.49599500  0.66117400  0.34336300  1
  Zn  Zn24  1  0.99176000  0.34117900  0.33490400  1
  Zn  Zn25  1  0.49365000  0.08767300  0.41470500  1
  Zn  Zn26  1  0.99660300  0.49830100  0.25454500  1
  Zn  Zn27  1  0.25070400  0.50329000  0.34184700  1
  Zn  Zn28  1  0.74740900  0.10413700  0.28580400  1
  Zn  Zn29  1  0.99503600  0.40544300  0.42428100  1
  Zn  Zn30  1  0.49319400  0.93154300  0.49682700  1
  Zn  Zn31  1  0.74572800  0.82480800  0.46484200  1
  Zn  Zn32  1  0.24701900  0.32263800  0.46381000  1
  Zn  Zn33  1  0.75211200  0.55788300  0.42734100  1
  Zn  Zn34  1  0.74733200  0.68175000  0.38848500  1
  Zn  Zn35  1  0.74579700  0.64246600  0.47328700  1
  Zn  Zn36  1  0.00575600  0.72071900  0.43247100  1
  Zn  Zn37  1  0.49817000  0.34116000  0.33481000  1
  Zn  Zn38  1  0.99955500  0.65893000  0.34438600  1
  Zn  Zn39  1  0.24618700  0.42396500  0.29528100  1
  Zn  Zn40  1  0.48745000  0.02588400  0.32662000  1
  Zn  Zn41  1  0.50144600  0.40542400  0.42418700  1
  Zn  Zn42  1  0.49660300  0.49830100  0.25454500  1
  Zn  Zn43  1  0.74105200  0.01304500  0.45526400  1
  Zn  Zn44  1  0.99725700  0.93064100  0.49720300  1
  Zn  Zn45  1  0.49235600  0.72319700  0.43181100  1
  Zn  Zn46  1  0.75215300  0.73355800  0.30382700  1
  Zn  Zn47  1  0.00085000  0.02340600  0.32728000  1
  Zn  Zn48  1  0.74109400  0.18872000  0.33175000  1
  Zn  Zn49  1  0.49594900  0.81596200  0.26188800  1
  Zn  Zn50  1  0.99721000  0.08542900  0.41572800  1
  Zn  Zn51  1  0.24660300  0.37330100  0.37954500  1
  Zn  Zn52  1  0.00001200  0.81505900  0.26226400  1
  Zn  Zn53  1  0.74747800  0.92179500  0.29424900  1
  Zn  Zn54  1  0.74309000  0.65775600  0.25794300  1
  Zn  Zn55  1  0.49660300  0.24830100  0.50454500  1
  Zn  Zn56  1  0.99660300  0.24830100  0.50454500  1
