# generated using pymatgen
data_Mg7Te16
_symmetry_space_group_name_H-M   'P 1'
_cell_length_a   7.10958600
_cell_length_b   7.10958600
_cell_length_c   49.76709900
_cell_angle_alpha   90.00000000
_cell_angle_beta   90.00000000
_cell_angle_gamma   90.00000000
_symmetry_Int_Tables_number   1
_chemical_formula_structural   Mg7Te16
_chemical_formula_sum   'Mg14 Te32'
_cell_volume   2515.53839099
_cell_formula_units_Z   2
loop_
 _symmetry_equiv_pos_site_id
 _symmetry_equiv_pos_as_xyz
  1  'x, y, z'
loop_
 _atom_site_type_symbol
 _atom_site_label
 _atom_site_symmetry_multiplicity
 _atom_site_fract_x
 _atom_site_fract_y
 _atom_site_fract_z
 _atom_site_occupancy
  Mg  Mg0  1  0.00000000  0.00000000  0.34523800  1
  Mg  Mg1  1  0.00000000  0.50000000  0.27381000  1
  Mg  Mg2  1  0.50000000  0.00000000  0.27381000  1
  Mg  Mg3  1  0.50000000  0.50000000  0.34523800  1
  Mg  Mg4  1  0.00000000  0.00000000  0.48809500  1
  Mg  Mg5  1  0.00000000  0.50000000  0.41666700  1
  Mg  Mg6  1  0.50000000  0.00000000  0.41666700  1
  Mg  Mg7  1  0.50000000  0.50000000  0.48809500  1
  Mg  Mg8  1  0.00000000  0.00000000  0.63095200  1
  Mg  Mg9  1  0.00000000  0.50000000  0.55952400  1
  Mg  Mg10  1  0.50000000  0.00000000  0.55952400  1
  Mg  Mg11  1  0.50000000  0.50000000  0.63095200  1
  Mg  Mg12  1  0.00000000  0.50000000  0.70238100  1
  Mg  Mg13  1  0.50000000  0.00000000  0.70238100  1
  Te  Te14  1  0.38666000  0.38666000  0.25761800  1
  Te  Te15  1  0.61334000  0.88666000  0.21857200  1
  Te  Te16  1  0.11334000  0.61334000  0.32904700  1
  Te  Te17  1  0.88666000  0.11334000  0.29000100  1
  Te  Te18  1  0.61334000  0.61334000  0.29000100  1
  Te  Te19  1  0.38666000  0.11334000  0.32904700  1
  Te  Te20  1  0.88666000  0.38666000  0.21857200  1
  Te  Te21  1  0.11334000  0.88666000  0.25761800  1
  Te  Te22  1  0.38666000  0.38666000  0.40047500  1
  Te  Te23  1  0.61334000  0.88666000  0.36143000  1
  Te  Te24  1  0.11334000  0.61334000  0.47190400  1
  Te  Te25  1  0.88666000  0.11334000  0.43285800  1
  Te  Te26  1  0.61334000  0.61334000  0.43285800  1
  Te  Te27  1  0.38666000  0.11334000  0.47190400  1
  Te  Te28  1  0.88666000  0.38666000  0.36143000  1
  Te  Te29  1  0.11334000  0.88666000  0.40047500  1
  Te  Te30  1  0.38666000  0.38666000  0.54333200  1
  Te  Te31  1  0.61334000  0.88666000  0.50428700  1
  Te  Te32  1  0.11334000  0.61334000  0.61476100  1
  Te  Te33  1  0.88666000  0.11334000  0.57571500  1
  Te  Te34  1  0.61334000  0.61334000  0.57571500  1
  Te  Te35  1  0.38666000  0.11334000  0.61476100  1
  Te  Te36  1  0.88666000  0.38666000  0.50428700  1
  Te  Te37  1  0.11334000  0.88666000  0.54333200  1
  Te  Te38  1  0.38666000  0.38666000  0.68619000  1
  Te  Te39  1  0.61334000  0.88666000  0.64714400  1
  Te  Te40  1  0.11334000  0.61334000  0.75761800  1
  Te  Te41  1  0.88666000  0.11334000  0.71857200  1
  Te  Te42  1  0.61334000  0.61334000  0.71857200  1
  Te  Te43  1  0.38666000  0.11334000  0.75761800  1
  Te  Te44  1  0.88666000  0.38666000  0.64714400  1
  Te  Te45  1  0.11334000  0.88666000  0.68619000  1
