# generated using pymatgen
data_Mg10Ni21
_symmetry_space_group_name_H-M   'P 1'
_cell_length_a   8.34586100
_cell_length_b   15.71815300
_cell_length_c   43.36636500
_cell_angle_alpha   90.00000000
_cell_angle_beta   90.00000000
_cell_angle_gamma   90.00000000
_symmetry_Int_Tables_number   1
_chemical_formula_structural   Mg10Ni21
_chemical_formula_sum   'Mg80 Ni168'
_cell_volume   5688.86568255
_cell_formula_units_Z   8
loop_
 _symmetry_equiv_pos_site_id
 _symmetry_equiv_pos_as_xyz
  1  'x, y, z'
loop_
 _atom_site_type_symbol
 _atom_site_label
 _atom_site_symmetry_multiplicity
 _atom_site_fract_x
 _atom_site_fract_y
 _atom_site_fract_z
 _atom_site_occupancy
  Mg  Mg0  1  0.62336700  0.09297600  0.23148100  1
  Mg  Mg1  1  0.62336700  0.90702400  0.23148100  1
  Mg  Mg2  1  0.62336700  0.59297600  0.23148100  1
  Mg  Mg3  1  0.62336700  0.40702400  0.23148100  1
  Mg  Mg4  1  0.29003400  0.84405100  0.23148100  1
  Mg  Mg5  1  0.95670000  0.15594900  0.23148100  1
  Mg  Mg6  1  0.95670000  0.34405100  0.23148100  1
  Mg  Mg7  1  0.29003400  0.65594900  0.23148100  1
  Mg  Mg8  1  0.12336700  0.09297600  0.28703700  1
  Mg  Mg9  1  0.12336700  0.90702400  0.28703700  1
  Mg  Mg10  1  0.12336700  0.59297600  0.28703700  1
  Mg  Mg11  1  0.12336700  0.40702400  0.28703700  1
  Mg  Mg12  1  0.79003400  0.84405100  0.28703700  1
  Mg  Mg13  1  0.45670000  0.15594900  0.28703700  1
  Mg  Mg14  1  0.45670000  0.34405100  0.28703700  1
  Mg  Mg15  1  0.79003400  0.65594900  0.28703700  1
  Mg  Mg16  1  0.62336700  0.09297600  0.34259300  1
  Mg  Mg17  1  0.62336700  0.90702400  0.34259300  1
  Mg  Mg18  1  0.62336700  0.59297600  0.34259300  1
  Mg  Mg19  1  0.62336700  0.40702400  0.34259300  1
  Mg  Mg20  1  0.29003400  0.84405100  0.34259300  1
  Mg  Mg21  1  0.95670000  0.15594900  0.34259300  1
  Mg  Mg22  1  0.95670000  0.34405100  0.34259300  1
  Mg  Mg23  1  0.29003400  0.65594900  0.34259300  1
  Mg  Mg24  1  0.12336700  0.09297600  0.39814800  1
  Mg  Mg25  1  0.12336700  0.90702400  0.39814800  1
  Mg  Mg26  1  0.12336700  0.59297600  0.39814800  1
  Mg  Mg27  1  0.12336700  0.40702400  0.39814800  1
  Mg  Mg28  1  0.79003400  0.84405100  0.39814800  1
  Mg  Mg29  1  0.45670000  0.15594900  0.39814800  1
  Mg  Mg30  1  0.45670000  0.34405100  0.39814800  1
  Mg  Mg31  1  0.79003400  0.65594900  0.39814800  1
  Mg  Mg32  1  0.62336700  0.09297600  0.45370400  1
  Mg  Mg33  1  0.62336700  0.90702400  0.45370400  1
  Mg  Mg34  1  0.62336700  0.59297600  0.45370400  1
  Mg  Mg35  1  0.62336700  0.40702400  0.45370400  1
  Mg  Mg36  1  0.29003400  0.84405100  0.45370400  1
  Mg  Mg37  1  0.95670000  0.15594900  0.45370400  1
  Mg  Mg38  1  0.95670000  0.34405100  0.45370400  1
  Mg  Mg39  1  0.29003400  0.65594900  0.45370400  1
  Mg  Mg40  1  0.12336700  0.09297600  0.50925900  1
  Mg  Mg41  1  0.12336700  0.90702400  0.50925900  1
  Mg  Mg42  1  0.12336700  0.59297600  0.50925900  1
  Mg  Mg43  1  0.12336700  0.40702400  0.50925900  1
  Mg  Mg44  1  0.79003400  0.84405100  0.50925900  1
  Mg  Mg45  1  0.45670000  0.15594900  0.50925900  1
  Mg  Mg46  1  0.45670000  0.34405100  0.50925900  1
  Mg  Mg47  1  0.79003400  0.65594900  0.50925900  1
  Mg  Mg48  1  0.62336700  0.09297600  0.56481500  1
  Mg  Mg49  1  0.62336700  0.90702400  0.56481500  1
  Mg  Mg50  1  0.62336700  0.59297600  0.56481500  1
  Mg  Mg51  1  0.62336700  0.40702400  0.56481500  1
  Mg  Mg52  1  0.29003400  0.84405100  0.56481500  1
  Mg  Mg53  1  0.95670000  0.15594900  0.56481500  1
  Mg  Mg54  1  0.95670000  0.34405100  0.56481500  1
  Mg  Mg55  1  0.29003400  0.65594900  0.56481500  1
  Mg  Mg56  1  0.12336700  0.09297600  0.62037000  1
  Mg  Mg57  1  0.12336700  0.90702400  0.62037000  1
  Mg  Mg58  1  0.12336700  0.59297600  0.62037000  1
  Mg  Mg59  1  0.12336700  0.40702400  0.62037000  1
  Mg  Mg60  1  0.79003400  0.84405100  0.62037000  1
  Mg  Mg61  1  0.45670000  0.15594900  0.62037000  1
  Mg  Mg62  1  0.45670000  0.34405100  0.62037000  1
  Mg  Mg63  1  0.79003400  0.65594900  0.62037000  1
  Mg  Mg64  1  0.62336700  0.09297600  0.67592600  1
  Mg  Mg65  1  0.62336700  0.90702400  0.67592600  1
  Mg  Mg66  1  0.62336700  0.59297600  0.67592600  1
  Mg  Mg67  1  0.62336700  0.40702400  0.67592600  1
  Mg  Mg68  1  0.29003400  0.84405100  0.67592600  1
  Mg  Mg69  1  0.95670000  0.15594900  0.67592600  1
  Mg  Mg70  1  0.95670000  0.34405100  0.67592600  1
  Mg  Mg71  1  0.29003400  0.65594900  0.67592600  1
  Mg  Mg72  1  0.12336700  0.09297600  0.73148100  1
  Mg  Mg73  1  0.12336700  0.90702400  0.73148100  1
  Mg  Mg74  1  0.12336700  0.59297600  0.73148100  1
  Mg  Mg75  1  0.12336700  0.40702400  0.73148100  1
  Mg  Mg76  1  0.79003400  0.84405100  0.73148100  1
  Mg  Mg77  1  0.45670000  0.15594900  0.73148100  1
  Mg  Mg78  1  0.45670000  0.34405100  0.73148100  1
  Mg  Mg79  1  0.79003400  0.65594900  0.73148100  1
  Ni  Ni80  1  0.29003400  0.12502600  0.23148100  1
  Ni  Ni81  1  0.95670000  0.87497400  0.23148100  1
  Ni  Ni82  1  0.95670000  0.62502600  0.23148100  1
  Ni  Ni83  1  0.29003400  0.37497400  0.23148100  1
  Ni  Ni84  1  0.87336700  0.00000000  0.20370400  1
  Ni  Ni85  1  0.37336700  0.00000000  0.20370400  1
  Ni  Ni86  1  0.12336700  0.00000000  0.23148100  1
  Ni  Ni87  1  0.87336700  0.50000000  0.20370400  1
  Ni  Ni88  1  0.37336700  0.50000000  0.20370400  1
  Ni  Ni89  1  0.12336700  0.50000000  0.23148100  1
  Ni  Ni90  1  0.20561200  0.25000000  0.20334100  1
  Ni  Ni91  1  0.70561200  0.25000000  0.20406700  1
  Ni  Ni92  1  0.45887800  0.25000000  0.23148100  1
  Ni  Ni93  1  0.54112200  0.75000000  0.20406700  1
  Ni  Ni94  1  0.04112200  0.75000000  0.20334100  1
  Ni  Ni95  1  0.78785700  0.75000000  0.23148100  1
  Ni  Ni96  1  0.79003400  0.12502600  0.28703700  1
  Ni  Ni97  1  0.45670000  0.87497400  0.28703700  1
  Ni  Ni98  1  0.45670000  0.62502600  0.28703700  1
  Ni  Ni99  1  0.79003400  0.37497400  0.28703700  1
  Ni  Ni100  1  0.37336700  0.00000000  0.25925900  1
  Ni  Ni101  1  0.87336700  0.00000000  0.25925900  1
  Ni  Ni102  1  0.62336700  0.00000000  0.28703700  1
  Ni  Ni103  1  0.37336700  0.50000000  0.25925900  1
  Ni  Ni104  1  0.87336700  0.50000000  0.25925900  1
  Ni  Ni105  1  0.62336700  0.50000000  0.28703700  1
  Ni  Ni106  1  0.70561200  0.25000000  0.25889600  1
  Ni  Ni107  1  0.20561200  0.25000000  0.25962200  1
  Ni  Ni108  1  0.95887800  0.25000000  0.28703700  1
  Ni  Ni109  1  0.04112200  0.75000000  0.25962200  1
  Ni  Ni110  1  0.54112200  0.75000000  0.25889600  1
  Ni  Ni111  1  0.28785700  0.75000000  0.28703700  1
  Ni  Ni112  1  0.29003400  0.12502600  0.34259300  1
  Ni  Ni113  1  0.95670000  0.87497400  0.34259300  1
  Ni  Ni114  1  0.95670000  0.62502600  0.34259300  1
  Ni  Ni115  1  0.29003400  0.37497400  0.34259300  1
  Ni  Ni116  1  0.87336700  0.00000000  0.31481500  1
  Ni  Ni117  1  0.37336700  0.00000000  0.31481500  1
  Ni  Ni118  1  0.12336700  0.00000000  0.34259300  1
  Ni  Ni119  1  0.87336700  0.50000000  0.31481500  1
  Ni  Ni120  1  0.37336700  0.50000000  0.31481500  1
  Ni  Ni121  1  0.12336700  0.50000000  0.34259300  1
  Ni  Ni122  1  0.20561200  0.25000000  0.31445200  1
  Ni  Ni123  1  0.70561200  0.25000000  0.31517800  1
  Ni  Ni124  1  0.45887800  0.25000000  0.34259300  1
  Ni  Ni125  1  0.54112200  0.75000000  0.31517800  1
  Ni  Ni126  1  0.04112200  0.75000000  0.31445200  1
  Ni  Ni127  1  0.78785700  0.75000000  0.34259300  1
  Ni  Ni128  1  0.79003400  0.12502600  0.39814800  1
  Ni  Ni129  1  0.45670000  0.87497400  0.39814800  1
  Ni  Ni130  1  0.45670000  0.62502600  0.39814800  1
  Ni  Ni131  1  0.79003400  0.37497400  0.39814800  1
  Ni  Ni132  1  0.37336700  0.00000000  0.37037000  1
  Ni  Ni133  1  0.87336700  0.00000000  0.37037000  1
  Ni  Ni134  1  0.62336700  0.00000000  0.39814800  1
  Ni  Ni135  1  0.37336700  0.50000000  0.37037000  1
  Ni  Ni136  1  0.87336700  0.50000000  0.37037000  1
  Ni  Ni137  1  0.62336700  0.50000000  0.39814800  1
  Ni  Ni138  1  0.70561200  0.25000000  0.37000800  1
  Ni  Ni139  1  0.20561200  0.25000000  0.37073300  1
  Ni  Ni140  1  0.95887800  0.25000000  0.39814800  1
  Ni  Ni141  1  0.04112200  0.75000000  0.37073300  1
  Ni  Ni142  1  0.54112200  0.75000000  0.37000800  1
  Ni  Ni143  1  0.28785700  0.75000000  0.39814800  1
  Ni  Ni144  1  0.29003400  0.12502600  0.45370400  1
  Ni  Ni145  1  0.95670000  0.87497400  0.45370400  1
  Ni  Ni146  1  0.95670000  0.62502600  0.45370400  1
  Ni  Ni147  1  0.29003400  0.37497400  0.45370400  1
  Ni  Ni148  1  0.87336700  0.00000000  0.42592600  1
  Ni  Ni149  1  0.37336700  0.00000000  0.42592600  1
  Ni  Ni150  1  0.12336700  0.00000000  0.45370400  1
  Ni  Ni151  1  0.87336700  0.50000000  0.42592600  1
  Ni  Ni152  1  0.37336700  0.50000000  0.42592600  1
  Ni  Ni153  1  0.12336700  0.50000000  0.45370400  1
  Ni  Ni154  1  0.20561200  0.25000000  0.42556300  1
  Ni  Ni155  1  0.70561200  0.25000000  0.42628900  1
  Ni  Ni156  1  0.45887800  0.25000000  0.45370400  1
  Ni  Ni157  1  0.54112200  0.75000000  0.42628900  1
  Ni  Ni158  1  0.04112200  0.75000000  0.42556300  1
  Ni  Ni159  1  0.78785700  0.75000000  0.45370400  1
  Ni  Ni160  1  0.79003400  0.12502600  0.50925900  1
  Ni  Ni161  1  0.45670000  0.87497400  0.50925900  1
  Ni  Ni162  1  0.45670000  0.62502600  0.50925900  1
  Ni  Ni163  1  0.79003400  0.37497400  0.50925900  1
  Ni  Ni164  1  0.37336700  0.00000000  0.48148100  1
  Ni  Ni165  1  0.87336700  0.00000000  0.48148100  1
  Ni  Ni166  1  0.62336700  0.00000000  0.50925900  1
  Ni  Ni167  1  0.37336700  0.50000000  0.48148100  1
  Ni  Ni168  1  0.87336700  0.50000000  0.48148100  1
  Ni  Ni169  1  0.62336700  0.50000000  0.50925900  1
  Ni  Ni170  1  0.70561200  0.25000000  0.48111900  1
  Ni  Ni171  1  0.20561200  0.25000000  0.48184400  1
  Ni  Ni172  1  0.95887800  0.25000000  0.50925900  1
  Ni  Ni173  1  0.04112200  0.75000000  0.48184400  1
  Ni  Ni174  1  0.54112200  0.75000000  0.48111900  1
  Ni  Ni175  1  0.28785700  0.75000000  0.50925900  1
  Ni  Ni176  1  0.29003400  0.12502600  0.56481500  1
  Ni  Ni177  1  0.95670000  0.87497400  0.56481500  1
  Ni  Ni178  1  0.95670000  0.62502600  0.56481500  1
  Ni  Ni179  1  0.29003400  0.37497400  0.56481500  1
  Ni  Ni180  1  0.87336700  0.00000000  0.53703700  1
  Ni  Ni181  1  0.37336700  0.00000000  0.53703700  1
  Ni  Ni182  1  0.12336700  0.00000000  0.56481500  1
  Ni  Ni183  1  0.87336700  0.50000000  0.53703700  1
  Ni  Ni184  1  0.37336700  0.50000000  0.53703700  1
  Ni  Ni185  1  0.12336700  0.50000000  0.56481500  1
  Ni  Ni186  1  0.20561200  0.25000000  0.53667400  1
  Ni  Ni187  1  0.70561200  0.25000000  0.53740000  1
  Ni  Ni188  1  0.45887800  0.25000000  0.56481500  1
  Ni  Ni189  1  0.54112200  0.75000000  0.53740000  1
  Ni  Ni190  1  0.04112200  0.75000000  0.53667400  1
  Ni  Ni191  1  0.78785700  0.75000000  0.56481500  1
  Ni  Ni192  1  0.79003400  0.12502600  0.62037000  1
  Ni  Ni193  1  0.45670000  0.87497400  0.62037000  1
  Ni  Ni194  1  0.45670000  0.62502600  0.62037000  1
  Ni  Ni195  1  0.79003400  0.37497400  0.62037000  1
  Ni  Ni196  1  0.37336700  0.00000000  0.59259300  1
  Ni  Ni197  1  0.87336700  0.00000000  0.59259300  1
  Ni  Ni198  1  0.62336700  0.00000000  0.62037000  1
  Ni  Ni199  1  0.37336700  0.50000000  0.59259300  1
  Ni  Ni200  1  0.87336700  0.50000000  0.59259300  1
  Ni  Ni201  1  0.62336700  0.50000000  0.62037000  1
  Ni  Ni202  1  0.70561200  0.25000000  0.59223000  1
  Ni  Ni203  1  0.20561200  0.25000000  0.59295500  1
  Ni  Ni204  1  0.95887800  0.25000000  0.62037000  1
  Ni  Ni205  1  0.04112200  0.75000000  0.59295500  1
  Ni  Ni206  1  0.54112200  0.75000000  0.59223000  1
  Ni  Ni207  1  0.28785700  0.75000000  0.62037000  1
  Ni  Ni208  1  0.29003400  0.12502600  0.67592600  1
  Ni  Ni209  1  0.95670000  0.87497400  0.67592600  1
  Ni  Ni210  1  0.95670000  0.62502600  0.67592600  1
  Ni  Ni211  1  0.29003400  0.37497400  0.67592600  1
  Ni  Ni212  1  0.87336700  0.00000000  0.64814800  1
  Ni  Ni213  1  0.37336700  0.00000000  0.64814800  1
  Ni  Ni214  1  0.12336700  0.00000000  0.67592600  1
  Ni  Ni215  1  0.87336700  0.50000000  0.64814800  1
  Ni  Ni216  1  0.37336700  0.50000000  0.64814800  1
  Ni  Ni217  1  0.12336700  0.50000000  0.67592600  1
  Ni  Ni218  1  0.20561200  0.25000000  0.64778500  1
  Ni  Ni219  1  0.70561200  0.25000000  0.64851100  1
  Ni  Ni220  1  0.45887800  0.25000000  0.67592600  1
  Ni  Ni221  1  0.54112200  0.75000000  0.64851100  1
  Ni  Ni222  1  0.04112200  0.75000000  0.64778500  1
  Ni  Ni223  1  0.78785700  0.75000000  0.67592600  1
  Ni  Ni224  1  0.79003400  0.12502600  0.73148100  1
  Ni  Ni225  1  0.45670000  0.87497400  0.73148100  1
  Ni  Ni226  1  0.45670000  0.62502600  0.73148100  1
  Ni  Ni227  1  0.79003400  0.37497400  0.73148100  1
  Ni  Ni228  1  0.37336700  0.00000000  0.70370400  1
  Ni  Ni229  1  0.87336700  0.00000000  0.70370400  1
  Ni  Ni230  1  0.62336700  0.00000000  0.73148100  1
  Ni  Ni231  1  0.37336700  0.50000000  0.70370400  1
  Ni  Ni232  1  0.87336700  0.50000000  0.70370400  1
  Ni  Ni233  1  0.62336700  0.50000000  0.73148100  1
  Ni  Ni234  1  0.70561200  0.25000000  0.70334100  1
  Ni  Ni235  1  0.20561200  0.25000000  0.70406700  1
  Ni  Ni236  1  0.95887800  0.25000000  0.73148100  1
  Ni  Ni237  1  0.04112200  0.75000000  0.70406700  1
  Ni  Ni238  1  0.54112200  0.75000000  0.70334100  1
  Ni  Ni239  1  0.28785700  0.75000000  0.73148100  1
  Ni  Ni240  1  0.87336700  0.00000000  0.75925900  1
  Ni  Ni241  1  0.37336700  0.00000000  0.75925900  1
  Ni  Ni242  1  0.87336700  0.50000000  0.75925900  1
  Ni  Ni243  1  0.37336700  0.50000000  0.75925900  1
  Ni  Ni244  1  0.20561200  0.25000000  0.75889600  1
  Ni  Ni245  1  0.70561200  0.25000000  0.75962200  1
  Ni  Ni246  1  0.54112200  0.75000000  0.75962200  1
  Ni  Ni247  1  0.04112200  0.75000000  0.75889600  1
