# generated using pymatgen
data_Mg5Ga14
_symmetry_space_group_name_H-M   'P 1'
_cell_length_a   7.03330400
_cell_length_b   8.80393500
_cell_length_c   44.01967300
_cell_angle_alpha   90.00000000
_cell_angle_beta   90.00000000
_cell_angle_gamma   90.00000000
_symmetry_Int_Tables_number   1
_chemical_formula_structural   Mg5Ga14
_chemical_formula_sum   'Mg20 Ga56'
_cell_volume   2725.73122199
_cell_formula_units_Z   4
loop_
 _symmetry_equiv_pos_site_id
 _symmetry_equiv_pos_as_xyz
  1  'x, y, z'
loop_
 _atom_site_type_symbol
 _atom_site_label
 _atom_site_symmetry_multiplicity
 _atom_site_fract_x
 _atom_site_fract_y
 _atom_site_fract_z
 _atom_site_occupancy
  Mg  Mg0  1  0.00000000  0.29902400  0.31876700  1
  Mg  Mg1  1  0.50000000  0.20097600  0.33837600  1
  Mg  Mg2  1  0.00000000  0.70097600  0.31876700  1
  Mg  Mg3  1  0.50000000  0.79902400  0.33837600  1
  Mg  Mg4  1  0.50000000  0.20097600  0.41876700  1
  Mg  Mg5  1  0.00000000  0.29902400  0.51876700  1
  Mg  Mg6  1  0.50000000  0.20097600  0.53837600  1
  Mg  Mg7  1  0.00000000  0.29902400  0.43837600  1
  Mg  Mg8  1  0.00000000  0.70097600  0.51876700  1
  Mg  Mg9  1  0.50000000  0.79902400  0.41876700  1
  Mg  Mg10  1  0.00000000  0.70097600  0.43837600  1
  Mg  Mg11  1  0.50000000  0.79902400  0.53837600  1
  Mg  Mg12  1  0.50000000  0.20097600  0.61876700  1
  Mg  Mg13  1  0.00000000  0.29902400  0.71876700  1
  Mg  Mg14  1  0.50000000  0.20097600  0.73837600  1
  Mg  Mg15  1  0.00000000  0.29902400  0.63837600  1
  Mg  Mg16  1  0.00000000  0.70097600  0.71876700  1
  Mg  Mg17  1  0.50000000  0.79902400  0.61876700  1
  Mg  Mg18  1  0.00000000  0.70097600  0.63837600  1
  Mg  Mg19  1  0.50000000  0.79902400  0.73837600  1
  Ga  Ga20  1  0.81562500  0.70404000  0.37857100  1
  Ga  Ga21  1  0.31562500  0.50000000  0.33776300  1
  Ga  Ga22  1  0.81562500  0.29596000  0.37857100  1
  Ga  Ga23  1  0.29140000  0.00000000  0.37857100  1
  Ga  Ga24  1  0.70860000  0.00000000  0.37857100  1
  Ga  Ga25  1  0.18437500  0.29596000  0.37857100  1
  Ga  Ga26  1  0.18437500  0.70404000  0.37857100  1
  Ga  Ga27  1  0.68437500  0.50000000  0.33776300  1
  Ga  Ga28  1  0.31562500  0.20404000  0.27857100  1
  Ga  Ga29  1  0.81562500  0.00000000  0.31937900  1
  Ga  Ga30  1  0.31562500  0.79596000  0.27857100  1
  Ga  Ga31  1  0.79140000  0.50000000  0.27857100  1
  Ga  Ga32  1  0.20860000  0.50000000  0.27857100  1
  Ga  Ga33  1  0.18437500  0.00000000  0.31937900  1
  Ga  Ga34  1  0.68437500  0.79596000  0.27857100  1
  Ga  Ga35  1  0.68437500  0.20404000  0.27857100  1
  Ga  Ga36  1  0.81562500  0.70404000  0.57857100  1
  Ga  Ga37  1  0.31562500  0.50000000  0.53776300  1
  Ga  Ga38  1  0.31562500  0.50000000  0.41937900  1
  Ga  Ga39  1  0.81562500  0.29596000  0.57857100  1
  Ga  Ga40  1  0.29140000  0.00000000  0.57857100  1
  Ga  Ga41  1  0.70860000  0.00000000  0.57857100  1
  Ga  Ga42  1  0.68437500  0.50000000  0.41937900  1
  Ga  Ga43  1  0.18437500  0.29596000  0.57857100  1
  Ga  Ga44  1  0.18437500  0.70404000  0.57857100  1
  Ga  Ga45  1  0.68437500  0.50000000  0.53776300  1
  Ga  Ga46  1  0.31562500  0.20404000  0.47857100  1
  Ga  Ga47  1  0.81562500  0.00000000  0.43776300  1
  Ga  Ga48  1  0.81562500  0.00000000  0.51937900  1
  Ga  Ga49  1  0.31562500  0.79596000  0.47857100  1
  Ga  Ga50  1  0.79140000  0.50000000  0.47857100  1
  Ga  Ga51  1  0.20860000  0.50000000  0.47857100  1
  Ga  Ga52  1  0.18437500  0.00000000  0.51937900  1
  Ga  Ga53  1  0.68437500  0.79596000  0.47857100  1
  Ga  Ga54  1  0.68437500  0.20404000  0.47857100  1
  Ga  Ga55  1  0.18437500  0.00000000  0.43776300  1
  Ga  Ga56  1  0.81562500  0.70404000  0.77857100  1
  Ga  Ga57  1  0.31562500  0.50000000  0.73776300  1
  Ga  Ga58  1  0.31562500  0.50000000  0.61937900  1
  Ga  Ga59  1  0.81562500  0.29596000  0.77857100  1
  Ga  Ga60  1  0.29140000  0.00000000  0.77857100  1
  Ga  Ga61  1  0.70860000  0.00000000  0.77857100  1
  Ga  Ga62  1  0.68437500  0.50000000  0.61937900  1
  Ga  Ga63  1  0.18437500  0.29596000  0.77857100  1
  Ga  Ga64  1  0.18437500  0.70404000  0.77857100  1
  Ga  Ga65  1  0.68437500  0.50000000  0.73776300  1
  Ga  Ga66  1  0.31562500  0.20404000  0.67857100  1
  Ga  Ga67  1  0.81562500  0.00000000  0.63776300  1
  Ga  Ga68  1  0.81562500  0.00000000  0.71937900  1
  Ga  Ga69  1  0.31562500  0.79596000  0.67857100  1
  Ga  Ga70  1  0.79140000  0.50000000  0.67857100  1
  Ga  Ga71  1  0.20860000  0.50000000  0.67857100  1
  Ga  Ga72  1  0.18437500  0.00000000  0.71937900  1
  Ga  Ga73  1  0.68437500  0.79596000  0.67857100  1
  Ga  Ga74  1  0.68437500  0.20404000  0.67857100  1
  Ga  Ga75  1  0.18437500  0.00000000  0.63776300  1
