# generated using pymatgen
data_Mg11P46
_symmetry_space_group_name_H-M   'P 1'
_cell_length_a   5.12288200
_cell_length_b   8.53570435
_cell_length_c   45.69655900
_cell_angle_alpha   91.17090654
_cell_angle_beta   90.00000000
_cell_angle_gamma   90.00000000
_symmetry_Int_Tables_number   1
_chemical_formula_structural   Mg11P46
_chemical_formula_sum   'Mg11 P46'
_cell_volume   1997.77475134
_cell_formula_units_Z   1
loop_
 _symmetry_equiv_pos_site_id
 _symmetry_equiv_pos_as_xyz
  1  'x, y, z'
loop_
 _atom_site_type_symbol
 _atom_site_label
 _atom_site_symmetry_multiplicity
 _atom_site_fract_x
 _atom_site_fract_y
 _atom_site_fract_z
 _atom_site_occupancy
  Mg  Mg0  1  1.00000000  0.26949400  0.28500000  1
  Mg  Mg1  1  0.50000000  0.61949400  0.23500000  1
  Mg  Mg2  1  1.00000000  0.56949400  0.38500000  1
  Mg  Mg3  1  0.50000000  0.91949400  0.33500000  1
  Mg  Mg4  1  1.00000000  0.86949400  0.48500000  1
  Mg  Mg5  1  0.50000000  0.21949400  0.43500000  1
  Mg  Mg6  1  0.00000000  0.16949400  0.58500000  1
  Mg  Mg7  1  0.50000000  0.51949400  0.53500000  1
  Mg  Mg8  1  1.00000000  0.46949400  0.68500000  1
  Mg  Mg9  1  0.50000000  0.81949400  0.63500000  1
  Mg  Mg10  1  0.50000000  0.11949400  0.73500000  1
  P  P11  1  0.29223200  0.52295500  0.28492800  1
  P  P12  1  0.79223200  0.36603200  0.23507200  1
  P  P13  1  0.70776800  0.01603200  0.28507200  1
  P  P14  1  0.20776800  0.87295500  0.23492800  1
  P  P15  1  0.89159400  0.80823800  0.26473500  1
  P  P16  1  0.39159400  0.08074900  0.25526500  1
  P  P17  1  0.10840600  0.43074900  0.20526500  1
  P  P18  1  0.60840600  0.15823800  0.21473500  1
  P  P19  1  0.29223200  0.82295500  0.38492800  1
  P  P20  1  0.79223200  0.66603200  0.33507200  1
  P  P21  1  0.70776800  0.31603200  0.38507200  1
  P  P22  1  0.20776800  0.17295500  0.33492800  1
  P  P23  1  0.89159400  0.10823800  0.36473500  1
  P  P24  1  0.39159400  0.38074900  0.35526500  1
  P  P25  1  0.10840600  0.73074900  0.30526500  1
  P  P26  1  0.60840600  0.45823800  0.31473500  1
  P  P27  1  0.29223200  0.12295500  0.48492800  1
  P  P28  1  0.79223200  0.96603200  0.43507200  1
  P  P29  1  0.70776800  0.61603200  0.48507200  1
  P  P30  1  0.20776800  0.47295500  0.43492800  1
  P  P31  1  0.89159400  0.40823800  0.46473500  1
  P  P32  1  0.39159400  0.68074900  0.45526500  1
  P  P33  1  0.10840600  0.03074900  0.40526500  1
  P  P34  1  0.60840600  0.75823800  0.41473500  1
  P  P35  1  0.29223200  0.42295500  0.58492800  1
  P  P36  1  0.79223200  0.26603200  0.53507200  1
  P  P37  1  0.70776800  0.91603200  0.58507200  1
  P  P38  1  0.20776800  0.77295500  0.53492800  1
  P  P39  1  0.89159400  0.70823800  0.56473500  1
  P  P40  1  0.39159400  0.98074900  0.55526500  1
  P  P41  1  0.10840600  0.33074900  0.50526500  1
  P  P42  1  0.60840600  0.05823800  0.51473500  1
  P  P43  1  0.29223200  0.72295500  0.68492800  1
  P  P44  1  0.79223200  0.56603200  0.63507200  1
  P  P45  1  0.70776800  0.21603200  0.68507200  1
  P  P46  1  0.20776800  0.07295500  0.63492800  1
  P  P47  1  0.89159400  0.00823800  0.66473500  1
  P  P48  1  0.39159400  0.28074900  0.65526500  1
  P  P49  1  0.10840600  0.63074900  0.60526500  1
  P  P50  1  0.60840600  0.35823800  0.61473500  1
  P  P51  1  0.79223200  0.86603200  0.73507200  1
  P  P52  1  0.20776800  0.37295500  0.73492800  1
  P  P53  1  0.89159400  0.30823800  0.76473500  1
  P  P54  1  0.39159400  0.58074900  0.75526500  1
  P  P55  1  0.10840600  0.93074900  0.70526500  1
  P  P56  1  0.60840600  0.65823800  0.71473500  1
