# generated using pymatgen
data_Er2Mg
_symmetry_space_group_name_H-M   'P 1'
_cell_length_a   3.65070000
_cell_length_b   5.42669900
_cell_length_c   51.06088300
_cell_angle_alpha   90.00000000
_cell_angle_beta   90.00000000
_cell_angle_gamma   90.00000000
_symmetry_Int_Tables_number   1
_chemical_formula_structural   Er2Mg
_chemical_formula_sum   'Er16 Mg8'
_cell_volume   1011.57992034
_cell_formula_units_Z   8
loop_
 _symmetry_equiv_pos_site_id
 _symmetry_equiv_pos_as_xyz
  1  'x, y, z'
loop_
 _atom_site_type_symbol
 _atom_site_label
 _atom_site_symmetry_multiplicity
 _atom_site_fract_x
 _atom_site_fract_y
 _atom_site_fract_z
 _atom_site_occupancy
  Er  Er0  1  0.50000000  0.25000000  0.44804900  1
  Er  Er1  1  0.00000000  0.25000000  0.17435600  1
  Er  Er2  1  1.00000000  0.75000000  0.21861700  1
  Er  Er3  1  0.50000000  0.75000000  0.49231100  1
  Er  Er4  1  0.00000000  0.25000000  0.28138300  1
  Er  Er5  1  0.50000000  0.25000000  0.34102200  1
  Er  Er6  1  0.50000000  0.75000000  0.38528400  1
  Er  Er7  1  0.00000000  0.75000000  0.32564400  1
  Er  Er8  1  0.50000000  0.25000000  0.78138300  1
  Er  Er9  1  0.00000000  0.25000000  0.50768900  1
  Er  Er10  1  0.00000000  0.75000000  0.55195100  1
  Er  Er11  1  0.50000000  0.75000000  0.82564400  1
  Er  Er12  1  0.00000000  0.25000000  0.61471600  1
  Er  Er13  1  0.50000000  0.25000000  0.67435600  1
  Er  Er14  1  0.50000000  0.75000000  0.71861700  1
  Er  Er15  1  0.00000000  0.75000000  0.65897800  1
  Mg  Mg16  1  0.50000000  0.25000000  0.22815900  1
  Mg  Mg17  1  0.00000000  0.75000000  0.43850800  1
  Mg  Mg18  1  0.00000000  0.25000000  0.39482600  1
  Mg  Mg19  1  0.50000000  0.75000000  0.27184100  1
  Mg  Mg20  1  0.50000000  0.25000000  0.56149200  1
  Mg  Mg21  1  0.00000000  0.75000000  0.77184100  1
  Mg  Mg22  1  0.00000000  0.25000000  0.72815900  1
  Mg  Mg23  1  0.50000000  0.75000000  0.60517400  1
