# generated using pymatgen
data_Mg2Au
_symmetry_space_group_name_H-M   'P 1'
_cell_length_a   6.30829800
_cell_length_b   9.63509784
_cell_length_c   43.05516600
_cell_angle_alpha   93.60749084
_cell_angle_beta   90.00000000
_cell_angle_gamma   90.00000000
_symmetry_Int_Tables_number   1
_chemical_formula_structural   Mg2Au
_chemical_formula_sum   'Mg56 Au28'
_cell_volume   2611.75355536
_cell_formula_units_Z   28
loop_
 _symmetry_equiv_pos_site_id
 _symmetry_equiv_pos_as_xyz
  1  'x, y, z'
loop_
 _atom_site_type_symbol
 _atom_site_label
 _atom_site_symmetry_multiplicity
 _atom_site_fract_x
 _atom_site_fract_y
 _atom_site_fract_z
 _atom_site_occupancy
  Mg  Mg0  1  0.16681800  0.00158500  0.79058000  1
  Mg  Mg1  1  0.66681800  0.68023300  0.75487400  1
  Mg  Mg2  1  0.83318200  0.18023300  0.75487400  1
  Mg  Mg3  1  0.33318200  0.50158500  0.79058000  1
  Mg  Mg4  1  0.53839600  0.20379200  0.81304800  1
  Mg  Mg5  1  0.03839600  0.47802600  0.73240700  1
  Mg  Mg6  1  0.46160400  0.97802600  0.73240700  1
  Mg  Mg7  1  0.96160400  0.70379200  0.81304800  1
  Mg  Mg8  1  0.16681800  0.18340300  0.69967100  1
  Mg  Mg9  1  0.66681800  0.86205100  0.66396500  1
  Mg  Mg10  1  0.83318200  0.36205100  0.66396500  1
  Mg  Mg11  1  0.33318200  0.68340300  0.69967100  1
  Mg  Mg12  1  0.53839600  0.38561000  0.72213900  1
  Mg  Mg13  1  0.03839600  0.65984400  0.64149800  1
  Mg  Mg14  1  0.46160400  0.15984400  0.64149800  1
  Mg  Mg15  1  0.96160400  0.88561000  0.72213900  1
  Mg  Mg16  1  0.16681800  0.36522200  0.60876200  1
  Mg  Mg17  1  0.66681800  0.04386900  0.57305600  1
  Mg  Mg18  1  0.83318200  0.54386900  0.57305600  1
  Mg  Mg19  1  0.33318200  0.86522200  0.60876200  1
  Mg  Mg20  1  0.53839600  0.56742800  0.63122900  1
  Mg  Mg21  1  0.03839600  0.84166300  0.55058900  1
  Mg  Mg22  1  0.46160400  0.34166300  0.55058900  1
  Mg  Mg23  1  0.96160400  0.06742800  0.63122900  1
  Mg  Mg24  1  0.16681800  0.54704000  0.51785300  1
  Mg  Mg25  1  0.66681800  0.22568700  0.48214700  1
  Mg  Mg26  1  0.83318200  0.72568700  0.48214700  1
  Mg  Mg27  1  0.33318200  0.04704000  0.51785300  1
  Mg  Mg28  1  0.53839600  0.74924700  0.54032000  1
  Mg  Mg29  1  0.03839600  0.02348100  0.45968000  1
  Mg  Mg30  1  0.46160400  0.52348100  0.45968000  1
  Mg  Mg31  1  0.96160400  0.24924700  0.54032000  1
  Mg  Mg32  1  0.16681800  0.72885800  0.42694400  1
  Mg  Mg33  1  0.66681800  0.40750600  0.39123800  1
  Mg  Mg34  1  0.83318200  0.90750600  0.39123800  1
  Mg  Mg35  1  0.33318200  0.22885800  0.42694400  1
  Mg  Mg36  1  0.53839600  0.93106500  0.44941100  1
  Mg  Mg37  1  0.03839600  0.20529900  0.36877100  1
  Mg  Mg38  1  0.46160400  0.70529900  0.36877100  1
  Mg  Mg39  1  0.96160400  0.43106500  0.44941100  1
  Mg  Mg40  1  0.16681800  0.91067600  0.33603500  1
  Mg  Mg41  1  0.66681800  0.58932400  0.30032900  1
  Mg  Mg42  1  0.83318200  0.08932400  0.30032900  1
  Mg  Mg43  1  0.33318200  0.41067600  0.33603500  1
  Mg  Mg44  1  0.53839600  0.11288300  0.35850200  1
  Mg  Mg45  1  0.03839600  0.38711700  0.27786100  1
  Mg  Mg46  1  0.46160400  0.88711700  0.27786100  1
  Mg  Mg47  1  0.96160400  0.61288300  0.35850200  1
  Mg  Mg48  1  0.16681800  0.09249400  0.24512600  1
  Mg  Mg49  1  0.66681800  0.77114200  0.20942000  1
  Mg  Mg50  1  0.83318200  0.27114200  0.20942000  1
  Mg  Mg51  1  0.33318200  0.59249400  0.24512600  1
  Mg  Mg52  1  0.53839600  0.29470100  0.26759300  1
  Mg  Mg53  1  0.03839600  0.56893500  0.18695200  1
  Mg  Mg54  1  0.46160400  0.06893500  0.18695200  1
  Mg  Mg55  1  0.96160400  0.79470100  0.26759300  1
  Au  Au56  1  0.73655600  0.93967500  0.78370100  1
  Au  Au57  1  0.23655600  0.74214300  0.76175300  1
  Au  Au58  1  0.26344400  0.24214300  0.76175300  1
  Au  Au59  1  0.76344400  0.43967500  0.78370100  1
  Au  Au60  1  0.73655600  0.12149300  0.69279200  1
  Au  Au61  1  0.23655600  0.92396100  0.67084400  1
  Au  Au62  1  0.26344400  0.42396100  0.67084400  1
  Au  Au63  1  0.76344400  0.62149300  0.69279200  1
  Au  Au64  1  0.73655600  0.30331100  0.60188300  1
  Au  Au65  1  0.23655600  0.10577900  0.57993500  1
  Au  Au66  1  0.26344400  0.60577900  0.57993500  1
  Au  Au67  1  0.76344400  0.80331100  0.60188300  1
  Au  Au68  1  0.73655600  0.48513000  0.51097400  1
  Au  Au69  1  0.23655600  0.28759800  0.48902600  1
  Au  Au70  1  0.26344400  0.78759800  0.48902600  1
  Au  Au71  1  0.76344400  0.98513000  0.51097400  1
  Au  Au72  1  0.73655600  0.66694800  0.42006500  1
  Au  Au73  1  0.23655600  0.46941600  0.39811700  1
  Au  Au74  1  0.26344400  0.96941600  0.39811700  1
  Au  Au75  1  0.76344400  0.16694800  0.42006500  1
  Au  Au76  1  0.73655600  0.84876600  0.32915600  1
  Au  Au77  1  0.23655600  0.65123400  0.30720800  1
  Au  Au78  1  0.26344400  0.15123400  0.30720800  1
  Au  Au79  1  0.76344400  0.34876600  0.32915600  1
  Au  Au80  1  0.73655600  0.03058400  0.23824700  1
  Au  Au81  1  0.23655600  0.83305200  0.21629900  1
  Au  Au82  1  0.26344400  0.33305200  0.21629900  1
  Au  Au83  1  0.76344400  0.53058400  0.23824700  1
