# generated using pymatgen
data_Mg87As56
_symmetry_space_group_name_H-M   'P 1'
_cell_length_a   17.64245218
_cell_length_b   17.64245173
_cell_length_c   51.43614400
_cell_angle_alpha   90.00000000
_cell_angle_beta   80.12503724
_cell_angle_gamma   60.00000132
_symmetry_Int_Tables_number   1
_chemical_formula_structural   Mg87As56
_chemical_formula_sum   'Mg174 As112'
_cell_volume   13590.32609305
_cell_formula_units_Z   2
loop_
 _symmetry_equiv_pos_site_id
 _symmetry_equiv_pos_as_xyz
  1  'x, y, z'
loop_
 _atom_site_type_symbol
 _atom_site_label
 _atom_site_symmetry_multiplicity
 _atom_site_fract_x
 _atom_site_fract_y
 _atom_site_fract_z
 _atom_site_occupancy
  Mg  Mg0  1  0.66291000  0.25632100  0.27390100  1
  Mg  Mg1  1  0.67068400  0.47175600  0.27131000  1
  Mg  Mg2  1  0.12280400  0.89056900  0.20677700  1
  Mg  Mg3  1  0.93574900  0.73736900  0.27131000  1
  Mg  Mg4  1  0.47275900  0.58278500  0.34533000  1
  Mg  Mg5  1  0.91068000  0.23456400  0.26944000  1
  Mg  Mg6  1  0.45546300  0.35677200  0.34086900  1
  Mg  Mg7  1  0.69078500  0.35957700  0.34273900  1
  Mg  Mg8  1  0.41506300  0.48209900  0.27820600  1
  Mg  Mg9  1  0.88841700  0.13150000  0.20677700  1
  Mg  Mg10  1  0.15636600  0.73218700  0.27390100  1
  Mg  Mg11  1  0.93481400  0.97549500  0.26944000  1
  Mg  Mg12  1  0.31841000  0.89789300  0.30824200  1
  Mg  Mg13  1  0.31063600  0.68245800  0.31083300  1
  Mg  Mg14  1  0.28708800  0.54935800  0.23250900  1
  Mg  Mg15  1  0.04557100  0.41684400  0.31083300  1
  Mg  Mg16  1  0.04650600  0.17871800  0.31270300  1
  Mg  Mg17  1  0.82495400  0.42202700  0.30824200  1
  Mg  Mg18  1  0.52147400  0.30842700  0.23250900  1
  Mg  Mg19  1  0.56625800  0.67211500  0.30393700  1
  Mg  Mg20  1  0.29053600  0.79463700  0.23940400  1
  Mg  Mg21  1  0.52585700  0.79744100  0.24127400  1
  Mg  Mg22  1  0.07064000  0.91964900  0.31270300  1
  Mg  Mg23  1  0.50856200  0.57142800  0.23681300  1
  Mg  Mg24  1  0.94862500  0.61346400  0.34533000  1
  Mg  Mg25  1  0.95639800  0.82889900  0.34273900  1
  Mg  Mg26  1  0.40851800  0.24771200  0.27820600  1
  Mg  Mg27  1  0.22146300  0.09451200  0.34273900  1
  Mg  Mg28  1  0.18704400  0.22564200  0.27390100  1
  Mg  Mg29  1  0.19639400  0.59170700  0.34086900  1
  Mg  Mg30  1  0.16974900  0.99962900  0.26944000  1
  Mg  Mg31  1  0.40507000  0.00243400  0.27131000  1
  Mg  Mg32  1  0.12934800  0.12495600  0.20677700  1
  Mg  Mg33  1  0.17413200  0.48864300  0.27820600  1
  Mg  Mg34  1  0.44208000  0.08933000  0.34533000  1
  Mg  Mg35  1  0.22052800  0.33263800  0.34086900  1
  Mg  Mg36  1  0.03269600  0.54075000  0.23681300  1
  Mg  Mg37  1  0.02492200  0.32531500  0.23940400  1
  Mg  Mg38  1  0.57280200  0.90650100  0.30393700  1
  Mg  Mg39  1  0.75985700  0.05970200  0.23940400  1
  Mg  Mg40  1  0.76079200  0.82157500  0.24127400  1
  Mg  Mg41  1  0.53924000  0.06488400  0.23681300  1
  Mg  Mg42  1  0.80718900  0.66557000  0.30393700  1
  Mg  Mg43  1  0.28054300  0.31497200  0.23250900  1
  Mg  Mg44  1  0.57625000  0.15177900  0.31083300  1
  Mg  Mg45  1  0.81157100  0.15458400  0.31270300  1
  Mg  Mg46  1  0.78492600  0.56250600  0.24127400  1
  Mg  Mg47  1  0.79427600  0.92857100  0.30824200  1
  Mg  Mg48  1  0.23433900  0.97060700  0.41675800  1
  Mg  Mg49  1  0.24211200  0.18604100  0.41416700  1
  Mg  Mg50  1  0.69423200  0.60485500  0.34963400  1
  Mg  Mg51  1  0.50717700  0.45165500  0.41416700  1
  Mg  Mg52  1  0.04418700  0.29707100  0.48818700  1
  Mg  Mg53  1  0.48210900  0.94885000  0.41229700  1
  Mg  Mg54  1  0.02689200  0.07105800  0.48372600  1
  Mg  Mg55  1  0.26221300  0.07386300  0.48559600  1
  Mg  Mg56  1  0.98649100  0.19638500  0.42106300  1
  Mg  Mg57  1  0.45984600  0.84578600  0.34963400  1
  Mg  Mg58  1  0.72779500  0.44647300  0.41675800  1
  Mg  Mg59  1  0.50624300  0.68978100  0.41229700  1
  Mg  Mg60  1  0.88983800  0.61217800  0.45109900  1
  Mg  Mg61  1  0.88206500  0.39674400  0.45369000  1
  Mg  Mg62  1  0.85851700  0.26364400  0.37536600  1
  Mg  Mg63  1  0.61700000  0.13113000  0.45369000  1
  Mg  Mg64  1  0.61793500  0.89300400  0.45556000  1
  Mg  Mg65  1  0.39638300  0.13631200  0.45109900  1
  Mg  Mg66  1  0.09290300  0.02271300  0.37536600  1
  Mg  Mg67  1  0.13768600  0.38640000  0.44679400  1
  Mg  Mg68  1  0.86196400  0.50892200  0.38226100  1
  Mg  Mg69  1  0.09728600  0.51172700  0.38413100  1
  Mg  Mg70  1  0.64206900  0.63393500  0.45556000  1
  Mg  Mg71  1  0.07999000  0.28571400  0.37967000  1
  Mg  Mg72  1  0.52005300  0.32774900  0.48818700  1
  Mg  Mg73  1  0.52782700  0.54318400  0.48559600  1
  Mg  Mg74  1  0.97994700  0.96199800  0.42106300  1
  Mg  Mg75  1  0.79289200  0.80879800  0.48559600  1
  Mg  Mg76  1  0.75847300  0.93992800  0.41675800  1
  Mg  Mg77  1  0.76782300  0.30599300  0.48372600  1
  Mg  Mg78  1  0.74117700  0.71391500  0.41229700  1
  Mg  Mg79  1  0.97649900  0.71672000  0.41416700  1
  Mg  Mg80  1  0.70077700  0.83924200  0.34963400  1
  Mg  Mg81  1  0.74556000  0.20292900  0.42106300  1
  Mg  Mg82  1  0.01350900  0.80361500  0.48818700  1
  Mg  Mg83  1  0.79195700  0.04692400  0.48372600  1
  Mg  Mg84  1  0.60412400  0.25503600  0.37967000  1
  Mg  Mg85  1  0.59635100  0.03960100  0.38226100  1
  Mg  Mg86  1  0.14423100  0.62078700  0.44679400  1
  Mg  Mg87  1  0.33128600  0.77398700  0.38226100  1
  Mg  Mg88  1  0.33222100  0.53586100  0.38413100  1
  Mg  Mg89  1  0.11066900  0.77917000  0.37967000  1
  Mg  Mg90  1  0.37861700  0.37985600  0.44679400  1
  Mg  Mg91  1  0.85197200  0.02925800  0.37536600  1
  Mg  Mg92  1  0.14767900  0.86606500  0.45369000  1
  Mg  Mg93  1  0.38300000  0.86887000  0.45556000  1
  Mg  Mg94  1  0.35635500  0.27679200  0.38413100  1
  Mg  Mg95  1  0.36570400  0.64285700  0.45109900  1
  Mg  Mg96  1  0.80576800  0.68489200  0.55961600  1
  Mg  Mg97  1  0.81354100  0.90032700  0.55702400  1
  Mg  Mg98  1  0.26566100  0.31914100  0.49249100  1
  Mg  Mg99  1  0.07860600  0.16594100  0.55702400  1
  Mg  Mg100  1  0.61561600  0.01135700  0.63104400  1
  Mg  Mg101  1  0.05353700  0.66313600  0.55515500  1
  Mg  Mg102  1  0.59832000  0.78534400  0.62658300  1
  Mg  Mg103  1  0.83364200  0.78814800  0.62845300  1
  Mg  Mg104  1  0.55792000  0.91067000  0.56392000  1
  Mg  Mg105  1  0.03127400  0.56007200  0.49249100  1
  Mg  Mg106  1  0.29922300  0.16075800  0.55961600  1
  Mg  Mg107  1  0.07767100  0.40406700  0.55515500  1
  Mg  Mg108  1  0.46126700  0.32646400  0.59395600  1
  Mg  Mg109  1  0.45349400  0.11102900  0.59654700  1
  Mg  Mg110  1  0.42994500  0.97793000  0.51822300  1
  Mg  Mg111  1  0.18842900  0.84541600  0.59654700  1
  Mg  Mg112  1  0.18936400  0.60729000  0.59841700  1
  Mg  Mg113  1  0.96781200  0.85059800  0.59395600  1
  Mg  Mg114  1  0.66433200  0.73699900  0.51822300  1
  Mg  Mg115  1  0.70911500  0.10068600  0.58965200  1
  Mg  Mg116  1  0.43339300  0.22320800  0.52511800  1
  Mg  Mg117  1  0.66871400  0.22601300  0.52698800  1
  Mg  Mg118  1  0.21349800  0.34822100  0.59841700  1
  Mg  Mg119  1  0.65141900  1.00000000  0.52252700  1
  Mg  Mg120  1  0.09148200  0.04203500  0.63104400  1
  Mg  Mg121  1  0.09925500  0.25747000  0.62845300  1
  Mg  Mg122  1  0.55137500  0.67628400  0.56392000  1
  Mg  Mg123  1  0.36432000  0.52308300  0.62845300  1
  Mg  Mg124  1  0.32990200  0.65421400  0.55961600  1
  Mg  Mg125  1  0.33925100  0.02027900  0.62658300  1
  Mg  Mg126  1  0.31260600  0.42820100  0.55515500  1
  Mg  Mg127  1  0.54792800  0.43100600  0.55702400  1
  Mg  Mg128  1  0.27220500  0.55352700  0.49249100  1
  Mg  Mg129  1  0.31698900  0.91721500  0.56392000  1
  Mg  Mg130  1  0.58493700  0.51790100  0.63104400  1
  Mg  Mg131  1  0.36338500  0.76121000  0.62658300  1
  Mg  Mg132  1  0.17555300  0.96932100  0.52252700  1
  Mg  Mg133  1  0.16777900  0.75388600  0.52511800  1
  Mg  Mg134  1  0.71565900  0.33507300  0.58965200  1
  Mg  Mg135  1  0.90271400  0.48827300  0.52511800  1
  Mg  Mg136  1  0.90364900  0.25014700  0.52698800  1
  Mg  Mg137  1  0.68209700  0.49345500  0.52252700  1
  Mg  Mg138  1  0.95004600  0.09414200  0.58965200  1
  Mg  Mg139  1  0.42340100  0.74354300  0.51822300  1
  Mg  Mg140  1  0.71910700  0.58035100  0.59654700  1
  Mg  Mg141  1  0.95442900  0.58315600  0.59841700  1
  Mg  Mg142  1  0.92778300  0.99107800  0.52698800  1
  Mg  Mg143  1  0.93713300  0.35714300  0.59395600  1
  Mg  Mg144  1  0.37719600  0.39917800  0.70247300  1
  Mg  Mg145  1  0.38497000  0.61461300  0.69988200  1
  Mg  Mg146  1  0.83709000  0.03342700  0.63534800  1
  Mg  Mg147  1  0.65003500  0.88022600  0.69988200  1
  Mg  Mg148  1  0.62496600  0.37742100  0.69801200  1
  Mg  Mg149  1  0.12934800  0.62495600  0.70677700  1
  Mg  Mg150  1  0.60270300  0.27435800  0.63534800  1
  Mg  Mg151  1  0.87065200  0.87504400  0.70247300  1
  Mg  Mg152  1  0.64910000  0.11835300  0.69801200  1
  Mg  Mg153  1  0.00137400  0.69221600  0.66108000  1
  Mg  Mg154  1  0.23576000  0.45128500  0.66108000  1
  Mg  Mg155  1  0.28054300  0.81497200  0.73250900  1
  Mg  Mg156  1  0.00482100  0.93749400  0.66797600  1
  Mg  Mg157  1  0.24014300  0.94029800  0.66984500  1
  Mg  Mg158  1  0.22284700  0.71428500  0.66538400  1
  Mg  Mg159  1  0.12280400  0.39056900  0.70677700  1
  Mg  Mg160  1  0.90133000  0.36850000  0.70247300  1
  Mg  Mg161  1  0.88403500  0.14248700  0.69801200  1
  Mg  Mg162  1  0.11935600  0.14529100  0.69988200  1
  Mg  Mg163  1  0.84363400  0.26781300  0.63534800  1
  Mg  Mg164  1  0.88841700  0.63150000  0.70677700  1
  Mg  Mg165  1  0.74698100  0.68360700  0.66538400  1
  Mg  Mg166  1  0.73920800  0.46817200  0.66797600  1
  Mg  Mg167  1  0.28708800  0.04935800  0.73250900  1
  Mg  Mg168  1  0.47414300  0.20255900  0.66797600  1
  Mg  Mg169  1  0.47507800  0.96443200  0.66984500  1
  Mg  Mg170  1  0.25352600  0.20774100  0.66538400  1
  Mg  Mg171  1  0.52147400  0.80842700  0.73250900  1
  Mg  Mg172  1  0.99482900  0.45782900  0.66108000  1
  Mg  Mg173  1  0.49921200  0.70536300  0.66984500  1
  As  As174  1  0.85727200  0.65484800  0.25220100  1
  As  As175  1  0.87404900  0.52145900  0.32994200  1
  As  As176  1  0.87089200  0.26199100  0.32362900  1
  As  As177  1  0.89298600  0.98989700  0.32362900  1
  As  As178  1  0.11042800  0.39222300  0.25851300  1
  As  As179  1  0.33833400  0.64222300  0.25851300  1
  As  As180  1  0.12404900  0.49936600  0.32994200  1
  As  As181  1  0.10727200  0.63275400  0.25220100  1
  As  As182  1  0.11042800  0.89222300  0.25851300  1
  As  As183  1  0.08833400  0.16431700  0.25851300  1
  As  As184  1  0.87089200  0.76199100  0.32362900  1
  As  As185  1  0.64298600  0.51199100  0.32362900  1
  As  As186  1  0.34780300  0.89853500  0.25535700  1
  As  As187  1  0.63351700  0.75567800  0.32678600  1
  As  As188  1  0.84780300  0.39853500  0.25535700  1
  As  As189  1  0.84780300  0.89853500  0.25535700  1
  As  As190  1  0.14298600  0.01199100  0.32362900  1
  As  As191  1  0.58833400  0.16431700  0.25851300  1
  As  As192  1  0.58517800  0.90484800  0.25220100  1
  As  As193  1  0.60727200  0.63275400  0.25220100  1
  As  As194  1  0.39614200  0.74936600  0.32994200  1
  As  As195  1  0.62404900  0.99936600  0.32994200  1
  As  As196  1  0.83833400  0.14222300  0.25851300  1
  As  As197  1  0.39298600  0.98989700  0.32362900  1
  As  As198  1  0.39614200  0.24936600  0.32994200  1
  As  As199  1  0.37404900  0.52145900  0.32994200  1
  As  As200  1  0.58517800  0.40484800  0.25220100  1
  As  As201  1  0.35727200  0.15484800  0.25220100  1
  As  As202  1  0.63351700  0.25567800  0.32678600  1
  As  As203  1  0.34780300  0.39853500  0.25535700  1
  As  As204  1  0.13351700  0.75567800  0.32678600  1
  As  As205  1  0.13351700  0.25567800  0.32678600  1
  As  As206  1  0.42870000  0.36913400  0.39505800  1
  As  As207  1  0.44547700  0.23574500  0.47279900  1
  As  As208  1  0.44232100  0.97627600  0.46648700  1
  As  As209  1  0.46441500  0.70418300  0.46648700  1
  As  As210  1  0.68185700  0.10650900  0.40137100  1
  As  As211  1  0.90976300  0.35650900  0.40137100  1
  As  As212  1  0.69547700  0.21365100  0.47279900  1
  As  As213  1  0.67870000  0.34704000  0.39505800  1
  As  As214  1  0.68185700  0.60650900  0.40137100  1
  As  As215  1  0.65976300  0.87860200  0.40137100  1
  As  As216  1  0.44232100  0.47627600  0.46648700  1
  As  As217  1  0.21441500  0.22627600  0.46648700  1
  As  As218  1  0.91923200  0.61282100  0.39821400  1
  As  As219  1  0.20494600  0.46996400  0.46964300  1
  As  As220  1  0.41923200  0.11282100  0.39821400  1
  As  As221  1  0.41923200  0.61282100  0.39821400  1
  As  As222  1  0.71441500  0.72627600  0.46648700  1
  As  As223  1  0.15976300  0.87860200  0.40137100  1
  As  As224  1  0.15660700  0.61913400  0.39505800  1
  As  As225  1  0.17870000  0.34704000  0.39505800  1
  As  As226  1  0.96757100  0.46365100  0.47279900  1
  As  As227  1  0.19547700  0.71365100  0.47279900  1
  As  As228  1  0.40976300  0.85650900  0.40137100  1
  As  As229  1  0.96441500  0.70418300  0.46648700  1
  As  As230  1  0.96757100  0.96365100  0.47279900  1
  As  As231  1  0.94547700  0.23574500  0.47279900  1
  As  As232  1  0.15660700  0.11913400  0.39505800  1
  As  As233  1  0.92870000  0.86913400  0.39505800  1
  As  As234  1  0.20494600  0.96996400  0.46964300  1
  As  As235  1  0.91923200  0.11282100  0.39821400  1
  As  As236  1  0.70494600  0.46996400  0.46964300  1
  As  As237  1  0.70494600  0.96996400  0.46964300  1
  As  As238  1  0.00012900  0.08341900  0.53791500  1
  As  As239  1  0.01690600  0.95003100  0.61565600  1
  As  As240  1  0.01374900  0.69056200  0.60934400  1
  As  As241  1  0.03584300  0.41846800  0.60934400  1
  As  As242  1  0.25328500  0.82079400  0.54422800  1
  As  As243  1  0.48119100  0.07079400  0.54422800  1
  As  As244  1  0.26690600  0.92793700  0.61565600  1
  As  As245  1  0.25012900  0.06132600  0.53791500  1
  As  As246  1  0.25328500  0.32079400  0.54422800  1
  As  As247  1  0.23119100  0.59288800  0.54422800  1
  As  As248  1  0.01374900  0.19056200  0.60934400  1
  As  As249  1  0.78584300  0.94056200  0.60934400  1
  As  As250  1  0.49066000  0.32710700  0.54107100  1
  As  As251  1  0.77637400  0.18425000  0.61250000  1
  As  As252  1  0.99066000  0.82710700  0.54107100  1
  As  As253  1  0.99066000  0.32710700  0.54107100  1
  As  As254  1  0.28584300  0.44056200  0.60934400  1
  As  As255  1  0.73119100  0.59288800  0.54422800  1
  As  As256  1  0.72803500  0.33341900  0.53791500  1
  As  As257  1  0.75012900  0.06132600  0.53791500  1
  As  As258  1  0.53899900  0.17793700  0.61565600  1
  As  As259  1  0.76690600  0.42793700  0.61565600  1
  As  As260  1  0.98119100  0.57079400  0.54422800  1
  As  As261  1  0.53584300  0.41846800  0.60934400  1
  As  As262  1  0.53899900  0.67793700  0.61565600  1
  As  As263  1  0.51690600  0.95003100  0.61565600  1
  As  As264  1  0.72803500  0.83341900  0.53791500  1
  As  As265  1  0.50012900  0.58341900  0.53791500  1
  As  As266  1  0.77637400  0.68425000  0.61250000  1
  As  As267  1  0.49066000  0.82710700  0.54107100  1
  As  As268  1  0.27637400  0.18425000  0.61250000  1
  As  As269  1  0.27637400  0.68425000  0.61250000  1
  As  As270  1  0.57155700  0.79770500  0.68077200  1
  As  As271  1  0.82471400  0.53508000  0.68708500  1
  As  As272  1  0.05262000  0.78508000  0.68708500  1
  As  As273  1  0.82155700  0.77561100  0.68077200  1
  As  As274  1  0.82471400  0.03508000  0.68708500  1
  As  As275  1  0.80262000  0.30717400  0.68708500  1
  As  As276  1  0.06208900  0.04139200  0.68392900  1
  As  As277  1  0.56208900  0.54139200  0.68392900  1
  As  As278  1  0.56208900  0.04139200  0.68392900  1
  As  As279  1  0.30262000  0.30717400  0.68708500  1
  As  As280  1  0.29946400  0.04770500  0.68077200  1
  As  As281  1  0.32155700  0.77561100  0.68077200  1
  As  As282  1  0.55262000  0.28508000  0.68708500  1
  As  As283  1  0.29946400  0.54770500  0.68077200  1
  As  As284  1  0.07155700  0.29770500  0.68077200  1
  As  As285  1  0.06208900  0.54139200  0.68392900  1
