# generated using pymatgen
data_Mg37Pd61
_symmetry_space_group_name_H-M   'P 1'
_cell_length_a   5.51609600
_cell_length_b   11.53452198
_cell_length_c   44.28962500
_cell_angle_alpha   83.04139460
_cell_angle_beta   90.00000000
_cell_angle_gamma   90.00000000
_symmetry_Int_Tables_number   1
_chemical_formula_structural   Mg37Pd61
_chemical_formula_sum   'Mg37 Pd61'
_cell_volume   2797.19369366
_cell_formula_units_Z   1
loop_
 _symmetry_equiv_pos_site_id
 _symmetry_equiv_pos_as_xyz
  1  'x, y, z'
loop_
 _atom_site_type_symbol
 _atom_site_label
 _atom_site_symmetry_multiplicity
 _atom_site_fract_x
 _atom_site_fract_y
 _atom_site_fract_z
 _atom_site_occupancy
  Mg  Mg0  1  0.50000000  0.82828600  0.26704500  1
  Mg  Mg1  1  0.00000000  0.23737700  0.31250000  1
  Mg  Mg2  1  0.50000000  0.64646800  0.35795500  1
  Mg  Mg3  1  0.16115000  0.84984900  0.32499700  1
  Mg  Mg4  1  0.83885000  0.62490400  0.30000300  1
  Mg  Mg5  1  0.33885000  0.44075800  0.27954200  1
  Mg  Mg6  1  0.66115000  0.03399500  0.34545800  1
  Mg  Mg7  1  0.00000000  0.05555800  0.40340900  1
  Mg  Mg8  1  0.50000000  0.46464900  0.44886400  1
  Mg  Mg9  1  0.16115000  0.66803100  0.41590600  1
  Mg  Mg10  1  0.83885000  0.44308600  0.39091200  1
  Mg  Mg11  1  0.33885000  0.25894000  0.37045100  1
  Mg  Mg12  1  0.66115000  0.85217700  0.43636700  1
  Mg  Mg13  1  0.00000000  0.87374000  0.49431800  1
  Mg  Mg14  1  0.50000000  0.28283100  0.53977300  1
  Mg  Mg15  1  0.16115000  0.48621300  0.50681500  1
  Mg  Mg16  1  0.83885000  0.26126800  0.48182100  1
  Mg  Mg17  1  0.33885000  0.07712200  0.46136100  1
  Mg  Mg18  1  0.66115000  0.67035900  0.52727600  1
  Mg  Mg19  1  0.00000000  0.69192200  0.58522700  1
  Mg  Mg20  1  0.50000000  0.10101300  0.63068200  1
  Mg  Mg21  1  0.16115000  0.30439500  0.59772400  1
  Mg  Mg22  1  0.83885000  0.07945000  0.57273000  1
  Mg  Mg23  1  0.33885000  0.89530400  0.55227000  1
  Mg  Mg24  1  0.66115000  0.48854100  0.61818500  1
  Mg  Mg25  1  0.00000000  0.51010400  0.67613600  1
  Mg  Mg26  1  0.50000000  0.91919500  0.72159100  1
  Mg  Mg27  1  0.16115000  0.12257600  0.68863300  1
  Mg  Mg28  1  0.83885000  0.89763100  0.66363900  1
  Mg  Mg29  1  0.33885000  0.71348500  0.64317900  1
  Mg  Mg30  1  0.66115000  0.30672200  0.70909400  1
  Mg  Mg31  1  1.00000000  0.32828600  0.76704500  1
  Mg  Mg32  1  0.50000000  0.73737700  0.81250000  1
  Mg  Mg33  1  0.16115000  0.94075800  0.77954200  1
  Mg  Mg34  1  0.83885000  0.71581300  0.75454900  1
  Mg  Mg35  1  0.33885000  0.53166700  0.73408800  1
  Mg  Mg36  1  0.66115000  0.12490400  0.80000300  1
  Pd  Pd37  1  0.00000000  0.82828600  0.26704500  1
  Pd  Pd38  1  0.17470500  0.05553200  0.34785100  1
  Pd  Pd39  1  0.82529500  0.41922100  0.27714900  1
  Pd  Pd40  1  0.32529500  0.64644100  0.30239600  1
  Pd  Pd41  1  0.67470500  0.82831200  0.32260400  1
  Pd  Pd42  1  0.38856000  0.02779000  0.28921300  1
  Pd  Pd43  1  0.61144000  0.44696300  0.33578700  1
  Pd  Pd44  1  0.11144000  0.43688100  0.33466700  1
  Pd  Pd45  1  0.88856000  0.03787200  0.29033300  1
  Pd  Pd46  1  0.00000000  0.64646800  0.35795500  1
  Pd  Pd47  1  0.50000000  0.23737700  0.31250000  1
  Pd  Pd48  1  0.17470500  0.87371400  0.43876000  1
  Pd  Pd49  1  0.82529500  0.23740300  0.36805800  1
  Pd  Pd50  1  0.32529500  0.46462300  0.39330500  1
  Pd  Pd51  1  0.67470500  0.64649400  0.41351300  1
  Pd  Pd52  1  0.38856000  0.84597200  0.38012200  1
  Pd  Pd53  1  0.61144000  0.26514500  0.42669600  1
  Pd  Pd54  1  0.11144000  0.25506300  0.42557600  1
  Pd  Pd55  1  0.88856000  0.85605400  0.38124200  1
  Pd  Pd56  1  0.00000000  0.46464900  0.44886400  1
  Pd  Pd57  1  0.50000000  0.05555800  0.40340900  1
  Pd  Pd58  1  0.17470500  0.69189600  0.52966900  1
  Pd  Pd59  1  0.82529500  0.05558500  0.45896800  1
  Pd  Pd60  1  0.32529500  0.28280500  0.48421400  1
  Pd  Pd61  1  0.67470500  0.46467500  0.50442200  1
  Pd  Pd62  1  0.38856000  0.66415400  0.47103100  1
  Pd  Pd63  1  0.61144000  0.08332700  0.51760600  1
  Pd  Pd64  1  0.11144000  0.07324500  0.51648500  1
  Pd  Pd65  1  0.88856000  0.67423600  0.47215100  1
  Pd  Pd66  1  0.00000000  0.28283100  0.53977300  1
  Pd  Pd67  1  0.50000000  0.87374000  0.49431800  1
  Pd  Pd68  1  0.17470500  0.51007800  0.62057800  1
  Pd  Pd69  1  0.82529500  0.87376600  0.54987700  1
  Pd  Pd70  1  0.32529500  0.10098700  0.57512300  1
  Pd  Pd71  1  0.67470500  0.28285700  0.59533100  1
  Pd  Pd72  1  0.38856000  0.48233500  0.56194000  1
  Pd  Pd73  1  0.61144000  0.90150900  0.60851500  1
  Pd  Pd74  1  0.11144000  0.89142600  0.60739400  1
  Pd  Pd75  1  0.88856000  0.49241800  0.56306000  1
  Pd  Pd76  1  0.00000000  0.10101300  0.63068200  1
  Pd  Pd77  1  0.50000000  0.69192200  0.58522700  1
  Pd  Pd78  1  0.17470500  0.32826000  0.71148700  1
  Pd  Pd79  1  0.82529500  0.69194800  0.64078600  1
  Pd  Pd80  1  0.32529500  0.91916900  0.66603200  1
  Pd  Pd81  1  0.67470500  0.10103900  0.68624000  1
  Pd  Pd82  1  0.38856000  0.30051700  0.65284900  1
  Pd  Pd83  1  0.61144000  0.71969100  0.69942400  1
  Pd  Pd84  1  0.11144000  0.70960800  0.69830400  1
  Pd  Pd85  1  0.88856000  0.31060000  0.65396900  1
  Pd  Pd86  1  0.00000000  0.91919500  0.72159100  1
  Pd  Pd87  1  0.50000000  0.51010400  0.67613600  1
  Pd  Pd88  1  0.17470500  0.14644100  0.80239600  1
  Pd  Pd89  1  0.82529500  0.51013000  0.73169500  1
  Pd  Pd90  1  0.32529500  0.73735100  0.75694200  1
  Pd  Pd91  1  0.67470500  0.91922100  0.77714900  1
  Pd  Pd92  1  0.38856000  0.11869900  0.74375800  1
  Pd  Pd93  1  0.61144000  0.53787200  0.79033300  1
  Pd  Pd94  1  0.11144000  0.52779000  0.78921300  1
  Pd  Pd95  1  0.88856000  0.12878100  0.74487800  1
  Pd  Pd96  1  0.00000000  0.73737700  0.81250000  1
  Pd  Pd97  1  0.50000000  0.32828600  0.76704500  1
