# generated using pymatgen
data_Ce20Mg187
_symmetry_space_group_name_H-M   'P 1'
_cell_length_a   14.43775526
_cell_length_b   14.43775501
_cell_length_c   45.98188600
_cell_angle_alpha   89.14134599
_cell_angle_beta   90.85865399
_cell_angle_gamma   103.42087140
_symmetry_Int_Tables_number   1
_chemical_formula_structural   Ce20Mg187
_chemical_formula_sum   'Ce20 Mg187'
_cell_volume   9321.41888714
_cell_formula_units_Z   1
loop_
 _symmetry_equiv_pos_site_id
 _symmetry_equiv_pos_as_xyz
  1  'x, y, z'
loop_
 _atom_site_type_symbol
 _atom_site_label
 _atom_site_symmetry_multiplicity
 _atom_site_fract_x
 _atom_site_fract_y
 _atom_site_fract_z
 _atom_site_occupancy
  Ce  Ce0  1  0.62111500  0.37888500  0.35263200  1
  Ce  Ce1  1  0.42111500  0.57888500  0.30263200  1
  Ce  Ce2  1  0.28778100  0.04555200  0.35263200  1
  Ce  Ce3  1  0.75444800  0.91221900  0.30263200  1
  Ce  Ce4  1  0.02111500  0.97888500  0.45263200  1
  Ce  Ce5  1  0.82111500  0.17888500  0.40263200  1
  Ce  Ce6  1  0.68778100  0.64555200  0.45263200  1
  Ce  Ce7  1  0.15444800  0.51221900  0.40263200  1
  Ce  Ce8  1  0.42111500  0.57888500  0.55263200  1
  Ce  Ce9  1  0.22111500  0.77888500  0.50263200  1
  Ce  Ce10  1  0.08778100  0.24555200  0.55263200  1
  Ce  Ce11  1  0.55444800  0.11221900  0.50263200  1
  Ce  Ce12  1  0.82111500  0.17888500  0.65263200  1
  Ce  Ce13  1  0.62111500  0.37888500  0.60263200  1
  Ce  Ce14  1  0.48778100  0.84555200  0.65263200  1
  Ce  Ce15  1  0.95444800  0.71221900  0.60263200  1
  Ce  Ce16  1  0.22111500  0.77888500  0.75263200  1
  Ce  Ce17  1  0.02111500  0.97888500  0.70263200  1
  Ce  Ce18  1  0.88778100  0.44555200  0.75263200  1
  Ce  Ce19  1  0.35444800  0.31221900  0.70263200  1
  Mg  Mg20  1  0.62460100  0.70348600  0.26318900  1
  Mg  Mg21  1  0.61537300  0.05129400  0.26786300  1
  Mg  Mg22  1  0.16219500  0.00002500  0.27845700  1
  Mg  Mg23  1  0.37225100  0.98900500  0.28212300  1
  Mg  Mg24  1  0.15025900  0.52530100  0.27547300  1
  Mg  Mg25  1  0.98270300  0.85507700  0.27413900  1
  Mg  Mg26  1  0.65952700  0.50269300  0.28112500  1
  Mg  Mg27  1  0.02685700  0.30647600  0.28740000  1
  Mg  Mg28  1  0.49197000  0.83246900  0.27979100  1
  Mg  Mg29  1  0.01762900  0.65428500  0.29207400  1
  Mg  Mg30  1  0.67346400  0.29336600  0.28369700  1
  Mg  Mg31  1  0.48003500  0.35774500  0.27680700  1
  Mg  Mg32  1  0.82111500  0.67888500  0.27763200  1
  Mg  Mg33  1  0.96876500  0.06440400  0.27156600  1
  Mg  Mg34  1  0.26997800  0.36876500  0.27314000  1
  Mg  Mg35  1  0.82111500  0.17888500  0.27763200  1
  Mg  Mg36  1  0.32111500  0.17888500  0.27763200  1
  Mg  Mg37  1  0.52111500  0.97888500  0.32763200  1
  Mg  Mg38  1  0.02111500  0.47888500  0.32763200  1
  Mg  Mg39  1  0.34492300  0.81729700  0.32413900  1
  Mg  Mg40  1  0.36753100  0.30803000  0.32979100  1
  Mg  Mg41  1  0.19997500  0.63780500  0.32845700  1
  Mg  Mg42  1  0.02460100  0.30348600  0.36318900  1
  Mg  Mg43  1  0.14870600  0.18462700  0.31786300  1
  Mg  Mg44  1  0.01537300  0.65129400  0.36786300  1
  Mg  Mg45  1  0.67469900  0.64974100  0.32547300  1
  Mg  Mg46  1  0.21099500  0.42774900  0.33212300  1
  Mg  Mg47  1  0.13559600  0.83123500  0.32156600  1
  Mg  Mg48  1  0.56219500  0.60002500  0.37845700  1
  Mg  Mg49  1  0.77225100  0.58900500  0.38212300  1
  Mg  Mg50  1  0.90663400  0.12653600  0.33369700  1
  Mg  Mg51  1  0.55025900  0.12530100  0.37547300  1
  Mg  Mg52  1  0.84225500  0.31996500  0.32680700  1
  Mg  Mg53  1  0.38270300  0.45507700  0.37413900  1
  Mg  Mg54  1  0.05952700  0.10269300  0.38112500  1
  Mg  Mg55  1  0.42685700  0.90647600  0.38740000  1
  Mg  Mg56  1  0.89197000  0.43246900  0.37979100  1
  Mg  Mg57  1  0.02111500  0.97888500  0.32763200  1
  Mg  Mg58  1  0.49651400  0.17539900  0.31318900  1
  Mg  Mg59  1  0.41762900  0.25428500  0.39207400  1
  Mg  Mg60  1  0.89352400  0.77314300  0.33740000  1
  Mg  Mg61  1  0.69730700  0.14047300  0.33112500  1
  Mg  Mg62  1  0.07346400  0.89336600  0.38369700  1
  Mg  Mg63  1  0.54571500  0.78237100  0.34207400  1
  Mg  Mg64  1  0.88003500  0.95774500  0.37680700  1
  Mg  Mg65  1  0.83123500  0.53002200  0.32314000  1
  Mg  Mg66  1  0.22111500  0.27888500  0.37763200  1
  Mg  Mg67  1  0.36876500  0.66440400  0.37156600  1
  Mg  Mg68  1  0.66997800  0.96876500  0.37314000  1
  Mg  Mg69  1  0.22111500  0.77888500  0.37763200  1
  Mg  Mg70  1  0.72111500  0.77888500  0.37763200  1
  Mg  Mg71  1  0.92111500  0.57888500  0.42763200  1
  Mg  Mg72  1  0.42111500  0.07888500  0.42763200  1
  Mg  Mg73  1  0.74492300  0.41729700  0.42413900  1
  Mg  Mg74  1  0.76753100  0.90803000  0.42979100  1
  Mg  Mg75  1  0.59997500  0.23780500  0.42845700  1
  Mg  Mg76  1  0.42460100  0.90348600  0.46318900  1
  Mg  Mg77  1  0.54870600  0.78462700  0.41786300  1
  Mg  Mg78  1  0.41537300  0.25129400  0.46786300  1
  Mg  Mg79  1  0.07469900  0.24974100  0.42547300  1
  Mg  Mg80  1  0.61099500  0.02774900  0.43212300  1
  Mg  Mg81  1  0.53559600  0.43123500  0.42156600  1
  Mg  Mg82  1  0.96219500  0.20002500  0.47845700  1
  Mg  Mg83  1  0.17225100  0.18900500  0.48212300  1
  Mg  Mg84  1  0.30663400  0.72653600  0.43369700  1
  Mg  Mg85  1  0.95025900  0.72530100  0.47547300  1
  Mg  Mg86  1  0.24225500  0.91996500  0.42680700  1
  Mg  Mg87  1  0.78270300  0.05507700  0.47413900  1
  Mg  Mg88  1  0.45952700  0.70269300  0.48112500  1
  Mg  Mg89  1  0.82685700  0.50647600  0.48740000  1
  Mg  Mg90  1  0.29197000  0.03246900  0.47979100  1
  Mg  Mg91  1  0.42111500  0.57888500  0.42763200  1
  Mg  Mg92  1  0.89651400  0.77539900  0.41318900  1
  Mg  Mg93  1  0.81762900  0.85428500  0.49207400  1
  Mg  Mg94  1  0.29352400  0.37314300  0.43740000  1
  Mg  Mg95  1  0.09730700  0.74047300  0.43112500  1
  Mg  Mg96  1  0.47346400  0.49336600  0.48369700  1
  Mg  Mg97  1  0.94571500  0.38237100  0.44207400  1
  Mg  Mg98  1  0.28003500  0.55774500  0.47680700  1
  Mg  Mg99  1  0.23123500  0.13002200  0.42314000  1
  Mg  Mg100  1  0.62111500  0.87888500  0.47763200  1
  Mg  Mg101  1  0.76876500  0.26440400  0.47156600  1
  Mg  Mg102  1  0.06997800  0.56876500  0.47314000  1
  Mg  Mg103  1  0.62111500  0.37888500  0.47763200  1
  Mg  Mg104  1  0.12111500  0.37888500  0.47763200  1
  Mg  Mg105  1  0.32111500  0.17888500  0.52763200  1
  Mg  Mg106  1  0.82111500  0.67888500  0.52763200  1
  Mg  Mg107  1  0.14492300  0.01729700  0.52413900  1
  Mg  Mg108  1  0.16753100  0.50803000  0.52979100  1
  Mg  Mg109  1  0.99997500  0.83780500  0.52845700  1
  Mg  Mg110  1  0.82460100  0.50348600  0.56318900  1
  Mg  Mg111  1  0.94870600  0.38462700  0.51786300  1
  Mg  Mg112  1  0.81537300  0.85129400  0.56786300  1
  Mg  Mg113  1  0.47469900  0.84974100  0.52547300  1
  Mg  Mg114  1  0.01099500  0.62774900  0.53212300  1
  Mg  Mg115  1  0.93559600  0.03123500  0.52156600  1
  Mg  Mg116  1  0.36219500  0.80002500  0.57845700  1
  Mg  Mg117  1  0.57225100  0.78900500  0.58212300  1
  Mg  Mg118  1  0.70663400  0.32653600  0.53369700  1
  Mg  Mg119  1  0.35025900  0.32530100  0.57547300  1
  Mg  Mg120  1  0.64225500  0.51996500  0.52680700  1
  Mg  Mg121  1  0.18270300  0.65507700  0.57413900  1
  Mg  Mg122  1  0.85952700  0.30269300  0.58112500  1
  Mg  Mg123  1  0.22685700  0.10647600  0.58740000  1
  Mg  Mg124  1  0.69197000  0.63246900  0.57979100  1
  Mg  Mg125  1  0.82111500  0.17888500  0.52763200  1
  Mg  Mg126  1  0.29651400  0.37539900  0.51318900  1
  Mg  Mg127  1  0.21762900  0.45428500  0.59207400  1
  Mg  Mg128  1  0.69352400  0.97314300  0.53740000  1
  Mg  Mg129  1  0.49730700  0.34047300  0.53112500  1
  Mg  Mg130  1  0.87346400  0.09336600  0.58369700  1
  Mg  Mg131  1  0.34571500  0.98237100  0.54207400  1
  Mg  Mg132  1  0.68003500  0.15774500  0.57680700  1
  Mg  Mg133  1  0.63123500  0.73002200  0.52314000  1
  Mg  Mg134  1  0.02111500  0.47888500  0.57763200  1
  Mg  Mg135  1  0.16876500  0.86440400  0.57156600  1
  Mg  Mg136  1  0.46997800  0.16876500  0.57314000  1
  Mg  Mg137  1  0.02111500  0.97888500  0.57763200  1
  Mg  Mg138  1  0.52111500  0.97888500  0.57763200  1
  Mg  Mg139  1  0.72111500  0.77888500  0.62763200  1
  Mg  Mg140  1  0.22111500  0.27888500  0.62763200  1
  Mg  Mg141  1  0.54492300  0.61729700  0.62413900  1
  Mg  Mg142  1  0.56753100  0.10803000  0.62979100  1
  Mg  Mg143  1  0.39997500  0.43780500  0.62845700  1
  Mg  Mg144  1  0.22460100  0.10348600  0.66318900  1
  Mg  Mg145  1  0.34870600  0.98462700  0.61786300  1
  Mg  Mg146  1  0.21537300  0.45129400  0.66786300  1
  Mg  Mg147  1  0.87469900  0.44974100  0.62547300  1
  Mg  Mg148  1  0.41099500  0.22774900  0.63212300  1
  Mg  Mg149  1  0.33559600  0.63123500  0.62156600  1
  Mg  Mg150  1  0.76219500  0.40002500  0.67845700  1
  Mg  Mg151  1  0.97225100  0.38900500  0.68212300  1
  Mg  Mg152  1  0.10663400  0.92653600  0.63369700  1
  Mg  Mg153  1  0.75025900  0.92530100  0.67547300  1
  Mg  Mg154  1  0.04225500  0.11996500  0.62680700  1
  Mg  Mg155  1  0.58270300  0.25507700  0.67413900  1
  Mg  Mg156  1  0.25952700  0.90269300  0.68112500  1
  Mg  Mg157  1  0.62685700  0.70647600  0.68740000  1
  Mg  Mg158  1  0.09197000  0.23246900  0.67979100  1
  Mg  Mg159  1  0.22111500  0.77888500  0.62763200  1
  Mg  Mg160  1  0.69651400  0.97539900  0.61318900  1
  Mg  Mg161  1  0.61762900  0.05428500  0.69207400  1
  Mg  Mg162  1  0.09352400  0.57314300  0.63740000  1
  Mg  Mg163  1  0.89730700  0.94047300  0.63112500  1
  Mg  Mg164  1  0.27346400  0.69336600  0.68369700  1
  Mg  Mg165  1  0.74571500  0.58237100  0.64207400  1
  Mg  Mg166  1  0.08003500  0.75774500  0.67680700  1
  Mg  Mg167  1  0.03123500  0.33002200  0.62314000  1
  Mg  Mg168  1  0.42111500  0.07888500  0.67763200  1
  Mg  Mg169  1  0.56876500  0.46440400  0.67156600  1
  Mg  Mg170  1  0.86997800  0.76876500  0.67314000  1
  Mg  Mg171  1  0.42111500  0.57888500  0.67763200  1
  Mg  Mg172  1  0.92111500  0.57888500  0.67763200  1
  Mg  Mg173  1  0.12111500  0.37888500  0.72763200  1
  Mg  Mg174  1  0.62111500  0.87888500  0.72763200  1
  Mg  Mg175  1  0.94492300  0.21729700  0.72413900  1
  Mg  Mg176  1  0.96753100  0.70803000  0.72979100  1
  Mg  Mg177  1  0.79997500  0.03780500  0.72845700  1
  Mg  Mg178  1  0.62460100  0.70348600  0.76318900  1
  Mg  Mg179  1  0.74870600  0.58462700  0.71786300  1
  Mg  Mg180  1  0.61537300  0.05129400  0.76786300  1
  Mg  Mg181  1  0.27469900  0.04974100  0.72547300  1
  Mg  Mg182  1  0.81099500  0.82774900  0.73212300  1
  Mg  Mg183  1  0.73559600  0.23123500  0.72156600  1
  Mg  Mg184  1  0.16219500  0.00002500  0.77845700  1
  Mg  Mg185  1  0.37225100  0.98900500  0.78212300  1
  Mg  Mg186  1  0.50663400  0.52653600  0.73369700  1
  Mg  Mg187  1  0.15025900  0.52530100  0.77547300  1
  Mg  Mg188  1  0.44225500  0.71996500  0.72680700  1
  Mg  Mg189  1  0.98270300  0.85507700  0.77413900  1
  Mg  Mg190  1  0.65952700  0.50269300  0.78112500  1
  Mg  Mg191  1  0.02685700  0.30647600  0.78740000  1
  Mg  Mg192  1  0.49197000  0.83246900  0.77979100  1
  Mg  Mg193  1  0.62111500  0.37888500  0.72763200  1
  Mg  Mg194  1  0.09651400  0.57539900  0.71318900  1
  Mg  Mg195  1  0.01762900  0.65428500  0.79207400  1
  Mg  Mg196  1  0.49352400  0.17314300  0.73740000  1
  Mg  Mg197  1  0.29730700  0.54047300  0.73112500  1
  Mg  Mg198  1  0.67346400  0.29336600  0.78369700  1
  Mg  Mg199  1  0.14571500  0.18237100  0.74207400  1
  Mg  Mg200  1  0.48003500  0.35774500  0.77680700  1
  Mg  Mg201  1  0.43123500  0.93002200  0.72314000  1
  Mg  Mg202  1  0.82111500  0.67888500  0.77763200  1
  Mg  Mg203  1  0.96876500  0.06440400  0.77156600  1
  Mg  Mg204  1  0.26997800  0.36876500  0.77314000  1
  Mg  Mg205  1  0.82111500  0.17888500  0.77763200  1
  Mg  Mg206  1  0.32111500  0.17888500  0.77763200  1
