# generated using pymatgen
data_Mg2Cd
_symmetry_space_group_name_H-M   'P 1'
_cell_length_a   3.17171500
_cell_length_b   5.19055600
_cell_length_c   48.34822400
_cell_angle_alpha   90.00000000
_cell_angle_beta   90.00000000
_cell_angle_gamma   90.00000000
_symmetry_Int_Tables_number   1
_chemical_formula_structural   Mg2Cd
_chemical_formula_sum   'Mg16 Cd8'
_cell_volume   795.95508682
_cell_formula_units_Z   8
loop_
 _symmetry_equiv_pos_site_id
 _symmetry_equiv_pos_as_xyz
  1  'x, y, z'
loop_
 _atom_site_type_symbol
 _atom_site_label
 _atom_site_symmetry_multiplicity
 _atom_site_fract_x
 _atom_site_fract_y
 _atom_site_fract_z
 _atom_site_occupancy
  Mg  Mg0  1  0.00000000  0.75000000  0.31473200  1
  Mg  Mg1  1  0.50000000  0.75000000  0.25829200  1
  Mg  Mg2  1  0.00000000  0.25000000  0.24170800  1
  Mg  Mg3  1  0.50000000  0.25000000  0.18526800  1
  Mg  Mg4  1  0.50000000  0.75000000  0.48139900  1
  Mg  Mg5  1  0.00000000  0.75000000  0.42495800  1
  Mg  Mg6  1  0.50000000  0.25000000  0.40837500  1
  Mg  Mg7  1  0.00000000  0.25000000  0.35193400  1
  Mg  Mg8  1  0.00000000  0.75000000  0.64806600  1
  Mg  Mg9  1  0.50000000  0.75000000  0.59162500  1
  Mg  Mg10  1  0.00000000  0.25000000  0.57504200  1
  Mg  Mg11  1  0.50000000  0.25000000  0.51860100  1
  Mg  Mg12  1  0.50000000  0.75000000  0.81473200  1
  Mg  Mg13  1  0.00000000  0.75000000  0.75829200  1
  Mg  Mg14  1  0.50000000  0.25000000  0.74170800  1
  Mg  Mg15  1  0.00000000  0.25000000  0.68526800  1
  Cd  Cd16  1  0.00000000  0.75000000  0.20393500  1
  Cd  Cd17  1  0.50000000  0.25000000  0.29606500  1
  Cd  Cd18  1  0.50000000  0.75000000  0.37060100  1
  Cd  Cd19  1  0.00000000  0.25000000  0.46273200  1
  Cd  Cd20  1  0.00000000  0.75000000  0.53726800  1
  Cd  Cd21  1  0.50000000  0.25000000  0.62939900  1
  Cd  Cd22  1  0.50000000  0.75000000  0.70393500  1
  Cd  Cd23  1  0.00000000  0.25000000  0.79606500  1
