# generated using pymatgen
data_MgHg2
_symmetry_space_group_name_H-M   'P 1'
_cell_length_a   3.51707100
_cell_length_b   15.61605428
_cell_length_c   41.04988600
_cell_angle_alpha   100.55398162
_cell_angle_beta   90.00000000
_cell_angle_gamma   90.00000000
_symmetry_Int_Tables_number   1
_chemical_formula_structural   MgHg2
_chemical_formula_sum   'Mg20 Hg40'
_cell_volume   2216.43239075
_cell_formula_units_Z   20
loop_
 _symmetry_equiv_pos_site_id
 _symmetry_equiv_pos_as_xyz
  1  'x, y, z'
loop_
 _atom_site_type_symbol
 _atom_site_label
 _atom_site_symmetry_multiplicity
 _atom_site_fract_x
 _atom_site_fract_y
 _atom_site_fract_z
 _atom_site_occupancy
  Mg  Mg0  1  0.50000000  0.77652200  0.28407300  1
  Mg  Mg1  1  0.00000000  0.27979200  0.27842700  1
  Mg  Mg2  1  0.00000000  0.08902200  0.22157300  1
  Mg  Mg3  1  0.50000000  0.59229200  0.21592700  1
  Mg  Mg4  1  0.50000000  0.15152200  0.40907300  1
  Mg  Mg5  1  0.00000000  0.65479200  0.40342700  1
  Mg  Mg6  1  0.00000000  0.46402200  0.34657300  1
  Mg  Mg7  1  0.50000000  0.96729200  0.34092700  1
  Mg  Mg8  1  0.50000000  0.52652200  0.53407300  1
  Mg  Mg9  1  0.00000000  0.02979200  0.52842700  1
  Mg  Mg10  1  0.00000000  0.83902200  0.47157300  1
  Mg  Mg11  1  0.50000000  0.34229200  0.46592700  1
  Mg  Mg12  1  0.50000000  0.90152200  0.65907300  1
  Mg  Mg13  1  0.00000000  0.40479200  0.65342700  1
  Mg  Mg14  1  0.00000000  0.21402200  0.59657300  1
  Mg  Mg15  1  0.50000000  0.71729200  0.59092700  1
  Mg  Mg16  1  0.50000000  0.27652200  0.78407300  1
  Mg  Mg17  1  0.00000000  0.77979200  0.77842700  1
  Mg  Mg18  1  0.00000000  0.58902200  0.72157300  1
  Mg  Mg19  1  0.50000000  0.09229200  0.71592700  1
  Hg  Hg20  1  0.00000000  0.61721700  0.27795900  1
  Hg  Hg21  1  0.50000000  0.43909700  0.28454100  1
  Hg  Hg22  1  0.00000000  0.43362100  0.21997900  1
  Hg  Hg23  1  0.50000000  0.24769300  0.21752100  1
  Hg  Hg24  1  0.50000000  0.92971700  0.21545900  1
  Hg  Hg25  1  0.00000000  0.75159700  0.22204100  1
  Hg  Hg26  1  0.50000000  0.12112100  0.28247900  1
  Hg  Hg27  1  0.00000000  0.93519300  0.28002100  1
  Hg  Hg28  1  0.00000000  0.99221700  0.40295900  1
  Hg  Hg29  1  0.50000000  0.81409700  0.40954100  1
  Hg  Hg30  1  0.00000000  0.80862100  0.34497900  1
  Hg  Hg31  1  0.50000000  0.62269300  0.34252100  1
  Hg  Hg32  1  0.50000000  0.30471700  0.34045900  1
  Hg  Hg33  1  0.00000000  0.12659700  0.34704100  1
  Hg  Hg34  1  0.50000000  0.49612100  0.40747900  1
  Hg  Hg35  1  0.00000000  0.31019300  0.40502100  1
  Hg  Hg36  1  0.00000000  0.36721700  0.52795900  1
  Hg  Hg37  1  0.50000000  0.18909700  0.53454100  1
  Hg  Hg38  1  0.00000000  0.18362100  0.46997900  1
  Hg  Hg39  1  0.50000000  0.99769300  0.46752100  1
  Hg  Hg40  1  0.50000000  0.67971700  0.46545900  1
  Hg  Hg41  1  0.00000000  0.50159700  0.47204100  1
  Hg  Hg42  1  0.50000000  0.87112100  0.53247900  1
  Hg  Hg43  1  0.00000000  0.68519300  0.53002100  1
  Hg  Hg44  1  0.00000000  0.74221700  0.65295900  1
  Hg  Hg45  1  0.50000000  0.56409700  0.65954100  1
  Hg  Hg46  1  0.00000000  0.55862100  0.59497900  1
  Hg  Hg47  1  0.50000000  0.37269300  0.59252100  1
  Hg  Hg48  1  0.50000000  0.05471700  0.59045900  1
  Hg  Hg49  1  0.00000000  0.87659700  0.59704100  1
  Hg  Hg50  1  0.50000000  0.24612100  0.65747900  1
  Hg  Hg51  1  0.00000000  0.06019300  0.65502100  1
  Hg  Hg52  1  0.00000000  0.11721700  0.77795900  1
  Hg  Hg53  1  0.50000000  0.93909700  0.78454100  1
  Hg  Hg54  1  0.00000000  0.93362100  0.71997900  1
  Hg  Hg55  1  0.50000000  0.74769300  0.71752100  1
  Hg  Hg56  1  0.50000000  0.42971700  0.71545900  1
  Hg  Hg57  1  0.00000000  0.25159700  0.72204100  1
  Hg  Hg58  1  0.50000000  0.62112100  0.78247900  1
  Hg  Hg59  1  0.00000000  0.43519300  0.78002100  1
