# generated using pymatgen
data_Nd5Mg52
_symmetry_space_group_name_H-M   'P 1'
_cell_length_a   7.85671621
_cell_length_b   7.85671567
_cell_length_c   41.09948400
_cell_angle_alpha   89.92797840
_cell_angle_beta   89.92797840
_cell_angle_gamma   81.81397999
_symmetry_Int_Tables_number   1
_chemical_formula_structural   Nd5Mg52
_chemical_formula_sum   'Nd5 Mg52'
_cell_volume   2511.13550420
_cell_formula_units_Z   1
loop_
 _symmetry_equiv_pos_site_id
 _symmetry_equiv_pos_as_xyz
  1  'x, y, z'
loop_
 _atom_site_type_symbol
 _atom_site_label
 _atom_site_symmetry_multiplicity
 _atom_site_fract_x
 _atom_site_fract_y
 _atom_site_fract_z
 _atom_site_occupancy
  Nd  Nd0  1  0.21409500  0.21409500  0.71153800  1
  Nd  Nd1  1  0.46409500  0.46409500  0.58653800  1
  Nd  Nd2  1  0.71409500  0.71409500  0.46153800  1
  Nd  Nd3  1  0.96409500  0.96409500  0.33653800  1
  Nd  Nd4  1  0.21409500  0.21409500  0.21153800  1
  Mg  Mg5  1  0.56603900  0.86215200  0.71153800  1
  Mg  Mg6  1  0.21409500  0.71409500  0.71153800  1
  Mg  Mg7  1  0.71409500  0.21409500  0.71153800  1
  Mg  Mg8  1  0.86215200  0.56603900  0.71153800  1
  Mg  Mg9  1  0.17952400  0.17952400  0.62244300  1
  Mg  Mg10  1  0.81603900  0.11215200  0.58653800  1
  Mg  Mg11  1  0.72805300  0.72805300  0.63053100  1
  Mg  Mg12  1  0.95013700  0.95013700  0.66754600  1
  Mg  Mg13  1  0.55185700  0.12633300  0.64903800  1
  Mg  Mg14  1  0.46409500  0.96409500  0.58653800  1
  Mg  Mg15  1  0.49866700  0.49866700  0.67563400  1
  Mg  Mg16  1  0.96409500  0.46409500  0.58653800  1
  Mg  Mg17  1  0.11215200  0.81603900  0.58653800  1
  Mg  Mg18  1  0.12633300  0.55185700  0.64903800  1
  Mg  Mg19  1  0.83909500  0.33909500  0.64903800  1
  Mg  Mg20  1  0.33909500  0.83909500  0.64903800  1
  Mg  Mg21  1  0.42952400  0.42952400  0.49744300  1
  Mg  Mg22  1  0.06603900  0.36215200  0.46153800  1
  Mg  Mg23  1  0.97805300  0.97805300  0.50553100  1
  Mg  Mg24  1  0.20013700  0.20013700  0.54254600  1
  Mg  Mg25  1  0.80185700  0.37633300  0.52403800  1
  Mg  Mg26  1  0.71409500  0.21409500  0.46153800  1
  Mg  Mg27  1  0.74866700  0.74866700  0.55063400  1
  Mg  Mg28  1  0.21409500  0.71409500  0.46153800  1
  Mg  Mg29  1  0.36215200  0.06603900  0.46153800  1
  Mg  Mg30  1  0.37633300  0.80185700  0.52403800  1
  Mg  Mg31  1  0.08909500  0.58909500  0.52403800  1
  Mg  Mg32  1  0.58909500  0.08909500  0.52403800  1
  Mg  Mg33  1  0.67952400  0.67952400  0.37244300  1
  Mg  Mg34  1  0.31603900  0.61215200  0.33653800  1
  Mg  Mg35  1  0.22805300  0.22805300  0.38053100  1
  Mg  Mg36  1  0.45013700  0.45013700  0.41754600  1
  Mg  Mg37  1  0.05185700  0.62633300  0.39903800  1
  Mg  Mg38  1  0.96409500  0.46409500  0.33653800  1
  Mg  Mg39  1  0.99866700  0.99866700  0.42563400  1
  Mg  Mg40  1  0.46409500  0.96409500  0.33653800  1
  Mg  Mg41  1  0.61215200  0.31603900  0.33653800  1
  Mg  Mg42  1  0.62633300  0.05185700  0.39903800  1
  Mg  Mg43  1  0.33909500  0.83909500  0.39903800  1
  Mg  Mg44  1  0.83909500  0.33909500  0.39903800  1
  Mg  Mg45  1  0.92952400  0.92952400  0.24744300  1
  Mg  Mg46  1  0.56603900  0.86215200  0.21153800  1
  Mg  Mg47  1  0.47805300  0.47805300  0.25553100  1
  Mg  Mg48  1  0.70013700  0.70013700  0.29254600  1
  Mg  Mg49  1  0.30185700  0.87633300  0.27403800  1
  Mg  Mg50  1  0.21409500  0.71409500  0.21153800  1
  Mg  Mg51  1  0.24866700  0.24866700  0.30063400  1
  Mg  Mg52  1  0.71409500  0.21409500  0.21153800  1
  Mg  Mg53  1  0.86215200  0.56603900  0.21153800  1
  Mg  Mg54  1  0.87633300  0.30185700  0.27403800  1
  Mg  Mg55  1  0.58909500  0.08909500  0.27403800  1
  Mg  Mg56  1  0.08909500  0.58909500  0.27403800  1
