# generated using pymatgen
data_Mg64Si37
_symmetry_space_group_name_H-M   'P 1'
_cell_length_a   12.41651900
_cell_length_b   14.27249660
_cell_length_c   44.74766500
_cell_angle_alpha   90.16648621
_cell_angle_beta   90.00000000
_cell_angle_gamma   64.21593671
_symmetry_Int_Tables_number   1
_chemical_formula_structural   Mg64Si37
_chemical_formula_sum   'Mg128 Si74'
_cell_volume   7140.40101402
_cell_formula_units_Z   2
loop_
 _symmetry_equiv_pos_site_id
 _symmetry_equiv_pos_as_xyz
  1  'x, y, z'
loop_
 _atom_site_type_symbol
 _atom_site_label
 _atom_site_symmetry_multiplicity
 _atom_site_fract_x
 _atom_site_fract_y
 _atom_site_fract_z
 _atom_site_occupancy
  Mg  Mg0  1  0.97208600  0.51075000  0.26658100  1
  Mg  Mg1  1  0.22851800  0.35601800  0.25539700  1
  Mg  Mg2  1  0.29404500  0.95123200  0.32609900  1
  Mg  Mg3  1  0.88397300  0.45044200  0.32688800  1
  Mg  Mg4  1  0.51054700  0.43382600  0.34350400  1
  Mg  Mg5  1  0.92117200  0.97070900  0.30662200  1
  Mg  Mg6  1  0.54774700  0.95409300  0.32323700  1
  Mg  Mg7  1  0.13767500  0.45330300  0.32402700  1
  Mg  Mg8  1  0.44502000  0.83861300  0.27280300  1
  Mg  Mg9  1  0.85509200  0.33940200  0.27201300  1
  Mg  Mg10  1  0.76697900  0.27909500  0.33232000  1
  Mg  Mg11  1  0.81789300  0.81913600  0.29228000  1
  Mg  Mg12  1  0.19131800  0.83575100  0.27566400  1
  Mg  Mg13  1  0.60139000  0.33654100  0.27487400  1
  Mg  Mg14  1  0.41939800  0.64119800  0.30317500  1
  Mg  Mg15  1  0.03564700  0.13490700  0.30946600  1
  Mg  Mg16  1  0.63790000  0.13198200  0.31239100  1
  Mg  Mg17  1  0.10116500  0.65786200  0.28651100  1
  Mg  Mg18  1  0.70341800  0.65493700  0.28943500  1
  Mg  Mg19  1  0.31966600  0.14864700  0.29572600  1
  Mg  Mg20  1  0.83250600  0.87430900  0.40302200  1
  Mg  Mg21  1  0.42243400  0.37351900  0.40381100  1
  Mg  Mg22  1  0.04900900  0.35690300  0.42042700  1
  Mg  Mg23  1  0.45963400  0.89378600  0.38354500  1
  Mg  Mg24  1  0.08620800  0.87717000  0.40016000  1
  Mg  Mg25  1  0.67613600  0.37638000  0.40095000  1
  Mg  Mg26  1  0.98348200  0.76168900  0.34972600  1
  Mg  Mg27  1  0.39355400  0.26247900  0.34893600  1
  Mg  Mg28  1  0.30544100  0.20217200  0.40924300  1
  Mg  Mg29  1  0.35635400  0.74221200  0.36920300  1
  Mg  Mg30  1  0.72978000  0.75882800  0.35258700  1
  Mg  Mg31  1  0.13985200  0.25961800  0.35179700  1
  Mg  Mg32  1  0.95786000  0.56427500  0.38009800  1
  Mg  Mg33  1  0.57410800  0.05798400  0.38638900  1
  Mg  Mg34  1  0.17636100  0.05505900  0.38931400  1
  Mg  Mg35  1  0.63962700  0.58093900  0.36343400  1
  Mg  Mg36  1  0.24188000  0.57801400  0.36635800  1
  Mg  Mg37  1  0.85812800  0.07172300  0.37264900  1
  Mg  Mg38  1  0.37096800  0.79738500  0.47994500  1
  Mg  Mg39  1  0.96089600  0.29659600  0.48073400  1
  Mg  Mg40  1  0.58747000  0.27998000  0.49735000  1
  Mg  Mg41  1  0.99809500  0.81686200  0.46046800  1
  Mg  Mg42  1  0.62467000  0.80024700  0.47708300  1
  Mg  Mg43  1  0.21459800  0.29945700  0.47787300  1
  Mg  Mg44  1  0.52194300  0.68476600  0.42664900  1
  Mg  Mg45  1  0.93201500  0.18555600  0.42585900  1
  Mg  Mg46  1  0.84390200  0.12524800  0.48616700  1
  Mg  Mg47  1  0.89481600  0.66528900  0.44612600  1
  Mg  Mg48  1  0.26824100  0.68190500  0.42951000  1
  Mg  Mg49  1  0.67831300  0.18269500  0.42872000  1
  Mg  Mg50  1  0.49632200  0.48735100  0.45702100  1
  Mg  Mg51  1  0.11257000  0.98106100  0.46331200  1
  Mg  Mg52  1  0.71482300  0.97813600  0.46623700  1
  Mg  Mg53  1  0.17808800  0.50401600  0.44035700  1
  Mg  Mg54  1  0.78034100  0.50109100  0.44328100  1
  Mg  Mg55  1  0.39659000  0.99480000  0.44957200  1
  Mg  Mg56  1  0.90942900  0.72046200  0.55686800  1
  Mg  Mg57  1  0.49935700  0.21967300  0.55765700  1
  Mg  Mg58  1  0.12593200  0.20305700  0.57427300  1
  Mg  Mg59  1  0.53655700  0.73993900  0.53739100  1
  Mg  Mg60  1  0.16313100  0.72332400  0.55400600  1
  Mg  Mg61  1  0.75305900  0.22253400  0.55479600  1
  Mg  Mg62  1  0.06040500  0.60784300  0.50357200  1
  Mg  Mg63  1  0.47047700  0.10863300  0.50278200  1
  Mg  Mg64  1  0.38236400  0.04832500  0.56309000  1
  Mg  Mg65  1  0.43327700  0.58836600  0.52304900  1
  Mg  Mg66  1  0.80670300  0.60498200  0.50643300  1
  Mg  Mg67  1  0.21677500  0.10577100  0.50564400  1
  Mg  Mg68  1  0.03478300  0.41042800  0.53394400  1
  Mg  Mg69  1  0.65103100  0.90413800  0.54023500  1
  Mg  Mg70  1  0.25328400  0.90121300  0.54316000  1
  Mg  Mg71  1  0.71655000  0.42709300  0.51728000  1
  Mg  Mg72  1  0.31880300  0.42416800  0.52020500  1
  Mg  Mg73  1  0.93505100  0.91787700  0.52649500  1
  Mg  Mg74  1  0.44789100  0.64353900  0.63379100  1
  Mg  Mg75  1  0.03781900  0.14275000  0.63458100  1
  Mg  Mg76  1  0.66439300  0.12613400  0.65119600  1
  Mg  Mg77  1  0.07501800  0.66301600  0.61431400  1
  Mg  Mg78  1  0.70159300  0.64640100  0.63092900  1
  Mg  Mg79  1  0.29152100  0.14561100  0.63171900  1
  Mg  Mg80  1  0.59886600  0.53092000  0.58049500  1
  Mg  Mg81  1  0.00893800  0.03171000  0.57970500  1
  Mg  Mg82  1  0.92082500  0.97140200  0.64001300  1
  Mg  Mg83  1  0.97173900  0.51144300  0.59997200  1
  Mg  Mg84  1  0.34516400  0.52805900  0.58335600  1
  Mg  Mg85  1  0.75523600  0.02884800  0.58256700  1
  Mg  Mg86  1  0.57324500  0.33350500  0.61086700  1
  Mg  Mg87  1  0.18949300  0.82721500  0.61715800  1
  Mg  Mg88  1  0.79174600  0.82429000  0.62008300  1
  Mg  Mg89  1  0.25501100  0.35017000  0.59420300  1
  Mg  Mg90  1  0.85726500  0.34724500  0.59712800  1
  Mg  Mg91  1  0.47351300  0.84095400  0.60341800  1
  Mg  Mg92  1  0.98635200  0.56661600  0.71071400  1
  Mg  Mg93  1  0.57628000  0.06582700  0.71150400  1
  Mg  Mg94  1  0.20285500  0.04921100  0.72811900  1
  Mg  Mg95  1  0.61348000  0.58609300  0.69123700  1
  Mg  Mg96  1  0.24005400  0.56947800  0.70785300  1
  Mg  Mg97  1  0.82998200  0.06868800  0.70864200  1
  Mg  Mg98  1  0.13732800  0.45399700  0.65741800  1
  Mg  Mg99  1  0.54740000  0.95478700  0.65662800  1
  Mg  Mg100  1  0.45928700  0.89447900  0.71693600  1
  Mg  Mg101  1  0.51020000  0.43452000  0.67689500  1
  Mg  Mg102  1  0.88362600  0.45113600  0.66027900  1
  Mg  Mg103  1  0.29369800  0.95192500  0.65949000  1
  Mg  Mg104  1  0.11170600  0.25658200  0.68779000  1
  Mg  Mg105  1  0.72795400  0.75029100  0.69408100  1
  Mg  Mg106  1  0.33020700  0.74736700  0.69700600  1
  Mg  Mg107  1  0.79347300  0.27324700  0.67112600  1
  Mg  Mg108  1  0.39572600  0.27032200  0.67405100  1
  Mg  Mg109  1  0.01197400  0.76403100  0.68034100  1
  Mg  Mg110  1  0.52481400  0.48969300  0.78763700  1
  Mg  Mg111  1  0.11474200  0.98890400  0.78842700  1
  Mg  Mg112  1  0.74131600  0.97228800  0.80504200  1
  Mg  Mg113  1  0.15194200  0.50917000  0.76816000  1
  Mg  Mg114  1  0.77851600  0.49255500  0.78477600  1
  Mg  Mg115  1  0.36844400  0.99176500  0.78556500  1
  Mg  Mg116  1  0.67578900  0.37707400  0.73434100  1
  Mg  Mg117  1  0.08586100  0.87786400  0.73355100  1
  Mg  Mg118  1  0.99774900  0.81755600  0.79385900  1
  Mg  Mg119  1  0.04866200  0.35759700  0.75381800  1
  Mg  Mg120  1  0.42208700  0.37421300  0.73720200  1
  Mg  Mg121  1  0.83215900  0.87500200  0.73641300  1
  Mg  Mg122  1  0.65016800  0.17965900  0.76471300  1
  Mg  Mg123  1  0.26641600  0.67336800  0.77100400  1
  Mg  Mg124  1  0.86866900  0.67044400  0.77392900  1
  Mg  Mg125  1  0.33193400  0.19632400  0.74804900  1
  Mg  Mg126  1  0.93418800  0.19339900  0.75097400  1
  Mg  Mg127  1  0.55043600  0.68710800  0.75726500  1
  Si  Si128  1  0.64657500  0.84083700  0.25327700  1
  Si  Si129  1  0.55402900  0.02593000  0.26870100  1
  Si  Si130  1  0.22660000  0.01412100  0.26771700  1
  Si  Si131  1  0.97400300  0.85264700  0.25426100  1
  Si  Si132  1  0.18503600  0.76391400  0.33020000  1
  Si  Si133  1  0.41580600  0.30237600  0.29173800  1
  Si  Si134  1  0.09249000  0.94900700  0.34562400  1
  Si  Si135  1  0.32325900  0.48746800  0.30716300  1
  Si  Si136  1  0.92081500  0.62569100  0.31868100  1
  Si  Si137  1  0.81825000  0.16415300  0.28022000  1
  Si  Si138  1  0.66249700  0.47565900  0.30617900  1
  Si  Si139  1  0.76506100  0.93719700  0.34464000  1
  Si  Si140  1  0.07656800  0.31418500  0.29272200  1
  Si  Si141  1  0.51246500  0.77572400  0.33118400  1
  Si  Si142  1  0.72349800  0.68699100  0.40712300  1
  Si  Si143  1  0.95426700  0.22545300  0.36866100  1
  Si  Si144  1  0.63095200  0.87208400  0.42254700  1
  Si  Si145  1  0.86172100  0.41054500  0.38408600  1
  Si  Si146  1  0.45927600  0.54876800  0.39560400  1
  Si  Si147  1  0.35671200  0.08723000  0.35714300  1
  Si  Si148  1  0.20095900  0.39873600  0.38310200  1
  Si  Si149  1  0.30352300  0.86027400  0.42156300  1
  Si  Si150  1  0.61502900  0.23726200  0.36964600  1
  Si  Si151  1  0.05092700  0.69880100  0.40810700  1
  Si  Si152  1  0.26195900  0.61006800  0.48404600  1
  Si  Si153  1  0.49272900  0.14853000  0.44558500  1
  Si  Si154  1  0.16941300  0.79516100  0.49947000  1
  Si  Si155  1  0.40018200  0.33362200  0.46100900  1
  Si  Si156  1  0.99773800  0.47184500  0.47252700  1
  Si  Si157  1  0.89517300  0.01030700  0.43406600  1
  Si  Si158  1  0.73942000  0.32181300  0.46002500  1
  Si  Si159  1  0.84198500  0.78335100  0.49848600  1
  Si  Si160  1  0.15349100  0.16033900  0.44656900  1
  Si  Si161  1  0.58938800  0.62187700  0.48503000  1
  Si  Si162  1  0.80042100  0.53314500  0.56096900  1
  Si  Si163  1  0.03119000  0.07160700  0.52250800  1
  Si  Si164  1  0.70787500  0.71823800  0.57639400  1
  Si  Si165  1  0.93864400  0.25669900  0.53793200  1
  Si  Si166  1  0.53619900  0.39492200  0.54945100  1
  Si  Si167  1  0.43363500  0.93338400  0.51098900  1
  Si  Si168  1  0.27788200  0.24489000  0.53694800  1
  Si  Si169  1  0.38044600  0.70642800  0.57540900  1
  Si  Si170  1  0.69195200  0.08341600  0.52349200  1
  Si  Si171  1  0.12785000  0.54495400  0.56195300  1
  Si  Si172  1  0.33888300  0.45622200  0.63789200  1
  Si  Si173  1  0.56965200  0.99468300  0.59943100  1
  Si  Si174  1  0.24633600  0.64131500  0.65331700  1
  Si  Si175  1  0.47710500  0.17977600  0.61485500  1
  Si  Si176  1  0.07466100  0.31799900  0.62637400  1
  Si  Si177  1  0.97209700  0.85646100  0.58791200  1
  Si  Si178  1  0.81634300  0.16796700  0.61387100  1
  Si  Si179  1  0.91890800  0.62950500  0.65233200  1
  Si  Si180  1  0.23041400  0.00649300  0.60041500  1
  Si  Si181  1  0.66631100  0.46803100  0.63887600  1
  Si  Si182  1  0.87734400  0.37929900  0.71481500  1
  Si  Si183  1  0.10811300  0.91776000  0.67635400  1
  Si  Si184  1  0.78479800  0.56439100  0.73024000  1
  Si  Si185  1  0.01556700  0.10285300  0.69177800  1
  Si  Si186  1  0.61312200  0.24107600  0.70329700  1
  Si  Si187  1  0.51055800  0.77953700  0.66483500  1
  Si  Si188  1  0.35480500  0.09104400  0.69079400  1
  Si  Si189  1  0.45736900  0.55258200  0.72925600  1
  Si  Si190  1  0.76887500  0.92957000  0.67733800  1
  Si  Si191  1  0.20477300  0.39110800  0.71579900  1
  Si  Si192  1  0.41580600  0.30237600  0.79173800  1
  Si  Si193  1  0.64657500  0.84083700  0.75327700  1
  Si  Si194  1  0.32325900  0.48746800  0.80716300  1
  Si  Si195  1  0.55402900  0.02593000  0.76870100  1
  Si  Si196  1  0.15158400  0.16415300  0.78022000  1
  Si  Si197  1  0.04902000  0.70261400  0.74175800  1
  Si  Si198  1  0.89326700  0.01412100  0.76771700  1
  Si  Si199  1  0.99583100  0.47565900  0.80617900  1
  Si  Si200  1  0.30733700  0.85264700  0.75426100  1
  Si  Si201  1  0.74323400  0.31418500  0.79272200  1
