# generated using pymatgen
data_Mg44Co87
_symmetry_space_group_name_H-M   'P 1'
_cell_length_a   8.36279800
_cell_length_b   9.24833153
_cell_length_c   41.72354900
_cell_angle_alpha   85.36367228
_cell_angle_beta   90.00000000
_cell_angle_gamma   63.11991639
_symmetry_Int_Tables_number   1
_chemical_formula_structural   Mg44Co87
_chemical_formula_sum   'Mg44 Co87'
_cell_volume   2866.47659142
_cell_formula_units_Z   1
loop_
 _symmetry_equiv_pos_site_id
 _symmetry_equiv_pos_as_xyz
  1  'x, y, z'
loop_
 _atom_site_type_symbol
 _atom_site_label
 _atom_site_symmetry_multiplicity
 _atom_site_fract_x
 _atom_site_fract_y
 _atom_site_fract_z
 _atom_site_occupancy
  Mg  Mg0  1  0.09705600  0.50418000  0.22342100  1
  Mg  Mg1  1  0.93105500  0.83618100  0.24417100  1
  Mg  Mg2  1  0.65261100  0.05973500  0.19564300  1
  Mg  Mg3  1  0.48661100  0.39173700  0.21639400  1
  Mg  Mg4  1  0.65261100  0.39306900  0.27897700  1
  Mg  Mg5  1  0.48661100  0.72507000  0.29972700  1
  Mg  Mg6  1  0.20816700  0.94862400  0.25119900  1
  Mg  Mg7  1  0.04216600  0.28062600  0.27194900  1
  Mg  Mg8  1  0.20816700  0.28195700  0.33453200  1
  Mg  Mg9  1  0.04216600  0.61395900  0.35528200  1
  Mg  Mg10  1  0.76372200  0.83751300  0.30675500  1
  Mg  Mg11  1  0.59772200  0.16951500  0.32750500  1
  Mg  Mg12  1  0.76372200  0.17084600  0.39008800  1
  Mg  Mg13  1  0.59772200  0.50284800  0.41083800  1
  Mg  Mg14  1  0.31927800  0.72640200  0.36231000  1
  Mg  Mg15  1  0.15327700  0.05840400  0.38306000  1
  Mg  Mg16  1  0.31927800  0.05973500  0.44564300  1
  Mg  Mg17  1  0.15327700  0.39173700  0.46639400  1
  Mg  Mg18  1  0.87483400  0.61529100  0.41786600  1
  Mg  Mg19  1  0.70883300  0.94729200  0.43861600  1
  Mg  Mg20  1  0.87483400  0.94862400  0.50119900  1
  Mg  Mg21  1  0.70883300  0.28062600  0.52194900  1
  Mg  Mg22  1  0.43038900  0.50418000  0.47342100  1
  Mg  Mg23  1  0.26438800  0.83618100  0.49417100  1
  Mg  Mg24  1  0.43038900  0.83751300  0.55675500  1
  Mg  Mg25  1  0.26438800  0.16951500  0.57750500  1
  Mg  Mg26  1  0.98594500  0.39306900  0.52897700  1
  Mg  Mg27  1  0.81994400  0.72507000  0.54972700  1
  Mg  Mg28  1  0.98594500  0.72640200  0.61231000  1
  Mg  Mg29  1  0.81994400  0.05840400  0.63306000  1
  Mg  Mg30  1  0.54150000  0.28195700  0.58453200  1
  Mg  Mg31  1  0.37549900  0.61395900  0.60528200  1
  Mg  Mg32  1  0.54150000  0.61529100  0.66786600  1
  Mg  Mg33  1  0.37549900  0.94729200  0.68861600  1
  Mg  Mg34  1  0.09705600  0.17084600  0.64008800  1
  Mg  Mg35  1  0.93105500  0.50284800  0.66083800  1
  Mg  Mg36  1  0.09705600  0.50418000  0.72342100  1
  Mg  Mg37  1  0.93105500  0.83618100  0.74417100  1
  Mg  Mg38  1  0.65261100  0.05973500  0.69564300  1
  Mg  Mg39  1  0.48661100  0.39173700  0.71639400  1
  Mg  Mg40  1  0.65261100  0.39306900  0.77897700  1
  Mg  Mg41  1  0.48661100  0.72507000  0.79972700  1
  Mg  Mg42  1  0.20816700  0.94862400  0.75119900  1
  Mg  Mg43  1  0.04216600  0.28062600  0.77194900  1
  Co  Co44  1  0.79183300  0.44795800  0.21990700  1
  Co  Co45  1  0.51011400  0.67018100  0.23379600  1
  Co  Co46  1  0.23890500  0.72442200  0.20667500  1
  Co  Co47  1  0.73759100  0.72705000  0.20536200  1
  Co  Co48  1  0.56961100  0.89240300  0.24768500  1
  Co  Co49  1  0.84607500  0.16886700  0.23445300  1
  Co  Co50  1  0.34476100  0.17149400  0.23313900  1
  Co  Co51  1  0.07355200  0.22573600  0.20601900  1
  Co  Co52  1  0.34738900  0.33684700  0.27546300  1
  Co  Co53  1  0.06567000  0.55906900  0.28935200  1
  Co  Co54  1  0.79446000  0.61331100  0.26223100  1
  Co  Co55  1  0.29314700  0.61593900  0.26091700  1
  Co  Co56  1  0.12516600  0.78129200  0.30324100  1
  Co  Co57  1  0.40163100  0.05775600  0.29000900  1
  Co  Co58  1  0.90031700  0.06038300  0.28869500  1
  Co  Co59  1  0.62910700  0.11462500  0.26157400  1
  Co  Co60  1  0.90294400  0.22573600  0.33101900  1
  Co  Co61  1  0.62122500  0.44795800  0.34490700  1
  Co  Co62  1  0.35001600  0.50220000  0.31778600  1
  Co  Co63  1  0.84870200  0.50482800  0.31647300  1
  Co  Co64  1  0.68072200  0.67018100  0.35879600  1
  Co  Co65  1  0.95718600  0.94664500  0.34556400  1
  Co  Co66  1  0.45587200  0.94927200  0.34425100  1
  Co  Co67  1  0.18466300  0.00351400  0.31713000  1
  Co  Co68  1  0.45850000  0.11462500  0.38657400  1
  Co  Co69  1  0.17678100  0.33684700  0.40046300  1
  Co  Co70  1  0.90557200  0.39108900  0.37334200  1
  Co  Co71  1  0.40425800  0.39371600  0.37202800  1
  Co  Co72  1  0.23627800  0.55906900  0.41435200  1
  Co  Co73  1  0.51274200  0.83553300  0.40112000  1
  Co  Co74  1  0.01142800  0.83816100  0.39980600  1
  Co  Co75  1  0.74021900  0.89240300  0.37268500  1
  Co  Co76  1  0.01405500  0.00351400  0.44213000  1
  Co  Co77  1  0.73233700  0.22573600  0.45601900  1
  Co  Co78  1  0.46112700  0.27997800  0.42889800  1
  Co  Co79  1  0.95981300  0.28260500  0.42758400  1
  Co  Co80  1  0.79183300  0.44795800  0.46990700  1
  Co  Co81  1  0.06829700  0.72442200  0.45667500  1
  Co  Co82  1  0.56698400  0.72705000  0.45536200  1
  Co  Co83  1  0.29577400  0.78129200  0.42824100  1
  Co  Co84  1  0.56961100  0.89240300  0.49768500  1
  Co  Co85  1  0.28789200  0.11462500  0.51157400  1
  Co  Co86  1  0.01668300  0.16886700  0.48445300  1
  Co  Co87  1  0.51536900  0.17149400  0.48313900  1
  Co  Co88  1  0.34738900  0.33684700  0.52546300  1
  Co  Co89  1  0.62385300  0.61331100  0.51223100  1
  Co  Co90  1  0.12253900  0.61593900  0.51091700  1
  Co  Co91  1  0.85133000  0.67018100  0.48379600  1
  Co  Co92  1  0.12516600  0.78129200  0.55324100  1
  Co  Co93  1  0.84344800  0.00351400  0.56713000  1
  Co  Co94  1  0.57223800  0.05775600  0.54000900  1
  Co  Co95  1  0.07092500  0.06038300  0.53869500  1
  Co  Co96  1  0.90294400  0.22573600  0.58101900  1
  Co  Co97  1  0.17940800  0.50220000  0.56778600  1
  Co  Co98  1  0.67809500  0.50482800  0.56647300  1
  Co  Co99  1  0.40688500  0.55906900  0.53935200  1
  Co  Co100  1  0.68072200  0.67018100  0.60879600  1
  Co  Co101  1  0.39900300  0.89240300  0.62268500  1
  Co  Co102  1  0.12779400  0.94664500  0.59556400  1
  Co  Co103  1  0.62648000  0.94927200  0.59425100  1
  Co  Co104  1  0.45850000  0.11462500  0.63657400  1
  Co  Co105  1  0.73496400  0.39108900  0.62334200  1
  Co  Co106  1  0.23365000  0.39371600  0.62202800  1
  Co  Co107  1  0.96244100  0.44795800  0.59490700  1
  Co  Co108  1  0.23627800  0.55906900  0.66435200  1
  Co  Co109  1  0.95455900  0.78129200  0.67824100  1
  Co  Co110  1  0.68334900  0.83553300  0.65112000  1
  Co  Co111  1  0.18203600  0.83816100  0.64980600  1
  Co  Co112  1  0.01405500  0.00351400  0.69213000  1
  Co  Co113  1  0.29051900  0.27997800  0.67889800  1
  Co  Co114  1  0.78920600  0.28260500  0.67758400  1
  Co  Co115  1  0.51799600  0.33684700  0.65046300  1
  Co  Co116  1  0.79183300  0.44795800  0.71990700  1
  Co  Co117  1  0.51011400  0.67018100  0.73379600  1
  Co  Co118  1  0.23890500  0.72442200  0.70667500  1
  Co  Co119  1  0.73759100  0.72705000  0.70536200  1
  Co  Co120  1  0.56961100  0.89240300  0.74768500  1
  Co  Co121  1  0.84607500  0.16886700  0.73445300  1
  Co  Co122  1  0.34476100  0.17149400  0.73313900  1
  Co  Co123  1  0.07355200  0.22573600  0.70601900  1
  Co  Co124  1  0.34738900  0.33684700  0.77546300  1
  Co  Co125  1  0.06567000  0.55906900  0.78935200  1
  Co  Co126  1  0.79446000  0.61331100  0.76223100  1
  Co  Co127  1  0.29314700  0.61593900  0.76091700  1
  Co  Co128  1  0.40163100  0.05775600  0.79000900  1
  Co  Co129  1  0.90031700  0.06038300  0.78869500  1
  Co  Co130  1  0.62910700  0.11462500  0.76157400  1
