# generated using pymatgen
data_Mg2Ge
_symmetry_space_group_name_H-M   'P 1'
_cell_length_a   4.53959700
_cell_length_b   4.53959697
_cell_length_c   44.47878600
_cell_angle_alpha   90.00000000
_cell_angle_beta   90.00000000
_cell_angle_gamma   120.00000752
_symmetry_Int_Tables_number   1
_chemical_formula_structural   Mg2Ge
_chemical_formula_sum   'Mg14 Ge7'
_cell_volume   793.81284408
_cell_formula_units_Z   7
loop_
 _symmetry_equiv_pos_site_id
 _symmetry_equiv_pos_as_xyz
  1  'x, y, z'
loop_
 _atom_site_type_symbol
 _atom_site_label
 _atom_site_symmetry_multiplicity
 _atom_site_fract_x
 _atom_site_fract_y
 _atom_site_fract_z
 _atom_site_occupancy
  Mg  Mg0  1  1.00000000  1.00000000  0.27083300  1
  Mg  Mg1  1  0.33333300  0.66666700  0.22916700  1
  Mg  Mg2  1  0.33333300  0.66666700  0.35416700  1
  Mg  Mg3  1  0.66666700  0.33333300  0.31250000  1
  Mg  Mg4  1  0.66666700  0.33333300  0.43750000  1
  Mg  Mg5  1  1.00000000  1.00000000  0.39583300  1
  Mg  Mg6  1  0.00000000  0.00000000  0.52083300  1
  Mg  Mg7  1  0.33333300  0.66666700  0.47916700  1
  Mg  Mg8  1  0.33333300  0.66666700  0.60416700  1
  Mg  Mg9  1  0.66666700  0.33333300  0.56250000  1
  Mg  Mg10  1  0.66666700  0.33333300  0.68750000  1
  Mg  Mg11  1  0.00000000  0.00000000  0.64583300  1
  Mg  Mg12  1  0.00000000  1.00000000  0.77083300  1
  Mg  Mg13  1  0.33333300  0.66666700  0.72916700  1
  Ge  Ge14  1  0.66666700  0.33333300  0.25000000  1
  Ge  Ge15  1  0.00000000  0.00000000  0.33333300  1
  Ge  Ge16  1  0.33333300  0.66666700  0.41666700  1
  Ge  Ge17  1  0.66666700  0.33333300  0.50000000  1
  Ge  Ge18  1  0.00000000  0.00000000  0.58333300  1
  Ge  Ge19  1  0.33333300  0.66666700  0.66666700  1
  Ge  Ge20  1  0.66666700  0.33333300  0.75000000  1
