# generated using pymatgen
data_Mg7Cd23
_symmetry_space_group_name_H-M   'P 1'
_cell_length_a   5.12145700
_cell_length_b   10.91181880
_cell_length_c   41.31147700
_cell_angle_alpha   82.41091113
_cell_angle_beta   90.00000000
_cell_angle_gamma   90.00000000
_symmetry_Int_Tables_number   1
_chemical_formula_structural   Mg7Cd23
_chemical_formula_sum   'Mg14 Cd46'
_cell_volume   2288.44525873
_cell_formula_units_Z   2
loop_
 _symmetry_equiv_pos_site_id
 _symmetry_equiv_pos_as_xyz
  1  'x, y, z'
loop_
 _atom_site_type_symbol
 _atom_site_label
 _atom_site_symmetry_multiplicity
 _atom_site_fract_x
 _atom_site_fract_y
 _atom_site_fract_z
 _atom_site_occupancy
  Mg  Mg0  1  0.75000000  0.92966000  0.25000000  1
  Mg  Mg1  1  0.25000000  0.26299400  0.25000000  1
  Mg  Mg2  1  0.75000000  0.39119900  0.32692300  1
  Mg  Mg3  1  0.25000000  0.72453200  0.32692300  1
  Mg  Mg4  1  0.75000000  0.85273700  0.40384600  1
  Mg  Mg5  1  0.25000000  0.18607100  0.40384600  1
  Mg  Mg6  1  0.75000000  0.31427600  0.48076900  1
  Mg  Mg7  1  0.25000000  0.64760900  0.48076900  1
  Mg  Mg8  1  0.75000000  0.77581400  0.55769200  1
  Mg  Mg9  1  0.25000000  0.10914800  0.55769200  1
  Mg  Mg10  1  0.75000000  0.23735300  0.63461500  1
  Mg  Mg11  1  0.25000000  0.57068600  0.63461500  1
  Mg  Mg12  1  0.75000000  0.69889100  0.71153800  1
  Mg  Mg13  1  0.25000000  0.03222500  0.71153800  1
  Cd  Cd14  1  0.75000000  0.42944600  0.25000000  1
  Cd  Cd15  1  0.25000000  0.76320800  0.25000000  1
  Cd  Cd16  1  0.25000000  0.53214200  0.21148900  1
  Cd  Cd17  1  0.75000000  0.69902300  0.21148900  1
  Cd  Cd18  1  0.75000000  0.19897400  0.21158800  1
  Cd  Cd19  1  0.25000000  0.03209300  0.21158800  1
  Cd  Cd20  1  0.75000000  0.89098400  0.32692300  1
  Cd  Cd21  1  0.25000000  0.22474700  0.32692300  1
  Cd  Cd22  1  0.25000000  0.99368100  0.28841200  1
  Cd  Cd23  1  0.75000000  0.16056200  0.28841200  1
  Cd  Cd24  1  0.75000000  0.66051200  0.28851100  1
  Cd  Cd25  1  0.25000000  0.49363100  0.28851100  1
  Cd  Cd26  1  0.75000000  0.35252300  0.40384600  1
  Cd  Cd27  1  0.25000000  0.68628500  0.40384600  1
  Cd  Cd28  1  0.25000000  0.45521900  0.36533500  1
  Cd  Cd29  1  0.75000000  0.62210000  0.36533500  1
  Cd  Cd30  1  0.75000000  0.12205100  0.36543400  1
  Cd  Cd31  1  0.25000000  0.95516900  0.36543400  1
  Cd  Cd32  1  0.75000000  0.81406100  0.48076900  1
  Cd  Cd33  1  0.25000000  0.14782400  0.48076900  1
  Cd  Cd34  1  0.25000000  0.91675700  0.44225800  1
  Cd  Cd35  1  0.75000000  0.08363900  0.44225800  1
  Cd  Cd36  1  0.75000000  0.58358900  0.44235700  1
  Cd  Cd37  1  0.25000000  0.41670800  0.44235700  1
  Cd  Cd38  1  0.75000000  0.27560000  0.55769200  1
  Cd  Cd39  1  0.25000000  0.60936200  0.55769200  1
  Cd  Cd40  1  0.25000000  0.37829600  0.51918100  1
  Cd  Cd41  1  0.75000000  0.54517700  0.51918100  1
  Cd  Cd42  1  0.75000000  0.04512800  0.51928000  1
  Cd  Cd43  1  0.25000000  0.87824600  0.51928000  1
  Cd  Cd44  1  0.75000000  0.73713800  0.63461500  1
  Cd  Cd45  1  0.25000000  0.07090100  0.63461500  1
  Cd  Cd46  1  0.25000000  0.83983400  0.59610400  1
  Cd  Cd47  1  0.75000000  0.00671600  0.59610400  1
  Cd  Cd48  1  0.75000000  0.50666600  0.59620300  1
  Cd  Cd49  1  0.25000000  0.33978500  0.59620300  1
  Cd  Cd50  1  0.75000000  0.19867700  0.71153800  1
  Cd  Cd51  1  0.25000000  0.53243900  0.71153800  1
  Cd  Cd52  1  0.25000000  0.30137300  0.67302700  1
  Cd  Cd53  1  0.75000000  0.46825400  0.67302700  1
  Cd  Cd54  1  0.75000000  0.96820500  0.67312600  1
  Cd  Cd55  1  0.25000000  0.80132300  0.67312600  1
  Cd  Cd56  1  0.25000000  0.76291100  0.74995000  1
  Cd  Cd57  1  0.75000000  0.92979300  0.74995000  1
  Cd  Cd58  1  0.75000000  0.42974300  0.75005000  1
  Cd  Cd59  1  0.25000000  0.26286200  0.75005000  1
