# generated using pymatgen
data_Mg7Be93
_symmetry_space_group_name_H-M   'P 1'
_cell_length_a   7.13400300
_cell_length_b   10.08900300
_cell_length_c   49.93801900
_cell_angle_alpha   90.00000000
_cell_angle_beta   90.00000000
_cell_angle_gamma   90.00000000
_symmetry_Int_Tables_number   1
_chemical_formula_structural   Mg7Be93
_chemical_formula_sum   'Mg14 Be186'
_cell_volume   3594.28780236
_cell_formula_units_Z   2
loop_
 _symmetry_equiv_pos_site_id
 _symmetry_equiv_pos_as_xyz
  1  'x, y, z'
loop_
 _atom_site_type_symbol
 _atom_site_label
 _atom_site_symmetry_multiplicity
 _atom_site_fract_x
 _atom_site_fract_y
 _atom_site_fract_z
 _atom_site_occupancy
  Mg  Mg0  1  0.59493800  0.25000000  0.25510200  1
  Mg  Mg1  1  0.09493800  0.25000000  0.32653100  1
  Mg  Mg2  1  0.09493800  0.75000000  0.32653100  1
  Mg  Mg3  1  0.59493800  0.75000000  0.25510200  1
  Mg  Mg4  1  0.59493800  0.25000000  0.39795900  1
  Mg  Mg5  1  0.09493800  0.25000000  0.46938800  1
  Mg  Mg6  1  0.09493800  0.75000000  0.46938800  1
  Mg  Mg7  1  0.59493800  0.75000000  0.39795900  1
  Mg  Mg8  1  0.59493800  0.25000000  0.54081600  1
  Mg  Mg9  1  0.09493800  0.25000000  0.61224500  1
  Mg  Mg10  1  0.09493800  0.75000000  0.61224500  1
  Mg  Mg11  1  0.59493800  0.75000000  0.54081600  1
  Mg  Mg12  1  0.59493800  0.25000000  0.68367300  1
  Mg  Mg13  1  0.59493800  0.75000000  0.68367300  1
  Be  Be14  1  0.09493800  0.00000000  0.25510200  1
  Be  Be15  1  0.59493800  0.00000000  0.32653100  1
  Be  Be16  1  0.02949900  0.00000000  0.21359000  1
  Be  Be17  1  0.91692800  0.38742900  0.22967200  1
  Be  Be18  1  0.41692800  0.11257100  0.30110100  1
  Be  Be19  1  0.88552000  0.00000000  0.31718200  1
  Be  Be20  1  0.30435700  0.00000000  0.33587900  1
  Be  Be21  1  0.20750900  0.32199000  0.23902000  1
  Be  Be22  1  0.70750900  0.17801000  0.31044900  1
  Be  Be23  1  0.77294900  0.38742900  0.30110100  1
  Be  Be24  1  0.48236800  0.32199000  0.31044900  1
  Be  Be25  1  0.70750900  0.32199000  0.34261200  1
  Be  Be26  1  0.91692800  0.11257100  0.28053200  1
  Be  Be27  1  0.41692800  0.38742900  0.35196100  1
  Be  Be28  1  0.20750900  0.17801000  0.27118400  1
  Be  Be29  1  0.27294900  0.11257100  0.22967200  1
  Be  Be30  1  0.98236800  0.17801000  0.23902000  1
  Be  Be31  1  0.66037800  0.00000000  0.28501900  1
  Be  Be32  1  0.27294900  0.38742900  0.28053200  1
  Be  Be33  1  0.98236800  0.32199000  0.27118400  1
  Be  Be34  1  0.48236800  0.17801000  0.34261200  1
  Be  Be35  1  0.77294900  0.11257100  0.35196100  1
  Be  Be36  1  0.52949900  0.00000000  0.22518500  1
  Be  Be37  1  0.80435700  0.00000000  0.24575400  1
  Be  Be38  1  0.16037800  0.00000000  0.29661400  1
  Be  Be39  1  0.38552000  0.00000000  0.26445100  1
  Be  Be40  1  0.59493800  0.50000000  0.32653100  1
  Be  Be41  1  0.09493800  0.50000000  0.25510200  1
  Be  Be42  1  0.52949900  0.50000000  0.28501900  1
  Be  Be43  1  0.41692800  0.88742900  0.30110100  1
  Be  Be44  1  0.91692800  0.61257100  0.22967200  1
  Be  Be45  1  0.38552000  0.50000000  0.24575400  1
  Be  Be46  1  0.80435700  0.50000000  0.26445100  1
  Be  Be47  1  0.70750900  0.82199000  0.31044900  1
  Be  Be48  1  0.20750900  0.67801000  0.23902000  1
  Be  Be49  1  0.27294900  0.88742900  0.22967200  1
  Be  Be50  1  0.98236800  0.82199000  0.23902000  1
  Be  Be51  1  0.20750900  0.82199000  0.27118400  1
  Be  Be52  1  0.41692800  0.61257100  0.35196100  1
  Be  Be53  1  0.91692800  0.88742900  0.28053200  1
  Be  Be54  1  0.70750900  0.67801000  0.34261200  1
  Be  Be55  1  0.77294900  0.61257100  0.30110100  1
  Be  Be56  1  0.48236800  0.67801000  0.31044900  1
  Be  Be57  1  0.16037800  0.50000000  0.21359000  1
  Be  Be58  1  0.77294900  0.88742900  0.35196100  1
  Be  Be59  1  0.48236800  0.82199000  0.34261200  1
  Be  Be60  1  0.98236800  0.67801000  0.27118400  1
  Be  Be61  1  0.27294900  0.61257100  0.28053200  1
  Be  Be62  1  0.02949900  0.50000000  0.29661400  1
  Be  Be63  1  0.30435700  0.50000000  0.31718200  1
  Be  Be64  1  0.66037800  0.50000000  0.22518500  1
  Be  Be65  1  0.88552000  0.50000000  0.33587900  1
  Be  Be66  1  0.09493800  0.00000000  0.39795900  1
  Be  Be67  1  0.59493800  0.00000000  0.46938800  1
  Be  Be68  1  0.02949900  0.00000000  0.35644800  1
  Be  Be69  1  0.91692800  0.38742900  0.37252900  1
  Be  Be70  1  0.41692800  0.11257100  0.44395800  1
  Be  Be71  1  0.88552000  0.00000000  0.46003900  1
  Be  Be72  1  0.30435700  0.00000000  0.47873600  1
  Be  Be73  1  0.20750900  0.32199000  0.38187800  1
  Be  Be74  1  0.70750900  0.17801000  0.45330600  1
  Be  Be75  1  0.77294900  0.38742900  0.44395800  1
  Be  Be76  1  0.48236800  0.32199000  0.45330600  1
  Be  Be77  1  0.70750900  0.32199000  0.48546900  1
  Be  Be78  1  0.91692800  0.11257100  0.42338900  1
  Be  Be79  1  0.41692800  0.38742900  0.49481800  1
  Be  Be80  1  0.20750900  0.17801000  0.41404100  1
  Be  Be81  1  0.27294900  0.11257100  0.37252900  1
  Be  Be82  1  0.98236800  0.17801000  0.38187800  1
  Be  Be83  1  0.66037800  0.00000000  0.42787600  1
  Be  Be84  1  0.27294900  0.38742900  0.42338900  1
  Be  Be85  1  0.98236800  0.32199000  0.41404100  1
  Be  Be86  1  0.48236800  0.17801000  0.48546900  1
  Be  Be87  1  0.77294900  0.11257100  0.49481800  1
  Be  Be88  1  0.52949900  0.00000000  0.36804200  1
  Be  Be89  1  0.80435700  0.00000000  0.38861100  1
  Be  Be90  1  0.16037800  0.00000000  0.43947100  1
  Be  Be91  1  0.38552000  0.00000000  0.40730800  1
  Be  Be92  1  0.59493800  0.50000000  0.46938800  1
  Be  Be93  1  0.09493800  0.50000000  0.39795900  1
  Be  Be94  1  0.52949900  0.50000000  0.42787600  1
  Be  Be95  1  0.41692800  0.88742900  0.44395800  1
  Be  Be96  1  0.91692800  0.61257100  0.37252900  1
  Be  Be97  1  0.38552000  0.50000000  0.38861100  1
  Be  Be98  1  0.80435700  0.50000000  0.40730800  1
  Be  Be99  1  0.70750900  0.82199000  0.45330600  1
  Be  Be100  1  0.20750900  0.67801000  0.38187800  1
  Be  Be101  1  0.27294900  0.88742900  0.37252900  1
  Be  Be102  1  0.98236800  0.82199000  0.38187800  1
  Be  Be103  1  0.20750900  0.82199000  0.41404100  1
  Be  Be104  1  0.41692800  0.61257100  0.49481800  1
  Be  Be105  1  0.91692800  0.88742900  0.42338900  1
  Be  Be106  1  0.70750900  0.67801000  0.48546900  1
  Be  Be107  1  0.77294900  0.61257100  0.44395800  1
  Be  Be108  1  0.48236800  0.67801000  0.45330600  1
  Be  Be109  1  0.16037800  0.50000000  0.35644800  1
  Be  Be110  1  0.77294900  0.88742900  0.49481800  1
  Be  Be111  1  0.48236800  0.82199000  0.48546900  1
  Be  Be112  1  0.98236800  0.67801000  0.41404100  1
  Be  Be113  1  0.27294900  0.61257100  0.42338900  1
  Be  Be114  1  0.02949900  0.50000000  0.43947100  1
  Be  Be115  1  0.30435700  0.50000000  0.46003900  1
  Be  Be116  1  0.66037800  0.50000000  0.36804200  1
  Be  Be117  1  0.88552000  0.50000000  0.47873600  1
  Be  Be118  1  0.09493800  0.00000000  0.54081600  1
  Be  Be119  1  0.59493800  0.00000000  0.61224500  1
  Be  Be120  1  0.02949900  0.00000000  0.49930500  1
  Be  Be121  1  0.91692800  0.38742900  0.51538600  1
  Be  Be122  1  0.41692800  0.11257100  0.58681500  1
  Be  Be123  1  0.88552000  0.00000000  0.60289600  1
  Be  Be124  1  0.30435700  0.00000000  0.62159300  1
  Be  Be125  1  0.20750900  0.32199000  0.52473500  1
  Be  Be126  1  0.70750900  0.17801000  0.59616300  1
  Be  Be127  1  0.77294900  0.38742900  0.58681500  1
  Be  Be128  1  0.48236800  0.32199000  0.59616300  1
  Be  Be129  1  0.70750900  0.32199000  0.62832600  1
  Be  Be130  1  0.91692800  0.11257100  0.56624600  1
  Be  Be131  1  0.41692800  0.38742900  0.63767500  1
  Be  Be132  1  0.20750900  0.17801000  0.55689800  1
  Be  Be133  1  0.27294900  0.11257100  0.51538600  1
  Be  Be134  1  0.98236800  0.17801000  0.52473500  1
  Be  Be135  1  0.66037800  0.00000000  0.57073300  1
  Be  Be136  1  0.27294900  0.38742900  0.56624600  1
  Be  Be137  1  0.98236800  0.32199000  0.55689800  1
  Be  Be138  1  0.48236800  0.17801000  0.62832600  1
  Be  Be139  1  0.77294900  0.11257100  0.63767500  1
  Be  Be140  1  0.52949900  0.00000000  0.51089900  1
  Be  Be141  1  0.80435700  0.00000000  0.53146800  1
  Be  Be142  1  0.16037800  0.00000000  0.58232800  1
  Be  Be143  1  0.38552000  0.00000000  0.55016500  1
  Be  Be144  1  0.59493800  0.50000000  0.61224500  1
  Be  Be145  1  0.09493800  0.50000000  0.54081600  1
  Be  Be146  1  0.52949900  0.50000000  0.57073300  1
  Be  Be147  1  0.41692800  0.88742900  0.58681500  1
  Be  Be148  1  0.91692800  0.61257100  0.51538600  1
  Be  Be149  1  0.38552000  0.50000000  0.53146800  1
  Be  Be150  1  0.80435700  0.50000000  0.55016500  1
  Be  Be151  1  0.70750900  0.82199000  0.59616300  1
  Be  Be152  1  0.20750900  0.67801000  0.52473500  1
  Be  Be153  1  0.27294900  0.88742900  0.51538600  1
  Be  Be154  1  0.98236800  0.82199000  0.52473500  1
  Be  Be155  1  0.20750900  0.82199000  0.55689800  1
  Be  Be156  1  0.41692800  0.61257100  0.63767500  1
  Be  Be157  1  0.91692800  0.88742900  0.56624600  1
  Be  Be158  1  0.70750900  0.67801000  0.62832600  1
  Be  Be159  1  0.77294900  0.61257100  0.58681500  1
  Be  Be160  1  0.48236800  0.67801000  0.59616300  1
  Be  Be161  1  0.16037800  0.50000000  0.49930500  1
  Be  Be162  1  0.77294900  0.88742900  0.63767500  1
  Be  Be163  1  0.48236800  0.82199000  0.62832600  1
  Be  Be164  1  0.98236800  0.67801000  0.55689800  1
  Be  Be165  1  0.27294900  0.61257100  0.56624600  1
  Be  Be166  1  0.02949900  0.50000000  0.58232800  1
  Be  Be167  1  0.30435700  0.50000000  0.60289600  1
  Be  Be168  1  0.66037800  0.50000000  0.51089900  1
  Be  Be169  1  0.88552000  0.50000000  0.62159300  1
  Be  Be170  1  0.09493800  0.00000000  0.68367300  1
  Be  Be171  1  0.02949900  0.00000000  0.64216200  1
  Be  Be172  1  0.91692800  0.38742900  0.65824300  1
  Be  Be173  1  0.20750900  0.32199000  0.66759200  1
  Be  Be174  1  0.91692800  0.11257100  0.70910400  1
  Be  Be175  1  0.20750900  0.17801000  0.69975500  1
  Be  Be176  1  0.27294900  0.11257100  0.65824300  1
  Be  Be177  1  0.98236800  0.17801000  0.66759200  1
  Be  Be178  1  0.66037800  0.00000000  0.71359000  1
  Be  Be179  1  0.27294900  0.38742900  0.70910400  1
  Be  Be180  1  0.98236800  0.32199000  0.69975500  1
  Be  Be181  1  0.52949900  0.00000000  0.65375700  1
  Be  Be182  1  0.80435700  0.00000000  0.67432500  1
  Be  Be183  1  0.16037800  0.00000000  0.72518500  1
  Be  Be184  1  0.38552000  0.00000000  0.69302200  1
  Be  Be185  1  0.09493800  0.50000000  0.68367300  1
  Be  Be186  1  0.52949900  0.50000000  0.71359000  1
  Be  Be187  1  0.91692800  0.61257100  0.65824300  1
  Be  Be188  1  0.38552000  0.50000000  0.67432500  1
  Be  Be189  1  0.80435700  0.50000000  0.69302200  1
  Be  Be190  1  0.20750900  0.67801000  0.66759200  1
  Be  Be191  1  0.27294900  0.88742900  0.65824300  1
  Be  Be192  1  0.98236800  0.82199000  0.66759200  1
  Be  Be193  1  0.20750900  0.82199000  0.69975500  1
  Be  Be194  1  0.91692800  0.88742900  0.70910400  1
  Be  Be195  1  0.16037800  0.50000000  0.64216200  1
  Be  Be196  1  0.98236800  0.67801000  0.69975500  1
  Be  Be197  1  0.27294900  0.61257100  0.70910400  1
  Be  Be198  1  0.02949900  0.50000000  0.72518500  1
  Be  Be199  1  0.66037800  0.50000000  0.65375700  1
