# generated using pymatgen
data_Mg7Tl23
_symmetry_space_group_name_H-M   'P 1'
_cell_length_a   6.08125728
_cell_length_b   6.08125675
_cell_length_c   43.85580900
_cell_angle_alpha   92.43129276
_cell_angle_beta   92.43129255
_cell_angle_gamma   112.83911854
_symmetry_Int_Tables_number   1
_chemical_formula_structural   Mg7Tl23
_chemical_formula_sum   'Mg7 Tl23'
_cell_volume   1490.30251186
_cell_formula_units_Z   1
loop_
 _symmetry_equiv_pos_site_id
 _symmetry_equiv_pos_as_xyz
  1  'x, y, z'
loop_
 _atom_site_type_symbol
 _atom_site_label
 _atom_site_symmetry_multiplicity
 _atom_site_fract_x
 _atom_site_fract_y
 _atom_site_fract_z
 _atom_site_occupancy
  Mg  Mg0  1  0.40384600  0.40384600  0.75000000  1
  Mg  Mg1  1  0.86538500  0.86538500  0.67307700  1
  Mg  Mg2  1  0.32692300  0.32692300  0.59615400  1
  Mg  Mg3  1  0.78846200  0.78846200  0.51923100  1
  Mg  Mg4  1  0.25000000  0.25000000  0.44230800  1
  Mg  Mg5  1  0.71153800  0.71153800  0.36538500  1
  Mg  Mg6  1  0.17307700  0.17307700  0.28846200  1
  Tl  Tl7  1  0.90384600  0.90384600  0.75000000  1
  Tl  Tl8  1  0.42307700  0.92307700  0.78846200  1
  Tl  Tl9  1  0.92307700  0.42307700  0.78846200  1
  Tl  Tl10  1  0.36538500  0.36538500  0.67307700  1
  Tl  Tl11  1  0.88461500  0.38461500  0.71153800  1
  Tl  Tl12  1  0.38461500  0.88461500  0.71153800  1
  Tl  Tl13  1  0.82692300  0.82692300  0.59615400  1
  Tl  Tl14  1  0.34615400  0.84615400  0.63461500  1
  Tl  Tl15  1  0.84615400  0.34615400  0.63461500  1
  Tl  Tl16  1  0.28846200  0.28846200  0.51923100  1
  Tl  Tl17  1  0.80769200  0.30769200  0.55769200  1
  Tl  Tl18  1  0.30769200  0.80769200  0.55769200  1
  Tl  Tl19  1  0.75000000  0.75000000  0.44230800  1
  Tl  Tl20  1  0.26923100  0.76923100  0.48076900  1
  Tl  Tl21  1  0.76923100  0.26923100  0.48076900  1
  Tl  Tl22  1  0.21153800  0.21153800  0.36538500  1
  Tl  Tl23  1  0.73076900  0.23076900  0.40384600  1
  Tl  Tl24  1  0.23076900  0.73076900  0.40384600  1
  Tl  Tl25  1  0.67307700  0.67307700  0.28846200  1
  Tl  Tl26  1  0.19230800  0.69230800  0.32692300  1
  Tl  Tl27  1  0.69230800  0.19230800  0.32692300  1
  Tl  Tl28  1  0.65384600  0.15384600  0.25000000  1
  Tl  Tl29  1  0.15384600  0.65384600  0.25000000  1
