# generated using pymatgen
data_Mg14Ni29
_symmetry_space_group_name_H-M   'P 1'
_cell_length_a   4.81848500
_cell_length_b   4.81848489
_cell_length_c   47.15446000
_cell_angle_alpha   90.00000000
_cell_angle_beta   90.00000000
_cell_angle_gamma   120.00000763
_symmetry_Int_Tables_number   1
_chemical_formula_structural   Mg14Ni29
_chemical_formula_sum   'Mg14 Ni29'
_cell_volume   948.14418693
_cell_formula_units_Z   1
loop_
 _symmetry_equiv_pos_site_id
 _symmetry_equiv_pos_as_xyz
  1  'x, y, z'
loop_
 _atom_site_type_symbol
 _atom_site_label
 _atom_site_symmetry_multiplicity
 _atom_site_fract_x
 _atom_site_fract_y
 _atom_site_fract_z
 _atom_site_occupancy
  Mg  Mg0  1  0.00000000  0.00000000  0.43428600  1
  Mg  Mg1  1  0.00000000  0.00000000  0.49627000  1
  Mg  Mg2  1  0.00000000  0.00000000  0.26761900  1
  Mg  Mg3  1  0.00000000  0.00000000  0.32960300  1
  Mg  Mg4  1  0.66666700  0.33333300  0.18392800  1
  Mg  Mg5  1  0.33333300  0.66666700  0.41329500  1
  Mg  Mg6  1  0.33333300  0.66666700  0.35059400  1
  Mg  Mg7  1  0.66666700  0.33333300  0.24662800  1
  Mg  Mg8  1  0.00000000  0.00000000  0.60095300  1
  Mg  Mg9  1  0.00000000  0.00000000  0.66293600  1
  Mg  Mg10  1  0.66666700  0.33333300  0.51726100  1
  Mg  Mg11  1  0.33333300  0.66666700  0.74662800  1
  Mg  Mg12  1  0.33333300  0.66666700  0.68392800  1
  Mg  Mg13  1  0.66666700  0.33333300  0.57996100  1
  Ni  Ni14  1  0.66666700  0.33333300  0.42360300  1
  Ni  Ni15  1  0.33333300  0.66666700  0.17362000  1
  Ni  Ni16  1  0.33333300  0.66666700  0.25693600  1
  Ni  Ni17  1  0.66666700  0.33333300  0.34028600  1
  Ni  Ni18  1  0.50000000  0.00000000  0.46527800  1
  Ni  Ni19  1  0.00000000  0.50000000  0.46527800  1
  Ni  Ni20  1  0.50000000  0.50000000  0.46527800  1
  Ni  Ni21  1  0.50000000  0.00000000  0.29861100  1
  Ni  Ni22  1  0.00000000  0.50000000  0.29861100  1
  Ni  Ni23  1  0.50000000  0.50000000  0.29861100  1
  Ni  Ni24  1  0.83551000  0.67102100  0.38194400  1
  Ni  Ni25  1  0.32897900  0.16449000  0.38194400  1
  Ni  Ni26  1  0.83551000  0.16449000  0.38194400  1
  Ni  Ni27  1  0.16449000  0.32897900  0.21527800  1
  Ni  Ni28  1  0.67102100  0.83551000  0.21527800  1
  Ni  Ni29  1  0.16449000  0.83551000  0.21527800  1
  Ni  Ni30  1  0.66666700  0.33333300  0.75693600  1
  Ni  Ni31  1  0.33333300  0.66666700  0.50695300  1
  Ni  Ni32  1  0.33333300  0.66666700  0.59026900  1
  Ni  Ni33  1  0.66666700  0.33333300  0.67362000  1
  Ni  Ni34  1  0.50000000  0.00000000  0.63194400  1
  Ni  Ni35  1  0.00000000  0.50000000  0.63194400  1
  Ni  Ni36  1  0.50000000  0.50000000  0.63194400  1
  Ni  Ni37  1  0.83551000  0.67102100  0.71527800  1
  Ni  Ni38  1  0.32897900  0.16449000  0.71527800  1
  Ni  Ni39  1  0.83551000  0.16449000  0.71527800  1
  Ni  Ni40  1  0.16449000  0.32897900  0.54861100  1
  Ni  Ni41  1  0.67102100  0.83551000  0.54861100  1
  Ni  Ni42  1  0.16449000  0.83551000  0.54861100  1
