# generated using pymatgen
data_Mg2Ir3
_symmetry_space_group_name_H-M   'P 1'
_cell_length_a   8.54477469
_cell_length_b   9.72091536
_cell_length_c   40.45091800
_cell_angle_alpha   92.27818184
_cell_angle_beta   91.63073542
_cell_angle_gamma   96.80090534
_symmetry_Int_Tables_number   1
_chemical_formula_structural   Mg2Ir3
_chemical_formula_sum   'Mg48 Ir72'
_cell_volume   3331.83388964
_cell_formula_units_Z   24
loop_
 _symmetry_equiv_pos_site_id
 _symmetry_equiv_pos_as_xyz
  1  'x, y, z'
loop_
 _atom_site_type_symbol
 _atom_site_label
 _atom_site_symmetry_multiplicity
 _atom_site_fract_x
 _atom_site_fract_y
 _atom_site_fract_z
 _atom_site_occupancy
  Mg  Mg0  1  0.91533800  0.27244900  0.78998300  1
  Mg  Mg1  1  0.08466200  0.44795800  0.73501700  1
  Mg  Mg2  1  0.61669600  0.75789000  0.75567900  1
  Mg  Mg3  1  0.38330400  0.96251700  0.76932100  1
  Mg  Mg4  1  0.55549200  0.25252800  0.78865500  1
  Mg  Mg5  1  0.44450800  0.46787900  0.73634500  1
  Mg  Mg6  1  0.99788700  0.00589200  0.77221300  1
  Mg  Mg7  1  0.00211300  0.71451500  0.75278700  1
  Mg  Mg8  1  0.81855800  0.88326900  0.69737100  1
  Mg  Mg9  1  0.18144200  0.96213800  0.70262900  1
  Mg  Mg10  1  0.91533800  0.39744900  0.66498300  1
  Mg  Mg11  1  0.08466200  0.57295800  0.61001700  1
  Mg  Mg12  1  0.61669600  0.88289000  0.63067900  1
  Mg  Mg13  1  0.38330400  0.08751700  0.64432100  1
  Mg  Mg14  1  0.55549200  0.37752800  0.66365500  1
  Mg  Mg15  1  0.44450800  0.59287900  0.61134500  1
  Mg  Mg16  1  0.99788700  0.13089200  0.64721300  1
  Mg  Mg17  1  0.00211300  0.83951500  0.62778700  1
  Mg  Mg18  1  0.81855800  0.00826900  0.57237100  1
  Mg  Mg19  1  0.18144200  0.08713800  0.57762900  1
  Mg  Mg20  1  0.91533800  0.52244900  0.53998300  1
  Mg  Mg21  1  0.08466200  0.69795800  0.48501700  1
  Mg  Mg22  1  0.61669600  0.00789000  0.50567900  1
  Mg  Mg23  1  0.38330400  0.21251700  0.51932100  1
  Mg  Mg24  1  0.55549200  0.50252800  0.53865500  1
  Mg  Mg25  1  0.44450800  0.71787900  0.48634500  1
  Mg  Mg26  1  0.99788700  0.25589200  0.52221300  1
  Mg  Mg27  1  0.00211300  0.96451500  0.50278700  1
  Mg  Mg28  1  0.81855800  0.13326900  0.44737100  1
  Mg  Mg29  1  0.18144200  0.21213800  0.45262900  1
  Mg  Mg30  1  0.91533800  0.64744900  0.41498300  1
  Mg  Mg31  1  0.08466200  0.82295800  0.36001700  1
  Mg  Mg32  1  0.61669600  0.13289000  0.38067900  1
  Mg  Mg33  1  0.38330400  0.33751700  0.39432100  1
  Mg  Mg34  1  0.55549200  0.62752800  0.41365500  1
  Mg  Mg35  1  0.44450800  0.84287900  0.36134500  1
  Mg  Mg36  1  0.99788700  0.38089200  0.39721300  1
  Mg  Mg37  1  0.00211300  0.08951500  0.37778700  1
  Mg  Mg38  1  0.81855800  0.25826900  0.32237100  1
  Mg  Mg39  1  0.18144200  0.33713800  0.32762900  1
  Mg  Mg40  1  0.91533800  0.77244900  0.28998300  1
  Mg  Mg41  1  0.08466200  0.94795800  0.23501700  1
  Mg  Mg42  1  0.61669600  0.25789000  0.25567900  1
  Mg  Mg43  1  0.38330400  0.46251700  0.26932100  1
  Mg  Mg44  1  0.55549200  0.75252800  0.28865500  1
  Mg  Mg45  1  0.44450800  0.96787900  0.23634500  1
  Mg  Mg46  1  0.99788700  0.50589200  0.27221300  1
  Mg  Mg47  1  0.00211300  0.21451500  0.25278700  1
  Ir  Ir48  1  0.97167900  0.16855600  0.71639000  1
  Ir  Ir49  1  0.02832100  0.55185100  0.80861000  1
  Ir  Ir50  1  0.77047200  0.51412000  0.77269600  1
  Ir  Ir51  1  0.22952800  0.20628700  0.75230400  1
  Ir  Ir52  1  0.22952800  0.26890900  0.68968200  1
  Ir  Ir53  1  0.77047200  0.57649800  0.71031800  1
  Ir  Ir54  1  0.50000000  0.92270300  0.70000000  1
  Ir  Ir55  1  0.25697700  0.39277200  0.79800500  1
  Ir  Ir56  1  0.74302300  0.32763500  0.72699500  1
  Ir  Ir57  1  0.53311500  0.54302500  0.80802100  1
  Ir  Ir58  1  0.46688500  0.17738200  0.71697900  1
  Ir  Ir59  1  0.70409300  0.05963500  0.74460400  1
  Ir  Ir60  1  0.29590700  0.66077200  0.78039600  1
  Ir  Ir61  1  0.29590700  0.71925700  0.72191200  1
  Ir  Ir62  1  0.70409300  0.00115000  0.80308800  1
  Ir  Ir63  1  0.97167900  0.29355600  0.59139000  1
  Ir  Ir64  1  0.02832100  0.67685100  0.68361000  1
  Ir  Ir65  1  0.77047200  0.63912000  0.64769600  1
  Ir  Ir66  1  0.22952800  0.33128700  0.62730400  1
  Ir  Ir67  1  0.22952800  0.39390900  0.56468200  1
  Ir  Ir68  1  0.77047200  0.70149800  0.58531800  1
  Ir  Ir69  1  0.50000000  0.04770300  0.57500000  1
  Ir  Ir70  1  0.25697700  0.51777200  0.67300500  1
  Ir  Ir71  1  0.74302300  0.45263500  0.60199500  1
  Ir  Ir72  1  0.53311500  0.66802500  0.68302100  1
  Ir  Ir73  1  0.46688500  0.30238200  0.59197900  1
  Ir  Ir74  1  0.70409300  0.18463500  0.61960400  1
  Ir  Ir75  1  0.29590700  0.78577200  0.65539600  1
  Ir  Ir76  1  0.29590700  0.84425700  0.59691200  1
  Ir  Ir77  1  0.70409300  0.12615000  0.67808800  1
  Ir  Ir78  1  0.97167900  0.41855600  0.46639000  1
  Ir  Ir79  1  0.02832100  0.80185100  0.55861000  1
  Ir  Ir80  1  0.77047200  0.76412000  0.52269600  1
  Ir  Ir81  1  0.22952800  0.45628700  0.50230400  1
  Ir  Ir82  1  0.22952800  0.51890900  0.43968200  1
  Ir  Ir83  1  0.77047200  0.82649800  0.46031800  1
  Ir  Ir84  1  0.50000000  0.17270300  0.45000000  1
  Ir  Ir85  1  0.25697700  0.64277200  0.54800500  1
  Ir  Ir86  1  0.74302300  0.57763500  0.47699500  1
  Ir  Ir87  1  0.53311500  0.79302500  0.55802100  1
  Ir  Ir88  1  0.46688500  0.42738200  0.46697900  1
  Ir  Ir89  1  0.70409300  0.30963500  0.49460400  1
  Ir  Ir90  1  0.29590700  0.91077200  0.53039600  1
  Ir  Ir91  1  0.29590700  0.96925700  0.47191200  1
  Ir  Ir92  1  0.70409300  0.25115000  0.55308800  1
  Ir  Ir93  1  0.97167900  0.54355600  0.34139000  1
  Ir  Ir94  1  0.02832100  0.92685100  0.43361000  1
  Ir  Ir95  1  0.77047200  0.88912000  0.39769600  1
  Ir  Ir96  1  0.22952800  0.58128700  0.37730400  1
  Ir  Ir97  1  0.22952800  0.64390900  0.31468200  1
  Ir  Ir98  1  0.77047200  0.95149800  0.33531800  1
  Ir  Ir99  1  0.50000000  0.29770300  0.32500000  1
  Ir  Ir100  1  0.25697700  0.76777200  0.42300500  1
  Ir  Ir101  1  0.74302300  0.70263500  0.35199500  1
  Ir  Ir102  1  0.53311500  0.91802500  0.43302100  1
  Ir  Ir103  1  0.46688500  0.55238200  0.34197900  1
  Ir  Ir104  1  0.70409300  0.43463500  0.36960400  1
  Ir  Ir105  1  0.29590700  0.03577200  0.40539600  1
  Ir  Ir106  1  0.29590700  0.09425700  0.34691200  1
  Ir  Ir107  1  0.70409300  0.37615000  0.42808800  1
  Ir  Ir108  1  0.97167900  0.66855600  0.21639000  1
  Ir  Ir109  1  0.02832100  0.05185100  0.30861000  1
  Ir  Ir110  1  0.77047200  0.01412000  0.27269600  1
  Ir  Ir111  1  0.22952800  0.70628700  0.25230400  1
  Ir  Ir112  1  0.25697700  0.89277200  0.29800500  1
  Ir  Ir113  1  0.74302300  0.82763500  0.22699500  1
  Ir  Ir114  1  0.53311500  0.04302500  0.30802100  1
  Ir  Ir115  1  0.46688500  0.67738200  0.21697900  1
  Ir  Ir116  1  0.70409300  0.55963500  0.24460400  1
  Ir  Ir117  1  0.29590700  0.16077200  0.28039600  1
  Ir  Ir118  1  0.29590700  0.21925700  0.22191200  1
  Ir  Ir119  1  0.70409300  0.50115000  0.30308800  1
