# generated using pymatgen
data_Mg53Ir12
_symmetry_space_group_name_H-M   'P 1'
_cell_length_a   18.30800199
_cell_length_b   18.30800171
_cell_length_c   46.43980600
_cell_angle_alpha   90.32248290
_cell_angle_beta   89.67751711
_cell_angle_gamma   78.71339112
_symmetry_Int_Tables_number   1
_chemical_formula_structural   Mg53Ir12
_chemical_formula_sum   'Mg371 Ir84'
_cell_volume   15264.19257997
_cell_formula_units_Z   7
loop_
 _symmetry_equiv_pos_site_id
 _symmetry_equiv_pos_as_xyz
  1  'x, y, z'
loop_
 _atom_site_type_symbol
 _atom_site_label
 _atom_site_symmetry_multiplicity
 _atom_site_fract_x
 _atom_site_fract_y
 _atom_site_fract_z
 _atom_site_occupancy
  Mg  Mg0  1  0.78348500  0.04984800  0.24544300  1
  Mg  Mg1  1  0.99181800  0.67484800  0.26627600  1
  Mg  Mg2  1  0.28348500  0.54984800  0.24544300  1
  Mg  Mg3  1  0.90848500  0.92484800  0.30794300  1
  Mg  Mg4  1  0.40848500  0.42484800  0.30794300  1
  Mg  Mg5  1  0.73705800  0.89548400  0.23929200  1
  Mg  Mg6  1  0.86304800  0.80361900  0.26816200  1
  Mg  Mg7  1  0.24657900  0.45421300  0.29326000  1
  Mg  Mg8  1  0.12058900  0.54607700  0.26439100  1
  Mg  Mg9  1  0.13765200  0.86234800  0.25585900  1
  Mg  Mg10  1  0.05140100  0.42527300  0.29198900  1
  Mg  Mg11  1  0.25186700  0.38331600  0.23371200  1
  Mg  Mg12  1  0.16039000  0.69627000  0.25148700  1
  Mg  Mg13  1  0.87919300  0.62896400  0.22162600  1
  Mg  Mg14  1  0.93223600  0.92442300  0.24056400  1
  Mg  Mg15  1  0.73177000  0.96638000  0.29884000  1
  Mg  Mg16  1  0.82324700  0.65342700  0.28106500  1
  Mg  Mg17  1  0.10444400  0.72073200  0.31092600  1
  Mg  Mg18  1  0.20015200  0.29984800  0.28710900  1
  Mg  Mg19  1  0.40848500  0.92484800  0.30794300  1
  Mg  Mg20  1  0.70015200  0.79984800  0.28710900  1
  Mg  Mg21  1  0.07515200  0.42484800  0.22460900  1
  Mg  Mg22  1  0.28348500  0.04984800  0.24544300  1
  Mg  Mg23  1  0.57515200  0.92484800  0.22460900  1
  Mg  Mg24  1  0.15372500  0.14548400  0.28095800  1
  Mg  Mg25  1  0.27971400  0.05361900  0.30982800  1
  Mg  Mg26  1  0.10451600  0.26294200  0.23929200  1
  Mg  Mg27  1  0.53725600  0.79607700  0.30605700  1
  Mg  Mg28  1  0.46245400  0.83675500  0.25159400  1
  Mg  Mg29  1  0.42931800  0.23734800  0.23502600  1
  Mg  Mg30  1  0.55431800  0.11234800  0.29752600  1
  Mg  Mg31  1  0.45203900  0.03980300  0.26212800  1
  Mg  Mg32  1  0.61435400  0.75046300  0.23254800  1
  Mg  Mg33  1  0.66853400  0.63331600  0.27537900  1
  Mg  Mg34  1  0.57705600  0.94627000  0.29315300  1
  Mg  Mg35  1  0.29586000  0.87896400  0.26329300  1
  Mg  Mg36  1  0.11493100  0.05989300  0.22875700  1
  Mg  Mg37  1  0.34890300  0.17442300  0.28223000  1
  Mg  Mg38  1  0.95261600  0.34923400  0.25833800  1
  Mg  Mg39  1  0.27111100  0.22073200  0.22759200  1
  Mg  Mg40  1  0.57515200  0.42484800  0.22460900  1
  Mg  Mg41  1  0.49181800  0.67484800  0.26627600  1
  Mg  Mg42  1  0.70015200  0.29984800  0.28710900  1
  Mg  Mg43  1  0.99181800  0.17484800  0.26627600  1
  Mg  Mg44  1  0.44638100  0.55361900  0.22649500  1
  Mg  Mg45  1  0.52118300  0.51294200  0.28095800  1
  Mg  Mg46  1  0.82991200  0.20421300  0.25159400  1
  Mg  Mg47  1  0.70392300  0.29607700  0.22272400  1
  Mg  Mg48  1  0.87912100  0.08675500  0.29326000  1
  Mg  Mg49  1  0.84598500  0.48734800  0.27669300  1
  Mg  Mg50  1  0.86870600  0.28980300  0.30379500  1
  Mg  Mg51  1  0.63473400  0.17527300  0.25032200  1
  Mg  Mg52  1  0.03102100  0.00046300  0.27421400  1
  Mg  Mg53  1  0.71252600  0.12896400  0.30496000  1
  Mg  Mg54  1  0.53159800  0.30989300  0.27042400  1
  Mg  Mg55  1  0.36928300  0.59923400  0.30000500  1
  Mg  Mg56  1  0.31510300  0.71638000  0.25717300  1
  Mg  Mg57  1  0.40658100  0.40342700  0.23939900  1
  Mg  Mg58  1  0.68777700  0.47073200  0.26925900  1
  Mg  Mg59  1  0.03348500  0.79984800  0.37044300  1
  Mg  Mg60  1  0.24181800  0.42484800  0.39127600  1
  Mg  Mg61  1  0.53348500  0.29984800  0.37044300  1
  Mg  Mg62  1  0.15848500  0.67484800  0.43294300  1
  Mg  Mg63  1  0.11681800  0.54984800  0.32877600  1
  Mg  Mg64  1  0.65848500  0.17484800  0.43294300  1
  Mg  Mg65  1  0.98705800  0.64548400  0.36429200  1
  Mg  Mg66  1  0.11304800  0.55361900  0.39316200  1
  Mg  Mg67  1  0.93785000  0.76294200  0.32262500  1
  Mg  Mg68  1  0.49657900  0.20421300  0.41826000  1
  Mg  Mg69  1  0.37058900  0.29607700  0.38939100  1
  Mg  Mg70  1  0.29578700  0.33675500  0.33492700  1
  Mg  Mg71  1  0.26265200  0.73734800  0.31835900  1
  Mg  Mg72  1  0.38765200  0.61234800  0.38085900  1
  Mg  Mg73  1  0.28537300  0.53980300  0.34546100  1
  Mg  Mg74  1  0.30140100  0.17527300  0.41698900  1
  Mg  Mg75  1  0.44768700  0.25046300  0.31588100  1
  Mg  Mg76  1  0.50186700  0.13331600  0.35871200  1
  Mg  Mg77  1  0.41039000  0.44627000  0.37648700  1
  Mg  Mg78  1  0.12919300  0.37896400  0.34662600  1
  Mg  Mg79  1  0.94826400  0.55989300  0.31209100  1
  Mg  Mg80  1  0.18223600  0.67442300  0.36556400  1
  Mg  Mg81  1  0.78595000  0.84923400  0.34167100  1
  Mg  Mg82  1  0.98177000  0.71638000  0.42384000  1
  Mg  Mg83  1  0.07324700  0.40342700  0.40606500  1
  Mg  Mg84  1  0.35444400  0.47073200  0.43592600  1
  Mg  Mg85  1  0.45015200  0.04984800  0.41210900  1
  Mg  Mg86  1  0.65848500  0.67484800  0.43294300  1
  Mg  Mg87  1  0.95015200  0.54984800  0.41210900  1
  Mg  Mg88  1  0.32515200  0.17484800  0.34960900  1
  Mg  Mg89  1  0.53348500  0.79984800  0.37044300  1
  Mg  Mg90  1  0.82515200  0.67484800  0.34960900  1
  Mg  Mg91  1  0.40372500  0.89548400  0.40595800  1
  Mg  Mg92  1  0.52971400  0.80361900  0.43482800  1
  Mg  Mg93  1  0.35451600  0.01294200  0.36429200  1
  Mg  Mg94  1  0.66324500  0.70421300  0.33492700  1
  Mg  Mg95  1  0.78725600  0.54607700  0.43105700  1
  Mg  Mg96  1  0.71245400  0.58675500  0.37659400  1
  Mg  Mg97  1  0.67931800  0.98734800  0.36002600  1
  Mg  Mg98  1  0.80431800  0.86234800  0.42252600  1
  Mg  Mg99  1  0.70203900  0.78980300  0.38712800  1
  Mg  Mg100  1  0.46806800  0.67527300  0.33365500  1
  Mg  Mg101  1  0.86435400  0.50046300  0.35754800  1
  Mg  Mg102  1  0.91853400  0.38331600  0.40037900  1
  Mg  Mg103  1  0.82705600  0.69627000  0.41815300  1
  Mg  Mg104  1  0.54586000  0.62896400  0.38829300  1
  Mg  Mg105  1  0.36493100  0.80989300  0.35375700  1
  Mg  Mg106  1  0.59890300  0.92442300  0.40723000  1
  Mg  Mg107  1  0.20261600  0.09923400  0.38333800  1
  Mg  Mg108  1  0.14843600  0.21638000  0.34050600  1
  Mg  Mg109  1  0.23991400  0.90342700  0.32273200  1
  Mg  Mg110  1  0.52111100  0.97073200  0.35259200  1
  Mg  Mg111  1  0.61681800  0.54984800  0.32877600  1
  Mg  Mg112  1  0.82515200  0.17484800  0.34960900  1
  Mg  Mg113  1  0.11681800  0.04984800  0.32877600  1
  Mg  Mg114  1  0.74181800  0.42484800  0.39127600  1
  Mg  Mg115  1  0.95015200  0.04984800  0.41210900  1
  Mg  Mg116  1  0.24181800  0.92484800  0.39127600  1
  Mg  Mg117  1  0.57039200  0.39548400  0.32262500  1
  Mg  Mg118  1  0.69638100  0.30361900  0.35149500  1
  Mg  Mg119  1  0.77118300  0.26294200  0.40595800  1
  Mg  Mg120  1  0.07991200  0.95421300  0.37659400  1
  Mg  Mg121  1  0.95392300  0.04607700  0.34772400  1
  Mg  Mg122  1  0.12912100  0.83675500  0.41826000  1
  Mg  Mg123  1  0.09598500  0.23734800  0.40169300  1
  Mg  Mg124  1  0.97098500  0.36234800  0.33919300  1
  Mg  Mg125  1  0.11870600  0.03980300  0.42879500  1
  Mg  Mg126  1  0.88473400  0.92527300  0.37532200  1
  Mg  Mg127  1  0.28102100  0.75046300  0.39921400  1
  Mg  Mg128  1  0.08520000  0.88331600  0.31704600  1
  Mg  Mg129  1  0.99372300  0.19627000  0.33482000  1
  Mg  Mg130  1  0.96252600  0.87896400  0.42996000  1
  Mg  Mg131  1  0.78159800  0.05989300  0.39542400  1
  Mg  Mg132  1  0.76556900  0.42442300  0.32389700  1
  Mg  Mg133  1  0.61928300  0.34923400  0.42500500  1
  Mg  Mg134  1  0.56510300  0.46638000  0.38217300  1
  Mg  Mg135  1  0.65658100  0.15342700  0.36439900  1
  Mg  Mg136  1  0.93777700  0.22073200  0.39425900  1
  Mg  Mg137  1  0.28348500  0.54984800  0.49544300  1
  Mg  Mg138  1  0.49181800  0.17484800  0.51627600  1
  Mg  Mg139  1  0.78348500  0.04984800  0.49544300  1
  Mg  Mg140  1  0.40848500  0.42484800  0.55794300  1
  Mg  Mg141  1  0.36681800  0.29984800  0.45377600  1
  Mg  Mg142  1  0.90848500  0.92484800  0.55794300  1
  Mg  Mg143  1  0.23705800  0.39548400  0.48929200  1
  Mg  Mg144  1  0.36304800  0.30361900  0.51816200  1
  Mg  Mg145  1  0.18785000  0.51294200  0.44762500  1
  Mg  Mg146  1  0.74657900  0.95421300  0.54326000  1
  Mg  Mg147  1  0.62058900  0.04607700  0.51439100  1
  Mg  Mg148  1  0.54578700  0.08675500  0.45992700  1
  Mg  Mg149  1  0.51265200  0.48734800  0.44335900  1
  Mg  Mg150  1  0.63765200  0.36234800  0.50585900  1
  Mg  Mg151  1  0.53537300  0.28980300  0.47046100  1
  Mg  Mg152  1  0.55140100  0.92527300  0.54198900  1
  Mg  Mg153  1  0.69768700  0.00046300  0.44088100  1
  Mg  Mg154  1  0.75186700  0.88331600  0.48371200  1
  Mg  Mg155  1  0.66039000  0.19627000  0.50148700  1
  Mg  Mg156  1  0.37919300  0.12896400  0.47162600  1
  Mg  Mg157  1  0.19826400  0.30989300  0.43709100  1
  Mg  Mg158  1  0.43223600  0.42442300  0.49056400  1
  Mg  Mg159  1  0.03595000  0.59923400  0.46667100  1
  Mg  Mg160  1  0.23177000  0.46638000  0.54884000  1
  Mg  Mg161  1  0.32324700  0.15342700  0.53106500  1
  Mg  Mg162  1  0.60444400  0.22073200  0.56092600  1
  Mg  Mg163  1  0.70015200  0.79984800  0.53710900  1
  Mg  Mg164  1  0.90848500  0.42484800  0.55794300  1
  Mg  Mg165  1  0.20015200  0.29984800  0.53710900  1
  Mg  Mg166  1  0.57515200  0.92484800  0.47460900  1
  Mg  Mg167  1  0.78348500  0.54984800  0.49544300  1
  Mg  Mg168  1  0.07515200  0.42484800  0.47460900  1
  Mg  Mg169  1  0.65372500  0.64548400  0.53095800  1
  Mg  Mg170  1  0.77971400  0.55361900  0.55982800  1
  Mg  Mg171  1  0.60451600  0.76294200  0.48929200  1
  Mg  Mg172  1  0.91324500  0.45421300  0.45992700  1
  Mg  Mg173  1  0.03725600  0.29607700  0.55605700  1
  Mg  Mg174  1  0.96245400  0.33675500  0.50159400  1
  Mg  Mg175  1  0.92931800  0.73734800  0.48502600  1
  Mg  Mg176  1  0.05431800  0.61234800  0.54752600  1
  Mg  Mg177  1  0.95203900  0.53980300  0.51212800  1
  Mg  Mg178  1  0.71806800  0.42527300  0.45865500  1
  Mg  Mg179  1  0.11435400  0.25046300  0.48254800  1
  Mg  Mg180  1  0.16853400  0.13331600  0.52537900  1
  Mg  Mg181  1  0.07705600  0.44627000  0.54315300  1
  Mg  Mg182  1  0.79586000  0.37896400  0.51329300  1
  Mg  Mg183  1  0.61493100  0.55989300  0.47875700  1
  Mg  Mg184  1  0.84890300  0.67442300  0.53223000  1
  Mg  Mg185  1  0.45261600  0.84923400  0.50833800  1
  Mg  Mg186  1  0.39843600  0.96638000  0.46550600  1
  Mg  Mg187  1  0.48991400  0.65342700  0.44773200  1
  Mg  Mg188  1  0.77111100  0.72073200  0.47759200  1
  Mg  Mg189  1  0.86681800  0.29984800  0.45377600  1
  Mg  Mg190  1  0.07515200  0.92484800  0.47460900  1
  Mg  Mg191  1  0.36681800  0.79984800  0.45377600  1
  Mg  Mg192  1  0.99181800  0.17484800  0.51627600  1
  Mg  Mg193  1  0.20015200  0.79984800  0.53710900  1
  Mg  Mg194  1  0.49181800  0.67484800  0.51627600  1
  Mg  Mg195  1  0.82039200  0.14548400  0.44762500  1
  Mg  Mg196  1  0.94638100  0.05361900  0.47649500  1
  Mg  Mg197  1  0.02118300  0.01294200  0.53095800  1
  Mg  Mg198  1  0.32991200  0.70421300  0.50159400  1
  Mg  Mg199  1  0.20392300  0.79607700  0.47272400  1
  Mg  Mg200  1  0.37912100  0.58675500  0.54326000  1
  Mg  Mg201  1  0.34598500  0.98734800  0.52669300  1
  Mg  Mg202  1  0.22098500  0.11234800  0.46419300  1
  Mg  Mg203  1  0.36870600  0.78980300  0.55379500  1
  Mg  Mg204  1  0.13473400  0.67527300  0.50032200  1
  Mg  Mg205  1  0.53102100  0.50046300  0.52421400  1
  Mg  Mg206  1  0.33520000  0.63331600  0.44204600  1
  Mg  Mg207  1  0.24372300  0.94627000  0.45982000  1
  Mg  Mg208  1  0.21252600  0.62896400  0.55496000  1
  Mg  Mg209  1  0.03159800  0.80989300  0.52042400  1
  Mg  Mg210  1  0.01556900  0.17442300  0.44889700  1
  Mg  Mg211  1  0.86928300  0.09923400  0.55000500  1
  Mg  Mg212  1  0.81510300  0.21638000  0.50717300  1
  Mg  Mg213  1  0.90658100  0.90342700  0.48939900  1
  Mg  Mg214  1  0.18777700  0.97073200  0.51925900  1
  Mg  Mg215  1  0.53348500  0.29984800  0.62044300  1
  Mg  Mg216  1  0.74181800  0.92484800  0.64127600  1
  Mg  Mg217  1  0.03348500  0.79984800  0.62044300  1
  Mg  Mg218  1  0.65848500  0.17484800  0.68294300  1
  Mg  Mg219  1  0.61681800  0.04984800  0.57877600  1
  Mg  Mg220  1  0.15848500  0.67484800  0.68294300  1
  Mg  Mg221  1  0.48705800  0.14548400  0.61429200  1
  Mg  Mg222  1  0.61304800  0.05361900  0.64316200  1
  Mg  Mg223  1  0.43785000  0.26294200  0.57262500  1
  Mg  Mg224  1  0.99657900  0.70421300  0.66826000  1
  Mg  Mg225  1  0.87058900  0.79607700  0.63939100  1
  Mg  Mg226  1  0.79578700  0.83675500  0.58492700  1
  Mg  Mg227  1  0.76265200  0.23734800  0.56835900  1
  Mg  Mg228  1  0.88765200  0.11234800  0.63085900  1
  Mg  Mg229  1  0.78537300  0.03980300  0.59546100  1
  Mg  Mg230  1  0.80140100  0.67527300  0.66698900  1
  Mg  Mg231  1  0.94768700  0.75046300  0.56588100  1
  Mg  Mg232  1  0.00186700  0.63331600  0.60871200  1
  Mg  Mg233  1  0.91039000  0.94627000  0.62648700  1
  Mg  Mg234  1  0.62919300  0.87896400  0.59662600  1
  Mg  Mg235  1  0.44826400  0.05989300  0.56209100  1
  Mg  Mg236  1  0.68223600  0.17442300  0.61556400  1
  Mg  Mg237  1  0.28595000  0.34923400  0.59167100  1
  Mg  Mg238  1  0.48177000  0.21638000  0.67384000  1
  Mg  Mg239  1  0.57324700  0.90342700  0.65606500  1
  Mg  Mg240  1  0.85444400  0.97073200  0.68592600  1
  Mg  Mg241  1  0.95015200  0.54984800  0.66210900  1
  Mg  Mg242  1  0.15848500  0.17484800  0.68294300  1
  Mg  Mg243  1  0.45015200  0.04984800  0.66210900  1
  Mg  Mg244  1  0.82515200  0.67484800  0.59960900  1
  Mg  Mg245  1  0.03348500  0.29984800  0.62044300  1
  Mg  Mg246  1  0.32515200  0.17484800  0.59960900  1
  Mg  Mg247  1  0.90372500  0.39548400  0.65595800  1
  Mg  Mg248  1  0.02971400  0.30361900  0.68482800  1
  Mg  Mg249  1  0.85451600  0.51294200  0.61429200  1
  Mg  Mg250  1  0.16324500  0.20421300  0.58492700  1
  Mg  Mg251  1  0.28725600  0.04607700  0.68105700  1
  Mg  Mg252  1  0.21245400  0.08675500  0.62659400  1
  Mg  Mg253  1  0.17931800  0.48734800  0.61002600  1
  Mg  Mg254  1  0.30431800  0.36234800  0.67252600  1
  Mg  Mg255  1  0.20203900  0.28980300  0.63712800  1
  Mg  Mg256  1  0.96806800  0.17527300  0.58365500  1
  Mg  Mg257  1  0.36435400  0.00046300  0.60754800  1
  Mg  Mg258  1  0.41853400  0.88331600  0.65037900  1
  Mg  Mg259  1  0.32705600  0.19627000  0.66815300  1
  Mg  Mg260  1  0.04586000  0.12896400  0.63829300  1
  Mg  Mg261  1  0.86493100  0.30989300  0.60375700  1
  Mg  Mg262  1  0.09890300  0.42442300  0.65723000  1
  Mg  Mg263  1  0.70261600  0.59923400  0.63333800  1
  Mg  Mg264  1  0.64843600  0.71638000  0.59050600  1
  Mg  Mg265  1  0.73991400  0.40342700  0.57273200  1
  Mg  Mg266  1  0.02111100  0.47073200  0.60259200  1
  Mg  Mg267  1  0.11681800  0.04984800  0.57877600  1
  Mg  Mg268  1  0.32515200  0.67484800  0.59960900  1
  Mg  Mg269  1  0.61681800  0.54984800  0.57877600  1
  Mg  Mg270  1  0.24181800  0.92484800  0.64127600  1
  Mg  Mg271  1  0.45015200  0.54984800  0.66210900  1
  Mg  Mg272  1  0.74181800  0.42484800  0.64127600  1
  Mg  Mg273  1  0.07039200  0.89548400  0.57262500  1
  Mg  Mg274  1  0.19638100  0.80361900  0.60149500  1
  Mg  Mg275  1  0.27118300  0.76294200  0.65595800  1
  Mg  Mg276  1  0.57991200  0.45421300  0.62659400  1
  Mg  Mg277  1  0.45392300  0.54607700  0.59772400  1
  Mg  Mg278  1  0.62912100  0.33675500  0.66826000  1
  Mg  Mg279  1  0.59598500  0.73734800  0.65169300  1
  Mg  Mg280  1  0.47098500  0.86234800  0.58919300  1
  Mg  Mg281  1  0.61870600  0.53980300  0.67879500  1
  Mg  Mg282  1  0.38473400  0.42527300  0.62532200  1
  Mg  Mg283  1  0.78102100  0.25046300  0.64921400  1
  Mg  Mg284  1  0.58520000  0.38331600  0.56704600  1
  Mg  Mg285  1  0.49372300  0.69627000  0.58482000  1
  Mg  Mg286  1  0.46252600  0.37896400  0.67996000  1
  Mg  Mg287  1  0.28159800  0.55989300  0.64542400  1
  Mg  Mg288  1  0.26556900  0.92442300  0.57389700  1
  Mg  Mg289  1  0.11928300  0.84923400  0.67500500  1
  Mg  Mg290  1  0.06510300  0.96638000  0.63217300  1
  Mg  Mg291  1  0.15658100  0.65342700  0.61439900  1
  Mg  Mg292  1  0.43777700  0.72073200  0.64425900  1
  Mg  Mg293  1  0.78348500  0.04984800  0.74544300  1
  Mg  Mg294  1  0.99181800  0.67484800  0.76627600  1
  Mg  Mg295  1  0.28348500  0.54984800  0.74544300  1
  Mg  Mg296  1  0.90848500  0.92484800  0.80794300  1
  Mg  Mg297  1  0.86681800  0.79984800  0.70377600  1
  Mg  Mg298  1  0.40848500  0.42484800  0.80794300  1
  Mg  Mg299  1  0.73705800  0.89548400  0.73929200  1
  Mg  Mg300  1  0.86304800  0.80361900  0.76816200  1
  Mg  Mg301  1  0.68785000  0.01294200  0.69762500  1
  Mg  Mg302  1  0.24657900  0.45421300  0.79326000  1
  Mg  Mg303  1  0.12058900  0.54607700  0.76439100  1
  Mg  Mg304  1  0.04578700  0.58675500  0.70992700  1
  Mg  Mg305  1  0.01265200  0.98734800  0.69335900  1
  Mg  Mg306  1  0.13765200  0.86234800  0.75585900  1
  Mg  Mg307  1  0.03537300  0.78980300  0.72046100  1
  Mg  Mg308  1  0.05140100  0.42527300  0.79198900  1
  Mg  Mg309  1  0.19768700  0.50046300  0.69088100  1
  Mg  Mg310  1  0.25186700  0.38331600  0.73371200  1
  Mg  Mg311  1  0.16039000  0.69627000  0.75148700  1
  Mg  Mg312  1  0.87919300  0.62896400  0.72162600  1
  Mg  Mg313  1  0.69826400  0.80989300  0.68709100  1
  Mg  Mg314  1  0.93223600  0.92442300  0.74056400  1
  Mg  Mg315  1  0.53595000  0.09923400  0.71667100  1
  Mg  Mg316  1  0.73177000  0.96638000  0.79884000  1
  Mg  Mg317  1  0.82324700  0.65342700  0.78106500  1
  Mg  Mg318  1  0.10444400  0.72073200  0.81092600  1
  Mg  Mg319  1  0.20015200  0.29984800  0.78710900  1
  Mg  Mg320  1  0.40848500  0.92484800  0.80794300  1
  Mg  Mg321  1  0.70015200  0.79984800  0.78710900  1
  Mg  Mg322  1  0.07515200  0.42484800  0.72460900  1
  Mg  Mg323  1  0.28348500  0.04984800  0.74544300  1
  Mg  Mg324  1  0.57515200  0.92484800  0.72460900  1
  Mg  Mg325  1  0.15372500  0.14548400  0.78095800  1
  Mg  Mg326  1  0.27971400  0.05361900  0.80982800  1
  Mg  Mg327  1  0.10451600  0.26294200  0.73929200  1
  Mg  Mg328  1  0.41324500  0.95421300  0.70992700  1
  Mg  Mg329  1  0.53725600  0.79607700  0.80605700  1
  Mg  Mg330  1  0.46245400  0.83675500  0.75159400  1
  Mg  Mg331  1  0.42931800  0.23734800  0.73502600  1
  Mg  Mg332  1  0.55431800  0.11234800  0.79752600  1
  Mg  Mg333  1  0.45203900  0.03980300  0.76212800  1
  Mg  Mg334  1  0.21806800  0.92527300  0.70865500  1
  Mg  Mg335  1  0.61435400  0.75046300  0.73254800  1
  Mg  Mg336  1  0.66853400  0.63331600  0.77537900  1
  Mg  Mg337  1  0.57705600  0.94627000  0.79315300  1
  Mg  Mg338  1  0.29586000  0.87896400  0.76329300  1
  Mg  Mg339  1  0.11493100  0.05989300  0.72875700  1
  Mg  Mg340  1  0.34890300  0.17442300  0.78223000  1
  Mg  Mg341  1  0.95261600  0.34923400  0.75833800  1
  Mg  Mg342  1  0.89843600  0.46638000  0.71550600  1
  Mg  Mg343  1  0.98991400  0.15342700  0.69773200  1
  Mg  Mg344  1  0.27111100  0.22073200  0.72759200  1
  Mg  Mg345  1  0.36681800  0.79984800  0.70377600  1
  Mg  Mg346  1  0.57515200  0.42484800  0.72460900  1
  Mg  Mg347  1  0.86681800  0.29984800  0.70377600  1
  Mg  Mg348  1  0.49181800  0.67484800  0.76627600  1
  Mg  Mg349  1  0.70015200  0.29984800  0.78710900  1
  Mg  Mg350  1  0.99181800  0.17484800  0.76627600  1
  Mg  Mg351  1  0.32039200  0.64548400  0.69762500  1
  Mg  Mg352  1  0.44638100  0.55361900  0.72649500  1
  Mg  Mg353  1  0.52118300  0.51294200  0.78095800  1
  Mg  Mg354  1  0.82991200  0.20421300  0.75159400  1
  Mg  Mg355  1  0.70392300  0.29607700  0.72272400  1
  Mg  Mg356  1  0.87912100  0.08675500  0.79326000  1
  Mg  Mg357  1  0.84598500  0.48734800  0.77669300  1
  Mg  Mg358  1  0.72098500  0.61234800  0.71419300  1
  Mg  Mg359  1  0.86870600  0.28980300  0.80379500  1
  Mg  Mg360  1  0.63473400  0.17527300  0.75032200  1
  Mg  Mg361  1  0.03102100  0.00046300  0.77421400  1
  Mg  Mg362  1  0.83520000  0.13331600  0.69204600  1
  Mg  Mg363  1  0.74372300  0.44627000  0.70982000  1
  Mg  Mg364  1  0.71252600  0.12896400  0.80496000  1
  Mg  Mg365  1  0.53159800  0.30989300  0.77042400  1
  Mg  Mg366  1  0.51556900  0.67442300  0.69889700  1
  Mg  Mg367  1  0.36928300  0.59923400  0.80000500  1
  Mg  Mg368  1  0.31510300  0.71638000  0.75717300  1
  Mg  Mg369  1  0.40658100  0.40342700  0.73939900  1
  Mg  Mg370  1  0.68777700  0.47073200  0.76925900  1
  Ir  Ir371  1  0.76414800  0.74183600  0.23577400  1
  Ir  Ir372  1  0.64064400  0.02602300  0.25436300  1
  Ir  Ir373  1  0.00816400  0.81918600  0.27744100  1
  Ir  Ir374  1  0.21948900  0.60786000  0.29677800  1
  Ir  Ir375  1  0.34299300  0.32367400  0.27818900  1
  Ir  Ir376  1  0.97547300  0.53051100  0.25511100  1
  Ir  Ir377  1  0.18081400  0.99183600  0.27744100  1
  Ir  Ir378  1  0.05731000  0.27602300  0.29603000  1
  Ir  Ir379  1  0.39214000  0.78051100  0.29677800  1
  Ir  Ir380  1  0.59149700  0.56918600  0.23577400  1
  Ir  Ir381  1  0.80282200  0.35786000  0.25511100  1
  Ir  Ir382  1  0.92632600  0.07367400  0.23652200  1
  Ir  Ir383  1  0.01414800  0.49183600  0.36077400  1
  Ir  Ir384  1  0.89064400  0.77602300  0.37936300  1
  Ir  Ir385  1  0.25816400  0.56918600  0.40244100  1
  Ir  Ir386  1  0.46948900  0.35786000  0.42177800  1
  Ir  Ir387  1  0.59299300  0.07367400  0.40318900  1
  Ir  Ir388  1  0.22547300  0.28051100  0.38011100  1
  Ir  Ir389  1  0.43081400  0.74183600  0.40244100  1
  Ir  Ir390  1  0.30731000  0.02602300  0.42103000  1
  Ir  Ir391  1  0.42483000  0.06918600  0.31910700  1
  Ir  Ir392  1  0.63615600  0.85786000  0.33844500  1
  Ir  Ir393  1  0.75966000  0.57367400  0.31985500  1
  Ir  Ir394  1  0.64214000  0.53051100  0.42177800  1
  Ir  Ir395  1  0.59748100  0.24183600  0.31910700  1
  Ir  Ir396  1  0.47397700  0.52602300  0.33769700  1
  Ir  Ir397  1  0.84149700  0.31918600  0.36077400  1
  Ir  Ir398  1  0.05282200  0.10786000  0.38011100  1
  Ir  Ir399  1  0.17632600  0.82367400  0.36152200  1
  Ir  Ir400  1  0.80880600  0.03051100  0.33844500  1
  Ir  Ir401  1  0.26414800  0.24183600  0.48577400  1
  Ir  Ir402  1  0.14064400  0.52602300  0.50436300  1
  Ir  Ir403  1  0.50816400  0.31918600  0.52744100  1
  Ir  Ir404  1  0.71948900  0.10786000  0.54677800  1
  Ir  Ir405  1  0.84299300  0.82367400  0.52818900  1
  Ir  Ir406  1  0.47547300  0.03051100  0.50511100  1
  Ir  Ir407  1  0.68081400  0.49183600  0.52744100  1
  Ir  Ir408  1  0.55731000  0.77602300  0.54603000  1
  Ir  Ir409  1  0.67483000  0.81918600  0.44410700  1
  Ir  Ir410  1  0.88615600  0.60786000  0.46344500  1
  Ir  Ir411  1  0.00966000  0.32367400  0.44485500  1
  Ir  Ir412  1  0.89214000  0.28051100  0.54677800  1
  Ir  Ir413  1  0.84748100  0.99183600  0.44410700  1
  Ir  Ir414  1  0.72397700  0.27602300  0.46269700  1
  Ir  Ir415  1  0.09149700  0.06918600  0.48577400  1
  Ir  Ir416  1  0.30282200  0.85786000  0.50511100  1
  Ir  Ir417  1  0.42632600  0.57367400  0.48652200  1
  Ir  Ir418  1  0.05880600  0.78051100  0.46344500  1
  Ir  Ir419  1  0.51414800  0.99183600  0.61077400  1
  Ir  Ir420  1  0.39064400  0.27602300  0.62936300  1
  Ir  Ir421  1  0.75816400  0.06918600  0.65244100  1
  Ir  Ir422  1  0.96948900  0.85786000  0.67177800  1
  Ir  Ir423  1  0.09299300  0.57367400  0.65318900  1
  Ir  Ir424  1  0.72547300  0.78051100  0.63011100  1
  Ir  Ir425  1  0.93081400  0.24183600  0.65244100  1
  Ir  Ir426  1  0.80731000  0.52602300  0.67103000  1
  Ir  Ir427  1  0.92483000  0.56918600  0.56910700  1
  Ir  Ir428  1  0.13615600  0.35786000  0.58844500  1
  Ir  Ir429  1  0.25966000  0.07367400  0.56985500  1
  Ir  Ir430  1  0.14214000  0.03051100  0.67177800  1
  Ir  Ir431  1  0.09748100  0.74183600  0.56910700  1
  Ir  Ir432  1  0.97397700  0.02602300  0.58769700  1
  Ir  Ir433  1  0.34149700  0.81918600  0.61077400  1
  Ir  Ir434  1  0.55282200  0.60786000  0.63011100  1
  Ir  Ir435  1  0.67632600  0.32367400  0.61152200  1
  Ir  Ir436  1  0.30880600  0.53051100  0.58844500  1
  Ir  Ir437  1  0.76414800  0.74183600  0.73577400  1
  Ir  Ir438  1  0.64064400  0.02602300  0.75436300  1
  Ir  Ir439  1  0.00816400  0.81918600  0.77744100  1
  Ir  Ir440  1  0.21948900  0.60786000  0.79677800  1
  Ir  Ir441  1  0.34299300  0.32367400  0.77818900  1
  Ir  Ir442  1  0.97547300  0.53051100  0.75511100  1
  Ir  Ir443  1  0.18081400  0.99183600  0.77744100  1
  Ir  Ir444  1  0.05731000  0.27602300  0.79603000  1
  Ir  Ir445  1  0.17483000  0.31918600  0.69410700  1
  Ir  Ir446  1  0.38615600  0.10786000  0.71344500  1
  Ir  Ir447  1  0.50966000  0.82367400  0.69485500  1
  Ir  Ir448  1  0.39214000  0.78051100  0.79677800  1
  Ir  Ir449  1  0.34748100  0.49183600  0.69410700  1
  Ir  Ir450  1  0.22397700  0.77602300  0.71269700  1
  Ir  Ir451  1  0.59149700  0.56918600  0.73577400  1
  Ir  Ir452  1  0.80282200  0.35786000  0.75511100  1
  Ir  Ir453  1  0.92632600  0.07367400  0.73652200  1
  Ir  Ir454  1  0.55880600  0.28051100  0.71344500  1
