# generated using pymatgen
data_Mg3Pd5
_symmetry_space_group_name_H-M   'P 1'
_cell_length_a   4.30853900
_cell_length_b   10.69961100
_cell_length_c   44.12876800
_cell_angle_alpha   90.00000000
_cell_angle_beta   90.00000000
_cell_angle_gamma   90.00000000
_symmetry_Int_Tables_number   1
_chemical_formula_structural   Mg3Pd5
_chemical_formula_sum   'Mg27 Pd45'
_cell_volume   2034.32258129
_cell_formula_units_Z   9
loop_
 _symmetry_equiv_pos_site_id
 _symmetry_equiv_pos_as_xyz
  1  'x, y, z'
loop_
 _atom_site_type_symbol
 _atom_site_label
 _atom_site_symmetry_multiplicity
 _atom_site_fract_x
 _atom_site_fract_y
 _atom_site_fract_z
 _atom_site_occupancy
  Mg  Mg0  1  1.00000000  0.50000000  0.28125000  1
  Mg  Mg1  1  0.00000000  0.00000000  0.21875000  1
  Mg  Mg2  1  0.50000000  0.86253400  0.26110600  1
  Mg  Mg3  1  0.50000000  0.13746600  0.30139400  1
  Mg  Mg4  1  0.50000000  0.36253400  0.23889400  1
  Mg  Mg5  1  0.50000000  0.63746600  0.19860600  1
  Mg  Mg6  1  1.00000000  0.50000000  0.40625000  1
  Mg  Mg7  1  0.00000000  0.00000000  0.34375000  1
  Mg  Mg8  1  0.50000000  0.86253400  0.38610600  1
  Mg  Mg9  1  0.50000000  0.13746600  0.42639400  1
  Mg  Mg10  1  0.50000000  0.36253400  0.36389400  1
  Mg  Mg11  1  0.50000000  0.63746600  0.32360600  1
  Mg  Mg12  1  0.00000000  0.50000000  0.53125000  1
  Mg  Mg13  1  0.00000000  0.00000000  0.46875000  1
  Mg  Mg14  1  0.50000000  0.86253400  0.51110600  1
  Mg  Mg15  1  0.50000000  0.13746600  0.55139400  1
  Mg  Mg16  1  0.50000000  0.36253400  0.48889400  1
  Mg  Mg17  1  0.50000000  0.63746600  0.44860600  1
  Mg  Mg18  1  0.00000000  0.50000000  0.65625000  1
  Mg  Mg19  1  0.00000000  0.00000000  0.59375000  1
  Mg  Mg20  1  0.50000000  0.86253400  0.63610600  1
  Mg  Mg21  1  0.50000000  0.13746600  0.67639400  1
  Mg  Mg22  1  0.50000000  0.36253400  0.61389400  1
  Mg  Mg23  1  0.50000000  0.63746600  0.57360600  1
  Mg  Mg24  1  0.00000000  0.00000000  0.71875000  1
  Mg  Mg25  1  0.50000000  0.36253400  0.73889400  1
  Mg  Mg26  1  0.50000000  0.63746600  0.69860600  1
  Pd  Pd27  1  0.50000000  0.61114300  0.25941200  1
  Pd  Pd28  1  0.50000000  0.38885700  0.30308800  1
  Pd  Pd29  1  0.50000000  0.11114300  0.24058800  1
  Pd  Pd30  1  0.50000000  0.88885700  0.19691200  1
  Pd  Pd31  1  0.00000000  0.75616100  0.23268000  1
  Pd  Pd32  1  0.00000000  0.24383900  0.20482000  1
  Pd  Pd33  1  0.00000000  0.25616100  0.26732000  1
  Pd  Pd34  1  0.00000000  0.74383900  0.29518000  1
  Pd  Pd35  1  0.00000000  0.00000000  0.28125000  1
  Pd  Pd36  1  1.00000000  0.50000000  0.21875000  1
  Pd  Pd37  1  0.50000000  0.61114300  0.38441200  1
  Pd  Pd38  1  0.50000000  0.38885700  0.42808800  1
  Pd  Pd39  1  0.50000000  0.11114300  0.36558800  1
  Pd  Pd40  1  0.50000000  0.88885700  0.32191200  1
  Pd  Pd41  1  0.00000000  0.75616100  0.35768000  1
  Pd  Pd42  1  0.00000000  0.24383900  0.32982000  1
  Pd  Pd43  1  0.00000000  0.25616100  0.39232000  1
  Pd  Pd44  1  0.00000000  0.74383900  0.42018000  1
  Pd  Pd45  1  1.00000000  0.00000000  0.40625000  1
  Pd  Pd46  1  0.00000000  0.50000000  0.34375000  1
  Pd  Pd47  1  0.50000000  0.61114300  0.50941200  1
  Pd  Pd48  1  0.50000000  0.38885700  0.55308800  1
  Pd  Pd49  1  0.50000000  0.11114300  0.49058800  1
  Pd  Pd50  1  0.50000000  0.88885700  0.44691200  1
  Pd  Pd51  1  0.00000000  0.75616100  0.48268000  1
  Pd  Pd52  1  1.00000000  0.24383900  0.45482000  1
  Pd  Pd53  1  0.00000000  0.25616100  0.51732000  1
  Pd  Pd54  1  0.00000000  0.74383900  0.54518000  1
  Pd  Pd55  1  0.00000000  0.00000000  0.53125000  1
  Pd  Pd56  1  1.00000000  0.50000000  0.46875000  1
  Pd  Pd57  1  0.50000000  0.61114300  0.63441200  1
  Pd  Pd58  1  0.50000000  0.38885700  0.67808800  1
  Pd  Pd59  1  0.50000000  0.11114300  0.61558800  1
  Pd  Pd60  1  0.50000000  0.88885700  0.57191200  1
  Pd  Pd61  1  0.00000000  0.75616100  0.60768000  1
  Pd  Pd62  1  0.00000000  0.24383900  0.57982000  1
  Pd  Pd63  1  0.00000000  0.25616100  0.64232000  1
  Pd  Pd64  1  0.00000000  0.74383900  0.67018000  1
  Pd  Pd65  1  0.00000000  0.00000000  0.65625000  1
  Pd  Pd66  1  0.00000000  0.50000000  0.59375000  1
  Pd  Pd67  1  0.50000000  0.11114300  0.74058800  1
  Pd  Pd68  1  0.50000000  0.88885700  0.69691200  1
  Pd  Pd69  1  0.00000000  0.75616100  0.73268000  1
  Pd  Pd70  1  0.00000000  0.24383900  0.70482000  1
  Pd  Pd71  1  1.00000000  0.50000000  0.71875000  1
