# generated using pymatgen
data_Mg56Zn103
_symmetry_space_group_name_H-M   'P 1'
_cell_length_a   15.05205970
_cell_length_b   15.53344962
_cell_length_c   44.08704400
_cell_angle_alpha   96.16286714
_cell_angle_beta   84.01794547
_cell_angle_gamma   68.44884142
_symmetry_Int_Tables_number   1
_chemical_formula_structural   Mg56Zn103
_chemical_formula_sum   'Mg112 Zn206'
_cell_volume   9416.24976546
_cell_formula_units_Z   2
loop_
 _symmetry_equiv_pos_site_id
 _symmetry_equiv_pos_as_xyz
  1  'x, y, z'
loop_
 _atom_site_type_symbol
 _atom_site_label
 _atom_site_symmetry_multiplicity
 _atom_site_fract_x
 _atom_site_fract_y
 _atom_site_fract_z
 _atom_site_occupancy
  Mg  Mg0  1  0.81201300  0.16318700  0.26659200  1
  Mg  Mg1  1  0.16528900  0.38262900  0.29964000  1
  Mg  Mg2  1  0.68950400  0.72740700  0.28331000  1
  Mg  Mg3  1  0.98264900  0.14235800  0.30236100  1
  Mg  Mg4  1  0.01971700  0.44824300  0.25398300  1
  Mg  Mg5  1  0.57456000  0.97475600  0.20639400  1
  Mg  Mg6  1  0.80375200  0.50867200  0.28880200  1
  Mg  Mg7  1  0.18836300  0.02865400  0.27582100  1
  Mg  Mg8  1  0.69990100  0.38035300  0.26012300  1
  Mg  Mg9  1  0.05129500  0.62276900  0.22419900  1
  Mg  Mg10  1  0.48150800  0.44360400  0.29487200  1
  Mg  Mg11  1  0.37111000  0.69065800  0.21805900  1
  Mg  Mg12  1  0.03742400  0.11890400  0.22740100  1
  Mg  Mg13  1  0.68995000  0.75718200  0.21193800  1
  Mg  Mg14  1  0.38106200  0.31382900  0.26624400  1
  Mg  Mg15  1  0.36726000  0.66233900  0.28938000  1
  Mg  Mg16  1  0.25899900  0.90782500  0.21159000  1
  Mg  Mg17  1  0.49645100  0.09625600  0.27178800  1
  Mg  Mg18  1  0.00572300  0.78838200  0.27854200  1
  Mg  Mg19  1  0.03358700  0.95210800  0.25078100  1
  Mg  Mg20  1  0.91201300  0.26318700  0.36659200  1
  Mg  Mg21  1  0.26528900  0.48262900  0.39964000  1
  Mg  Mg22  1  0.78950400  0.82740700  0.38331000  1
  Mg  Mg23  1  0.08264900  0.24235800  0.40236100  1
  Mg  Mg24  1  0.11971700  0.54824300  0.35398300  1
  Mg  Mg25  1  0.67456000  0.07475600  0.30639400  1
  Mg  Mg26  1  0.90375200  0.60867200  0.38880200  1
  Mg  Mg27  1  0.28836300  0.12865400  0.37582100  1
  Mg  Mg28  1  0.79990100  0.48035300  0.36012300  1
  Mg  Mg29  1  0.15129500  0.72276900  0.32419900  1
  Mg  Mg30  1  0.58150800  0.54360400  0.39487200  1
  Mg  Mg31  1  0.47111000  0.79065800  0.31805900  1
  Mg  Mg32  1  0.13742400  0.21890400  0.32740100  1
  Mg  Mg33  1  0.78995000  0.85718200  0.31193800  1
  Mg  Mg34  1  0.48106200  0.41382900  0.36624400  1
  Mg  Mg35  1  0.46726000  0.76233900  0.38938000  1
  Mg  Mg36  1  0.35899900  0.00782500  0.31159000  1
  Mg  Mg37  1  0.59645100  0.19625600  0.37178800  1
  Mg  Mg38  1  0.10572300  0.88838200  0.37854200  1
  Mg  Mg39  1  0.13358700  0.05210800  0.35078100  1
  Mg  Mg40  1  0.01201300  0.36318700  0.46659200  1
  Mg  Mg41  1  0.36528900  0.58262900  0.49964000  1
  Mg  Mg42  1  0.88950400  0.92740700  0.48331000  1
  Mg  Mg43  1  0.18264900  0.34235800  0.50236100  1
  Mg  Mg44  1  0.21971700  0.64824300  0.45398300  1
  Mg  Mg45  1  0.77456000  0.17475600  0.40639400  1
  Mg  Mg46  1  0.00375200  0.70867200  0.48880200  1
  Mg  Mg47  1  0.38836300  0.22865400  0.47582100  1
  Mg  Mg48  1  0.89990100  0.58035300  0.46012300  1
  Mg  Mg49  1  0.25129500  0.82276900  0.42419900  1
  Mg  Mg50  1  0.68150800  0.64360400  0.49487200  1
  Mg  Mg51  1  0.57111000  0.89065800  0.41805900  1
  Mg  Mg52  1  0.23742400  0.31890400  0.42740100  1
  Mg  Mg53  1  0.88995000  0.95718200  0.41193800  1
  Mg  Mg54  1  0.58106200  0.51382900  0.46624400  1
  Mg  Mg55  1  0.56726000  0.86233900  0.48938000  1
  Mg  Mg56  1  0.45899900  0.10782500  0.41159000  1
  Mg  Mg57  1  0.69645100  0.29625600  0.47178800  1
  Mg  Mg58  1  0.20572300  0.98838200  0.47854200  1
  Mg  Mg59  1  0.23358700  0.15210800  0.45078100  1
  Mg  Mg60  1  0.11201300  0.46318700  0.56659200  1
  Mg  Mg61  1  0.46528900  0.68262900  0.59964000  1
  Mg  Mg62  1  0.98950400  0.02740700  0.58331000  1
  Mg  Mg63  1  0.28264900  0.44235800  0.60236100  1
  Mg  Mg64  1  0.31971700  0.74824300  0.55398300  1
  Mg  Mg65  1  0.87456000  0.27475600  0.50639400  1
  Mg  Mg66  1  0.10375200  0.80867200  0.58880200  1
  Mg  Mg67  1  0.48836300  0.32865400  0.57582100  1
  Mg  Mg68  1  0.99990100  0.68035300  0.56012300  1
  Mg  Mg69  1  0.35129500  0.92276900  0.52419900  1
  Mg  Mg70  1  0.78150800  0.74360400  0.59487200  1
  Mg  Mg71  1  0.67111000  0.99065800  0.51805900  1
  Mg  Mg72  1  0.33742400  0.41890400  0.52740100  1
  Mg  Mg73  1  0.98995000  0.05718200  0.51193800  1
  Mg  Mg74  1  0.68106200  0.61382900  0.56624400  1
  Mg  Mg75  1  0.66726000  0.96233900  0.58938000  1
  Mg  Mg76  1  0.55899900  0.20782500  0.51159000  1
  Mg  Mg77  1  0.79645100  0.39625600  0.57178800  1
  Mg  Mg78  1  0.30572300  0.08838200  0.57854200  1
  Mg  Mg79  1  0.33358700  0.25210800  0.55078100  1
  Mg  Mg80  1  0.21201300  0.56318700  0.66659200  1
  Mg  Mg81  1  0.56528900  0.78262900  0.69964000  1
  Mg  Mg82  1  0.08950400  0.12740700  0.68331000  1
  Mg  Mg83  1  0.38264900  0.54235800  0.70236100  1
  Mg  Mg84  1  0.41971700  0.84824300  0.65398300  1
  Mg  Mg85  1  0.97456000  0.37475600  0.60639400  1
  Mg  Mg86  1  0.20375200  0.90867200  0.68880200  1
  Mg  Mg87  1  0.58836300  0.42865400  0.67582100  1
  Mg  Mg88  1  0.09990100  0.78035300  0.66012300  1
  Mg  Mg89  1  0.45129500  0.02276900  0.62419900  1
  Mg  Mg90  1  0.88150800  0.84360400  0.69487200  1
  Mg  Mg91  1  0.77111000  0.09065800  0.61805900  1
  Mg  Mg92  1  0.43742400  0.51890400  0.62740100  1
  Mg  Mg93  1  0.08995000  0.15718200  0.61193800  1
  Mg  Mg94  1  0.78106200  0.71382900  0.66624400  1
  Mg  Mg95  1  0.76726000  0.06233900  0.68938000  1
  Mg  Mg96  1  0.65899900  0.30782500  0.61159000  1
  Mg  Mg97  1  0.89645100  0.49625600  0.67178800  1
  Mg  Mg98  1  0.40572300  0.18838200  0.67854200  1
  Mg  Mg99  1  0.43358700  0.35210800  0.65078100  1
  Mg  Mg100  1  0.31201300  0.66318700  0.76659200  1
  Mg  Mg101  1  0.51971700  0.94824300  0.75398300  1
  Mg  Mg102  1  0.07456000  0.47475600  0.70639400  1
  Mg  Mg103  1  0.19990100  0.88035300  0.76012300  1
  Mg  Mg104  1  0.55129500  0.12276900  0.72419900  1
  Mg  Mg105  1  0.87111000  0.19065800  0.71805900  1
  Mg  Mg106  1  0.53742400  0.61890400  0.72740100  1
  Mg  Mg107  1  0.18995000  0.25718200  0.71193800  1
  Mg  Mg108  1  0.88106200  0.81382900  0.76624400  1
  Mg  Mg109  1  0.75899900  0.40782500  0.71159000  1
  Mg  Mg110  1  0.99645100  0.59625600  0.77178800  1
  Mg  Mg111  1  0.53358700  0.45210800  0.75078100  1
  Zn  Zn112  1  0.86614900  0.42465400  0.22052900  1
  Zn  Zn113  1  0.09756500  0.24442000  0.26539300  1
  Zn  Zn114  1  0.53869300  0.36225200  0.22868900  1
  Zn  Zn115  1  0.20829800  0.81525600  0.26715100  1
  Zn  Zn116  1  0.21947800  0.46414900  0.24449800  1
  Zn  Zn117  1  0.91571400  0.30588500  0.25993800  1
  Zn  Zn118  1  0.58550600  0.58550600  0.28909100  1
  Zn  Zn119  1  0.20486200  0.64635700  0.25765300  1
  Zn  Zn120  1  0.39059900  0.15272600  0.21921700  1
  Zn  Zn121  1  0.90056000  0.65638000  0.28308800  1
  Zn  Zn122  1  0.54385500  0.18850500  0.21656700  1
  Zn  Zn123  1  0.69172800  0.06972000  0.23650100  1
  Zn  Zn124  1  0.69568700  0.56634700  0.23633100  1
  Zn  Zn125  1  0.85031500  0.77387300  0.24508100  1
  Zn  Zn126  1  0.97344600  0.82659100  0.21278900  1
  Zn  Zn127  1  0.68041200  0.91828600  0.25896500  1
  Zn  Zn128  1  0.84143900  0.95348500  0.25672700  1
  Zn  Zn129  1  0.27045100  0.51463200  0.29509400  1
  Zn  Zn130  1  0.15529700  0.76512700  0.21824300  1
  Zn  Zn131  1  0.37532400  0.50466400  0.24185100  1
  Zn  Zn132  1  0.22957300  0.11752600  0.22145400  1
  Zn  Zn133  1  0.85153300  0.60686200  0.23368400  1
  Zn  Zn134  1  0.53550600  0.53550600  0.23909100  1
  Zn  Zn135  1  0.70596100  0.22429800  0.21242100  1
  Zn  Zn136  1  0.59303500  0.23866400  0.26725100  1
  Zn  Zn137  1  0.79216200  0.90338600  0.20480900  1
  Zn  Zn138  1  0.36505100  0.84671300  0.26576100  1
  Zn  Zn139  1  0.27884900  0.16762600  0.27337200  1
  Zn  Zn140  1  0.22069700  0.29713800  0.23310100  1
  Zn  Zn141  1  0.47797700  0.83234800  0.21093100  1
  Zn  Zn142  1  0.86271300  0.25575600  0.21103000  1
  Zn  Zn143  1  0.08550600  0.58550600  0.28909100  1
  Zn  Zn144  1  0.52715600  0.88250600  0.26161500  1
  Zn  Zn145  1  0.37928300  0.00129200  0.24168100  1
  Zn  Zn146  1  0.53231900  0.70876000  0.24949300  1
  Zn  Zn147  1  0.96614900  0.52465400  0.32052900  1
  Zn  Zn148  1  0.19756500  0.34442000  0.36539300  1
  Zn  Zn149  1  0.63869300  0.46225200  0.32868900  1
  Zn  Zn150  1  0.30829800  0.91525600  0.36715100  1
  Zn  Zn151  1  0.31947800  0.56414900  0.34449800  1
  Zn  Zn152  1  0.01571400  0.40588500  0.35993800  1
  Zn  Zn153  1  0.68550600  0.68550600  0.38909100  1
  Zn  Zn154  1  0.30486200  0.74635700  0.35765300  1
  Zn  Zn155  1  0.49059900  0.25272600  0.31921700  1
  Zn  Zn156  1  0.00056000  0.75638000  0.38308800  1
  Zn  Zn157  1  0.64385500  0.28850500  0.31656700  1
  Zn  Zn158  1  0.79172800  0.16972000  0.33650100  1
  Zn  Zn159  1  0.79568700  0.66634700  0.33633100  1
  Zn  Zn160  1  0.95031500  0.87387300  0.34508100  1
  Zn  Zn161  1  0.07344600  0.92659100  0.31278900  1
  Zn  Zn162  1  0.78041200  0.01828600  0.35896500  1
  Zn  Zn163  1  0.94143900  0.05348500  0.35672700  1
  Zn  Zn164  1  0.37045100  0.61463200  0.39509400  1
  Zn  Zn165  1  0.25529700  0.86512700  0.31824300  1
  Zn  Zn166  1  0.47532400  0.60466400  0.34185100  1
  Zn  Zn167  1  0.32957300  0.21752600  0.32145400  1
  Zn  Zn168  1  0.95153300  0.70686200  0.33368400  1
  Zn  Zn169  1  0.63550600  0.63550600  0.33909100  1
  Zn  Zn170  1  0.80596100  0.32429800  0.31242100  1
  Zn  Zn171  1  0.69303500  0.33866400  0.36725100  1
  Zn  Zn172  1  0.89216200  0.00338600  0.30480900  1
  Zn  Zn173  1  0.46505100  0.94671300  0.36576100  1
  Zn  Zn174  1  0.37884900  0.26762600  0.37337200  1
  Zn  Zn175  1  0.32069700  0.39713800  0.33310100  1
  Zn  Zn176  1  0.57797700  0.93234800  0.31093100  1
  Zn  Zn177  1  0.96271300  0.35575600  0.31103000  1
  Zn  Zn178  1  0.18550600  0.68550600  0.38909100  1
  Zn  Zn179  1  0.62715600  0.98250600  0.36161500  1
  Zn  Zn180  1  0.47928300  0.10129200  0.34168100  1
  Zn  Zn181  1  0.63231900  0.80876000  0.34949300  1
  Zn  Zn182  1  0.06614900  0.62465400  0.42052900  1
  Zn  Zn183  1  0.29756500  0.44442000  0.46539300  1
  Zn  Zn184  1  0.73869300  0.56225200  0.42868900  1
  Zn  Zn185  1  0.40829800  0.01525600  0.46715100  1
  Zn  Zn186  1  0.41947800  0.66414900  0.44449800  1
  Zn  Zn187  1  0.11571400  0.50588500  0.45993800  1
  Zn  Zn188  1  0.78550600  0.78550600  0.48909100  1
  Zn  Zn189  1  0.40486200  0.84635700  0.45765300  1
  Zn  Zn190  1  0.59059900  0.35272600  0.41921700  1
  Zn  Zn191  1  0.10056000  0.85638000  0.48308800  1
  Zn  Zn192  1  0.74385500  0.38850500  0.41656700  1
  Zn  Zn193  1  0.89172800  0.26972000  0.43650100  1
  Zn  Zn194  1  0.89568700  0.76634700  0.43633100  1
  Zn  Zn195  1  0.05031500  0.97387300  0.44508100  1
  Zn  Zn196  1  0.17344600  0.02659100  0.41278900  1
  Zn  Zn197  1  0.88041200  0.11828600  0.45896500  1
  Zn  Zn198  1  0.04143900  0.15348500  0.45672700  1
  Zn  Zn199  1  0.47045100  0.71463200  0.49509400  1
  Zn  Zn200  1  0.35529700  0.96512700  0.41824300  1
  Zn  Zn201  1  0.57532400  0.70466400  0.44185100  1
  Zn  Zn202  1  0.42957300  0.31752600  0.42145400  1
  Zn  Zn203  1  0.05153300  0.80686200  0.43368400  1
  Zn  Zn204  1  0.73550600  0.73550600  0.43909100  1
  Zn  Zn205  1  0.90596100  0.42429800  0.41242100  1
  Zn  Zn206  1  0.79303500  0.43866400  0.46725100  1
  Zn  Zn207  1  0.99216200  0.10338600  0.40480900  1
  Zn  Zn208  1  0.56505100  0.04671300  0.46576100  1
  Zn  Zn209  1  0.47884900  0.36762600  0.47337200  1
  Zn  Zn210  1  0.42069700  0.49713800  0.43310100  1
  Zn  Zn211  1  0.67797700  0.03234800  0.41093100  1
  Zn  Zn212  1  0.06271300  0.45575600  0.41103000  1
  Zn  Zn213  1  0.28550600  0.78550600  0.48909100  1
  Zn  Zn214  1  0.72715600  0.08250600  0.46161500  1
  Zn  Zn215  1  0.57928300  0.20129200  0.44168100  1
  Zn  Zn216  1  0.73231900  0.90876000  0.44949300  1
  Zn  Zn217  1  0.16614900  0.72465400  0.52052900  1
  Zn  Zn218  1  0.39756500  0.54442000  0.56539300  1
  Zn  Zn219  1  0.83869300  0.66225200  0.52868900  1
  Zn  Zn220  1  0.50829800  0.11525600  0.56715100  1
  Zn  Zn221  1  0.51947800  0.76414900  0.54449800  1
  Zn  Zn222  1  0.21571400  0.60588500  0.55993800  1
  Zn  Zn223  1  0.88550600  0.88550600  0.58909100  1
  Zn  Zn224  1  0.50486200  0.94635700  0.55765300  1
  Zn  Zn225  1  0.69059900  0.45272600  0.51921700  1
  Zn  Zn226  1  0.20056000  0.95638000  0.58308800  1
  Zn  Zn227  1  0.84385500  0.48850500  0.51656700  1
  Zn  Zn228  1  0.99172800  0.36972000  0.53650100  1
  Zn  Zn229  1  0.99568700  0.86634700  0.53633100  1
  Zn  Zn230  1  0.15031500  0.07387300  0.54508100  1
  Zn  Zn231  1  0.27344600  0.12659100  0.51278900  1
  Zn  Zn232  1  0.98041200  0.21828600  0.55896500  1
  Zn  Zn233  1  0.14143900  0.25348500  0.55672700  1
  Zn  Zn234  1  0.57045100  0.81463200  0.59509400  1
  Zn  Zn235  1  0.45529700  0.06512700  0.51824300  1
  Zn  Zn236  1  0.67532400  0.80466400  0.54185100  1
  Zn  Zn237  1  0.52957300  0.41752600  0.52145400  1
  Zn  Zn238  1  0.15153300  0.90686200  0.53368400  1
  Zn  Zn239  1  0.83550600  0.83550600  0.53909100  1
  Zn  Zn240  1  0.00596100  0.52429800  0.51242100  1
  Zn  Zn241  1  0.89303500  0.53866400  0.56725100  1
  Zn  Zn242  1  0.09216200  0.20338600  0.50480900  1
  Zn  Zn243  1  0.66505100  0.14671300  0.56576100  1
  Zn  Zn244  1  0.57884900  0.46762600  0.57337200  1
  Zn  Zn245  1  0.52069700  0.59713800  0.53310100  1
  Zn  Zn246  1  0.77797700  0.13234800  0.51093100  1
  Zn  Zn247  1  0.16271300  0.55575600  0.51103000  1
  Zn  Zn248  1  0.38550600  0.88550600  0.58909100  1
  Zn  Zn249  1  0.82715600  0.18250600  0.56161500  1
  Zn  Zn250  1  0.67928300  0.30129200  0.54168100  1
  Zn  Zn251  1  0.83231900  0.00876000  0.54949300  1
  Zn  Zn252  1  0.26614900  0.82465400  0.62052900  1
  Zn  Zn253  1  0.49756500  0.64442000  0.66539300  1
  Zn  Zn254  1  0.93869300  0.76225200  0.62868900  1
  Zn  Zn255  1  0.60829800  0.21525600  0.66715100  1
  Zn  Zn256  1  0.61947800  0.86414900  0.64449800  1
  Zn  Zn257  1  0.31571400  0.70588500  0.65993800  1
  Zn  Zn258  1  0.98550600  0.98550600  0.68909100  1
  Zn  Zn259  1  0.60486200  0.04635700  0.65765300  1
  Zn  Zn260  1  0.79059900  0.55272600  0.61921700  1
  Zn  Zn261  1  0.30056000  0.05638000  0.68308800  1
  Zn  Zn262  1  0.94385500  0.58850500  0.61656700  1
  Zn  Zn263  1  0.09172800  0.46972000  0.63650100  1
  Zn  Zn264  1  0.09568700  0.96634700  0.63633100  1
  Zn  Zn265  1  0.25031500  0.17387300  0.64508100  1
  Zn  Zn266  1  0.37344600  0.22659100  0.61278900  1
  Zn  Zn267  1  0.08041200  0.31828600  0.65896500  1
  Zn  Zn268  1  0.24143900  0.35348500  0.65672700  1
  Zn  Zn269  1  0.67045100  0.91463200  0.69509400  1
  Zn  Zn270  1  0.55529700  0.16512700  0.61824300  1
  Zn  Zn271  1  0.77532400  0.90466400  0.64185100  1
  Zn  Zn272  1  0.62957300  0.51752600  0.62145400  1
  Zn  Zn273  1  0.25153300  0.00686200  0.63368400  1
  Zn  Zn274  1  0.93550600  0.93550600  0.63909100  1
  Zn  Zn275  1  0.10596100  0.62429800  0.61242100  1
  Zn  Zn276  1  0.99303500  0.63866400  0.66725100  1
  Zn  Zn277  1  0.19216200  0.30338600  0.60480900  1
  Zn  Zn278  1  0.76505100  0.24671300  0.66576100  1
  Zn  Zn279  1  0.67884900  0.56762600  0.67337200  1
  Zn  Zn280  1  0.62069700  0.69713800  0.63310100  1
  Zn  Zn281  1  0.87797700  0.23234800  0.61093100  1
  Zn  Zn282  1  0.26271300  0.65575600  0.61103000  1
  Zn  Zn283  1  0.48550600  0.98550600  0.68909100  1
  Zn  Zn284  1  0.92715600  0.28250600  0.66161500  1
  Zn  Zn285  1  0.77928300  0.40129200  0.64168100  1
  Zn  Zn286  1  0.93231900  0.10876000  0.64949300  1
  Zn  Zn287  1  0.36614900  0.92465400  0.72052900  1
  Zn  Zn288  1  0.59756500  0.74442000  0.76539300  1
  Zn  Zn289  1  0.03869300  0.86225200  0.72868900  1
  Zn  Zn290  1  0.70829800  0.31525600  0.76715100  1
  Zn  Zn291  1  0.71947800  0.96414900  0.74449800  1
  Zn  Zn292  1  0.41571400  0.80588500  0.75993800  1
  Zn  Zn293  1  0.70486200  0.14635700  0.75765300  1
  Zn  Zn294  1  0.89059900  0.65272600  0.71921700  1
  Zn  Zn295  1  0.04385500  0.68850500  0.71656700  1
  Zn  Zn296  1  0.19172800  0.56972000  0.73650100  1
  Zn  Zn297  1  0.19568700  0.06634700  0.73633100  1
  Zn  Zn298  1  0.35031500  0.27387300  0.74508100  1
  Zn  Zn299  1  0.47344600  0.32659100  0.71278900  1
  Zn  Zn300  1  0.18041200  0.41828600  0.75896500  1
  Zn  Zn301  1  0.34143900  0.45348500  0.75672700  1
  Zn  Zn302  1  0.65529700  0.26512700  0.71824300  1
  Zn  Zn303  1  0.87532400  0.00466400  0.74185100  1
  Zn  Zn304  1  0.72957300  0.61752600  0.72145400  1
  Zn  Zn305  1  0.35153300  0.10686200  0.73368400  1
  Zn  Zn306  1  0.03550600  0.03550600  0.73909100  1
  Zn  Zn307  1  0.20596100  0.72429800  0.71242100  1
  Zn  Zn308  1  0.09303500  0.73866400  0.76725100  1
  Zn  Zn309  1  0.29216200  0.40338600  0.70480900  1
  Zn  Zn310  1  0.86505100  0.34671300  0.76576100  1
  Zn  Zn311  1  0.77884900  0.66762600  0.77337200  1
  Zn  Zn312  1  0.72069700  0.79713800  0.73310100  1
  Zn  Zn313  1  0.97797700  0.33234800  0.71093100  1
  Zn  Zn314  1  0.36271300  0.75575600  0.71103000  1
  Zn  Zn315  1  0.02715600  0.38250600  0.76161500  1
  Zn  Zn316  1  0.87928300  0.50129200  0.74168100  1
  Zn  Zn317  1  0.03231900  0.20876000  0.74949300  1
