# generated using pymatgen
data_Mg59Zn103
_symmetry_space_group_name_H-M   'P 1'
_cell_length_a   13.26606209
_cell_length_b   14.70723619
_cell_length_c   50.02254400
_cell_angle_alpha   94.04592358
_cell_angle_beta   85.51984715
_cell_angle_gamma   104.27395804
_symmetry_Int_Tables_number   1
_chemical_formula_structural   Mg59Zn103
_chemical_formula_sum   'Mg118 Zn206'
_cell_volume   9416.24948960
_cell_formula_units_Z   2
loop_
 _symmetry_equiv_pos_site_id
 _symmetry_equiv_pos_as_xyz
  1  'x, y, z'
loop_
 _atom_site_type_symbol
 _atom_site_label
 _atom_site_symmetry_multiplicity
 _atom_site_fract_x
 _atom_site_fract_y
 _atom_site_fract_z
 _atom_site_occupancy
  Mg  Mg0  1  0.65949000  0.89982000  0.29303500  1
  Mg  Mg1  1  0.06342900  0.71342500  0.20932500  1
  Mg  Mg2  1  0.57780900  0.35231700  0.23549000  1
  Mg  Mg3  1  0.83795300  0.95641800  0.24943900  1
  Mg  Mg4  1  0.91899200  0.60215500  0.25384600  1
  Mg  Mg5  1  0.49148900  0.02805300  0.28378200  1
  Mg  Mg6  1  0.68051000  0.57654400  0.24154500  1
  Mg  Mg7  1  0.05817600  0.04358200  0.26147000  1
  Mg  Mg8  1  0.55917800  0.67618400  0.28770500  1
  Mg  Mg9  1  0.97713800  0.39784500  0.25706300  1
  Mg  Mg10  1  0.31832100  0.64768300  0.27542000  1
  Mg  Mg11  1  0.33695200  0.32381600  0.22320400  1
  Mg  Mg12  1  0.59555100  0.25117100  0.28956500  1
  Mg  Mg13  1  0.30057800  0.74882900  0.22134400  1
  Mg  Mg14  1  0.21562000  0.42345600  0.26936400  1
  Mg  Mg15  1  0.23663900  0.10018000  0.21787400  1
  Mg  Mg16  1  0.40464000  0.97194700  0.22712800  1
  Mg  Mg17  1  0.83270100  0.28657500  0.30158400  1
  Mg  Mg18  1  0.55949000  0.89982000  0.39303500  1
  Mg  Mg19  1  0.96342900  0.71342500  0.30932500  1
  Mg  Mg20  1  0.47780900  0.35231700  0.33549000  1
  Mg  Mg21  1  0.73795300  0.95641800  0.34943900  1
  Mg  Mg22  1  0.81899200  0.60215500  0.35384600  1
  Mg  Mg23  1  0.39148900  0.02805300  0.38378200  1
  Mg  Mg24  1  0.58051000  0.57654400  0.34154500  1
  Mg  Mg25  1  0.95817600  0.04358200  0.36147000  1
  Mg  Mg26  1  0.45917800  0.67618400  0.38770500  1
  Mg  Mg27  1  0.87713800  0.39784500  0.35706300  1
  Mg  Mg28  1  0.21832100  0.64768300  0.37542000  1
  Mg  Mg29  1  0.23695200  0.32381600  0.32320400  1
  Mg  Mg30  1  0.91085300  0.90491200  0.30627500  1
  Mg  Mg31  1  0.49555100  0.25117100  0.38956500  1
  Mg  Mg32  1  0.20057800  0.74882900  0.32134400  1
  Mg  Mg33  1  0.11562000  0.42345600  0.36936400  1
  Mg  Mg34  1  0.13663900  0.10018000  0.31787400  1
  Mg  Mg35  1  0.30464000  0.97194700  0.32712800  1
  Mg  Mg36  1  0.73270100  0.28657500  0.40158400  1
  Mg  Mg37  1  0.88527600  0.09508800  0.30463400  1
  Mg  Mg38  1  0.45949000  0.89982000  0.49303500  1
  Mg  Mg39  1  0.86342900  0.71342500  0.40932500  1
  Mg  Mg40  1  0.37780900  0.35231700  0.43549000  1
  Mg  Mg41  1  0.63795300  0.95641800  0.44943900  1
  Mg  Mg42  1  0.71899200  0.60215500  0.45384600  1
  Mg  Mg43  1  0.29148900  0.02805300  0.48378200  1
  Mg  Mg44  1  0.48051000  0.57654400  0.44154500  1
  Mg  Mg45  1  0.85817600  0.04358200  0.46147000  1
  Mg  Mg46  1  0.35917800  0.67618400  0.48770500  1
  Mg  Mg47  1  0.77713800  0.39784500  0.45706300  1
  Mg  Mg48  1  0.11832100  0.64768300  0.47542000  1
  Mg  Mg49  1  0.13695200  0.32381600  0.42320400  1
  Mg  Mg50  1  0.81085300  0.90491200  0.40627500  1
  Mg  Mg51  1  0.39555100  0.25117100  0.48956500  1
  Mg  Mg52  1  0.10057800  0.74882900  0.42134400  1
  Mg  Mg53  1  0.01562000  0.42345600  0.46936400  1
  Mg  Mg54  1  0.03663900  0.10018000  0.41787400  1
  Mg  Mg55  1  0.20464000  0.97194700  0.42712800  1
  Mg  Mg56  1  0.63270100  0.28657500  0.50158400  1
  Mg  Mg57  1  0.78527600  0.09508800  0.40463400  1
  Mg  Mg58  1  0.35949000  0.89982000  0.59303500  1
  Mg  Mg59  1  0.76342900  0.71342500  0.50932500  1
  Mg  Mg60  1  0.27780900  0.35231700  0.53549000  1
  Mg  Mg61  1  0.53795300  0.95641800  0.54943900  1
  Mg  Mg62  1  0.61899200  0.60215500  0.55384600  1
  Mg  Mg63  1  0.19148900  0.02805300  0.58378200  1
  Mg  Mg64  1  0.38051000  0.57654400  0.54154500  1
  Mg  Mg65  1  0.75817600  0.04358200  0.56147000  1
  Mg  Mg66  1  0.25917800  0.67618400  0.58770500  1
  Mg  Mg67  1  0.67713800  0.39784500  0.55706300  1
  Mg  Mg68  1  0.01832100  0.64768300  0.57542000  1
  Mg  Mg69  1  0.03695200  0.32381600  0.52320400  1
  Mg  Mg70  1  0.71085300  0.90491200  0.50627500  1
  Mg  Mg71  1  0.29555100  0.25117100  0.58956500  1
  Mg  Mg72  1  0.00057800  0.74882900  0.52134400  1
  Mg  Mg73  1  0.91562000  0.42345600  0.56936400  1
  Mg  Mg74  1  0.93663900  0.10018000  0.51787400  1
  Mg  Mg75  1  0.10464000  0.97194700  0.52712800  1
  Mg  Mg76  1  0.53270100  0.28657500  0.60158400  1
  Mg  Mg77  1  0.68527600  0.09508800  0.50463400  1
  Mg  Mg78  1  0.25949000  0.89982000  0.69303500  1
  Mg  Mg79  1  0.66342900  0.71342500  0.60932500  1
  Mg  Mg80  1  0.17780900  0.35231700  0.63549000  1
  Mg  Mg81  1  0.43795300  0.95641800  0.64943900  1
  Mg  Mg82  1  0.51899200  0.60215500  0.65384600  1
  Mg  Mg83  1  0.09148900  0.02805300  0.68378200  1
  Mg  Mg84  1  0.28051000  0.57654400  0.64154500  1
  Mg  Mg85  1  0.65817600  0.04358200  0.66147000  1
  Mg  Mg86  1  0.15917800  0.67618400  0.68770500  1
  Mg  Mg87  1  0.57713800  0.39784500  0.65706300  1
  Mg  Mg88  1  0.91832100  0.64768300  0.67542000  1
  Mg  Mg89  1  0.93695200  0.32381600  0.62320400  1
  Mg  Mg90  1  0.61085300  0.90491200  0.60627500  1
  Mg  Mg91  1  0.19555100  0.25117100  0.68956500  1
  Mg  Mg92  1  0.90057800  0.74882900  0.62134400  1
  Mg  Mg93  1  0.81562000  0.42345600  0.66936400  1
  Mg  Mg94  1  0.83663900  0.10018000  0.61787400  1
  Mg  Mg95  1  0.00464000  0.97194700  0.62712800  1
  Mg  Mg96  1  0.43270100  0.28657500  0.70158400  1
  Mg  Mg97  1  0.58527600  0.09508800  0.60463400  1
  Mg  Mg98  1  0.15949000  0.89982000  0.79303500  1
  Mg  Mg99  1  0.56342900  0.71342500  0.70932500  1
  Mg  Mg100  1  0.07780900  0.35231700  0.73549000  1
  Mg  Mg101  1  0.33795300  0.95641800  0.74943900  1
  Mg  Mg102  1  0.41899200  0.60215500  0.75384600  1
  Mg  Mg103  1  0.99148900  0.02805300  0.78378200  1
  Mg  Mg104  1  0.18051000  0.57654400  0.74154500  1
  Mg  Mg105  1  0.55817600  0.04358200  0.76147000  1
  Mg  Mg106  1  0.05917800  0.67618400  0.78770500  1
  Mg  Mg107  1  0.47713800  0.39784500  0.75706300  1
  Mg  Mg108  1  0.81832100  0.64768300  0.77542000  1
  Mg  Mg109  1  0.83695200  0.32381600  0.72320400  1
  Mg  Mg110  1  0.51085300  0.90491200  0.70627500  1
  Mg  Mg111  1  0.09555100  0.25117100  0.78956500  1
  Mg  Mg112  1  0.80057800  0.74882900  0.72134400  1
  Mg  Mg113  1  0.71562000  0.42345600  0.76936400  1
  Mg  Mg114  1  0.73663900  0.10018000  0.71787400  1
  Mg  Mg115  1  0.90464000  0.97194700  0.72712800  1
  Mg  Mg116  1  0.33270100  0.28657500  0.80158400  1
  Mg  Mg117  1  0.48527600  0.09508800  0.70463400  1
  Zn  Zn118  1  0.75440000  0.59229000  0.29832500  1
  Zn  Zn119  1  0.98196200  0.81738700  0.25731500  1
  Zn  Zn120  1  0.48632500  0.66285200  0.23078300  1
  Zn  Zn121  1  0.06049900  0.24831100  0.28775200  1
  Zn  Zn122  1  0.14221700  0.57676400  0.23986700  1
  Zn  Zn123  1  0.78916200  0.75046900  0.27371800  1
  Zn  Zn124  1  0.44806500  0.50000000  0.25545500  1
  Zn  Zn125  1  0.14173000  0.40771000  0.21258400  1
  Zn  Zn126  1  0.30436500  0.86290600  0.27412200  1
  Zn  Zn127  1  0.80291300  0.42312300  0.22166400  1
  Zn  Zn128  1  0.47705400  0.82447600  0.25733900  1
  Zn  Zn129  1  0.62384900  0.96319600  0.23848300  1
  Zn  Zn130  1  0.57790100  0.46639900  0.28856000  1
  Zn  Zn131  1  0.76699400  0.26762300  0.24534500  1
  Zn  Zn132  1  0.91416800  0.18261300  0.25359400  1
  Zn  Zn133  1  0.59176500  0.13709400  0.23678700  1
  Zn  Zn134  1  0.77286200  0.09965700  0.21895400  1
  Zn  Zn135  1  0.09321700  0.57687700  0.28924500  1
  Zn  Zn136  1  0.10696700  0.24953100  0.23719100  1
  Zn  Zn137  1  0.31822900  0.53360100  0.22234900  1
  Zn  Zn138  1  0.12326800  0.90034300  0.29195500  1
  Zn  Zn139  1  0.75391200  0.42323600  0.27104200  1
  Zn  Zn140  1  0.65977900  0.78453800  0.24086600  1
  Zn  Zn141  1  0.72403100  0.09783900  0.27042600  1
  Zn  Zn142  1  0.23635100  0.21546200  0.27004300  1
  Zn  Zn143  1  0.17209900  0.90216100  0.24048300  1
  Zn  Zn144  1  0.12913600  0.73237700  0.26556400  1
  Zn  Zn145  1  0.83563000  0.75168900  0.22315700  1
  Zn  Zn146  1  0.41907600  0.17552400  0.25357000  1
  Zn  Zn147  1  0.27228100  0.03680400  0.27242600  1
  Zn  Zn148  1  0.40980400  0.33714800  0.28012600  1
  Zn  Zn149  1  0.65440000  0.59229000  0.39832500  1
  Zn  Zn150  1  0.88196200  0.81738700  0.35731500  1
  Zn  Zn151  1  0.38632500  0.66285200  0.33078300  1
  Zn  Zn152  1  0.96049900  0.24831100  0.38775200  1
  Zn  Zn153  1  0.04221700  0.57676400  0.33986700  1
  Zn  Zn154  1  0.68916200  0.75046900  0.37371800  1
  Zn  Zn155  1  0.34806500  0.50000000  0.35545500  1
  Zn  Zn156  1  0.04173000  0.40771000  0.31258400  1
  Zn  Zn157  1  0.20436500  0.86290600  0.37412200  1
  Zn  Zn158  1  0.70291300  0.42312300  0.32166400  1
  Zn  Zn159  1  0.37705400  0.82447600  0.35733900  1
  Zn  Zn160  1  0.52384900  0.96319600  0.33848300  1
  Zn  Zn161  1  0.47790100  0.46639900  0.38856000  1
  Zn  Zn162  1  0.66699400  0.26762300  0.34534500  1
  Zn  Zn163  1  0.81416800  0.18261300  0.35359400  1
  Zn  Zn164  1  0.49176500  0.13709400  0.33678700  1
  Zn  Zn165  1  0.67286200  0.09965700  0.31895400  1
  Zn  Zn166  1  0.99321700  0.57687700  0.38924500  1
  Zn  Zn167  1  0.00696700  0.24953100  0.33719100  1
  Zn  Zn168  1  0.21822900  0.53360100  0.32234900  1
  Zn  Zn169  1  0.02326800  0.90034300  0.39195500  1
  Zn  Zn170  1  0.65391200  0.42323600  0.37104200  1
  Zn  Zn171  1  0.39806500  0.50000000  0.30545500  1
  Zn  Zn172  1  0.55977900  0.78453800  0.34086600  1
  Zn  Zn173  1  0.42603000  0.82500200  0.30685800  1
  Zn  Zn174  1  0.62403100  0.09783900  0.37042600  1
  Zn  Zn175  1  0.13635100  0.21546200  0.37004300  1
  Zn  Zn176  1  0.07209900  0.90216100  0.34048300  1
  Zn  Zn177  1  0.02913600  0.73237700  0.36556400  1
  Zn  Zn178  1  0.37009900  0.17499800  0.30405200  1
  Zn  Zn179  1  0.73563000  0.75168900  0.32315700  1
  Zn  Zn180  1  0.89806500  0.50000000  0.30545500  1
  Zn  Zn181  1  0.31907600  0.17552400  0.35357000  1
  Zn  Zn182  1  0.17228100  0.03680400  0.37242600  1
  Zn  Zn183  1  0.30980400  0.33714800  0.38012600  1
  Zn  Zn184  1  0.55440000  0.59229000  0.49832500  1
  Zn  Zn185  1  0.78196200  0.81738700  0.45731500  1
  Zn  Zn186  1  0.28632500  0.66285200  0.43078300  1
  Zn  Zn187  1  0.86049900  0.24831100  0.48775200  1
  Zn  Zn188  1  0.94221700  0.57676400  0.43986700  1
  Zn  Zn189  1  0.58916200  0.75046900  0.47371800  1
  Zn  Zn190  1  0.24806500  0.50000000  0.45545500  1
  Zn  Zn191  1  0.94173000  0.40771000  0.41258400  1
  Zn  Zn192  1  0.10436500  0.86290600  0.47412200  1
  Zn  Zn193  1  0.60291300  0.42312300  0.42166400  1
  Zn  Zn194  1  0.27705400  0.82447600  0.45733900  1
  Zn  Zn195  1  0.42384900  0.96319600  0.43848300  1
  Zn  Zn196  1  0.37790100  0.46639900  0.48856000  1
  Zn  Zn197  1  0.56699400  0.26762300  0.44534500  1
  Zn  Zn198  1  0.71416800  0.18261300  0.45359400  1
  Zn  Zn199  1  0.39176500  0.13709400  0.43678700  1
  Zn  Zn200  1  0.57286200  0.09965700  0.41895400  1
  Zn  Zn201  1  0.89321700  0.57687700  0.48924500  1
  Zn  Zn202  1  0.90696700  0.24953100  0.43719100  1
  Zn  Zn203  1  0.11822900  0.53360100  0.42234900  1
  Zn  Zn204  1  0.92326800  0.90034300  0.49195500  1
  Zn  Zn205  1  0.55391200  0.42323600  0.47104200  1
  Zn  Zn206  1  0.29806500  0.50000000  0.40545500  1
  Zn  Zn207  1  0.45977900  0.78453800  0.44086600  1
  Zn  Zn208  1  0.32603000  0.82500200  0.40685800  1
  Zn  Zn209  1  0.52403100  0.09783900  0.47042600  1
  Zn  Zn210  1  0.03635100  0.21546200  0.47004300  1
  Zn  Zn211  1  0.97209900  0.90216100  0.44048300  1
  Zn  Zn212  1  0.92913600  0.73237700  0.46556400  1
  Zn  Zn213  1  0.27009900  0.17499800  0.40405200  1
  Zn  Zn214  1  0.63563000  0.75168900  0.42315700  1
  Zn  Zn215  1  0.79806500  0.50000000  0.40545500  1
  Zn  Zn216  1  0.21907600  0.17552400  0.45357000  1
  Zn  Zn217  1  0.07228100  0.03680400  0.47242600  1
  Zn  Zn218  1  0.20980400  0.33714800  0.48012600  1
  Zn  Zn219  1  0.45440000  0.59229000  0.59832500  1
  Zn  Zn220  1  0.68196200  0.81738700  0.55731500  1
  Zn  Zn221  1  0.18632500  0.66285200  0.53078300  1
  Zn  Zn222  1  0.76049900  0.24831100  0.58775200  1
  Zn  Zn223  1  0.84221700  0.57676400  0.53986700  1
  Zn  Zn224  1  0.48916200  0.75046900  0.57371800  1
  Zn  Zn225  1  0.14806500  0.50000000  0.55545500  1
  Zn  Zn226  1  0.84173000  0.40771000  0.51258400  1
  Zn  Zn227  1  0.00436500  0.86290600  0.57412200  1
  Zn  Zn228  1  0.50291300  0.42312300  0.52166400  1
  Zn  Zn229  1  0.17705400  0.82447600  0.55733900  1
  Zn  Zn230  1  0.32384900  0.96319600  0.53848300  1
  Zn  Zn231  1  0.27790100  0.46639900  0.58856000  1
  Zn  Zn232  1  0.46699400  0.26762300  0.54534500  1
  Zn  Zn233  1  0.61416800  0.18261300  0.55359400  1
  Zn  Zn234  1  0.29176500  0.13709400  0.53678700  1
  Zn  Zn235  1  0.47286200  0.09965700  0.51895400  1
  Zn  Zn236  1  0.79321700  0.57687700  0.58924500  1
  Zn  Zn237  1  0.80696700  0.24953100  0.53719100  1
  Zn  Zn238  1  0.01822900  0.53360100  0.52234900  1
  Zn  Zn239  1  0.82326800  0.90034300  0.59195500  1
  Zn  Zn240  1  0.45391200  0.42323600  0.57104200  1
  Zn  Zn241  1  0.19806500  0.50000000  0.50545500  1
  Zn  Zn242  1  0.35977900  0.78453800  0.54086600  1
  Zn  Zn243  1  0.22603000  0.82500200  0.50685800  1
  Zn  Zn244  1  0.42403100  0.09783900  0.57042600  1
  Zn  Zn245  1  0.93635100  0.21546200  0.57004300  1
  Zn  Zn246  1  0.87209900  0.90216100  0.54048300  1
  Zn  Zn247  1  0.82913600  0.73237700  0.56556400  1
  Zn  Zn248  1  0.17009900  0.17499800  0.50405200  1
  Zn  Zn249  1  0.53563000  0.75168900  0.52315700  1
  Zn  Zn250  1  0.69806500  0.50000000  0.50545500  1
  Zn  Zn251  1  0.11907600  0.17552400  0.55357000  1
  Zn  Zn252  1  0.97228100  0.03680400  0.57242600  1
  Zn  Zn253  1  0.10980400  0.33714800  0.58012600  1
  Zn  Zn254  1  0.35440000  0.59229000  0.69832500  1
  Zn  Zn255  1  0.58196200  0.81738700  0.65731500  1
  Zn  Zn256  1  0.08632500  0.66285200  0.63078300  1
  Zn  Zn257  1  0.66049900  0.24831100  0.68775200  1
  Zn  Zn258  1  0.74221700  0.57676400  0.63986700  1
  Zn  Zn259  1  0.38916200  0.75046900  0.67371800  1
  Zn  Zn260  1  0.04806500  0.50000000  0.65545500  1
  Zn  Zn261  1  0.74173000  0.40771000  0.61258400  1
  Zn  Zn262  1  0.90436500  0.86290600  0.67412200  1
  Zn  Zn263  1  0.40291300  0.42312300  0.62166400  1
  Zn  Zn264  1  0.07705400  0.82447600  0.65733900  1
  Zn  Zn265  1  0.22384900  0.96319600  0.63848300  1
  Zn  Zn266  1  0.17790100  0.46639900  0.68856000  1
  Zn  Zn267  1  0.36699400  0.26762300  0.64534500  1
  Zn  Zn268  1  0.51416800  0.18261300  0.65359400  1
  Zn  Zn269  1  0.19176500  0.13709400  0.63678700  1
  Zn  Zn270  1  0.37286200  0.09965700  0.61895400  1
  Zn  Zn271  1  0.69321700  0.57687700  0.68924500  1
  Zn  Zn272  1  0.70696700  0.24953100  0.63719100  1
  Zn  Zn273  1  0.91822900  0.53360100  0.62234900  1
  Zn  Zn274  1  0.72326800  0.90034300  0.69195500  1
  Zn  Zn275  1  0.35391200  0.42323600  0.67104200  1
  Zn  Zn276  1  0.09806500  0.50000000  0.60545500  1
  Zn  Zn277  1  0.25977900  0.78453800  0.64086600  1
  Zn  Zn278  1  0.12603000  0.82500200  0.60685800  1
  Zn  Zn279  1  0.32403100  0.09783900  0.67042600  1
  Zn  Zn280  1  0.83635100  0.21546200  0.67004300  1
  Zn  Zn281  1  0.77209900  0.90216100  0.64048300  1
  Zn  Zn282  1  0.72913600  0.73237700  0.66556400  1
  Zn  Zn283  1  0.07009900  0.17499800  0.60405200  1
  Zn  Zn284  1  0.43563000  0.75168900  0.62315700  1
  Zn  Zn285  1  0.59806500  0.50000000  0.60545500  1
  Zn  Zn286  1  0.01907600  0.17552400  0.65357000  1
  Zn  Zn287  1  0.87228100  0.03680400  0.67242600  1
  Zn  Zn288  1  0.00980400  0.33714800  0.68012600  1
  Zn  Zn289  1  0.25440000  0.59229000  0.79832500  1
  Zn  Zn290  1  0.48196200  0.81738700  0.75731500  1
  Zn  Zn291  1  0.98632500  0.66285200  0.73078300  1
  Zn  Zn292  1  0.56049900  0.24831100  0.78775200  1
  Zn  Zn293  1  0.64221700  0.57676400  0.73986700  1
  Zn  Zn294  1  0.28916200  0.75046900  0.77371800  1
  Zn  Zn295  1  0.94806500  0.50000000  0.75545500  1
  Zn  Zn296  1  0.64173000  0.40771000  0.71258400  1
  Zn  Zn297  1  0.80436500  0.86290600  0.77412200  1
  Zn  Zn298  1  0.30291300  0.42312300  0.72166400  1
  Zn  Zn299  1  0.97705400  0.82447600  0.75733900  1
  Zn  Zn300  1  0.12384900  0.96319600  0.73848300  1
  Zn  Zn301  1  0.07790100  0.46639900  0.78856000  1
  Zn  Zn302  1  0.26699400  0.26762300  0.74534500  1
  Zn  Zn303  1  0.41416800  0.18261300  0.75359400  1
  Zn  Zn304  1  0.09176500  0.13709400  0.73678700  1
  Zn  Zn305  1  0.27286200  0.09965700  0.71895400  1
  Zn  Zn306  1  0.59321700  0.57687700  0.78924500  1
  Zn  Zn307  1  0.60696700  0.24953100  0.73719100  1
  Zn  Zn308  1  0.81822900  0.53360100  0.72234900  1
  Zn  Zn309  1  0.62326800  0.90034300  0.79195500  1
  Zn  Zn310  1  0.25391200  0.42323600  0.77104200  1
  Zn  Zn311  1  0.99806500  0.50000000  0.70545500  1
  Zn  Zn312  1  0.15977900  0.78453800  0.74086600  1
  Zn  Zn313  1  0.02603000  0.82500200  0.70685800  1
  Zn  Zn314  1  0.22403100  0.09783900  0.77042600  1
  Zn  Zn315  1  0.73635100  0.21546200  0.77004300  1
  Zn  Zn316  1  0.67209900  0.90216100  0.74048300  1
  Zn  Zn317  1  0.62913600  0.73237700  0.76556400  1
  Zn  Zn318  1  0.97009900  0.17499800  0.70405200  1
  Zn  Zn319  1  0.33563000  0.75168900  0.72315700  1
  Zn  Zn320  1  0.49806500  0.50000000  0.70545500  1
  Zn  Zn321  1  0.91907600  0.17552400  0.75357000  1
  Zn  Zn322  1  0.77228100  0.03680400  0.77242600  1
  Zn  Zn323  1  0.90980400  0.33714800  0.78012600  1
