# generated using pymatgen
data_Dy20Mg9
_symmetry_space_group_name_H-M   'P 1'
_cell_length_a   3.69704700
_cell_length_b   17.95650481
_cell_length_c   41.98728100
_cell_angle_alpha   96.27093350
_cell_angle_beta   90.00000000
_cell_angle_gamma   90.00000000
_symmetry_Int_Tables_number   1
_chemical_formula_structural   Dy20Mg9
_chemical_formula_sum   'Dy40 Mg18'
_cell_volume   2770.69117522
_cell_formula_units_Z   2
loop_
 _symmetry_equiv_pos_site_id
 _symmetry_equiv_pos_as_xyz
  1  'x, y, z'
loop_
 _atom_site_type_symbol
 _atom_site_label
 _atom_site_symmetry_multiplicity
 _atom_site_fract_x
 _atom_site_fract_y
 _atom_site_fract_z
 _atom_site_occupancy
  Dy  Dy0  1  0.50000000  0.92964800  0.20938500  1
  Dy  Dy1  1  0.00000000  0.77180300  0.23193400  1
  Dy  Dy2  1  0.00000000  0.71520000  0.31144900  1
  Dy  Dy3  1  0.50000000  0.87304400  0.28889900  1
  Dy  Dy4  1  0.00000000  0.49214800  0.27188500  1
  Dy  Dy5  1  0.50000000  0.33430300  0.29443400  1
  Dy  Dy6  1  0.50000000  0.15270000  0.24894900  1
  Dy  Dy7  1  1.00000000  0.31054400  0.22639900  1
  Dy  Dy8  1  0.50000000  0.05464800  0.33438500  1
  Dy  Dy9  1  1.00000000  0.89680300  0.35693400  1
  Dy  Dy10  1  0.00000000  0.84020000  0.43644900  1
  Dy  Dy11  1  0.50000000  0.99804400  0.41389900  1
  Dy  Dy12  1  0.00000000  0.61714800  0.39688500  1
  Dy  Dy13  1  0.50000000  0.45930300  0.41943400  1
  Dy  Dy14  1  0.50000000  0.27770000  0.37394900  1
  Dy  Dy15  1  0.00000000  0.43554400  0.35139900  1
  Dy  Dy16  1  0.50000000  0.17964800  0.45938500  1
  Dy  Dy17  1  1.00000000  0.02180300  0.48193400  1
  Dy  Dy18  1  0.00000000  0.96520000  0.56144900  1
  Dy  Dy19  1  0.50000000  0.12304400  0.53889900  1
  Dy  Dy20  1  1.00000000  0.74214800  0.52188500  1
  Dy  Dy21  1  0.50000000  0.58430300  0.54443400  1
  Dy  Dy22  1  0.50000000  0.40270000  0.49894900  1
  Dy  Dy23  1  0.00000000  0.56054400  0.47639900  1
  Dy  Dy24  1  0.50000000  0.30464800  0.58438500  1
  Dy  Dy25  1  1.00000000  0.14680300  0.60693400  1
  Dy  Dy26  1  1.00000000  0.09020000  0.68644900  1
  Dy  Dy27  1  0.50000000  0.24804400  0.66389900  1
  Dy  Dy28  1  0.00000000  0.86714800  0.64688500  1
  Dy  Dy29  1  0.50000000  0.70930300  0.66943400  1
  Dy  Dy30  1  0.50000000  0.52770000  0.62394900  1
  Dy  Dy31  1  0.00000000  0.68554400  0.60139900  1
  Dy  Dy32  1  0.50000000  0.42964800  0.70938500  1
  Dy  Dy33  1  0.00000000  0.27180300  0.73193400  1
  Dy  Dy34  1  0.00000000  0.21520000  0.81144900  1
  Dy  Dy35  1  0.50000000  0.37304400  0.78889900  1
  Dy  Dy36  1  1.00000000  0.99214800  0.77188500  1
  Dy  Dy37  1  0.50000000  0.83430300  0.79443400  1
  Dy  Dy38  1  0.50000000  0.65270000  0.74894900  1
  Dy  Dy39  1  0.00000000  0.81054400  0.72639900  1
  Mg  Mg40  1  0.50000000  0.63108100  0.25203700  1
  Mg  Mg41  1  0.00000000  0.01376700  0.26879600  1
  Mg  Mg42  1  0.50000000  0.75608100  0.37703700  1
  Mg  Mg43  1  1.00000000  0.13876700  0.39379600  1
  Mg  Mg44  1  0.00000000  0.19358100  0.31453700  1
  Mg  Mg45  1  0.50000000  0.57626700  0.33129600  1
  Mg  Mg46  1  0.50000000  0.88108100  0.50203700  1
  Mg  Mg47  1  0.00000000  0.26376700  0.51879600  1
  Mg  Mg48  1  0.00000000  0.31858100  0.43953700  1
  Mg  Mg49  1  0.50000000  0.70126700  0.45629600  1
  Mg  Mg50  1  0.50000000  0.00608100  0.62703700  1
  Mg  Mg51  1  1.00000000  0.38876700  0.64379600  1
  Mg  Mg52  1  0.00000000  0.44358100  0.56453700  1
  Mg  Mg53  1  0.50000000  0.82626700  0.58129600  1
  Mg  Mg54  1  0.50000000  0.13108100  0.75203700  1
  Mg  Mg55  1  1.00000000  0.51376700  0.76879600  1
  Mg  Mg56  1  1.00000000  0.56858100  0.68953700  1
  Mg  Mg57  1  0.50000000  0.95126700  0.70629600  1
