# generated using pymatgen
data_LiMg2
_symmetry_space_group_name_H-M   'P 1'
_cell_length_a   3.05132800
_cell_length_b   8.55483820
_cell_length_c   40.54677300
_cell_angle_alpha   90.00000000
_cell_angle_beta   90.00000000
_cell_angle_gamma   100.27304463
_symmetry_Int_Tables_number   1
_chemical_formula_structural   LiMg2
_chemical_formula_sum   'Li10 Mg20'
_cell_volume   1041.45000735
_cell_formula_units_Z   10
loop_
 _symmetry_equiv_pos_site_id
 _symmetry_equiv_pos_as_xyz
  1  'x, y, z'
loop_
 _atom_site_type_symbol
 _atom_site_label
 _atom_site_symmetry_multiplicity
 _atom_site_fract_x
 _atom_site_fract_y
 _atom_site_fract_z
 _atom_site_occupancy
  Li  Li0  1  0.38599800  0.77199700  0.21875000  1
  Li  Li1  1  0.61400200  0.22800300  0.28125000  1
  Li  Li2  1  0.38599800  0.77199700  0.34375000  1
  Li  Li3  1  0.61400200  0.22800300  0.40625000  1
  Li  Li4  1  0.38599800  0.77199700  0.46875000  1
  Li  Li5  1  0.61400200  0.22800300  0.53125000  1
  Li  Li6  1  0.38599800  0.77199700  0.59375000  1
  Li  Li7  1  0.61400200  0.22800300  0.65625000  1
  Li  Li8  1  0.38599800  0.77199700  0.71875000  1
  Li  Li9  1  0.61400200  0.22800300  0.78125000  1
  Mg  Mg10  1  0.71797500  0.43595000  0.21875000  1
  Mg  Mg11  1  0.05113200  0.10226300  0.21875000  1
  Mg  Mg12  1  0.28202500  0.56405000  0.28125000  1
  Mg  Mg13  1  0.94886800  0.89773700  0.28125000  1
  Mg  Mg14  1  0.71797500  0.43595000  0.34375000  1
  Mg  Mg15  1  0.05113200  0.10226300  0.34375000  1
  Mg  Mg16  1  0.28202500  0.56405000  0.40625000  1
  Mg  Mg17  1  0.94886800  0.89773700  0.40625000  1
  Mg  Mg18  1  0.71797500  0.43595000  0.46875000  1
  Mg  Mg19  1  0.05113200  0.10226300  0.46875000  1
  Mg  Mg20  1  0.28202500  0.56405000  0.53125000  1
  Mg  Mg21  1  0.94886800  0.89773700  0.53125000  1
  Mg  Mg22  1  0.71797500  0.43595000  0.59375000  1
  Mg  Mg23  1  0.05113200  0.10226300  0.59375000  1
  Mg  Mg24  1  0.28202500  0.56405000  0.65625000  1
  Mg  Mg25  1  0.94886800  0.89773700  0.65625000  1
  Mg  Mg26  1  0.71797500  0.43595000  0.71875000  1
  Mg  Mg27  1  0.05113200  0.10226300  0.71875000  1
  Mg  Mg28  1  0.28202500  0.56405000  0.78125000  1
  Mg  Mg29  1  0.94886800  0.89773700  0.78125000  1
