# generated using pymatgen
data_Mg7Zn3
_symmetry_space_group_name_H-M   'P 1'
_cell_length_a   3.10114600
_cell_length_b   4.91773400
_cell_length_c   46.61241000
_cell_angle_alpha   90.00000000
_cell_angle_beta   90.00000000
_cell_angle_gamma   90.00000000
_symmetry_Int_Tables_number   1
_chemical_formula_structural   Mg7Zn3
_chemical_formula_sum   'Mg14 Zn6'
_cell_volume   710.86773842
_cell_formula_units_Z   2
loop_
 _symmetry_equiv_pos_site_id
 _symmetry_equiv_pos_as_xyz
  1  'x, y, z'
loop_
 _atom_site_type_symbol
 _atom_site_label
 _atom_site_symmetry_multiplicity
 _atom_site_fract_x
 _atom_site_fract_y
 _atom_site_fract_z
 _atom_site_occupancy
  Mg  Mg0  1  0.00000000  0.75000000  0.47676900  1
  Mg  Mg1  1  0.50000000  0.75000000  0.20520500  1
  Mg  Mg2  1  0.00000000  0.25000000  0.18368400  1
  Mg  Mg3  1  0.50000000  0.25000000  0.24545400  1
  Mg  Mg4  1  0.50000000  0.75000000  0.31010200  1
  Mg  Mg5  1  0.00000000  0.75000000  0.37187200  1
  Mg  Mg6  1  0.50000000  0.25000000  0.35035000  1
  Mg  Mg7  1  0.00000000  0.25000000  0.41212000  1
  Mg  Mg8  1  0.50000000  0.75000000  0.53853800  1
  Mg  Mg9  1  0.00000000  0.25000000  0.51701700  1
  Mg  Mg10  1  0.50000000  0.25000000  0.57878700  1
  Mg  Mg11  1  0.50000000  0.75000000  0.64343500  1
  Mg  Mg12  1  0.00000000  0.75000000  0.70520500  1
  Mg  Mg13  1  0.50000000  0.25000000  0.68368400  1
  Zn  Zn14  1  0.00000000  0.75000000  0.25858500  1
  Zn  Zn15  1  0.50000000  0.25000000  0.46363700  1
  Zn  Zn16  1  0.50000000  0.75000000  0.42525200  1
  Zn  Zn17  1  0.00000000  0.25000000  0.29697000  1
  Zn  Zn18  1  1.00000000  0.75000000  0.59191900  1
  Zn  Zn19  1  0.00000000  0.25000000  0.63030400  1
