# generated using pymatgen
data_Mg4Zn7
_symmetry_space_group_name_H-M   'P 1'
_cell_length_a   5.07402209
_cell_length_b   22.10207791
_cell_length_c   42.67993100
_cell_angle_alpha   98.00895109
_cell_angle_beta   93.24549340
_cell_angle_gamma   83.83945518
_symmetry_Int_Tables_number   1
_chemical_formula_structural   Mg4Zn7
_chemical_formula_sum   'Mg48 Zn84'
_cell_volume   4708.12433190
_cell_formula_units_Z   12
loop_
 _symmetry_equiv_pos_site_id
 _symmetry_equiv_pos_as_xyz
  1  'x, y, z'
loop_
 _atom_site_type_symbol
 _atom_site_label
 _atom_site_symmetry_multiplicity
 _atom_site_fract_x
 _atom_site_fract_y
 _atom_site_fract_z
 _atom_site_occupancy
  Mg  Mg0  1  0.03144800  0.31127800  0.36758100  1
  Mg  Mg1  1  0.86759200  0.65845500  0.39194200  1
  Mg  Mg2  1  0.81116400  0.69905800  0.32805800  1
  Mg  Mg3  1  0.64730800  0.04623500  0.35241900  1
  Mg  Mg4  1  0.31487700  0.74125300  0.37629600  1
  Mg  Mg5  1  0.48483000  0.40069200  0.37344600  1
  Mg  Mg6  1  0.19392600  0.95682000  0.34655400  1
  Mg  Mg7  1  0.36388000  0.61626000  0.34370400  1
  Mg  Mg8  1  0.39334200  0.63846600  0.43023500  1
  Mg  Mg9  1  0.25720700  0.87839500  0.40346800  1
  Mg  Mg10  1  0.83144800  0.91127800  0.56758100  1
  Mg  Mg11  1  0.66759200  0.25845500  0.59194200  1
  Mg  Mg12  1  0.76975700  0.90519100  0.44570500  1
  Mg  Mg13  1  0.47606900  0.49062500  0.44003900  1
  Mg  Mg14  1  0.83749200  0.82024400  0.50098400  1
  Mg  Mg15  1  0.61116400  0.29905800  0.52805800  1
  Mg  Mg16  1  0.38078600  0.73039100  0.49609000  1
  Mg  Mg17  1  0.70900000  0.05232200  0.47429500  1
  Mg  Mg18  1  0.44730800  0.64623500  0.55241900  1
  Mg  Mg19  1  0.09797000  0.22712200  0.42391000  1
  Mg  Mg20  1  0.11487700  0.34125300  0.57629600  1
  Mg  Mg21  1  0.28483000  0.00069200  0.57344600  1
  Mg  Mg22  1  0.99392600  0.55682000  0.54655400  1
  Mg  Mg23  1  0.64126400  0.13726900  0.41901600  1
  Mg  Mg24  1  0.08541400  0.31904600  0.48976500  1
  Mg  Mg25  1  0.00268700  0.46688800  0.47996100  1
  Mg  Mg26  1  0.22154900  0.07911800  0.51653200  1
  Mg  Mg27  1  0.16388000  0.21626000  0.54370400  1
  Mg  Mg28  1  0.19334200  0.23846600  0.63023500  1
  Mg  Mg29  1  0.05720700  0.47839500  0.60346800  1
  Mg  Mg30  1  0.63144800  0.51127800  0.76758100  1
  Mg  Mg31  1  0.46759200  0.85845500  0.79194200  1
  Mg  Mg32  1  0.56975700  0.50519100  0.64570500  1
  Mg  Mg33  1  0.27606900  0.09062500  0.64003900  1
  Mg  Mg34  1  0.63749200  0.42024400  0.70098400  1
  Mg  Mg35  1  0.41116400  0.89905800  0.72805800  1
  Mg  Mg36  1  0.18078600  0.33039100  0.69609000  1
  Mg  Mg37  1  0.50900000  0.65232200  0.67429500  1
  Mg  Mg38  1  0.24730800  0.24623500  0.75241900  1
  Mg  Mg39  1  0.89797000  0.82712200  0.62391000  1
  Mg  Mg40  1  0.91487700  0.94125300  0.77629600  1
  Mg  Mg41  1  0.08483000  0.60069200  0.77344600  1
  Mg  Mg42  1  0.79392600  0.15682000  0.74655400  1
  Mg  Mg43  1  0.44126400  0.73726900  0.61901600  1
  Mg  Mg44  1  0.88541400  0.91904600  0.68976500  1
  Mg  Mg45  1  0.80268700  0.06688800  0.67996100  1
  Mg  Mg46  1  0.02154900  0.67911800  0.71653200  1
  Mg  Mg47  1  0.96388000  0.81626000  0.74370400  1
  Zn  Zn48  1  0.79139900  0.80262700  0.38937100  1
  Zn  Zn49  1  0.12138500  0.08648000  0.32471200  1
  Zn  Zn50  1  0.83937800  0.17875600  0.36000000  1
  Zn  Zn51  1  0.53419100  0.26409400  0.33413200  1
  Zn  Zn52  1  0.95576600  0.44171000  0.34471200  1
  Zn  Zn53  1  0.88735800  0.55488600  0.33062900  1
  Zn  Zn54  1  0.18197300  0.53428100  0.38240900  1
  Zn  Zn55  1  0.14456500  0.09341900  0.38586800  1
  Zn  Zn56  1  0.49678300  0.82323200  0.33759100  1
  Zn  Zn57  1  0.33937800  0.17875600  0.36000000  1
  Zn  Zn58  1  0.66741800  0.53642800  0.38224500  1
  Zn  Zn59  1  0.01133900  0.82108400  0.33775500  1
  Zn  Zn60  1  0.72299000  0.91580300  0.37528800  1
  Zn  Zn61  1  0.55737200  0.27103200  0.39528800  1
  Zn  Zn62  1  0.29897300  0.86306500  0.47170100  1
  Zn  Zn63  1  0.59139900  0.40262700  0.58937100  1
  Zn  Zn64  1  0.92138500  0.68648000  0.52471200  1
  Zn  Zn65  1  0.39501300  0.18766300  0.48139200  1
  Zn  Zn66  1  0.94631900  0.00412400  0.40893400  1
  Zn  Zn67  1  0.57871100  0.77221900  0.43803400  1
  Zn  Zn68  1  0.63937800  0.77875600  0.56000000  1
  Zn  Zn69  1  0.17978300  0.09444800  0.44829900  1
  Zn  Zn70  1  0.50027500  0.51100000  0.51242500  1
  Zn  Zn71  1  0.02611800  0.95330600  0.51116400  1
  Zn  Zn72  1  0.69160300  0.59642000  0.48893000  1
  Zn  Zn73  1  0.93349900  0.56436400  0.43559800  1
  Zn  Zn74  1  0.33419100  0.86409400  0.53413200  1
  Zn  Zn75  1  0.75576600  0.04171000  0.54471200  1
  Zn  Zn76  1  0.68735800  0.15488600  0.53062900  1
  Zn  Zn77  1  0.97848100  0.44651300  0.40757500  1
  Zn  Zn78  1  0.98197300  0.13428100  0.58240900  1
  Zn  Zn79  1  0.45263800  0.00420700  0.40883600  1
  Zn  Zn80  1  0.90004500  0.18529300  0.48196600  1
  Zn  Zn81  1  0.94456500  0.69341900  0.58586800  1
  Zn  Zn82  1  0.29678300  0.42323200  0.53759100  1
  Zn  Zn83  1  0.53243800  0.95338900  0.51106600  1
  Zn  Zn84  1  0.13937800  0.77875600  0.56000000  1
  Zn  Zn85  1  0.88159800  0.68688400  0.46366700  1
  Zn  Zn86  1  0.19622200  0.59550200  0.48912600  1
  Zn  Zn87  1  0.46741800  0.13642800  0.58224500  1
  Zn  Zn88  1  0.59715900  0.27062900  0.45633300  1
  Zn  Zn89  1  0.81133900  0.42108400  0.53775500  1
  Zn  Zn90  1  0.52299000  0.51580300  0.57528800  1
  Zn  Zn91  1  0.28253400  0.36201000  0.43087400  1
  Zn  Zn92  1  0.08374300  0.76985000  0.43860800  1
  Zn  Zn93  1  0.23937800  0.97875600  0.46000000  1
  Zn  Zn94  1  0.78715400  0.36109300  0.43107000  1
  Zn  Zn95  1  0.54525800  0.39314900  0.48440200  1
  Zn  Zn96  1  0.35737200  0.87103200  0.59528800  1
  Zn  Zn97  1  0.09897300  0.46306500  0.67170100  1
  Zn  Zn98  1  0.39139900  0.00262700  0.78937100  1
  Zn  Zn99  1  0.72138500  0.28648000  0.72471200  1
  Zn  Zn100  1  0.19501300  0.78766300  0.68139200  1
  Zn  Zn101  1  0.74631900  0.60412400  0.60893400  1
  Zn  Zn102  1  0.37871100  0.37221900  0.63803400  1
  Zn  Zn103  1  0.43937800  0.37875600  0.76000000  1
  Zn  Zn104  1  0.97978300  0.69444800  0.64829900  1
  Zn  Zn105  1  0.30027500  0.11100000  0.71242500  1
  Zn  Zn106  1  0.82611800  0.55330600  0.71116400  1
  Zn  Zn107  1  0.49160300  0.19642000  0.68893000  1
  Zn  Zn108  1  0.73349900  0.16436400  0.63559800  1
  Zn  Zn109  1  0.13419100  0.46409400  0.73413200  1
  Zn  Zn110  1  0.55576600  0.64171000  0.74471200  1
  Zn  Zn111  1  0.48735800  0.75488600  0.73062900  1
  Zn  Zn112  1  0.77848100  0.04651300  0.60757500  1
  Zn  Zn113  1  0.78197300  0.73428100  0.78240900  1
  Zn  Zn114  1  0.25263800  0.60420700  0.60883600  1
  Zn  Zn115  1  0.70004500  0.78529300  0.68196600  1
  Zn  Zn116  1  0.74456500  0.29341900  0.78586800  1
  Zn  Zn117  1  0.09678300  0.02323200  0.73759100  1
  Zn  Zn118  1  0.33243800  0.55338900  0.71106600  1
  Zn  Zn119  1  0.93937800  0.37875600  0.76000000  1
  Zn  Zn120  1  0.68159800  0.28688400  0.66366700  1
  Zn  Zn121  1  0.99622200  0.19550200  0.68912600  1
  Zn  Zn122  1  0.26741800  0.73642800  0.78224500  1
  Zn  Zn123  1  0.39715900  0.87062900  0.65633300  1
  Zn  Zn124  1  0.61133900  0.02108400  0.73775500  1
  Zn  Zn125  1  0.32299000  0.11580300  0.77528800  1
  Zn  Zn126  1  0.08253400  0.96201000  0.63087400  1
  Zn  Zn127  1  0.88374300  0.36985000  0.63860800  1
  Zn  Zn128  1  0.03937800  0.57875600  0.66000000  1
  Zn  Zn129  1  0.58715400  0.96109300  0.63107000  1
  Zn  Zn130  1  0.34525800  0.99314900  0.68440200  1
  Zn  Zn131  1  0.15737200  0.47103200  0.79528800  1
