# generated using pymatgen
data_Mg2Ag
_symmetry_space_group_name_H-M   'P 1'
_cell_length_a   3.33664900
_cell_length_b   5.87374700
_cell_length_c   41.45987800
_cell_angle_alpha   92.10167038
_cell_angle_beta   90.00000000
_cell_angle_gamma   106.50091279
_symmetry_Int_Tables_number   1
_chemical_formula_structural   Mg2Ag
_chemical_formula_sum   'Mg16 Ag8'
_cell_volume   778.52182693
_cell_formula_units_Z   8
loop_
 _symmetry_equiv_pos_site_id
 _symmetry_equiv_pos_as_xyz
  1  'x, y, z'
loop_
 _atom_site_type_symbol
 _atom_site_label
 _atom_site_symmetry_multiplicity
 _atom_site_fract_x
 _atom_site_fract_y
 _atom_site_fract_z
 _atom_site_occupancy
  Mg  Mg0  1  0.21725400  0.43450700  0.74246300  1
  Mg  Mg1  1  0.85966900  0.71933900  0.79599800  1
  Mg  Mg2  1  0.29417700  0.58835300  0.66554000  1
  Mg  Mg3  1  0.93659200  0.87318500  0.71907500  1
  Mg  Mg4  1  0.37110000  0.74220000  0.58861700  1
  Mg  Mg5  1  0.01351600  0.02703100  0.64215200  1
  Mg  Mg6  1  0.44802300  0.89604600  0.51169400  1
  Mg  Mg7  1  0.09043900  0.18087700  0.56522900  1
  Mg  Mg8  1  0.52494600  0.04989200  0.43477100  1
  Mg  Mg9  1  0.16736200  0.33472300  0.48830600  1
  Mg  Mg10  1  0.60186900  0.20373800  0.35784800  1
  Mg  Mg11  1  0.24428500  0.48857000  0.41138300  1
  Mg  Mg12  1  0.67879200  0.35758400  0.28092500  1
  Mg  Mg13  1  0.32120800  0.64241600  0.33446000  1
  Mg  Mg14  1  0.75571500  0.51143000  0.20400200  1
  Mg  Mg15  1  0.39813100  0.79626200  0.25753700  1
  Ag  Ag16  1  0.53846200  0.07692300  0.76923100  1
  Ag  Ag17  1  0.61538500  0.23076900  0.69230800  1
  Ag  Ag18  1  0.69230800  0.38461500  0.61538500  1
  Ag  Ag19  1  0.76923100  0.53846200  0.53846200  1
  Ag  Ag20  1  0.84615400  0.69230800  0.46153800  1
  Ag  Ag21  1  0.92307700  0.84615400  0.38461500  1
  Ag  Ag22  1  1.00000000  1.00000000  0.30769200  1
  Ag  Ag23  1  0.07692300  0.15384600  0.23076900  1
