# generated using pymatgen
data_MgAg3
_symmetry_space_group_name_H-M   'P 1'
_cell_length_a   7.61306214
_cell_length_b   7.61306211
_cell_length_c   40.31578400
_cell_angle_alpha   87.67092470
_cell_angle_beta   92.32907529
_cell_angle_gamma   95.55155091
_symmetry_Int_Tables_number   1
_chemical_formula_structural   MgAg3
_chemical_formula_sum   'Mg20 Ag60'
_cell_volume   2322.18635415
_cell_formula_units_Z   20
loop_
 _symmetry_equiv_pos_site_id
 _symmetry_equiv_pos_as_xyz
  1  'x, y, z'
loop_
 _atom_site_type_symbol
 _atom_site_label
 _atom_site_symmetry_multiplicity
 _atom_site_fract_x
 _atom_site_fract_y
 _atom_site_fract_z
 _atom_site_occupancy
  Mg  Mg0  1  0.94790100  0.38543200  0.23437500  1
  Mg  Mg1  1  0.42706800  0.23959900  0.20312500  1
  Mg  Mg2  1  0.32290100  0.01043200  0.29687500  1
  Mg  Mg3  1  0.80206800  0.86459900  0.26562500  1
  Mg  Mg4  1  0.69790100  0.63543200  0.35937500  1
  Mg  Mg5  1  0.17706800  0.48959900  0.32812500  1
  Mg  Mg6  1  0.07290100  0.26043200  0.42187500  1
  Mg  Mg7  1  0.55206800  0.11459900  0.39062500  1
  Mg  Mg8  1  0.44790100  0.88543200  0.48437500  1
  Mg  Mg9  1  0.92706800  0.73959900  0.45312500  1
  Mg  Mg10  1  0.82290100  0.51043200  0.54687500  1
  Mg  Mg11  1  0.30206800  0.36459900  0.51562500  1
  Mg  Mg12  1  0.19790100  0.13543200  0.60937500  1
  Mg  Mg13  1  0.67706800  0.98959900  0.57812500  1
  Mg  Mg14  1  0.57290100  0.76043200  0.67187500  1
  Mg  Mg15  1  0.05206800  0.61459900  0.64062500  1
  Mg  Mg16  1  0.94790100  0.38543200  0.73437500  1
  Mg  Mg17  1  0.42706800  0.23959900  0.70312500  1
  Mg  Mg18  1  0.32290100  0.01043200  0.79687500  1
  Mg  Mg19  1  0.80206800  0.86459900  0.76562500  1
  Ag  Ag20  1  0.76042500  0.07293600  0.20312000  1
  Ag  Ag21  1  0.44787400  0.88540500  0.23437500  1
  Ag  Ag22  1  0.26040500  0.57295600  0.20313000  1
  Ag  Ag23  1  0.11456400  0.05207500  0.23437000  1
  Ag  Ag24  1  0.92709500  0.73962600  0.20312500  1
  Ag  Ag25  1  0.61454400  0.55209500  0.23438000  1
  Ag  Ag26  1  0.13542500  0.69793600  0.26562000  1
  Ag  Ag27  1  0.82287400  0.51040500  0.29687500  1
  Ag  Ag28  1  0.63540500  0.19795600  0.26563000  1
  Ag  Ag29  1  0.48956400  0.67707500  0.29687000  1
  Ag  Ag30  1  0.30209500  0.36462600  0.26562500  1
  Ag  Ag31  1  0.98954400  0.17709500  0.29688000  1
  Ag  Ag32  1  0.51042500  0.32293600  0.32812000  1
  Ag  Ag33  1  0.19787400  0.13540500  0.35937500  1
  Ag  Ag34  1  0.01040500  0.82295600  0.32813000  1
  Ag  Ag35  1  0.86456400  0.30207500  0.35937000  1
  Ag  Ag36  1  0.67709500  0.98962600  0.32812500  1
  Ag  Ag37  1  0.36454400  0.80209500  0.35938000  1
  Ag  Ag38  1  0.88542500  0.94793600  0.39062000  1
  Ag  Ag39  1  0.57287400  0.76040500  0.42187500  1
  Ag  Ag40  1  0.38540500  0.44795600  0.39063000  1
  Ag  Ag41  1  0.23956400  0.92707500  0.42187000  1
  Ag  Ag42  1  0.05209500  0.61462600  0.39062500  1
  Ag  Ag43  1  0.73954400  0.42709500  0.42188000  1
  Ag  Ag44  1  0.26042500  0.57293600  0.45312000  1
  Ag  Ag45  1  0.94787400  0.38540500  0.48437500  1
  Ag  Ag46  1  0.76040500  0.07295600  0.45313000  1
  Ag  Ag47  1  0.61456400  0.55207500  0.48437000  1
  Ag  Ag48  1  0.42709500  0.23962600  0.45312500  1
  Ag  Ag49  1  0.11454400  0.05209500  0.48438000  1
  Ag  Ag50  1  0.63542500  0.19793600  0.51562000  1
  Ag  Ag51  1  0.32287400  0.01040500  0.54687500  1
  Ag  Ag52  1  0.13540500  0.69795600  0.51563000  1
  Ag  Ag53  1  0.98956400  0.17707500  0.54687000  1
  Ag  Ag54  1  0.80209500  0.86462600  0.51562500  1
  Ag  Ag55  1  0.48954400  0.67709500  0.54688000  1
  Ag  Ag56  1  0.01042500  0.82293600  0.57812000  1
  Ag  Ag57  1  0.69787400  0.63540500  0.60937500  1
  Ag  Ag58  1  0.51040500  0.32295600  0.57813000  1
  Ag  Ag59  1  0.36456400  0.80207500  0.60937000  1
  Ag  Ag60  1  0.17709500  0.48962600  0.57812500  1
  Ag  Ag61  1  0.86454400  0.30209500  0.60938000  1
  Ag  Ag62  1  0.38542500  0.44793600  0.64062000  1
  Ag  Ag63  1  0.07287400  0.26040500  0.67187500  1
  Ag  Ag64  1  0.88540500  0.94795600  0.64063000  1
  Ag  Ag65  1  0.73956400  0.42707500  0.67187000  1
  Ag  Ag66  1  0.55209500  0.11462600  0.64062500  1
  Ag  Ag67  1  0.23954400  0.92709500  0.67188000  1
  Ag  Ag68  1  0.76042500  0.07293600  0.70312000  1
  Ag  Ag69  1  0.44787400  0.88540500  0.73437500  1
  Ag  Ag70  1  0.26040500  0.57295600  0.70313000  1
  Ag  Ag71  1  0.11456400  0.05207500  0.73437000  1
  Ag  Ag72  1  0.92709500  0.73962600  0.70312500  1
  Ag  Ag73  1  0.61454400  0.55209500  0.73438000  1
  Ag  Ag74  1  0.13542500  0.69793600  0.76562000  1
  Ag  Ag75  1  0.82287400  0.51040500  0.79687500  1
  Ag  Ag76  1  0.63540500  0.19795600  0.76563000  1
  Ag  Ag77  1  0.48956400  0.67707500  0.79687000  1
  Ag  Ag78  1  0.30209500  0.36462600  0.76562500  1
  Ag  Ag79  1  0.98954400  0.17709500  0.79688000  1
