# generated using pymatgen
data_Mg9Hg17
_symmetry_space_group_name_H-M   'P 1'
_cell_length_a   7.87304361
_cell_length_b   11.82935783
_cell_length_c   43.82095600
_cell_angle_alpha   83.52408281
_cell_angle_beta   92.38860921
_cell_angle_gamma   106.95287248
_symmetry_Int_Tables_number   1
_chemical_formula_structural   Mg9Hg17
_chemical_formula_sum   'Mg36 Hg68'
_cell_volume   3878.75641816
_cell_formula_units_Z   4
loop_
 _symmetry_equiv_pos_site_id
 _symmetry_equiv_pos_as_xyz
  1  'x, y, z'
loop_
 _atom_site_type_symbol
 _atom_site_label
 _atom_site_symmetry_multiplicity
 _atom_site_fract_x
 _atom_site_fract_y
 _atom_site_fract_z
 _atom_site_occupancy
  Mg  Mg0  1  0.72252600  0.48489800  0.18363200  1
  Mg  Mg1  1  0.24213500  0.00332200  0.18541500  1
  Mg  Mg2  1  0.61538300  0.94918400  0.21934700  1
  Mg  Mg3  1  0.13499200  0.46760800  0.22112900  1
  Mg  Mg4  1  0.50824000  0.41346900  0.25506100  1
  Mg  Mg5  1  0.02784900  0.93189400  0.25684400  1
  Mg  Mg6  1  0.40109700  0.87775500  0.29077500  1
  Mg  Mg7  1  0.92070700  0.39618000  0.29255800  1
  Mg  Mg8  1  0.29395400  0.34204100  0.32649000  1
  Mg  Mg9  1  0.81356400  0.86046500  0.32827200  1
  Mg  Mg10  1  0.18681200  0.80632600  0.36220400  1
  Mg  Mg11  1  0.70642100  0.32475100  0.36398700  1
  Mg  Mg12  1  0.07966900  0.27061200  0.39791800  1
  Mg  Mg13  1  0.59927800  0.78903700  0.39970100  1
  Mg  Mg14  1  0.97252600  0.73489800  0.43363200  1
  Mg  Mg15  1  0.49213500  0.25332200  0.43541500  1
  Mg  Mg16  1  0.86538300  0.19918400  0.46934700  1
  Mg  Mg17  1  0.38499200  0.71760800  0.47112900  1
  Mg  Mg18  1  0.75824000  0.66346900  0.50506100  1
  Mg  Mg19  1  0.27784900  0.18189400  0.50684400  1
  Mg  Mg20  1  0.65109700  0.12775500  0.54077500  1
  Mg  Mg21  1  0.17070700  0.64618000  0.54255800  1
  Mg  Mg22  1  0.54395400  0.59204100  0.57649000  1
  Mg  Mg23  1  0.06356400  0.11046500  0.57827200  1
  Mg  Mg24  1  0.43681200  0.05632600  0.61220400  1
  Mg  Mg25  1  0.95642100  0.57475100  0.61398700  1
  Mg  Mg26  1  0.32966900  0.52061200  0.64791800  1
  Mg  Mg27  1  0.84927800  0.03903700  0.64970100  1
  Mg  Mg28  1  0.22252600  0.98489800  0.68363200  1
  Mg  Mg29  1  0.74213500  0.50332200  0.68541500  1
  Mg  Mg30  1  0.11538300  0.44918400  0.71934700  1
  Mg  Mg31  1  0.63499200  0.96760800  0.72112900  1
  Mg  Mg32  1  0.00824000  0.91346900  0.75506100  1
  Mg  Mg33  1  0.52784900  0.43189400  0.75684400  1
  Mg  Mg34  1  0.90109700  0.37775500  0.79077500  1
  Mg  Mg35  1  0.42070700  0.89618000  0.79255800  1
  Hg  Hg36  1  0.76456900  0.29465800  0.23290900  1
  Hg  Hg37  1  0.98580700  0.12213400  0.20756700  1
  Hg  Hg38  1  0.35088800  0.32261000  0.19530200  1
  Hg  Hg39  1  0.39948700  0.09418200  0.24517400  1
  Hg  Hg40  1  0.87171100  0.83037200  0.19719500  1
  Hg  Hg41  1  0.87866400  0.58642000  0.24328100  1
  Hg  Hg42  1  0.24374500  0.78689500  0.23101600  1
  Hg  Hg43  1  0.50663000  0.62989600  0.20946000  1
  Hg  Hg44  1  0.55028300  0.22322900  0.30433800  1
  Hg  Hg45  1  0.77152100  0.05070500  0.27899600  1
  Hg  Hg46  1  0.13660300  0.25118100  0.26673000  1
  Hg  Hg47  1  0.18520100  0.02275400  0.31660300  1
  Hg  Hg48  1  0.65742600  0.75894400  0.26862300  1
  Hg  Hg49  1  0.66437800  0.51499100  0.31471000  1
  Hg  Hg50  1  0.02946000  0.71546700  0.30244500  1
  Hg  Hg51  1  0.29234400  0.55846800  0.28088900  1
  Hg  Hg52  1  0.33599700  0.15180100  0.37576600  1
  Hg  Hg53  1  0.55723500  0.97927700  0.35042400  1
  Hg  Hg54  1  0.92231700  0.17975300  0.33815900  1
  Hg  Hg55  1  0.97091600  0.95132500  0.38803200  1
  Hg  Hg56  1  0.44314000  0.68751500  0.34005200  1
  Hg  Hg57  1  0.45009200  0.44356200  0.38613900  1
  Hg  Hg58  1  0.81517400  0.64403800  0.37387300  1
  Hg  Hg59  1  0.07805800  0.48703900  0.35231700  1
  Hg  Hg60  1  0.12171100  0.08037200  0.44719500  1
  Hg  Hg61  1  0.34295000  0.90784800  0.42185300  1
  Hg  Hg62  1  0.70803100  0.10832400  0.40958700  1
  Hg  Hg63  1  0.75663000  0.87989600  0.45946000  1
  Hg  Hg64  1  0.22885400  0.61608600  0.41148100  1
  Hg  Hg65  1  0.23580700  0.37213400  0.45756700  1
  Hg  Hg66  1  0.60088800  0.57261000  0.44530200  1
  Hg  Hg67  1  0.86377300  0.41561100  0.42374600  1
  Hg  Hg68  1  0.90742600  0.00894400  0.51862300  1
  Hg  Hg69  1  0.12866400  0.83642000  0.49328100  1
  Hg  Hg70  1  0.49374500  0.03689500  0.48101600  1
  Hg  Hg71  1  0.54234400  0.80846800  0.53088900  1
  Hg  Hg72  1  0.01456900  0.54465800  0.48290900  1
  Hg  Hg73  1  0.02152100  0.30070500  0.52899600  1
  Hg  Hg74  1  0.38660300  0.50118100  0.51673000  1
  Hg  Hg75  1  0.64948700  0.34418200  0.49517400  1
  Hg  Hg76  1  0.69314000  0.93751500  0.59005200  1
  Hg  Hg77  1  0.91437800  0.76499100  0.56471000  1
  Hg  Hg78  1  0.27946000  0.96546700  0.55244500  1
  Hg  Hg79  1  0.32805800  0.73703900  0.60231700  1
  Hg  Hg80  1  0.80028300  0.47322900  0.55433800  1
  Hg  Hg81  1  0.80723500  0.22927700  0.60042400  1
  Hg  Hg82  1  0.17231700  0.42975300  0.58815900  1
  Hg  Hg83  1  0.43520100  0.27275400  0.56660300  1
  Hg  Hg84  1  0.47885400  0.86608600  0.66148100  1
  Hg  Hg85  1  0.70009200  0.69356200  0.63613900  1
  Hg  Hg86  1  0.06517400  0.89403800  0.62387300  1
  Hg  Hg87  1  0.11377300  0.66561100  0.67374600  1
  Hg  Hg88  1  0.58599700  0.40180100  0.62576600  1
  Hg  Hg89  1  0.59295000  0.15784800  0.67185300  1
  Hg  Hg90  1  0.95803100  0.35832400  0.65958700  1
  Hg  Hg91  1  0.22091600  0.20132500  0.63803200  1
  Hg  Hg92  1  0.26456900  0.79465800  0.73290900  1
  Hg  Hg93  1  0.48580700  0.62213400  0.70756700  1
  Hg  Hg94  1  0.85088800  0.82261000  0.69530200  1
  Hg  Hg95  1  0.89948700  0.59418200  0.74517400  1
  Hg  Hg96  1  0.37171100  0.33037200  0.69719500  1
  Hg  Hg97  1  0.37866400  0.08642000  0.74328100  1
  Hg  Hg98  1  0.74374500  0.28689500  0.73101600  1
  Hg  Hg99  1  0.00663000  0.12989600  0.70946000  1
  Hg  Hg100  1  0.27152100  0.55070500  0.77899600  1
  Hg  Hg101  1  0.63660300  0.75118100  0.76673000  1
  Hg  Hg102  1  0.15742600  0.25894400  0.76862300  1
  Hg  Hg103  1  0.79234400  0.05846800  0.78088900  1
