# generated using pymatgen
data_Li102Mg25
_symmetry_space_group_name_H-M   'P 1'
_cell_length_a   5.31167075
_cell_length_b   38.27865090
_cell_length_c   41.48547500
_cell_angle_alpha   92.03635659
_cell_angle_beta   86.32950214
_cell_angle_gamma   86.02152896
_symmetry_Int_Tables_number   1
_chemical_formula_structural   Li102Mg25
_chemical_formula_sum   'Li204 Mg50'
_cell_volume   8390.61563564
_cell_formula_units_Z   2
loop_
 _symmetry_equiv_pos_site_id
 _symmetry_equiv_pos_as_xyz
  1  'x, y, z'
loop_
 _atom_site_type_symbol
 _atom_site_label
 _atom_site_symmetry_multiplicity
 _atom_site_fract_x
 _atom_site_fract_y
 _atom_site_fract_z
 _atom_site_occupancy
  Li  Li0  1  0.86769400  0.93201300  0.21847000  1
  Li  Li1  1  0.23512300  0.86625700  0.21603400  1
  Li  Li2  1  0.60259900  0.80041000  0.21359500  1
  Li  Li3  1  0.97002800  0.73465400  0.21116000  1
  Li  Li4  1  0.54670600  0.26534600  0.19377800  1
  Li  Li5  1  0.91413500  0.19959000  0.19134300  1
  Li  Li6  1  0.28161100  0.13374300  0.18890400  1
  Li  Li7  1  0.64904000  0.06798700  0.18646900  1
  Li  Li8  1  0.70720000  0.59868000  0.20612400  1
  Li  Li9  1  0.07462900  0.53292300  0.20368900  1
  Li  Li10  1  0.44210500  0.46707700  0.20125000  1
  Li  Li11  1  0.80953400  0.40132000  0.19881400  1
  Li  Li12  1  0.34917500  0.93201300  0.25550700  1
  Li  Li13  1  0.71660400  0.86625700  0.25307100  1
  Li  Li14  1  0.08408000  0.80041000  0.25063200  1
  Li  Li15  1  0.45151000  0.73465400  0.24819700  1
  Li  Li16  1  0.02818800  0.26534600  0.23081500  1
  Li  Li17  1  0.39561700  0.19959000  0.22838000  1
  Li  Li18  1  0.76309300  0.13374300  0.22594100  1
  Li  Li19  1  0.13052200  0.06798700  0.22350600  1
  Li  Li20  1  0.18868100  0.59868000  0.24316100  1
  Li  Li21  1  0.55611100  0.53292300  0.24072600  1
  Li  Li22  1  0.92358600  0.46707700  0.23828700  1
  Li  Li23  1  0.29101600  0.40132000  0.23585100  1
  Li  Li24  1  0.83065700  0.93201300  0.29254400  1
  Li  Li25  1  0.19808600  0.86625700  0.29010800  1
  Li  Li26  1  0.56556200  0.80041000  0.28767000  1
  Li  Li27  1  0.93299100  0.73465400  0.28523400  1
  Li  Li28  1  0.50966900  0.26534600  0.26785200  1
  Li  Li29  1  0.87709800  0.19959000  0.26541700  1
  Li  Li30  1  0.24457400  0.13374300  0.26297800  1
  Li  Li31  1  0.61200300  0.06798700  0.26054300  1
  Li  Li32  1  0.67016300  0.59868000  0.28019800  1
  Li  Li33  1  0.03759200  0.53292300  0.27776300  1
  Li  Li34  1  0.40506800  0.46707700  0.27532400  1
  Li  Li35  1  0.77249700  0.40132000  0.27288800  1
  Li  Li36  1  0.31213800  0.93201300  0.32958100  1
  Li  Li37  1  0.67956700  0.86625700  0.32714500  1
  Li  Li38  1  0.04704300  0.80041000  0.32470700  1
  Li  Li39  1  0.41447200  0.73465400  0.32227100  1
  Li  Li40  1  0.99115000  0.26534600  0.30488900  1
  Li  Li41  1  0.35858000  0.19959000  0.30245400  1
  Li  Li42  1  0.72605600  0.13374300  0.30001500  1
  Li  Li43  1  0.09348500  0.06798700  0.29758000  1
  Li  Li44  1  0.15164400  0.59868000  0.31723500  1
  Li  Li45  1  0.51907300  0.53292300  0.31480000  1
  Li  Li46  1  0.88654900  0.46707700  0.31236100  1
  Li  Li47  1  0.25397900  0.40132000  0.30992500  1
  Li  Li48  1  0.79362000  0.93201300  0.36661800  1
  Li  Li49  1  0.16104900  0.86625700  0.36418200  1
  Li  Li50  1  0.52852500  0.80041000  0.36174400  1
  Li  Li51  1  0.89595400  0.73465400  0.35930800  1
  Li  Li52  1  0.47263200  0.26534600  0.34192600  1
  Li  Li53  1  0.84006100  0.19959000  0.33949100  1
  Li  Li54  1  0.20753700  0.13374300  0.33705200  1
  Li  Li55  1  0.57496600  0.06798700  0.33461700  1
  Li  Li56  1  0.63312600  0.59868000  0.35427200  1
  Li  Li57  1  0.00055500  0.53292300  0.35183700  1
  Li  Li58  1  0.36803100  0.46707700  0.34939800  1
  Li  Li59  1  0.73546000  0.40132000  0.34696200  1
  Li  Li60  1  0.27510100  0.93201300  0.40365500  1
  Li  Li61  1  0.64253000  0.86625700  0.40121900  1
  Li  Li62  1  0.01000600  0.80041000  0.39878100  1
  Li  Li63  1  0.37743500  0.73465400  0.39634500  1
  Li  Li64  1  0.95411300  0.26534600  0.37896300  1
  Li  Li65  1  0.32154300  0.19959000  0.37652800  1
  Li  Li66  1  0.68901900  0.13374300  0.37408900  1
  Li  Li67  1  0.05644800  0.06798700  0.37165400  1
  Li  Li68  1  0.11460700  0.59868000  0.39130900  1
  Li  Li69  1  0.48203600  0.53292300  0.38887400  1
  Li  Li70  1  0.84951200  0.46707700  0.38643500  1
  Li  Li71  1  0.21694200  0.40132000  0.38400000  1
  Li  Li72  1  0.75658300  0.93201300  0.44069200  1
  Li  Li73  1  0.12401200  0.86625700  0.43825600  1
  Li  Li74  1  0.49148800  0.80041000  0.43581800  1
  Li  Li75  1  0.85891700  0.73465400  0.43338200  1
  Li  Li76  1  0.43559500  0.26534600  0.41600000  1
  Li  Li77  1  0.80302400  0.19959000  0.41356500  1
  Li  Li78  1  0.17050000  0.13374300  0.41112600  1
  Li  Li79  1  0.53792900  0.06798700  0.40869100  1
  Li  Li80  1  0.59608900  0.59868000  0.42834600  1
  Li  Li81  1  0.96351800  0.53292300  0.42591100  1
  Li  Li82  1  0.33099400  0.46707700  0.42347200  1
  Li  Li83  1  0.69842300  0.40132000  0.42103700  1
  Li  Li84  1  0.23806400  0.93201300  0.47772900  1
  Li  Li85  1  0.60549300  0.86625700  0.47529300  1
  Li  Li86  1  0.97296900  0.80041000  0.47285500  1
  Li  Li87  1  0.34039800  0.73465400  0.47041900  1
  Li  Li88  1  0.91707600  0.26534600  0.45303800  1
  Li  Li89  1  0.28450600  0.19959000  0.45060200  1
  Li  Li90  1  0.65198200  0.13374300  0.44816300  1
  Li  Li91  1  0.01941100  0.06798700  0.44572800  1
  Li  Li92  1  0.07757000  0.59868000  0.46538300  1
  Li  Li93  1  0.44499900  0.53292300  0.46294800  1
  Li  Li94  1  0.81247500  0.46707700  0.46050900  1
  Li  Li95  1  0.17990500  0.40132000  0.45807400  1
  Li  Li96  1  0.71954600  0.93201300  0.51476600  1
  Li  Li97  1  0.08697500  0.86625700  0.51233000  1
  Li  Li98  1  0.45445100  0.80041000  0.50989200  1
  Li  Li99  1  0.82188000  0.73465400  0.50745600  1
  Li  Li100  1  0.39855800  0.26534600  0.49007500  1
  Li  Li101  1  0.76598700  0.19959000  0.48763900  1
  Li  Li102  1  0.13346300  0.13374300  0.48520000  1
  Li  Li103  1  0.50089200  0.06798700  0.48276500  1
  Li  Li104  1  0.55905200  0.59868000  0.50242000  1
  Li  Li105  1  0.92648100  0.53292300  0.49998500  1
  Li  Li106  1  0.29395700  0.46707700  0.49754600  1
  Li  Li107  1  0.66138600  0.40132000  0.49511100  1
  Li  Li108  1  0.20102700  0.93201300  0.55180300  1
  Li  Li109  1  0.56845600  0.86625700  0.54936800  1
  Li  Li110  1  0.93593200  0.80041000  0.54692900  1
  Li  Li111  1  0.30336100  0.73465400  0.54449300  1
  Li  Li112  1  0.88003900  0.26534600  0.52711200  1
  Li  Li113  1  0.24746900  0.19959000  0.52467600  1
  Li  Li114  1  0.61494500  0.13374300  0.52223700  1
  Li  Li115  1  0.98237400  0.06798700  0.51980200  1
  Li  Li116  1  0.04053300  0.59868000  0.53945700  1
  Li  Li117  1  0.40796200  0.53292300  0.53702200  1
  Li  Li118  1  0.77543800  0.46707700  0.53458300  1
  Li  Li119  1  0.14286800  0.40132000  0.53214800  1
  Li  Li120  1  0.68250800  0.93201300  0.58884000  1
  Li  Li121  1  0.04993800  0.86625700  0.58640500  1
  Li  Li122  1  0.41741400  0.80041000  0.58396600  1
  Li  Li123  1  0.78484300  0.73465400  0.58153000  1
  Li  Li124  1  0.36152100  0.26534600  0.56414900  1
  Li  Li125  1  0.72895000  0.19959000  0.56171300  1
  Li  Li126  1  0.09642600  0.13374300  0.55927400  1
  Li  Li127  1  0.46385500  0.06798700  0.55683900  1
  Li  Li128  1  0.52201500  0.59868000  0.57649400  1
  Li  Li129  1  0.88944400  0.53292300  0.57405900  1
  Li  Li130  1  0.25692000  0.46707700  0.57162000  1
  Li  Li131  1  0.62434900  0.40132000  0.56918500  1
  Li  Li132  1  0.16399000  0.93201300  0.62587700  1
  Li  Li133  1  0.53141900  0.86625700  0.62344200  1
  Li  Li134  1  0.89889500  0.80041000  0.62100300  1
  Li  Li135  1  0.26632400  0.73465400  0.61856700  1
  Li  Li136  1  0.84300200  0.26534600  0.60118600  1
  Li  Li137  1  0.21043200  0.19959000  0.59875000  1
  Li  Li138  1  0.57790700  0.13374300  0.59631100  1
  Li  Li139  1  0.94533700  0.06798700  0.59387600  1
  Li  Li140  1  0.00349600  0.59868000  0.61353100  1
  Li  Li141  1  0.37092500  0.53292300  0.61109600  1
  Li  Li142  1  0.73840100  0.46707700  0.60865700  1
  Li  Li143  1  0.10583100  0.40132000  0.60622200  1
  Li  Li144  1  0.64547100  0.93201300  0.66291400  1
  Li  Li145  1  0.01290100  0.86625700  0.66047900  1
  Li  Li146  1  0.38037700  0.80041000  0.65804000  1
  Li  Li147  1  0.74780600  0.73465400  0.65560400  1
  Li  Li148  1  0.32448400  0.26534600  0.63822300  1
  Li  Li149  1  0.69191300  0.19959000  0.63578700  1
  Li  Li150  1  0.05938900  0.13374300  0.63334900  1
  Li  Li151  1  0.42681800  0.06798700  0.63091300  1
  Li  Li152  1  0.48497800  0.59868000  0.65056800  1
  Li  Li153  1  0.85240700  0.53292300  0.64813300  1
  Li  Li154  1  0.21988300  0.46707700  0.64569400  1
  Li  Li155  1  0.58731200  0.40132000  0.64325900  1
  Li  Li156  1  0.12695300  0.93201300  0.69995100  1
  Li  Li157  1  0.49438200  0.86625700  0.69751600  1
  Li  Li158  1  0.86185800  0.80041000  0.69507700  1
  Li  Li159  1  0.22928700  0.73465400  0.69264100  1
  Li  Li160  1  0.80596500  0.26534600  0.67526000  1
  Li  Li161  1  0.17339400  0.19959000  0.67282400  1
  Li  Li162  1  0.54087000  0.13374300  0.67038600  1
  Li  Li163  1  0.90830000  0.06798700  0.66795000  1
  Li  Li164  1  0.96645900  0.59868000  0.68760500  1
  Li  Li165  1  0.33388800  0.53292300  0.68517000  1
  Li  Li166  1  0.70136400  0.46707700  0.68273100  1
  Li  Li167  1  0.06879300  0.40132000  0.68029600  1
  Li  Li168  1  0.60843400  0.93201300  0.73698800  1
  Li  Li169  1  0.97586400  0.86625700  0.73455300  1
  Li  Li170  1  0.34334000  0.80041000  0.73211400  1
  Li  Li171  1  0.71076900  0.73465400  0.72967900  1
  Li  Li172  1  0.28744700  0.26534600  0.71229700  1
  Li  Li173  1  0.65487600  0.19959000  0.70986100  1
  Li  Li174  1  0.02235200  0.13374300  0.70742300  1
  Li  Li175  1  0.38978100  0.06798700  0.70498700  1
  Li  Li176  1  0.44794100  0.59868000  0.72464200  1
  Li  Li177  1  0.81537000  0.53292300  0.72220700  1
  Li  Li178  1  0.18284600  0.46707700  0.71976800  1
  Li  Li179  1  0.55027500  0.40132000  0.71733300  1
  Li  Li180  1  0.08991600  0.93201300  0.77402500  1
  Li  Li181  1  0.45734500  0.86625700  0.77159000  1
  Li  Li182  1  0.82482100  0.80041000  0.76915100  1
  Li  Li183  1  0.19225000  0.73465400  0.76671600  1
  Li  Li184  1  0.76892800  0.26534600  0.74933400  1
  Li  Li185  1  0.13635700  0.19959000  0.74689800  1
  Li  Li186  1  0.50383300  0.13374300  0.74446000  1
  Li  Li187  1  0.87126300  0.06798700  0.74202400  1
  Li  Li188  1  0.92942200  0.59868000  0.76167900  1
  Li  Li189  1  0.29685100  0.53292300  0.75924400  1
  Li  Li190  1  0.66432700  0.46707700  0.75680500  1
  Li  Li191  1  0.03175600  0.40132000  0.75437000  1
  Li  Li192  1  0.57139700  0.93201300  0.81106200  1
  Li  Li193  1  0.93882700  0.86625700  0.80862700  1
  Li  Li194  1  0.30630300  0.80041000  0.80618800  1
  Li  Li195  1  0.67373200  0.73465400  0.80375300  1
  Li  Li196  1  0.25041000  0.26534600  0.78637100  1
  Li  Li197  1  0.61783900  0.19959000  0.78393500  1
  Li  Li198  1  0.98531500  0.13374300  0.78149700  1
  Li  Li199  1  0.35274400  0.06798700  0.77906100  1
  Li  Li200  1  0.41090400  0.59868000  0.79871700  1
  Li  Li201  1  0.77833300  0.53292300  0.79628100  1
  Li  Li202  1  0.14580900  0.46707700  0.79384200  1
  Li  Li203  1  0.51323800  0.40132000  0.79140700  1
  Mg  Mg204  1  0.49910800  0.00000000  0.22098800  1
  Mg  Mg205  1  0.17812000  0.33333300  0.19629600  1
  Mg  Mg206  1  0.33861400  0.66666700  0.20864200  1
  Mg  Mg207  1  0.98058900  0.00000000  0.25802500  1
  Mg  Mg208  1  0.65960200  0.33333300  0.23333300  1
  Mg  Mg209  1  0.82009500  0.66666700  0.24567900  1
  Mg  Mg210  1  0.46207100  0.00000000  0.29506200  1
  Mg  Mg211  1  0.14108300  0.33333300  0.27037000  1
  Mg  Mg212  1  0.30157700  0.66666700  0.28271600  1
  Mg  Mg213  1  0.94355200  0.00000000  0.33209900  1
  Mg  Mg214  1  0.62256500  0.33333300  0.30740700  1
  Mg  Mg215  1  0.78305800  0.66666700  0.31975300  1
  Mg  Mg216  1  0.42503400  0.00000000  0.36913600  1
  Mg  Mg217  1  0.10404600  0.33333300  0.34444400  1
  Mg  Mg218  1  0.26454000  0.66666700  0.35679000  1
  Mg  Mg219  1  0.90651500  0.00000000  0.40617300  1
  Mg  Mg220  1  0.58552800  0.33333300  0.38148100  1
  Mg  Mg221  1  0.74602100  0.66666700  0.39382700  1
  Mg  Mg222  1  0.38799700  0.00000000  0.44321000  1
  Mg  Mg223  1  0.06700900  0.33333300  0.41851900  1
  Mg  Mg224  1  0.22750300  0.66666700  0.43086400  1
  Mg  Mg225  1  0.86947800  0.00000000  0.48024700  1
  Mg  Mg226  1  0.54849000  0.33333300  0.45555600  1
  Mg  Mg227  1  0.70898400  0.66666700  0.46790100  1
  Mg  Mg228  1  0.35096000  0.00000000  0.51728400  1
  Mg  Mg229  1  0.02997200  0.33333300  0.49259300  1
  Mg  Mg230  1  0.19046600  0.66666700  0.50493800  1
  Mg  Mg231  1  0.83244100  0.00000000  0.55432100  1
  Mg  Mg232  1  0.51145300  0.33333300  0.52963000  1
  Mg  Mg233  1  0.67194700  0.66666700  0.54197500  1
  Mg  Mg234  1  0.31392300  0.00000000  0.59135800  1
  Mg  Mg235  1  0.99293500  0.33333300  0.56666700  1
  Mg  Mg236  1  0.15342900  0.66666700  0.57901200  1
  Mg  Mg237  1  0.79540400  0.00000000  0.62839500  1
  Mg  Mg238  1  0.47441600  0.33333300  0.60370400  1
  Mg  Mg239  1  0.63491000  0.66666700  0.61604900  1
  Mg  Mg240  1  0.27688600  0.00000000  0.66543200  1
  Mg  Mg241  1  0.95589800  0.33333300  0.64074100  1
  Mg  Mg242  1  0.11639200  0.66666700  0.65308600  1
  Mg  Mg243  1  0.75836700  0.00000000  0.70246900  1
  Mg  Mg244  1  0.43737900  0.33333300  0.67777800  1
  Mg  Mg245  1  0.59787300  0.66666700  0.69012300  1
  Mg  Mg246  1  0.23984900  0.00000000  0.73950600  1
  Mg  Mg247  1  0.91886100  0.33333300  0.71481500  1
  Mg  Mg248  1  0.07935500  0.66666700  0.72716000  1
  Mg  Mg249  1  0.72133000  0.00000000  0.77654300  1
  Mg  Mg250  1  0.40034200  0.33333300  0.75185200  1
  Mg  Mg251  1  0.56083600  0.66666700  0.76419800  1
  Mg  Mg252  1  0.88182400  0.33333300  0.78888900  1
  Mg  Mg253  1  0.04231800  0.66666700  0.80123500  1
