# generated using pymatgen
data_Mg3Ga8
_symmetry_space_group_name_H-M   'P 1'
_cell_length_a   7.03330400
_cell_length_b   7.14992834
_cell_length_c   49.80257500
_cell_angle_alpha   90.00000000
_cell_angle_beta   90.00000000
_cell_angle_gamma   119.46187890
_symmetry_Int_Tables_number   1
_chemical_formula_structural   Mg3Ga8
_chemical_formula_sum   'Mg18 Ga48'
_cell_volume   2180.58493507
_cell_formula_units_Z   6
loop_
 _symmetry_equiv_pos_site_id
 _symmetry_equiv_pos_as_xyz
  1  'x, y, z'
loop_
 _atom_site_type_symbol
 _atom_site_label
 _atom_site_symmetry_multiplicity
 _atom_site_fract_x
 _atom_site_fract_y
 _atom_site_fract_z
 _atom_site_occupancy
  Mg  Mg0  1  0.92601000  0.85202000  0.75560100  1
  Mg  Mg1  1  0.12698600  0.25397100  0.70535700  1
  Mg  Mg2  1  0.72503400  0.45006900  0.70535700  1
  Mg  Mg3  1  0.42601000  0.85202000  0.78011300  1
  Mg  Mg4  1  0.42601000  0.85202000  0.63060100  1
  Mg  Mg5  1  0.62698600  0.25397100  0.58035700  1
  Mg  Mg6  1  0.22503400  0.45006900  0.58035700  1
  Mg  Mg7  1  0.92601000  0.85202000  0.65511300  1
  Mg  Mg8  1  0.92601000  0.85202000  0.50560100  1
  Mg  Mg9  1  0.12698600  0.25397100  0.45535700  1
  Mg  Mg10  1  0.72503400  0.45006900  0.45535700  1
  Mg  Mg11  1  0.42601000  0.85202000  0.53011300  1
  Mg  Mg12  1  0.42601000  0.85202000  0.38060100  1
  Mg  Mg13  1  0.62698600  0.25397100  0.33035700  1
  Mg  Mg14  1  0.22503400  0.45006900  0.33035700  1
  Mg  Mg15  1  0.92601000  0.85202000  0.40511300  1
  Mg  Mg16  1  0.92601000  0.85202000  0.25560100  1
  Mg  Mg17  1  0.42601000  0.85202000  0.28011300  1
  Ga  Ga18  1  0.88961500  0.14798000  0.79336200  1
  Ga  Ga19  1  0.38961500  0.14798000  0.74235200  1
  Ga  Ga20  1  0.59365500  0.55606000  0.79336200  1
  Ga  Ga21  1  0.09365500  0.55606000  0.74235200  1
  Ga  Ga22  1  0.71741000  0.85202000  0.70535700  1
  Ga  Ga23  1  0.13461000  0.85202000  0.70535700  1
  Ga  Ga24  1  0.96240500  0.55606000  0.79336200  1
  Ga  Ga25  1  0.46240500  0.55606000  0.74235200  1
  Ga  Ga26  1  0.25836500  0.14798000  0.79336200  1
  Ga  Ga27  1  0.75836500  0.14798000  0.74235200  1
  Ga  Ga28  1  0.38961500  0.14798000  0.66836200  1
  Ga  Ga29  1  0.88961500  0.14798000  0.61735200  1
  Ga  Ga30  1  0.09365500  0.55606000  0.66836200  1
  Ga  Ga31  1  0.59365500  0.55606000  0.61735200  1
  Ga  Ga32  1  0.21741000  0.85202000  0.58035700  1
  Ga  Ga33  1  0.63461000  0.85202000  0.58035700  1
  Ga  Ga34  1  0.46240500  0.55606000  0.66836200  1
  Ga  Ga35  1  0.96240500  0.55606000  0.61735200  1
  Ga  Ga36  1  0.75836500  0.14798000  0.66836200  1
  Ga  Ga37  1  0.25836500  0.14798000  0.61735200  1
  Ga  Ga38  1  0.88961500  0.14798000  0.54336200  1
  Ga  Ga39  1  0.38961500  0.14798000  0.49235200  1
  Ga  Ga40  1  0.59365500  0.55606000  0.54336200  1
  Ga  Ga41  1  0.09365500  0.55606000  0.49235200  1
  Ga  Ga42  1  0.71741000  0.85202000  0.45535700  1
  Ga  Ga43  1  0.13461000  0.85202000  0.45535700  1
  Ga  Ga44  1  0.96240500  0.55606000  0.54336200  1
  Ga  Ga45  1  0.46240500  0.55606000  0.49235200  1
  Ga  Ga46  1  0.25836500  0.14798000  0.54336200  1
  Ga  Ga47  1  0.75836500  0.14798000  0.49235200  1
  Ga  Ga48  1  0.38961500  0.14798000  0.41836200  1
  Ga  Ga49  1  0.88961500  0.14798000  0.36735200  1
  Ga  Ga50  1  0.09365500  0.55606000  0.41836200  1
  Ga  Ga51  1  0.59365500  0.55606000  0.36735200  1
  Ga  Ga52  1  0.21741000  0.85202000  0.33035700  1
  Ga  Ga53  1  0.63461000  0.85202000  0.33035700  1
  Ga  Ga54  1  0.46240500  0.55606000  0.41836200  1
  Ga  Ga55  1  0.96240500  0.55606000  0.36735200  1
  Ga  Ga56  1  0.75836500  0.14798000  0.41836200  1
  Ga  Ga57  1  0.25836500  0.14798000  0.36735200  1
  Ga  Ga58  1  0.88961500  0.14798000  0.29336200  1
  Ga  Ga59  1  0.38961500  0.14798000  0.24235200  1
  Ga  Ga60  1  0.59365500  0.55606000  0.29336200  1
  Ga  Ga61  1  0.09365500  0.55606000  0.24235200  1
  Ga  Ga62  1  0.96240500  0.55606000  0.29336200  1
  Ga  Ga63  1  0.46240500  0.55606000  0.24235200  1
  Ga  Ga64  1  0.25836500  0.14798000  0.29336200  1
  Ga  Ga65  1  0.75836500  0.14798000  0.24235200  1
