# generated using pymatgen
data_Mg17Pd52
_symmetry_space_group_name_H-M   'P 1'
_cell_length_a   5.64587871
_cell_length_b   16.27383556
_cell_length_c   42.43808700
_cell_angle_alpha   100.63894427
_cell_angle_beta   93.81407213
_cell_angle_gamma   80.01066251
_symmetry_Int_Tables_number   1
_chemical_formula_structural   Mg17Pd52
_chemical_formula_sum   'Mg34 Pd104'
_cell_volume   3771.69542246
_cell_formula_units_Z   2
loop_
 _symmetry_equiv_pos_site_id
 _symmetry_equiv_pos_as_xyz
  1  'x, y, z'
loop_
 _atom_site_type_symbol
 _atom_site_label
 _atom_site_symmetry_multiplicity
 _atom_site_fract_x
 _atom_site_fract_y
 _atom_site_fract_z
 _atom_site_occupancy
  Mg  Mg0  1  0.62017600  0.87629100  0.25425300  1
  Mg  Mg1  1  0.23804700  0.62370900  0.23741400  1
  Mg  Mg2  1  0.88684200  0.37629100  0.28758600  1
  Mg  Mg3  1  0.50471400  0.12370900  0.27074700  1
  Mg  Mg4  1  0.15350900  0.87629100  0.32091900  1
  Mg  Mg5  1  0.77138000  0.62370900  0.30408100  1
  Mg  Mg6  1  0.42017600  0.37629100  0.35425300  1
  Mg  Mg7  1  0.03804700  0.12370900  0.33741400  1
  Mg  Mg8  1  0.68684200  0.87629100  0.38758600  1
  Mg  Mg9  1  0.30471400  0.62370900  0.37074700  1
  Mg  Mg10  1  0.95350900  0.37629100  0.42091900  1
  Mg  Mg11  1  0.57138000  0.12370900  0.40408100  1
  Mg  Mg12  1  0.22017600  0.87629100  0.45425300  1
  Mg  Mg13  1  0.83804700  0.62370900  0.43741400  1
  Mg  Mg14  1  0.48684200  0.37629100  0.48758600  1
  Mg  Mg15  1  0.10471400  0.12370900  0.47074700  1
  Mg  Mg16  1  0.75350900  0.87629100  0.52091900  1
  Mg  Mg17  1  0.37138000  0.62370900  0.50408100  1
  Mg  Mg18  1  0.02017600  0.37629100  0.55425300  1
  Mg  Mg19  1  0.63804700  0.12370900  0.53741400  1
  Mg  Mg20  1  0.28684200  0.87629100  0.58758600  1
  Mg  Mg21  1  0.90471400  0.62370900  0.57074700  1
  Mg  Mg22  1  0.55350900  0.37629100  0.62091900  1
  Mg  Mg23  1  0.17138000  0.12370900  0.60408100  1
  Mg  Mg24  1  0.82017600  0.87629100  0.65425300  1
  Mg  Mg25  1  0.43804700  0.62370900  0.63741400  1
  Mg  Mg26  1  0.08684200  0.37629100  0.68758600  1
  Mg  Mg27  1  0.70471400  0.12370900  0.67074700  1
  Mg  Mg28  1  0.35350900  0.87629100  0.72091900  1
  Mg  Mg29  1  0.97138000  0.62370900  0.70408100  1
  Mg  Mg30  1  0.62017600  0.37629100  0.75425300  1
  Mg  Mg31  1  0.23804700  0.12370900  0.73741400  1
  Mg  Mg32  1  0.88684200  0.87629100  0.78758600  1
  Mg  Mg33  1  0.50471400  0.62370900  0.77074700  1
  Pd  Pd34  1  0.29577800  0.00000000  0.22916700  1
  Pd  Pd35  1  0.79577800  0.00000000  0.22916700  1
  Pd  Pd36  1  0.67911100  0.25000000  0.24583300  1
  Pd  Pd37  1  0.17911100  0.25000000  0.24583300  1
  Pd  Pd38  1  0.56244500  0.50000000  0.26250000  1
  Pd  Pd39  1  0.06244500  0.50000000  0.26250000  1
  Pd  Pd40  1  0.73755500  0.62476300  0.23748400  1
  Pd  Pd41  1  0.12066700  0.87523700  0.25418200  1
  Pd  Pd42  1  0.82911100  0.00000000  0.29583300  1
  Pd  Pd43  1  0.32911100  0.00000000  0.29583300  1
  Pd  Pd44  1  0.21244500  0.25000000  0.31250000  1
  Pd  Pd45  1  0.71244500  0.25000000  0.31250000  1
  Pd  Pd46  1  0.00422200  0.12476300  0.27081800  1
  Pd  Pd47  1  0.38733400  0.37523700  0.28751600  1
  Pd  Pd48  1  0.09577800  0.50000000  0.32916700  1
  Pd  Pd49  1  0.59577800  0.50000000  0.32916700  1
  Pd  Pd50  1  0.94577800  0.75000000  0.27916700  1
  Pd  Pd51  1  0.44577800  0.75000000  0.27916700  1
  Pd  Pd52  1  0.27088900  0.62476300  0.30415100  1
  Pd  Pd53  1  0.65400100  0.87523700  0.32084900  1
  Pd  Pd54  1  0.36244500  0.00000000  0.36250000  1
  Pd  Pd55  1  0.86244500  0.00000000  0.36250000  1
  Pd  Pd56  1  0.74577800  0.25000000  0.37916700  1
  Pd  Pd57  1  0.24577800  0.25000000  0.37916700  1
  Pd  Pd58  1  0.53755500  0.12476300  0.33748400  1
  Pd  Pd59  1  0.92066700  0.37523700  0.35418200  1
  Pd  Pd60  1  0.62911100  0.50000000  0.39583300  1
  Pd  Pd61  1  0.12911100  0.50000000  0.39583300  1
  Pd  Pd62  1  0.47911100  0.75000000  0.34583300  1
  Pd  Pd63  1  0.97911100  0.75000000  0.34583300  1
  Pd  Pd64  1  0.80422200  0.62476300  0.37081800  1
  Pd  Pd65  1  0.18733400  0.87523700  0.38751600  1
  Pd  Pd66  1  0.89577800  0.00000000  0.42916700  1
  Pd  Pd67  1  0.39577800  0.00000000  0.42916700  1
  Pd  Pd68  1  0.27911100  0.25000000  0.44583300  1
  Pd  Pd69  1  0.77911100  0.25000000  0.44583300  1
  Pd  Pd70  1  0.07088900  0.12476300  0.40415100  1
  Pd  Pd71  1  0.45400100  0.37523700  0.42084900  1
  Pd  Pd72  1  0.16244500  0.50000000  0.46250000  1
  Pd  Pd73  1  0.66244500  0.50000000  0.46250000  1
  Pd  Pd74  1  0.01244500  0.75000000  0.41250000  1
  Pd  Pd75  1  0.51244500  0.75000000  0.41250000  1
  Pd  Pd76  1  0.33755500  0.62476300  0.43748400  1
  Pd  Pd77  1  0.72066700  0.87523700  0.45418200  1
  Pd  Pd78  1  0.42911100  0.00000000  0.49583300  1
  Pd  Pd79  1  0.92911100  0.00000000  0.49583300  1
  Pd  Pd80  1  0.81244500  0.25000000  0.51250000  1
  Pd  Pd81  1  0.31244500  0.25000000  0.51250000  1
  Pd  Pd82  1  0.60422200  0.12476300  0.47081800  1
  Pd  Pd83  1  0.98733400  0.37523700  0.48751600  1
  Pd  Pd84  1  0.69577800  0.50000000  0.52916700  1
  Pd  Pd85  1  0.19577800  0.50000000  0.52916700  1
  Pd  Pd86  1  0.54577800  0.75000000  0.47916700  1
  Pd  Pd87  1  0.04577800  0.75000000  0.47916700  1
  Pd  Pd88  1  0.87088900  0.62476300  0.50415100  1
  Pd  Pd89  1  0.25400100  0.87523700  0.52084900  1
  Pd  Pd90  1  0.96244500  0.00000000  0.56250000  1
  Pd  Pd91  1  0.46244500  0.00000000  0.56250000  1
  Pd  Pd92  1  0.34577800  0.25000000  0.57916700  1
  Pd  Pd93  1  0.84577800  0.25000000  0.57916700  1
  Pd  Pd94  1  0.13755500  0.12476300  0.53748400  1
  Pd  Pd95  1  0.52066700  0.37523700  0.55418200  1
  Pd  Pd96  1  0.22911100  0.50000000  0.59583300  1
  Pd  Pd97  1  0.72911100  0.50000000  0.59583300  1
  Pd  Pd98  1  0.07911100  0.75000000  0.54583300  1
  Pd  Pd99  1  0.57911100  0.75000000  0.54583300  1
  Pd  Pd100  1  0.40422200  0.62476300  0.57081800  1
  Pd  Pd101  1  0.78733400  0.87523700  0.58751600  1
  Pd  Pd102  1  0.49577800  0.00000000  0.62916700  1
  Pd  Pd103  1  0.99577800  0.00000000  0.62916700  1
  Pd  Pd104  1  0.87911100  0.25000000  0.64583300  1
  Pd  Pd105  1  0.37911100  0.25000000  0.64583300  1
  Pd  Pd106  1  0.67088900  0.12476300  0.60415100  1
  Pd  Pd107  1  0.05400100  0.37523700  0.62084900  1
  Pd  Pd108  1  0.76244500  0.50000000  0.66250000  1
  Pd  Pd109  1  0.26244500  0.50000000  0.66250000  1
  Pd  Pd110  1  0.61244500  0.75000000  0.61250000  1
  Pd  Pd111  1  0.11244500  0.75000000  0.61250000  1
  Pd  Pd112  1  0.93755500  0.62476300  0.63748400  1
  Pd  Pd113  1  0.32066700  0.87523700  0.65418200  1
  Pd  Pd114  1  0.02911100  0.00000000  0.69583300  1
  Pd  Pd115  1  0.52911100  0.00000000  0.69583300  1
  Pd  Pd116  1  0.41244500  0.25000000  0.71250000  1
  Pd  Pd117  1  0.91244500  0.25000000  0.71250000  1
  Pd  Pd118  1  0.20422200  0.12476300  0.67081800  1
  Pd  Pd119  1  0.58733400  0.37523700  0.68751600  1
  Pd  Pd120  1  0.29577800  0.50000000  0.72916700  1
  Pd  Pd121  1  0.79577800  0.50000000  0.72916700  1
  Pd  Pd122  1  0.14577800  0.75000000  0.67916700  1
  Pd  Pd123  1  0.64577800  0.75000000  0.67916700  1
  Pd  Pd124  1  0.47088900  0.62476300  0.70415100  1
  Pd  Pd125  1  0.85400100  0.87523700  0.72084900  1
  Pd  Pd126  1  0.56244500  0.00000000  0.76250000  1
  Pd  Pd127  1  0.06244500  0.00000000  0.76250000  1
  Pd  Pd128  1  0.94577800  0.25000000  0.77916700  1
  Pd  Pd129  1  0.44577800  0.25000000  0.77916700  1
  Pd  Pd130  1  0.73755500  0.12476300  0.73748400  1
  Pd  Pd131  1  0.12066700  0.37523700  0.75418200  1
  Pd  Pd132  1  0.82911100  0.50000000  0.79583300  1
  Pd  Pd133  1  0.32911100  0.50000000  0.79583300  1
  Pd  Pd134  1  0.67911100  0.75000000  0.74583300  1
  Pd  Pd135  1  0.17911100  0.75000000  0.74583300  1
  Pd  Pd136  1  0.00422200  0.62476300  0.77081800  1
  Pd  Pd137  1  0.38733400  0.87523700  0.78751600  1
