# generated using pymatgen
data_Mg23Zn112
_symmetry_space_group_name_H-M   'P 1'
_cell_length_a   10.62299173
_cell_length_b   17.53293388
_cell_length_c   43.15075500
_cell_angle_alpha   81.29988746
_cell_angle_beta   89.35999185
_cell_angle_gamma   81.47469625
_symmetry_Int_Tables_number   1
_chemical_formula_structural   Mg23Zn112
_chemical_formula_sum   'Mg46 Zn224'
_cell_volume   7856.14450224
_cell_formula_units_Z   2
loop_
 _symmetry_equiv_pos_site_id
 _symmetry_equiv_pos_as_xyz
  1  'x, y, z'
loop_
 _atom_site_type_symbol
 _atom_site_label
 _atom_site_symmetry_multiplicity
 _atom_site_fract_x
 _atom_site_fract_y
 _atom_site_fract_z
 _atom_site_occupancy
  Mg  Mg0  1  0.75686200  0.73568700  0.25637000  1
  Mg  Mg1  1  0.51541800  0.65045300  0.28113000  1
  Mg  Mg2  1  0.70816300  0.90897900  0.27416900  1
  Mg  Mg3  1  0.56411700  0.47716100  0.26333100  1
  Mg  Mg4  1  0.15686200  0.18568700  0.30637000  1
  Mg  Mg5  1  0.11541800  0.20045300  0.23113000  1
  Mg  Mg6  1  0.55686200  0.63568700  0.35637000  1
  Mg  Mg7  1  0.31541800  0.55045300  0.38113000  1
  Mg  Mg8  1  0.50816300  0.80897900  0.37416900  1
  Mg  Mg9  1  0.36411700  0.37716100  0.36333100  1
  Mg  Mg10  1  0.95686200  0.08568700  0.40637000  1
  Mg  Mg11  1  0.91541800  0.10045300  0.33113000  1
  Mg  Mg12  1  0.10816300  0.35897900  0.32416900  1
  Mg  Mg13  1  0.96411700  0.92716100  0.31333100  1
  Mg  Mg14  1  0.35686200  0.53568700  0.45637000  1
  Mg  Mg15  1  0.11541800  0.45045300  0.48113000  1
  Mg  Mg16  1  0.30816300  0.70897900  0.47416900  1
  Mg  Mg17  1  0.16411700  0.27716100  0.46333100  1
  Mg  Mg18  1  0.75686200  0.98568700  0.50637000  1
  Mg  Mg19  1  0.71541800  0.00045300  0.43113000  1
  Mg  Mg20  1  0.90816300  0.25897900  0.42416900  1
  Mg  Mg21  1  0.76411700  0.82716100  0.41333100  1
  Mg  Mg22  1  0.15686200  0.43568700  0.55637000  1
  Mg  Mg23  1  0.91541800  0.35045300  0.58113000  1
  Mg  Mg24  1  0.10816300  0.60897900  0.57416900  1
  Mg  Mg25  1  0.96411700  0.17716100  0.56333100  1
  Mg  Mg26  1  0.55686200  0.88568700  0.60637000  1
  Mg  Mg27  1  0.51541800  0.90045300  0.53113000  1
  Mg  Mg28  1  0.70816300  0.15897900  0.52416900  1
  Mg  Mg29  1  0.56411700  0.72716100  0.51333100  1
  Mg  Mg30  1  0.95686200  0.33568700  0.65637000  1
  Mg  Mg31  1  0.71541800  0.25045300  0.68113000  1
  Mg  Mg32  1  0.90816300  0.50897900  0.67416900  1
  Mg  Mg33  1  0.76411700  0.07716100  0.66333100  1
  Mg  Mg34  1  0.35686200  0.78568700  0.70637000  1
  Mg  Mg35  1  0.31541800  0.80045300  0.63113000  1
  Mg  Mg36  1  0.50816300  0.05897900  0.62416900  1
  Mg  Mg37  1  0.36411700  0.62716100  0.61333100  1
  Mg  Mg38  1  0.75686200  0.23568700  0.75637000  1
  Mg  Mg39  1  0.51541800  0.15045300  0.78113000  1
  Mg  Mg40  1  0.70816300  0.40897900  0.77416900  1
  Mg  Mg41  1  0.56411700  0.97716100  0.76333100  1
  Mg  Mg42  1  0.15686200  0.68568700  0.80637000  1
  Mg  Mg43  1  0.11541800  0.70045300  0.73113000  1
  Mg  Mg44  1  0.30816300  0.95897900  0.72416900  1
  Mg  Mg45  1  0.16411700  0.52716100  0.71333100  1
  Zn  Zn46  1  0.43614000  0.96807000  0.24375000  1
  Zn  Zn47  1  0.05239700  0.48263500  0.26243900  1
  Zn  Zn48  1  0.01951900  0.64129100  0.28040700  1
  Zn  Zn49  1  0.49125600  0.82121300  0.26676600  1
  Zn  Zn50  1  0.21988300  0.90350500  0.27506100  1
  Zn  Zn51  1  0.78102400  0.56492700  0.27073400  1
  Zn  Zn52  1  0.27821800  0.56906300  0.27095300  1
  Zn  Zn53  1  0.25276100  0.74484900  0.25709300  1
  Zn  Zn54  1  0.99406200  0.81707700  0.26654700  1
  Zn  Zn55  1  0.93614000  0.96807000  0.24375000  1
  Zn  Zn56  1  0.83614000  0.41807000  0.29375000  1
  Zn  Zn57  1  0.61951900  0.19129100  0.23040700  1
  Zn  Zn58  1  0.03618100  0.06688300  0.27215800  1
  Zn  Zn59  1  0.23609900  0.31925700  0.26534200  1
  Zn  Zn60  1  0.49512300  0.31760700  0.26601700  1
  Zn  Zn61  1  0.39522500  0.18991900  0.26959800  1
  Zn  Zn62  1  0.27988100  0.06435600  0.27130500  1
  Zn  Zn63  1  0.99239900  0.32178400  0.26619500  1
  Zn  Zn64  1  0.65276100  0.19484900  0.30709300  1
  Zn  Zn65  1  0.77715700  0.06853300  0.27148300  1
  Zn  Zn66  1  0.33614000  0.41807000  0.29375000  1
  Zn  Zn67  1  0.73232100  0.32639000  0.26582100  1
  Zn  Zn68  1  0.53995900  0.05975000  0.27167900  1
  Zn  Zn69  1  0.87705500  0.19622100  0.26790200  1
  Zn  Zn70  1  0.23614000  0.86807000  0.34375000  1
  Zn  Zn71  1  0.85239700  0.38263500  0.36243900  1
  Zn  Zn72  1  0.81951900  0.54129100  0.38040700  1
  Zn  Zn73  1  0.43618100  0.51688300  0.32215800  1
  Zn  Zn74  1  0.63609900  0.76925700  0.31534200  1
  Zn  Zn75  1  0.89512300  0.76760700  0.31601700  1
  Zn  Zn76  1  0.29125600  0.72121300  0.36676600  1
  Zn  Zn77  1  0.01988300  0.80350500  0.37506100  1
  Zn  Zn78  1  0.79522500  0.63991900  0.31959800  1
  Zn  Zn79  1  0.67988100  0.51435600  0.32130500  1
  Zn  Zn80  1  0.39239900  0.77178400  0.31619500  1
  Zn  Zn81  1  0.58102400  0.46492700  0.37073400  1
  Zn  Zn82  1  0.07821800  0.46906300  0.37095300  1
  Zn  Zn83  1  0.05276100  0.64484900  0.35709300  1
  Zn  Zn84  1  0.79406200  0.71707700  0.36654700  1
  Zn  Zn85  1  0.17715700  0.51853300  0.32148300  1
  Zn  Zn86  1  0.73614000  0.86807000  0.34375000  1
  Zn  Zn87  1  0.13232100  0.77639000  0.31582100  1
  Zn  Zn88  1  0.93995900  0.50975000  0.32167900  1
  Zn  Zn89  1  0.27705500  0.64622100  0.31790200  1
  Zn  Zn90  1  0.63614000  0.31807000  0.39375000  1
  Zn  Zn91  1  0.45239700  0.93263500  0.31243900  1
  Zn  Zn92  1  0.41951900  0.09129100  0.33040700  1
  Zn  Zn93  1  0.83618100  0.96688300  0.37215800  1
  Zn  Zn94  1  0.03609900  0.21925700  0.36534200  1
  Zn  Zn95  1  0.29512300  0.21760700  0.36601700  1
  Zn  Zn96  1  0.89125600  0.27121300  0.31676600  1
  Zn  Zn97  1  0.61988300  0.35350500  0.32506100  1
  Zn  Zn98  1  0.19522500  0.08991900  0.36959800  1
  Zn  Zn99  1  0.07988100  0.96435600  0.37130500  1
  Zn  Zn100  1  0.79239900  0.22178400  0.36619500  1
  Zn  Zn101  1  0.18102400  0.01492700  0.32073400  1
  Zn  Zn102  1  0.67821800  0.01906300  0.32095300  1
  Zn  Zn103  1  0.45276100  0.09484900  0.40709300  1
  Zn  Zn104  1  0.39406200  0.26707700  0.31654700  1
  Zn  Zn105  1  0.57715700  0.96853300  0.37148300  1
  Zn  Zn106  1  0.13614000  0.31807000  0.39375000  1
  Zn  Zn107  1  0.53232100  0.22639000  0.36582100  1
  Zn  Zn108  1  0.33995900  0.95975000  0.37167900  1
  Zn  Zn109  1  0.67705500  0.09622100  0.36790200  1
  Zn  Zn110  1  0.03614000  0.76807000  0.44375000  1
  Zn  Zn111  1  0.65239700  0.28263500  0.46243900  1
  Zn  Zn112  1  0.61951900  0.44129100  0.48040700  1
  Zn  Zn113  1  0.23618100  0.41688300  0.42215800  1
  Zn  Zn114  1  0.43609900  0.66925700  0.41534200  1
  Zn  Zn115  1  0.69512300  0.66760700  0.41601700  1
  Zn  Zn116  1  0.09125600  0.62121300  0.46676600  1
  Zn  Zn117  1  0.81988300  0.70350500  0.47506100  1
  Zn  Zn118  1  0.59522500  0.53991900  0.41959800  1
  Zn  Zn119  1  0.47988100  0.41435600  0.42130500  1
  Zn  Zn120  1  0.19239900  0.67178400  0.41619500  1
  Zn  Zn121  1  0.38102400  0.36492700  0.47073400  1
  Zn  Zn122  1  0.87821800  0.36906300  0.47095300  1
  Zn  Zn123  1  0.85276100  0.54484900  0.45709300  1
  Zn  Zn124  1  0.59406200  0.61707700  0.46654700  1
  Zn  Zn125  1  0.97715700  0.41853300  0.42148300  1
  Zn  Zn126  1  0.53614000  0.76807000  0.44375000  1
  Zn  Zn127  1  0.93232100  0.67639000  0.41582100  1
  Zn  Zn128  1  0.73995900  0.40975000  0.42167900  1
  Zn  Zn129  1  0.07705500  0.54622100  0.41790200  1
  Zn  Zn130  1  0.43614000  0.21807000  0.49375000  1
  Zn  Zn131  1  0.25239700  0.83263500  0.41243900  1
  Zn  Zn132  1  0.21951900  0.99129100  0.43040700  1
  Zn  Zn133  1  0.63618100  0.86688300  0.47215800  1
  Zn  Zn134  1  0.83609900  0.11925700  0.46534200  1
  Zn  Zn135  1  0.09512300  0.11760700  0.46601700  1
  Zn  Zn136  1  0.69125600  0.17121300  0.41676600  1
  Zn  Zn137  1  0.41988300  0.25350500  0.42506100  1
  Zn  Zn138  1  0.99522500  0.98991900  0.46959800  1
  Zn  Zn139  1  0.87988100  0.86435600  0.47130500  1
  Zn  Zn140  1  0.59239900  0.12178400  0.46619500  1
  Zn  Zn141  1  0.98102400  0.91492700  0.42073400  1
  Zn  Zn142  1  0.47821800  0.91906300  0.42095300  1
  Zn  Zn143  1  0.25276100  0.99484900  0.50709300  1
  Zn  Zn144  1  0.19406200  0.16707700  0.41654700  1
  Zn  Zn145  1  0.37715700  0.86853300  0.47148300  1
  Zn  Zn146  1  0.93614000  0.21807000  0.49375000  1
  Zn  Zn147  1  0.33232100  0.12639000  0.46582100  1
  Zn  Zn148  1  0.13995900  0.85975000  0.47167900  1
  Zn  Zn149  1  0.47705500  0.99622100  0.46790200  1
  Zn  Zn150  1  0.83614000  0.66807000  0.54375000  1
  Zn  Zn151  1  0.45239700  0.18263500  0.56243900  1
  Zn  Zn152  1  0.41951900  0.34129100  0.58040700  1
  Zn  Zn153  1  0.03618100  0.31688300  0.52215800  1
  Zn  Zn154  1  0.23609900  0.56925700  0.51534200  1
  Zn  Zn155  1  0.49512300  0.56760700  0.51601700  1
  Zn  Zn156  1  0.89125600  0.52121300  0.56676600  1
  Zn  Zn157  1  0.61988300  0.60350500  0.57506100  1
  Zn  Zn158  1  0.39522500  0.43991900  0.51959800  1
  Zn  Zn159  1  0.27988100  0.31435600  0.52130500  1
  Zn  Zn160  1  0.99239900  0.57178400  0.51619500  1
  Zn  Zn161  1  0.18102400  0.26492700  0.57073400  1
  Zn  Zn162  1  0.67821800  0.26906300  0.57095300  1
  Zn  Zn163  1  0.65276100  0.44484900  0.55709300  1
  Zn  Zn164  1  0.39406200  0.51707700  0.56654700  1
  Zn  Zn165  1  0.77715700  0.31853300  0.52148300  1
  Zn  Zn166  1  0.33614000  0.66807000  0.54375000  1
  Zn  Zn167  1  0.73232100  0.57639000  0.51582100  1
  Zn  Zn168  1  0.53995900  0.30975000  0.52167900  1
  Zn  Zn169  1  0.87705500  0.44622100  0.51790200  1
  Zn  Zn170  1  0.23614000  0.11807000  0.59375000  1
  Zn  Zn171  1  0.05239700  0.73263500  0.51243900  1
  Zn  Zn172  1  0.01951900  0.89129100  0.53040700  1
  Zn  Zn173  1  0.43618100  0.76688300  0.57215800  1
  Zn  Zn174  1  0.63609900  0.01925700  0.56534200  1
  Zn  Zn175  1  0.89512300  0.01760700  0.56601700  1
  Zn  Zn176  1  0.49125600  0.07121300  0.51676600  1
  Zn  Zn177  1  0.21988300  0.15350500  0.52506100  1
  Zn  Zn178  1  0.79522500  0.88991900  0.56959800  1
  Zn  Zn179  1  0.67988100  0.76435600  0.57130500  1
  Zn  Zn180  1  0.39239900  0.02178400  0.56619500  1
  Zn  Zn181  1  0.78102400  0.81492700  0.52073400  1
  Zn  Zn182  1  0.27821800  0.81906300  0.52095300  1
  Zn  Zn183  1  0.05276100  0.89484900  0.60709300  1
  Zn  Zn184  1  0.99406200  0.06707700  0.51654700  1
  Zn  Zn185  1  0.17715700  0.76853300  0.57148300  1
  Zn  Zn186  1  0.73614000  0.11807000  0.59375000  1
  Zn  Zn187  1  0.13232100  0.02639000  0.56582100  1
  Zn  Zn188  1  0.93995900  0.75975000  0.57167900  1
  Zn  Zn189  1  0.27705500  0.89622100  0.56790200  1
  Zn  Zn190  1  0.63614000  0.56807000  0.64375000  1
  Zn  Zn191  1  0.25239700  0.08263500  0.66243900  1
  Zn  Zn192  1  0.21951900  0.24129100  0.68040700  1
  Zn  Zn193  1  0.83618100  0.21688300  0.62215800  1
  Zn  Zn194  1  0.03609900  0.46925700  0.61534200  1
  Zn  Zn195  1  0.29512300  0.46760700  0.61601700  1
  Zn  Zn196  1  0.69125600  0.42121300  0.66676600  1
  Zn  Zn197  1  0.41988300  0.50350500  0.67506100  1
  Zn  Zn198  1  0.19522500  0.33991900  0.61959800  1
  Zn  Zn199  1  0.07988100  0.21435600  0.62130500  1
  Zn  Zn200  1  0.79239900  0.47178400  0.61619500  1
  Zn  Zn201  1  0.98102400  0.16492700  0.67073400  1
  Zn  Zn202  1  0.47821800  0.16906300  0.67095300  1
  Zn  Zn203  1  0.45276100  0.34484900  0.65709300  1
  Zn  Zn204  1  0.19406200  0.41707700  0.66654700  1
  Zn  Zn205  1  0.57715700  0.21853300  0.62148300  1
  Zn  Zn206  1  0.13614000  0.56807000  0.64375000  1
  Zn  Zn207  1  0.53232100  0.47639000  0.61582100  1
  Zn  Zn208  1  0.33995900  0.20975000  0.62167900  1
  Zn  Zn209  1  0.67705500  0.34622100  0.61790200  1
  Zn  Zn210  1  0.03614000  0.01807000  0.69375000  1
  Zn  Zn211  1  0.85239700  0.63263500  0.61243900  1
  Zn  Zn212  1  0.81951900  0.79129100  0.63040700  1
  Zn  Zn213  1  0.23618100  0.66688300  0.67215800  1
  Zn  Zn214  1  0.43609900  0.91925700  0.66534200  1
  Zn  Zn215  1  0.69512300  0.91760700  0.66601700  1
  Zn  Zn216  1  0.29125600  0.97121300  0.61676600  1
  Zn  Zn217  1  0.01988300  0.05350500  0.62506100  1
  Zn  Zn218  1  0.59522500  0.78991900  0.66959800  1
  Zn  Zn219  1  0.47988100  0.66435600  0.67130500  1
  Zn  Zn220  1  0.19239900  0.92178400  0.66619500  1
  Zn  Zn221  1  0.58102400  0.71492700  0.62073400  1
  Zn  Zn222  1  0.07821800  0.71906300  0.62095300  1
  Zn  Zn223  1  0.85276100  0.79484900  0.70709300  1
  Zn  Zn224  1  0.79406200  0.96707700  0.61654700  1
  Zn  Zn225  1  0.97715700  0.66853300  0.67148300  1
  Zn  Zn226  1  0.53614000  0.01807000  0.69375000  1
  Zn  Zn227  1  0.93232100  0.92639000  0.66582100  1
  Zn  Zn228  1  0.73995900  0.65975000  0.67167900  1
  Zn  Zn229  1  0.07705500  0.79622100  0.66790200  1
  Zn  Zn230  1  0.43614000  0.46807000  0.74375000  1
  Zn  Zn231  1  0.05239700  0.98263500  0.76243900  1
  Zn  Zn232  1  0.01951900  0.14129100  0.78040700  1
  Zn  Zn233  1  0.63618100  0.11688300  0.72215800  1
  Zn  Zn234  1  0.83609900  0.36925700  0.71534200  1
  Zn  Zn235  1  0.09512300  0.36760700  0.71601700  1
  Zn  Zn236  1  0.49125600  0.32121300  0.76676600  1
  Zn  Zn237  1  0.21988300  0.40350500  0.77506100  1
  Zn  Zn238  1  0.99522500  0.23991900  0.71959800  1
  Zn  Zn239  1  0.87988100  0.11435600  0.72130500  1
  Zn  Zn240  1  0.59239900  0.37178400  0.71619500  1
  Zn  Zn241  1  0.78102400  0.06492700  0.77073400  1
  Zn  Zn242  1  0.27821800  0.06906300  0.77095300  1
  Zn  Zn243  1  0.25276100  0.24484900  0.75709300  1
  Zn  Zn244  1  0.99406200  0.31707700  0.76654700  1
  Zn  Zn245  1  0.37715700  0.11853300  0.72148300  1
  Zn  Zn246  1  0.93614000  0.46807000  0.74375000  1
  Zn  Zn247  1  0.33232100  0.37639000  0.71582100  1
  Zn  Zn248  1  0.13995900  0.10975000  0.72167900  1
  Zn  Zn249  1  0.47705500  0.24622100  0.71790200  1
  Zn  Zn250  1  0.83614000  0.91807000  0.79375000  1
  Zn  Zn251  1  0.65239700  0.53263500  0.71243900  1
  Zn  Zn252  1  0.61951900  0.69129100  0.73040700  1
  Zn  Zn253  1  0.03618100  0.56688300  0.77215800  1
  Zn  Zn254  1  0.23609900  0.81925700  0.76534200  1
  Zn  Zn255  1  0.49512300  0.81760700  0.76601700  1
  Zn  Zn256  1  0.09125600  0.87121300  0.71676600  1
  Zn  Zn257  1  0.81988300  0.95350500  0.72506100  1
  Zn  Zn258  1  0.39522500  0.68991900  0.76959800  1
  Zn  Zn259  1  0.27988100  0.56435600  0.77130500  1
  Zn  Zn260  1  0.99239900  0.82178400  0.76619500  1
  Zn  Zn261  1  0.38102400  0.61492700  0.72073400  1
  Zn  Zn262  1  0.87821800  0.61906300  0.72095300  1
  Zn  Zn263  1  0.65276100  0.69484900  0.80709300  1
  Zn  Zn264  1  0.59406200  0.86707700  0.71654700  1
  Zn  Zn265  1  0.77715700  0.56853300  0.77148300  1
  Zn  Zn266  1  0.33614000  0.91807000  0.79375000  1
  Zn  Zn267  1  0.73232100  0.82639000  0.76582100  1
  Zn  Zn268  1  0.53995900  0.55975000  0.77167900  1
  Zn  Zn269  1  0.87705500  0.69622100  0.76790200  1
