# generated using pymatgen
data_Ce8Mg7
_symmetry_space_group_name_H-M   'P 1'
_cell_length_a   5.79243117
_cell_length_b   5.83029938
_cell_length_c   42.90463500
_cell_angle_alpha   89.79249727
_cell_angle_beta   87.62655045
_cell_angle_gamma   69.85152094
_symmetry_Int_Tables_number   1
_chemical_formula_structural   Ce8Mg7
_chemical_formula_sum   'Ce16 Mg14'
_cell_volume   1359.03234892
_cell_formula_units_Z   2
loop_
 _symmetry_equiv_pos_site_id
 _symmetry_equiv_pos_as_xyz
  1  'x, y, z'
loop_
 _atom_site_type_symbol
 _atom_site_label
 _atom_site_symmetry_multiplicity
 _atom_site_fract_x
 _atom_site_fract_y
 _atom_site_fract_z
 _atom_site_occupancy
  Ce  Ce0  1  0.62074200  0.51562200  0.76115800  1
  Ce  Ce1  1  0.10747100  0.37027200  0.73884200  1
  Ce  Ce2  1  0.85151100  0.43869900  0.68423500  1
  Ce  Ce3  1  0.33824100  0.29334900  0.66191900  1
  Ce  Ce4  1  0.08228000  0.36177600  0.60731200  1
  Ce  Ce5  1  0.56901000  0.21642500  0.58499600  1
  Ce  Ce6  1  0.31304900  0.28485300  0.53038900  1
  Ce  Ce7  1  0.79977900  0.13950200  0.50807300  1
  Ce  Ce8  1  0.54381900  0.20792900  0.45346600  1
  Ce  Ce9  1  0.03054800  0.06257900  0.43115000  1
  Ce  Ce10  1  0.77458800  0.13100600  0.37654300  1
  Ce  Ce11  1  0.26131800  0.98565600  0.35422700  1
  Ce  Ce12  1  0.00535700  0.05408300  0.29962000  1
  Ce  Ce13  1  0.49208700  0.90873300  0.27730300  1
  Ce  Ce14  1  0.23612600  0.97716000  0.22269700  1
  Ce  Ce15  1  0.72285600  0.83181000  0.20038000  1
  Mg  Mg16  1  0.25225100  0.82107500  0.70165800  1
  Mg  Mg17  1  0.70673100  0.98789500  0.72141800  1
  Mg  Mg18  1  0.48302000  0.74415200  0.62473500  1
  Mg  Mg19  1  0.93750100  0.91097200  0.64449500  1
  Mg  Mg20  1  0.71378900  0.66722900  0.54781200  1
  Mg  Mg21  1  0.16827000  0.83404900  0.56757200  1
  Mg  Mg22  1  0.94455900  0.59030600  0.47088900  1
  Mg  Mg23  1  0.39903900  0.75712600  0.49064900  1
  Mg  Mg24  1  0.17532800  0.51338300  0.39396600  1
  Mg  Mg25  1  0.62980800  0.68020300  0.41372600  1
  Mg  Mg26  1  0.40609700  0.43646000  0.31704300  1
  Mg  Mg27  1  0.86057800  0.60328000  0.33680300  1
  Mg  Mg28  1  0.63686600  0.35953700  0.24012000  1
  Mg  Mg29  1  0.09134700  0.52635700  0.25988000  1
