# generated using pymatgen
data_Tm9Mg5
_symmetry_space_group_name_H-M   'P 1'
_cell_length_a   3.55930500
_cell_length_b   18.06956911
_cell_length_c   41.68439200
_cell_angle_alpha   96.96437607
_cell_angle_beta   90.00000000
_cell_angle_gamma   90.00000000
_symmetry_Int_Tables_number   1
_chemical_formula_structural   Tm9Mg5
_chemical_formula_sum   'Tm36 Mg20'
_cell_volume   2661.15549663
_cell_formula_units_Z   4
loop_
 _symmetry_equiv_pos_site_id
 _symmetry_equiv_pos_as_xyz
  1  'x, y, z'
loop_
 _atom_site_type_symbol
 _atom_site_label
 _atom_site_symmetry_multiplicity
 _atom_site_fract_x
 _atom_site_fract_y
 _atom_site_fract_z
 _atom_site_occupancy
  Tm  Tm0  1  0.00000000  0.98588100  0.27280300  1
  Tm  Tm1  1  0.50000000  0.83189800  0.29480100  1
  Tm  Tm2  1  0.50000000  0.65929300  0.24803000  1
  Tm  Tm3  1  0.00000000  0.81327600  0.22603200  1
  Tm  Tm4  1  0.50000000  0.42338100  0.21030300  1
  Tm  Tm5  1  0.00000000  0.26939800  0.23230100  1
  Tm  Tm6  1  0.00000000  0.22179300  0.31053000  1
  Tm  Tm7  1  0.50000000  0.37577600  0.28853200  1
  Tm  Tm8  1  0.00000000  0.11088100  0.39780300  1
  Tm  Tm9  1  0.50000000  0.95689800  0.41980100  1
  Tm  Tm10  1  0.50000000  0.78429300  0.37303000  1
  Tm  Tm11  1  0.00000000  0.93827600  0.35103200  1
  Tm  Tm12  1  0.50000000  0.54838100  0.33530300  1
  Tm  Tm13  1  0.00000000  0.39439800  0.35730100  1
  Tm  Tm14  1  0.00000000  0.34679300  0.43553000  1
  Tm  Tm15  1  0.50000000  0.50077600  0.41353200  1
  Tm  Tm16  1  0.00000000  0.23588100  0.52280300  1
  Tm  Tm17  1  0.50000000  0.08189800  0.54480100  1
  Tm  Tm18  1  0.50000000  0.90929300  0.49803000  1
  Tm  Tm19  1  0.00000000  0.06327600  0.47603200  1
  Tm  Tm20  1  0.50000000  0.67338100  0.46030300  1
  Tm  Tm21  1  0.00000000  0.51939800  0.48230100  1
  Tm  Tm22  1  0.00000000  0.47179300  0.56053000  1
  Tm  Tm23  1  0.50000000  0.62577600  0.53853200  1
  Tm  Tm24  1  0.00000000  0.36088100  0.64780300  1
  Tm  Tm25  1  0.50000000  0.20689800  0.66980100  1
  Tm  Tm26  1  0.50000000  0.03429300  0.62303000  1
  Tm  Tm27  1  0.00000000  0.18827600  0.60103200  1
  Tm  Tm28  1  0.50000000  0.79838100  0.58530300  1
  Tm  Tm29  1  0.00000000  0.64439800  0.60730100  1
  Tm  Tm30  1  0.00000000  0.59679300  0.68553000  1
  Tm  Tm31  1  0.50000000  0.75077600  0.66353200  1
  Tm  Tm32  1  0.50000000  0.15929300  0.74803000  1
  Tm  Tm33  1  0.00000000  0.31327600  0.72603200  1
  Tm  Tm34  1  0.50000000  0.92338100  0.71030300  1
  Tm  Tm35  1  0.00000000  0.76939800  0.73230100  1
  Mg  Mg36  1  1.00000000  0.56460000  0.19012900  1
  Mg  Mg37  1  0.50000000  0.95557400  0.20570400  1
  Mg  Mg38  1  0.50000000  0.12710000  0.25262900  1
  Mg  Mg39  1  0.00000000  0.51807400  0.26820400  1
  Mg  Mg40  1  1.00000000  0.68960000  0.31512900  1
  Mg  Mg41  1  0.50000000  0.08057400  0.33070400  1
  Mg  Mg42  1  0.50000000  0.25210000  0.37762900  1
  Mg  Mg43  1  0.00000000  0.64307400  0.39320400  1
  Mg  Mg44  1  0.00000000  0.81460000  0.44012900  1
  Mg  Mg45  1  0.50000000  0.20557400  0.45570400  1
  Mg  Mg46  1  0.50000000  0.37710000  0.50262900  1
  Mg  Mg47  1  0.00000000  0.76807400  0.51820400  1
  Mg  Mg48  1  1.00000000  0.93960000  0.56512900  1
  Mg  Mg49  1  0.50000000  0.33057400  0.58070400  1
  Mg  Mg50  1  0.50000000  0.50210000  0.62762900  1
  Mg  Mg51  1  0.00000000  0.89307400  0.64320400  1
  Mg  Mg52  1  0.00000000  0.06460000  0.69012900  1
  Mg  Mg53  1  0.50000000  0.45557400  0.70570400  1
  Mg  Mg54  1  0.50000000  0.62710000  0.75262900  1
  Mg  Mg55  1  0.00000000  0.01807400  0.76820400  1
