# generated using pymatgen
data_LaMg9
_symmetry_space_group_name_H-M   'P 1'
_cell_length_a   10.38875242
_cell_length_b   10.09623600
_cell_length_c   45.28352000
_cell_angle_alpha   90.00000000
_cell_angle_beta   96.58677761
_cell_angle_gamma   90.00000000
_symmetry_Int_Tables_number   1
_chemical_formula_structural   LaMg9
_chemical_formula_sum   'La8 Mg72'
_cell_volume   4718.31467942
_cell_formula_units_Z   8
loop_
 _symmetry_equiv_pos_site_id
 _symmetry_equiv_pos_as_xyz
  1  'x, y, z'
loop_
 _atom_site_type_symbol
 _atom_site_label
 _atom_site_symmetry_multiplicity
 _atom_site_fract_x
 _atom_site_fract_y
 _atom_site_fract_z
 _atom_site_occupancy
  La  La0  1  0.30592600  0.75000000  0.37719300  1
  La  La1  1  0.23925900  0.25000000  0.24386000  1
  La  La2  1  0.77259200  0.25000000  0.31052600  1
  La  La3  1  0.77259200  0.75000000  0.31052600  1
  La  La4  1  0.90592600  0.75000000  0.57719300  1
  La  La5  1  0.83925900  0.25000000  0.44386000  1
  La  La6  1  0.37259200  0.25000000  0.51052600  1
  La  La7  1  0.37259200  0.75000000  0.51052600  1
  Mg  Mg8  1  0.51303600  0.02089500  0.27808200  1
  Mg  Mg9  1  0.80503700  0.02089500  0.37541500  1
  Mg  Mg10  1  0.99970500  0.02089500  0.27808200  1
  Mg  Mg11  1  0.54548000  0.52089500  0.34297100  1
  Mg  Mg12  1  0.23925900  0.59833400  0.24386000  1
  Mg  Mg13  1  0.30592600  0.09833400  0.37719300  1
  Mg  Mg14  1  0.30592600  0.40166600  0.37719300  1
  Mg  Mg15  1  0.23925900  0.90166600  0.24386000  1
  Mg  Mg16  1  0.27259200  0.50000000  0.31052600  1
  Mg  Mg17  1  0.97259200  0.00000000  0.21052600  1
  Mg  Mg18  1  0.47259200  0.00000000  0.21052600  1
  Mg  Mg19  1  0.47259200  0.50000000  0.21052600  1
  Mg  Mg20  1  0.97259200  0.50000000  0.21052600  1
  Mg  Mg21  1  0.27259200  0.00000000  0.31052600  1
  Mg  Mg22  1  0.42342700  0.75000000  0.30362800  1
  Mg  Mg23  1  0.60671200  0.25000000  0.37622000  1
  Mg  Mg24  1  0.58930800  0.25000000  0.23793400  1
  Mg  Mg25  1  0.95587700  0.75000000  0.38311900  1
  Mg  Mg26  1  0.93847300  0.75000000  0.24483300  1
  Mg  Mg27  1  0.43032600  0.25000000  0.31742500  1
  Mg  Mg28  1  0.88328400  0.25000000  0.23793400  1
  Mg  Mg29  1  0.12175700  0.25000000  0.31742500  1
  Mg  Mg30  1  0.00416700  0.25000000  0.37622000  1
  Mg  Mg31  1  0.54101800  0.75000000  0.24483300  1
  Mg  Mg32  1  0.11485900  0.75000000  0.30362800  1
  Mg  Mg33  1  0.66190100  0.75000000  0.38311900  1
  Mg  Mg34  1  0.80503700  0.47910500  0.37541500  1
  Mg  Mg35  1  0.03214900  0.97910500  0.34297100  1
  Mg  Mg36  1  0.54548000  0.97910500  0.34297100  1
  Mg  Mg37  1  0.99970500  0.47910500  0.27808200  1
  Mg  Mg38  1  0.51303600  0.47910500  0.27808200  1
  Mg  Mg39  1  0.74014800  0.52089500  0.24563700  1
  Mg  Mg40  1  0.03214900  0.52089500  0.34297100  1
  Mg  Mg41  1  0.74014800  0.97910500  0.24563700  1
  Mg  Mg42  1  0.11303600  0.02089500  0.47808200  1
  Mg  Mg43  1  0.40503700  0.02089500  0.57541500  1
  Mg  Mg44  1  0.59970500  0.02089500  0.47808200  1
  Mg  Mg45  1  0.14548000  0.52089500  0.54297100  1
  Mg  Mg46  1  0.83925900  0.59833400  0.44386000  1
  Mg  Mg47  1  0.90592600  0.09833400  0.57719300  1
  Mg  Mg48  1  0.90592600  0.40166600  0.57719300  1
  Mg  Mg49  1  0.83925900  0.90166600  0.44386000  1
  Mg  Mg50  1  0.87259200  0.50000000  0.51052600  1
  Mg  Mg51  1  0.57259200  0.00000000  0.41052600  1
  Mg  Mg52  1  0.07259200  0.00000000  0.41052600  1
  Mg  Mg53  1  0.07259200  0.50000000  0.41052600  1
  Mg  Mg54  1  0.57259200  0.50000000  0.41052600  1
  Mg  Mg55  1  0.87259200  0.00000000  0.51052600  1
  Mg  Mg56  1  0.02342700  0.75000000  0.50362800  1
  Mg  Mg57  1  0.20671200  0.25000000  0.57622000  1
  Mg  Mg58  1  0.18930800  0.25000000  0.43793400  1
  Mg  Mg59  1  0.55587700  0.75000000  0.58311900  1
  Mg  Mg60  1  0.53847300  0.75000000  0.44483300  1
  Mg  Mg61  1  0.03032600  0.25000000  0.51742500  1
  Mg  Mg62  1  0.48328400  0.25000000  0.43793400  1
  Mg  Mg63  1  0.72175700  0.25000000  0.51742500  1
  Mg  Mg64  1  0.60416700  0.25000000  0.57622000  1
  Mg  Mg65  1  0.14101800  0.75000000  0.44483300  1
  Mg  Mg66  1  0.71485900  0.75000000  0.50362800  1
  Mg  Mg67  1  0.26190100  0.75000000  0.58311900  1
  Mg  Mg68  1  0.40503700  0.47910500  0.57541500  1
  Mg  Mg69  1  0.63214900  0.97910500  0.54297100  1
  Mg  Mg70  1  0.14548000  0.97910500  0.54297100  1
  Mg  Mg71  1  0.59970500  0.47910500  0.47808200  1
  Mg  Mg72  1  0.11303600  0.47910500  0.47808200  1
  Mg  Mg73  1  0.34014800  0.52089500  0.44563700  1
  Mg  Mg74  1  0.63214900  0.52089500  0.54297100  1
  Mg  Mg75  1  0.34014800  0.97910500  0.44563700  1
  Mg  Mg76  1  0.17259200  0.00000000  0.61052600  1
  Mg  Mg77  1  0.67259200  0.00000000  0.61052600  1
  Mg  Mg78  1  0.67259200  0.50000000  0.61052600  1
  Mg  Mg79  1  0.17259200  0.50000000  0.61052600  1
