# generated using pymatgen
data_Mg24Ir37
_symmetry_space_group_name_H-M   'P 1'
_cell_length_a   8.54477469
_cell_length_b   9.72091536
_cell_length_c   40.45091800
_cell_angle_alpha   92.27818184
_cell_angle_beta   91.63073542
_cell_angle_gamma   96.80090534
_symmetry_Int_Tables_number   1
_chemical_formula_structural   Mg24Ir37
_chemical_formula_sum   'Mg48 Ir74'
_cell_volume   3331.83388964
_cell_formula_units_Z   2
loop_
 _symmetry_equiv_pos_site_id
 _symmetry_equiv_pos_as_xyz
  1  'x, y, z'
loop_
 _atom_site_type_symbol
 _atom_site_label
 _atom_site_symmetry_multiplicity
 _atom_site_fract_x
 _atom_site_fract_y
 _atom_site_fract_z
 _atom_site_occupancy
  Mg  Mg0  1  0.91533800  0.28179900  0.78498300  1
  Mg  Mg1  1  0.08466200  0.45730700  0.73001700  1
  Mg  Mg2  1  0.61669600  0.76724000  0.75067900  1
  Mg  Mg3  1  0.38330400  0.97186700  0.76432100  1
  Mg  Mg4  1  0.55549200  0.26187800  0.78365500  1
  Mg  Mg5  1  0.44450800  0.47722800  0.73134500  1
  Mg  Mg6  1  0.99788700  0.01524100  0.76721300  1
  Mg  Mg7  1  0.00211300  0.72386500  0.74778700  1
  Mg  Mg8  1  0.81855800  0.89261800  0.69237100  1
  Mg  Mg9  1  0.18144200  0.97148800  0.69762900  1
  Mg  Mg10  1  0.91533800  0.40679900  0.65998300  1
  Mg  Mg11  1  0.08466200  0.58230700  0.60501700  1
  Mg  Mg12  1  0.61669600  0.89224000  0.62567900  1
  Mg  Mg13  1  0.38330400  0.09686700  0.63932100  1
  Mg  Mg14  1  0.55549200  0.38687800  0.65865500  1
  Mg  Mg15  1  0.44450800  0.60222800  0.60634500  1
  Mg  Mg16  1  0.99788700  0.14024100  0.64221300  1
  Mg  Mg17  1  0.00211300  0.84886500  0.62278700  1
  Mg  Mg18  1  0.81855800  0.01761800  0.56737100  1
  Mg  Mg19  1  0.18144200  0.09648800  0.57262900  1
  Mg  Mg20  1  0.91533800  0.53179900  0.53498300  1
  Mg  Mg21  1  0.08466200  0.70730700  0.48001700  1
  Mg  Mg22  1  0.61669600  0.01724000  0.50067900  1
  Mg  Mg23  1  0.38330400  0.22186700  0.51432100  1
  Mg  Mg24  1  0.55549200  0.51187800  0.53365500  1
  Mg  Mg25  1  0.44450800  0.72722800  0.48134500  1
  Mg  Mg26  1  0.99788700  0.26524100  0.51721300  1
  Mg  Mg27  1  0.00211300  0.97386500  0.49778700  1
  Mg  Mg28  1  0.81855800  0.14261800  0.44237100  1
  Mg  Mg29  1  0.18144200  0.22148800  0.44762900  1
  Mg  Mg30  1  0.91533800  0.65679900  0.40998300  1
  Mg  Mg31  1  0.08466200  0.83230700  0.35501700  1
  Mg  Mg32  1  0.61669600  0.14224000  0.37567900  1
  Mg  Mg33  1  0.38330400  0.34686700  0.38932100  1
  Mg  Mg34  1  0.55549200  0.63687800  0.40865500  1
  Mg  Mg35  1  0.44450800  0.85222800  0.35634500  1
  Mg  Mg36  1  0.99788700  0.39024100  0.39221300  1
  Mg  Mg37  1  0.00211300  0.09886500  0.37278700  1
  Mg  Mg38  1  0.81855800  0.26761800  0.31737100  1
  Mg  Mg39  1  0.18144200  0.34648800  0.32262900  1
  Mg  Mg40  1  0.91533800  0.78179900  0.28498300  1
  Mg  Mg41  1  0.08466200  0.95730700  0.23001700  1
  Mg  Mg42  1  0.61669600  0.26724000  0.25067900  1
  Mg  Mg43  1  0.38330400  0.47186700  0.26432100  1
  Mg  Mg44  1  0.55549200  0.76187800  0.28365500  1
  Mg  Mg45  1  0.44450800  0.97722800  0.23134500  1
  Mg  Mg46  1  0.99788700  0.51524100  0.26721300  1
  Mg  Mg47  1  0.00211300  0.22386500  0.24778700  1
  Ir  Ir48  1  0.97167900  0.17790600  0.71139000  1
  Ir  Ir49  1  0.02832100  0.56120000  0.80361000  1
  Ir  Ir50  1  0.77047200  0.52347000  0.76769600  1
  Ir  Ir51  1  0.22952800  0.21563600  0.74730400  1
  Ir  Ir52  1  0.22952800  0.15325800  0.80968200  1
  Ir  Ir53  1  0.77047200  0.58584800  0.70531800  1
  Ir  Ir54  1  0.50000000  0.93205300  0.69500000  1
  Ir  Ir55  1  0.25697700  0.40212100  0.79300500  1
  Ir  Ir56  1  0.74302300  0.33698500  0.72199500  1
  Ir  Ir57  1  0.53311500  0.55237500  0.80302100  1
  Ir  Ir58  1  0.46688500  0.18673100  0.71197900  1
  Ir  Ir59  1  0.70409300  0.06898500  0.73960400  1
  Ir  Ir60  1  0.29590700  0.67012200  0.77539600  1
  Ir  Ir61  1  0.29590700  0.72860600  0.71691200  1
  Ir  Ir62  1  0.70409300  0.01050000  0.79808800  1
  Ir  Ir63  1  0.97167900  0.30290600  0.58639000  1
  Ir  Ir64  1  0.02832100  0.68620000  0.67861000  1
  Ir  Ir65  1  0.77047200  0.64847000  0.64269600  1
  Ir  Ir66  1  0.22952800  0.34063600  0.62230400  1
  Ir  Ir67  1  0.22952800  0.27825800  0.68468200  1
  Ir  Ir68  1  0.77047200  0.71084800  0.58031800  1
  Ir  Ir69  1  0.50000000  0.05705300  0.57000000  1
  Ir  Ir70  1  0.25697700  0.52712100  0.66800500  1
  Ir  Ir71  1  0.74302300  0.46198500  0.59699500  1
  Ir  Ir72  1  0.53311500  0.67737500  0.67802100  1
  Ir  Ir73  1  0.46688500  0.31173100  0.58697900  1
  Ir  Ir74  1  0.70409300  0.19398500  0.61460400  1
  Ir  Ir75  1  0.29590700  0.79512200  0.65039600  1
  Ir  Ir76  1  0.29590700  0.85360600  0.59191200  1
  Ir  Ir77  1  0.70409300  0.13550000  0.67308800  1
  Ir  Ir78  1  0.97167900  0.42790600  0.46139000  1
  Ir  Ir79  1  0.02832100  0.81120000  0.55361000  1
  Ir  Ir80  1  0.77047200  0.77347000  0.51769600  1
  Ir  Ir81  1  0.22952800  0.46563600  0.49730400  1
  Ir  Ir82  1  0.22952800  0.40325800  0.55968200  1
  Ir  Ir83  1  0.77047200  0.83584800  0.45531800  1
  Ir  Ir84  1  0.50000000  0.18205300  0.44500000  1
  Ir  Ir85  1  0.25697700  0.65212100  0.54300500  1
  Ir  Ir86  1  0.74302300  0.58698500  0.47199500  1
  Ir  Ir87  1  0.53311500  0.80237500  0.55302100  1
  Ir  Ir88  1  0.46688500  0.43673100  0.46197900  1
  Ir  Ir89  1  0.70409300  0.31898500  0.48960400  1
  Ir  Ir90  1  0.29590700  0.92012200  0.52539600  1
  Ir  Ir91  1  0.29590700  0.97860600  0.46691200  1
  Ir  Ir92  1  0.70409300  0.26050000  0.54808800  1
  Ir  Ir93  1  0.97167900  0.55290600  0.33639000  1
  Ir  Ir94  1  0.02832100  0.93620000  0.42861000  1
  Ir  Ir95  1  0.77047200  0.89847000  0.39269600  1
  Ir  Ir96  1  0.22952800  0.59063600  0.37230400  1
  Ir  Ir97  1  0.22952800  0.52825800  0.43468200  1
  Ir  Ir98  1  0.77047200  0.96084800  0.33031800  1
  Ir  Ir99  1  0.50000000  0.30705300  0.32000000  1
  Ir  Ir100  1  0.25697700  0.77712100  0.41800500  1
  Ir  Ir101  1  0.74302300  0.71198500  0.34699500  1
  Ir  Ir102  1  0.53311500  0.92737500  0.42802100  1
  Ir  Ir103  1  0.46688500  0.56173100  0.33697900  1
  Ir  Ir104  1  0.70409300  0.44398500  0.36460400  1
  Ir  Ir105  1  0.29590700  0.04512200  0.40039600  1
  Ir  Ir106  1  0.29590700  0.10360600  0.34191200  1
  Ir  Ir107  1  0.70409300  0.38550000  0.42308800  1
  Ir  Ir108  1  0.97167900  0.67790600  0.21139000  1
  Ir  Ir109  1  0.02832100  0.06120000  0.30361000  1
  Ir  Ir110  1  0.77047200  0.02347000  0.26769600  1
  Ir  Ir111  1  0.22952800  0.71563600  0.24730400  1
  Ir  Ir112  1  0.22952800  0.65325800  0.30968200  1
  Ir  Ir113  1  0.77047200  0.08584800  0.20531800  1
  Ir  Ir114  1  0.25697700  0.90212100  0.29300500  1
  Ir  Ir115  1  0.74302300  0.83698500  0.22199500  1
  Ir  Ir116  1  0.53311500  0.05237500  0.30302100  1
  Ir  Ir117  1  0.46688500  0.68673100  0.21197900  1
  Ir  Ir118  1  0.70409300  0.56898500  0.23960400  1
  Ir  Ir119  1  0.29590700  0.17012200  0.27539600  1
  Ir  Ir120  1  0.29590700  0.22860600  0.21691200  1
  Ir  Ir121  1  0.70409300  0.51050000  0.29808800  1
