# generated using pymatgen
data_Mg85Rh36
_symmetry_space_group_name_H-M   'P 1'
_cell_length_a   8.64031900
_cell_length_b   11.79877622
_cell_length_c   43.91762100
_cell_angle_alpha   86.20917344
_cell_angle_beta   90.00000000
_cell_angle_gamma   68.52142843
_symmetry_Int_Tables_number   1
_chemical_formula_structural   Mg85Rh36
_chemical_formula_sum   'Mg85 Rh36'
_cell_volume   4155.74122190
_cell_formula_units_Z   1
loop_
 _symmetry_equiv_pos_site_id
 _symmetry_equiv_pos_as_xyz
  1  'x, y, z'
loop_
 _atom_site_type_symbol
 _atom_site_label
 _atom_site_symmetry_multiplicity
 _atom_site_fract_x
 _atom_site_fract_y
 _atom_site_fract_z
 _atom_site_occupancy
  Mg  Mg0  1  0.95258700  0.09482500  0.20758900  1
  Mg  Mg1  1  0.82758700  0.34482500  0.27008900  1
  Mg  Mg2  1  0.36997100  0.26005800  0.22878100  1
  Mg  Mg3  1  0.81967900  0.73994200  0.23381000  1
  Mg  Mg4  1  0.44037900  0.73994200  0.23381000  1
  Mg  Mg5  1  0.21479600  0.94970900  0.30636800  1
  Mg  Mg6  1  0.83549500  0.94970900  0.30636800  1
  Mg  Mg7  1  0.53520400  0.92959200  0.18639800  1
  Mg  Mg8  1  0.06436600  0.87126800  0.24735000  1
  Mg  Mg9  1  0.17848900  0.21691800  0.28593700  1
  Mg  Mg10  1  0.60459300  0.21691800  0.28593700  1
  Mg  Mg11  1  0.95784000  0.65821700  0.30061200  1
  Mg  Mg12  1  0.38394300  0.65821700  0.30061200  1
  Mg  Mg13  1  0.59080900  0.81838200  0.29282900  1
  Mg  Mg14  1  0.27123100  0.03143400  0.23956600  1
  Mg  Mg15  1  0.74806700  0.50386600  0.21420000  1
  Mg  Mg16  1  0.69733500  0.03143400  0.23956600  1
  Mg  Mg17  1  0.05058200  0.47273300  0.25424100  1
  Mg  Mg18  1  0.15710800  0.68578400  0.20097800  1
  Mg  Mg19  1  0.47668500  0.47273300  0.25424100  1
  Mg  Mg20  1  0.70258700  0.59482500  0.33258900  1
  Mg  Mg21  1  0.57758700  0.84482500  0.39508900  1
  Mg  Mg22  1  0.11997100  0.76005800  0.35378100  1
  Mg  Mg23  1  0.56967900  0.23994200  0.35881000  1
  Mg  Mg24  1  0.19037900  0.23994200  0.35881000  1
  Mg  Mg25  1  0.96479600  0.44970900  0.43136800  1
  Mg  Mg26  1  0.58549500  0.44970900  0.43136800  1
  Mg  Mg27  1  0.28520400  0.42959200  0.31139800  1
  Mg  Mg28  1  0.81436600  0.37126800  0.37235000  1
  Mg  Mg29  1  0.92848900  0.71691800  0.41093700  1
  Mg  Mg30  1  0.35459300  0.71691800  0.41093700  1
  Mg  Mg31  1  0.70784000  0.15821700  0.42561200  1
  Mg  Mg32  1  0.13394300  0.15821700  0.42561200  1
  Mg  Mg33  1  0.34080900  0.31838200  0.41782900  1
  Mg  Mg34  1  0.02123100  0.53143400  0.36456600  1
  Mg  Mg35  1  0.49806700  0.00386600  0.33920000  1
  Mg  Mg36  1  0.44733500  0.53143400  0.36456600  1
  Mg  Mg37  1  0.80058200  0.97273300  0.37924100  1
  Mg  Mg38  1  0.90710800  0.18578400  0.32597800  1
  Mg  Mg39  1  0.22668500  0.97273300  0.37924100  1
  Mg  Mg40  1  0.45258700  0.09482500  0.45758900  1
  Mg  Mg41  1  0.32758700  0.34482500  0.52008900  1
  Mg  Mg42  1  0.86997100  0.26005800  0.47878100  1
  Mg  Mg43  1  0.31967900  0.73994200  0.48381000  1
  Mg  Mg44  1  0.94037900  0.73994200  0.48381000  1
  Mg  Mg45  1  0.71479600  0.94970900  0.55636800  1
  Mg  Mg46  1  0.33549500  0.94970900  0.55636800  1
  Mg  Mg47  1  0.03520400  0.92959200  0.43639800  1
  Mg  Mg48  1  0.56436600  0.87126800  0.49735000  1
  Mg  Mg49  1  0.67848900  0.21691800  0.53593700  1
  Mg  Mg50  1  0.10459300  0.21691800  0.53593700  1
  Mg  Mg51  1  0.45784000  0.65821700  0.55061200  1
  Mg  Mg52  1  0.88394300  0.65821700  0.55061200  1
  Mg  Mg53  1  0.09080900  0.81838200  0.54282900  1
  Mg  Mg54  1  0.77123100  0.03143400  0.48956600  1
  Mg  Mg55  1  0.24806700  0.50386600  0.46420000  1
  Mg  Mg56  1  0.19733500  0.03143400  0.48956600  1
  Mg  Mg57  1  0.55058200  0.47273300  0.50424100  1
  Mg  Mg58  1  0.65710800  0.68578400  0.45097800  1
  Mg  Mg59  1  0.97668500  0.47273300  0.50424100  1
  Mg  Mg60  1  0.20258700  0.59482500  0.58258900  1
  Mg  Mg61  1  0.07758700  0.84482500  0.64508900  1
  Mg  Mg62  1  0.61997100  0.76005800  0.60378100  1
  Mg  Mg63  1  0.06967900  0.23994200  0.60881000  1
  Mg  Mg64  1  0.69037900  0.23994200  0.60881000  1
  Mg  Mg65  1  0.46479600  0.44970900  0.68136800  1
  Mg  Mg66  1  0.08549500  0.44970900  0.68136800  1
  Mg  Mg67  1  0.78520400  0.42959200  0.56139800  1
  Mg  Mg68  1  0.31436600  0.37126800  0.62235000  1
  Mg  Mg69  1  0.42848900  0.71691800  0.66093700  1
  Mg  Mg70  1  0.85459300  0.71691800  0.66093700  1
  Mg  Mg71  1  0.20784000  0.15821700  0.67561200  1
  Mg  Mg72  1  0.63394300  0.15821700  0.67561200  1
  Mg  Mg73  1  0.84080900  0.31838200  0.66782900  1
  Mg  Mg74  1  0.52123100  0.53143400  0.61456600  1
  Mg  Mg75  1  0.99806700  0.00386600  0.58920000  1
  Mg  Mg76  1  0.94733500  0.53143400  0.61456600  1
  Mg  Mg77  1  0.30058200  0.97273300  0.62924100  1
  Mg  Mg78  1  0.40710800  0.18578400  0.57597800  1
  Mg  Mg79  1  0.72668500  0.97273300  0.62924100  1
  Mg  Mg80  1  0.95258700  0.09482500  0.70758900  1
  Mg  Mg81  1  0.36997100  0.26005800  0.72878100  1
  Mg  Mg82  1  0.53520400  0.92959200  0.68639800  1
  Mg  Mg83  1  0.74806700  0.50386600  0.71420000  1
  Mg  Mg84  1  0.15710800  0.68578400  0.70097800  1
  Rh  Rh85  1  0.18175400  0.63649200  0.25967300  1
  Rh  Rh86  1  0.47342100  0.05315800  0.28050600  1
  Rh  Rh87  1  0.95123900  0.09752200  0.26941500  1
  Rh  Rh88  1  0.22911900  0.90867300  0.19162700  1
  Rh  Rh89  1  0.86220800  0.90867300  0.19162700  1
  Rh  Rh90  1  0.04296700  0.28097700  0.22355100  1
  Rh  Rh91  1  0.67605600  0.28097700  0.22355100  1
  Rh  Rh92  1  0.70393600  0.59212900  0.27076300  1
  Rh  Rh93  1  0.93175400  0.13649200  0.38467300  1
  Rh  Rh94  1  0.22342100  0.55315800  0.40550600  1
  Rh  Rh95  1  0.70123900  0.59752200  0.39441500  1
  Rh  Rh96  1  0.97911900  0.40867300  0.31662700  1
  Rh  Rh97  1  0.61220800  0.40867300  0.31662700  1
  Rh  Rh98  1  0.79296700  0.78097700  0.34855100  1
  Rh  Rh99  1  0.42605600  0.78097700  0.34855100  1
  Rh  Rh100  1  0.45393600  0.09212900  0.39576300  1
  Rh  Rh101  1  0.68175400  0.63649200  0.50967300  1
  Rh  Rh102  1  0.97342100  0.05315800  0.53050600  1
  Rh  Rh103  1  0.45123900  0.09752200  0.51941500  1
  Rh  Rh104  1  0.72911900  0.90867300  0.44162700  1
  Rh  Rh105  1  0.36220800  0.90867300  0.44162700  1
  Rh  Rh106  1  0.54296700  0.28097700  0.47355100  1
  Rh  Rh107  1  0.17605600  0.28097700  0.47355100  1
  Rh  Rh108  1  0.20393600  0.59212900  0.52076300  1
  Rh  Rh109  1  0.43175400  0.13649200  0.63467300  1
  Rh  Rh110  1  0.72342100  0.55315800  0.65550600  1
  Rh  Rh111  1  0.20123900  0.59752200  0.64441500  1
  Rh  Rh112  1  0.47911900  0.40867300  0.56662700  1
  Rh  Rh113  1  0.11220800  0.40867300  0.56662700  1
  Rh  Rh114  1  0.29296700  0.78097700  0.59855100  1
  Rh  Rh115  1  0.92605600  0.78097700  0.59855100  1
  Rh  Rh116  1  0.95393600  0.09212900  0.64576300  1
  Rh  Rh117  1  0.22911900  0.90867300  0.69162700  1
  Rh  Rh118  1  0.86220800  0.90867300  0.69162700  1
  Rh  Rh119  1  0.04296700  0.28097700  0.72355100  1
  Rh  Rh120  1  0.67605600  0.28097700  0.72355100  1
