# generated using pymatgen
data_Mg15Zn86
_symmetry_space_group_name_H-M   'P 1'
_cell_length_a   12.10891185
_cell_length_b   12.10891214
_cell_length_c   49.92632400
_cell_angle_alpha   90.00000000
_cell_angle_beta   83.03472392
_cell_angle_gamma   60.00000117
_symmetry_Int_Tables_number   1
_chemical_formula_structural   Mg15Zn86
_chemical_formula_sum   'Mg30 Zn172'
_cell_volume   6277.26392985
_cell_formula_units_Z   2
loop_
 _symmetry_equiv_pos_site_id
 _symmetry_equiv_pos_as_xyz
  1  'x, y, z'
loop_
 _atom_site_type_symbol
 _atom_site_label
 _atom_site_symmetry_multiplicity
 _atom_site_fract_x
 _atom_site_fract_y
 _atom_site_fract_z
 _atom_site_occupancy
  Mg  Mg0  1  0.82565600  0.36924200  0.23922900  1
  Mg  Mg1  1  0.12820700  0.86924200  0.23922900  1
  Mg  Mg2  1  0.32565600  0.17179300  0.23922900  1
  Mg  Mg3  1  0.36514600  0.75077300  0.27871900  1
  Mg  Mg4  1  0.16769700  0.44822200  0.27871900  1
  Mg  Mg5  1  0.66769700  0.25077300  0.27871900  1
  Mg  Mg6  1  0.42565600  0.06924200  0.33922900  1
  Mg  Mg7  1  0.72820700  0.56924200  0.33922900  1
  Mg  Mg8  1  0.92565600  0.87179300  0.33922900  1
  Mg  Mg9  1  0.96514600  0.45077300  0.37871900  1
  Mg  Mg10  1  0.76769700  0.14822200  0.37871900  1
  Mg  Mg11  1  0.26769700  0.95077300  0.37871900  1
  Mg  Mg12  1  0.02565600  0.76924200  0.43922900  1
  Mg  Mg13  1  0.32820700  0.26924200  0.43922900  1
  Mg  Mg14  1  0.52565600  0.57179300  0.43922900  1
  Mg  Mg15  1  0.56514600  0.15077300  0.47871900  1
  Mg  Mg16  1  0.36769700  0.84822200  0.47871900  1
  Mg  Mg17  1  0.86769700  0.65077300  0.47871900  1
  Mg  Mg18  1  0.62565600  0.46924200  0.53922900  1
  Mg  Mg19  1  0.92820700  0.96924200  0.53922900  1
  Mg  Mg20  1  0.12565600  0.27179300  0.53922900  1
  Mg  Mg21  1  0.16514600  0.85077300  0.57871900  1
  Mg  Mg22  1  0.96769700  0.54822200  0.57871900  1
  Mg  Mg23  1  0.46769700  0.35077300  0.57871900  1
  Mg  Mg24  1  0.22565600  0.16924200  0.63922900  1
  Mg  Mg25  1  0.52820700  0.66924200  0.63922900  1
  Mg  Mg26  1  0.72565600  0.97179300  0.63922900  1
  Mg  Mg27  1  0.76514600  0.55077300  0.67871900  1
  Mg  Mg28  1  0.56769700  0.24822200  0.67871900  1
  Mg  Mg29  1  0.06769700  0.05077300  0.67871900  1
  Zn  Zn30  1  0.44667700  0.46000700  0.20897400  1
  Zn  Zn31  1  0.65612700  0.74209600  0.28161200  1
  Zn  Zn32  1  0.88250000  0.74209600  0.28161200  1
  Zn  Zn33  1  0.65612700  0.96846800  0.28161200  1
  Zn  Zn34  1  0.61085300  0.87791900  0.23633700  1
  Zn  Zn35  1  0.83722600  0.65154700  0.23633700  1
  Zn  Zn36  1  0.83722600  0.87791900  0.23633700  1
  Zn  Zn37  1  0.38362900  0.91272200  0.22473600  1
  Zn  Zn38  1  0.04124800  0.41272200  0.22473600  1
  Zn  Zn39  1  0.88362900  0.07034100  0.22473600  1
  Zn  Zn40  1  0.45210500  0.20729300  0.29321200  1
  Zn  Zn41  1  0.60972400  0.54967400  0.29321200  1
  Zn  Zn42  1  0.10972400  0.70729300  0.29321200  1
  Zn  Zn43  1  0.10286500  0.13191300  0.22469100  1
  Zn  Zn44  1  0.61524300  0.09477900  0.23706900  1
  Zn  Zn45  1  0.61524300  0.65666900  0.23706900  1
  Zn  Zn46  1  0.05335400  0.65666900  0.23706900  1
  Zn  Zn47  1  0.39048800  0.48810200  0.29325800  1
  Zn  Zn48  1  0.87811000  0.52523500  0.28088000  1
  Zn  Zn49  1  0.87811000  0.96334600  0.28088000  1
  Zn  Zn50  1  0.43999900  0.96334600  0.28088000  1
  Zn  Zn51  1  0.94937400  0.12958000  0.26639800  1
  Zn  Zn52  1  0.21698300  0.02012800  0.26639800  1
  Zn  Zn53  1  0.05882500  0.28773700  0.26639800  1
  Zn  Zn54  1  0.43452800  0.33227700  0.25155100  1
  Zn  Zn55  1  0.40289600  0.69478100  0.21991900  1
  Zn  Zn56  1  0.24473800  0.42717200  0.21991900  1
  Zn  Zn57  1  0.49045700  0.22523400  0.19802900  1
  Zn  Zn58  1  0.27637000  0.59988600  0.25155100  1
  Zn  Zn59  1  0.64861500  0.49284300  0.19802900  1
  Zn  Zn60  1  0.54397900  0.49043500  0.25155100  1
  Zn  Zn61  1  0.22284800  0.65100100  0.19802900  1
  Zn  Zn62  1  0.67050500  0.26901400  0.21991900  1
  Zn  Zn63  1  0.04667700  0.16000700  0.30897400  1
  Zn  Zn64  1  0.25612700  0.44209600  0.38161200  1
  Zn  Zn65  1  0.48250000  0.44209600  0.38161200  1
  Zn  Zn66  1  0.25612700  0.66846800  0.38161200  1
  Zn  Zn67  1  0.21085300  0.57791900  0.33633700  1
  Zn  Zn68  1  0.43722600  0.35154700  0.33633700  1
  Zn  Zn69  1  0.43722600  0.57791900  0.33633700  1
  Zn  Zn70  1  0.98362900  0.61272200  0.32473600  1
  Zn  Zn71  1  0.64124800  0.11272200  0.32473600  1
  Zn  Zn72  1  0.48362900  0.77034100  0.32473600  1
  Zn  Zn73  1  0.05210500  0.90729300  0.39321200  1
  Zn  Zn74  1  0.20972400  0.24967400  0.39321200  1
  Zn  Zn75  1  0.70972400  0.40729300  0.39321200  1
  Zn  Zn76  1  0.70286500  0.83191300  0.32469100  1
  Zn  Zn77  1  0.21524300  0.79477900  0.33706900  1
  Zn  Zn78  1  0.21524300  0.35666900  0.33706900  1
  Zn  Zn79  1  0.65335400  0.35666900  0.33706900  1
  Zn  Zn80  1  0.99048800  0.18810200  0.39325800  1
  Zn  Zn81  1  0.47811000  0.22523500  0.38088000  1
  Zn  Zn82  1  0.47811000  0.66334600  0.38088000  1
  Zn  Zn83  1  0.03999900  0.66334600  0.38088000  1
  Zn  Zn84  1  0.54937400  0.82958000  0.36639800  1
  Zn  Zn85  1  0.81698300  0.72012800  0.36639800  1
  Zn  Zn86  1  0.65882500  0.98773700  0.36639800  1
  Zn  Zn87  1  0.03452800  0.03227700  0.35155100  1
  Zn  Zn88  1  0.00289600  0.39478100  0.31991900  1
  Zn  Zn89  1  0.84473800  0.12717200  0.31991900  1
  Zn  Zn90  1  0.09045700  0.92523400  0.29802900  1
  Zn  Zn91  1  0.87637000  0.29988600  0.35155100  1
  Zn  Zn92  1  0.24861500  0.19284300  0.29802900  1
  Zn  Zn93  1  0.14397900  0.19043500  0.35155100  1
  Zn  Zn94  1  0.82284800  0.35100100  0.29802900  1
  Zn  Zn95  1  0.27050500  0.96901400  0.31991900  1
  Zn  Zn96  1  0.64667700  0.86000700  0.40897400  1
  Zn  Zn97  1  0.85612700  0.14209600  0.48161200  1
  Zn  Zn98  1  0.08250000  0.14209600  0.48161200  1
  Zn  Zn99  1  0.85612700  0.36846800  0.48161200  1
  Zn  Zn100  1  0.81085300  0.27791900  0.43633700  1
  Zn  Zn101  1  0.03722600  0.05154700  0.43633700  1
  Zn  Zn102  1  0.03722600  0.27791900  0.43633700  1
  Zn  Zn103  1  0.58362900  0.31272200  0.42473600  1
  Zn  Zn104  1  0.24124800  0.81272200  0.42473600  1
  Zn  Zn105  1  0.08362900  0.47034100  0.42473600  1
  Zn  Zn106  1  0.65210500  0.60729300  0.49321200  1
  Zn  Zn107  1  0.80972400  0.94967400  0.49321200  1
  Zn  Zn108  1  0.30972400  0.10729300  0.49321200  1
  Zn  Zn109  1  0.30286500  0.53191300  0.42469100  1
  Zn  Zn110  1  0.81524300  0.49477900  0.43706900  1
  Zn  Zn111  1  0.81524300  0.05666900  0.43706900  1
  Zn  Zn112  1  0.25335400  0.05666900  0.43706900  1
  Zn  Zn113  1  0.59048800  0.88810200  0.49325800  1
  Zn  Zn114  1  0.07811000  0.92523500  0.48088000  1
  Zn  Zn115  1  0.07811000  0.36334600  0.48088000  1
  Zn  Zn116  1  0.63999900  0.36334600  0.48088000  1
  Zn  Zn117  1  0.14937400  0.52958000  0.46639800  1
  Zn  Zn118  1  0.41698300  0.42012800  0.46639800  1
  Zn  Zn119  1  0.25882500  0.68773700  0.46639800  1
  Zn  Zn120  1  0.63452800  0.73227700  0.45155100  1
  Zn  Zn121  1  0.60289600  0.09478100  0.41991900  1
  Zn  Zn122  1  0.44473800  0.82717200  0.41991900  1
  Zn  Zn123  1  0.69045700  0.62523400  0.39802900  1
  Zn  Zn124  1  0.47637000  0.99988600  0.45155100  1
  Zn  Zn125  1  0.84861500  0.89284300  0.39802900  1
  Zn  Zn126  1  0.74397900  0.89043500  0.45155100  1
  Zn  Zn127  1  0.42284800  0.05100100  0.39802900  1
  Zn  Zn128  1  0.87050500  0.66901400  0.41991900  1
  Zn  Zn129  1  0.24667700  0.56000700  0.50897400  1
  Zn  Zn130  1  0.45612700  0.84209600  0.58161200  1
  Zn  Zn131  1  0.68250000  0.84209600  0.58161200  1
  Zn  Zn132  1  0.45612700  0.06846800  0.58161200  1
  Zn  Zn133  1  0.41085300  0.97791900  0.53633700  1
  Zn  Zn134  1  0.63722600  0.75154700  0.53633700  1
  Zn  Zn135  1  0.63722600  0.97791900  0.53633700  1
  Zn  Zn136  1  0.18362900  0.01272200  0.52473600  1
  Zn  Zn137  1  0.84124800  0.51272200  0.52473600  1
  Zn  Zn138  1  0.68362900  0.17034100  0.52473600  1
  Zn  Zn139  1  0.25210500  0.30729300  0.59321200  1
  Zn  Zn140  1  0.40972400  0.64967400  0.59321200  1
  Zn  Zn141  1  0.90972400  0.80729300  0.59321200  1
  Zn  Zn142  1  0.90286500  0.23191300  0.52469100  1
  Zn  Zn143  1  0.41524300  0.19477900  0.53706900  1
  Zn  Zn144  1  0.41524300  0.75666900  0.53706900  1
  Zn  Zn145  1  0.85335400  0.75666900  0.53706900  1
  Zn  Zn146  1  0.19048800  0.58810200  0.59325800  1
  Zn  Zn147  1  0.67811000  0.62523500  0.58088000  1
  Zn  Zn148  1  0.67811000  0.06334600  0.58088000  1
  Zn  Zn149  1  0.23999900  0.06334600  0.58088000  1
  Zn  Zn150  1  0.74937400  0.22958000  0.56639800  1
  Zn  Zn151  1  0.01698300  0.12012800  0.56639800  1
  Zn  Zn152  1  0.85882500  0.38773700  0.56639800  1
  Zn  Zn153  1  0.23452800  0.43227700  0.55155100  1
  Zn  Zn154  1  0.20289600  0.79478100  0.51991900  1
  Zn  Zn155  1  0.04473800  0.52717200  0.51991900  1
  Zn  Zn156  1  0.29045700  0.32523400  0.49802900  1
  Zn  Zn157  1  0.07637000  0.69988600  0.55155100  1
  Zn  Zn158  1  0.44861500  0.59284300  0.49802900  1
  Zn  Zn159  1  0.34397900  0.59043500  0.55155100  1
  Zn  Zn160  1  0.02284800  0.75100100  0.49802900  1
  Zn  Zn161  1  0.47050500  0.36901400  0.51991900  1
  Zn  Zn162  1  0.84667700  0.26000700  0.60897400  1
  Zn  Zn163  1  0.05612700  0.54209600  0.68161200  1
  Zn  Zn164  1  0.28250000  0.54209600  0.68161200  1
  Zn  Zn165  1  0.05612700  0.76846800  0.68161200  1
  Zn  Zn166  1  0.01085300  0.67791900  0.63633700  1
  Zn  Zn167  1  0.23722600  0.45154700  0.63633700  1
  Zn  Zn168  1  0.23722600  0.67791900  0.63633700  1
  Zn  Zn169  1  0.78362900  0.71272200  0.62473600  1
  Zn  Zn170  1  0.44124800  0.21272200  0.62473600  1
  Zn  Zn171  1  0.28362900  0.87034100  0.62473600  1
  Zn  Zn172  1  0.85210500  0.00729300  0.69321200  1
  Zn  Zn173  1  0.00972400  0.34967400  0.69321200  1
  Zn  Zn174  1  0.50972400  0.50729300  0.69321200  1
  Zn  Zn175  1  0.50286500  0.93191300  0.62469100  1
  Zn  Zn176  1  0.01524300  0.89477900  0.63706900  1
  Zn  Zn177  1  0.01524300  0.45666900  0.63706900  1
  Zn  Zn178  1  0.45335400  0.45666900  0.63706900  1
  Zn  Zn179  1  0.79048800  0.28810200  0.69325800  1
  Zn  Zn180  1  0.27811000  0.32523500  0.68088000  1
  Zn  Zn181  1  0.27811000  0.76334600  0.68088000  1
  Zn  Zn182  1  0.83999900  0.76334600  0.68088000  1
  Zn  Zn183  1  0.34937400  0.92958000  0.66639800  1
  Zn  Zn184  1  0.61698300  0.82012800  0.66639800  1
  Zn  Zn185  1  0.45882500  0.08773700  0.66639800  1
  Zn  Zn186  1  0.83452800  0.13227700  0.65155100  1
  Zn  Zn187  1  0.80289600  0.49478100  0.61991900  1
  Zn  Zn188  1  0.64473800  0.22717200  0.61991900  1
  Zn  Zn189  1  0.89045700  0.02523400  0.59802900  1
  Zn  Zn190  1  0.67637000  0.39988600  0.65155100  1
  Zn  Zn191  1  0.04861500  0.29284300  0.59802900  1
  Zn  Zn192  1  0.94397900  0.29043500  0.65155100  1
  Zn  Zn193  1  0.62284800  0.45100100  0.59802900  1
  Zn  Zn194  1  0.07050500  0.06901400  0.61991900  1
  Zn  Zn195  1  0.44667700  0.96000700  0.70897400  1
  Zn  Zn196  1  0.40289600  0.19478100  0.71991900  1
  Zn  Zn197  1  0.24473800  0.92717200  0.71991900  1
  Zn  Zn198  1  0.49045700  0.72523400  0.69802900  1
  Zn  Zn199  1  0.64861500  0.99284300  0.69802900  1
  Zn  Zn200  1  0.22284800  0.15100100  0.69802900  1
  Zn  Zn201  1  0.67050500  0.76901400  0.71991900  1
