# generated using pymatgen
data_Ce16Mg9
_symmetry_space_group_name_H-M   'P 1'
_cell_length_a   5.24483100
_cell_length_b   9.39222165
_cell_length_c   43.65120100
_cell_angle_alpha   92.56125256
_cell_angle_beta   90.00000000
_cell_angle_gamma   90.00000000
_symmetry_Int_Tables_number   1
_chemical_formula_structural   Ce16Mg9
_chemical_formula_sum   'Ce32 Mg18'
_cell_volume   2148.13692483
_cell_formula_units_Z   2
loop_
 _symmetry_equiv_pos_site_id
 _symmetry_equiv_pos_as_xyz
  1  'x, y, z'
loop_
 _atom_site_type_symbol
 _atom_site_label
 _atom_site_symmetry_multiplicity
 _atom_site_fract_x
 _atom_site_fract_y
 _atom_site_fract_z
 _atom_site_occupancy
  Ce  Ce0  1  0.25000000  0.02408400  0.76454000  1
  Ce  Ce1  1  0.25000000  0.38218400  0.78831400  1
  Ce  Ce2  1  0.75000000  0.16543500  0.75930500  1
  Ce  Ce3  1  0.75000000  0.52353500  0.78307900  1
  Ce  Ce4  1  0.25000000  0.95265600  0.69311200  1
  Ce  Ce5  1  0.25000000  0.31075500  0.71688600  1
  Ce  Ce6  1  0.75000000  0.09400700  0.68787600  1
  Ce  Ce7  1  0.75000000  0.45210600  0.71165000  1
  Ce  Ce8  1  0.25000000  0.88122700  0.62168300  1
  Ce  Ce9  1  0.25000000  0.23932700  0.64545700  1
  Ce  Ce10  1  0.75000000  0.02257800  0.61644800  1
  Ce  Ce11  1  0.75000000  0.38067800  0.64022200  1
  Ce  Ce12  1  0.25000000  0.80979800  0.55025400  1
  Ce  Ce13  1  0.25000000  0.16789800  0.57402800  1
  Ce  Ce14  1  0.75000000  0.95114900  0.54501900  1
  Ce  Ce15  1  0.75000000  0.30924900  0.56879300  1
  Ce  Ce16  1  0.25000000  0.73837000  0.47882600  1
  Ce  Ce17  1  0.25000000  0.09647000  0.50260000  1
  Ce  Ce18  1  0.75000000  0.87972100  0.47359100  1
  Ce  Ce19  1  0.75000000  0.23782100  0.49736500  1
  Ce  Ce20  1  0.25000000  0.66694100  0.40739700  1
  Ce  Ce21  1  0.25000000  0.02504100  0.43117100  1
  Ce  Ce22  1  0.75000000  0.80829200  0.40216200  1
  Ce  Ce23  1  0.75000000  0.16639200  0.42593600  1
  Ce  Ce24  1  0.25000000  0.59551300  0.33596900  1
  Ce  Ce25  1  0.25000000  0.95361300  0.35974300  1
  Ce  Ce26  1  0.75000000  0.73686400  0.33073300  1
  Ce  Ce27  1  0.75000000  0.09496300  0.35450800  1
  Ce  Ce28  1  0.25000000  0.52408400  0.26454000  1
  Ce  Ce29  1  0.25000000  0.88218400  0.28831400  1
  Ce  Ce30  1  0.75000000  0.66543500  0.25930500  1
  Ce  Ce31  1  0.75000000  0.02353500  0.28307900  1
  Mg  Mg32  1  0.25000000  0.73052400  0.81245000  1
  Mg  Mg33  1  0.75000000  0.88852400  0.80659800  1
  Mg  Mg34  1  0.25000000  0.65909500  0.74102100  1
  Mg  Mg35  1  0.75000000  0.81709500  0.73516900  1
  Mg  Mg36  1  0.25000000  0.58766700  0.66959300  1
  Mg  Mg37  1  0.75000000  0.74566700  0.66374100  1
  Mg  Mg38  1  0.25000000  0.51623800  0.59816400  1
  Mg  Mg39  1  0.75000000  0.67423800  0.59231200  1
  Mg  Mg40  1  0.25000000  0.44481000  0.52673500  1
  Mg  Mg41  1  0.75000000  0.60280900  0.52088400  1
  Mg  Mg42  1  0.25000000  0.37338100  0.45530700  1
  Mg  Mg43  1  0.75000000  0.53138100  0.44945500  1
  Mg  Mg44  1  0.25000000  0.30195200  0.38387800  1
  Mg  Mg45  1  0.75000000  0.45995200  0.37802600  1
  Mg  Mg46  1  0.25000000  0.23052400  0.31245000  1
  Mg  Mg47  1  0.75000000  0.38852400  0.30659800  1
  Mg  Mg48  1  0.25000000  0.15909500  0.24102100  1
  Mg  Mg49  1  0.75000000  0.31709500  0.23516900  1
