# generated using pymatgen
data_Mg2Ga5
_symmetry_space_group_name_H-M   'P 1'
_cell_length_a   12.45064400
_cell_length_b   11.26839076
_cell_length_c   46.76157100
_cell_angle_alpha   93.77131998
_cell_angle_beta   90.00000000
_cell_angle_gamma   56.46413678
_symmetry_Int_Tables_number   1
_chemical_formula_structural   Mg2Ga5
_chemical_formula_sum   'Mg48 Ga120'
_cell_volume   5451.46215196
_cell_formula_units_Z   24
loop_
 _symmetry_equiv_pos_site_id
 _symmetry_equiv_pos_as_xyz
  1  'x, y, z'
loop_
 _atom_site_type_symbol
 _atom_site_label
 _atom_site_symmetry_multiplicity
 _atom_site_fract_x
 _atom_site_fract_y
 _atom_site_fract_z
 _atom_site_occupancy
  Mg  Mg0  1  0.00539000  0.98921900  0.26519500  1
  Mg  Mg1  1  0.07402400  0.45000000  0.27500000  1
  Mg  Mg2  1  0.12597600  0.15000000  0.22500000  1
  Mg  Mg3  1  0.19461000  0.61078100  0.23480500  1
  Mg  Mg4  1  0.65539000  0.68921900  0.21519500  1
  Mg  Mg5  1  0.72402400  0.15000000  0.22500000  1
  Mg  Mg6  1  0.47597600  0.45000000  0.27500000  1
  Mg  Mg7  1  0.54461000  0.91078100  0.28480500  1
  Mg  Mg8  1  0.70539000  0.58921900  0.36519500  1
  Mg  Mg9  1  0.77402400  0.05000000  0.37500000  1
  Mg  Mg10  1  0.82597600  0.75000000  0.32500000  1
  Mg  Mg11  1  0.89461000  0.21078100  0.33480500  1
  Mg  Mg12  1  0.35539000  0.28921900  0.31519500  1
  Mg  Mg13  1  0.42402400  0.75000000  0.32500000  1
  Mg  Mg14  1  0.17597600  0.05000000  0.37500000  1
  Mg  Mg15  1  0.24461000  0.51078100  0.38480500  1
  Mg  Mg16  1  0.40539000  0.18921900  0.46519500  1
  Mg  Mg17  1  0.47402400  0.65000000  0.47500000  1
  Mg  Mg18  1  0.52597600  0.35000000  0.42500000  1
  Mg  Mg19  1  0.59461000  0.81078100  0.43480500  1
  Mg  Mg20  1  0.05539000  0.88921900  0.41519500  1
  Mg  Mg21  1  0.12402400  0.35000000  0.42500000  1
  Mg  Mg22  1  0.87597600  0.65000000  0.47500000  1
  Mg  Mg23  1  0.94461000  0.11078100  0.48480500  1
  Mg  Mg24  1  0.10539000  0.78921900  0.56519500  1
  Mg  Mg25  1  0.17402400  0.25000000  0.57500000  1
  Mg  Mg26  1  0.22597600  0.95000000  0.52500000  1
  Mg  Mg27  1  0.29461000  0.41078100  0.53480500  1
  Mg  Mg28  1  0.75539000  0.48921900  0.51519500  1
  Mg  Mg29  1  0.82402400  0.95000000  0.52500000  1
  Mg  Mg30  1  0.57597600  0.25000000  0.57500000  1
  Mg  Mg31  1  0.64461000  0.71078100  0.58480500  1
  Mg  Mg32  1  0.80539000  0.38921900  0.66519500  1
  Mg  Mg33  1  0.87402400  0.85000000  0.67500000  1
  Mg  Mg34  1  0.92597600  0.55000000  0.62500000  1
  Mg  Mg35  1  0.99461000  0.01078100  0.63480500  1
  Mg  Mg36  1  0.45539000  0.08921900  0.61519500  1
  Mg  Mg37  1  0.52402400  0.55000000  0.62500000  1
  Mg  Mg38  1  0.27597600  0.85000000  0.67500000  1
  Mg  Mg39  1  0.34461000  0.31078100  0.68480500  1
  Mg  Mg40  1  0.50539000  0.98921900  0.76519500  1
  Mg  Mg41  1  0.57402400  0.45000000  0.77500000  1
  Mg  Mg42  1  0.62597600  0.15000000  0.72500000  1
  Mg  Mg43  1  0.69461000  0.61078100  0.73480500  1
  Mg  Mg44  1  0.15539000  0.68921900  0.71519500  1
  Mg  Mg45  1  0.22402400  0.15000000  0.72500000  1
  Mg  Mg46  1  0.97597600  0.45000000  0.77500000  1
  Mg  Mg47  1  0.04461000  0.91078100  0.78480500  1
  Ga  Ga48  1  0.62314100  0.45775900  0.22696700  1
  Ga  Ga49  1  0.39152400  0.92099100  0.23615900  1
  Ga  Ga50  1  0.26910000  0.75775900  0.27696700  1
  Ga  Ga51  1  0.03748400  0.22099100  0.28615900  1
  Ga  Ga52  1  0.98758000  0.02484000  0.20414000  1
  Ga  Ga53  1  0.86242000  0.27516000  0.24586000  1
  Ga  Ga54  1  0.45847600  0.37900900  0.21384100  1
  Ga  Ga55  1  0.22685900  0.84224100  0.22303300  1
  Ga  Ga56  1  0.51251600  0.67900900  0.26384100  1
  Ga  Ga57  1  0.28090000  0.14224100  0.27303300  1
  Ga  Ga58  1  0.97314100  0.75775900  0.27696700  1
  Ga  Ga59  1  0.74152400  0.22099100  0.28615900  1
  Ga  Ga60  1  0.91910000  0.45775900  0.22696700  1
  Ga  Ga61  1  0.68748400  0.92099100  0.23615900  1
  Ga  Ga62  1  0.33758000  0.32484000  0.25414000  1
  Ga  Ga63  1  0.21242000  0.57516000  0.29586000  1
  Ga  Ga64  1  0.80847600  0.67900900  0.26384100  1
  Ga  Ga65  1  0.57685900  0.14224100  0.27303300  1
  Ga  Ga66  1  0.16251600  0.37900900  0.21384100  1
  Ga  Ga67  1  0.93090000  0.84224100  0.22303300  1
  Ga  Ga68  1  0.32314100  0.05775900  0.32696700  1
  Ga  Ga69  1  0.09152400  0.52099100  0.33615900  1
  Ga  Ga70  1  0.96910000  0.35775900  0.37696700  1
  Ga  Ga71  1  0.73748400  0.82099100  0.38615900  1
  Ga  Ga72  1  0.68758000  0.62484000  0.30414000  1
  Ga  Ga73  1  0.56242000  0.87516000  0.34586000  1
  Ga  Ga74  1  0.15847600  0.97900900  0.31384100  1
  Ga  Ga75  1  0.92685900  0.44224100  0.32303300  1
  Ga  Ga76  1  0.21251600  0.27900900  0.36384100  1
  Ga  Ga77  1  0.98090000  0.74224100  0.37303300  1
  Ga  Ga78  1  0.67314100  0.35775900  0.37696700  1
  Ga  Ga79  1  0.44152400  0.82099100  0.38615900  1
  Ga  Ga80  1  0.61910000  0.05775900  0.32696700  1
  Ga  Ga81  1  0.38748400  0.52099100  0.33615900  1
  Ga  Ga82  1  0.03758000  0.92484000  0.35414000  1
  Ga  Ga83  1  0.91242000  0.17516000  0.39586000  1
  Ga  Ga84  1  0.50847600  0.27900900  0.36384100  1
  Ga  Ga85  1  0.27685900  0.74224100  0.37303300  1
  Ga  Ga86  1  0.86251600  0.97900900  0.31384100  1
  Ga  Ga87  1  0.63090000  0.44224100  0.32303300  1
  Ga  Ga88  1  0.02314100  0.65775900  0.42696700  1
  Ga  Ga89  1  0.79152400  0.12099100  0.43615900  1
  Ga  Ga90  1  0.66910000  0.95775900  0.47696700  1
  Ga  Ga91  1  0.43748400  0.42099100  0.48615900  1
  Ga  Ga92  1  0.38758000  0.22484000  0.40414000  1
  Ga  Ga93  1  0.26242000  0.47516000  0.44586000  1
  Ga  Ga94  1  0.85847600  0.57900900  0.41384100  1
  Ga  Ga95  1  0.62685900  0.04224100  0.42303300  1
  Ga  Ga96  1  0.91251600  0.87900900  0.46384100  1
  Ga  Ga97  1  0.68090000  0.34224100  0.47303300  1
  Ga  Ga98  1  0.37314100  0.95775900  0.47696700  1
  Ga  Ga99  1  0.14152400  0.42099100  0.48615900  1
  Ga  Ga100  1  0.31910000  0.65775900  0.42696700  1
  Ga  Ga101  1  0.08748400  0.12099100  0.43615900  1
  Ga  Ga102  1  0.73758000  0.52484000  0.45414000  1
  Ga  Ga103  1  0.61242000  0.77516000  0.49586000  1
  Ga  Ga104  1  0.20847600  0.87900900  0.46384100  1
  Ga  Ga105  1  0.97685900  0.34224100  0.47303300  1
  Ga  Ga106  1  0.56251600  0.57900900  0.41384100  1
  Ga  Ga107  1  0.33090000  0.04224100  0.42303300  1
  Ga  Ga108  1  0.72314100  0.25775900  0.52696700  1
  Ga  Ga109  1  0.49152400  0.72099100  0.53615900  1
  Ga  Ga110  1  0.36910000  0.55775900  0.57696700  1
  Ga  Ga111  1  0.13748400  0.02099100  0.58615900  1
  Ga  Ga112  1  0.08758000  0.82484000  0.50414000  1
  Ga  Ga113  1  0.96242000  0.07516000  0.54586000  1
  Ga  Ga114  1  0.55847600  0.17900900  0.51384100  1
  Ga  Ga115  1  0.32685900  0.64224100  0.52303300  1
  Ga  Ga116  1  0.61251600  0.47900900  0.56384100  1
  Ga  Ga117  1  0.38090000  0.94224100  0.57303300  1
  Ga  Ga118  1  0.07314100  0.55775900  0.57696700  1
  Ga  Ga119  1  0.84152400  0.02099100  0.58615900  1
  Ga  Ga120  1  0.01910000  0.25775900  0.52696700  1
  Ga  Ga121  1  0.78748400  0.72099100  0.53615900  1
  Ga  Ga122  1  0.43758000  0.12484000  0.55414000  1
  Ga  Ga123  1  0.31242000  0.37516000  0.59586000  1
  Ga  Ga124  1  0.90847600  0.47900900  0.56384100  1
  Ga  Ga125  1  0.67685900  0.94224100  0.57303300  1
  Ga  Ga126  1  0.26251600  0.17900900  0.51384100  1
  Ga  Ga127  1  0.03090000  0.64224100  0.52303300  1
  Ga  Ga128  1  0.42314100  0.85775900  0.62696700  1
  Ga  Ga129  1  0.19152400  0.32099100  0.63615900  1
  Ga  Ga130  1  0.06910000  0.15775900  0.67696700  1
  Ga  Ga131  1  0.83748400  0.62099100  0.68615900  1
  Ga  Ga132  1  0.78758000  0.42484000  0.60414000  1
  Ga  Ga133  1  0.66242000  0.67516000  0.64586000  1
  Ga  Ga134  1  0.25847600  0.77900900  0.61384100  1
  Ga  Ga135  1  0.02685900  0.24224100  0.62303300  1
  Ga  Ga136  1  0.31251600  0.07900900  0.66384100  1
  Ga  Ga137  1  0.08090000  0.54224100  0.67303300  1
  Ga  Ga138  1  0.77314100  0.15775900  0.67696700  1
  Ga  Ga139  1  0.54152400  0.62099100  0.68615900  1
  Ga  Ga140  1  0.71910000  0.85775900  0.62696700  1
  Ga  Ga141  1  0.48748400  0.32099100  0.63615900  1
  Ga  Ga142  1  0.13758000  0.72484000  0.65414000  1
  Ga  Ga143  1  0.01242000  0.97516000  0.69586000  1
  Ga  Ga144  1  0.60847600  0.07900900  0.66384100  1
  Ga  Ga145  1  0.37685900  0.54224100  0.67303300  1
  Ga  Ga146  1  0.96251600  0.77900900  0.61384100  1
  Ga  Ga147  1  0.73090000  0.24224100  0.62303300  1
  Ga  Ga148  1  0.12314100  0.45775900  0.72696700  1
  Ga  Ga149  1  0.89152400  0.92099100  0.73615900  1
  Ga  Ga150  1  0.76910000  0.75775900  0.77696700  1
  Ga  Ga151  1  0.53748400  0.22099100  0.78615900  1
  Ga  Ga152  1  0.48758000  0.02484000  0.70414000  1
  Ga  Ga153  1  0.36242000  0.27516000  0.74586000  1
  Ga  Ga154  1  0.95847600  0.37900900  0.71384100  1
  Ga  Ga155  1  0.72685900  0.84224100  0.72303300  1
  Ga  Ga156  1  0.01251600  0.67900900  0.76384100  1
  Ga  Ga157  1  0.78090000  0.14224100  0.77303300  1
  Ga  Ga158  1  0.47314100  0.75775900  0.77696700  1
  Ga  Ga159  1  0.24152400  0.22099100  0.78615900  1
  Ga  Ga160  1  0.41910000  0.45775900  0.72696700  1
  Ga  Ga161  1  0.18748400  0.92099100  0.73615900  1
  Ga  Ga162  1  0.83758000  0.32484000  0.75414000  1
  Ga  Ga163  1  0.71242000  0.57516000  0.79586000  1
  Ga  Ga164  1  0.30847600  0.67900900  0.76384100  1
  Ga  Ga165  1  0.07685900  0.14224100  0.77303300  1
  Ga  Ga166  1  0.66251600  0.37900900  0.71384100  1
  Ga  Ga167  1  0.43090000  0.84224100  0.72303300  1
