# generated using pymatgen
data_Mg8Cd17
_symmetry_space_group_name_H-M   'P 1'
_cell_length_a   5.22123900
_cell_length_b   8.35399632
_cell_length_c   42.70485800
_cell_angle_alpha   90.37435949
_cell_angle_beta   90.00000000
_cell_angle_gamma   90.00000000
_symmetry_Int_Tables_number   1
_chemical_formula_structural   Mg8Cd17
_chemical_formula_sum   'Mg16 Cd34'
_cell_volume   1862.66976329
_cell_formula_units_Z   2
loop_
 _symmetry_equiv_pos_site_id
 _symmetry_equiv_pos_as_xyz
  1  'x, y, z'
loop_
 _atom_site_type_symbol
 _atom_site_label
 _atom_site_symmetry_multiplicity
 _atom_site_fract_x
 _atom_site_fract_y
 _atom_site_fract_z
 _atom_site_occupancy
  Mg  Mg0  1  0.25000000  0.98512600  0.76598300  1
  Mg  Mg1  1  0.75000000  0.56249300  0.78163600  1
  Mg  Mg2  1  0.25000000  0.91369700  0.69455400  1
  Mg  Mg3  1  0.75000000  0.49106500  0.71020700  1
  Mg  Mg4  1  0.25000000  0.84226900  0.62312600  1
  Mg  Mg5  1  0.75000000  0.41963600  0.63877900  1
  Mg  Mg6  1  0.25000000  0.77084000  0.55169700  1
  Mg  Mg7  1  0.75000000  0.34820800  0.56735000  1
  Mg  Mg8  1  0.25000000  0.69941200  0.48026900  1
  Mg  Mg9  1  0.75000000  0.27677900  0.49592200  1
  Mg  Mg10  1  0.25000000  0.62798300  0.40884000  1
  Mg  Mg11  1  0.75000000  0.20535000  0.42449300  1
  Mg  Mg12  1  0.25000000  0.55655400  0.33741200  1
  Mg  Mg13  1  0.75000000  0.13392200  0.35306500  1
  Mg  Mg14  1  0.25000000  0.48512600  0.26598300  1
  Mg  Mg15  1  0.75000000  0.06249300  0.28163600  1
  Cd  Cd16  1  0.25000000  0.70050800  0.81356100  1
  Cd  Cd17  1  0.25000000  0.34237100  0.78978900  1
  Cd  Cd18  1  0.75000000  0.20524800  0.75783000  1
  Cd  Cd19  1  0.75000000  0.91853900  0.80548600  1
  Cd  Cd20  1  0.25000000  0.62908000  0.74213300  1
  Cd  Cd21  1  0.25000000  0.27094200  0.71836000  1
  Cd  Cd22  1  0.75000000  0.13382000  0.68640200  1
  Cd  Cd23  1  0.75000000  0.84711100  0.73405800  1
  Cd  Cd24  1  0.25000000  0.55765100  0.67070400  1
  Cd  Cd25  1  0.25000000  0.19951400  0.64693200  1
  Cd  Cd26  1  0.75000000  0.06239100  0.61497300  1
  Cd  Cd27  1  0.75000000  0.77568200  0.66262900  1
  Cd  Cd28  1  0.25000000  0.48622300  0.59927600  1
  Cd  Cd29  1  0.25000000  0.12808500  0.57550300  1
  Cd  Cd30  1  0.75000000  0.99096200  0.54354500  1
  Cd  Cd31  1  0.75000000  0.70425400  0.59120000  1
  Cd  Cd32  1  0.25000000  0.41479400  0.52784700  1
  Cd  Cd33  1  0.25000000  0.05665700  0.50407400  1
  Cd  Cd34  1  0.75000000  0.91953400  0.47211600  1
  Cd  Cd35  1  0.75000000  0.63282500  0.51977200  1
  Cd  Cd36  1  0.25000000  0.34336500  0.45641900  1
  Cd  Cd37  1  0.25000000  0.98522800  0.43264600  1
  Cd  Cd38  1  0.75000000  0.84810500  0.40068700  1
  Cd  Cd39  1  0.75000000  0.56139600  0.44834300  1
  Cd  Cd40  1  0.25000000  0.27193700  0.38499000  1
  Cd  Cd41  1  0.25000000  0.91379900  0.36121700  1
  Cd  Cd42  1  0.75000000  0.77667700  0.32925900  1
  Cd  Cd43  1  0.75000000  0.48996800  0.37691500  1
  Cd  Cd44  1  0.25000000  0.20050800  0.31356100  1
  Cd  Cd45  1  0.25000000  0.84237100  0.28978900  1
  Cd  Cd46  1  0.75000000  0.70524800  0.25783000  1
  Cd  Cd47  1  0.75000000  0.41853900  0.30548600  1
  Cd  Cd48  1  0.25000000  0.12908000  0.24213300  1
  Cd  Cd49  1  0.75000000  0.34711100  0.23405800  1
