# generated using pymatgen
data_Yb2Mg
_symmetry_space_group_name_H-M   'P 1'
_cell_length_a   5.87266200
_cell_length_b   9.47017938
_cell_length_c   44.25669700
_cell_angle_alpha   90.64677827
_cell_angle_beta   90.00000000
_cell_angle_gamma   90.00000000
_symmetry_Int_Tables_number   1
_chemical_formula_structural   Yb2Mg
_chemical_formula_sum   'Yb28 Mg14'
_cell_volume   2461.18657757
_cell_formula_units_Z   14
loop_
 _symmetry_equiv_pos_site_id
 _symmetry_equiv_pos_as_xyz
  1  'x, y, z'
loop_
 _atom_site_type_symbol
 _atom_site_label
 _atom_site_symmetry_multiplicity
 _atom_site_fract_x
 _atom_site_fract_y
 _atom_site_fract_z
 _atom_site_occupancy
  Yb  Yb0  1  0.75000000  0.92691900  0.74230800  1
  Yb  Yb1  1  0.75000000  0.33475400  0.76805400  1
  Yb  Yb2  1  0.25000000  0.57308100  0.75769200  1
  Yb  Yb3  1  0.25000000  0.16524600  0.73194600  1
  Yb  Yb4  1  0.75000000  0.84358600  0.65897500  1
  Yb  Yb5  1  0.75000000  0.25142000  0.68472100  1
  Yb  Yb6  1  0.25000000  0.48974700  0.67435900  1
  Yb  Yb7  1  0.25000000  0.08191300  0.64861200  1
  Yb  Yb8  1  0.75000000  0.76025300  0.57564100  1
  Yb  Yb9  1  0.75000000  0.16808700  0.60138800  1
  Yb  Yb10  1  0.25000000  0.40641400  0.59102500  1
  Yb  Yb11  1  0.25000000  0.99858000  0.56527900  1
  Yb  Yb12  1  0.75000000  0.67691900  0.49230800  1
  Yb  Yb13  1  0.75000000  0.08475400  0.51805400  1
  Yb  Yb14  1  0.25000000  0.32308100  0.50769200  1
  Yb  Yb15  1  0.25000000  0.91524600  0.48194600  1
  Yb  Yb16  1  0.75000000  0.59358600  0.40897500  1
  Yb  Yb17  1  0.75000000  0.00142000  0.43472100  1
  Yb  Yb18  1  0.25000000  0.23974700  0.42435900  1
  Yb  Yb19  1  0.25000000  0.83191300  0.39861200  1
  Yb  Yb20  1  0.75000000  0.51025300  0.32564100  1
  Yb  Yb21  1  0.75000000  0.91808700  0.35138800  1
  Yb  Yb22  1  0.25000000  0.15641400  0.34102500  1
  Yb  Yb23  1  0.25000000  0.74858000  0.31527900  1
  Yb  Yb24  1  0.75000000  0.42691900  0.24230800  1
  Yb  Yb25  1  0.75000000  0.83475400  0.26805400  1
  Yb  Yb26  1  0.25000000  0.07308100  0.25769200  1
  Yb  Yb27  1  0.25000000  0.66524600  0.23194600  1
  Mg  Mg28  1  0.75000000  0.59430600  0.71329100  1
  Mg  Mg29  1  0.25000000  0.90569400  0.78670900  1
  Mg  Mg30  1  0.75000000  0.51097300  0.62995800  1
  Mg  Mg31  1  0.25000000  0.82236100  0.70337600  1
  Mg  Mg32  1  0.75000000  0.42763900  0.54662400  1
  Mg  Mg33  1  0.25000000  0.73902700  0.62004200  1
  Mg  Mg34  1  0.75000000  0.34430600  0.46329100  1
  Mg  Mg35  1  0.25000000  0.65569400  0.53670900  1
  Mg  Mg36  1  0.75000000  0.26097300  0.37995800  1
  Mg  Mg37  1  0.25000000  0.57236100  0.45337600  1
  Mg  Mg38  1  0.75000000  0.17763900  0.29662400  1
  Mg  Mg39  1  0.25000000  0.48902700  0.37004200  1
  Mg  Mg40  1  0.75000000  0.09430600  0.21329100  1
  Mg  Mg41  1  0.25000000  0.40569400  0.28670900  1
