# generated using pymatgen
data_Ce9Mg19
_symmetry_space_group_name_H-M   'P 1'
_cell_length_a   6.10380826
_cell_length_b   9.04803440
_cell_length_c   43.09862600
_cell_angle_alpha   93.06597768
_cell_angle_beta   91.86959958
_cell_angle_gamma   95.28202900
_symmetry_Int_Tables_number   1
_chemical_formula_structural   Ce9Mg19
_chemical_formula_sum   'Ce18 Mg38'
_cell_volume   2365.03990550
_cell_formula_units_Z   2
loop_
 _symmetry_equiv_pos_site_id
 _symmetry_equiv_pos_as_xyz
  1  'x, y, z'
loop_
 _atom_site_type_symbol
 _atom_site_label
 _atom_site_symmetry_multiplicity
 _atom_site_fract_x
 _atom_site_fract_y
 _atom_site_fract_z
 _atom_site_occupancy
  Ce  Ce0  1  0.13769000  0.13843700  0.21596400  1
  Ce  Ce1  1  0.53207200  0.31989600  0.24236900  1
  Ce  Ce2  1  0.88769000  0.20093700  0.27846400  1
  Ce  Ce3  1  0.28207200  0.38239600  0.30486900  1
  Ce  Ce4  1  0.63769000  0.26343700  0.34096400  1
  Ce  Ce5  1  0.03207200  0.44489600  0.36736900  1
  Ce  Ce6  1  0.38769000  0.32593700  0.40346400  1
  Ce  Ce7  1  0.78207200  0.50739600  0.42986900  1
  Ce  Ce8  1  0.13769000  0.38843700  0.46596400  1
  Ce  Ce9  1  0.53207200  0.56989600  0.49236900  1
  Ce  Ce10  1  0.88769000  0.45093700  0.52846400  1
  Ce  Ce11  1  0.28207200  0.63239600  0.55486900  1
  Ce  Ce12  1  0.63769000  0.51343700  0.59096400  1
  Ce  Ce13  1  0.03207200  0.69489600  0.61736900  1
  Ce  Ce14  1  0.38769000  0.57593700  0.65346400  1
  Ce  Ce15  1  0.78207200  0.75739600  0.67986900  1
  Ce  Ce16  1  0.13769000  0.63843700  0.71596400  1
  Ce  Ce17  1  0.53207200  0.81989600  0.74236900  1
  Mg  Mg18  1  0.05377900  0.48812800  0.23694200  1
  Mg  Mg19  1  0.21792800  0.76027900  0.19590500  1
  Mg  Mg20  1  0.70183400  0.63555400  0.19992800  1
  Mg  Mg21  1  0.61598300  0.97020600  0.22139100  1
  Mg  Mg22  1  0.80377900  0.55062800  0.29944200  1
  Mg  Mg23  1  0.96792800  0.82277900  0.25840500  1
  Mg  Mg24  1  0.45183400  0.69805400  0.26242800  1
  Mg  Mg25  1  0.36598300  0.03270600  0.28389100  1
  Mg  Mg26  1  0.55377900  0.61312800  0.36194200  1
  Mg  Mg27  1  0.71792800  0.88527900  0.32090500  1
  Mg  Mg28  1  0.20183400  0.76055400  0.32492800  1
  Mg  Mg29  1  0.11598300  0.09520600  0.34639100  1
  Mg  Mg30  1  0.30377900  0.67562800  0.42444200  1
  Mg  Mg31  1  0.46792800  0.94777900  0.38340500  1
  Mg  Mg32  1  0.95183400  0.82305400  0.38742800  1
  Mg  Mg33  1  0.86598300  0.15770600  0.40889100  1
  Mg  Mg34  1  0.05377900  0.73812800  0.48694200  1
  Mg  Mg35  1  0.21792800  0.01027900  0.44590500  1
  Mg  Mg36  1  0.70183400  0.88555400  0.44992800  1
  Mg  Mg37  1  0.61598300  0.22020600  0.47139100  1
  Mg  Mg38  1  0.80377900  0.80062800  0.54944200  1
  Mg  Mg39  1  0.96792800  0.07277900  0.50840500  1
  Mg  Mg40  1  0.45183400  0.94805400  0.51242800  1
  Mg  Mg41  1  0.36598300  0.28270600  0.53389100  1
  Mg  Mg42  1  0.55377900  0.86312800  0.61194200  1
  Mg  Mg43  1  0.71792800  0.13527900  0.57090500  1
  Mg  Mg44  1  0.20183400  0.01055400  0.57492800  1
  Mg  Mg45  1  0.11598300  0.34520600  0.59639100  1
  Mg  Mg46  1  0.30377900  0.92562800  0.67444200  1
  Mg  Mg47  1  0.46792800  0.19777900  0.63340500  1
  Mg  Mg48  1  0.95183400  0.07305400  0.63742800  1
  Mg  Mg49  1  0.86598300  0.40770600  0.65889100  1
  Mg  Mg50  1  0.05377900  0.98812800  0.73694200  1
  Mg  Mg51  1  0.21792800  0.26027900  0.69590500  1
  Mg  Mg52  1  0.70183400  0.13555400  0.69992800  1
  Mg  Mg53  1  0.61598300  0.47020600  0.72139100  1
  Mg  Mg54  1  0.96792800  0.32277900  0.75840500  1
  Mg  Mg55  1  0.45183400  0.19805400  0.76242800  1
