# generated using pymatgen
data_Mg21Pd37
_symmetry_space_group_name_H-M   'P 1'
_cell_length_a   6.99934446
_cell_length_b   11.53452174
_cell_length_c   42.24661500
_cell_angle_alpha   91.81842266
_cell_angle_beta   85.69593602
_cell_angle_gamma   76.70681611
_symmetry_Int_Tables_number   1
_chemical_formula_structural   Mg21Pd37
_chemical_formula_sum   'Mg42 Pd74'
_cell_volume   3305.77428051
_cell_formula_units_Z   2
loop_
 _symmetry_equiv_pos_site_id
 _symmetry_equiv_pos_as_xyz
  1  'x, y, z'
loop_
 _atom_site_type_symbol
 _atom_site_label
 _atom_site_symmetry_multiplicity
 _atom_site_fract_x
 _atom_site_fract_y
 _atom_site_fract_z
 _atom_site_occupancy
  Mg  Mg0  1  0.46313100  0.39262600  0.29807700  1
  Mg  Mg1  1  0.96313100  0.89262600  0.29807700  1
  Mg  Mg2  1  0.50942900  0.00712200  0.32104700  1
  Mg  Mg3  1  0.41683400  0.77813000  0.27510600  1
  Mg  Mg4  1  0.81109000  0.53191500  0.29625500  1
  Mg  Mg5  1  0.11517200  0.25333800  0.29989900  1
  Mg  Mg6  1  0.07851600  0.31570300  0.37500000  1
  Mg  Mg7  1  0.57851600  0.81570300  0.37500000  1
  Mg  Mg8  1  0.12481400  0.93019900  0.39797100  1
  Mg  Mg9  1  0.03221800  0.70120700  0.35202900  1
  Mg  Mg10  1  0.42647500  0.45499100  0.37317800  1
  Mg  Mg11  1  0.73055700  0.17641500  0.37682200  1
  Mg  Mg12  1  0.69390100  0.23878000  0.45192300  1
  Mg  Mg13  1  0.19390100  0.73878000  0.45192300  1
  Mg  Mg14  1  0.74019800  0.85327600  0.47489400  1
  Mg  Mg15  1  0.64760300  0.62428400  0.42895300  1
  Mg  Mg16  1  0.04186000  0.37806800  0.45010100  1
  Mg  Mg17  1  0.34594200  0.09949200  0.45374500  1
  Mg  Mg18  1  0.30928500  0.16185700  0.52884600  1
  Mg  Mg19  1  0.80928500  0.66185700  0.52884600  1
  Mg  Mg20  1  0.35558300  0.77635300  0.55181700  1
  Mg  Mg21  1  0.26298800  0.54736100  0.50587600  1
  Mg  Mg22  1  0.65724400  0.30114500  0.52702400  1
  Mg  Mg23  1  0.96132600  0.02256900  0.53066800  1
  Mg  Mg24  1  0.92467000  0.08493400  0.60576900  1
  Mg  Mg25  1  0.42467000  0.58493400  0.60576900  1
  Mg  Mg26  1  0.97096800  0.69943000  0.62874000  1
  Mg  Mg27  1  0.87837200  0.47043800  0.58279900  1
  Mg  Mg28  1  0.27262900  0.22422200  0.60394700  1
  Mg  Mg29  1  0.57671100  0.94564600  0.60759100  1
  Mg  Mg30  1  0.54005500  0.00801100  0.68269200  1
  Mg  Mg31  1  0.04005500  0.50801100  0.68269200  1
  Mg  Mg32  1  0.58635200  0.62250700  0.70566300  1
  Mg  Mg33  1  0.49375700  0.39351500  0.65972200  1
  Mg  Mg34  1  0.88801400  0.14729900  0.68087000  1
  Mg  Mg35  1  0.19209600  0.86872300  0.68451400  1
  Mg  Mg36  1  0.15543900  0.93108800  0.75961500  1
  Mg  Mg37  1  0.65543900  0.43108800  0.75961500  1
  Mg  Mg38  1  0.20173700  0.54558400  0.78258600  1
  Mg  Mg39  1  0.10914200  0.31659200  0.73664500  1
  Mg  Mg40  1  0.50339800  0.07037600  0.75779400  1
  Mg  Mg41  1  0.80748000  0.79180000  0.76143700  1
  Pd  Pd42  1  0.80569700  0.31505500  0.26450500  1
  Pd  Pd43  1  0.50518100  0.54712000  0.25472600  1
  Pd  Pd44  1  0.65543900  0.93108800  0.25961500  1
  Pd  Pd45  1  0.15543900  0.43108800  0.25961500  1
  Pd  Pd46  1  0.42108200  0.23813200  0.34142800  1
  Pd  Pd47  1  0.12056600  0.47019700  0.33164900  1
  Pd  Pd48  1  0.70606000  0.76501000  0.31455000  1
  Pd  Pd49  1  0.22020300  0.02024200  0.28160400  1
  Pd  Pd50  1  0.80076900  0.12628000  0.30826100  1
  Pd  Pd51  1  0.12549400  0.65897200  0.28789200  1
  Pd  Pd52  1  0.43792600  0.60913600  0.32540600  1
  Pd  Pd53  1  0.48833700  0.17611700  0.27074800  1
  Pd  Pd54  1  0.27082400  0.85416500  0.33653800  1
  Pd  Pd55  1  0.77082400  0.35416500  0.33653800  1
  Pd  Pd56  1  0.03646600  0.16120900  0.41835100  1
  Pd  Pd57  1  0.73595000  0.39327400  0.40857200  1
  Pd  Pd58  1  0.32144500  0.68808700  0.39147300  1
  Pd  Pd59  1  0.83558700  0.94331900  0.35852700  1
  Pd  Pd60  1  0.41615400  0.04935700  0.38518500  1
  Pd  Pd61  1  0.74087800  0.58204900  0.36481500  1
  Pd  Pd62  1  0.05331000  0.53221300  0.40232900  1
  Pd  Pd63  1  0.10372200  0.09919400  0.34767100  1
  Pd  Pd64  1  0.88620800  0.77724200  0.41346200  1
  Pd  Pd65  1  0.38620800  0.27724200  0.41346200  1
  Pd  Pd66  1  0.65185100  0.08428600  0.49527400  1
  Pd  Pd67  1  0.35133500  0.31635100  0.48549500  1
  Pd  Pd68  1  0.93683000  0.61116400  0.46839600  1
  Pd  Pd69  1  0.45097200  0.86639600  0.43545000  1
  Pd  Pd70  1  0.03153800  0.97243400  0.46210800  1
  Pd  Pd71  1  0.35626300  0.50512600  0.44173900  1
  Pd  Pd72  1  0.66869500  0.45529000  0.47925200  1
  Pd  Pd73  1  0.71910700  0.02227100  0.42459400  1
  Pd  Pd74  1  0.50159300  0.70031900  0.49038500  1
  Pd  Pd75  1  0.00159300  0.20031900  0.49038500  1
  Pd  Pd76  1  0.26723600  0.00736300  0.57219700  1
  Pd  Pd77  1  0.96672000  0.23942800  0.56241800  1
  Pd  Pd78  1  0.55221400  0.53424100  0.54531900  1
  Pd  Pd79  1  0.06635600  0.78947300  0.51237300  1
  Pd  Pd80  1  0.64692300  0.89551100  0.53903100  1
  Pd  Pd81  1  0.97164800  0.42820300  0.51866200  1
  Pd  Pd82  1  0.28408000  0.37836700  0.55617500  1
  Pd  Pd83  1  0.33449100  0.94534800  0.50151700  1
  Pd  Pd84  1  0.11697800  0.62339600  0.56730800  1
  Pd  Pd85  1  0.61697800  0.12339600  0.56730800  1
  Pd  Pd86  1  0.88262000  0.93044000  0.64912000  1
  Pd  Pd87  1  0.58210400  0.16250500  0.63934100  1
  Pd  Pd88  1  0.16759900  0.45731800  0.62224200  1
  Pd  Pd89  1  0.68174100  0.71255000  0.58929600  1
  Pd  Pd90  1  0.26230800  0.81858800  0.61595400  1
  Pd  Pd91  1  0.58703200  0.35128000  0.59558500  1
  Pd  Pd92  1  0.89946400  0.30144300  0.63309800  1
  Pd  Pd93  1  0.94987600  0.86842500  0.57844000  1
  Pd  Pd94  1  0.73236200  0.54647200  0.64423100  1
  Pd  Pd95  1  0.23236200  0.04647200  0.64423100  1
  Pd  Pd96  1  0.49800500  0.85351700  0.72604300  1
  Pd  Pd97  1  0.19748900  0.08558200  0.71626400  1
  Pd  Pd98  1  0.78298300  0.38039500  0.69916600  1
  Pd  Pd99  1  0.29712600  0.63562700  0.66621900  1
  Pd  Pd100  1  0.87769200  0.74166500  0.69287700  1
  Pd  Pd101  1  0.20241700  0.27435700  0.67250800  1
  Pd  Pd102  1  0.51484900  0.22452000  0.71002100  1
  Pd  Pd103  1  0.56526000  0.79150100  0.65536300  1
  Pd  Pd104  1  0.34774700  0.46954900  0.72115400  1
  Pd  Pd105  1  0.84774700  0.96954900  0.72115400  1
  Pd  Pd106  1  0.11339000  0.77659400  0.80296600  1
  Pd  Pd107  1  0.81287300  0.00865900  0.79318800  1
  Pd  Pd108  1  0.39836800  0.30347200  0.77608900  1
  Pd  Pd109  1  0.91251000  0.55870400  0.74314200  1
  Pd  Pd110  1  0.49307700  0.66474200  0.76980000  1
  Pd  Pd111  1  0.81780100  0.19743400  0.74943100  1
  Pd  Pd112  1  0.13023300  0.14759700  0.78694400  1
  Pd  Pd113  1  0.18064500  0.71457800  0.73228600  1
  Pd  Pd114  1  0.96313100  0.39262600  0.79807700  1
  Pd  Pd115  1  0.46313100  0.89262600  0.79807700  1
