# generated using pymatgen
data_Mg12Hg7
_symmetry_space_group_name_H-M   'P 1'
_cell_length_a   6.40514000
_cell_length_b   9.83847238
_cell_length_c   45.98578800
_cell_angle_alpha   84.71414465
_cell_angle_beta   90.00000000
_cell_angle_gamma   90.00000000
_symmetry_Int_Tables_number   1
_chemical_formula_structural   Mg12Hg7
_chemical_formula_sum   'Mg48 Hg28'
_cell_volume   2885.55357962
_cell_formula_units_Z   4
loop_
 _symmetry_equiv_pos_site_id
 _symmetry_equiv_pos_as_xyz
  1  'x, y, z'
loop_
 _atom_site_type_symbol
 _atom_site_label
 _atom_site_symmetry_multiplicity
 _atom_site_fract_x
 _atom_site_fract_y
 _atom_site_fract_z
 _atom_site_occupancy
  Mg  Mg0  1  0.46739600  0.85781700  0.29952600  1
  Mg  Mg1  1  0.53260400  0.41388000  0.30653400  1
  Mg  Mg2  1  0.96739600  0.91388000  0.30653400  1
  Mg  Mg3  1  0.03260400  0.35781700  0.29952600  1
  Mg  Mg4  1  0.67749800  0.15895400  0.27466800  1
  Mg  Mg5  1  0.32250200  0.11274300  0.33139200  1
  Mg  Mg6  1  0.17749800  0.61274300  0.33139200  1
  Mg  Mg7  1  0.82250200  0.65895400  0.27466800  1
  Mg  Mg8  1  0.46739600  0.58509000  0.39043500  1
  Mg  Mg9  1  0.53260400  0.14115300  0.39744300  1
  Mg  Mg10  1  0.96739600  0.64115300  0.39744300  1
  Mg  Mg11  1  0.03260400  0.08509000  0.39043500  1
  Mg  Mg12  1  0.67749800  0.88622700  0.36557800  1
  Mg  Mg13  1  0.32250200  0.84001600  0.42230100  1
  Mg  Mg14  1  0.17749800  0.34001600  0.42230100  1
  Mg  Mg15  1  0.82250200  0.38622700  0.36557800  1
  Mg  Mg16  1  0.46739600  0.31236300  0.48134500  1
  Mg  Mg17  1  0.53260400  0.86842600  0.48835200  1
  Mg  Mg18  1  0.96739600  0.36842600  0.48835200  1
  Mg  Mg19  1  0.03260400  0.81236300  0.48134500  1
  Mg  Mg20  1  0.67749800  0.61350000  0.45648700  1
  Mg  Mg21  1  0.32250200  0.56728900  0.51321000  1
  Mg  Mg22  1  0.17749800  0.06728900  0.51321000  1
  Mg  Mg23  1  0.82250200  0.11350000  0.45648700  1
  Mg  Mg24  1  0.46739600  0.03963600  0.57225400  1
  Mg  Mg25  1  0.53260400  0.59569800  0.57926100  1
  Mg  Mg26  1  0.96739600  0.09569800  0.57926100  1
  Mg  Mg27  1  0.03260400  0.53963600  0.57225400  1
  Mg  Mg28  1  0.67749800  0.34077200  0.54739600  1
  Mg  Mg29  1  0.32250200  0.29456200  0.60411900  1
  Mg  Mg30  1  0.17749800  0.79456200  0.60411900  1
  Mg  Mg31  1  0.82250200  0.84077200  0.54739600  1
  Mg  Mg32  1  0.46739600  0.76690800  0.66316300  1
  Mg  Mg33  1  0.53260400  0.32297100  0.67017100  1
  Mg  Mg34  1  0.96739600  0.82297100  0.67017100  1
  Mg  Mg35  1  0.03260400  0.26690800  0.66316300  1
  Mg  Mg36  1  0.67749800  0.06804500  0.63830500  1
  Mg  Mg37  1  0.32250200  0.02183400  0.69502800  1
  Mg  Mg38  1  0.17749800  0.52183400  0.69502800  1
  Mg  Mg39  1  0.82250200  0.56804500  0.63830500  1
  Mg  Mg40  1  0.46739600  0.49418100  0.75407200  1
  Mg  Mg41  1  0.53260400  0.05024400  0.76108000  1
  Mg  Mg42  1  0.96739600  0.55024400  0.76108000  1
  Mg  Mg43  1  0.03260400  0.99418100  0.75407200  1
  Mg  Mg44  1  0.67749800  0.79531800  0.72921400  1
  Mg  Mg45  1  0.32250200  0.74910700  0.78593800  1
  Mg  Mg46  1  0.17749800  0.24910700  0.78593800  1
  Mg  Mg47  1  0.82250200  0.29531800  0.72921400  1
  Hg  Hg48  1  0.27973800  0.62514900  0.27044300  1
  Hg  Hg49  1  0.72026200  0.91927600  0.24470900  1
  Hg  Hg50  1  0.77973800  0.41927600  0.24470900  1
  Hg  Hg51  1  0.22026200  0.12514900  0.27044300  1
  Hg  Hg52  1  0.27973800  0.35242200  0.36135200  1
  Hg  Hg53  1  0.72026200  0.64654800  0.33561800  1
  Hg  Hg54  1  0.77973800  0.14654800  0.33561800  1
  Hg  Hg55  1  0.22026200  0.85242200  0.36135200  1
  Hg  Hg56  1  0.27973800  0.07969500  0.45226100  1
  Hg  Hg57  1  0.72026200  0.37382100  0.42652700  1
  Hg  Hg58  1  0.77973800  0.87382100  0.42652700  1
  Hg  Hg59  1  0.22026200  0.57969500  0.45226100  1
  Hg  Hg60  1  0.27973800  0.80696700  0.54317000  1
  Hg  Hg61  1  0.72026200  0.10109400  0.51743600  1
  Hg  Hg62  1  0.77973800  0.60109400  0.51743600  1
  Hg  Hg63  1  0.22026200  0.30696700  0.54317000  1
  Hg  Hg64  1  0.27973800  0.53424000  0.63407900  1
  Hg  Hg65  1  0.72026200  0.82836700  0.60834500  1
  Hg  Hg66  1  0.77973800  0.32836700  0.60834500  1
  Hg  Hg67  1  0.22026200  0.03424000  0.63407900  1
  Hg  Hg68  1  0.27973800  0.26151300  0.72498800  1
  Hg  Hg69  1  0.72026200  0.55563900  0.69925400  1
  Hg  Hg70  1  0.77973800  0.05563900  0.69925400  1
  Hg  Hg71  1  0.22026200  0.76151300  0.72498800  1
  Hg  Hg72  1  0.27973800  0.98878600  0.81589700  1
  Hg  Hg73  1  0.72026200  0.28291200  0.79016300  1
  Hg  Hg74  1  0.77973800  0.78291200  0.79016300  1
  Hg  Hg75  1  0.22026200  0.48878600  0.81589700  1
