# generated using pymatgen
data_MgZn
_symmetry_space_group_name_H-M   'P 1'
_cell_length_a   4.80385400
_cell_length_b   5.65220441
_cell_length_c   42.71622000
_cell_angle_alpha   92.67334830
_cell_angle_beta   90.00000000
_cell_angle_gamma   90.00000000
_symmetry_Int_Tables_number   1
_chemical_formula_structural   MgZn
_chemical_formula_sum   'Mg20 Zn20'
_cell_volume   1158.58410216
_cell_formula_units_Z   20
loop_
 _symmetry_equiv_pos_site_id
 _symmetry_equiv_pos_as_xyz
  1  'x, y, z'
loop_
 _atom_site_type_symbol
 _atom_site_label
 _atom_site_symmetry_multiplicity
 _atom_site_fract_x
 _atom_site_fract_y
 _atom_site_fract_z
 _atom_site_occupancy
  Mg  Mg0  1  0.79101000  0.01562500  0.23437500  1
  Mg  Mg1  1  0.20899000  0.67187500  0.20312500  1
  Mg  Mg2  1  0.79101000  0.70312500  0.29687500  1
  Mg  Mg3  1  0.20899000  0.35937500  0.26562500  1
  Mg  Mg4  1  0.79101000  0.39062500  0.35937500  1
  Mg  Mg5  1  0.20899000  0.04687500  0.32812500  1
  Mg  Mg6  1  0.79101000  0.07812500  0.42187500  1
  Mg  Mg7  1  0.20899000  0.73437500  0.39062500  1
  Mg  Mg8  1  0.79101000  0.76562500  0.48437500  1
  Mg  Mg9  1  0.20899000  0.42187500  0.45312500  1
  Mg  Mg10  1  0.79101000  0.45312500  0.54687500  1
  Mg  Mg11  1  0.20899000  0.10937500  0.51562500  1
  Mg  Mg12  1  0.79101000  0.14062500  0.60937500  1
  Mg  Mg13  1  0.20899000  0.79687500  0.57812500  1
  Mg  Mg14  1  0.79101000  0.82812500  0.67187500  1
  Mg  Mg15  1  0.20899000  0.48437500  0.64062500  1
  Mg  Mg16  1  0.79101000  0.51562500  0.73437500  1
  Mg  Mg17  1  0.20899000  0.17187500  0.70312500  1
  Mg  Mg18  1  0.79101000  0.20312500  0.79687500  1
  Mg  Mg19  1  0.20899000  0.85937500  0.76562500  1
  Zn  Zn20  1  0.30810600  0.17187500  0.20312500  1
  Zn  Zn21  1  0.69189400  0.51562500  0.23437500  1
  Zn  Zn22  1  0.30810600  0.85937500  0.26562500  1
  Zn  Zn23  1  0.69189400  0.20312500  0.29687500  1
  Zn  Zn24  1  0.30810600  0.54687500  0.32812500  1
  Zn  Zn25  1  0.69189400  0.89062500  0.35937500  1
  Zn  Zn26  1  0.30810600  0.23437500  0.39062500  1
  Zn  Zn27  1  0.69189400  0.57812500  0.42187500  1
  Zn  Zn28  1  0.30810600  0.92187500  0.45312500  1
  Zn  Zn29  1  0.69189400  0.26562500  0.48437500  1
  Zn  Zn30  1  0.30810600  0.60937500  0.51562500  1
  Zn  Zn31  1  0.69189400  0.95312500  0.54687500  1
  Zn  Zn32  1  0.30810600  0.29687500  0.57812500  1
  Zn  Zn33  1  0.69189400  0.64062500  0.60937500  1
  Zn  Zn34  1  0.30810600  0.98437500  0.64062500  1
  Zn  Zn35  1  0.69189400  0.32812500  0.67187500  1
  Zn  Zn36  1  0.30810600  0.67187500  0.70312500  1
  Zn  Zn37  1  0.69189400  0.01562500  0.73437500  1
  Zn  Zn38  1  0.30810600  0.35937500  0.76562500  1
  Zn  Zn39  1  0.69189400  0.70312500  0.79687500  1
