# generated using pymatgen
data_Mg34Zn59
_symmetry_space_group_name_H-M   'P 1'
_cell_length_a   15.05205970
_cell_length_b   15.53344962
_cell_length_c   44.08704400
_cell_angle_alpha   96.16286714
_cell_angle_beta   84.01794547
_cell_angle_gamma   68.44884142
_symmetry_Int_Tables_number   1
_chemical_formula_structural   Mg34Zn59
_chemical_formula_sum   'Mg102 Zn177'
_cell_volume   9416.24976546
_cell_formula_units_Z   3
loop_
 _symmetry_equiv_pos_site_id
 _symmetry_equiv_pos_as_xyz
  1  'x, y, z'
loop_
 _atom_site_type_symbol
 _atom_site_label
 _atom_site_symmetry_multiplicity
 _atom_site_fract_x
 _atom_site_fract_y
 _atom_site_fract_z
 _atom_site_occupancy
  Mg  Mg0  1  0.81524400  0.52016500  0.29607400  1
  Mg  Mg1  1  0.37875200  0.67383200  0.29665300  1
  Mg  Mg2  1  0.92350500  0.27468000  0.37386500  1
  Mg  Mg3  1  0.17678200  0.39412200  0.30691200  1
  Mg  Mg4  1  0.80099700  0.83890000  0.39058200  1
  Mg  Mg5  1  0.99414200  0.15385000  0.30963400  1
  Mg  Mg6  1  0.13120900  0.55973600  0.36125600  1
  Mg  Mg7  1  0.68605300  0.08624800  0.31366700  1
  Mg  Mg8  1  0.91524400  0.62016500  0.39607400  1
  Mg  Mg9  1  0.29985500  0.14014600  0.38309400  1
  Mg  Mg10  1  0.81139400  0.49184600  0.36739600  1
  Mg  Mg11  1  0.16278800  0.73426100  0.33147200  1
  Mg  Mg12  1  0.49300000  0.45509700  0.30214500  1
  Mg  Mg13  1  0.48260300  0.80215100  0.32533200  1
  Mg  Mg14  1  0.14891700  0.23039600  0.33467300  1
  Mg  Mg15  1  0.80144200  0.86867500  0.31921100  1
  Mg  Mg16  1  0.49255400  0.42532200  0.37351600  1
  Mg  Mg17  1  0.47875200  0.77383200  0.39665300  1
  Mg  Mg18  1  0.37049200  0.01931700  0.31886200  1
  Mg  Mg19  1  0.60794400  0.20774900  0.37906000  1
  Mg  Mg20  1  0.11721500  0.89987500  0.38581500  1
  Mg  Mg21  1  0.14508000  0.06360000  0.35805400  1
  Mg  Mg22  1  0.02350500  0.37468000  0.47386500  1
  Mg  Mg23  1  0.27678200  0.49412200  0.40691200  1
  Mg  Mg24  1  0.90099700  0.93890000  0.49058200  1
  Mg  Mg25  1  0.09414200  0.25385000  0.40963400  1
  Mg  Mg26  1  0.23120900  0.65973600  0.46125600  1
  Mg  Mg27  1  0.78605300  0.18624800  0.41366700  1
  Mg  Mg28  1  0.01524400  0.72016500  0.49607400  1
  Mg  Mg29  1  0.39985500  0.24014600  0.48309400  1
  Mg  Mg30  1  0.91139400  0.59184600  0.46739600  1
  Mg  Mg31  1  0.26278800  0.83426100  0.43147200  1
  Mg  Mg32  1  0.59300000  0.55509700  0.40214500  1
  Mg  Mg33  1  0.58260300  0.90215100  0.42533200  1
  Mg  Mg34  1  0.24891700  0.33039600  0.43467300  1
  Mg  Mg35  1  0.90144200  0.96867500  0.41921100  1
  Mg  Mg36  1  0.59255400  0.52532200  0.47351600  1
  Mg  Mg37  1  0.57875200  0.87383200  0.49665300  1
  Mg  Mg38  1  0.47049200  0.11931700  0.41886200  1
  Mg  Mg39  1  0.70794400  0.30774900  0.47906000  1
  Mg  Mg40  1  0.21721500  0.99987500  0.48581500  1
  Mg  Mg41  1  0.24508000  0.16360000  0.45805400  1
  Mg  Mg42  1  0.12350500  0.47468000  0.57386500  1
  Mg  Mg43  1  0.37678200  0.59412200  0.50691200  1
  Mg  Mg44  1  0.00099700  0.03890000  0.59058200  1
  Mg  Mg45  1  0.19414200  0.35385000  0.50963400  1
  Mg  Mg46  1  0.33120900  0.75973600  0.56125600  1
  Mg  Mg47  1  0.88605300  0.28624800  0.51366700  1
  Mg  Mg48  1  0.11524400  0.82016500  0.59607400  1
  Mg  Mg49  1  0.49985500  0.34014600  0.58309400  1
  Mg  Mg50  1  0.01139400  0.69184600  0.56739600  1
  Mg  Mg51  1  0.36278800  0.93426100  0.53147200  1
  Mg  Mg52  1  0.69300000  0.65509700  0.50214500  1
  Mg  Mg53  1  0.68260300  0.00215100  0.52533200  1
  Mg  Mg54  1  0.34891700  0.43039600  0.53467300  1
  Mg  Mg55  1  0.00144200  0.06867500  0.51921100  1
  Mg  Mg56  1  0.69255400  0.62532200  0.57351600  1
  Mg  Mg57  1  0.67875200  0.97383200  0.59665300  1
  Mg  Mg58  1  0.57049200  0.21931700  0.51886200  1
  Mg  Mg59  1  0.80794400  0.40774900  0.57906000  1
  Mg  Mg60  1  0.31721500  0.09987500  0.58581500  1
  Mg  Mg61  1  0.34508000  0.26360000  0.55805400  1
  Mg  Mg62  1  0.22350500  0.57468000  0.67386500  1
  Mg  Mg63  1  0.47678200  0.69412200  0.60691200  1
  Mg  Mg64  1  0.10099700  0.13890000  0.69058200  1
  Mg  Mg65  1  0.29414200  0.45385000  0.60963400  1
  Mg  Mg66  1  0.43120900  0.85973600  0.66125600  1
  Mg  Mg67  1  0.98605300  0.38624800  0.61366700  1
  Mg  Mg68  1  0.21524400  0.92016500  0.69607400  1
  Mg  Mg69  1  0.59985500  0.44014600  0.68309400  1
  Mg  Mg70  1  0.11139400  0.79184600  0.66739600  1
  Mg  Mg71  1  0.46278800  0.03426100  0.63147200  1
  Mg  Mg72  1  0.79300000  0.75509700  0.60214500  1
  Mg  Mg73  1  0.78260300  0.10215100  0.62533200  1
  Mg  Mg74  1  0.44891700  0.53039600  0.63467300  1
  Mg  Mg75  1  0.10144200  0.16867500  0.61921100  1
  Mg  Mg76  1  0.79255400  0.72532200  0.67351600  1
  Mg  Mg77  1  0.77875200  0.07383200  0.69665300  1
  Mg  Mg78  1  0.67049200  0.31931700  0.61886200  1
  Mg  Mg79  1  0.90794400  0.50774900  0.67906000  1
  Mg  Mg80  1  0.41721500  0.19987500  0.68581500  1
  Mg  Mg81  1  0.44508000  0.36360000  0.65805400  1
  Mg  Mg82  1  0.32350500  0.67468000  0.77386500  1
  Mg  Mg83  1  0.57678200  0.79412200  0.70691200  1
  Mg  Mg84  1  0.20099700  0.23890000  0.79058200  1
  Mg  Mg85  1  0.39414200  0.55385000  0.70963400  1
  Mg  Mg86  1  0.53120900  0.95973600  0.76125600  1
  Mg  Mg87  1  0.08605300  0.48624800  0.71366700  1
  Mg  Mg88  1  0.31524400  0.02016500  0.79607400  1
  Mg  Mg89  1  0.69985500  0.54014600  0.78309400  1
  Mg  Mg90  1  0.21139400  0.89184600  0.76739600  1
  Mg  Mg91  1  0.56278800  0.13426100  0.73147200  1
  Mg  Mg92  1  0.89300000  0.85509700  0.70214500  1
  Mg  Mg93  1  0.88260300  0.20215100  0.72533200  1
  Mg  Mg94  1  0.54891700  0.63039600  0.73467300  1
  Mg  Mg95  1  0.20144200  0.26867500  0.71921100  1
  Mg  Mg96  1  0.89255400  0.82532200  0.77351600  1
  Mg  Mg97  1  0.87875200  0.17383200  0.79665300  1
  Mg  Mg98  1  0.77049200  0.41931700  0.71886200  1
  Mg  Mg99  1  0.00794400  0.60774900  0.77906000  1
  Mg  Mg100  1  0.51721500  0.29987500  0.78581500  1
  Mg  Mg101  1  0.54508000  0.46360000  0.75805400  1
  Zn  Zn102  1  0.59699800  0.59699800  0.29636400  1
  Zn  Zn103  1  0.09699800  0.59699800  0.29636400  1
  Zn  Zn104  1  0.97764200  0.53614700  0.32780200  1
  Zn  Zn105  1  0.20905800  0.35591300  0.37266600  1
  Zn  Zn106  1  0.65018500  0.47374400  0.33596200  1
  Zn  Zn107  1  0.31979100  0.92674800  0.37442400  1
  Zn  Zn108  1  0.33097100  0.57564200  0.35177100  1
  Zn  Zn109  1  0.02720700  0.41737700  0.36721100  1
  Zn  Zn110  1  0.69699800  0.69699800  0.39636400  1
  Zn  Zn111  1  0.31635500  0.75785000  0.36492600  1
  Zn  Zn112  1  0.50209200  0.26421800  0.32649000  1
  Zn  Zn113  1  0.01205300  0.76787300  0.39036100  1
  Zn  Zn114  1  0.65534800  0.29999800  0.32383900  1
  Zn  Zn115  1  0.80322100  0.18121200  0.34377400  1
  Zn  Zn116  1  0.80718000  0.67784000  0.34360400  1
  Zn  Zn117  1  0.96180800  0.88536600  0.35235400  1
  Zn  Zn118  1  0.08493900  0.93808400  0.32006100  1
  Zn  Zn119  1  0.79190500  0.02977900  0.36623800  1
  Zn  Zn120  1  0.95293100  0.06497800  0.36400000  1
  Zn  Zn121  1  0.28194400  0.52612400  0.30236700  1
  Zn  Zn122  1  0.26679000  0.87662000  0.32551600  1
  Zn  Zn123  1  0.48681700  0.61615700  0.34912300  1
  Zn  Zn124  1  0.34106500  0.22901900  0.32872700  1
  Zn  Zn125  1  0.96302600  0.71835500  0.34095600  1
  Zn  Zn126  1  0.64699800  0.64699800  0.34636400  1
  Zn  Zn127  1  0.81745300  0.33579100  0.31969400  1
  Zn  Zn128  1  0.70452700  0.35015700  0.37452400  1
  Zn  Zn129  1  0.90365500  0.01487800  0.31208200  1
  Zn  Zn130  1  0.47654300  0.95820600  0.37303400  1
  Zn  Zn131  1  0.39034200  0.27911900  0.38064500  1
  Zn  Zn132  1  0.33218900  0.40863100  0.34037300  1
  Zn  Zn133  1  0.58947000  0.94384000  0.31820300  1
  Zn  Zn134  1  0.97420600  0.36724900  0.31830300  1
  Zn  Zn135  1  0.19699800  0.69699800  0.39636400  1
  Zn  Zn136  1  0.63864900  0.99399900  0.36888800  1
  Zn  Zn137  1  0.49077600  0.11278400  0.34895300  1
  Zn  Zn138  1  0.64381200  0.82025300  0.35676500  1
  Zn  Zn139  1  0.07764200  0.63614700  0.42780200  1
  Zn  Zn140  1  0.30905800  0.45591300  0.47266600  1
  Zn  Zn141  1  0.75018500  0.57374400  0.43596200  1
  Zn  Zn142  1  0.41979100  0.02674800  0.47442400  1
  Zn  Zn143  1  0.43097100  0.67564200  0.45177100  1
  Zn  Zn144  1  0.12720700  0.51737700  0.46721100  1
  Zn  Zn145  1  0.79699800  0.79699800  0.49636400  1
  Zn  Zn146  1  0.41635500  0.85785000  0.46492600  1
  Zn  Zn147  1  0.60209200  0.36421800  0.42649000  1
  Zn  Zn148  1  0.11205300  0.86787300  0.49036100  1
  Zn  Zn149  1  0.75534800  0.39999800  0.42383900  1
  Zn  Zn150  1  0.90322100  0.28121200  0.44377400  1
  Zn  Zn151  1  0.90718000  0.77784000  0.44360400  1
  Zn  Zn152  1  0.06180800  0.98536600  0.45235400  1
  Zn  Zn153  1  0.18493900  0.03808400  0.42006100  1
  Zn  Zn154  1  0.89190500  0.12977900  0.46623800  1
  Zn  Zn155  1  0.05293100  0.16497800  0.46400000  1
  Zn  Zn156  1  0.38194400  0.62612400  0.40236700  1
  Zn  Zn157  1  0.36679000  0.97662000  0.42551600  1
  Zn  Zn158  1  0.58681700  0.71615700  0.44912300  1
  Zn  Zn159  1  0.44106500  0.32901900  0.42872700  1
  Zn  Zn160  1  0.06302600  0.81835500  0.44095600  1
  Zn  Zn161  1  0.74699800  0.74699800  0.44636400  1
  Zn  Zn162  1  0.91745300  0.43579100  0.41969400  1
  Zn  Zn163  1  0.80452700  0.45015700  0.47452400  1
  Zn  Zn164  1  0.00365500  0.11487800  0.41208200  1
  Zn  Zn165  1  0.57654300  0.05820600  0.47303400  1
  Zn  Zn166  1  0.49034200  0.37911900  0.48064500  1
  Zn  Zn167  1  0.43218900  0.50863100  0.44037300  1
  Zn  Zn168  1  0.68947000  0.04384000  0.41820300  1
  Zn  Zn169  1  0.07420600  0.46724900  0.41830300  1
  Zn  Zn170  1  0.29699800  0.79699800  0.49636400  1
  Zn  Zn171  1  0.73864900  0.09399900  0.46888800  1
  Zn  Zn172  1  0.59077600  0.21278400  0.44895300  1
  Zn  Zn173  1  0.74381200  0.92025300  0.45676500  1
  Zn  Zn174  1  0.17764200  0.73614700  0.52780200  1
  Zn  Zn175  1  0.40905800  0.55591300  0.57266600  1
  Zn  Zn176  1  0.85018500  0.67374400  0.53596200  1
  Zn  Zn177  1  0.51979100  0.12674800  0.57442400  1
  Zn  Zn178  1  0.53097100  0.77564200  0.55177100  1
  Zn  Zn179  1  0.22720700  0.61737700  0.56721100  1
  Zn  Zn180  1  0.89699800  0.89699800  0.59636400  1
  Zn  Zn181  1  0.51635500  0.95785000  0.56492600  1
  Zn  Zn182  1  0.70209200  0.46421800  0.52649000  1
  Zn  Zn183  1  0.21205300  0.96787300  0.59036100  1
  Zn  Zn184  1  0.85534800  0.49999800  0.52383900  1
  Zn  Zn185  1  0.00322100  0.38121200  0.54377400  1
  Zn  Zn186  1  0.00718000  0.87784000  0.54360400  1
  Zn  Zn187  1  0.16180800  0.08536600  0.55235400  1
  Zn  Zn188  1  0.28493900  0.13808400  0.52006100  1
  Zn  Zn189  1  0.99190500  0.22977900  0.56623800  1
  Zn  Zn190  1  0.15293100  0.26497800  0.56400000  1
  Zn  Zn191  1  0.48194400  0.72612400  0.50236700  1
  Zn  Zn192  1  0.46679000  0.07662000  0.52551600  1
  Zn  Zn193  1  0.68681700  0.81615700  0.54912300  1
  Zn  Zn194  1  0.54106500  0.42901900  0.52872700  1
  Zn  Zn195  1  0.16302600  0.91835500  0.54095600  1
  Zn  Zn196  1  0.84699800  0.84699800  0.54636400  1
  Zn  Zn197  1  0.01745300  0.53579100  0.51969400  1
  Zn  Zn198  1  0.90452700  0.55015700  0.57452400  1
  Zn  Zn199  1  0.10365500  0.21487800  0.51208200  1
  Zn  Zn200  1  0.67654300  0.15820600  0.57303400  1
  Zn  Zn201  1  0.59034200  0.47911900  0.58064500  1
  Zn  Zn202  1  0.53218900  0.60863100  0.54037300  1
  Zn  Zn203  1  0.78947000  0.14384000  0.51820300  1
  Zn  Zn204  1  0.17420600  0.56724900  0.51830300  1
  Zn  Zn205  1  0.39699800  0.89699800  0.59636400  1
  Zn  Zn206  1  0.83864900  0.19399900  0.56888800  1
  Zn  Zn207  1  0.69077600  0.31278400  0.54895300  1
  Zn  Zn208  1  0.84381200  0.02025300  0.55676500  1
  Zn  Zn209  1  0.27764200  0.83614700  0.62780200  1
  Zn  Zn210  1  0.50905800  0.65591300  0.67266600  1
  Zn  Zn211  1  0.95018500  0.77374400  0.63596200  1
  Zn  Zn212  1  0.61979100  0.22674800  0.67442400  1
  Zn  Zn213  1  0.63097100  0.87564200  0.65177100  1
  Zn  Zn214  1  0.32720700  0.71737700  0.66721100  1
  Zn  Zn215  1  0.99699800  0.99699800  0.69636400  1
  Zn  Zn216  1  0.61635500  0.05785000  0.66492600  1
  Zn  Zn217  1  0.80209200  0.56421800  0.62649000  1
  Zn  Zn218  1  0.31205300  0.06787300  0.69036100  1
  Zn  Zn219  1  0.95534800  0.59999800  0.62383900  1
  Zn  Zn220  1  0.10322100  0.48121200  0.64377400  1
  Zn  Zn221  1  0.10718000  0.97784000  0.64360400  1
  Zn  Zn222  1  0.26180800  0.18536600  0.65235400  1
  Zn  Zn223  1  0.38493900  0.23808400  0.62006100  1
  Zn  Zn224  1  0.09190500  0.32977900  0.66623800  1
  Zn  Zn225  1  0.25293100  0.36497800  0.66400000  1
  Zn  Zn226  1  0.58194400  0.82612400  0.60236700  1
  Zn  Zn227  1  0.56679000  0.17662000  0.62551600  1
  Zn  Zn228  1  0.78681700  0.91615700  0.64912300  1
  Zn  Zn229  1  0.64106500  0.52901900  0.62872700  1
  Zn  Zn230  1  0.26302600  0.01835500  0.64095600  1
  Zn  Zn231  1  0.94699800  0.94699800  0.64636400  1
  Zn  Zn232  1  0.11745300  0.63579100  0.61969400  1
  Zn  Zn233  1  0.00452700  0.65015700  0.67452400  1
  Zn  Zn234  1  0.20365500  0.31487800  0.61208200  1
  Zn  Zn235  1  0.77654300  0.25820600  0.67303400  1
  Zn  Zn236  1  0.69034200  0.57911900  0.68064500  1
  Zn  Zn237  1  0.63218900  0.70863100  0.64037300  1
  Zn  Zn238  1  0.88947000  0.24384000  0.61820300  1
  Zn  Zn239  1  0.27420600  0.66724900  0.61830300  1
  Zn  Zn240  1  0.49699800  0.99699800  0.69636400  1
  Zn  Zn241  1  0.93864900  0.29399900  0.66888800  1
  Zn  Zn242  1  0.79077600  0.41278400  0.64895300  1
  Zn  Zn243  1  0.94381200  0.12025300  0.65676500  1
  Zn  Zn244  1  0.37764200  0.93614700  0.72780200  1
  Zn  Zn245  1  0.60905800  0.75591300  0.77266600  1
  Zn  Zn246  1  0.05018500  0.87374400  0.73596200  1
  Zn  Zn247  1  0.71979100  0.32674800  0.77442400  1
  Zn  Zn248  1  0.73097100  0.97564200  0.75177100  1
  Zn  Zn249  1  0.42720700  0.81737700  0.76721100  1
  Zn  Zn250  1  0.09699800  0.09699800  0.79636400  1
  Zn  Zn251  1  0.71635500  0.15785000  0.76492600  1
  Zn  Zn252  1  0.90209200  0.66421800  0.72649000  1
  Zn  Zn253  1  0.41205300  0.16787300  0.79036100  1
  Zn  Zn254  1  0.05534800  0.69999800  0.72383900  1
  Zn  Zn255  1  0.20322100  0.58121200  0.74377400  1
  Zn  Zn256  1  0.20718000  0.07784000  0.74360400  1
  Zn  Zn257  1  0.36180800  0.28536600  0.75235400  1
  Zn  Zn258  1  0.48493900  0.33808400  0.72006100  1
  Zn  Zn259  1  0.19190500  0.42977900  0.76623800  1
  Zn  Zn260  1  0.35293100  0.46497800  0.76400000  1
  Zn  Zn261  1  0.68194400  0.92612400  0.70236700  1
  Zn  Zn262  1  0.66679000  0.27662000  0.72551600  1
  Zn  Zn263  1  0.88681700  0.01615700  0.74912300  1
  Zn  Zn264  1  0.74106500  0.62901900  0.72872700  1
  Zn  Zn265  1  0.36302600  0.11835500  0.74095600  1
  Zn  Zn266  1  0.04699800  0.04699800  0.74636400  1
  Zn  Zn267  1  0.21745300  0.73579100  0.71969400  1
  Zn  Zn268  1  0.10452700  0.75015700  0.77452400  1
  Zn  Zn269  1  0.30365500  0.41487800  0.71208200  1
  Zn  Zn270  1  0.87654300  0.35820600  0.77303400  1
  Zn  Zn271  1  0.79034200  0.67911900  0.78064500  1
  Zn  Zn272  1  0.73218900  0.80863100  0.74037300  1
  Zn  Zn273  1  0.98947000  0.34384000  0.71820300  1
  Zn  Zn274  1  0.37420600  0.76724900  0.71830300  1
  Zn  Zn275  1  0.59699800  0.09699800  0.79636400  1
  Zn  Zn276  1  0.03864900  0.39399900  0.76888800  1
  Zn  Zn277  1  0.89077600  0.51278400  0.74895300  1
  Zn  Zn278  1  0.04381200  0.22025300  0.75676500  1
