# generated using pymatgen
data_Lu13Mg5
_symmetry_space_group_name_H-M   'P 1'
_cell_length_a   5.47453400
_cell_length_b   6.87894400
_cell_length_c   47.65872100
_cell_angle_alpha   90.00000000
_cell_angle_beta   90.00000000
_cell_angle_gamma   90.00000000
_symmetry_Int_Tables_number   1
_chemical_formula_structural   Lu13Mg5
_chemical_formula_sum   'Lu26 Mg10'
_cell_volume   1794.78038475
_cell_formula_units_Z   2
loop_
 _symmetry_equiv_pos_site_id
 _symmetry_equiv_pos_as_xyz
  1  'x, y, z'
loop_
 _atom_site_type_symbol
 _atom_site_label
 _atom_site_symmetry_multiplicity
 _atom_site_fract_x
 _atom_site_fract_y
 _atom_site_fract_z
 _atom_site_occupancy
  Lu  Lu0  1  0.75000000  0.12525300  0.19817000  1
  Lu  Lu1  1  0.75000000  0.37373300  0.26029000  1
  Lu  Lu2  1  0.75000000  0.87677300  0.26029000  1
  Lu  Lu3  1  0.25000000  0.37373300  0.30221000  1
  Lu  Lu4  1  0.25000000  0.87677300  0.30221000  1
  Lu  Lu5  1  0.25000000  0.62525300  0.23933000  1
  Lu  Lu6  1  0.75000000  0.62525300  0.32317000  1
  Lu  Lu7  1  0.75000000  0.87373300  0.38529000  1
  Lu  Lu8  1  0.75000000  0.37677300  0.38529000  1
  Lu  Lu9  1  0.25000000  0.87373300  0.42721000  1
  Lu  Lu10  1  0.25000000  0.37677300  0.42721000  1
  Lu  Lu11  1  0.25000000  0.12525300  0.36433000  1
  Lu  Lu12  1  0.75000000  0.12525300  0.44817000  1
  Lu  Lu13  1  0.75000000  0.37373300  0.51029000  1
  Lu  Lu14  1  0.75000000  0.87677300  0.51029000  1
  Lu  Lu15  1  0.25000000  0.37373300  0.55221000  1
  Lu  Lu16  1  0.25000000  0.87677300  0.55221000  1
  Lu  Lu17  1  0.25000000  0.62525300  0.48933000  1
  Lu  Lu18  1  0.75000000  0.62525300  0.57317000  1
  Lu  Lu19  1  0.75000000  0.87373300  0.63529000  1
  Lu  Lu20  1  0.75000000  0.37677300  0.63529000  1
  Lu  Lu21  1  0.25000000  0.87373300  0.67721000  1
  Lu  Lu22  1  0.25000000  0.37677300  0.67721000  1
  Lu  Lu23  1  0.25000000  0.12525300  0.61433000  1
  Lu  Lu24  1  0.75000000  0.12525300  0.69817000  1
  Lu  Lu25  1  0.25000000  0.62525300  0.73933000  1
  Mg  Mg26  1  0.75000000  0.62525300  0.19791700  1
  Mg  Mg27  1  0.25000000  0.12525300  0.23958300  1
  Mg  Mg28  1  0.75000000  0.12525300  0.32291700  1
  Mg  Mg29  1  0.25000000  0.62525300  0.36458300  1
  Mg  Mg30  1  0.75000000  0.62525300  0.44791700  1
  Mg  Mg31  1  0.25000000  0.12525300  0.48958300  1
  Mg  Mg32  1  0.75000000  0.12525300  0.57291700  1
  Mg  Mg33  1  0.25000000  0.62525300  0.61458300  1
  Mg  Mg34  1  0.75000000  0.62525300  0.69791700  1
  Mg  Mg35  1  0.25000000  0.12525300  0.73958300  1
