# generated using pymatgen
data_Ho19Mg9
_symmetry_space_group_name_H-M   'P 1'
_cell_length_a   3.67361200
_cell_length_b   17.91934624
_cell_length_c   41.80471200
_cell_angle_alpha   96.38806847
_cell_angle_beta   90.00000000
_cell_angle_gamma   90.00000000
_symmetry_Int_Tables_number   1
_chemical_formula_structural   Ho19Mg9
_chemical_formula_sum   'Ho38 Mg18'
_cell_volume   2734.86434684
_cell_formula_units_Z   2
loop_
 _symmetry_equiv_pos_site_id
 _symmetry_equiv_pos_as_xyz
  1  'x, y, z'
loop_
 _atom_site_type_symbol
 _atom_site_label
 _atom_site_symmetry_multiplicity
 _atom_site_fract_x
 _atom_site_fract_y
 _atom_site_fract_z
 _atom_site_occupancy
  Ho  Ho0  1  0.00000000  0.00116400  0.28245600  1
  Ho  Ho1  1  0.50000000  0.84393400  0.30491700  1
  Ho  Ho2  1  0.50000000  0.66387500  0.25921100  1
  Ho  Ho3  1  0.00000000  0.82110500  0.23675000  1
  Ho  Ho4  1  0.00000000  0.28143400  0.24241700  1
  Ho  Ho5  1  0.50000000  0.38360500  0.29925000  1
  Ho  Ho6  1  0.00000000  0.12616400  0.40745600  1
  Ho  Ho7  1  0.50000000  0.96893400  0.42991700  1
  Ho  Ho8  1  0.50000000  0.78887500  0.38421100  1
  Ho  Ho9  1  0.00000000  0.94610500  0.36175000  1
  Ho  Ho10  1  0.50000000  0.56366400  0.34495600  1
  Ho  Ho11  1  0.00000000  0.40643400  0.36741700  1
  Ho  Ho12  1  0.00000000  0.22637500  0.32171100  1
  Ho  Ho13  1  0.50000000  0.50860500  0.42425000  1
  Ho  Ho14  1  0.00000000  0.25116400  0.53245600  1
  Ho  Ho15  1  0.50000000  0.09393400  0.55491700  1
  Ho  Ho16  1  0.50000000  0.91387500  0.50921100  1
  Ho  Ho17  1  0.00000000  0.07110500  0.48675000  1
  Ho  Ho18  1  0.50000000  0.68866400  0.46995600  1
  Ho  Ho19  1  0.00000000  0.53143400  0.49241700  1
  Ho  Ho20  1  0.00000000  0.35137500  0.44671100  1
  Ho  Ho21  1  0.50000000  0.63360500  0.54925000  1
  Ho  Ho22  1  0.00000000  0.37616400  0.65745600  1
  Ho  Ho23  1  0.50000000  0.21893400  0.67991700  1
  Ho  Ho24  1  0.50000000  0.03887500  0.63421100  1
  Ho  Ho25  1  0.00000000  0.19610500  0.61175000  1
  Ho  Ho26  1  0.50000000  0.81366400  0.59495600  1
  Ho  Ho27  1  0.00000000  0.65643400  0.61741700  1
  Ho  Ho28  1  0.00000000  0.47637500  0.57171100  1
  Ho  Ho29  1  0.50000000  0.75860500  0.67425000  1
  Ho  Ho30  1  0.00000000  0.50116400  0.78245600  1
  Ho  Ho31  1  0.50000000  0.34393400  0.80491700  1
  Ho  Ho32  1  0.50000000  0.16387500  0.75921100  1
  Ho  Ho33  1  0.00000000  0.32110500  0.73675000  1
  Ho  Ho34  1  0.50000000  0.93866400  0.71995600  1
  Ho  Ho35  1  0.00000000  0.78143400  0.74241700  1
  Ho  Ho36  1  0.00000000  0.60137500  0.69671100  1
  Ho  Ho37  1  0.50000000  0.88360500  0.79925000  1
  Mg  Mg38  1  0.50000000  0.14042800  0.26256100  1
  Mg  Mg39  1  0.00000000  0.52461100  0.27910600  1
  Mg  Mg40  1  0.00000000  0.70292800  0.32506100  1
  Mg  Mg41  1  0.50000000  0.08711100  0.34160600  1
  Mg  Mg42  1  0.50000000  0.26542800  0.38756100  1
  Mg  Mg43  1  0.00000000  0.64961100  0.40410600  1
  Mg  Mg44  1  0.00000000  0.82792800  0.45006100  1
  Mg  Mg45  1  0.50000000  0.21211100  0.46660600  1
  Mg  Mg46  1  0.50000000  0.39042800  0.51256100  1
  Mg  Mg47  1  0.00000000  0.77461100  0.52910600  1
  Mg  Mg48  1  0.00000000  0.95292800  0.57506100  1
  Mg  Mg49  1  0.50000000  0.33711100  0.59160600  1
  Mg  Mg50  1  0.50000000  0.51542800  0.63756100  1
  Mg  Mg51  1  0.00000000  0.89961100  0.65410600  1
  Mg  Mg52  1  0.00000000  0.07792800  0.70006100  1
  Mg  Mg53  1  0.50000000  0.46211100  0.71660600  1
  Mg  Mg54  1  0.50000000  0.64042800  0.76256100  1
  Mg  Mg55  1  0.00000000  0.02461100  0.77910600  1
