# generated using pymatgen
data_Mg10Zn17
_symmetry_space_group_name_H-M   'P 1'
_cell_length_a   5.07402237
_cell_length_b   17.20699092
_cell_length_c   54.58155700
_cell_angle_alpha   87.89733091
_cell_angle_beta   92.22235669
_cell_angle_gamma   98.42726965
_symmetry_Int_Tables_number   1
_chemical_formula_structural   Mg10Zn17
_chemical_formula_sum   'Mg60 Zn102'
_cell_volume   4708.12472958
_cell_formula_units_Z   6
loop_
 _symmetry_equiv_pos_site_id
 _symmetry_equiv_pos_as_xyz
  1  'x, y, z'
loop_
 _atom_site_type_symbol
 _atom_site_label
 _atom_site_symmetry_multiplicity
 _atom_site_fract_x
 _atom_site_fract_y
 _atom_site_fract_z
 _atom_site_occupancy
  Mg  Mg0  1  0.48871000  0.37115700  0.33561700  1
  Mg  Mg1  1  0.42713300  0.35490300  0.23429300  1
  Mg  Mg2  1  0.14581700  0.75534900  0.25396200  1
  Mg  Mg3  1  0.94032100  0.28325100  0.31996400  1
  Mg  Mg4  1  0.98419100  0.46163100  0.23202200  1
  Mg  Mg5  1  0.52014400  0.36511900  0.39671500  1
  Mg  Mg6  1  0.06217100  0.57731100  0.27705600  1
  Mg  Mg7  1  0.84902800  0.13805200  0.29094600  1
  Mg  Mg8  1  0.56560800  0.54759500  0.31201900  1
  Mg  Mg9  1  0.80515800  0.95967200  0.37888700  1
  Mg  Mg10  1  0.64353100  0.66595300  0.35694700  1
  Mg  Mg11  1  0.22374000  0.87370700  0.29889000  1
  Mg  Mg12  1  0.40820800  0.26226100  0.28371500  1
  Mg  Mg13  1  0.63965800  0.78731000  0.21936900  1
  Mg  Mg14  1  0.14969000  0.63399300  0.39154000  1
  Mg  Mg15  1  0.72717800  0.84399200  0.33385300  1
  Mg  Mg16  1  0.30063900  0.05014600  0.27529200  1
  Mg  Mg17  1  0.26920500  0.05618400  0.21419400  1
  Mg  Mg18  1  0.36221500  0.06640000  0.37661600  1
  Mg  Mg19  1  0.38114000  0.15904200  0.32719400  1
  Mg  Mg20  1  0.28871000  0.77115700  0.53561700  1
  Mg  Mg21  1  0.22713300  0.75490300  0.43429300  1
  Mg  Mg22  1  0.94581700  0.15534900  0.45396200  1
  Mg  Mg23  1  0.74032100  0.68325100  0.51996400  1
  Mg  Mg24  1  0.78419100  0.86163100  0.43202200  1
  Mg  Mg25  1  0.32014400  0.76511900  0.59671500  1
  Mg  Mg26  1  0.86217100  0.97731100  0.47705600  1
  Mg  Mg27  1  0.64902800  0.53805200  0.49094600  1
  Mg  Mg28  1  0.36560800  0.94759500  0.51201900  1
  Mg  Mg29  1  0.60515800  0.35967200  0.57888700  1
  Mg  Mg30  1  0.44353100  0.06595300  0.55694700  1
  Mg  Mg31  1  0.02374000  0.27370700  0.49889000  1
  Mg  Mg32  1  0.20820800  0.66226100  0.48371500  1
  Mg  Mg33  1  0.43965800  0.18731000  0.41936900  1
  Mg  Mg34  1  0.94969000  0.03399300  0.59154000  1
  Mg  Mg35  1  0.52717800  0.24399200  0.53385300  1
  Mg  Mg36  1  0.10063900  0.45014600  0.47529200  1
  Mg  Mg37  1  0.06920500  0.45618400  0.41419400  1
  Mg  Mg38  1  0.16221500  0.46640000  0.57661600  1
  Mg  Mg39  1  0.18114000  0.55904200  0.52719400  1
  Mg  Mg40  1  0.08871000  0.17115700  0.73561700  1
  Mg  Mg41  1  0.02713300  0.15490300  0.63429300  1
  Mg  Mg42  1  0.74581700  0.55534900  0.65396200  1
  Mg  Mg43  1  0.54032100  0.08325100  0.71996400  1
  Mg  Mg44  1  0.58419100  0.26163100  0.63202200  1
  Mg  Mg45  1  0.12014400  0.16511900  0.79671500  1
  Mg  Mg46  1  0.66217100  0.37731100  0.67705600  1
  Mg  Mg47  1  0.44902800  0.93805200  0.69094600  1
  Mg  Mg48  1  0.16560800  0.34759500  0.71201900  1
  Mg  Mg49  1  0.40515800  0.75967200  0.77888700  1
  Mg  Mg50  1  0.24353100  0.46595300  0.75694700  1
  Mg  Mg51  1  0.82374000  0.67370700  0.69889000  1
  Mg  Mg52  1  0.00820800  0.06226100  0.68371500  1
  Mg  Mg53  1  0.23965800  0.58731000  0.61936900  1
  Mg  Mg54  1  0.74969000  0.43399300  0.79154000  1
  Mg  Mg55  1  0.32717800  0.64399200  0.73385300  1
  Mg  Mg56  1  0.90063900  0.85014600  0.67529200  1
  Mg  Mg57  1  0.86920500  0.85618400  0.61419400  1
  Mg  Mg58  1  0.96221500  0.86640000  0.77661600  1
  Mg  Mg59  1  0.98114000  0.95904200  0.72719400  1
  Zn  Zn60  1  0.51735300  0.51559500  0.25407100  1
  Zn  Zn61  1  0.91974000  0.30591600  0.26178100  1
  Zn  Zn62  1  0.11154000  0.60750500  0.33530700  1
  Zn  Zn63  1  0.55098500  0.00377200  0.32617000  1
  Zn  Zn64  1  0.97090900  0.79316700  0.38509400  1
  Zn  Zn65  1  0.73382000  0.41662600  0.28367600  1
  Zn  Zn66  1  0.89467400  0.71065100  0.30545500  1
  Zn  Zn67  1  0.27199500  0.90570700  0.35683800  1
  Zn  Zn68  1  0.31216500  0.62835500  0.22586800  1
  Zn  Zn69  1  0.81710800  0.50361600  0.36417500  1
  Zn  Zn70  1  0.00351600  0.36920900  0.36633100  1
  Zn  Zn71  1  0.60292800  0.66563600  0.26614600  1
  Zn  Zn72  1  0.90401300  0.12655000  0.39721500  1
  Zn  Zn73  1  0.86960900  0.11538700  0.34912900  1
  Zn  Zn74  1  0.19740700  0.23553900  0.36772700  1
  Zn  Zn75  1  0.47718300  0.79294800  0.38504200  1
  Zn  Zn76  1  0.05552900  0.00467700  0.32723300  1
  Zn  Zn77  1  0.18642100  0.75566700  0.34476300  1
  Zn  Zn78  1  0.59194200  0.18576400  0.24318200  1
  Zn  Zn79  1  0.81844000  0.62813600  0.22581500  1
  Zn  Zn80  1  0.39467400  0.71065100  0.30545500  1
  Zn  Zn81  1  0.02307900  0.46107900  0.32293700  1
  Zn  Zn82  1  0.32151700  0.50390300  0.36458100  1
  Zn  Zn83  1  0.68357800  0.23557300  0.36683500  1
  Zn  Zn84  1  0.76627000  0.96022400  0.28797200  1
  Zn  Zn85  1  0.10577000  0.18573000  0.24407400  1
  Zn  Zn86  1  0.88533600  0.29475300  0.21369400  1
  Zn  Zn87  1  0.46783100  0.91740000  0.24632800  1
  Zn  Zn88  1  0.23836300  0.41753100  0.28473900  1
  Zn  Zn89  1  0.97224000  0.91768700  0.24673400  1
  Zn  Zn90  1  0.78583200  0.05209400  0.24457800  1
  Zn  Zn91  1  0.67780900  0.81379800  0.27560200  1
  Zn  Zn92  1  0.31735300  0.91559500  0.45407100  1
  Zn  Zn93  1  0.71974000  0.70591600  0.46178100  1
  Zn  Zn94  1  0.91154000  0.00750500  0.53530700  1
  Zn  Zn95  1  0.35098500  0.40377200  0.52617000  1
  Zn  Zn96  1  0.77090900  0.19316700  0.58509400  1
  Zn  Zn97  1  0.53382000  0.81662600  0.48367600  1
  Zn  Zn98  1  0.69467400  0.11065100  0.50545500  1
  Zn  Zn99  1  0.07199500  0.30570700  0.55683800  1
  Zn  Zn100  1  0.61040900  0.54292100  0.40304200  1
  Zn  Zn101  1  0.11216500  0.02835500  0.42586800  1
  Zn  Zn102  1  0.61710800  0.90361600  0.56417500  1
  Zn  Zn103  1  0.80351600  0.76920900  0.56633100  1
  Zn  Zn104  1  0.40292800  0.06563600  0.46614600  1
  Zn  Zn105  1  0.70401300  0.52655000  0.59721500  1
  Zn  Zn106  1  0.66960900  0.51538700  0.54912900  1
  Zn  Zn107  1  0.97894000  0.27838200  0.40786700  1
  Zn  Zn108  1  0.99740700  0.63553900  0.56772700  1
  Zn  Zn109  1  0.27718300  0.19294800  0.58504200  1
  Zn  Zn110  1  0.85552900  0.40467700  0.52723300  1
  Zn  Zn111  1  0.98642100  0.15566700  0.54476300  1
  Zn  Zn112  1  0.39194200  0.58576400  0.44318200  1
  Zn  Zn113  1  0.61844000  0.02813600  0.42581500  1
  Zn  Zn114  1  0.19467400  0.11065100  0.50545500  1
  Zn  Zn115  1  0.82307900  0.86107900  0.52293700  1
  Zn  Zn116  1  0.12151700  0.90390300  0.56458100  1
  Zn  Zn117  1  0.48357800  0.63557300  0.56683500  1
  Zn  Zn118  1  0.56627000  0.36022400  0.48797200  1
  Zn  Zn119  1  0.90577000  0.58573000  0.44407400  1
  Zn  Zn120  1  0.68533600  0.69475300  0.41369400  1
  Zn  Zn121  1  0.26783100  0.31740000  0.44632800  1
  Zn  Zn122  1  0.03836300  0.81753100  0.48473900  1
  Zn  Zn123  1  0.29467400  0.91065100  0.40545500  1
  Zn  Zn124  1  0.77224000  0.31768700  0.44673400  1
  Zn  Zn125  1  0.58583200  0.45209400  0.44457800  1
  Zn  Zn126  1  0.47780900  0.21379800  0.47560200  1
  Zn  Zn127  1  0.11735300  0.31559500  0.65407100  1
  Zn  Zn128  1  0.51974000  0.10591600  0.66178100  1
  Zn  Zn129  1  0.71154000  0.40750500  0.73530700  1
  Zn  Zn130  1  0.15098500  0.80377200  0.72617000  1
  Zn  Zn131  1  0.57090900  0.59316700  0.78509400  1
  Zn  Zn132  1  0.33382000  0.21662600  0.68367600  1
  Zn  Zn133  1  0.49467400  0.51065100  0.70545500  1
  Zn  Zn134  1  0.87199500  0.70570700  0.75683800  1
  Zn  Zn135  1  0.41040900  0.94292100  0.60304200  1
  Zn  Zn136  1  0.91216500  0.42835500  0.62586800  1
  Zn  Zn137  1  0.41710800  0.30361600  0.76417500  1
  Zn  Zn138  1  0.60351600  0.16920900  0.76633100  1
  Zn  Zn139  1  0.20292800  0.46563600  0.66614600  1
  Zn  Zn140  1  0.50401300  0.92655000  0.79721500  1
  Zn  Zn141  1  0.46960900  0.91538700  0.74912900  1
  Zn  Zn142  1  0.77894000  0.67838200  0.60786700  1
  Zn  Zn143  1  0.79740700  0.03553900  0.76772700  1
  Zn  Zn144  1  0.07718300  0.59294800  0.78504200  1
  Zn  Zn145  1  0.65552900  0.80467700  0.72723300  1
  Zn  Zn146  1  0.78642100  0.55566700  0.74476300  1
  Zn  Zn147  1  0.19194200  0.98576400  0.64318200  1
  Zn  Zn148  1  0.41844000  0.42813600  0.62581500  1
  Zn  Zn149  1  0.99467400  0.51065100  0.70545500  1
  Zn  Zn150  1  0.62307900  0.26107900  0.72293700  1
  Zn  Zn151  1  0.92151700  0.30390300  0.76458100  1
  Zn  Zn152  1  0.28357800  0.03557300  0.76683500  1
  Zn  Zn153  1  0.36627000  0.76022400  0.68797200  1
  Zn  Zn154  1  0.70577000  0.98573000  0.64407400  1
  Zn  Zn155  1  0.48533600  0.09475300  0.61369400  1
  Zn  Zn156  1  0.06783100  0.71740000  0.64632800  1
  Zn  Zn157  1  0.83836300  0.21753100  0.68473900  1
  Zn  Zn158  1  0.09467400  0.31065100  0.60545500  1
  Zn  Zn159  1  0.57224000  0.71768700  0.64673400  1
  Zn  Zn160  1  0.38583200  0.85209400  0.64457800  1
  Zn  Zn161  1  0.27780900  0.61379800  0.67560200  1
