# generated using pymatgen
data_Mg6Pd11
_symmetry_space_group_name_H-M   'P 1'
_cell_length_a   6.94548378
_cell_length_b   9.19052455
_cell_length_c   43.38640000
_cell_angle_alpha   90.95958529
_cell_angle_beta   93.38110513
_cell_angle_gamma   74.03149322
_symmetry_Int_Tables_number   1
_chemical_formula_structural   Mg6Pd11
_chemical_formula_sum   'Mg36 Pd66'
_cell_volume   2657.96799762
_cell_formula_units_Z   6
loop_
 _symmetry_equiv_pos_site_id
 _symmetry_equiv_pos_as_xyz
  1  'x, y, z'
loop_
 _atom_site_type_symbol
 _atom_site_label
 _atom_site_symmetry_multiplicity
 _atom_site_fract_x
 _atom_site_fract_y
 _atom_site_fract_z
 _atom_site_occupancy
  Mg  Mg0  1  0.14623600  0.39054000  0.18359500  1
  Mg  Mg1  1  0.70635200  0.53575400  0.20926200  1
  Mg  Mg2  1  0.59007900  0.05900900  0.19763400  1
  Mg  Mg3  1  0.26250800  0.86728500  0.19522300  1
  Mg  Mg4  1  0.86052100  0.24768300  0.25502400  1
  Mg  Mg5  1  0.42063800  0.39289700  0.28069000  1
  Mg  Mg6  1  0.30436500  0.91615200  0.26906300  1
  Mg  Mg7  1  0.97679400  0.72442800  0.26665100  1
  Mg  Mg8  1  0.57480700  0.10482500  0.32645300  1
  Mg  Mg9  1  0.13492300  0.25004000  0.35211900  1
  Mg  Mg10  1  0.01865100  0.77329400  0.34049200  1
  Mg  Mg11  1  0.69108000  0.58157100  0.33808000  1
  Mg  Mg12  1  0.28909300  0.96196800  0.39788100  1
  Mg  Mg13  1  0.84920900  0.10718300  0.42354700  1
  Mg  Mg14  1  0.73293600  0.63043700  0.41192000  1
  Mg  Mg15  1  0.40536600  0.43871400  0.40950800  1
  Mg  Mg16  1  0.00337900  0.81911100  0.46931000  1
  Mg  Mg17  1  0.56349500  0.96432600  0.49497600  1
  Mg  Mg18  1  0.44722200  0.48758000  0.48334900  1
  Mg  Mg19  1  0.11965100  0.29585700  0.48093700  1
  Mg  Mg20  1  0.71766400  0.67625400  0.54073800  1
  Mg  Mg21  1  0.27778100  0.82146800  0.56640500  1
  Mg  Mg22  1  0.16150800  0.34472300  0.55477700  1
  Mg  Mg23  1  0.83393700  0.15299900  0.55236600  1
  Mg  Mg24  1  0.43195000  0.53339700  0.61216700  1
  Mg  Mg25  1  0.99206600  0.67861100  0.63783300  1
  Mg  Mg26  1  0.87579400  0.20186600  0.62620600  1
  Mg  Mg27  1  0.54822300  0.01014200  0.62379400  1
  Mg  Mg28  1  0.14623600  0.39054000  0.68359500  1
  Mg  Mg29  1  0.70635200  0.53575400  0.70926200  1
  Mg  Mg30  1  0.59007900  0.05900900  0.69763400  1
  Mg  Mg31  1  0.26250800  0.86728500  0.69522300  1
  Mg  Mg32  1  0.86052100  0.24768300  0.75502400  1
  Mg  Mg33  1  0.42063800  0.39289700  0.78069000  1
  Mg  Mg34  1  0.30436500  0.91615200  0.76906300  1
  Mg  Mg35  1  0.97679400  0.72442800  0.76665100  1
  Pd  Pd36  1  0.94761600  0.96697900  0.23082300  1
  Pd  Pd37  1  0.61925700  0.81645700  0.23346300  1
  Pd  Pd38  1  0.48911400  0.34248600  0.22044800  1
  Pd  Pd39  1  0.07776000  0.44095100  0.24383700  1
  Pd  Pd40  1  0.97895100  0.69132500  0.20028300  1
  Pd  Pd41  1  0.87363700  0.23496900  0.19257400  1
  Pd  Pd42  1  0.32802900  0.64409000  0.23801300  1
  Pd  Pd43  1  0.23884500  0.13934600  0.22627200  1
  Pd  Pd44  1  0.66190200  0.82412200  0.30225100  1
  Pd  Pd45  1  0.33354300  0.67360000  0.30489100  1
  Pd  Pd46  1  0.20340000  0.19962900  0.29187700  1
  Pd  Pd47  1  0.79204500  0.29809400  0.31526600  1
  Pd  Pd48  1  0.69323600  0.54846800  0.27171200  1
  Pd  Pd49  1  0.58792300  0.09211200  0.26400300  1
  Pd  Pd50  1  0.04231500  0.50123300  0.30944200  1
  Pd  Pd51  1  0.95313000  0.99648900  0.29770100  1
  Pd  Pd52  1  0.37618700  0.68126500  0.37368000  1
  Pd  Pd53  1  0.04782900  0.53074300  0.37632000  1
  Pd  Pd54  1  0.91768500  0.05677200  0.36330600  1
  Pd  Pd55  1  0.50633100  0.15523600  0.38669400  1
  Pd  Pd56  1  0.40752200  0.40561100  0.34314000  1
  Pd  Pd57  1  0.30220900  0.94925400  0.33543100  1
  Pd  Pd58  1  0.75660000  0.35837600  0.38087100  1
  Pd  Pd59  1  0.66741600  0.85363200  0.36912900  1
  Pd  Pd60  1  0.09047300  0.53840800  0.44510900  1
  Pd  Pd61  1  0.76211500  0.38788600  0.44774900  1
  Pd  Pd62  1  0.63197100  0.91391500  0.43473400  1
  Pd  Pd63  1  0.22061700  0.01237900  0.45812300  1
  Pd  Pd64  1  0.12180800  0.26275400  0.41456900  1
  Pd  Pd65  1  0.01649400  0.80639700  0.40686000  1
  Pd  Pd66  1  0.47088600  0.21551900  0.45229900  1
  Pd  Pd67  1  0.38170200  0.71077500  0.44055800  1
  Pd  Pd68  1  0.80475900  0.39555100  0.51653700  1
  Pd  Pd69  1  0.47640000  0.24502900  0.51917700  1
  Pd  Pd70  1  0.34625700  0.77105700  0.50616300  1
  Pd  Pd71  1  0.93490200  0.86952200  0.52955200  1
  Pd  Pd72  1  0.83609400  0.11989700  0.48599700  1
  Pd  Pd73  1  0.73078000  0.66354000  0.47828800  1
  Pd  Pd74  1  0.18517200  0.07266200  0.52372800  1
  Pd  Pd75  1  0.09598700  0.56791800  0.51198700  1
  Pd  Pd76  1  0.51904500  0.25269400  0.58796600  1
  Pd  Pd77  1  0.19068600  0.10217200  0.59060600  1
  Pd  Pd78  1  0.06054200  0.62820000  0.57759100  1
  Pd  Pd79  1  0.64918800  0.72666500  0.60098000  1
  Pd  Pd80  1  0.55037900  0.97703900  0.55742600  1
  Pd  Pd81  1  0.44506600  0.52068300  0.54971700  1
  Pd  Pd82  1  0.89945700  0.92980500  0.59515600  1
  Pd  Pd83  1  0.81027300  0.42506100  0.58341500  1
  Pd  Pd84  1  0.23333000  0.10983700  0.65939400  1
  Pd  Pd85  1  0.90497200  0.95931400  0.66203400  1
  Pd  Pd86  1  0.77482800  0.48534300  0.64902000  1
  Pd  Pd87  1  0.36347400  0.58380800  0.67240900  1
  Pd  Pd88  1  0.26466500  0.83418200  0.62885400  1
  Pd  Pd89  1  0.15935100  0.37782600  0.62114600  1
  Pd  Pd90  1  0.61374300  0.78694800  0.66658500  1
  Pd  Pd91  1  0.52455900  0.28220300  0.65484400  1
  Pd  Pd92  1  0.94761600  0.96697900  0.73082300  1
  Pd  Pd93  1  0.61925700  0.81645700  0.73346300  1
  Pd  Pd94  1  0.48911400  0.34248600  0.72044800  1
  Pd  Pd95  1  0.07776000  0.44095100  0.74383700  1
  Pd  Pd96  1  0.97895100  0.69132500  0.70028300  1
  Pd  Pd97  1  0.87363700  0.23496900  0.69257400  1
  Pd  Pd98  1  0.32802900  0.64409000  0.73801300  1
  Pd  Pd99  1  0.23884500  0.13934600  0.72627200  1
  Pd  Pd100  1  0.69323600  0.54846800  0.77171200  1
  Pd  Pd101  1  0.58792300  0.09211200  0.76400300  1
