# generated using pymatgen
data_Mg34Pd13
_symmetry_space_group_name_H-M   'P 1'
_cell_length_a   8.83883700
_cell_length_b   8.02302000
_cell_length_c   45.92794300
_cell_angle_alpha   90.00000000
_cell_angle_beta   90.00000000
_cell_angle_gamma   90.00000000
_symmetry_Int_Tables_number   1
_chemical_formula_structural   Mg34Pd13
_chemical_formula_sum   'Mg68 Pd26'
_cell_volume   3256.94177521
_cell_formula_units_Z   2
loop_
 _symmetry_equiv_pos_site_id
 _symmetry_equiv_pos_as_xyz
  1  'x, y, z'
loop_
 _atom_site_type_symbol
 _atom_site_label
 _atom_site_symmetry_multiplicity
 _atom_site_fract_x
 _atom_site_fract_y
 _atom_site_fract_z
 _atom_site_occupancy
  Mg  Mg0  1  0.35829700  0.93540600  0.24783700  1
  Mg  Mg1  1  0.14562200  0.93540600  0.17694500  1
  Mg  Mg2  1  0.93294600  0.93540600  0.24783700  1
  Mg  Mg3  1  0.93294600  0.06459400  0.31168700  1
  Mg  Mg4  1  0.64562200  0.06459400  0.21591200  1
  Mg  Mg5  1  0.35829700  0.06459400  0.31168700  1
  Mg  Mg6  1  0.93294600  0.43540600  0.31168700  1
  Mg  Mg7  1  0.64562200  0.43540600  0.21591200  1
  Mg  Mg8  1  0.35829700  0.43540600  0.31168700  1
  Mg  Mg9  1  0.35829700  0.56459400  0.24783700  1
  Mg  Mg10  1  0.14562200  0.56459400  0.17694500  1
  Mg  Mg11  1  0.93294600  0.56459400  0.24783700  1
  Mg  Mg12  1  0.83714600  0.75000000  0.18993100  1
  Mg  Mg13  1  0.14562200  0.75000000  0.29275700  1
  Mg  Mg14  1  0.45409800  0.75000000  0.18993100  1
  Mg  Mg15  1  0.95409800  0.25000000  0.20292600  1
  Mg  Mg16  1  0.14562200  0.25000000  0.26676700  1
  Mg  Mg17  1  0.33714600  0.25000000  0.20292600  1
  Mg  Mg18  1  0.64562200  0.00000000  0.27976200  1
  Mg  Mg19  1  0.64562200  0.50000000  0.27976200  1
  Mg  Mg20  1  0.85829700  0.93540600  0.41450400  1
  Mg  Mg21  1  0.64562200  0.93540600  0.34361200  1
  Mg  Mg22  1  0.43294600  0.93540600  0.41450400  1
  Mg  Mg23  1  0.43294600  0.06459400  0.47835400  1
  Mg  Mg24  1  0.14562200  0.06459400  0.38257900  1
  Mg  Mg25  1  0.85829700  0.06459400  0.47835400  1
  Mg  Mg26  1  0.43294600  0.43540600  0.47835400  1
  Mg  Mg27  1  0.14562200  0.43540600  0.38257900  1
  Mg  Mg28  1  0.85829700  0.43540600  0.47835400  1
  Mg  Mg29  1  0.85829700  0.56459400  0.41450400  1
  Mg  Mg30  1  0.64562200  0.56459400  0.34361200  1
  Mg  Mg31  1  0.43294600  0.56459400  0.41450400  1
  Mg  Mg32  1  0.33714600  0.75000000  0.35659800  1
  Mg  Mg33  1  0.64562200  0.75000000  0.45942300  1
  Mg  Mg34  1  0.95409800  0.75000000  0.35659800  1
  Mg  Mg35  1  0.45409800  0.25000000  0.36959300  1
  Mg  Mg36  1  0.64562200  0.25000000  0.43343400  1
  Mg  Mg37  1  0.83714600  0.25000000  0.36959300  1
  Mg  Mg38  1  0.14562200  0.00000000  0.44642900  1
  Mg  Mg39  1  0.14562200  0.50000000  0.44642900  1
  Mg  Mg40  1  0.35829700  0.93540600  0.58117000  1
  Mg  Mg41  1  0.14562200  0.93540600  0.51027900  1
  Mg  Mg42  1  0.93294600  0.93540600  0.58117000  1
  Mg  Mg43  1  0.93294600  0.06459400  0.64502000  1
  Mg  Mg44  1  0.64562200  0.06459400  0.54924500  1
  Mg  Mg45  1  0.35829700  0.06459400  0.64502000  1
  Mg  Mg46  1  0.93294600  0.43540600  0.64502000  1
  Mg  Mg47  1  0.64562200  0.43540600  0.54924500  1
  Mg  Mg48  1  0.35829700  0.43540600  0.64502000  1
  Mg  Mg49  1  0.35829700  0.56459400  0.58117000  1
  Mg  Mg50  1  0.14562200  0.56459400  0.51027900  1
  Mg  Mg51  1  0.93294600  0.56459400  0.58117000  1
  Mg  Mg52  1  0.83714600  0.75000000  0.52326500  1
  Mg  Mg53  1  0.14562200  0.75000000  0.62609000  1
  Mg  Mg54  1  0.45409800  0.75000000  0.52326500  1
  Mg  Mg55  1  0.95409800  0.25000000  0.53625900  1
  Mg  Mg56  1  0.14562200  0.25000000  0.60010100  1
  Mg  Mg57  1  0.33714600  0.25000000  0.53625900  1
  Mg  Mg58  1  0.64562200  0.00000000  0.61309500  1
  Mg  Mg59  1  0.64562200  0.50000000  0.61309500  1
  Mg  Mg60  1  0.64562200  0.93540600  0.67694500  1
  Mg  Mg61  1  0.14562200  0.06459400  0.71591200  1
  Mg  Mg62  1  0.14562200  0.43540600  0.71591200  1
  Mg  Mg63  1  0.64562200  0.56459400  0.67694500  1
  Mg  Mg64  1  0.33714600  0.75000000  0.68993100  1
  Mg  Mg65  1  0.95409800  0.75000000  0.68993100  1
  Mg  Mg66  1  0.45409800  0.25000000  0.70292600  1
  Mg  Mg67  1  0.83714600  0.25000000  0.70292600  1
  Pd  Pd68  1  0.83248700  0.75000000  0.30052500  1
  Pd  Pd69  1  0.64562200  0.75000000  0.23823600  1
  Pd  Pd70  1  0.45875700  0.75000000  0.30052500  1
  Pd  Pd71  1  0.45875700  0.25000000  0.25899900  1
  Pd  Pd72  1  0.64562200  0.25000000  0.32128700  1
  Pd  Pd73  1  0.83248700  0.25000000  0.25899900  1
  Pd  Pd74  1  0.14562200  0.75000000  0.22420600  1
  Pd  Pd75  1  0.64562200  0.25000000  0.16865100  1
  Pd  Pd76  1  0.33248700  0.75000000  0.46719100  1
  Pd  Pd77  1  0.14562200  0.75000000  0.40490300  1
  Pd  Pd78  1  0.95875700  0.75000000  0.46719100  1
  Pd  Pd79  1  0.95875700  0.25000000  0.42566600  1
  Pd  Pd80  1  0.14562200  0.25000000  0.48795400  1
  Pd  Pd81  1  0.33248700  0.25000000  0.42566600  1
  Pd  Pd82  1  0.64562200  0.75000000  0.39087300  1
  Pd  Pd83  1  0.14562200  0.25000000  0.33531700  1
  Pd  Pd84  1  0.83248700  0.75000000  0.63385800  1
  Pd  Pd85  1  0.64562200  0.75000000  0.57157000  1
  Pd  Pd86  1  0.45875700  0.75000000  0.63385800  1
  Pd  Pd87  1  0.45875700  0.25000000  0.59233200  1
  Pd  Pd88  1  0.64562200  0.25000000  0.65462100  1
  Pd  Pd89  1  0.83248700  0.25000000  0.59233200  1
  Pd  Pd90  1  0.14562200  0.75000000  0.55754000  1
  Pd  Pd91  1  0.64562200  0.25000000  0.50198400  1
  Pd  Pd92  1  0.64562200  0.75000000  0.72420600  1
  Pd  Pd93  1  0.14562200  0.25000000  0.66865100  1
