# generated using pymatgen
data_La80Mg19
_symmetry_space_group_name_H-M   'P 1'
_cell_length_a   5.32060900
_cell_length_b   24.91303150
_cell_length_c   42.56487600
_cell_angle_alpha   96.12994132
_cell_angle_beta   90.00000000
_cell_angle_gamma   83.87005868
_symmetry_Int_Tables_number   1
_chemical_formula_structural   La80Mg19
_chemical_formula_sum   'La80 Mg19'
_cell_volume   5577.37441684
_cell_formula_units_Z   1
loop_
 _symmetry_equiv_pos_site_id
 _symmetry_equiv_pos_as_xyz
  1  'x, y, z'
loop_
 _atom_site_type_symbol
 _atom_site_label
 _atom_site_symmetry_multiplicity
 _atom_site_fract_x
 _atom_site_fract_y
 _atom_site_fract_z
 _atom_site_occupancy
  La  La0  1  0.47749200  0.09003400  0.19000200  1
  La  La1  1  0.92414200  0.19673400  0.19667100  1
  La  La2  1  0.37087500  0.30326600  0.20332900  1
  La  La3  1  0.81752500  0.40996600  0.20999800  1
  La  La4  1  0.72749200  0.59003400  0.22125200  1
  La  La5  1  0.17414200  0.69673400  0.22792100  1
  La  La6  1  0.62087500  0.80326600  0.23457900  1
  La  La7  1  0.06752500  0.90996600  0.24124800  1
  La  La8  1  0.97749200  0.09003400  0.25250200  1
  La  La9  1  0.42414200  0.19673400  0.25917100  1
  La  La10  1  0.87087500  0.30326600  0.26582900  1
  La  La11  1  0.31752500  0.40996600  0.27249800  1
  La  La12  1  0.22749200  0.59003400  0.28375200  1
  La  La13  1  0.67414200  0.69673400  0.29042100  1
  La  La14  1  0.12087500  0.80326600  0.29707900  1
  La  La15  1  0.56752500  0.90996600  0.30374800  1
  La  La16  1  0.47749200  0.09003400  0.31500200  1
  La  La17  1  0.92414200  0.19673400  0.32167100  1
  La  La18  1  0.37087500  0.30326600  0.32832900  1
  La  La19  1  0.81752500  0.40996600  0.33499800  1
  La  La20  1  0.72749200  0.59003400  0.34625200  1
  La  La21  1  0.17414200  0.69673400  0.35292100  1
  La  La22  1  0.62087500  0.80326600  0.35957900  1
  La  La23  1  0.06752500  0.90996600  0.36624800  1
  La  La24  1  0.97749200  0.09003400  0.37750200  1
  La  La25  1  0.42414200  0.19673400  0.38417100  1
  La  La26  1  0.87087500  0.30326600  0.39082900  1
  La  La27  1  0.31752500  0.40996600  0.39749800  1
  La  La28  1  0.22749200  0.59003400  0.40875200  1
  La  La29  1  0.67414200  0.69673400  0.41542100  1
  La  La30  1  0.12087500  0.80326600  0.42207900  1
  La  La31  1  0.56752500  0.90996600  0.42874800  1
  La  La32  1  0.47749200  0.09003400  0.44000200  1
  La  La33  1  0.92414200  0.19673400  0.44667100  1
  La  La34  1  0.37087500  0.30326600  0.45332900  1
  La  La35  1  0.81752500  0.40996600  0.45999800  1
  La  La36  1  0.72749200  0.59003400  0.47125200  1
  La  La37  1  0.17414200  0.69673400  0.47792100  1
  La  La38  1  0.62087500  0.80326600  0.48457900  1
  La  La39  1  0.06752500  0.90996600  0.49124800  1
  La  La40  1  0.97749200  0.09003400  0.50250200  1
  La  La41  1  0.42414200  0.19673400  0.50917100  1
  La  La42  1  0.87087500  0.30326600  0.51582900  1
  La  La43  1  0.31752500  0.40996600  0.52249800  1
  La  La44  1  0.22749200  0.59003400  0.53375200  1
  La  La45  1  0.67414200  0.69673400  0.54042100  1
  La  La46  1  0.12087500  0.80326600  0.54707900  1
  La  La47  1  0.56752500  0.90996600  0.55374800  1
  La  La48  1  0.47749200  0.09003400  0.56500200  1
  La  La49  1  0.92414200  0.19673400  0.57167100  1
  La  La50  1  0.37087500  0.30326600  0.57832900  1
  La  La51  1  0.81752500  0.40996600  0.58499800  1
  La  La52  1  0.72749200  0.59003400  0.59625200  1
  La  La53  1  0.17414200  0.69673400  0.60292100  1
  La  La54  1  0.62087500  0.80326600  0.60957900  1
  La  La55  1  0.06752500  0.90996600  0.61624800  1
  La  La56  1  0.97749200  0.09003400  0.62750200  1
  La  La57  1  0.42414200  0.19673400  0.63417100  1
  La  La58  1  0.87087500  0.30326600  0.64082900  1
  La  La59  1  0.31752500  0.40996600  0.64749800  1
  La  La60  1  0.22749200  0.59003400  0.65875200  1
  La  La61  1  0.67414200  0.69673400  0.66542100  1
  La  La62  1  0.12087500  0.80326600  0.67207900  1
  La  La63  1  0.56752500  0.90996600  0.67874800  1
  La  La64  1  0.47749200  0.09003400  0.69000200  1
  La  La65  1  0.92414200  0.19673400  0.69667100  1
  La  La66  1  0.37087500  0.30326600  0.70332900  1
  La  La67  1  0.81752500  0.40996600  0.70999800  1
  La  La68  1  0.72749200  0.59003400  0.72125200  1
  La  La69  1  0.17414200  0.69673400  0.72792100  1
  La  La70  1  0.62087500  0.80326600  0.73457900  1
  La  La71  1  0.06752500  0.90996600  0.74124800  1
  La  La72  1  0.97749200  0.09003400  0.75250200  1
  La  La73  1  0.42414200  0.19673400  0.75917100  1
  La  La74  1  0.87087500  0.30326600  0.76582900  1
  La  La75  1  0.31752500  0.40996600  0.77249800  1
  La  La76  1  0.22749200  0.59003400  0.78375200  1
  La  La77  1  0.67414200  0.69673400  0.79042100  1
  La  La78  1  0.12087500  0.80326600  0.79707900  1
  La  La79  1  0.56752500  0.90996600  0.80374800  1
  Mg  Mg80  1  0.52250800  0.00000000  0.24687500  1
  Mg  Mg81  1  0.27250800  0.50000000  0.21562500  1
  Mg  Mg82  1  0.02250800  0.00000000  0.30937500  1
  Mg  Mg83  1  0.77250800  0.50000000  0.27812500  1
  Mg  Mg84  1  0.52250800  0.00000000  0.37187500  1
  Mg  Mg85  1  0.27250800  0.50000000  0.34062500  1
  Mg  Mg86  1  0.02250800  0.00000000  0.43437500  1
  Mg  Mg87  1  0.77250800  0.50000000  0.40312500  1
  Mg  Mg88  1  0.52250800  0.00000000  0.49687500  1
  Mg  Mg89  1  0.27250800  0.50000000  0.46562500  1
  Mg  Mg90  1  0.02250800  0.00000000  0.55937500  1
  Mg  Mg91  1  0.77250800  0.50000000  0.52812500  1
  Mg  Mg92  1  0.52250800  0.00000000  0.62187500  1
  Mg  Mg93  1  0.27250800  0.50000000  0.59062500  1
  Mg  Mg94  1  0.02250800  0.00000000  0.68437500  1
  Mg  Mg95  1  0.77250800  0.50000000  0.65312500  1
  Mg  Mg96  1  0.52250800  0.00000000  0.74687500  1
  Mg  Mg97  1  0.27250800  0.50000000  0.71562500  1
  Mg  Mg98  1  0.77250800  0.50000000  0.77812500  1
