# generated using pymatgen
data_La4Mg35
_symmetry_space_group_name_H-M   'P 1'
_cell_length_a   10.38875200
_cell_length_b   14.48655120
_cell_length_c   47.03743100
_cell_angle_alpha   91.51171628
_cell_angle_beta   90.00000000
_cell_angle_gamma   68.98788168
_symmetry_Int_Tables_number   1
_chemical_formula_structural   La4Mg35
_chemical_formula_sum   'La12 Mg105'
_cell_volume   6605.64073251
_cell_formula_units_Z   3
loop_
 _symmetry_equiv_pos_site_id
 _symmetry_equiv_pos_as_xyz
  1  'x, y, z'
loop_
 _atom_site_type_symbol
 _atom_site_label
 _atom_site_symmetry_multiplicity
 _atom_site_fract_x
 _atom_site_fract_y
 _atom_site_fract_z
 _atom_site_occupancy
  La  La0  1  0.36904800  0.26190500  0.36340900  1
  La  La1  1  0.79761900  0.40476200  0.48245600  1
  La  La2  1  0.65476200  0.69047600  0.38721800  1
  La  La3  1  0.51190500  0.97619000  0.45864700  1
  La  La4  1  0.08333300  0.83333300  0.50626600  1
  La  La5  1  0.51190500  0.97619000  0.62531300  1
  La  La6  1  0.36904800  0.26190500  0.53007500  1
  La  La7  1  0.22619000  0.54761900  0.60150400  1
  La  La8  1  0.79761900  0.40476200  0.64912300  1
  La  La9  1  0.22619000  0.54761900  0.76817000  1
  La  La10  1  0.08333300  0.83333300  0.67293200  1
  La  La11  1  0.94047600  0.11904800  0.74436100  1
  Mg  Mg12  1  0.22619000  0.04761900  0.35150400  1
  Mg  Mg13  1  0.72619000  0.04761900  0.35150400  1
  Mg  Mg14  1  0.22619000  0.54761900  0.35150400  1
  Mg  Mg15  1  0.15641000  0.20051100  0.47417100  1
  Mg  Mg16  1  0.78974500  0.42051100  0.40083800  1
  Mg  Mg17  1  0.64307900  0.20051100  0.47417100  1
  Mg  Mg18  1  0.36879100  0.77574900  0.44909200  1
  Mg  Mg19  1  0.98380900  0.03238100  0.38936100  1
  Mg  Mg20  1  0.26952400  0.46095300  0.41317100  1
  Mg  Mg21  1  0.18285700  0.63428500  0.45650400  1
  Mg  Mg22  1  0.89714300  0.20571400  0.43269400  1
  Mg  Mg23  1  0.08333300  0.83333300  0.42293200  1
  Mg  Mg24  1  0.58333300  0.33333300  0.42293200  1
  Mg  Mg25  1  0.08333300  0.33333300  0.42293200  1
  Mg  Mg26  1  0.94047600  0.61904800  0.49436100  1
  Mg  Mg27  1  0.44047600  0.61904800  0.49436100  1
  Mg  Mg28  1  0.94047600  0.11904800  0.49436100  1
  Mg  Mg29  1  0.15879800  0.99097300  0.45371900  1
  Mg  Mg30  1  0.52642000  0.54970400  0.43414200  1
  Mg  Mg31  1  0.14428200  0.41746000  0.47822300  1
  Mg  Mg32  1  0.02238500  0.24920700  0.36764100  1
  Mg  Mg33  1  0.64024600  0.11696300  0.41172200  1
  Mg  Mg34  1  0.31643800  0.67569300  0.39214600  1
  Mg  Mg35  1  0.43825800  0.41746000  0.47822300  1
  Mg  Mg36  1  0.00786900  0.67569300  0.39214600  1
  Mg  Mg37  1  0.92387600  0.54970400  0.43414200  1
  Mg  Mg38  1  0.24279100  0.11696300  0.41172200  1
  Mg  Mg39  1  0.85022900  0.99097300  0.45371900  1
  Mg  Mg40  1  0.72840900  0.24920700  0.36764100  1
  Mg  Mg41  1  0.65882700  0.68234500  0.46629700  1
  Mg  Mg42  1  0.01025700  0.46615500  0.37169400  1
  Mg  Mg43  1  0.52358800  0.46615500  0.37169400  1
  Mg  Mg44  1  0.79787600  0.89091800  0.39677300  1
  Mg  Mg45  1  0.31120700  0.89091800  0.39677300  1
  Mg  Mg46  1  0.50783900  0.98432100  0.37956800  1
  Mg  Mg47  1  0.85546000  0.77574900  0.44909200  1
  Mg  Mg48  1  0.37692200  0.24615600  0.44502700  1
  Mg  Mg49  1  0.87069600  0.77194000  0.61702800  1
  Mg  Mg50  1  0.50403000  0.99193900  0.54369500  1
  Mg  Mg51  1  0.35736400  0.77194000  0.61702800  1
  Mg  Mg52  1  0.08307700  0.34717800  0.59194900  1
  Mg  Mg53  1  0.69809500  0.60381000  0.53221800  1
  Mg  Mg54  1  0.98380900  0.03238100  0.55602800  1
  Mg  Mg55  1  0.89714300  0.20571400  0.59936100  1
  Mg  Mg56  1  0.61142900  0.77714200  0.57555100  1
  Mg  Mg57  1  0.79761900  0.40476200  0.56578900  1
  Mg  Mg58  1  0.29761900  0.90476200  0.56578900  1
  Mg  Mg59  1  0.79761900  0.90476200  0.56578900  1
  Mg  Mg60  1  0.65476200  0.19047600  0.63721800  1
  Mg  Mg61  1  0.15476200  0.19047600  0.63721800  1
  Mg  Mg62  1  0.65476200  0.69047600  0.63721800  1
  Mg  Mg63  1  0.87308300  0.56240200  0.59657600  1
  Mg  Mg64  1  0.24070600  0.12113200  0.57699900  1
  Mg  Mg65  1  0.85856800  0.98888900  0.62108100  1
  Mg  Mg66  1  0.73667000  0.82063500  0.51049800  1
  Mg  Mg67  1  0.35453200  0.68839100  0.55458000  1
  Mg  Mg68  1  0.03072300  0.24712200  0.53500300  1
  Mg  Mg69  1  0.15254400  0.98888900  0.62108100  1
  Mg  Mg70  1  0.72215500  0.24712200  0.53500300  1
  Mg  Mg71  1  0.63816200  0.12113200  0.57699900  1
  Mg  Mg72  1  0.95707700  0.68839100  0.55458000  1
  Mg  Mg73  1  0.56451500  0.56240200  0.59657600  1
  Mg  Mg74  1  0.44269400  0.82063500  0.51049800  1
  Mg  Mg75  1  0.37311300  0.25377400  0.60915400  1
  Mg  Mg76  1  0.72454300  0.03758400  0.51455100  1
  Mg  Mg77  1  0.23787400  0.03758400  0.51455100  1
  Mg  Mg78  1  0.51216100  0.46234600  0.53963000  1
  Mg  Mg79  1  0.02549200  0.46234600  0.53963000  1
  Mg  Mg80  1  0.22212500  0.55575000  0.52242500  1
  Mg  Mg81  1  0.56974600  0.34717800  0.59194900  1
  Mg  Mg82  1  0.09120800  0.81758500  0.58788400  1
  Mg  Mg83  1  0.58498100  0.34336900  0.75988500  1
  Mg  Mg84  1  0.21831600  0.56336800  0.68655200  1
  Mg  Mg85  1  0.07165000  0.34336900  0.75988500  1
  Mg  Mg86  1  0.79736300  0.91860600  0.73480600  1
  Mg  Mg87  1  0.41238100  0.17523900  0.67507500  1
  Mg  Mg88  1  0.69809500  0.60381000  0.69888500  1
  Mg  Mg89  1  0.61142900  0.77714200  0.74221800  1
  Mg  Mg90  1  0.32571500  0.34857100  0.71840800  1
  Mg  Mg91  1  0.51190500  0.97619000  0.70864700  1
  Mg  Mg92  1  0.01190500  0.47619000  0.70864700  1
  Mg  Mg93  1  0.51190500  0.47619000  0.70864700  1
  Mg  Mg94  1  0.36904800  0.76190500  0.78007500  1
  Mg  Mg95  1  0.86904800  0.76190500  0.78007500  1
  Mg  Mg96  1  0.36904800  0.26190500  0.78007500  1
  Mg  Mg97  1  0.58736900  0.13383000  0.73943300  1
  Mg  Mg98  1  0.95499200  0.69256100  0.71985600  1
  Mg  Mg99  1  0.57285400  0.56031700  0.76393800  1
  Mg  Mg100  1  0.45095600  0.39206400  0.65335600  1
  Mg  Mg101  1  0.06881800  0.25982000  0.69743700  1
  Mg  Mg102  1  0.74500900  0.81855100  0.67786000  1
  Mg  Mg103  1  0.86682900  0.56031700  0.76393800  1
  Mg  Mg104  1  0.43644000  0.81855100  0.67786000  1
  Mg  Mg105  1  0.35244700  0.69256100  0.71985600  1
  Mg  Mg106  1  0.67136200  0.25982000  0.69743700  1
  Mg  Mg107  1  0.27880000  0.13383000  0.73943300  1
  Mg  Mg108  1  0.15698000  0.39206400  0.65335600  1
  Mg  Mg109  1  0.08739900  0.82520200  0.75201100  1
  Mg  Mg110  1  0.43882800  0.60901200  0.65740800  1
  Mg  Mg111  1  0.95215900  0.60901200  0.65740800  1
  Mg  Mg112  1  0.22644700  0.03377500  0.68248700  1
  Mg  Mg113  1  0.73977800  0.03377500  0.68248700  1
  Mg  Mg114  1  0.93641100  0.12717800  0.66528200  1
  Mg  Mg115  1  0.28403100  0.91860600  0.73480600  1
  Mg  Mg116  1  0.80549300  0.38901300  0.73074100  1
