# generated using pymatgen
data_Mg104Zn179
_symmetry_space_group_name_H-M   'P 1'
_cell_length_a   15.05205970
_cell_length_b   15.53344962
_cell_length_c   44.08704400
_cell_angle_alpha   96.16286714
_cell_angle_beta   84.01794547
_cell_angle_gamma   68.44884142
_symmetry_Int_Tables_number   1
_chemical_formula_structural   Mg104Zn179
_chemical_formula_sum   'Mg104 Zn179'
_cell_volume   9416.24976546
_cell_formula_units_Z   1
loop_
 _symmetry_equiv_pos_site_id
 _symmetry_equiv_pos_as_xyz
  1  'x, y, z'
loop_
 _atom_site_type_symbol
 _atom_site_label
 _atom_site_symmetry_multiplicity
 _atom_site_fract_x
 _atom_site_fract_y
 _atom_site_fract_z
 _atom_site_occupancy
  Mg  Mg0  1  0.69572200  0.73362600  0.28694600  1
  Mg  Mg1  1  0.80997000  0.51489000  0.29243800  1
  Mg  Mg2  1  0.48772600  0.44982200  0.29850800  1
  Mg  Mg3  1  0.37347800  0.66855800  0.29301700  1
  Mg  Mg4  1  0.91823100  0.26940500  0.37022900  1
  Mg  Mg5  1  0.17150700  0.38884800  0.30327600  1
  Mg  Mg6  1  0.79572200  0.83362600  0.38694600  1
  Mg  Mg7  1  0.98886700  0.14857600  0.30599700  1
  Mg  Mg8  1  0.12593500  0.55446100  0.35761900  1
  Mg  Mg9  1  0.68077900  0.08097400  0.31003000  1
  Mg  Mg10  1  0.90997000  0.61489000  0.39243800  1
  Mg  Mg11  1  0.29458100  0.13487200  0.37945700  1
  Mg  Mg12  1  0.80611900  0.48657200  0.36375900  1
  Mg  Mg13  1  0.15751300  0.72898700  0.32783500  1
  Mg  Mg14  1  0.58772600  0.54982200  0.39850800  1
  Mg  Mg15  1  0.47732900  0.79687700  0.32169500  1
  Mg  Mg16  1  0.14364300  0.22512200  0.33103700  1
  Mg  Mg17  1  0.79616800  0.86340000  0.31557500  1
  Mg  Mg18  1  0.48728000  0.42004800  0.36988000  1
  Mg  Mg19  1  0.47347800  0.76855800  0.39301700  1
  Mg  Mg20  1  0.36521700  0.01404300  0.31522600  1
  Mg  Mg21  1  0.60266900  0.20247400  0.37542400  1
  Mg  Mg22  1  0.11194100  0.89460000  0.38217800  1
  Mg  Mg23  1  0.13980500  0.05832600  0.35441800  1
  Mg  Mg24  1  0.01823100  0.36940500  0.47022900  1
  Mg  Mg25  1  0.27150700  0.48884800  0.40327600  1
  Mg  Mg26  1  0.89572200  0.93362600  0.48694600  1
  Mg  Mg27  1  0.08886700  0.24857600  0.40599700  1
  Mg  Mg28  1  0.22593500  0.65446100  0.45761900  1
  Mg  Mg29  1  0.78077900  0.18097400  0.41003000  1
  Mg  Mg30  1  0.00997000  0.71489000  0.49243800  1
  Mg  Mg31  1  0.39458100  0.23487200  0.47945700  1
  Mg  Mg32  1  0.90611900  0.58657200  0.46375900  1
  Mg  Mg33  1  0.25751300  0.82898700  0.42783500  1
  Mg  Mg34  1  0.68772600  0.64982200  0.49850800  1
  Mg  Mg35  1  0.57732900  0.89687700  0.42169500  1
  Mg  Mg36  1  0.24364300  0.32512200  0.43103700  1
  Mg  Mg37  1  0.89616800  0.96340000  0.41557500  1
  Mg  Mg38  1  0.58728000  0.52004800  0.46988000  1
  Mg  Mg39  1  0.57347800  0.86855800  0.49301700  1
  Mg  Mg40  1  0.46521700  0.11404300  0.41522600  1
  Mg  Mg41  1  0.70266900  0.30247400  0.47542400  1
  Mg  Mg42  1  0.21194100  0.99460000  0.48217800  1
  Mg  Mg43  1  0.23980500  0.15832600  0.45441800  1
  Mg  Mg44  1  0.11823100  0.46940500  0.57022900  1
  Mg  Mg45  1  0.37150700  0.58884800  0.50327600  1
  Mg  Mg46  1  0.99572200  0.03362600  0.58694600  1
  Mg  Mg47  1  0.18886700  0.34857600  0.50599700  1
  Mg  Mg48  1  0.32593500  0.75446100  0.55761900  1
  Mg  Mg49  1  0.88077900  0.28097400  0.51003000  1
  Mg  Mg50  1  0.10997000  0.81489000  0.59243800  1
  Mg  Mg51  1  0.49458100  0.33487200  0.57945700  1
  Mg  Mg52  1  0.00611900  0.68657200  0.56375900  1
  Mg  Mg53  1  0.35751300  0.92898700  0.52783500  1
  Mg  Mg54  1  0.78772600  0.74982200  0.59850800  1
  Mg  Mg55  1  0.67732900  0.99687700  0.52169500  1
  Mg  Mg56  1  0.34364300  0.42512200  0.53103700  1
  Mg  Mg57  1  0.99616800  0.06340000  0.51557500  1
  Mg  Mg58  1  0.68728000  0.62004800  0.56988000  1
  Mg  Mg59  1  0.67347800  0.96855800  0.59301700  1
  Mg  Mg60  1  0.56521700  0.21404300  0.51522600  1
  Mg  Mg61  1  0.80266900  0.40247400  0.57542400  1
  Mg  Mg62  1  0.31194100  0.09460000  0.58217800  1
  Mg  Mg63  1  0.33980500  0.25832600  0.55441800  1
  Mg  Mg64  1  0.21823100  0.56940500  0.67022900  1
  Mg  Mg65  1  0.47150700  0.68884800  0.60327600  1
  Mg  Mg66  1  0.09572200  0.13362600  0.68694600  1
  Mg  Mg67  1  0.28886700  0.44857600  0.60599700  1
  Mg  Mg68  1  0.42593500  0.85446100  0.65761900  1
  Mg  Mg69  1  0.98077900  0.38097400  0.61003000  1
  Mg  Mg70  1  0.20997000  0.91489000  0.69243800  1
  Mg  Mg71  1  0.59458100  0.43487200  0.67945700  1
  Mg  Mg72  1  0.10611900  0.78657200  0.66375900  1
  Mg  Mg73  1  0.45751300  0.02898700  0.62783500  1
  Mg  Mg74  1  0.88772600  0.84982200  0.69850800  1
  Mg  Mg75  1  0.77732900  0.09687700  0.62169500  1
  Mg  Mg76  1  0.44364300  0.52512200  0.63103700  1
  Mg  Mg77  1  0.09616800  0.16340000  0.61557500  1
  Mg  Mg78  1  0.78728000  0.72004800  0.66988000  1
  Mg  Mg79  1  0.77347800  0.06855800  0.69301700  1
  Mg  Mg80  1  0.66521700  0.31404300  0.61522600  1
  Mg  Mg81  1  0.90266900  0.50247400  0.67542400  1
  Mg  Mg82  1  0.41194100  0.19460000  0.68217800  1
  Mg  Mg83  1  0.43980500  0.35832600  0.65441800  1
  Mg  Mg84  1  0.31823100  0.66940500  0.77022900  1
  Mg  Mg85  1  0.57150700  0.78884800  0.70327600  1
  Mg  Mg86  1  0.19572200  0.23362600  0.78694600  1
  Mg  Mg87  1  0.38886700  0.54857600  0.70599700  1
  Mg  Mg88  1  0.52593500  0.95446100  0.75761900  1
  Mg  Mg89  1  0.08077900  0.48097400  0.71003000  1
  Mg  Mg90  1  0.30997000  0.01489000  0.79243800  1
  Mg  Mg91  1  0.69458100  0.53487200  0.77945700  1
  Mg  Mg92  1  0.20611900  0.88657200  0.76375900  1
  Mg  Mg93  1  0.55751300  0.12898700  0.72783500  1
  Mg  Mg94  1  0.98772600  0.94982200  0.79850800  1
  Mg  Mg95  1  0.87732900  0.19687700  0.72169500  1
  Mg  Mg96  1  0.54364300  0.62512200  0.73103700  1
  Mg  Mg97  1  0.19616800  0.26340000  0.71557500  1
  Mg  Mg98  1  0.88728000  0.82004800  0.76988000  1
  Mg  Mg99  1  0.87347800  0.16855800  0.79301700  1
  Mg  Mg100  1  0.76521700  0.41404300  0.71522600  1
  Mg  Mg101  1  0.00266900  0.60247400  0.77542400  1
  Mg  Mg102  1  0.51194100  0.29460000  0.78217800  1
  Mg  Mg103  1  0.53980500  0.45832600  0.75441800  1
  Zn  Zn104  1  0.59172400  0.59172400  0.29272700  1
  Zn  Zn105  1  0.90677900  0.66259800  0.28672400  1
  Zn  Zn106  1  0.27666900  0.52085000  0.29873000  1
  Zn  Zn107  1  0.09172400  0.59172400  0.29272700  1
  Zn  Zn108  1  0.97236700  0.53087200  0.32416500  1
  Zn  Zn109  1  0.20378400  0.35063900  0.36902900  1
  Zn  Zn110  1  0.64491100  0.46847000  0.33232500  1
  Zn  Zn111  1  0.31451600  0.92147400  0.37078800  1
  Zn  Zn112  1  0.32569700  0.57036700  0.34813500  1
  Zn  Zn113  1  0.02193200  0.41210300  0.36357500  1
  Zn  Zn114  1  0.69172400  0.69172400  0.39272700  1
  Zn  Zn115  1  0.31108100  0.75257600  0.36128900  1
  Zn  Zn116  1  0.49681800  0.25894400  0.32285300  1
  Zn  Zn117  1  0.00677900  0.76259800  0.38672400  1
  Zn  Zn118  1  0.65007300  0.29472300  0.32020300  1
  Zn  Zn119  1  0.79794700  0.17593800  0.34013800  1
  Zn  Zn120  1  0.80190600  0.67256500  0.33996800  1
  Zn  Zn121  1  0.95653300  0.88009200  0.34871800  1
  Zn  Zn122  1  0.07966400  0.93280900  0.31642500  1
  Zn  Zn123  1  0.78663000  0.02450400  0.36260100  1
  Zn  Zn124  1  0.94765700  0.05970400  0.36036400  1
  Zn  Zn125  1  0.37666900  0.62085000  0.39873000  1
  Zn  Zn126  1  0.26151600  0.87134500  0.32188000  1
  Zn  Zn127  1  0.48154200  0.61088300  0.34548700  1
  Zn  Zn128  1  0.33579100  0.22374400  0.32509100  1
  Zn  Zn129  1  0.95775200  0.71308100  0.33732000  1
  Zn  Zn130  1  0.64172400  0.64172400  0.34272700  1
  Zn  Zn131  1  0.81217900  0.33051600  0.31605700  1
  Zn  Zn132  1  0.69925300  0.34488200  0.37088800  1
  Zn  Zn133  1  0.89838000  0.00960400  0.30844600  1
  Zn  Zn134  1  0.47126900  0.95293200  0.36939700  1
  Zn  Zn135  1  0.38506800  0.27384400  0.37700900  1
  Zn  Zn136  1  0.32691500  0.40335700  0.33673700  1
  Zn  Zn137  1  0.58419500  0.93856600  0.31456700  1
  Zn  Zn138  1  0.96893200  0.36197400  0.31466700  1
  Zn  Zn139  1  0.19172400  0.69172400  0.39272700  1
  Zn  Zn140  1  0.63337500  0.98872500  0.36525200  1
  Zn  Zn141  1  0.48550100  0.10751000  0.34531700  1
  Zn  Zn142  1  0.63853700  0.81497800  0.35312900  1
  Zn  Zn143  1  0.07236700  0.63087200  0.42416500  1
  Zn  Zn144  1  0.30378400  0.45063900  0.46902900  1
  Zn  Zn145  1  0.74491100  0.56847000  0.43232500  1
  Zn  Zn146  1  0.41451600  0.02147400  0.47078800  1
  Zn  Zn147  1  0.42569700  0.67036700  0.44813500  1
  Zn  Zn148  1  0.12193200  0.51210300  0.46357500  1
  Zn  Zn149  1  0.79172400  0.79172400  0.49272700  1
  Zn  Zn150  1  0.41108100  0.85257600  0.46128900  1
  Zn  Zn151  1  0.59681800  0.35894400  0.42285300  1
  Zn  Zn152  1  0.10677900  0.86259800  0.48672400  1
  Zn  Zn153  1  0.75007300  0.39472300  0.42020300  1
  Zn  Zn154  1  0.89794700  0.27593800  0.44013800  1
  Zn  Zn155  1  0.90190600  0.77256500  0.43996800  1
  Zn  Zn156  1  0.05653300  0.98009200  0.44871800  1
  Zn  Zn157  1  0.17966400  0.03280900  0.41642500  1
  Zn  Zn158  1  0.88663000  0.12450400  0.46260100  1
  Zn  Zn159  1  0.04765700  0.15970400  0.46036400  1
  Zn  Zn160  1  0.47666900  0.72085000  0.49873000  1
  Zn  Zn161  1  0.36151600  0.97134500  0.42188000  1
  Zn  Zn162  1  0.58154200  0.71088300  0.44548700  1
  Zn  Zn163  1  0.43579100  0.32374400  0.42509100  1
  Zn  Zn164  1  0.05775200  0.81308100  0.43732000  1
  Zn  Zn165  1  0.74172400  0.74172400  0.44272700  1
  Zn  Zn166  1  0.91217900  0.43051600  0.41605700  1
  Zn  Zn167  1  0.79925300  0.44488200  0.47088800  1
  Zn  Zn168  1  0.99838000  0.10960400  0.40844600  1
  Zn  Zn169  1  0.57126900  0.05293200  0.46939700  1
  Zn  Zn170  1  0.48506800  0.37384400  0.47700900  1
  Zn  Zn171  1  0.42691500  0.50335700  0.43673700  1
  Zn  Zn172  1  0.68419500  0.03856600  0.41456700  1
  Zn  Zn173  1  0.06893200  0.46197400  0.41466700  1
  Zn  Zn174  1  0.29172400  0.79172400  0.49272700  1
  Zn  Zn175  1  0.73337500  0.08872500  0.46525200  1
  Zn  Zn176  1  0.58550100  0.20751000  0.44531700  1
  Zn  Zn177  1  0.73853700  0.91497800  0.45312900  1
  Zn  Zn178  1  0.17236700  0.73087200  0.52416500  1
  Zn  Zn179  1  0.40378400  0.55063900  0.56902900  1
  Zn  Zn180  1  0.84491100  0.66847000  0.53232500  1
  Zn  Zn181  1  0.51451600  0.12147400  0.57078800  1
  Zn  Zn182  1  0.52569700  0.77036700  0.54813500  1
  Zn  Zn183  1  0.22193200  0.61210300  0.56357500  1
  Zn  Zn184  1  0.89172400  0.89172400  0.59272700  1
  Zn  Zn185  1  0.51108100  0.95257600  0.56128900  1
  Zn  Zn186  1  0.69681800  0.45894400  0.52285300  1
  Zn  Zn187  1  0.20677900  0.96259800  0.58672400  1
  Zn  Zn188  1  0.85007300  0.49472300  0.52020300  1
  Zn  Zn189  1  0.99794700  0.37593800  0.54013800  1
  Zn  Zn190  1  0.00190600  0.87256500  0.53996800  1
  Zn  Zn191  1  0.15653300  0.08009200  0.54871800  1
  Zn  Zn192  1  0.27966400  0.13280900  0.51642500  1
  Zn  Zn193  1  0.98663000  0.22450400  0.56260100  1
  Zn  Zn194  1  0.14765700  0.25970400  0.56036400  1
  Zn  Zn195  1  0.57666900  0.82085000  0.59873000  1
  Zn  Zn196  1  0.46151600  0.07134500  0.52188000  1
  Zn  Zn197  1  0.68154200  0.81088300  0.54548700  1
  Zn  Zn198  1  0.53579100  0.42374400  0.52509100  1
  Zn  Zn199  1  0.15775200  0.91308100  0.53732000  1
  Zn  Zn200  1  0.84172400  0.84172400  0.54272700  1
  Zn  Zn201  1  0.01217900  0.53051600  0.51605700  1
  Zn  Zn202  1  0.89925300  0.54488200  0.57088800  1
  Zn  Zn203  1  0.09838000  0.20960400  0.50844600  1
  Zn  Zn204  1  0.67126900  0.15293200  0.56939700  1
  Zn  Zn205  1  0.58506800  0.47384400  0.57700900  1
  Zn  Zn206  1  0.52691500  0.60335700  0.53673700  1
  Zn  Zn207  1  0.78419500  0.13856600  0.51456700  1
  Zn  Zn208  1  0.16893200  0.56197400  0.51466700  1
  Zn  Zn209  1  0.39172400  0.89172400  0.59272700  1
  Zn  Zn210  1  0.83337500  0.18872500  0.56525200  1
  Zn  Zn211  1  0.68550100  0.30751000  0.54531700  1
  Zn  Zn212  1  0.83853700  0.01497800  0.55312900  1
  Zn  Zn213  1  0.27236700  0.83087200  0.62416500  1
  Zn  Zn214  1  0.50378400  0.65063900  0.66902900  1
  Zn  Zn215  1  0.94491100  0.76847000  0.63232500  1
  Zn  Zn216  1  0.61451600  0.22147400  0.67078800  1
  Zn  Zn217  1  0.62569700  0.87036700  0.64813500  1
  Zn  Zn218  1  0.32193200  0.71210300  0.66357500  1
  Zn  Zn219  1  0.99172400  0.99172400  0.69272700  1
  Zn  Zn220  1  0.61108100  0.05257600  0.66128900  1
  Zn  Zn221  1  0.79681800  0.55894400  0.62285300  1
  Zn  Zn222  1  0.30677900  0.06259800  0.68672400  1
  Zn  Zn223  1  0.95007300  0.59472300  0.62020300  1
  Zn  Zn224  1  0.09794700  0.47593800  0.64013800  1
  Zn  Zn225  1  0.10190600  0.97256500  0.63996800  1
  Zn  Zn226  1  0.25653300  0.18009200  0.64871800  1
  Zn  Zn227  1  0.37966400  0.23280900  0.61642500  1
  Zn  Zn228  1  0.08663000  0.32450400  0.66260100  1
  Zn  Zn229  1  0.24765700  0.35970400  0.66036400  1
  Zn  Zn230  1  0.67666900  0.92085000  0.69873000  1
  Zn  Zn231  1  0.56151600  0.17134500  0.62188000  1
  Zn  Zn232  1  0.78154200  0.91088300  0.64548700  1
  Zn  Zn233  1  0.63579100  0.52374400  0.62509100  1
  Zn  Zn234  1  0.25775200  0.01308100  0.63732000  1
  Zn  Zn235  1  0.94172400  0.94172400  0.64272700  1
  Zn  Zn236  1  0.11217900  0.63051600  0.61605700  1
  Zn  Zn237  1  0.99925300  0.64488200  0.67088800  1
  Zn  Zn238  1  0.19838000  0.30960400  0.60844600  1
  Zn  Zn239  1  0.77126900  0.25293200  0.66939700  1
  Zn  Zn240  1  0.68506800  0.57384400  0.67700900  1
  Zn  Zn241  1  0.62691500  0.70335700  0.63673700  1
  Zn  Zn242  1  0.88419500  0.23856600  0.61456700  1
  Zn  Zn243  1  0.26893200  0.66197400  0.61466700  1
  Zn  Zn244  1  0.49172400  0.99172400  0.69272700  1
  Zn  Zn245  1  0.93337500  0.28872500  0.66525200  1
  Zn  Zn246  1  0.78550100  0.40751000  0.64531700  1
  Zn  Zn247  1  0.93853700  0.11497800  0.65312900  1
  Zn  Zn248  1  0.37236700  0.93087200  0.72416500  1
  Zn  Zn249  1  0.60378400  0.75063900  0.76902900  1
  Zn  Zn250  1  0.04491100  0.86847000  0.73232500  1
  Zn  Zn251  1  0.71451600  0.32147400  0.77078800  1
  Zn  Zn252  1  0.72569700  0.97036700  0.74813500  1
  Zn  Zn253  1  0.42193200  0.81210300  0.76357500  1
  Zn  Zn254  1  0.09172400  0.09172400  0.79272700  1
  Zn  Zn255  1  0.71108100  0.15257600  0.76128900  1
  Zn  Zn256  1  0.89681800  0.65894400  0.72285300  1
  Zn  Zn257  1  0.40677900  0.16259800  0.78672400  1
  Zn  Zn258  1  0.05007300  0.69472300  0.72020300  1
  Zn  Zn259  1  0.19794700  0.57593800  0.74013800  1
  Zn  Zn260  1  0.20190600  0.07256500  0.73996800  1
  Zn  Zn261  1  0.35653300  0.28009200  0.74871800  1
  Zn  Zn262  1  0.47966400  0.33280900  0.71642500  1
  Zn  Zn263  1  0.18663000  0.42450400  0.76260100  1
  Zn  Zn264  1  0.34765700  0.45970400  0.76036400  1
  Zn  Zn265  1  0.77666900  0.02085000  0.79873000  1
  Zn  Zn266  1  0.66151600  0.27134500  0.72188000  1
  Zn  Zn267  1  0.88154200  0.01088300  0.74548700  1
  Zn  Zn268  1  0.73579100  0.62374400  0.72509100  1
  Zn  Zn269  1  0.35775200  0.11308100  0.73732000  1
  Zn  Zn270  1  0.04172400  0.04172400  0.74272700  1
  Zn  Zn271  1  0.21217900  0.73051600  0.71605700  1
  Zn  Zn272  1  0.09925300  0.74488200  0.77088800  1
  Zn  Zn273  1  0.29838000  0.40960400  0.70844600  1
  Zn  Zn274  1  0.87126900  0.35293200  0.76939700  1
  Zn  Zn275  1  0.78506800  0.67384400  0.77700900  1
  Zn  Zn276  1  0.72691500  0.80335700  0.73673700  1
  Zn  Zn277  1  0.98419500  0.33856600  0.71456700  1
  Zn  Zn278  1  0.36893200  0.76197400  0.71466700  1
  Zn  Zn279  1  0.59172400  0.09172400  0.79272700  1
  Zn  Zn280  1  0.03337500  0.38872500  0.76525200  1
  Zn  Zn281  1  0.88550100  0.50751000  0.74531700  1
  Zn  Zn282  1  0.03853700  0.21497800  0.75312900  1
