# generated using pymatgen
data_Mg10Zn19
_symmetry_space_group_name_H-M   'P 1'
_cell_length_a   5.07402260
_cell_length_b   13.26606241
_cell_length_c   57.00757700
_cell_angle_alpha   92.18610401
_cell_angle_beta   87.66012493
_cell_angle_gamma   100.62858194
_symmetry_Int_Tables_number   1
_chemical_formula_structural   Mg10Zn19
_chemical_formula_sum   'Mg30 Zn57'
_cell_volume   3766.49990850
_cell_formula_units_Z   3
loop_
 _symmetry_equiv_pos_site_id
 _symmetry_equiv_pos_as_xyz
  1  'x, y, z'
loop_
 _atom_site_type_symbol
 _atom_site_label
 _atom_site_symmetry_multiplicity
 _atom_site_fract_x
 _atom_site_fract_y
 _atom_site_fract_z
 _atom_site_occupancy
  Mg  Mg0  1  0.22012100  0.59332500  0.40222800  1
  Mg  Mg1  1  0.77001500  0.71404300  0.41637700  1
  Mg  Mg2  1  0.09553200  0.38401300  0.43428600  1
  Mg  Mg3  1  0.86853500  0.92450600  0.43816800  1
  Mg  Mg4  1  0.35125200  0.85665600  0.40350100  1
  Mg  Mg5  1  0.09758300  0.43807900  0.49006500  1
  Mg  Mg6  1  0.54096600  0.20047100  0.36448000  1
  Mg  Mg7  1  0.41842800  0.04522400  0.45231800  1
  Mg  Mg8  1  0.54301800  0.25453700  0.42025900  1
  Mg  Mg9  1  0.28729700  0.78189400  0.45104500  1
  Mg  Mg10  1  0.97012100  0.34332500  0.65222800  1
  Mg  Mg11  1  0.17962100  0.71015300  0.60562900  1
  Mg  Mg12  1  0.53154500  0.34097500  0.51535200  1
  Mg  Mg13  1  0.52001500  0.46404300  0.66637700  1
  Mg  Mg14  1  0.65265200  0.63805500  0.57781100  1
  Mg  Mg15  1  0.84553200  0.13401300  0.68428600  1
  Mg  Mg16  1  0.53604100  0.39367400  0.57140900  1
  Mg  Mg17  1  0.61853500  0.67450600  0.68816800  1
  Mg  Mg18  1  0.97273100  0.29359200  0.59631900  1
  Mg  Mg19  1  0.73589700  0.75049400  0.52673400  1
  Mg  Mg20  1  0.85700400  0.04757500  0.58919300  1
  Mg  Mg21  1  0.41581900  0.09495700  0.50822700  1
  Mg  Mg22  1  0.10125200  0.60665600  0.65350100  1
  Mg  Mg23  1  0.84758300  0.18807900  0.74006500  1
  Mg  Mg24  1  0.29096600  0.95047100  0.61448000  1
  Mg  Mg25  1  0.85250900  0.99487600  0.53313700  1
  Mg  Mg26  1  0.16842800  0.79522400  0.70231800  1
  Mg  Mg27  1  0.29301800  0.00453700  0.67025900  1
  Mg  Mg28  1  0.20892800  0.67839700  0.49891600  1
  Mg  Mg29  1  0.03729700  0.53189400  0.70104500  1
  Zn  Zn30  1  0.88353600  0.90068500  0.38162000  1
  Zn  Zn31  1  0.08017000  0.90192900  0.48935000  1
  Zn  Zn32  1  0.06429000  0.74101800  0.36489000  1
  Zn  Zn33  1  0.04022600  0.22851600  0.39299900  1
  Zn  Zn34  1  0.88200100  0.39402900  0.38339200  1
  Zn  Zn35  1  0.65875700  0.48728800  0.41807200  1
  Zn  Zn36  1  0.65127000  0.56118800  0.49417800  1
  Zn  Zn37  1  0.75501300  0.73786400  0.47292600  1
  Zn  Zn38  1  0.59832400  0.41003400  0.46154600  1
  Zn  Zn39  1  0.42935600  0.58265700  0.45218700  1
  Zn  Zn40  1  0.57425900  0.89753100  0.48965600  1
  Zn  Zn41  1  0.20919300  0.05589200  0.40235800  1
  Zn  Zn42  1  0.72725300  0.57026500  0.37340700  1
  Zn  Zn43  1  0.37705500  0.39239300  0.38352300  1
  Zn  Zn44  1  0.94453100  0.58575300  0.45173200  1
  Zn  Zn45  1  0.91129600  0.06828400  0.48113800  1
  Zn  Zn46  1  0.69401900  0.05279700  0.40281300  1
  Zn  Zn47  1  0.98728000  0.07736200  0.36036700  1
  Zn  Zn48  1  0.26149500  0.24615700  0.47102200  1
  Zn  Zn49  1  0.55837900  0.73662100  0.36519500  1
  Zn  Zn50  1  0.75654800  0.24452000  0.47115400  1
  Zn  Zn51  1  0.97979200  0.15126100  0.43647400  1
  Zn  Zn52  1  0.09990600  0.52040800  0.57534500  1
  Zn  Zn53  1  0.63353600  0.65068500  0.63162000  1
  Zn  Zn54  1  0.40684300  0.16715000  0.59298600  1
  Zn  Zn55  1  0.83017000  0.65192900  0.73935000  1
  Zn  Zn56  1  0.51920900  0.85364900  0.57146400  1
  Zn  Zn57  1  0.81429000  0.49101800  0.61489000  1
  Zn  Zn58  1  0.69427500  0.19427500  0.55227300  1
  Zn  Zn59  1  0.28864300  0.86814200  0.52920000  1
  Zn  Zn60  1  0.79022600  0.97851600  0.64299900  1
  Zn  Zn61  1  0.37559000  0.53455200  0.53305300  1
  Zn  Zn62  1  0.63200100  0.14402900  0.63339200  1
  Zn  Zn63  1  0.40875700  0.23728800  0.66807200  1
  Zn  Zn64  1  0.03373000  0.36561700  0.54387200  1
  Zn  Zn65  1  0.40127000  0.31118800  0.74417800  1
  Zn  Zn66  1  0.50501300  0.48786400  0.72292600  1
  Zn  Zn67  1  0.34832400  0.16003400  0.71154600  1
  Zn  Zn68  1  0.17935600  0.33265700  0.70218700  1
  Zn  Zn69  1  0.01295900  0.85399800  0.57149200  1
  Zn  Zn70  1  0.32425900  0.64753100  0.73965600  1
  Zn  Zn71  1  0.35481900  0.02293300  0.56067300  1
  Zn  Zn72  1  0.95919300  0.80589200  0.65235800  1
  Zn  Zn73  1  0.86934000  0.53490100  0.53308200  1
  Zn  Zn74  1  0.19427500  0.19427500  0.55227300  1
  Zn  Zn75  1  0.47725300  0.32026500  0.62340700  1
  Zn  Zn76  1  0.12705500  0.14239300  0.63352300  1
  Zn  Zn77  1  0.69453100  0.33575300  0.70173200  1
  Zn  Zn78  1  0.66129600  0.81828400  0.73113800  1
  Zn  Zn79  1  0.44401900  0.80279700  0.65281300  1
  Zn  Zn80  1  0.73728000  0.82736200  0.61036700  1
  Zn  Zn81  1  0.01149500  0.99615700  0.72102200  1
  Zn  Zn82  1  0.30837900  0.48662100  0.61519500  1
  Zn  Zn83  1  0.19427500  0.69427500  0.55227300  1
  Zn  Zn84  1  0.50654800  0.99452000  0.72115400  1
  Zn  Zn85  1  0.72979200  0.90126100  0.68647400  1
  Zn  Zn86  1  0.98170600  0.22139900  0.51156000  1
