# generated using pymatgen
data_Mg9Cu8
_symmetry_space_group_name_H-M   'P 1'
_cell_length_a   3.18550300
_cell_length_b   3.18550301
_cell_length_c   43.08632300
_cell_angle_alpha   90.00000000
_cell_angle_beta   90.00000000
_cell_angle_gamma   90.00334547
_symmetry_Int_Tables_number   1
_chemical_formula_structural   Mg9Cu8
_chemical_formula_sum   'Mg9 Cu8'
_cell_volume   437.21541915
_cell_formula_units_Z   1
loop_
 _symmetry_equiv_pos_site_id
 _symmetry_equiv_pos_as_xyz
  1  'x, y, z'
loop_
 _atom_site_type_symbol
 _atom_site_label
 _atom_site_symmetry_multiplicity
 _atom_site_fract_x
 _atom_site_fract_y
 _atom_site_fract_z
 _atom_site_occupancy
  Mg  Mg0  1  0.00000000  0.50000000  0.80357100  1
  Mg  Mg1  1  0.00000000  0.50000000  0.73214300  1
  Mg  Mg2  1  0.00000000  0.50000000  0.66071400  1
  Mg  Mg3  1  0.00000000  0.50000000  0.58928600  1
  Mg  Mg4  1  0.00000000  0.50000000  0.51785700  1
  Mg  Mg5  1  0.00000000  0.50000000  0.44642900  1
  Mg  Mg6  1  1.00000000  0.50000000  0.37500000  1
  Mg  Mg7  1  0.00000000  0.50000000  0.30357100  1
  Mg  Mg8  1  1.00000000  0.50000000  0.23214300  1
  Cu  Cu9  1  0.50000000  0.00000000  0.76785700  1
  Cu  Cu10  1  0.50000000  0.00000000  0.69642900  1
  Cu  Cu11  1  0.50000000  0.00000000  0.62500000  1
  Cu  Cu12  1  0.50000000  0.00000000  0.55357100  1
  Cu  Cu13  1  0.50000000  0.00000000  0.48214300  1
  Cu  Cu14  1  0.50000000  0.00000000  0.41071400  1
  Cu  Cu15  1  0.50000000  0.00000000  0.33928600  1
  Cu  Cu16  1  0.50000000  0.00000000  0.26785700  1
