# generated using pymatgen
data_Mg8Pb7
_symmetry_space_group_name_H-M   'P 1'
_cell_length_a   5.22762700
_cell_length_b   5.88306200
_cell_length_c   45.18264300
_cell_angle_alpha   90.00000000
_cell_angle_beta   90.00000000
_cell_angle_gamma   90.00000000
_symmetry_Int_Tables_number   1
_chemical_formula_structural   Mg8Pb7
_chemical_formula_sum   'Mg16 Pb14'
_cell_volume   1389.56750462
_cell_formula_units_Z   2
loop_
 _symmetry_equiv_pos_site_id
 _symmetry_equiv_pos_as_xyz
  1  'x, y, z'
loop_
 _atom_site_type_symbol
 _atom_site_label
 _atom_site_symmetry_multiplicity
 _atom_site_fract_x
 _atom_site_fract_y
 _atom_site_fract_z
 _atom_site_occupancy
  Mg  Mg0  1  0.75000000  0.18354700  0.21153800  1
  Mg  Mg1  1  0.25000000  0.81645300  0.21153800  1
  Mg  Mg2  1  0.75000000  0.18354700  0.28846200  1
  Mg  Mg3  1  0.25000000  0.81645300  0.28846200  1
  Mg  Mg4  1  0.75000000  0.18354700  0.36538500  1
  Mg  Mg5  1  0.25000000  0.81645300  0.36538500  1
  Mg  Mg6  1  0.75000000  0.18354700  0.44230800  1
  Mg  Mg7  1  0.25000000  0.81645300  0.44230800  1
  Mg  Mg8  1  0.75000000  0.18354700  0.51923100  1
  Mg  Mg9  1  0.25000000  0.81645300  0.51923100  1
  Mg  Mg10  1  0.75000000  0.18354700  0.59615400  1
  Mg  Mg11  1  0.25000000  0.81645300  0.59615400  1
  Mg  Mg12  1  0.75000000  0.18354700  0.67307700  1
  Mg  Mg13  1  0.25000000  0.81645300  0.67307700  1
  Mg  Mg14  1  0.75000000  0.18354700  0.75000000  1
  Mg  Mg15  1  0.25000000  0.81645300  0.75000000  1
  Pb  Pb16  1  0.75000000  0.70601700  0.25000000  1
  Pb  Pb17  1  0.25000000  0.29398300  0.25000000  1
  Pb  Pb18  1  0.75000000  0.70601700  0.32692300  1
  Pb  Pb19  1  0.25000000  0.29398300  0.32692300  1
  Pb  Pb20  1  0.75000000  0.70601700  0.40384600  1
  Pb  Pb21  1  0.25000000  0.29398300  0.40384600  1
  Pb  Pb22  1  0.75000000  0.70601700  0.48076900  1
  Pb  Pb23  1  0.25000000  0.29398300  0.48076900  1
  Pb  Pb24  1  0.75000000  0.70601700  0.55769200  1
  Pb  Pb25  1  0.25000000  0.29398300  0.55769200  1
  Pb  Pb26  1  0.75000000  0.70601700  0.63461500  1
  Pb  Pb27  1  0.25000000  0.29398300  0.63461500  1
  Pb  Pb28  1  0.75000000  0.70601700  0.71153800  1
  Pb  Pb29  1  0.25000000  0.29398300  0.71153800  1
