# generated using pymatgen
data_MgCd2
_symmetry_space_group_name_H-M   'P 1'
_cell_length_a   3.10433600
_cell_length_b   17.22734645
_cell_length_c   49.77638600
_cell_angle_alpha   91.61502969
_cell_angle_beta   90.00000000
_cell_angle_gamma   90.00000000
_symmetry_Int_Tables_number   1
_chemical_formula_structural   MgCd2
_chemical_formula_sum   'Mg24 Cd48'
_cell_volume   2660.95736199
_cell_formula_units_Z   24
loop_
 _symmetry_equiv_pos_site_id
 _symmetry_equiv_pos_as_xyz
  1  'x, y, z'
loop_
 _atom_site_type_symbol
 _atom_site_label
 _atom_site_symmetry_multiplicity
 _atom_site_fract_x
 _atom_site_fract_y
 _atom_site_fract_z
 _atom_site_occupancy
  Mg  Mg0  1  0.00000000  0.95138600  0.26095700  1
  Mg  Mg1  1  0.50000000  0.64861400  0.23904300  1
  Mg  Mg2  1  0.50000000  0.40138600  0.21095700  1
  Mg  Mg3  1  0.00000000  0.19861400  0.28904300  1
  Mg  Mg4  1  0.00000000  0.05138600  0.36095700  1
  Mg  Mg5  1  0.50000000  0.74861400  0.33904300  1
  Mg  Mg6  1  0.50000000  0.50138600  0.31095700  1
  Mg  Mg7  1  1.00000000  0.29861400  0.38904300  1
  Mg  Mg8  1  0.00000000  0.15138600  0.46095700  1
  Mg  Mg9  1  0.50000000  0.84861400  0.43904300  1
  Mg  Mg10  1  0.50000000  0.60138600  0.41095700  1
  Mg  Mg11  1  0.00000000  0.39861400  0.48904300  1
  Mg  Mg12  1  0.00000000  0.25138600  0.56095700  1
  Mg  Mg13  1  0.50000000  0.94861400  0.53904300  1
  Mg  Mg14  1  0.50000000  0.70138600  0.51095700  1
  Mg  Mg15  1  1.00000000  0.49861400  0.58904300  1
  Mg  Mg16  1  0.00000000  0.35138600  0.66095700  1
  Mg  Mg17  1  0.50000000  0.04861400  0.63904300  1
  Mg  Mg18  1  0.50000000  0.80138600  0.61095700  1
  Mg  Mg19  1  0.00000000  0.59861400  0.68904300  1
  Mg  Mg20  1  0.00000000  0.45138600  0.76095700  1
  Mg  Mg21  1  0.50000000  0.14861400  0.73904300  1
  Mg  Mg22  1  0.50000000  0.90138600  0.71095700  1
  Mg  Mg23  1  0.00000000  0.69861400  0.78904300  1
  Cd  Cd24  1  0.00000000  0.65087400  0.29434700  1
  Cd  Cd25  1  0.50000000  0.80133800  0.27762900  1
  Cd  Cd26  1  1.00000000  0.79866200  0.22237100  1
  Cd  Cd27  1  0.50000000  0.94912600  0.20565300  1
  Cd  Cd28  1  0.50000000  0.10087400  0.24434700  1
  Cd  Cd29  1  1.00000000  0.25133800  0.22762900  1
  Cd  Cd30  1  0.50000000  0.34866200  0.27237100  1
  Cd  Cd31  1  0.00000000  0.49912600  0.25565300  1
  Cd  Cd32  1  1.00000000  0.75087400  0.39434700  1
  Cd  Cd33  1  0.50000000  0.90133800  0.37762900  1
  Cd  Cd34  1  0.00000000  0.89866200  0.32237100  1
  Cd  Cd35  1  0.50000000  0.04912600  0.30565300  1
  Cd  Cd36  1  0.50000000  0.20087400  0.34434700  1
  Cd  Cd37  1  0.00000000  0.35133800  0.32762900  1
  Cd  Cd38  1  0.50000000  0.44866200  0.37237100  1
  Cd  Cd39  1  0.00000000  0.59912600  0.35565300  1
  Cd  Cd40  1  0.00000000  0.85087400  0.49434700  1
  Cd  Cd41  1  0.50000000  0.00133800  0.47762900  1
  Cd  Cd42  1  0.00000000  0.99866200  0.42237100  1
  Cd  Cd43  1  0.50000000  0.14912600  0.40565300  1
  Cd  Cd44  1  0.50000000  0.30087400  0.44434700  1
  Cd  Cd45  1  0.00000000  0.45133800  0.42762900  1
  Cd  Cd46  1  0.50000000  0.54866200  0.47237100  1
  Cd  Cd47  1  0.00000000  0.69912600  0.45565300  1
  Cd  Cd48  1  0.00000000  0.95087400  0.59434700  1
  Cd  Cd49  1  0.50000000  0.10133800  0.57762900  1
  Cd  Cd50  1  1.00000000  0.09866200  0.52237100  1
  Cd  Cd51  1  0.50000000  0.24912600  0.50565300  1
  Cd  Cd52  1  0.50000000  0.40087400  0.54434700  1
  Cd  Cd53  1  1.00000000  0.55133800  0.52762900  1
  Cd  Cd54  1  0.50000000  0.64866200  0.57237100  1
  Cd  Cd55  1  0.00000000  0.79912600  0.55565300  1
  Cd  Cd56  1  0.00000000  0.05087400  0.69434700  1
  Cd  Cd57  1  0.50000000  0.20133800  0.67762900  1
  Cd  Cd58  1  0.00000000  0.19866200  0.62237100  1
  Cd  Cd59  1  0.50000000  0.34912600  0.60565300  1
  Cd  Cd60  1  0.50000000  0.50087400  0.64434700  1
  Cd  Cd61  1  1.00000000  0.65133800  0.62762900  1
  Cd  Cd62  1  0.50000000  0.74866200  0.67237100  1
  Cd  Cd63  1  0.00000000  0.89912600  0.65565300  1
  Cd  Cd64  1  0.00000000  0.15087400  0.79434700  1
  Cd  Cd65  1  0.50000000  0.30133800  0.77762900  1
  Cd  Cd66  1  0.00000000  0.29866200  0.72237100  1
  Cd  Cd67  1  0.50000000  0.44912600  0.70565300  1
  Cd  Cd68  1  0.50000000  0.60087400  0.74434700  1
  Cd  Cd69  1  0.00000000  0.75133800  0.72762900  1
  Cd  Cd70  1  0.50000000  0.84866200  0.77237100  1
  Cd  Cd71  1  0.00000000  0.99912600  0.75565300  1
