# generated using pymatgen
data_Mg14Zn65
_symmetry_space_group_name_H-M   'P 1'
_cell_length_a   4.98183571
_cell_length_b   9.87228479
_cell_length_c   49.62169200
_cell_angle_alpha   87.16066620
_cell_angle_beta   87.12264785
_cell_angle_gamma   75.38550100
_symmetry_Int_Tables_number   1
_chemical_formula_structural   Mg14Zn65
_chemical_formula_sum   'Mg14 Zn65'
_cell_volume   2356.84330036
_cell_formula_units_Z   1
loop_
 _symmetry_equiv_pos_site_id
 _symmetry_equiv_pos_as_xyz
  1  'x, y, z'
loop_
 _atom_site_type_symbol
 _atom_site_label
 _atom_site_symmetry_multiplicity
 _atom_site_fract_x
 _atom_site_fract_y
 _atom_site_fract_z
 _atom_site_occupancy
  Mg  Mg0  1  0.71470600  0.74052800  0.83006100  1
  Mg  Mg1  1  0.23311300  0.74577900  0.78799500  1
  Mg  Mg2  1  0.38661300  0.53371500  0.69305900  1
  Mg  Mg3  1  0.39453900  0.45259100  0.75833000  1
  Mg  Mg4  1  0.54803900  0.24052800  0.66339400  1
  Mg  Mg5  1  0.06644700  0.24577900  0.62132800  1
  Mg  Mg6  1  0.21994600  0.03371500  0.52639200  1
  Mg  Mg7  1  0.22787300  0.95259100  0.59166300  1
  Mg  Mg8  1  0.38137200  0.74052800  0.49672800  1
  Mg  Mg9  1  0.89978000  0.74577900  0.45466100  1
  Mg  Mg10  1  0.05327900  0.53371500  0.35972600  1
  Mg  Mg11  1  0.06120600  0.45259100  0.42499600  1
  Mg  Mg12  1  0.21470600  0.24052800  0.33006100  1
  Mg  Mg13  1  0.73311300  0.24577900  0.28799500  1
  Zn  Zn14  1  0.47390900  0.24315300  0.80902800  1
  Zn  Zn15  1  0.80513700  0.71621700  0.67350900  1
  Zn  Zn16  1  0.65846000  0.97962400  0.70345600  1
  Zn  Zn17  1  0.81070100  0.60555700  0.77304100  1
  Zn  Zn18  1  0.97045100  0.38075000  0.67834800  1
  Zn  Zn19  1  0.76200800  0.24910100  0.72158100  1
  Zn  Zn20  1  0.84682400  0.00681700  0.80524600  1
  Zn  Zn21  1  0.97601500  0.27009000  0.77788000  1
  Zn  Zn22  1  0.10262600  0.10930800  0.68544000  1
  Zn  Zn23  1  0.60670600  0.47948900  0.81281000  1
  Zn  Zn24  1  0.34111300  0.00681700  0.80524600  1
  Zn  Zn25  1  0.10099500  0.47948900  0.81281000  1
  Zn  Zn26  1  0.51384300  0.73720500  0.72980800  1
  Zn  Zn27  1  0.12269200  0.00668200  0.74793300  1
  Zn  Zn28  1  0.26730900  0.24910100  0.72158100  1
  Zn  Zn29  1  0.01914400  0.73720500  0.72980800  1
  Zn  Zn30  1  0.89057600  0.49315300  0.72569400  1
  Zn  Zn31  1  0.54697100  0.14357800  0.76248000  1
  Zn  Zn32  1  0.23418100  0.84272800  0.68890900  1
  Zn  Zn33  1  0.67852600  0.87699900  0.76594800  1
  Zn  Zn34  1  0.30724300  0.74315300  0.64236100  1
  Zn  Zn35  1  0.63847000  0.21621700  0.50684200  1
  Zn  Zn36  1  0.49179300  0.47962400  0.53679000  1
  Zn  Zn37  1  0.64403500  0.10555700  0.60637400  1
  Zn  Zn38  1  0.80378400  0.88075000  0.51168200  1
  Zn  Zn39  1  0.59534100  0.74910100  0.55491500  1
  Zn  Zn40  1  0.68015800  0.50681700  0.63857900  1
  Zn  Zn41  1  0.80934800  0.77009000  0.61121300  1
  Zn  Zn42  1  0.93595900  0.60930800  0.51877400  1
  Zn  Zn43  1  0.44004000  0.97948900  0.64614300  1
  Zn  Zn44  1  0.17444600  0.50681700  0.63857900  1
  Zn  Zn45  1  0.93432800  0.97948900  0.64614300  1
  Zn  Zn46  1  0.34717600  0.23720500  0.56314100  1
  Zn  Zn47  1  0.95602600  0.50668200  0.58126600  1
  Zn  Zn48  1  0.10064300  0.74910100  0.55491500  1
  Zn  Zn49  1  0.85247700  0.23720500  0.56314100  1
  Zn  Zn50  1  0.72390900  0.99315300  0.55902800  1
  Zn  Zn51  1  0.38030400  0.64357800  0.59581400  1
  Zn  Zn52  1  0.06751500  0.34272800  0.52224200  1
  Zn  Zn53  1  0.51186000  0.37699900  0.59928200  1
  Zn  Zn54  1  0.14057600  0.24315300  0.47569400  1
  Zn  Zn55  1  0.47180400  0.71621700  0.34017600  1
  Zn  Zn56  1  0.32512600  0.97962400  0.37012300  1
  Zn  Zn57  1  0.47736800  0.60555700  0.43970700  1
  Zn  Zn58  1  0.63711800  0.38075000  0.34501500  1
  Zn  Zn59  1  0.42867500  0.24910100  0.38824800  1
  Zn  Zn60  1  0.51349100  0.00681700  0.47191300  1
  Zn  Zn61  1  0.64268200  0.27009000  0.44454600  1
  Zn  Zn62  1  0.76929200  0.10930800  0.35210700  1
  Zn  Zn63  1  0.27337300  0.47948900  0.47947600  1
  Zn  Zn64  1  0.00777900  0.00681700  0.47191300  1
  Zn  Zn65  1  0.76766100  0.47948900  0.47947600  1
  Zn  Zn66  1  0.18051000  0.73720500  0.39647400  1
  Zn  Zn67  1  0.78935900  0.00668200  0.41459900  1
  Zn  Zn68  1  0.93397600  0.24910100  0.38824800  1
  Zn  Zn69  1  0.68581100  0.73720500  0.39647400  1
  Zn  Zn70  1  0.55724300  0.49315300  0.39236100  1
  Zn  Zn71  1  0.21363700  0.14357800  0.42914700  1
  Zn  Zn72  1  0.90084800  0.84272800  0.35557500  1
  Zn  Zn73  1  0.34519300  0.87699900  0.43261500  1
  Zn  Zn74  1  0.97390900  0.74315300  0.30902800  1
  Zn  Zn75  1  0.34682400  0.50681700  0.30524600  1
  Zn  Zn76  1  0.10670600  0.97948900  0.31281000  1
  Zn  Zn77  1  0.84111300  0.50681700  0.30524600  1
  Zn  Zn78  1  0.60099500  0.97948900  0.31281000  1
