# generated using pymatgen
data_Pr13Mg6
_symmetry_space_group_name_H-M   'P 1'
_cell_length_a   5.72809200
_cell_length_b   8.96230627
_cell_length_c   41.55273300
_cell_angle_alpha   89.69346189
_cell_angle_beta   90.00000000
_cell_angle_gamma   90.00000000
_symmetry_Int_Tables_number   1
_chemical_formula_structural   Pr13Mg6
_chemical_formula_sum   'Pr26 Mg12'
_cell_volume   2133.15858512
_cell_formula_units_Z   2
loop_
 _symmetry_equiv_pos_site_id
 _symmetry_equiv_pos_as_xyz
  1  'x, y, z'
loop_
 _atom_site_type_symbol
 _atom_site_label
 _atom_site_symmetry_multiplicity
 _atom_site_fract_x
 _atom_site_fract_y
 _atom_site_fract_z
 _atom_site_occupancy
  Pr  Pr0  1  0.25000000  0.26915100  0.73460100  1
  Pr  Pr1  1  0.75000000  0.94056500  0.75024800  1
  Pr  Pr2  1  0.25000000  0.17824200  0.64369200  1
  Pr  Pr3  1  0.25000000  0.56713900  0.67279200  1
  Pr  Pr4  1  0.75000000  0.84965600  0.65933900  1
  Pr  Pr5  1  0.75000000  0.55166700  0.72114800  1
  Pr  Pr6  1  0.25000000  0.08733200  0.55278300  1
  Pr  Pr7  1  0.25000000  0.47623000  0.58188300  1
  Pr  Pr8  1  0.75000000  0.75874700  0.56843000  1
  Pr  Pr9  1  0.75000000  0.46075800  0.63023900  1
  Pr  Pr10  1  0.25000000  0.99642300  0.46187300  1
  Pr  Pr11  1  0.25000000  0.38532100  0.49097400  1
  Pr  Pr12  1  0.75000000  0.66783700  0.47752000  1
  Pr  Pr13  1  0.75000000  0.36984900  0.53932900  1
  Pr  Pr14  1  0.25000000  0.90551400  0.37096400  1
  Pr  Pr15  1  0.25000000  0.29441200  0.40006500  1
  Pr  Pr16  1  0.75000000  0.57692800  0.38661100  1
  Pr  Pr17  1  0.75000000  0.27894000  0.44842000  1
  Pr  Pr18  1  0.25000000  0.81460500  0.28005500  1
  Pr  Pr19  1  0.25000000  0.20350300  0.30915500  1
  Pr  Pr20  1  0.75000000  0.48601900  0.29570200  1
  Pr  Pr21  1  0.75000000  0.18803100  0.35751100  1
  Pr  Pr22  1  0.25000000  0.72369600  0.18914600  1
  Pr  Pr23  1  0.25000000  0.11259400  0.21824600  1
  Pr  Pr24  1  0.75000000  0.39511000  0.20479300  1
  Pr  Pr25  1  0.75000000  0.09712200  0.26660200  1
  Mg  Mg26  1  0.25000000  0.92225400  0.70350100  1
  Mg  Mg27  1  0.75000000  0.19655300  0.69043900  1
  Mg  Mg28  1  0.25000000  0.83134500  0.61259200  1
  Mg  Mg29  1  0.75000000  0.10564400  0.59953000  1
  Mg  Mg30  1  0.25000000  0.74043500  0.52168200  1
  Mg  Mg31  1  0.75000000  0.01473400  0.50862100  1
  Mg  Mg32  1  0.25000000  0.64952600  0.43077300  1
  Mg  Mg33  1  0.75000000  0.92382500  0.41771100  1
  Mg  Mg34  1  0.25000000  0.55861700  0.33986400  1
  Mg  Mg35  1  0.75000000  0.83291600  0.32680200  1
  Mg  Mg36  1  0.25000000  0.46770800  0.24895500  1
  Mg  Mg37  1  0.75000000  0.74200700  0.23589300  1
