# generated using pymatgen
data_Mg23Cd12
_symmetry_space_group_name_H-M   'P 1'
_cell_length_a   3.17171500
_cell_length_b   16.93132419
_cell_length_c   49.41679400
_cell_angle_alpha   91.18141472
_cell_angle_beta   90.00000000
_cell_angle_gamma   90.00000000
_symmetry_Int_Tables_number   1
_chemical_formula_structural   Mg23Cd12
_chemical_formula_sum   'Mg46 Cd24'
_cell_volume   2653.18368184
_cell_formula_units_Z   2
loop_
 _symmetry_equiv_pos_site_id
 _symmetry_equiv_pos_as_xyz
  1  'x, y, z'
loop_
 _atom_site_type_symbol
 _atom_site_label
 _atom_site_symmetry_multiplicity
 _atom_site_fract_x
 _atom_site_fract_y
 _atom_site_fract_z
 _atom_site_occupancy
  Mg  Mg0  1  0.00000000  0.56706900  0.21108600  1
  Mg  Mg1  1  0.50000000  0.81945900  0.29415400  1
  Mg  Mg2  1  1.00000000  0.81423400  0.23917900  1
  Mg  Mg3  1  0.50000000  0.96662400  0.22224700  1
  Mg  Mg4  1  0.50000000  0.11706900  0.26108600  1
  Mg  Mg5  1  1.00000000  0.26945900  0.24415400  1
  Mg  Mg6  1  0.50000000  0.36423400  0.28917900  1
  Mg  Mg7  1  0.00000000  0.51662400  0.27224700  1
  Mg  Mg8  1  0.00000000  0.66706900  0.31108600  1
  Mg  Mg9  1  0.50000000  0.91945900  0.39415400  1
  Mg  Mg10  1  0.00000000  0.91423400  0.33917900  1
  Mg  Mg11  1  0.50000000  0.06662400  0.32224700  1
  Mg  Mg12  1  0.50000000  0.21706900  0.36108600  1
  Mg  Mg13  1  0.00000000  0.36945900  0.34415400  1
  Mg  Mg14  1  0.50000000  0.46423400  0.38917900  1
  Mg  Mg15  1  0.00000000  0.61662400  0.37224700  1
  Mg  Mg16  1  0.00000000  0.76706900  0.41108600  1
  Mg  Mg17  1  0.50000000  0.01945900  0.49415400  1
  Mg  Mg18  1  1.00000000  0.01423400  0.43917900  1
  Mg  Mg19  1  0.50000000  0.16662400  0.42224700  1
  Mg  Mg20  1  0.50000000  0.31706900  0.46108600  1
  Mg  Mg21  1  0.00000000  0.46945900  0.44415400  1
  Mg  Mg22  1  0.50000000  0.56423400  0.48917900  1
  Mg  Mg23  1  0.00000000  0.71662400  0.47224700  1
  Mg  Mg24  1  1.00000000  0.86706900  0.51108600  1
  Mg  Mg25  1  0.50000000  0.11945900  0.59415400  1
  Mg  Mg26  1  1.00000000  0.11423400  0.53917900  1
  Mg  Mg27  1  0.50000000  0.26662400  0.52224700  1
  Mg  Mg28  1  0.50000000  0.41706900  0.56108600  1
  Mg  Mg29  1  0.00000000  0.56945900  0.54415400  1
  Mg  Mg30  1  0.50000000  0.66423400  0.58917900  1
  Mg  Mg31  1  0.00000000  0.81662400  0.57224700  1
  Mg  Mg32  1  0.00000000  0.96706900  0.61108600  1
  Mg  Mg33  1  0.50000000  0.21945900  0.69415400  1
  Mg  Mg34  1  0.00000000  0.21423400  0.63917900  1
  Mg  Mg35  1  0.50000000  0.36662400  0.62224700  1
  Mg  Mg36  1  0.50000000  0.51706900  0.66108600  1
  Mg  Mg37  1  1.00000000  0.66945900  0.64415400  1
  Mg  Mg38  1  0.50000000  0.76423400  0.68917900  1
  Mg  Mg39  1  0.00000000  0.91662400  0.67224700  1
  Mg  Mg40  1  1.00000000  0.06706900  0.71108600  1
  Mg  Mg41  1  1.00000000  0.31423400  0.73917900  1
  Mg  Mg42  1  0.50000000  0.46662400  0.72224700  1
  Mg  Mg43  1  0.50000000  0.61706900  0.76108600  1
  Mg  Mg44  1  0.00000000  0.76945900  0.74415400  1
  Mg  Mg45  1  1.00000000  0.01662400  0.77224700  1
  Cd  Cd46  1  1.00000000  0.96622300  0.27784700  1
  Cd  Cd47  1  0.50000000  0.66747000  0.25548600  1
  Cd  Cd48  1  0.50000000  0.41622300  0.22784700  1
  Cd  Cd49  1  1.00000000  0.11747000  0.20548600  1
  Cd  Cd50  1  1.00000000  0.06622300  0.37784700  1
  Cd  Cd51  1  0.50000000  0.76747000  0.35548600  1
  Cd  Cd52  1  0.50000000  0.51622300  0.32784700  1
  Cd  Cd53  1  1.00000000  0.21747000  0.30548600  1
  Cd  Cd54  1  0.00000000  0.16622300  0.47784700  1
  Cd  Cd55  1  0.50000000  0.86747000  0.45548600  1
  Cd  Cd56  1  0.50000000  0.61622300  0.42784700  1
  Cd  Cd57  1  1.00000000  0.31747000  0.40548600  1
  Cd  Cd58  1  1.00000000  0.26622300  0.57784700  1
  Cd  Cd59  1  0.50000000  0.96747000  0.55548600  1
  Cd  Cd60  1  0.50000000  0.71622300  0.52784700  1
  Cd  Cd61  1  1.00000000  0.41747000  0.50548600  1
  Cd  Cd62  1  1.00000000  0.36622300  0.67784700  1
  Cd  Cd63  1  0.50000000  0.06747000  0.65548600  1
  Cd  Cd64  1  0.50000000  0.81622300  0.62784700  1
  Cd  Cd65  1  1.00000000  0.51747000  0.60548600  1
  Cd  Cd66  1  1.00000000  0.46622300  0.77784700  1
  Cd  Cd67  1  0.50000000  0.16747000  0.75548600  1
  Cd  Cd68  1  0.50000000  0.91622300  0.72784700  1
  Cd  Cd69  1  1.00000000  0.61747000  0.70548600  1
