# generated using pymatgen
data_Mg3B20
_symmetry_space_group_name_H-M   'P 1'
_cell_length_a   5.97250300
_cell_length_b   8.11068900
_cell_length_c   52.34221800
_cell_angle_alpha   90.00000000
_cell_angle_beta   90.00000000
_cell_angle_gamma   90.00000000
_symmetry_Int_Tables_number   1
_chemical_formula_structural   Mg3B20
_chemical_formula_sum   'Mg24 B160'
_cell_volume   2535.51536928
_cell_formula_units_Z   8
loop_
 _symmetry_equiv_pos_site_id
 _symmetry_equiv_pos_as_xyz
  1  'x, y, z'
loop_
 _atom_site_type_symbol
 _atom_site_label
 _atom_site_symmetry_multiplicity
 _atom_site_fract_x
 _atom_site_fract_y
 _atom_site_fract_z
 _atom_site_occupancy
  Mg  Mg0  1  0.25000000  0.25000000  0.33750000  1
  Mg  Mg1  1  0.75000000  0.25000000  0.33750000  1
  Mg  Mg2  1  0.50000000  0.36465400  0.23750000  1
  Mg  Mg3  1  0.50000000  0.63534600  0.33750000  1
  Mg  Mg4  1  0.75000000  0.75000000  0.23750000  1
  Mg  Mg5  1  0.25000000  0.75000000  0.23750000  1
  Mg  Mg6  1  1.00000000  0.86465400  0.33750000  1
  Mg  Mg7  1  0.00000000  0.13534600  0.23750000  1
  Mg  Mg8  1  0.25000000  0.25000000  0.53750000  1
  Mg  Mg9  1  0.75000000  0.25000000  0.53750000  1
  Mg  Mg10  1  0.50000000  0.36465400  0.43750000  1
  Mg  Mg11  1  0.50000000  0.63534600  0.53750000  1
  Mg  Mg12  1  0.75000000  0.75000000  0.43750000  1
  Mg  Mg13  1  0.25000000  0.75000000  0.43750000  1
  Mg  Mg14  1  1.00000000  0.86465400  0.53750000  1
  Mg  Mg15  1  0.00000000  0.13534600  0.43750000  1
  Mg  Mg16  1  0.25000000  0.25000000  0.73750000  1
  Mg  Mg17  1  0.75000000  0.25000000  0.73750000  1
  Mg  Mg18  1  0.50000000  0.36465400  0.63750000  1
  Mg  Mg19  1  0.50000000  0.63534600  0.73750000  1
  Mg  Mg20  1  0.75000000  0.75000000  0.63750000  1
  Mg  Mg21  1  0.25000000  0.75000000  0.63750000  1
  Mg  Mg22  1  1.00000000  0.86465400  0.73750000  1
  Mg  Mg23  1  0.00000000  0.13534600  0.63750000  1
  B  B24  1  0.50000000  0.61526000  0.21560000  1
  B  B25  1  0.75338900  0.54472200  0.20306700  1
  B  B26  1  0.24661100  0.54472200  0.20306700  1
  B  B27  1  1.00000000  0.32365900  0.37104100  1
  B  B28  1  1.00000000  0.47561400  0.22072600  1
  B  B29  1  0.84444200  0.33658300  0.40022900  1
  B  B30  1  0.15555800  0.33658300  0.40022900  1
  B  B31  1  0.50000000  0.17634100  0.37104100  1
  B  B32  1  0.50000000  0.61526000  0.25940000  1
  B  B33  1  1.00000000  0.47561400  0.25427400  1
  B  B34  1  0.75338900  0.54472200  0.27193300  1
  B  B35  1  0.24661100  0.54472200  0.27193300  1
  B  B36  1  0.34444200  0.16341700  0.40022900  1
  B  B37  1  0.65555800  0.16341700  0.40022900  1
  B  B38  1  0.34444200  0.83658300  0.37477100  1
  B  B39  1  0.65555800  0.83658300  0.37477100  1
  B  B40  1  0.75338900  0.45527800  0.30306700  1
  B  B41  1  0.24661100  0.45527800  0.30306700  1
  B  B42  1  1.00000000  0.52438600  0.32072600  1
  B  B43  1  0.50000000  0.38474000  0.31560000  1
  B  B44  1  0.50000000  0.82365900  0.20395900  1
  B  B45  1  0.84444200  0.66341700  0.37477100  1
  B  B46  1  0.15555800  0.66341700  0.37477100  1
  B  B47  1  1.00000000  0.52438600  0.35427400  1
  B  B48  1  1.00000000  0.67634100  0.20395900  1
  B  B49  1  0.75338900  0.45527800  0.37193300  1
  B  B50  1  0.24661100  0.45527800  0.37193300  1
  B  B51  1  0.50000000  0.38474000  0.35940000  1
  B  B52  1  1.00000000  0.11526000  0.31560000  1
  B  B53  1  0.25338900  0.04472200  0.30306700  1
  B  B54  1  0.74661100  0.04472200  0.30306700  1
  B  B55  1  0.50000000  0.82365900  0.27104100  1
  B  B56  1  0.50000000  0.97561400  0.32072600  1
  B  B57  1  0.34444200  0.83658300  0.30022900  1
  B  B58  1  0.65555800  0.83658300  0.30022900  1
  B  B59  1  1.00000000  0.67634100  0.27104100  1
  B  B60  1  1.00000000  0.11526000  0.35940000  1
  B  B61  1  0.50000000  0.97561400  0.35427400  1
  B  B62  1  0.25338900  0.04472200  0.37193300  1
  B  B63  1  0.74661100  0.04472200  0.37193300  1
  B  B64  1  0.84444200  0.66341700  0.30022900  1
  B  B65  1  0.15555800  0.66341700  0.30022900  1
  B  B66  1  0.84444200  0.33658300  0.27477100  1
  B  B67  1  0.15555800  0.33658300  0.27477100  1
  B  B68  1  0.25338900  0.95527800  0.20306700  1
  B  B69  1  0.74661100  0.95527800  0.20306700  1
  B  B70  1  0.50000000  0.02438600  0.22072600  1
  B  B71  1  1.00000000  0.88474000  0.21560000  1
  B  B72  1  0.00000000  0.32365900  0.30395900  1
  B  B73  1  0.34444200  0.16341700  0.27477100  1
  B  B74  1  0.65555800  0.16341700  0.27477100  1
  B  B75  1  0.50000000  0.02438600  0.25427400  1
  B  B76  1  0.50000000  0.17634100  0.30395900  1
  B  B77  1  0.25338900  0.95527800  0.27193300  1
  B  B78  1  0.74661100  0.95527800  0.27193300  1
  B  B79  1  1.00000000  0.88474000  0.25940000  1
  B  B80  1  0.50000000  0.61526000  0.41560000  1
  B  B81  1  0.75338900  0.54472200  0.40306700  1
  B  B82  1  0.24661100  0.54472200  0.40306700  1
  B  B83  1  1.00000000  0.32365900  0.57104100  1
  B  B84  1  1.00000000  0.47561400  0.42072600  1
  B  B85  1  0.84444200  0.33658300  0.60022900  1
  B  B86  1  0.15555800  0.33658300  0.60022900  1
  B  B87  1  0.50000000  0.17634100  0.57104100  1
  B  B88  1  0.50000000  0.61526000  0.45940000  1
  B  B89  1  1.00000000  0.47561400  0.45427400  1
  B  B90  1  0.75338900  0.54472200  0.47193300  1
  B  B91  1  0.24661100  0.54472200  0.47193300  1
  B  B92  1  0.34444200  0.16341700  0.60022900  1
  B  B93  1  0.65555800  0.16341700  0.60022900  1
  B  B94  1  0.34444200  0.83658300  0.57477100  1
  B  B95  1  0.65555800  0.83658300  0.57477100  1
  B  B96  1  0.75338900  0.45527800  0.50306700  1
  B  B97  1  0.24661100  0.45527800  0.50306700  1
  B  B98  1  1.00000000  0.52438600  0.52072600  1
  B  B99  1  0.50000000  0.38474000  0.51560000  1
  B  B100  1  0.50000000  0.82365900  0.40395900  1
  B  B101  1  0.84444200  0.66341700  0.57477100  1
  B  B102  1  0.15555800  0.66341700  0.57477100  1
  B  B103  1  1.00000000  0.52438600  0.55427400  1
  B  B104  1  1.00000000  0.67634100  0.40395900  1
  B  B105  1  0.75338900  0.45527800  0.57193300  1
  B  B106  1  0.24661100  0.45527800  0.57193300  1
  B  B107  1  0.50000000  0.38474000  0.55940000  1
  B  B108  1  1.00000000  0.11526000  0.51560000  1
  B  B109  1  0.25338900  0.04472200  0.50306700  1
  B  B110  1  0.74661100  0.04472200  0.50306700  1
  B  B111  1  0.50000000  0.82365900  0.47104100  1
  B  B112  1  0.50000000  0.97561400  0.52072600  1
  B  B113  1  0.34444200  0.83658300  0.50022900  1
  B  B114  1  0.65555800  0.83658300  0.50022900  1
  B  B115  1  1.00000000  0.67634100  0.47104100  1
  B  B116  1  1.00000000  0.11526000  0.55940000  1
  B  B117  1  0.50000000  0.97561400  0.55427400  1
  B  B118  1  0.25338900  0.04472200  0.57193300  1
  B  B119  1  0.74661100  0.04472200  0.57193300  1
  B  B120  1  0.84444200  0.66341700  0.50022900  1
  B  B121  1  0.15555800  0.66341700  0.50022900  1
  B  B122  1  0.84444200  0.33658300  0.47477100  1
  B  B123  1  0.15555800  0.33658300  0.47477100  1
  B  B124  1  0.25338900  0.95527800  0.40306700  1
  B  B125  1  0.74661100  0.95527800  0.40306700  1
  B  B126  1  0.50000000  0.02438600  0.42072600  1
  B  B127  1  1.00000000  0.88474000  0.41560000  1
  B  B128  1  0.00000000  0.32365900  0.50395900  1
  B  B129  1  0.34444200  0.16341700  0.47477100  1
  B  B130  1  0.65555800  0.16341700  0.47477100  1
  B  B131  1  0.50000000  0.02438600  0.45427400  1
  B  B132  1  0.50000000  0.17634100  0.50395900  1
  B  B133  1  0.25338900  0.95527800  0.47193300  1
  B  B134  1  0.74661100  0.95527800  0.47193300  1
  B  B135  1  1.00000000  0.88474000  0.45940000  1
  B  B136  1  0.50000000  0.61526000  0.61560000  1
  B  B137  1  0.75338900  0.54472200  0.60306700  1
  B  B138  1  0.24661100  0.54472200  0.60306700  1
  B  B139  1  1.00000000  0.32365900  0.77104100  1
  B  B140  1  1.00000000  0.47561400  0.62072600  1
  B  B141  1  0.50000000  0.17634100  0.77104100  1
  B  B142  1  0.50000000  0.61526000  0.65940000  1
  B  B143  1  1.00000000  0.47561400  0.65427400  1
  B  B144  1  0.75338900  0.54472200  0.67193300  1
  B  B145  1  0.24661100  0.54472200  0.67193300  1
  B  B146  1  0.75338900  0.45527800  0.70306700  1
  B  B147  1  0.24661100  0.45527800  0.70306700  1
  B  B148  1  1.00000000  0.52438600  0.72072600  1
  B  B149  1  0.50000000  0.38474000  0.71560000  1
  B  B150  1  0.50000000  0.82365900  0.60395900  1
  B  B151  1  1.00000000  0.52438600  0.75427400  1
  B  B152  1  1.00000000  0.67634100  0.60395900  1
  B  B153  1  0.75338900  0.45527800  0.77193300  1
  B  B154  1  0.24661100  0.45527800  0.77193300  1
  B  B155  1  0.50000000  0.38474000  0.75940000  1
  B  B156  1  1.00000000  0.11526000  0.71560000  1
  B  B157  1  0.25338900  0.04472200  0.70306700  1
  B  B158  1  0.74661100  0.04472200  0.70306700  1
  B  B159  1  0.50000000  0.82365900  0.67104100  1
  B  B160  1  0.50000000  0.97561400  0.72072600  1
  B  B161  1  0.34444200  0.83658300  0.70022900  1
  B  B162  1  0.65555800  0.83658300  0.70022900  1
  B  B163  1  1.00000000  0.67634100  0.67104100  1
  B  B164  1  1.00000000  0.11526000  0.75940000  1
  B  B165  1  0.50000000  0.97561400  0.75427400  1
  B  B166  1  0.25338900  0.04472200  0.77193300  1
  B  B167  1  0.74661100  0.04472200  0.77193300  1
  B  B168  1  0.84444200  0.66341700  0.70022900  1
  B  B169  1  0.15555800  0.66341700  0.70022900  1
  B  B170  1  0.84444200  0.33658300  0.67477100  1
  B  B171  1  0.15555800  0.33658300  0.67477100  1
  B  B172  1  0.25338900  0.95527800  0.60306700  1
  B  B173  1  0.74661100  0.95527800  0.60306700  1
  B  B174  1  0.50000000  0.02438600  0.62072600  1
  B  B175  1  1.00000000  0.88474000  0.61560000  1
  B  B176  1  0.00000000  0.32365900  0.70395900  1
  B  B177  1  0.34444200  0.16341700  0.67477100  1
  B  B178  1  0.65555800  0.16341700  0.67477100  1
  B  B179  1  0.50000000  0.02438600  0.65427400  1
  B  B180  1  0.50000000  0.17634100  0.70395900  1
  B  B181  1  0.25338900  0.95527800  0.67193300  1
  B  B182  1  0.74661100  0.95527800  0.67193300  1
  B  B183  1  1.00000000  0.88474000  0.65940000  1
