# generated using pymatgen
data_La14Mg129
_symmetry_space_group_name_H-M   'P 1'
_cell_length_a   10.38875200
_cell_length_b   14.48655120
_cell_length_c   47.03743100
_cell_angle_alpha   91.51171628
_cell_angle_beta   90.00000000
_cell_angle_gamma   68.98788168
_symmetry_Int_Tables_number   1
_chemical_formula_structural   La14Mg129
_chemical_formula_sum   'La14 Mg129'
_cell_volume   6605.64073251
_cell_formula_units_Z   1
loop_
 _symmetry_equiv_pos_site_id
 _symmetry_equiv_pos_as_xyz
  1  'x, y, z'
loop_
 _atom_site_type_symbol
 _atom_site_label
 _atom_site_symmetry_multiplicity
 _atom_site_fract_x
 _atom_site_fract_y
 _atom_site_fract_z
 _atom_site_occupancy
  La  La0  1  0.39347000  0.21306000  0.35213000  1
  La  La1  1  0.10775600  0.78448800  0.32832100  1
  La  La2  1  0.96489900  0.07020300  0.23308300  1
  La  La3  1  0.82204200  0.35591700  0.30451100  1
  La  La4  1  0.10775600  0.78448800  0.49498700  1
  La  La5  1  0.82204200  0.35591700  0.47117800  1
  La  La6  1  0.67918400  0.64163100  0.37594000  1
  La  La7  1  0.53632700  0.92734600  0.44736800  1
  La  La8  1  0.82204200  0.35591700  0.63784500  1
  La  La9  1  0.53632700  0.92734600  0.61403500  1
  La  La10  1  0.39347000  0.21306000  0.51879700  1
  La  La11  1  0.25061300  0.49877400  0.59022600  1
  La  La12  1  0.10775600  0.78448800  0.66165400  1
  La  La13  1  0.96489900  0.07020300  0.73308300  1
  Mg  Mg14  1  0.46654700  0.58023800  0.32003600  1
  Mg  Mg15  1  0.09988100  0.80023700  0.24670300  1
  Mg  Mg16  1  0.95321500  0.58023800  0.32003600  1
  Mg  Mg17  1  0.67892800  0.15547500  0.29495700  1
  Mg  Mg18  1  0.29394600  0.41210800  0.23522600  1
  Mg  Mg19  1  0.57966000  0.84067900  0.25903500  1
  Mg  Mg20  1  0.49299400  0.01401200  0.30236800  1
  Mg  Mg21  1  0.20728000  0.58544000  0.27855900  1
  Mg  Mg22  1  0.39347000  0.21306000  0.26879700  1
  Mg  Mg23  1  0.89347000  0.71306000  0.26879700  1
  Mg  Mg24  1  0.39347000  0.71306000  0.26879700  1
  Mg  Mg25  1  0.25061300  0.99877400  0.34022600  1
  Mg  Mg26  1  0.75061300  0.99877400  0.34022600  1
  Mg  Mg27  1  0.25061300  0.49877400  0.34022600  1
  Mg  Mg28  1  0.46893400  0.37070000  0.29958400  1
  Mg  Mg29  1  0.83655700  0.92943000  0.28000700  1
  Mg  Mg30  1  0.45441900  0.79718600  0.32408800  1
  Mg  Mg31  1  0.04680700  0.20036200  0.35636300  1
  Mg  Mg32  1  0.95038300  0.49668900  0.25758700  1
  Mg  Mg33  1  0.62657400  0.05542000  0.23801000  1
  Mg  Mg34  1  0.74839500  0.79718600  0.32408800  1
  Mg  Mg35  1  0.31800600  0.05542000  0.23801000  1
  Mg  Mg36  1  0.23401300  0.92943000  0.28000700  1
  Mg  Mg37  1  0.55292800  0.49668900  0.25758700  1
  Mg  Mg38  1  0.16036600  0.37070000  0.29958400  1
  Mg  Mg39  1  0.75283100  0.20036200  0.35636300  1
  Mg  Mg40  1  0.96896400  0.06207200  0.31216100  1
  Mg  Mg41  1  0.32039400  0.84588200  0.21755800  1
  Mg  Mg42  1  0.83372500  0.84588200  0.21755800  1
  Mg  Mg43  1  0.10801200  0.27064400  0.24263700  1
  Mg  Mg44  1  0.62134300  0.27064400  0.24263700  1
  Mg  Mg45  1  0.81797600  0.36404800  0.22543300  1
  Mg  Mg46  1  0.16559700  0.15547500  0.29495700  1
  Mg  Mg47  1  0.68705900  0.62588300  0.29089100  1
  Mg  Mg48  1  0.18083200  0.15166700  0.46289300  1
  Mg  Mg49  1  0.81416700  0.37166600  0.38956000  1
  Mg  Mg50  1  0.66750100  0.15166700  0.46289300  1
  Mg  Mg51  1  0.39321400  0.72690400  0.43781400  1
  Mg  Mg52  1  0.00823200  0.98353600  0.37808300  1
  Mg  Mg53  1  0.29394600  0.41210800  0.40189200  1
  Mg  Mg54  1  0.20728000  0.58544000  0.44522500  1
  Mg  Mg55  1  0.92156600  0.15686900  0.42141600  1
  Mg  Mg56  1  0.10775600  0.78448800  0.41165400  1
  Mg  Mg57  1  0.60775600  0.28448800  0.41165400  1
  Mg  Mg58  1  0.10775600  0.28448800  0.41165400  1
  Mg  Mg59  1  0.96489900  0.57020300  0.48308300  1
  Mg  Mg60  1  0.46489900  0.57020300  0.48308300  1
  Mg  Mg61  1  0.96489900  0.07020300  0.48308300  1
  Mg  Mg62  1  0.18322000  0.94212800  0.44244100  1
  Mg  Mg63  1  0.55084300  0.50085900  0.42286400  1
  Mg  Mg64  1  0.16870500  0.36861500  0.46694500  1
  Mg  Mg65  1  0.76109300  0.77179000  0.49922000  1
  Mg  Mg66  1  0.66466900  0.06811800  0.40044400  1
  Mg  Mg67  1  0.34086000  0.62684800  0.38086700  1
  Mg  Mg68  1  0.46268000  0.36861500  0.46694500  1
  Mg  Mg69  1  0.03229100  0.62684800  0.38086700  1
  Mg  Mg70  1  0.94829800  0.50085900  0.42286400  1
  Mg  Mg71  1  0.26721300  0.06811800  0.40044400  1
  Mg  Mg72  1  0.87465100  0.94212800  0.44244100  1
  Mg  Mg73  1  0.46711700  0.77179000  0.49922000  1
  Mg  Mg74  1  0.68325000  0.63350000  0.45501900  1
  Mg  Mg75  1  0.03467900  0.41731000  0.36041500  1
  Mg  Mg76  1  0.54801000  0.41731000  0.36041500  1
  Mg  Mg77  1  0.82229800  0.84207300  0.38549400  1
  Mg  Mg78  1  0.33562900  0.84207300  0.38549400  1
  Mg  Mg79  1  0.53226200  0.93547600  0.36829000  1
  Mg  Mg80  1  0.87988200  0.72690400  0.43781400  1
  Mg  Mg81  1  0.40134400  0.19731100  0.43374800  1
  Mg  Mg82  1  0.89511800  0.72309500  0.60575000  1
  Mg  Mg83  1  0.52845300  0.94309400  0.53241700  1
  Mg  Mg84  1  0.38178700  0.72309500  0.60575000  1
  Mg  Mg85  1  0.10749900  0.29833300  0.58067100  1
  Mg  Mg86  1  0.72251700  0.55496500  0.52094000  1
  Mg  Mg87  1  0.00823200  0.98353600  0.54474900  1
  Mg  Mg88  1  0.92156600  0.15686900  0.58808300  1
  Mg  Mg89  1  0.63585100  0.72829700  0.56427300  1
  Mg  Mg90  1  0.82204200  0.35591700  0.55451100  1
  Mg  Mg91  1  0.32204200  0.85591700  0.55451100  1
  Mg  Mg92  1  0.82204200  0.85591700  0.55451100  1
  Mg  Mg93  1  0.67918400  0.14163100  0.62594000  1
  Mg  Mg94  1  0.17918400  0.14163100  0.62594000  1
  Mg  Mg95  1  0.67918400  0.64163100  0.62594000  1
  Mg  Mg96  1  0.89750600  0.51355700  0.58529800  1
  Mg  Mg97  1  0.26512900  0.07228700  0.56572100  1
  Mg  Mg98  1  0.88299000  0.94004400  0.60980200  1
  Mg  Mg99  1  0.47537800  0.34321900  0.64207700  1
  Mg  Mg100  1  0.37895400  0.63954700  0.54330100  1
  Mg  Mg101  1  0.05514600  0.19827700  0.52372500  1
  Mg  Mg102  1  0.17696600  0.94004400  0.60980200  1
  Mg  Mg103  1  0.74657700  0.19827700  0.52372500  1
  Mg  Mg104  1  0.66258400  0.07228700  0.56572100  1
  Mg  Mg105  1  0.98149900  0.63954700  0.54330100  1
  Mg  Mg106  1  0.58893700  0.51355700  0.58529800  1
  Mg  Mg107  1  0.18140300  0.34321900  0.64207700  1
  Mg  Mg108  1  0.39753600  0.20492900  0.59787600  1
  Mg  Mg109  1  0.74896500  0.98873900  0.50327200  1
  Mg  Mg110  1  0.26229600  0.98873900  0.50327200  1
  Mg  Mg111  1  0.53658400  0.41350100  0.52835200  1
  Mg  Mg112  1  0.04991500  0.41350100  0.52835200  1
  Mg  Mg113  1  0.24654800  0.50690500  0.51114700  1
  Mg  Mg114  1  0.59416800  0.29833300  0.58067100  1
  Mg  Mg115  1  0.11563000  0.76874000  0.57660600  1
  Mg  Mg116  1  0.60940400  0.29452400  0.74860700  1
  Mg  Mg117  1  0.24273900  0.51452300  0.67527400  1
  Mg  Mg118  1  0.09607300  0.29452400  0.74860700  1
  Mg  Mg119  1  0.82178500  0.86976100  0.72352800  1
  Mg  Mg120  1  0.43680300  0.12639400  0.66379700  1
  Mg  Mg121  1  0.72251700  0.55496500  0.68760700  1
  Mg  Mg122  1  0.63585100  0.72829700  0.73094000  1
  Mg  Mg123  1  0.35013700  0.29972600  0.70713000  1
  Mg  Mg124  1  0.53632700  0.92734600  0.69736800  1
  Mg  Mg125  1  0.03632700  0.42734600  0.69736800  1
  Mg  Mg126  1  0.53632700  0.42734600  0.69736800  1
  Mg  Mg127  1  0.61179200  0.08498500  0.72815500  1
  Mg  Mg128  1  0.97941400  0.64371600  0.70857800  1
  Mg  Mg129  1  0.09324000  0.21097500  0.68615900  1
  Mg  Mg130  1  0.76943200  0.76970600  0.66658200  1
  Mg  Mg131  1  0.46086300  0.76970600  0.66658200  1
  Mg  Mg132  1  0.37687000  0.64371600  0.70857800  1
  Mg  Mg133  1  0.69578500  0.21097500  0.68615900  1
  Mg  Mg134  1  0.30322300  0.08498500  0.72815500  1
  Mg  Mg135  1  0.11182100  0.77635800  0.74073300  1
  Mg  Mg136  1  0.46325100  0.56016700  0.64613000  1
  Mg  Mg137  1  0.97658200  0.56016700  0.64613000  1
  Mg  Mg138  1  0.25086900  0.98493000  0.67120900  1
  Mg  Mg139  1  0.76420100  0.98493000  0.67120900  1
  Mg  Mg140  1  0.96083300  0.07833400  0.65400400  1
  Mg  Mg141  1  0.30845400  0.86976100  0.72352800  1
  Mg  Mg142  1  0.82991600  0.34016800  0.71946300  1
