# generated using pymatgen
data_Mg71Si40
_symmetry_space_group_name_H-M   'P 1'
_cell_length_a   12.41651900
_cell_length_b   14.27249660
_cell_length_c   44.74766500
_cell_angle_alpha   90.16648621
_cell_angle_beta   90.00000000
_cell_angle_gamma   64.21593671
_symmetry_Int_Tables_number   1
_chemical_formula_structural   Mg71Si40
_chemical_formula_sum   'Mg142 Si80'
_cell_volume   7140.40101402
_cell_formula_units_Z   2
loop_
 _symmetry_equiv_pos_site_id
 _symmetry_equiv_pos_as_xyz
  1  'x, y, z'
loop_
 _atom_site_type_symbol
 _atom_site_label
 _atom_site_symmetry_multiplicity
 _atom_site_fract_x
 _atom_site_fract_y
 _atom_site_fract_z
 _atom_site_occupancy
  Mg  Mg0  1  0.89315500  0.05108300  0.22170300  1
  Mg  Mg1  1  0.48308300  0.55029400  0.22249300  1
  Mg  Mg2  1  0.10965700  0.53367800  0.23910800  1
  Mg  Mg3  1  0.52028200  0.07056000  0.20222600  1
  Mg  Mg4  1  0.14685700  0.05394500  0.21884200  1
  Mg  Mg5  1  0.73678500  0.55315500  0.21963100  1
  Mg  Mg6  1  0.58259200  0.86154100  0.24533000  1
  Mg  Mg7  1  0.99266400  0.36233100  0.24454000  1
  Mg  Mg8  1  0.36608900  0.37894600  0.22792500  1
  Mg  Mg9  1  0.95546400  0.84206400  0.26480700  1
  Mg  Mg10  1  0.32889000  0.85868000  0.24819100  1
  Mg  Mg11  1  0.73896200  0.35946900  0.24740200  1
  Mg  Mg12  1  0.63475600  0.23475800  0.20507000  1
  Mg  Mg13  1  0.23701000  0.23183400  0.20799500  1
  Mg  Mg14  1  0.23873700  0.68079100  0.25903800  1
  Mg  Mg15  1  0.84099000  0.67786600  0.26196300  1
  Mg  Mg16  1  0.43161600  0.97416000  0.29862600  1
  Mg  Mg17  1  0.02154400  0.47337100  0.29941600  1
  Mg  Mg18  1  0.64811900  0.45675500  0.31603100  1
  Mg  Mg19  1  0.05874400  0.99363700  0.27914900  1
  Mg  Mg20  1  0.68531800  0.97702200  0.29576500  1
  Mg  Mg21  1  0.27524600  0.47623200  0.29655400  1
  Mg  Mg22  1  0.12105300  0.78461800  0.32225300  1
  Mg  Mg23  1  0.53112500  0.28540800  0.32146300  1
  Mg  Mg24  1  0.90455100  0.30202300  0.30484800  1
  Mg  Mg25  1  0.49392600  0.76514100  0.34173000  1
  Mg  Mg26  1  0.86735100  0.78175700  0.32511500  1
  Mg  Mg27  1  0.27742300  0.28254600  0.32432500  1
  Mg  Mg28  1  0.55697000  0.66412600  0.27570300  1
  Mg  Mg29  1  0.17321800  0.15783500  0.28199300  1
  Mg  Mg30  1  0.77547100  0.15491100  0.28491800  1
  Mg  Mg31  1  0.77719800  0.60386800  0.33596100  1
  Mg  Mg32  1  0.37945100  0.60094300  0.33888600  1
  Mg  Mg33  1  0.45723800  0.17157500  0.26825400  1
  Mg  Mg34  1  0.97007800  0.89723700  0.37554900  1
  Mg  Mg35  1  0.56000600  0.39644700  0.37633900  1
  Mg  Mg36  1  0.18658000  0.37983200  0.39295400  1
  Mg  Mg37  1  0.59720500  0.91671400  0.35607200  1
  Mg  Mg38  1  0.22378000  0.90009900  0.37268800  1
  Mg  Mg39  1  0.81370800  0.39930900  0.37347700  1
  Mg  Mg40  1  0.65951500  0.70769500  0.39917600  1
  Mg  Mg41  1  0.06958700  0.20848500  0.39838700  1
  Mg  Mg42  1  0.44301200  0.22510000  0.38177100  1
  Mg  Mg43  1  0.03238700  0.68821800  0.41865300  1
  Mg  Mg44  1  0.40581300  0.70483300  0.40203800  1
  Mg  Mg45  1  0.81588500  0.20562300  0.40124800  1
  Mg  Mg46  1  0.09543100  0.58720300  0.35262600  1
  Mg  Mg47  1  0.71167900  0.08091200  0.35891600  1
  Mg  Mg48  1  0.31393300  0.07798800  0.36184100  1
  Mg  Mg49  1  0.31566000  0.52694500  0.41288400  1
  Mg  Mg50  1  0.91791300  0.52402000  0.41580900  1
  Mg  Mg51  1  0.99569900  0.09465200  0.34517700  1
  Mg  Mg52  1  0.50853900  0.82031400  0.45247200  1
  Mg  Mg53  1  0.09846700  0.31952400  0.45326200  1
  Mg  Mg54  1  0.72504200  0.30290900  0.46987700  1
  Mg  Mg55  1  0.13566700  0.83979100  0.43299500  1
  Mg  Mg56  1  0.76224100  0.82317600  0.44961100  1
  Mg  Mg57  1  0.35216900  0.32238600  0.45040000  1
  Mg  Mg58  1  0.19797600  0.63077200  0.47609900  1
  Mg  Mg59  1  0.60804800  0.13156200  0.47531000  1
  Mg  Mg60  1  0.98147400  0.14817700  0.45869400  1
  Mg  Mg61  1  0.57084900  0.61129500  0.49557600  1
  Mg  Mg62  1  0.94427400  0.62791000  0.47896100  1
  Mg  Mg63  1  0.35434600  0.12870000  0.47817100  1
  Mg  Mg64  1  0.63389300  0.51028000  0.42954900  1
  Mg  Mg65  1  0.25014100  0.00398900  0.43583900  1
  Mg  Mg66  1  0.85239400  0.00106400  0.43876400  1
  Mg  Mg67  1  0.85412100  0.45002100  0.48980700  1
  Mg  Mg68  1  0.45637400  0.44709700  0.49273200  1
  Mg  Mg69  1  0.53416100  0.01772900  0.42210000  1
  Mg  Mg70  1  0.04700100  0.74339100  0.52939500  1
  Mg  Mg71  1  0.63692900  0.24260100  0.53018500  1
  Mg  Mg72  1  0.26350300  0.22598600  0.54680000  1
  Mg  Mg73  1  0.67412800  0.76286800  0.50991800  1
  Mg  Mg74  1  0.30070300  0.74625200  0.52653400  1
  Mg  Mg75  1  0.89063100  0.24546300  0.52732300  1
  Mg  Mg76  1  0.73643800  0.55384900  0.55302200  1
  Mg  Mg77  1  0.14651000  0.05463800  0.55223300  1
  Mg  Mg78  1  0.51993500  0.07125400  0.53561700  1
  Mg  Mg79  1  0.10931000  0.53437200  0.57249900  1
  Mg  Mg80  1  0.48273600  0.55098700  0.55588400  1
  Mg  Mg81  1  0.89280800  0.05177700  0.55509400  1
  Mg  Mg82  1  0.17235400  0.43335700  0.50647200  1
  Mg  Mg83  1  0.78860300  0.92706600  0.51276200  1
  Mg  Mg84  1  0.39085600  0.92414100  0.51568700  1
  Mg  Mg85  1  0.39258300  0.37309800  0.56673000  1
  Mg  Mg86  1  0.99483600  0.37017400  0.56965500  1
  Mg  Mg87  1  0.07262200  0.94080600  0.49902300  1
  Mg  Mg88  1  0.58546200  0.66646800  0.60631800  1
  Mg  Mg89  1  0.17539000  0.16567800  0.60710800  1
  Mg  Mg90  1  0.80196500  0.14906300  0.62372400  1
  Mg  Mg91  1  0.21259000  0.68594500  0.58684100  1
  Mg  Mg92  1  0.83916400  0.66932900  0.60345700  1
  Mg  Mg93  1  0.42909200  0.16854000  0.60424700  1
  Mg  Mg94  1  0.27489900  0.47692600  0.62994500  1
  Mg  Mg95  1  0.68497100  0.97771500  0.62915600  1
  Mg  Mg96  1  0.05839700  0.99433100  0.61254000  1
  Mg  Mg97  1  0.64777200  0.45744900  0.64942200  1
  Mg  Mg98  1  0.02119700  0.47406400  0.63280700  1
  Mg  Mg99  1  0.43126900  0.97485400  0.63201700  1
  Mg  Mg100  1  0.71081600  0.35643400  0.58339500  1
  Mg  Mg101  1  0.32706400  0.85014300  0.58968600  1
  Mg  Mg102  1  0.92931700  0.84721800  0.59261000  1
  Mg  Mg103  1  0.93104400  0.29617500  0.64365300  1
  Mg  Mg104  1  0.53329700  0.29325000  0.64657800  1
  Mg  Mg105  1  0.61108400  0.86388300  0.57594600  1
  Mg  Mg106  1  0.12392400  0.58954500  0.68324100  1
  Mg  Mg107  1  0.71385200  0.08875500  0.68403100  1
  Mg  Mg108  1  0.34042600  0.07214000  0.70064700  1
  Mg  Mg109  1  0.75105100  0.60902200  0.66376400  1
  Mg  Mg110  1  0.37762600  0.59240600  0.68038000  1
  Mg  Mg111  1  0.96755400  0.09161700  0.68117000  1
  Mg  Mg112  1  0.81336100  0.40000300  0.70686800  1
  Mg  Mg113  1  0.22343300  0.90079200  0.70607900  1
  Mg  Mg114  1  0.59685800  0.91740800  0.68946300  1
  Mg  Mg115  1  0.18623300  0.38052600  0.72634500  1
  Mg  Mg116  1  0.55965900  0.39714100  0.70973000  1
  Mg  Mg117  1  0.96973100  0.89793100  0.70894000  1
  Mg  Mg118  1  0.24927800  0.27951100  0.66031800  1
  Mg  Mg119  1  0.86552600  0.77322000  0.66660900  1
  Mg  Mg120  1  0.46777900  0.77029500  0.66953300  1
  Mg  Mg121  1  0.46950600  0.21925200  0.72057600  1
  Mg  Mg122  1  0.07175900  0.21632700  0.72350100  1
  Mg  Mg123  1  0.14954600  0.78696000  0.65286900  1
  Mg  Mg124  1  0.66238500  0.51262200  0.76016400  1
  Mg  Mg125  1  0.25231300  0.01183200  0.76095400  1
  Mg  Mg126  1  0.87888800  0.99521700  0.77757000  1
  Mg  Mg127  1  0.28951300  0.53209900  0.74068700  1
  Mg  Mg128  1  0.91608700  0.51548300  0.75730300  1
  Mg  Mg129  1  0.50601500  0.01469400  0.75809300  1
  Mg  Mg130  1  0.35182200  0.32308000  0.78379200  1
  Mg  Mg131  1  0.76189400  0.82386900  0.78300200  1
  Mg  Mg132  1  0.13532000  0.84048500  0.76638600  1
  Mg  Mg133  1  0.72469500  0.30360300  0.80326900  1
  Mg  Mg134  1  0.09812000  0.32021800  0.78665300  1
  Mg  Mg135  1  0.50819200  0.82100800  0.78586300  1
  Mg  Mg136  1  0.78773900  0.20258800  0.73724100  1
  Mg  Mg137  1  0.40398700  0.69629700  0.74353200  1
  Mg  Mg138  1  0.00624000  0.69337200  0.74645700  1
  Mg  Mg139  1  0.00796700  0.14232900  0.79750000  1
  Mg  Mg140  1  0.61022100  0.13940400  0.80042400  1
  Mg  Mg141  1  0.68800700  0.71003700  0.72979200  1
  Si  Si142  1  0.78414600  0.86376600  0.22580400  1
  Si  Si143  1  0.55337700  0.32530400  0.26426600  1
  Si  Si144  1  0.69160000  0.04885900  0.24122900  1
  Si  Si145  1  0.92236900  0.58732000  0.20276700  1
  Si  Si146  1  0.51992400  0.72554300  0.21428600  1
  Si  Si147  1  0.95582200  0.18708100  0.25274700  1
  Si  Si148  1  0.26160700  0.57551100  0.20178300  1
  Si  Si149  1  0.36417100  0.03704900  0.24024500  1
  Si  Si150  1  0.21413900  0.33711400  0.26525000  1
  Si  Si151  1  0.11157500  0.87557500  0.22678800  1
  Si  Si152  1  0.32260800  0.78684300  0.30272700  1
  Si  Si153  1  0.09183900  0.24838100  0.34118900  1
  Si  Si154  1  0.23006100  0.97193500  0.31815200  1
  Si  Si155  1  0.46083100  0.51039700  0.27969000  1
  Si  Si156  1  0.05838600  0.64862000  0.29120900  1
  Si  Si157  1  0.49428300  0.11015800  0.32967000  1
  Si  Si158  1  0.80006900  0.49858800  0.27870600  1
  Si  Si159  1  0.90263300  0.96012600  0.31716800  1
  Si  Si160  1  0.75260100  0.26019100  0.34217300  1
  Si  Si161  1  0.65003600  0.79865200  0.30371100  1
  Si  Si162  1  0.86106900  0.70992000  0.37965000  1
  Si  Si163  1  0.63030000  0.17145800  0.41811200  1
  Si  Si164  1  0.76852300  0.89501200  0.39507500  1
  Si  Si165  1  0.99929200  0.43347400  0.35661300  1
  Si  Si166  1  0.59684700  0.57169700  0.36813200  1
  Si  Si167  1  0.03274500  0.03323500  0.40659300  1
  Si  Si168  1  0.33853000  0.42166500  0.35562900  1
  Si  Si169  1  0.44109400  0.88320300  0.39409100  1
  Si  Si170  1  0.29106200  0.18326800  0.41909600  1
  Si  Si171  1  0.18849800  0.72172900  0.38063500  1
  Si  Si172  1  0.39953100  0.63299700  0.45657400  1
  Si  Si173  1  0.16876200  0.09453500  0.49503500  1
  Si  Si174  1  0.30698500  0.81808900  0.47199800  1
  Si  Si175  1  0.53775400  0.35655100  0.43353600  1
  Si  Si176  1  0.13530900  0.49477400  0.44505500  1
  Si  Si177  1  0.57120600  0.95631200  0.48351600  1
  Si  Si178  1  0.87699200  0.34474100  0.43255200  1
  Si  Si179  1  0.97955600  0.80628000  0.47101400  1
  Si  Si180  1  0.82952400  0.10634400  0.49601900  1
  Si  Si181  1  0.72696000  0.64480600  0.45755800  1
  Si  Si182  1  0.93799200  0.55607400  0.53349700  1
  Si  Si183  1  0.70722300  0.01761200  0.57195800  1
  Si  Si184  1  0.84544600  0.74116600  0.54892100  1
  Si  Si185  1  0.07621500  0.27962800  0.51045900  1
  Si  Si186  1  0.67377100  0.41785100  0.52197800  1
  Si  Si187  1  0.10966800  0.87938900  0.56044000  1
  Si  Si188  1  0.41545300  0.26781800  0.50947500  1
  Si  Si189  1  0.51801700  0.72935700  0.54793700  1
  Si  Si190  1  0.36798500  0.02942100  0.57294200  1
  Si  Si191  1  0.26542100  0.56788300  0.53448100  1
  Si  Si192  1  0.47645400  0.47915000  0.61042000  1
  Si  Si193  1  0.24568500  0.94068900  0.64888100  1
  Si  Si194  1  0.38390800  0.66424300  0.62584400  1
  Si  Si195  1  0.61467700  0.20270500  0.58738300  1
  Si  Si196  1  0.21223200  0.34092800  0.59890100  1
  Si  Si197  1  0.64812900  0.80246600  0.63736300  1
  Si  Si198  1  0.95391500  0.19089500  0.58639800  1
  Si  Si199  1  0.05647900  0.65243400  0.62486000  1
  Si  Si200  1  0.90644700  0.95249800  0.64986500  1
  Si  Si201  1  0.80388300  0.49096000  0.61140400  1
  Si  Si202  1  0.01491500  0.40222700  0.68734300  1
  Si  Si203  1  0.78414600  0.86376600  0.72580400  1
  Si  Si204  1  0.92236900  0.58732000  0.70276700  1
  Si  Si205  1  0.15313800  0.12578200  0.66430600  1
  Si  Si206  1  0.75069400  0.26400400  0.67582400  1
  Si  Si207  1  0.18659100  0.72554300  0.71428600  1
  Si  Si208  1  0.49237600  0.11397200  0.66332100  1
  Si  Si209  1  0.59494100  0.57551100  0.70178300  1
  Si  Si210  1  0.44490800  0.87557500  0.72678800  1
  Si  Si211  1  0.34234400  0.41403700  0.68832700  1
  Si  Si212  1  0.55337700  0.32530400  0.76426600  1
  Si  Si213  1  0.32260800  0.78684300  0.80272700  1
  Si  Si214  1  0.46083100  0.51039700  0.77969000  1
  Si  Si215  1  0.69160000  0.04885900  0.74122900  1
  Si  Si216  1  0.28915500  0.18708100  0.75274700  1
  Si  Si217  1  0.72505300  0.64862000  0.79120900  1
  Si  Si218  1  0.03083800  0.03704900  0.74024500  1
  Si  Si219  1  0.13340200  0.49858800  0.77870600  1
  Si  Si220  1  0.98337000  0.79865200  0.80371100  1
  Si  Si221  1  0.88080600  0.33711400  0.76525000  1
