# generated using pymatgen
data_Mg5P23
_symmetry_space_group_name_H-M   'P 1'
_cell_length_a   5.19237519
_cell_length_b   9.16199237
_cell_length_c   42.38861300
_cell_angle_alpha   92.43695802
_cell_angle_beta   87.58880221
_cell_angle_gamma   97.12465569
_symmetry_Int_Tables_number   1
_chemical_formula_structural   Mg5P23
_chemical_formula_sum   'Mg10 P46'
_cell_volume   1997.77481472
_cell_formula_units_Z   2
loop_
 _symmetry_equiv_pos_site_id
 _symmetry_equiv_pos_as_xyz
  1  'x, y, z'
loop_
 _atom_site_type_symbol
 _atom_site_label
 _atom_site_symmetry_multiplicity
 _atom_site_fract_x
 _atom_site_fract_y
 _atom_site_fract_z
 _atom_site_occupancy
  Mg  Mg0  1  0.91653000  0.74959100  0.28000000  1
  Mg  Mg1  1  0.91653000  0.24959100  0.28000000  1
  Mg  Mg2  1  0.81653000  0.44959100  0.38000000  1
  Mg  Mg3  1  0.81653000  0.94959100  0.38000000  1
  Mg  Mg4  1  0.71653000  0.14959100  0.48000000  1
  Mg  Mg5  1  0.71653000  0.64959100  0.48000000  1
  Mg  Mg6  1  0.61653000  0.84959100  0.58000000  1
  Mg  Mg7  1  0.61653000  0.34959100  0.58000000  1
  Mg  Mg8  1  0.51653000  0.54959100  0.68000000  1
  Mg  Mg9  1  0.51653000  0.04959100  0.68000000  1
  P  P10  1  0.71816700  0.65968600  0.22540900  1
  P  P11  1  0.17334000  0.51483600  0.27614500  1
  P  P12  1  0.21489300  0.13949700  0.23459100  1
  P  P13  1  0.65972100  0.98434600  0.28385500  1
  P  P14  1  0.56875500  0.29739200  0.23088700  1
  P  P15  1  0.34262400  0.93674700  0.25079500  1
  P  P16  1  0.36430600  0.50179100  0.22911300  1
  P  P17  1  0.59043600  0.86243500  0.20920500  1
  P  P18  1  0.61816700  0.35968600  0.32540900  1
  P  P19  1  0.07334000  0.21483600  0.37614500  1
  P  P20  1  0.11489300  0.83949700  0.33459100  1
  P  P21  1  0.55972100  0.68434600  0.38385500  1
  P  P22  1  0.46875500  0.99739200  0.33088700  1
  P  P23  1  0.24262400  0.63674700  0.35079500  1
  P  P24  1  0.26430600  0.20179100  0.32911300  1
  P  P25  1  0.49043600  0.56243500  0.30920500  1
  P  P26  1  0.51816700  0.05968600  0.42540900  1
  P  P27  1  0.97334000  0.91483600  0.47614500  1
  P  P28  1  0.01489300  0.53949700  0.43459100  1
  P  P29  1  0.45972100  0.38434600  0.48385500  1
  P  P30  1  0.36875500  0.69739200  0.43088700  1
  P  P31  1  0.14262400  0.33674700  0.45079500  1
  P  P32  1  0.16430600  0.90179100  0.42911300  1
  P  P33  1  0.39043600  0.26243500  0.40920500  1
  P  P34  1  0.41816700  0.75968600  0.52540900  1
  P  P35  1  0.87334000  0.61483600  0.57614500  1
  P  P36  1  0.91489300  0.23949700  0.53459100  1
  P  P37  1  0.35972100  0.08434600  0.58385500  1
  P  P38  1  0.26875500  0.39739200  0.53088700  1
  P  P39  1  0.04262400  0.03674700  0.55079500  1
  P  P40  1  0.06430600  0.60179100  0.52911300  1
  P  P41  1  0.29043600  0.96243500  0.50920500  1
  P  P42  1  0.31816700  0.45968600  0.62540900  1
  P  P43  1  0.77334000  0.31483600  0.67614500  1
  P  P44  1  0.81489300  0.93949700  0.63459100  1
  P  P45  1  0.25972100  0.78434600  0.68385500  1
  P  P46  1  0.16875500  0.09739200  0.63088700  1
  P  P47  1  0.94262400  0.73674700  0.65079500  1
  P  P48  1  0.96430600  0.30179100  0.62911300  1
  P  P49  1  0.19043600  0.66243500  0.60920500  1
  P  P50  1  0.21816700  0.15968600  0.72540900  1
  P  P51  1  0.71489300  0.63949700  0.73459100  1
  P  P52  1  0.06875500  0.79739200  0.73088700  1
  P  P53  1  0.84262400  0.43674700  0.75079500  1
  P  P54  1  0.86430600  0.00179100  0.72911300  1
  P  P55  1  0.09043600  0.36243500  0.70920500  1
