# generated using pymatgen
data_Mg19Zn7
_symmetry_space_group_name_H-M   'P 1'
_cell_length_a   6.14549200
_cell_length_b   7.89728281
_cell_length_c   43.64987100
_cell_angle_alpha   93.71774774
_cell_angle_beta   90.00000000
_cell_angle_gamma   67.10217279
_symmetry_Int_Tables_number   1
_chemical_formula_structural   Mg19Zn7
_chemical_formula_sum   'Mg38 Zn14'
_cell_volume   1946.67205951
_cell_formula_units_Z   2
loop_
 _symmetry_equiv_pos_site_id
 _symmetry_equiv_pos_as_xyz
  1  'x, y, z'
loop_
 _atom_site_type_symbol
 _atom_site_label
 _atom_site_symmetry_multiplicity
 _atom_site_fract_x
 _atom_site_fract_y
 _atom_site_fract_z
 _atom_site_occupancy
  Mg  Mg0  1  0.96264900  0.58621000  0.27745800  1
  Mg  Mg1  1  0.08477200  0.83045600  0.23675000  1
  Mg  Mg2  1  0.45114100  0.58621000  0.27745800  1
  Mg  Mg3  1  0.78926900  0.42146200  0.22158300  1
  Mg  Mg4  1  0.17290000  0.16570800  0.26420900  1
  Mg  Mg5  1  0.66139200  0.16570800  0.26420900  1
  Mg  Mg6  1  0.71264900  0.08621000  0.36079100  1
  Mg  Mg7  1  0.83477200  0.33045600  0.32008400  1
  Mg  Mg8  1  0.20114100  0.08621000  0.36079100  1
  Mg  Mg9  1  0.53926900  0.92146200  0.30491600  1
  Mg  Mg10  1  0.92290000  0.66570800  0.34754200  1
  Mg  Mg11  1  0.41139200  0.66570800  0.34754200  1
  Mg  Mg12  1  0.46264900  0.58621000  0.44412500  1
  Mg  Mg13  1  0.58477200  0.83045600  0.40341700  1
  Mg  Mg14  1  0.95114100  0.58621000  0.44412500  1
  Mg  Mg15  1  0.28926900  0.42146200  0.38825000  1
  Mg  Mg16  1  0.67290000  0.16570800  0.43087500  1
  Mg  Mg17  1  0.16139200  0.16570800  0.43087500  1
  Mg  Mg18  1  0.21264900  0.08621000  0.52745800  1
  Mg  Mg19  1  0.33477200  0.33045600  0.48675000  1
  Mg  Mg20  1  0.70114100  0.08621000  0.52745800  1
  Mg  Mg21  1  0.03926900  0.92146200  0.47158300  1
  Mg  Mg22  1  0.42290000  0.66570800  0.51420900  1
  Mg  Mg23  1  0.91139200  0.66570800  0.51420900  1
  Mg  Mg24  1  0.96264900  0.58621000  0.61079100  1
  Mg  Mg25  1  0.08477200  0.83045600  0.57008400  1
  Mg  Mg26  1  0.45114100  0.58621000  0.61079100  1
  Mg  Mg27  1  0.78926900  0.42146200  0.55491600  1
  Mg  Mg28  1  0.17290000  0.16570800  0.59754200  1
  Mg  Mg29  1  0.66139200  0.16570800  0.59754200  1
  Mg  Mg30  1  0.71264900  0.08621000  0.69412500  1
  Mg  Mg31  1  0.83477200  0.33045600  0.65341700  1
  Mg  Mg32  1  0.20114100  0.08621000  0.69412500  1
  Mg  Mg33  1  0.53926900  0.92146200  0.63825000  1
  Mg  Mg34  1  0.92290000  0.66570800  0.68087500  1
  Mg  Mg35  1  0.41139200  0.66570800  0.68087500  1
  Mg  Mg36  1  0.58477200  0.83045600  0.73675000  1
  Mg  Mg37  1  0.28926900  0.42146200  0.72158300  1
  Zn  Zn38  1  0.58285400  0.83429200  0.23611100  1
  Zn  Zn39  1  0.29118700  0.41762600  0.22222200  1
  Zn  Zn40  1  0.33285400  0.33429200  0.31944400  1
  Zn  Zn41  1  0.04118700  0.91762600  0.30555600  1
  Zn  Zn42  1  0.08285400  0.83429200  0.40277800  1
  Zn  Zn43  1  0.79118700  0.41762600  0.38888900  1
  Zn  Zn44  1  0.83285400  0.33429200  0.48611100  1
  Zn  Zn45  1  0.54118700  0.91762600  0.47222200  1
  Zn  Zn46  1  0.58285400  0.83429200  0.56944400  1
  Zn  Zn47  1  0.29118700  0.41762600  0.55555600  1
  Zn  Zn48  1  0.33285400  0.33429200  0.65277800  1
  Zn  Zn49  1  0.04118700  0.91762600  0.63888900  1
  Zn  Zn50  1  0.08285400  0.83429200  0.73611100  1
  Zn  Zn51  1  0.79118700  0.41762600  0.72222200  1
