# generated using pymatgen
data_La14Mg115
_symmetry_space_group_name_H-M   'P 1'
_cell_length_a   10.38875200
_cell_length_b   14.48655120
_cell_length_c   47.03743100
_cell_angle_alpha   91.51171628
_cell_angle_beta   90.00000000
_cell_angle_gamma   68.98788168
_symmetry_Int_Tables_number   1
_chemical_formula_structural   La14Mg115
_chemical_formula_sum   'La14 Mg115'
_cell_volume   6605.64073251
_cell_formula_units_Z   1
loop_
 _symmetry_equiv_pos_site_id
 _symmetry_equiv_pos_as_xyz
  1  'x, y, z'
loop_
 _atom_site_type_symbol
 _atom_site_label
 _atom_site_symmetry_multiplicity
 _atom_site_fract_x
 _atom_site_fract_y
 _atom_site_fract_z
 _atom_site_occupancy
  La  La0  1  0.42092100  0.15815800  0.34085200  1
  La  La1  1  0.13520700  0.72958600  0.31704300  1
  La  La2  1  0.13520700  0.72958600  0.48370900  1
  La  La3  1  0.84949300  0.30101500  0.45990000  1
  La  La4  1  0.70663600  0.58672900  0.36466200  1
  La  La5  1  0.56377800  0.87244300  0.43609000  1
  La  La6  1  0.84949300  0.30101500  0.62656600  1
  La  La7  1  0.56377800  0.87244300  0.60275700  1
  La  La8  1  0.42092100  0.15815800  0.50751900  1
  La  La9  1  0.27806400  0.44387200  0.57894700  1
  La  La10  1  0.56377800  0.87244300  0.76942400  1
  La  La11  1  0.27806400  0.44387200  0.74561400  1
  La  La12  1  0.13520700  0.72958600  0.65037600  1
  La  La13  1  0.99235000  0.01530000  0.72180500  1
  Mg  Mg14  1  0.49399800  0.52533600  0.30875800  1
  Mg  Mg15  1  0.98066700  0.52533600  0.30875800  1
  Mg  Mg16  1  0.27806400  0.94387200  0.32894700  1
  Mg  Mg17  1  0.77806400  0.94387200  0.32894700  1
  Mg  Mg18  1  0.27806400  0.44387200  0.32894700  1
  Mg  Mg19  1  0.48187000  0.74228400  0.31281000  1
  Mg  Mg20  1  0.07425800  0.14545900  0.34508500  1
  Mg  Mg21  1  0.77584600  0.74228400  0.31281000  1
  Mg  Mg22  1  0.78028200  0.14545900  0.34508500  1
  Mg  Mg23  1  0.99641500  0.00717000  0.30088300  1
  Mg  Mg24  1  0.06213000  0.36240800  0.34913700  1
  Mg  Mg25  1  0.57546200  0.36240800  0.34913700  1
  Mg  Mg26  1  0.55971300  0.88057400  0.35701100  1
  Mg  Mg27  1  0.20828300  0.09676400  0.45161500  1
  Mg  Mg28  1  0.84161800  0.31676300  0.37828200  1
  Mg  Mg29  1  0.69495200  0.09676400  0.45161500  1
  Mg  Mg30  1  0.42066500  0.67200200  0.42653600  1
  Mg  Mg31  1  0.03568300  0.92863400  0.36680500  1
  Mg  Mg32  1  0.32139700  0.35720600  0.39061400  1
  Mg  Mg33  1  0.23473100  0.53053800  0.43394700  1
  Mg  Mg34  1  0.94901700  0.10196700  0.41013800  1
  Mg  Mg35  1  0.13520700  0.72958600  0.40037600  1
  Mg  Mg36  1  0.63520700  0.22958600  0.40037600  1
  Mg  Mg37  1  0.13520700  0.22958600  0.40037600  1
  Mg  Mg38  1  0.99235000  0.51530000  0.47180500  1
  Mg  Mg39  1  0.49235000  0.51530000  0.47180500  1
  Mg  Mg40  1  0.99235000  0.01530000  0.47180500  1
  Mg  Mg41  1  0.21067100  0.88722600  0.43116300  1
  Mg  Mg42  1  0.57829400  0.44595700  0.41158600  1
  Mg  Mg43  1  0.19615600  0.31371300  0.45566700  1
  Mg  Mg44  1  0.78854400  0.71688800  0.48794200  1
  Mg  Mg45  1  0.69212000  0.01321600  0.38916600  1
  Mg  Mg46  1  0.36831100  0.57194600  0.36958900  1
  Mg  Mg47  1  0.49013200  0.31371300  0.45566700  1
  Mg  Mg48  1  0.05974300  0.57194600  0.36958900  1
  Mg  Mg49  1  0.97574900  0.44595700  0.41158600  1
  Mg  Mg50  1  0.29466400  0.01321600  0.38916600  1
  Mg  Mg51  1  0.90210300  0.88722600  0.43116300  1
  Mg  Mg52  1  0.49456800  0.71688800  0.48794200  1
  Mg  Mg53  1  0.71070100  0.57859800  0.44374000  1
  Mg  Mg54  1  0.77641600  0.93383700  0.49199400  1
  Mg  Mg55  1  0.28974700  0.93383700  0.49199400  1
  Mg  Mg56  1  0.84974900  0.78717000  0.37421600  1
  Mg  Mg57  1  0.36308000  0.78717000  0.37421600  1
  Mg  Mg58  1  0.27399900  0.45200300  0.49986900  1
  Mg  Mg59  1  0.90733400  0.67200200  0.42653600  1
  Mg  Mg60  1  0.42879600  0.14240900  0.42247000  1
  Mg  Mg61  1  0.92256900  0.66819300  0.59447200  1
  Mg  Mg62  1  0.55590400  0.88819200  0.52113900  1
  Mg  Mg63  1  0.40923800  0.66819300  0.59447200  1
  Mg  Mg64  1  0.13495000  0.24343000  0.56939300  1
  Mg  Mg65  1  0.74996900  0.50006300  0.50966200  1
  Mg  Mg66  1  0.03568300  0.92863400  0.53347100  1
  Mg  Mg67  1  0.94901700  0.10196700  0.57680400  1
  Mg  Mg68  1  0.66330200  0.67339500  0.55299500  1
  Mg  Mg69  1  0.84949300  0.30101500  0.54323300  1
  Mg  Mg70  1  0.34949300  0.80101500  0.54323300  1
  Mg  Mg71  1  0.84949300  0.80101500  0.54323300  1
  Mg  Mg72  1  0.70663600  0.08672900  0.61466200  1
  Mg  Mg73  1  0.20663600  0.08672900  0.61466200  1
  Mg  Mg74  1  0.70663600  0.58672900  0.61466200  1
  Mg  Mg75  1  0.92495700  0.45865500  0.57402000  1
  Mg  Mg76  1  0.29258000  0.01738500  0.55444300  1
  Mg  Mg77  1  0.91044100  0.88514100  0.59852400  1
  Mg  Mg78  1  0.50283000  0.28831700  0.63079900  1
  Mg  Mg79  1  0.40640600  0.58464400  0.53202300  1
  Mg  Mg80  1  0.08259700  0.14337500  0.51244600  1
  Mg  Mg81  1  0.20441700  0.88514100  0.59852400  1
  Mg  Mg82  1  0.77402800  0.14337500  0.51244600  1
  Mg  Mg83  1  0.69003500  0.01738500  0.55444300  1
  Mg  Mg84  1  0.00895000  0.58464400  0.53202300  1
  Mg  Mg85  1  0.61638800  0.45865500  0.57402000  1
  Mg  Mg86  1  0.20885400  0.28831700  0.63079900  1
  Mg  Mg87  1  0.42498700  0.15002700  0.58659800  1
  Mg  Mg88  1  0.49070200  0.50526500  0.63485100  1
  Mg  Mg89  1  0.00403300  0.50526500  0.63485100  1
  Mg  Mg90  1  0.56403500  0.35859900  0.51707300  1
  Mg  Mg91  1  0.07736600  0.35859900  0.51707300  1
  Mg  Mg92  1  0.98828400  0.02343100  0.64272600  1
  Mg  Mg93  1  0.62161900  0.24343000  0.56939300  1
  Mg  Mg94  1  0.14308100  0.71383700  0.56532700  1
  Mg  Mg95  1  0.63685500  0.23962100  0.73732900  1
  Mg  Mg96  1  0.27019000  0.45962000  0.66399600  1
  Mg  Mg97  1  0.12352400  0.23962100  0.73732900  1
  Mg  Mg98  1  0.84923600  0.81485900  0.71225000  1
  Mg  Mg99  1  0.46425400  0.07149100  0.65251900  1
  Mg  Mg100  1  0.74996900  0.50006300  0.67632800  1
  Mg  Mg101  1  0.66330200  0.67339500  0.71966200  1
  Mg  Mg102  1  0.37758800  0.24482400  0.69585200  1
  Mg  Mg103  1  0.56377800  0.87244300  0.68609000  1
  Mg  Mg104  1  0.06377800  0.37244300  0.68609000  1
  Mg  Mg105  1  0.56377800  0.37244300  0.68609000  1
  Mg  Mg106  1  0.42092100  0.65815800  0.75751900  1
  Mg  Mg107  1  0.92092100  0.65815800  0.75751900  1
  Mg  Mg108  1  0.42092100  0.15815800  0.75751900  1
  Mg  Mg109  1  0.63924300  0.03008300  0.71687700  1
  Mg  Mg110  1  0.00686500  0.58881400  0.69730000  1
  Mg  Mg111  1  0.62472700  0.45657000  0.74138100  1
  Mg  Mg112  1  0.21711500  0.85974500  0.77365600  1
  Mg  Mg113  1  0.12069100  0.15607300  0.67488000  1
  Mg  Mg114  1  0.79688300  0.71480300  0.65530400  1
  Mg  Mg115  1  0.91870300  0.45657000  0.74138100  1
  Mg  Mg116  1  0.48831400  0.71480300  0.65530400  1
  Mg  Mg117  1  0.40432100  0.58881400  0.69730000  1
  Mg  Mg118  1  0.72323600  0.15607300  0.67488000  1
  Mg  Mg119  1  0.33067400  0.03008300  0.71687700  1
  Mg  Mg120  1  0.92314000  0.85974500  0.77365600  1
  Mg  Mg121  1  0.13927200  0.72145500  0.72945500  1
  Mg  Mg122  1  0.20498800  0.07669400  0.77770900  1
  Mg  Mg123  1  0.71831900  0.07669400  0.77770900  1
  Mg  Mg124  1  0.27832100  0.93002800  0.65993100  1
  Mg  Mg125  1  0.79165200  0.93002800  0.65993100  1
  Mg  Mg126  1  0.70257000  0.59486000  0.78558300  1
  Mg  Mg127  1  0.33590500  0.81485900  0.71225000  1
  Mg  Mg128  1  0.85736700  0.28526600  0.70818400  1
