# generated using pymatgen
data_Mg7Pd3
_symmetry_space_group_name_H-M   'P 1'
_cell_length_a   8.02302000
_cell_length_b   15.30931400
_cell_length_c   44.19418400
_cell_angle_alpha   90.00000000
_cell_angle_beta   90.00000000
_cell_angle_gamma   90.00000000
_symmetry_Int_Tables_number   1
_chemical_formula_structural   Mg7Pd3
_chemical_formula_sum   'Mg112 Pd48'
_cell_volume   5428.23605101
_cell_formula_units_Z   16
loop_
 _symmetry_equiv_pos_site_id
 _symmetry_equiv_pos_as_xyz
  1  'x, y, z'
loop_
 _atom_site_type_symbol
 _atom_site_label
 _atom_site_symmetry_multiplicity
 _atom_site_fract_x
 _atom_site_fract_y
 _atom_site_fract_z
 _atom_site_occupancy
  Mg  Mg0  1  0.06459400  0.50822000  0.26428600  1
  Mg  Mg1  1  0.93540600  0.89132000  0.26428600  1
  Mg  Mg2  1  0.56459400  0.89132000  0.26428600  1
  Mg  Mg3  1  0.43540600  0.50822000  0.26428600  1
  Mg  Mg4  1  0.25000000  0.96926200  0.22598100  1
  Mg  Mg5  1  0.25000000  0.96926200  0.30259100  1
  Mg  Mg6  1  0.25000000  0.16078600  0.26428600  1
  Mg  Mg7  1  0.75000000  0.43027800  0.30259100  1
  Mg  Mg8  1  0.75000000  0.43027800  0.22598100  1
  Mg  Mg9  1  0.75000000  0.23875400  0.26428600  1
  Mg  Mg10  1  0.00000000  0.69977000  0.26428600  1
  Mg  Mg11  1  0.50000000  0.69977000  0.26428600  1
  Mg  Mg12  1  0.06459400  0.79554500  0.32175100  1
  Mg  Mg13  1  0.06459400  0.29554500  0.30682100  1
  Mg  Mg14  1  0.06459400  0.00822000  0.36428600  1
  Mg  Mg15  1  0.93540600  0.10399500  0.30682100  1
  Mg  Mg16  1  0.93540600  0.60399500  0.32175100  1
  Mg  Mg17  1  0.93540600  0.39132000  0.36428600  1
  Mg  Mg18  1  0.56459400  0.10399500  0.30682100  1
  Mg  Mg19  1  0.56459400  0.60399500  0.32175100  1
  Mg  Mg20  1  0.56459400  0.39132000  0.36428600  1
  Mg  Mg21  1  0.43540600  0.79554500  0.32175100  1
  Mg  Mg22  1  0.43540600  0.29554500  0.30682100  1
  Mg  Mg23  1  0.43540600  0.00822000  0.36428600  1
  Mg  Mg24  1  0.25000000  0.46926200  0.32598100  1
  Mg  Mg25  1  0.25000000  0.46926200  0.40259100  1
  Mg  Mg26  1  0.25000000  0.66078600  0.36428600  1
  Mg  Mg27  1  0.75000000  0.93027800  0.40259100  1
  Mg  Mg28  1  0.75000000  0.93027800  0.32598100  1
  Mg  Mg29  1  0.75000000  0.73875400  0.36428600  1
  Mg  Mg30  1  0.00000000  0.19977000  0.36428600  1
  Mg  Mg31  1  0.50000000  0.19977000  0.36428600  1
  Mg  Mg32  1  0.06459400  0.29554500  0.42175100  1
  Mg  Mg33  1  0.06459400  0.79554500  0.40682100  1
  Mg  Mg34  1  0.06459400  0.50822000  0.46428600  1
  Mg  Mg35  1  0.93540600  0.60399500  0.40682100  1
  Mg  Mg36  1  0.93540600  0.10399500  0.42175100  1
  Mg  Mg37  1  0.93540600  0.89132000  0.46428600  1
  Mg  Mg38  1  0.56459400  0.60399500  0.40682100  1
  Mg  Mg39  1  0.56459400  0.10399500  0.42175100  1
  Mg  Mg40  1  0.56459400  0.89132000  0.46428600  1
  Mg  Mg41  1  0.43540600  0.29554500  0.42175100  1
  Mg  Mg42  1  0.43540600  0.79554500  0.40682100  1
  Mg  Mg43  1  0.43540600  0.50822000  0.46428600  1
  Mg  Mg44  1  0.25000000  0.96926200  0.42598100  1
  Mg  Mg45  1  0.25000000  0.96926200  0.50259100  1
  Mg  Mg46  1  0.25000000  0.16078600  0.46428600  1
  Mg  Mg47  1  0.75000000  0.43027800  0.50259100  1
  Mg  Mg48  1  0.75000000  0.43027800  0.42598100  1
  Mg  Mg49  1  0.75000000  0.23875400  0.46428600  1
  Mg  Mg50  1  0.00000000  0.69977000  0.46428600  1
  Mg  Mg51  1  0.50000000  0.69977000  0.46428600  1
  Mg  Mg52  1  0.06459400  0.79554500  0.52175100  1
  Mg  Mg53  1  0.06459400  0.29554500  0.50682100  1
  Mg  Mg54  1  0.06459400  0.00822000  0.56428600  1
  Mg  Mg55  1  0.93540600  0.10399500  0.50682100  1
  Mg  Mg56  1  0.93540600  0.60399500  0.52175100  1
  Mg  Mg57  1  0.93540600  0.39132000  0.56428600  1
  Mg  Mg58  1  0.56459400  0.10399500  0.50682100  1
  Mg  Mg59  1  0.56459400  0.60399500  0.52175100  1
  Mg  Mg60  1  0.56459400  0.39132000  0.56428600  1
  Mg  Mg61  1  0.43540600  0.79554500  0.52175100  1
  Mg  Mg62  1  0.43540600  0.29554500  0.50682100  1
  Mg  Mg63  1  0.43540600  0.00822000  0.56428600  1
  Mg  Mg64  1  0.25000000  0.46926200  0.52598100  1
  Mg  Mg65  1  0.25000000  0.46926200  0.60259100  1
  Mg  Mg66  1  0.25000000  0.66078600  0.56428600  1
  Mg  Mg67  1  0.75000000  0.93027800  0.60259100  1
  Mg  Mg68  1  0.75000000  0.93027800  0.52598100  1
  Mg  Mg69  1  0.75000000  0.73875400  0.56428600  1
  Mg  Mg70  1  0.00000000  0.19977000  0.56428600  1
  Mg  Mg71  1  0.50000000  0.19977000  0.56428600  1
  Mg  Mg72  1  0.06459400  0.29554500  0.62175100  1
  Mg  Mg73  1  0.06459400  0.79554500  0.60682100  1
  Mg  Mg74  1  0.06459400  0.50822000  0.66428600  1
  Mg  Mg75  1  0.93540600  0.60399500  0.60682100  1
  Mg  Mg76  1  0.93540600  0.10399500  0.62175100  1
  Mg  Mg77  1  0.93540600  0.89132000  0.66428600  1
  Mg  Mg78  1  0.56459400  0.60399500  0.60682100  1
  Mg  Mg79  1  0.56459400  0.10399500  0.62175100  1
  Mg  Mg80  1  0.56459400  0.89132000  0.66428600  1
  Mg  Mg81  1  0.43540600  0.29554500  0.62175100  1
  Mg  Mg82  1  0.43540600  0.79554500  0.60682100  1
  Mg  Mg83  1  0.43540600  0.50822000  0.66428600  1
  Mg  Mg84  1  0.25000000  0.96926200  0.62598100  1
  Mg  Mg85  1  0.25000000  0.96926200  0.70259100  1
  Mg  Mg86  1  0.25000000  0.16078600  0.66428600  1
  Mg  Mg87  1  0.75000000  0.43027800  0.70259100  1
  Mg  Mg88  1  0.75000000  0.43027800  0.62598100  1
  Mg  Mg89  1  0.75000000  0.23875400  0.66428600  1
  Mg  Mg90  1  0.00000000  0.69977000  0.66428600  1
  Mg  Mg91  1  0.50000000  0.69977000  0.66428600  1
  Mg  Mg92  1  0.06459400  0.79554500  0.72175100  1
  Mg  Mg93  1  0.06459400  0.29554500  0.70682100  1
  Mg  Mg94  1  0.06459400  0.00822000  0.76428600  1
  Mg  Mg95  1  0.93540600  0.10399500  0.70682100  1
  Mg  Mg96  1  0.93540600  0.60399500  0.72175100  1
  Mg  Mg97  1  0.93540600  0.39132000  0.76428600  1
  Mg  Mg98  1  0.56459400  0.10399500  0.70682100  1
  Mg  Mg99  1  0.56459400  0.60399500  0.72175100  1
  Mg  Mg100  1  0.56459400  0.39132000  0.76428600  1
  Mg  Mg101  1  0.43540600  0.79554500  0.72175100  1
  Mg  Mg102  1  0.43540600  0.29554500  0.70682100  1
  Mg  Mg103  1  0.43540600  0.00822000  0.76428600  1
  Mg  Mg104  1  0.25000000  0.46926200  0.72598100  1
  Mg  Mg105  1  0.25000000  0.46926200  0.80259100  1
  Mg  Mg106  1  0.25000000  0.66078600  0.76428600  1
  Mg  Mg107  1  0.75000000  0.93027800  0.80259100  1
  Mg  Mg108  1  0.75000000  0.93027800  0.72598100  1
  Mg  Mg109  1  0.75000000  0.73875400  0.76428600  1
  Mg  Mg110  1  0.00000000  0.19977000  0.76428600  1
  Mg  Mg111  1  0.50000000  0.19977000  0.76428600  1
  Pd  Pd112  1  0.25000000  0.63748200  0.22691300  1
  Pd  Pd113  1  0.25000000  0.63748200  0.30165900  1
  Pd  Pd114  1  0.25000000  0.82434700  0.26428600  1
  Pd  Pd115  1  0.75000000  0.76205800  0.30165900  1
  Pd  Pd116  1  0.75000000  0.76205800  0.22691300  1
  Pd  Pd117  1  0.75000000  0.57519300  0.26428600  1
  Pd  Pd118  1  0.25000000  0.36643700  0.26428600  1
  Pd  Pd119  1  0.75000000  0.03310300  0.26428600  1
  Pd  Pd120  1  0.25000000  0.13748200  0.32691300  1
  Pd  Pd121  1  0.25000000  0.13748200  0.40165900  1
  Pd  Pd122  1  0.25000000  0.32434700  0.36428600  1
  Pd  Pd123  1  0.75000000  0.26205800  0.40165900  1
  Pd  Pd124  1  0.75000000  0.26205800  0.32691300  1
  Pd  Pd125  1  0.75000000  0.07519300  0.36428600  1
  Pd  Pd126  1  0.25000000  0.86643700  0.36428600  1
  Pd  Pd127  1  0.75000000  0.53310300  0.36428600  1
  Pd  Pd128  1  0.25000000  0.63748200  0.42691300  1
  Pd  Pd129  1  0.25000000  0.63748200  0.50165900  1
  Pd  Pd130  1  0.25000000  0.82434700  0.46428600  1
  Pd  Pd131  1  0.75000000  0.76205800  0.50165900  1
  Pd  Pd132  1  0.75000000  0.76205800  0.42691300  1
  Pd  Pd133  1  0.75000000  0.57519300  0.46428600  1
  Pd  Pd134  1  0.25000000  0.36643700  0.46428600  1
  Pd  Pd135  1  0.75000000  0.03310300  0.46428600  1
  Pd  Pd136  1  0.25000000  0.13748200  0.52691300  1
  Pd  Pd137  1  0.25000000  0.13748200  0.60165900  1
  Pd  Pd138  1  0.25000000  0.32434700  0.56428600  1
  Pd  Pd139  1  0.75000000  0.26205800  0.60165900  1
  Pd  Pd140  1  0.75000000  0.26205800  0.52691300  1
  Pd  Pd141  1  0.75000000  0.07519300  0.56428600  1
  Pd  Pd142  1  0.25000000  0.86643700  0.56428600  1
  Pd  Pd143  1  0.75000000  0.53310300  0.56428600  1
  Pd  Pd144  1  0.25000000  0.63748200  0.62691300  1
  Pd  Pd145  1  0.25000000  0.63748200  0.70165900  1
  Pd  Pd146  1  0.25000000  0.82434700  0.66428600  1
  Pd  Pd147  1  0.75000000  0.76205800  0.70165900  1
  Pd  Pd148  1  0.75000000  0.76205800  0.62691300  1
  Pd  Pd149  1  0.75000000  0.57519300  0.66428600  1
  Pd  Pd150  1  0.25000000  0.36643700  0.66428600  1
  Pd  Pd151  1  0.75000000  0.03310300  0.66428600  1
  Pd  Pd152  1  0.25000000  0.13748200  0.72691300  1
  Pd  Pd153  1  0.25000000  0.13748200  0.80165900  1
  Pd  Pd154  1  0.25000000  0.32434700  0.76428600  1
  Pd  Pd155  1  0.75000000  0.26205800  0.80165900  1
  Pd  Pd156  1  0.75000000  0.26205800  0.72691300  1
  Pd  Pd157  1  0.75000000  0.07519300  0.76428600  1
  Pd  Pd158  1  0.25000000  0.86643700  0.76428600  1
  Pd  Pd159  1  0.75000000  0.53310300  0.76428600  1
