# generated using pymatgen
data_Mg2P9
_symmetry_space_group_name_H-M   'P 1'
_cell_length_a   5.12288200
_cell_length_b   7.59593174
_cell_length_c   41.09478400
_cell_angle_alpha   88.07320358
_cell_angle_beta   90.00000000
_cell_angle_gamma   90.00000000
_symmetry_Int_Tables_number   1
_chemical_formula_structural   Mg2P9
_chemical_formula_sum   'Mg8 P36'
_cell_volume   1598.21973233
_cell_formula_units_Z   4
loop_
 _symmetry_equiv_pos_site_id
 _symmetry_equiv_pos_as_xyz
  1  'x, y, z'
loop_
 _atom_site_type_symbol
 _atom_site_label
 _atom_site_symmetry_multiplicity
 _atom_site_fract_x
 _atom_site_fract_y
 _atom_site_fract_z
 _atom_site_occupancy
  Mg  Mg0  1  0.00000000  0.91561500  0.27500000  1
  Mg  Mg1  1  0.50000000  0.41561500  0.27500000  1
  Mg  Mg2  1  0.00000000  0.79061500  0.40000000  1
  Mg  Mg3  1  0.50000000  0.29061500  0.40000000  1
  Mg  Mg4  1  0.00000000  0.66561500  0.52500000  1
  Mg  Mg5  1  0.50000000  0.16561500  0.52500000  1
  Mg  Mg6  1  0.00000000  0.54061500  0.65000000  1
  Mg  Mg7  1  0.50000000  0.04061500  0.65000000  1
  P  P8  1  0.29223200  0.13767500  0.30661900  1
  P  P9  1  0.79223200  0.19355600  0.24338100  1
  P  P10  1  0.70776800  0.69355600  0.24338100  1
  P  P11  1  0.20776800  0.63767500  0.30661900  1
  P  P12  1  0.89159400  0.59054400  0.19961100  1
  P  P13  1  0.39159400  0.86568700  0.22538900  1
  P  P14  1  0.10840600  0.36568700  0.22538900  1
  P  P15  1  0.60840600  0.09054400  0.19961100  1
  P  P16  1  0.29223200  0.01267500  0.43161900  1
  P  P17  1  0.79223200  0.06855600  0.36838100  1
  P  P18  1  0.70776800  0.56855600  0.36838100  1
  P  P19  1  0.20776800  0.51267500  0.43161900  1
  P  P20  1  0.89159400  0.46554400  0.32461100  1
  P  P21  1  0.39159400  0.74068700  0.35038900  1
  P  P22  1  0.10840600  0.24068700  0.35038900  1
  P  P23  1  0.60840600  0.96554400  0.32461100  1
  P  P24  1  0.29223200  0.88767500  0.55661900  1
  P  P25  1  0.79223200  0.94355600  0.49338100  1
  P  P26  1  0.70776800  0.44355600  0.49338100  1
  P  P27  1  0.20776800  0.38767500  0.55661900  1
  P  P28  1  0.89159400  0.34054400  0.44961100  1
  P  P29  1  0.39159400  0.61568700  0.47538900  1
  P  P30  1  0.10840600  0.11568700  0.47538900  1
  P  P31  1  0.60840600  0.84054400  0.44961100  1
  P  P32  1  0.29223200  0.76267500  0.68161900  1
  P  P33  1  0.79223200  0.81855600  0.61838100  1
  P  P34  1  0.70776800  0.31855600  0.61838100  1
  P  P35  1  0.20776800  0.26267500  0.68161900  1
  P  P36  1  0.89159400  0.21554400  0.57461100  1
  P  P37  1  0.39159400  0.49068700  0.60038900  1
  P  P38  1  0.10840600  0.99068700  0.60038900  1
  P  P39  1  0.60840600  0.71554400  0.57461100  1
  P  P40  1  0.89159400  0.09054400  0.69961100  1
  P  P41  1  0.39159400  0.36568700  0.72538900  1
  P  P42  1  0.10840600  0.86568700  0.72538900  1
  P  P43  1  0.60840600  0.59054400  0.69961100  1
