# generated using pymatgen
data_Ce10Mg19
_symmetry_space_group_name_H-M   'P 1'
_cell_length_a   6.10380826
_cell_length_b   9.04803440
_cell_length_c   43.09862600
_cell_angle_alpha   93.06597768
_cell_angle_beta   91.86959958
_cell_angle_gamma   95.28202900
_symmetry_Int_Tables_number   1
_chemical_formula_structural   Ce10Mg19
_chemical_formula_sum   'Ce20 Mg38'
_cell_volume   2365.03990550
_cell_formula_units_Z   2
loop_
 _symmetry_equiv_pos_site_id
 _symmetry_equiv_pos_as_xyz
  1  'x, y, z'
loop_
 _atom_site_type_symbol
 _atom_site_label
 _atom_site_symmetry_multiplicity
 _atom_site_fract_x
 _atom_site_fract_y
 _atom_site_fract_z
 _atom_site_occupancy
  Ce  Ce0  1  0.09476500  0.14885400  0.22638100  1
  Ce  Ce1  1  0.73914600  0.26781300  0.19028600  1
  Ce  Ce2  1  0.84476500  0.21135400  0.28888100  1
  Ce  Ce3  1  0.48914600  0.33031300  0.25278600  1
  Ce  Ce4  1  0.59476500  0.27385400  0.35138100  1
  Ce  Ce5  1  0.23914600  0.39281300  0.31528600  1
  Ce  Ce6  1  0.34476500  0.33635400  0.41388100  1
  Ce  Ce7  1  0.98914600  0.45531300  0.37778600  1
  Ce  Ce8  1  0.09476500  0.39885400  0.47638100  1
  Ce  Ce9  1  0.73914600  0.51781300  0.44028600  1
  Ce  Ce10  1  0.84476500  0.46135400  0.53888100  1
  Ce  Ce11  1  0.48914600  0.58031300  0.50278600  1
  Ce  Ce12  1  0.59476500  0.52385400  0.60138100  1
  Ce  Ce13  1  0.23914600  0.64281300  0.56528600  1
  Ce  Ce14  1  0.34476500  0.58635400  0.66388100  1
  Ce  Ce15  1  0.98914600  0.70531300  0.62778600  1
  Ce  Ce16  1  0.09476500  0.64885400  0.72638100  1
  Ce  Ce17  1  0.73914600  0.76781300  0.69028600  1
  Ce  Ce18  1  0.84476500  0.71135400  0.78888100  1
  Ce  Ce19  1  0.48914600  0.83031300  0.75278600  1
  Mg  Mg20  1  0.01085400  0.49854400  0.24735900  1
  Mg  Mg21  1  0.17500200  0.77069600  0.20632200  1
  Mg  Mg22  1  0.65890900  0.64597100  0.21034500  1
  Mg  Mg23  1  0.57305700  0.98062200  0.23180800  1
  Mg  Mg24  1  0.76085400  0.56104400  0.30985900  1
  Mg  Mg25  1  0.92500200  0.83319600  0.26882200  1
  Mg  Mg26  1  0.40890900  0.70847100  0.27284500  1
  Mg  Mg27  1  0.32305700  0.04312200  0.29430800  1
  Mg  Mg28  1  0.51085400  0.62354400  0.37235900  1
  Mg  Mg29  1  0.67500200  0.89569600  0.33132200  1
  Mg  Mg30  1  0.15890900  0.77097100  0.33534500  1
  Mg  Mg31  1  0.07305700  0.10562200  0.35680800  1
  Mg  Mg32  1  0.26085400  0.68604400  0.43485900  1
  Mg  Mg33  1  0.42500200  0.95819600  0.39382200  1
  Mg  Mg34  1  0.90890900  0.83347100  0.39784500  1
  Mg  Mg35  1  0.82305700  0.16812200  0.41930800  1
  Mg  Mg36  1  0.01085400  0.74854400  0.49735900  1
  Mg  Mg37  1  0.17500200  0.02069600  0.45632200  1
  Mg  Mg38  1  0.65890900  0.89597100  0.46034500  1
  Mg  Mg39  1  0.57305700  0.23062200  0.48180800  1
  Mg  Mg40  1  0.76085400  0.81104400  0.55985900  1
  Mg  Mg41  1  0.92500200  0.08319600  0.51882200  1
  Mg  Mg42  1  0.40890900  0.95847100  0.52284500  1
  Mg  Mg43  1  0.32305700  0.29312200  0.54430800  1
  Mg  Mg44  1  0.51085400  0.87354400  0.62235900  1
  Mg  Mg45  1  0.67500200  0.14569600  0.58132200  1
  Mg  Mg46  1  0.15890900  0.02097100  0.58534500  1
  Mg  Mg47  1  0.07305700  0.35562200  0.60680800  1
  Mg  Mg48  1  0.26085400  0.93604400  0.68485900  1
  Mg  Mg49  1  0.42500200  0.20819600  0.64382200  1
  Mg  Mg50  1  0.90890900  0.08347100  0.64784500  1
  Mg  Mg51  1  0.82305700  0.41812200  0.66930800  1
  Mg  Mg52  1  0.01085400  0.99854400  0.74735900  1
  Mg  Mg53  1  0.17500200  0.27069600  0.70632200  1
  Mg  Mg54  1  0.65890900  0.14597100  0.71034500  1
  Mg  Mg55  1  0.57305700  0.48062200  0.73180800  1
  Mg  Mg56  1  0.92500200  0.33319600  0.76882200  1
  Mg  Mg57  1  0.40890900  0.20847100  0.77284500  1
