# generated using pymatgen
data_Mg2Au
_symmetry_space_group_name_H-M   'P 1'
_cell_length_a   8.57805800
_cell_length_b   19.42687861
_cell_length_c   43.79002900
_cell_angle_alpha   77.44775440
_cell_angle_beta   90.00000000
_cell_angle_gamma   90.00000000
_symmetry_Int_Tables_number   1
_chemical_formula_structural   Mg2Au
_chemical_formula_sum   'Mg124 Au62'
_cell_volume   7122.96428687
_cell_formula_units_Z   62
loop_
 _symmetry_equiv_pos_site_id
 _symmetry_equiv_pos_as_xyz
  1  'x, y, z'
loop_
 _atom_site_type_symbol
 _atom_site_label
 _atom_site_symmetry_multiplicity
 _atom_site_fract_x
 _atom_site_fract_y
 _atom_site_fract_z
 _atom_site_occupancy
  Mg  Mg0  1  0.55699100  0.68243900  0.29433600  1
  Mg  Mg1  1  0.44300900  0.13438500  0.28899700  1
  Mg  Mg2  1  0.19798500  0.72260500  0.29879900  1
  Mg  Mg3  1  0.80201500  0.09421900  0.28453400  1
  Mg  Mg4  1  0.94817100  0.83323500  0.31109100  1
  Mg  Mg5  1  0.55182900  0.28323500  0.36109100  1
  Mg  Mg6  1  0.05182900  0.88359000  0.37224200  1
  Mg  Mg7  1  0.44817100  0.43359000  0.32224200  1
  Mg  Mg8  1  0.94796500  0.43442700  0.37789000  1
  Mg  Mg9  1  0.55203500  0.98442700  0.32789000  1
  Mg  Mg10  1  0.05203500  0.28239800  0.30544300  1
  Mg  Mg11  1  0.44796500  0.73239800  0.35544300  1
  Mg  Mg12  1  0.94300900  0.13243900  0.34433600  1
  Mg  Mg13  1  0.55699100  0.58243900  0.39433600  1
  Mg  Mg14  1  0.05699100  0.58438500  0.33899700  1
  Mg  Mg15  1  0.44300900  0.03438500  0.38899700  1
  Mg  Mg16  1  0.19798500  0.62260500  0.39879900  1
  Mg  Mg17  1  0.30201500  0.17260500  0.34879900  1
  Mg  Mg18  1  0.80201500  0.99421900  0.38453400  1
  Mg  Mg19  1  0.69798500  0.54421900  0.33453400  1
  Mg  Mg20  1  0.19071800  0.32189000  0.36538600  1
  Mg  Mg21  1  0.30928200  0.87189000  0.31538600  1
  Mg  Mg22  1  0.80928200  0.39493400  0.31794700  1
  Mg  Mg23  1  0.69071800  0.84493400  0.36794700  1
  Mg  Mg24  1  0.19186700  0.02118500  0.33197500  1
  Mg  Mg25  1  0.30813300  0.47118500  0.38197500  1
  Mg  Mg26  1  0.80813300  0.69563900  0.35135900  1
  Mg  Mg27  1  0.69186700  0.24563900  0.30135900  1
  Mg  Mg28  1  0.94817100  0.73323500  0.41109100  1
  Mg  Mg29  1  0.55182900  0.18323500  0.46109100  1
  Mg  Mg30  1  0.05182900  0.78359000  0.47224200  1
  Mg  Mg31  1  0.44817100  0.33359000  0.42224200  1
  Mg  Mg32  1  0.94796500  0.33442700  0.47789000  1
  Mg  Mg33  1  0.55203500  0.88442700  0.42789000  1
  Mg  Mg34  1  0.05203500  0.18239800  0.40544300  1
  Mg  Mg35  1  0.44796500  0.63239800  0.45544300  1
  Mg  Mg36  1  0.94300900  0.03243900  0.44433600  1
  Mg  Mg37  1  0.55699100  0.48243900  0.49433600  1
  Mg  Mg38  1  0.05699100  0.48438500  0.43899700  1
  Mg  Mg39  1  0.44300900  0.93438500  0.48899700  1
  Mg  Mg40  1  0.19798500  0.52260500  0.49879900  1
  Mg  Mg41  1  0.30201500  0.07260500  0.44879900  1
  Mg  Mg42  1  0.80201500  0.89421900  0.48453400  1
  Mg  Mg43  1  0.69798500  0.44421900  0.43453400  1
  Mg  Mg44  1  0.19071800  0.22189000  0.46538600  1
  Mg  Mg45  1  0.30928200  0.77189000  0.41538600  1
  Mg  Mg46  1  0.80928200  0.29493400  0.41794700  1
  Mg  Mg47  1  0.69071800  0.74493400  0.46794700  1
  Mg  Mg48  1  0.19186700  0.92118500  0.43197500  1
  Mg  Mg49  1  0.30813300  0.37118500  0.48197500  1
  Mg  Mg50  1  0.80813300  0.59563900  0.45135900  1
  Mg  Mg51  1  0.69186700  0.14563900  0.40135900  1
  Mg  Mg52  1  0.94817100  0.63323500  0.51109100  1
  Mg  Mg53  1  0.55182900  0.08323500  0.56109100  1
  Mg  Mg54  1  0.05182900  0.68359000  0.57224200  1
  Mg  Mg55  1  0.44817100  0.23359000  0.52224200  1
  Mg  Mg56  1  0.94796500  0.23442700  0.57789000  1
  Mg  Mg57  1  0.55203500  0.78442700  0.52789000  1
  Mg  Mg58  1  0.05203500  0.08239800  0.50544300  1
  Mg  Mg59  1  0.44796500  0.53239800  0.55544300  1
  Mg  Mg60  1  0.94300900  0.93243900  0.54433600  1
  Mg  Mg61  1  0.55699100  0.38243900  0.59433600  1
  Mg  Mg62  1  0.05699100  0.38438500  0.53899700  1
  Mg  Mg63  1  0.44300900  0.83438500  0.58899700  1
  Mg  Mg64  1  0.19798500  0.42260500  0.59879900  1
  Mg  Mg65  1  0.30201500  0.97260500  0.54879900  1
  Mg  Mg66  1  0.80201500  0.79421900  0.58453400  1
  Mg  Mg67  1  0.69798500  0.34421900  0.53453400  1
  Mg  Mg68  1  0.19071800  0.12189000  0.56538600  1
  Mg  Mg69  1  0.30928200  0.67189000  0.51538600  1
  Mg  Mg70  1  0.80928200  0.19493400  0.51794700  1
  Mg  Mg71  1  0.69071800  0.64493400  0.56794700  1
  Mg  Mg72  1  0.19186700  0.82118500  0.53197500  1
  Mg  Mg73  1  0.30813300  0.27118500  0.58197500  1
  Mg  Mg74  1  0.80813300  0.49563900  0.55135900  1
  Mg  Mg75  1  0.69186700  0.04563900  0.50135900  1
  Mg  Mg76  1  0.94817100  0.53323500  0.61109100  1
  Mg  Mg77  1  0.55182900  0.98323500  0.66109100  1
  Mg  Mg78  1  0.05182900  0.58359000  0.67224200  1
  Mg  Mg79  1  0.44817100  0.13359000  0.62224200  1
  Mg  Mg80  1  0.94796500  0.13442700  0.67789000  1
  Mg  Mg81  1  0.55203500  0.68442700  0.62789000  1
  Mg  Mg82  1  0.05203500  0.98239800  0.60544300  1
  Mg  Mg83  1  0.44796500  0.43239800  0.65544300  1
  Mg  Mg84  1  0.94300900  0.83243900  0.64433600  1
  Mg  Mg85  1  0.55699100  0.28243900  0.69433600  1
  Mg  Mg86  1  0.05699100  0.28438500  0.63899700  1
  Mg  Mg87  1  0.44300900  0.73438500  0.68899700  1
  Mg  Mg88  1  0.19798500  0.32260500  0.69879900  1
  Mg  Mg89  1  0.30201500  0.87260500  0.64879900  1
  Mg  Mg90  1  0.80201500  0.69421900  0.68453400  1
  Mg  Mg91  1  0.69798500  0.24421900  0.63453400  1
  Mg  Mg92  1  0.19071800  0.02189000  0.66538600  1
  Mg  Mg93  1  0.30928200  0.57189000  0.61538600  1
  Mg  Mg94  1  0.80928200  0.09493400  0.61794700  1
  Mg  Mg95  1  0.69071800  0.54493400  0.66794700  1
  Mg  Mg96  1  0.19186700  0.72118500  0.63197500  1
  Mg  Mg97  1  0.30813300  0.17118500  0.68197500  1
  Mg  Mg98  1  0.80813300  0.39563900  0.65135900  1
  Mg  Mg99  1  0.69186700  0.94563900  0.60135900  1
  Mg  Mg100  1  0.94817100  0.43323500  0.71109100  1
  Mg  Mg101  1  0.55182900  0.88323500  0.76109100  1
  Mg  Mg102  1  0.05182900  0.48359000  0.77224200  1
  Mg  Mg103  1  0.44817100  0.03359000  0.72224200  1
  Mg  Mg104  1  0.94796500  0.03442700  0.77789000  1
  Mg  Mg105  1  0.55203500  0.58442700  0.72789000  1
  Mg  Mg106  1  0.05203500  0.88239800  0.70544300  1
  Mg  Mg107  1  0.44796500  0.33239800  0.75544300  1
  Mg  Mg108  1  0.94300900  0.73243900  0.74433600  1
  Mg  Mg109  1  0.55699100  0.18243900  0.79433600  1
  Mg  Mg110  1  0.05699100  0.18438500  0.73899700  1
  Mg  Mg111  1  0.44300900  0.63438500  0.78899700  1
  Mg  Mg112  1  0.19798500  0.22260500  0.79879900  1
  Mg  Mg113  1  0.30201500  0.77260500  0.74879900  1
  Mg  Mg114  1  0.80201500  0.59421900  0.78453400  1
  Mg  Mg115  1  0.69798500  0.14421900  0.73453400  1
  Mg  Mg116  1  0.19071800  0.92189000  0.76538600  1
  Mg  Mg117  1  0.30928200  0.47189000  0.71538600  1
  Mg  Mg118  1  0.80928200  0.99493400  0.71794700  1
  Mg  Mg119  1  0.69071800  0.44493400  0.76794700  1
  Mg  Mg120  1  0.19186700  0.62118500  0.73197500  1
  Mg  Mg121  1  0.30813300  0.07118500  0.78197500  1
  Mg  Mg122  1  0.80813300  0.29563900  0.75135900  1
  Mg  Mg123  1  0.69186700  0.84563900  0.70135900  1
  Au  Au124  1  0.87452300  0.66358500  0.29224100  1
  Au  Au125  1  0.12547700  0.15323900  0.29109200  1
  Au  Au126  1  0.86848600  0.96226000  0.32542800  1
  Au  Au127  1  0.63151400  0.41226000  0.37542800  1
  Au  Au128  1  0.13151400  0.75456500  0.35790600  1
  Au  Au129  1  0.36848600  0.30456500  0.30790600  1
  Au  Au130  1  0.86913300  0.26149200  0.35867600  1
  Au  Au131  1  0.63086700  0.81149200  0.30867600  1
  Au  Au132  1  0.13086700  0.45533300  0.32465800  1
  Au  Au133  1  0.36913300  0.90533300  0.37465800  1
  Au  Au134  1  0.87452300  0.56358500  0.39224100  1
  Au  Au135  1  0.62547700  0.11358500  0.34224100  1
  Au  Au136  1  0.12547700  0.05323900  0.39109200  1
  Au  Au137  1  0.37452300  0.60323900  0.34109200  1
  Au  Au138  1  0.86848600  0.86226000  0.42542800  1
  Au  Au139  1  0.63151400  0.31226000  0.47542800  1
  Au  Au140  1  0.13151400  0.65456500  0.45790600  1
  Au  Au141  1  0.36848600  0.20456500  0.40790600  1
  Au  Au142  1  0.86913300  0.16149200  0.45867600  1
  Au  Au143  1  0.63086700  0.71149200  0.40867600  1
  Au  Au144  1  0.13086700  0.35533300  0.42465800  1
  Au  Au145  1  0.36913300  0.80533300  0.47465800  1
  Au  Au146  1  0.87452300  0.46358500  0.49224100  1
  Au  Au147  1  0.62547700  0.01358500  0.44224100  1
  Au  Au148  1  0.12547700  0.95323900  0.49109200  1
  Au  Au149  1  0.37452300  0.50323900  0.44109200  1
  Au  Au150  1  0.86848600  0.76226000  0.52542800  1
  Au  Au151  1  0.63151400  0.21226000  0.57542800  1
  Au  Au152  1  0.13151400  0.55456500  0.55790600  1
  Au  Au153  1  0.36848600  0.10456500  0.50790600  1
  Au  Au154  1  0.86913300  0.06149200  0.55867600  1
  Au  Au155  1  0.63086700  0.61149200  0.50867600  1
  Au  Au156  1  0.13086700  0.25533300  0.52465800  1
  Au  Au157  1  0.36913300  0.70533300  0.57465800  1
  Au  Au158  1  0.87452300  0.36358500  0.59224100  1
  Au  Au159  1  0.62547700  0.91358500  0.54224100  1
  Au  Au160  1  0.12547700  0.85323900  0.59109200  1
  Au  Au161  1  0.37452300  0.40323900  0.54109200  1
  Au  Au162  1  0.86848600  0.66226000  0.62542800  1
  Au  Au163  1  0.63151400  0.11226000  0.67542800  1
  Au  Au164  1  0.13151400  0.45456500  0.65790600  1
  Au  Au165  1  0.36848600  0.00456500  0.60790600  1
  Au  Au166  1  0.86913300  0.96149200  0.65867600  1
  Au  Au167  1  0.63086700  0.51149200  0.60867600  1
  Au  Au168  1  0.13086700  0.15533300  0.62465800  1
  Au  Au169  1  0.36913300  0.60533300  0.67465800  1
  Au  Au170  1  0.87452300  0.26358500  0.69224100  1
  Au  Au171  1  0.62547700  0.81358500  0.64224100  1
  Au  Au172  1  0.12547700  0.75323900  0.69109200  1
  Au  Au173  1  0.37452300  0.30323900  0.64109200  1
  Au  Au174  1  0.86848600  0.56226000  0.72542800  1
  Au  Au175  1  0.63151400  0.01226000  0.77542800  1
  Au  Au176  1  0.13151400  0.35456500  0.75790600  1
  Au  Au177  1  0.36848600  0.90456500  0.70790600  1
  Au  Au178  1  0.86913300  0.86149200  0.75867600  1
  Au  Au179  1  0.63086700  0.41149200  0.70867600  1
  Au  Au180  1  0.13086700  0.05533300  0.72465800  1
  Au  Au181  1  0.36913300  0.50533300  0.77465800  1
  Au  Au182  1  0.87452300  0.16358500  0.79224100  1
  Au  Au183  1  0.62547700  0.71358500  0.74224100  1
  Au  Au184  1  0.12547700  0.65323900  0.79109200  1
  Au  Au185  1  0.37452300  0.20323900  0.74109200  1
