# generated using pymatgen
data_Mg2Ga5
_symmetry_space_group_name_H-M   'P 1'
_cell_length_a   7.14992847
_cell_length_b   7.14992865
_cell_length_c   43.98030700
_cell_angle_alpha   88.65072652
_cell_angle_beta   88.65072649
_cell_angle_gamma   76.00064847
_symmetry_Int_Tables_number   1
_chemical_formula_structural   Mg2Ga5
_chemical_formula_sum   'Mg20 Ga50'
_cell_volume   2180.58501334
_cell_formula_units_Z   10
loop_
 _symmetry_equiv_pos_site_id
 _symmetry_equiv_pos_as_xyz
  1  'x, y, z'
loop_
 _atom_site_type_symbol
 _atom_site_label
 _atom_site_symmetry_multiplicity
 _atom_site_fract_x
 _atom_site_fract_y
 _atom_site_fract_z
 _atom_site_occupancy
  Mg  Mg0  1  0.13908500  0.73713400  0.72487800  1
  Mg  Mg1  1  0.73713400  0.13908500  0.72487800  1
  Mg  Mg2  1  0.88786600  0.48591500  0.77512200  1
  Mg  Mg3  1  0.48591500  0.88786600  0.77512200  1
  Mg  Mg4  1  0.76408500  0.36213400  0.59987800  1
  Mg  Mg5  1  0.36213400  0.76408500  0.59987800  1
  Mg  Mg6  1  0.51286600  0.11091500  0.65012200  1
  Mg  Mg7  1  0.11091500  0.51286600  0.65012200  1
  Mg  Mg8  1  0.38908500  0.98713400  0.47487800  1
  Mg  Mg9  1  0.98713400  0.38908500  0.47487800  1
  Mg  Mg10  1  0.13786600  0.73591500  0.52512200  1
  Mg  Mg11  1  0.73591500  0.13786600  0.52512200  1
  Mg  Mg12  1  0.01408500  0.61213400  0.34987800  1
  Mg  Mg13  1  0.61213400  0.01408500  0.34987800  1
  Mg  Mg14  1  0.76286600  0.36091500  0.40012200  1
  Mg  Mg15  1  0.36091500  0.76286600  0.40012200  1
  Mg  Mg16  1  0.63908500  0.23713400  0.22487800  1
  Mg  Mg17  1  0.23713400  0.63908500  0.22487800  1
  Mg  Mg18  1  0.38786600  0.98591500  0.27512200  1
  Mg  Mg19  1  0.98591500  0.38786600  0.27512200  1
  Ga  Ga20  1  0.39818100  0.99010000  0.71054700  1
  Ga  Ga21  1  0.25411500  0.25411500  0.79855200  1
  Ga  Ga22  1  0.50916600  0.50916600  0.74754200  1
  Ga  Ga23  1  0.99010000  0.39818100  0.71054700  1
  Ga  Ga24  1  0.89072500  0.89072500  0.77607500  1
  Ga  Ga25  1  0.73427500  0.73427500  0.72392500  1
  Ga  Ga26  1  0.37088500  0.37088500  0.70144800  1
  Ga  Ga27  1  0.22681900  0.63490000  0.78945300  1
  Ga  Ga28  1  0.63490000  0.22681900  0.78945300  1
  Ga  Ga29  1  0.11583400  0.11583400  0.75245800  1
  Ga  Ga30  1  0.02318100  0.61510000  0.58554700  1
  Ga  Ga31  1  0.87911500  0.87911500  0.67355200  1
  Ga  Ga32  1  0.13416600  0.13416600  0.62254200  1
  Ga  Ga33  1  0.61510000  0.02318100  0.58554700  1
  Ga  Ga34  1  0.51572500  0.51572500  0.65107500  1
  Ga  Ga35  1  0.35927500  0.35927500  0.59892500  1
  Ga  Ga36  1  0.99588500  0.99588500  0.57644800  1
  Ga  Ga37  1  0.85181900  0.25990000  0.66445300  1
  Ga  Ga38  1  0.25990000  0.85181900  0.66445300  1
  Ga  Ga39  1  0.74083400  0.74083400  0.62745800  1
  Ga  Ga40  1  0.64818100  0.24010000  0.46054700  1
  Ga  Ga41  1  0.50411500  0.50411500  0.54855200  1
  Ga  Ga42  1  0.75916600  0.75916600  0.49754200  1
  Ga  Ga43  1  0.24010000  0.64818100  0.46054700  1
  Ga  Ga44  1  0.14072500  0.14072500  0.52607500  1
  Ga  Ga45  1  0.98427500  0.98427500  0.47392500  1
  Ga  Ga46  1  0.62088500  0.62088500  0.45144800  1
  Ga  Ga47  1  0.47681900  0.88490000  0.53945300  1
  Ga  Ga48  1  0.88490000  0.47681900  0.53945300  1
  Ga  Ga49  1  0.36583400  0.36583400  0.50245800  1
  Ga  Ga50  1  0.27318100  0.86510000  0.33554700  1
  Ga  Ga51  1  0.12911500  0.12911500  0.42355200  1
  Ga  Ga52  1  0.38416600  0.38416600  0.37254200  1
  Ga  Ga53  1  0.86510000  0.27318100  0.33554700  1
  Ga  Ga54  1  0.76572500  0.76572500  0.40107500  1
  Ga  Ga55  1  0.60927500  0.60927500  0.34892500  1
  Ga  Ga56  1  0.24588500  0.24588500  0.32644800  1
  Ga  Ga57  1  0.10181900  0.50990000  0.41445300  1
  Ga  Ga58  1  0.50990000  0.10181900  0.41445300  1
  Ga  Ga59  1  0.99083400  0.99083400  0.37745800  1
  Ga  Ga60  1  0.89818100  0.49010000  0.21054700  1
  Ga  Ga61  1  0.75411500  0.75411500  0.29855200  1
  Ga  Ga62  1  0.00916600  0.00916600  0.24754200  1
  Ga  Ga63  1  0.49010000  0.89818100  0.21054700  1
  Ga  Ga64  1  0.39072500  0.39072500  0.27607500  1
  Ga  Ga65  1  0.23427500  0.23427500  0.22392500  1
  Ga  Ga66  1  0.87088500  0.87088500  0.20144800  1
  Ga  Ga67  1  0.72681900  0.13490000  0.28945300  1
  Ga  Ga68  1  0.13490000  0.72681900  0.28945300  1
  Ga  Ga69  1  0.61583400  0.61583400  0.25245800  1
