# generated using pymatgen
data_Ce2Mg
_symmetry_space_group_name_H-M   'P 1'
_cell_length_a   6.12314821
_cell_length_b   9.39222206
_cell_length_c   42.96888300
_cell_angle_alpha   94.02189718
_cell_angle_beta   91.04336207
_cell_angle_gamma   94.98002187
_symmetry_Int_Tables_number   1
_chemical_formula_structural   Ce2Mg
_chemical_formula_sum   'Ce40 Mg20'
_cell_volume   2455.01380564
_cell_formula_units_Z   20
loop_
 _symmetry_equiv_pos_site_id
 _symmetry_equiv_pos_as_xyz
  1  'x, y, z'
loop_
 _atom_site_type_symbol
 _atom_site_label
 _atom_site_symmetry_multiplicity
 _atom_site_fract_x
 _atom_site_fract_y
 _atom_site_fract_z
 _atom_site_occupancy
  Ce  Ce0  1  0.21994300  0.45455800  0.19501400  1
  Ce  Ce1  1  0.13673400  0.80968600  0.21581700  1
  Ce  Ce2  1  0.61326600  0.62781400  0.22168300  1
  Ce  Ce3  1  0.53005700  0.98294200  0.24248600  1
  Ce  Ce4  1  0.96994300  0.51705800  0.25751400  1
  Ce  Ce5  1  0.88673400  0.87218600  0.27831700  1
  Ce  Ce6  1  0.36326600  0.69031400  0.28418300  1
  Ce  Ce7  1  0.28005700  0.04544200  0.30498600  1
  Ce  Ce8  1  0.71994300  0.57955800  0.32001400  1
  Ce  Ce9  1  0.63673400  0.93468600  0.34081700  1
  Ce  Ce10  1  0.11326600  0.75281400  0.34668300  1
  Ce  Ce11  1  0.03005700  0.10794200  0.36748600  1
  Ce  Ce12  1  0.46994300  0.64205800  0.38251400  1
  Ce  Ce13  1  0.38673400  0.99718600  0.40331700  1
  Ce  Ce14  1  0.86326600  0.81531400  0.40918300  1
  Ce  Ce15  1  0.78005700  0.17044200  0.42998600  1
  Ce  Ce16  1  0.21994300  0.70455800  0.44501400  1
  Ce  Ce17  1  0.13673400  0.05968600  0.46581700  1
  Ce  Ce18  1  0.61326600  0.87781400  0.47168300  1
  Ce  Ce19  1  0.53005700  0.23294200  0.49248600  1
  Ce  Ce20  1  0.96994300  0.76705800  0.50751400  1
  Ce  Ce21  1  0.88673400  0.12218600  0.52831700  1
  Ce  Ce22  1  0.36326600  0.94031400  0.53418300  1
  Ce  Ce23  1  0.28005700  0.29544200  0.55498600  1
  Ce  Ce24  1  0.71994300  0.82955800  0.57001400  1
  Ce  Ce25  1  0.63673400  0.18468600  0.59081700  1
  Ce  Ce26  1  0.11326600  0.00281400  0.59668300  1
  Ce  Ce27  1  0.03005700  0.35794200  0.61748600  1
  Ce  Ce28  1  0.46994300  0.89205800  0.63251400  1
  Ce  Ce29  1  0.38673400  0.24718600  0.65331700  1
  Ce  Ce30  1  0.86326600  0.06531400  0.65918300  1
  Ce  Ce31  1  0.78005700  0.42044200  0.67998600  1
  Ce  Ce32  1  0.21994300  0.95455800  0.69501400  1
  Ce  Ce33  1  0.13673400  0.30968600  0.71581700  1
  Ce  Ce34  1  0.61326600  0.12781400  0.72168300  1
  Ce  Ce35  1  0.53005700  0.48294200  0.74248600  1
  Ce  Ce36  1  0.96994300  0.01705800  0.75751400  1
  Ce  Ce37  1  0.88673400  0.37218600  0.77831700  1
  Ce  Ce38  1  0.36326600  0.19031400  0.78418300  1
  Ce  Ce39  1  0.28005700  0.54544200  0.80498600  1
  Mg  Mg40  1  0.05225900  0.15500900  0.23693500  1
  Mg  Mg41  1  0.69774100  0.28249100  0.20056500  1
  Mg  Mg42  1  0.80225900  0.21750900  0.29943500  1
  Mg  Mg43  1  0.44774100  0.34499100  0.26306500  1
  Mg  Mg44  1  0.55225900  0.28000900  0.36193500  1
  Mg  Mg45  1  0.19774100  0.40749100  0.32556500  1
  Mg  Mg46  1  0.30225900  0.34250900  0.42443500  1
  Mg  Mg47  1  0.94774100  0.46999100  0.38806500  1
  Mg  Mg48  1  0.05225900  0.40500900  0.48693500  1
  Mg  Mg49  1  0.69774100  0.53249100  0.45056500  1
  Mg  Mg50  1  0.80225900  0.46750900  0.54943500  1
  Mg  Mg51  1  0.44774100  0.59499100  0.51306500  1
  Mg  Mg52  1  0.55225900  0.53000900  0.61193500  1
  Mg  Mg53  1  0.19774100  0.65749100  0.57556500  1
  Mg  Mg54  1  0.30225900  0.59250900  0.67443500  1
  Mg  Mg55  1  0.94774100  0.71999100  0.63806500  1
  Mg  Mg56  1  0.05225900  0.65500900  0.73693500  1
  Mg  Mg57  1  0.69774100  0.78249100  0.70056500  1
  Mg  Mg58  1  0.80225900  0.71750900  0.79943500  1
  Mg  Mg59  1  0.44774100  0.84499100  0.76306500  1
