# generated using pymatgen
data_Ac9Mg43
_symmetry_space_group_name_H-M   'P 1'
_cell_length_a   4.98899200
_cell_length_b   10.67314300
_cell_length_c   43.13499300
_cell_angle_alpha   90.00000000
_cell_angle_beta   90.00000000
_cell_angle_gamma   90.00000000
_symmetry_Int_Tables_number   1
_chemical_formula_structural   Ac9Mg43
_chemical_formula_sum   'Ac9 Mg43'
_cell_volume   2296.86181444
_cell_formula_units_Z   1
loop_
 _symmetry_equiv_pos_site_id
 _symmetry_equiv_pos_as_xyz
  1  'x, y, z'
loop_
 _atom_site_type_symbol
 _atom_site_label
 _atom_site_symmetry_multiplicity
 _atom_site_fract_x
 _atom_site_fract_y
 _atom_site_fract_z
 _atom_site_occupancy
  Ac  Ac0  1  0.50000000  0.62500000  0.22619000  1
  Ac  Ac1  1  0.50000000  0.12500000  0.29761900  1
  Ac  Ac2  1  0.50000000  0.62500000  0.36904800  1
  Ac  Ac3  1  0.50000000  0.12500000  0.44047600  1
  Ac  Ac4  1  0.50000000  0.62500000  0.51190500  1
  Ac  Ac5  1  0.50000000  0.12500000  0.58333300  1
  Ac  Ac6  1  0.50000000  0.62500000  0.65476200  1
  Ac  Ac7  1  0.50000000  0.12500000  0.72619000  1
  Ac  Ac8  1  0.50000000  0.62500000  0.79761900  1
  Mg  Mg9  1  0.00000000  0.12500000  0.22619000  1
  Mg  Mg10  1  0.50000000  0.29166700  0.22619000  1
  Mg  Mg11  1  0.50000000  0.95833300  0.22619000  1
  Mg  Mg12  1  0.00000000  0.62500000  0.29761900  1
  Mg  Mg13  1  0.50000000  0.79166700  0.29761900  1
  Mg  Mg14  1  0.00000000  0.87500000  0.26190500  1
  Mg  Mg15  1  0.50000000  0.45833300  0.29761900  1
  Mg  Mg16  1  0.00000000  0.37500000  0.26190500  1
  Mg  Mg17  1  0.00000000  0.12500000  0.36904800  1
  Mg  Mg18  1  0.50000000  0.29166700  0.36904800  1
  Mg  Mg19  1  0.00000000  0.37500000  0.33333300  1
  Mg  Mg20  1  0.50000000  0.95833300  0.36904800  1
  Mg  Mg21  1  0.00000000  0.87500000  0.33333300  1
  Mg  Mg22  1  0.00000000  0.62500000  0.44047600  1
  Mg  Mg23  1  0.50000000  0.79166700  0.44047600  1
  Mg  Mg24  1  0.00000000  0.87500000  0.40476200  1
  Mg  Mg25  1  0.50000000  0.45833300  0.44047600  1
  Mg  Mg26  1  0.00000000  0.37500000  0.40476200  1
  Mg  Mg27  1  0.00000000  0.12500000  0.51190500  1
  Mg  Mg28  1  0.50000000  0.29166700  0.51190500  1
  Mg  Mg29  1  0.00000000  0.37500000  0.47619000  1
  Mg  Mg30  1  0.50000000  0.95833300  0.51190500  1
  Mg  Mg31  1  0.00000000  0.87500000  0.47619000  1
  Mg  Mg32  1  0.00000000  0.62500000  0.58333300  1
  Mg  Mg33  1  0.50000000  0.79166700  0.58333300  1
  Mg  Mg34  1  0.00000000  0.87500000  0.54761900  1
  Mg  Mg35  1  0.50000000  0.45833300  0.58333300  1
  Mg  Mg36  1  0.00000000  0.37500000  0.54761900  1
  Mg  Mg37  1  0.00000000  0.12500000  0.65476200  1
  Mg  Mg38  1  0.50000000  0.29166700  0.65476200  1
  Mg  Mg39  1  0.00000000  0.37500000  0.61904800  1
  Mg  Mg40  1  0.50000000  0.95833300  0.65476200  1
  Mg  Mg41  1  0.00000000  0.87500000  0.61904800  1
  Mg  Mg42  1  0.00000000  0.62500000  0.72619000  1
  Mg  Mg43  1  0.50000000  0.79166700  0.72619000  1
  Mg  Mg44  1  0.00000000  0.87500000  0.69047600  1
  Mg  Mg45  1  0.50000000  0.45833300  0.72619000  1
  Mg  Mg46  1  0.00000000  0.37500000  0.69047600  1
  Mg  Mg47  1  0.00000000  0.12500000  0.79761900  1
  Mg  Mg48  1  0.50000000  0.29166700  0.79761900  1
  Mg  Mg49  1  0.00000000  0.37500000  0.76190500  1
  Mg  Mg50  1  0.50000000  0.95833300  0.79761900  1
  Mg  Mg51  1  0.00000000  0.87500000  0.76190500  1
