# generated using pymatgen
data_CeMg
_symmetry_space_group_name_H-M   'P 1'
_cell_length_a   5.79243193
_cell_length_b   6.79006776
_cell_length_c   43.05818700
_cell_angle_alpha   92.82650886
_cell_angle_beta   92.16583205
_cell_angle_gamma   98.15101393
_symmetry_Int_Tables_number   1
_chemical_formula_structural   CeMg
_chemical_formula_sum   'Ce20 Mg20'
_cell_volume   1672.65549919
_cell_formula_units_Z   20
loop_
 _symmetry_equiv_pos_site_id
 _symmetry_equiv_pos_as_xyz
  1  'x, y, z'
loop_
 _atom_site_type_symbol
 _atom_site_label
 _atom_site_symmetry_multiplicity
 _atom_site_fract_x
 _atom_site_fract_y
 _atom_site_fract_z
 _atom_site_occupancy
  Ce  Ce0  1  0.26922500  0.41237700  0.80727900  1
  Ce  Ce1  1  0.48077500  0.27512300  0.75522100  1
  Ce  Ce2  1  0.01922500  0.09987700  0.74477900  1
  Ce  Ce3  1  0.23077500  0.96262300  0.69272100  1
  Ce  Ce4  1  0.76922500  0.78737700  0.68227900  1
  Ce  Ce5  1  0.98077500  0.65012300  0.63022100  1
  Ce  Ce6  1  0.51922500  0.47487700  0.61977900  1
  Ce  Ce7  1  0.73077500  0.33762300  0.56772100  1
  Ce  Ce8  1  0.26922500  0.16237700  0.55727900  1
  Ce  Ce9  1  0.48077500  0.02512300  0.50522100  1
  Ce  Ce10  1  0.01922500  0.84987700  0.49477900  1
  Ce  Ce11  1  0.23077500  0.71262300  0.44272100  1
  Ce  Ce12  1  0.76922500  0.53737700  0.43227900  1
  Ce  Ce13  1  0.98077500  0.40012300  0.38022100  1
  Ce  Ce14  1  0.51922500  0.22487700  0.36977900  1
  Ce  Ce15  1  0.73077500  0.08762300  0.31772100  1
  Ce  Ce16  1  0.26922500  0.91237700  0.30727900  1
  Ce  Ce17  1  0.48077500  0.77512300  0.25522100  1
  Ce  Ce18  1  0.01922500  0.59987700  0.24477900  1
  Ce  Ce19  1  0.23077500  0.46262300  0.19272100  1
  Mg  Mg20  1  0.50684700  0.77819000  0.75343200  1
  Mg  Mg21  1  0.24315300  0.90931000  0.80906800  1
  Mg  Mg22  1  0.25684700  0.46569000  0.69093200  1
  Mg  Mg23  1  0.99315300  0.59681000  0.74656800  1
  Mg  Mg24  1  0.00684700  0.15319000  0.62843200  1
  Mg  Mg25  1  0.74315300  0.28431000  0.68406800  1
  Mg  Mg26  1  0.75684700  0.84069000  0.56593200  1
  Mg  Mg27  1  0.49315300  0.97181000  0.62156800  1
  Mg  Mg28  1  0.50684700  0.52819000  0.50343200  1
  Mg  Mg29  1  0.24315300  0.65931000  0.55906800  1
  Mg  Mg30  1  0.25684700  0.21569000  0.44093200  1
  Mg  Mg31  1  0.99315300  0.34681000  0.49656800  1
  Mg  Mg32  1  0.00684700  0.90319000  0.37843200  1
  Mg  Mg33  1  0.74315300  0.03431000  0.43406800  1
  Mg  Mg34  1  0.75684700  0.59069000  0.31593200  1
  Mg  Mg35  1  0.49315300  0.72181000  0.37156800  1
  Mg  Mg36  1  0.50684700  0.27819000  0.25343200  1
  Mg  Mg37  1  0.24315300  0.40931000  0.30906800  1
  Mg  Mg38  1  0.25684700  0.96569000  0.19093200  1
  Mg  Mg39  1  0.99315300  0.09681000  0.24656800  1
