# generated using pymatgen
data_Mg45Si23
_symmetry_space_group_name_H-M   'P 1'
_cell_length_a   7.16868100
_cell_length_b   12.34156200
_cell_length_c   49.66607700
_cell_angle_alpha   90.00000000
_cell_angle_beta   90.00000000
_cell_angle_gamma   90.00000000
_symmetry_Int_Tables_number   1
_chemical_formula_structural   Mg45Si23
_chemical_formula_sum   'Mg90 Si46'
_cell_volume   4394.09297457
_cell_formula_units_Z   2
loop_
 _symmetry_equiv_pos_site_id
 _symmetry_equiv_pos_as_xyz
  1  'x, y, z'
loop_
 _atom_site_type_symbol
 _atom_site_label
 _atom_site_symmetry_multiplicity
 _atom_site_fract_x
 _atom_site_fract_y
 _atom_site_fract_z
 _atom_site_occupancy
  Mg  Mg0  1  0.76292000  0.08295800  0.26345500  1
  Mg  Mg1  1  0.39978700  0.58295800  0.25290500  1
  Mg  Mg2  1  0.38118700  0.58295800  0.18912100  1
  Mg  Mg3  1  0.15491900  0.08295800  0.29302100  1
  Mg  Mg4  1  0.13632000  0.08295800  0.22923800  1
  Mg  Mg5  1  0.77318600  0.58295800  0.21868800  1
  Mg  Mg6  1  0.77318600  0.91704200  0.21868800  1
  Mg  Mg7  1  0.13632000  0.41704200  0.22923800  1
  Mg  Mg8  1  0.15491900  0.41704200  0.29302100  1
  Mg  Mg9  1  0.38118700  0.91704200  0.18912100  1
  Mg  Mg10  1  0.39978700  0.91704200  0.25290500  1
  Mg  Mg11  1  0.76292000  0.41704200  0.26345500  1
  Mg  Mg12  1  0.72716300  0.75000000  0.26934700  1
  Mg  Mg13  1  0.41726200  0.25000000  0.26032000  1
  Mg  Mg14  1  0.32795400  0.25000000  0.18759800  1
  Mg  Mg15  1  0.20815200  0.75000000  0.29454500  1
  Mg  Mg16  1  0.11884400  0.75000000  0.22182200  1
  Mg  Mg17  1  0.80894300  0.25000000  0.21279600  1
  Mg  Mg18  1  0.26292000  0.08295800  0.38845500  1
  Mg  Mg19  1  0.89978700  0.58295800  0.37790500  1
  Mg  Mg20  1  0.88118700  0.58295800  0.31412100  1
  Mg  Mg21  1  0.65491900  0.08295800  0.41802100  1
  Mg  Mg22  1  0.63632000  0.08295800  0.35423800  1
  Mg  Mg23  1  0.27318600  0.58295800  0.34368800  1
  Mg  Mg24  1  0.27318600  0.91704200  0.34368800  1
  Mg  Mg25  1  0.63632000  0.41704200  0.35423800  1
  Mg  Mg26  1  0.65491900  0.41704200  0.41802100  1
  Mg  Mg27  1  0.88118700  0.91704200  0.31412100  1
  Mg  Mg28  1  0.89978700  0.91704200  0.37790500  1
  Mg  Mg29  1  0.26292000  0.41704200  0.38845500  1
  Mg  Mg30  1  0.22716300  0.75000000  0.39434700  1
  Mg  Mg31  1  0.91726200  0.25000000  0.38532000  1
  Mg  Mg32  1  0.82795400  0.25000000  0.31259800  1
  Mg  Mg33  1  0.70815200  0.75000000  0.41954500  1
  Mg  Mg34  1  0.61884400  0.75000000  0.34682200  1
  Mg  Mg35  1  0.30894300  0.25000000  0.33779600  1
  Mg  Mg36  1  0.76292000  0.08295800  0.51345500  1
  Mg  Mg37  1  0.39978700  0.58295800  0.50290500  1
  Mg  Mg38  1  0.38118700  0.58295800  0.43912100  1
  Mg  Mg39  1  0.15491900  0.08295800  0.54302100  1
  Mg  Mg40  1  0.13632000  0.08295800  0.47923800  1
  Mg  Mg41  1  0.77318600  0.58295800  0.46868800  1
  Mg  Mg42  1  0.77318600  0.91704200  0.46868800  1
  Mg  Mg43  1  0.13632000  0.41704200  0.47923800  1
  Mg  Mg44  1  0.15491900  0.41704200  0.54302100  1
  Mg  Mg45  1  0.38118700  0.91704200  0.43912100  1
  Mg  Mg46  1  0.39978700  0.91704200  0.50290500  1
  Mg  Mg47  1  0.76292000  0.41704200  0.51345500  1
  Mg  Mg48  1  0.72716300  0.75000000  0.51934700  1
  Mg  Mg49  1  0.41726200  0.25000000  0.51032000  1
  Mg  Mg50  1  0.32795400  0.25000000  0.43759800  1
  Mg  Mg51  1  0.20815200  0.75000000  0.54454500  1
  Mg  Mg52  1  0.11884400  0.75000000  0.47182200  1
  Mg  Mg53  1  0.80894300  0.25000000  0.46279600  1
  Mg  Mg54  1  0.26292000  0.08295800  0.63845500  1
  Mg  Mg55  1  0.89978700  0.58295800  0.62790500  1
  Mg  Mg56  1  0.88118700  0.58295800  0.56412100  1
  Mg  Mg57  1  0.65491900  0.08295800  0.66802100  1
  Mg  Mg58  1  0.63632000  0.08295800  0.60423800  1
  Mg  Mg59  1  0.27318600  0.58295800  0.59368800  1
  Mg  Mg60  1  0.27318600  0.91704200  0.59368800  1
  Mg  Mg61  1  0.63632000  0.41704200  0.60423800  1
  Mg  Mg62  1  0.65491900  0.41704200  0.66802100  1
  Mg  Mg63  1  0.88118700  0.91704200  0.56412100  1
  Mg  Mg64  1  0.89978700  0.91704200  0.62790500  1
  Mg  Mg65  1  0.26292000  0.41704200  0.63845500  1
  Mg  Mg66  1  0.22716300  0.75000000  0.64434700  1
  Mg  Mg67  1  0.91726200  0.25000000  0.63532000  1
  Mg  Mg68  1  0.82795400  0.25000000  0.56259800  1
  Mg  Mg69  1  0.70815200  0.75000000  0.66954500  1
  Mg  Mg70  1  0.61884400  0.75000000  0.59682200  1
  Mg  Mg71  1  0.30894300  0.25000000  0.58779600  1
  Mg  Mg72  1  0.76292000  0.08295800  0.76345500  1
  Mg  Mg73  1  0.39978700  0.58295800  0.75290500  1
  Mg  Mg74  1  0.38118700  0.58295800  0.68912100  1
  Mg  Mg75  1  0.15491900  0.08295800  0.79302100  1
  Mg  Mg76  1  0.13632000  0.08295800  0.72923800  1
  Mg  Mg77  1  0.77318600  0.58295800  0.71868800  1
  Mg  Mg78  1  0.77318600  0.91704200  0.71868800  1
  Mg  Mg79  1  0.13632000  0.41704200  0.72923800  1
  Mg  Mg80  1  0.15491900  0.41704200  0.79302100  1
  Mg  Mg81  1  0.38118700  0.91704200  0.68912100  1
  Mg  Mg82  1  0.39978700  0.91704200  0.75290500  1
  Mg  Mg83  1  0.76292000  0.41704200  0.76345500  1
  Mg  Mg84  1  0.72716300  0.75000000  0.76934700  1
  Mg  Mg85  1  0.41726200  0.25000000  0.76032000  1
  Mg  Mg86  1  0.32795400  0.25000000  0.68759800  1
  Mg  Mg87  1  0.20815200  0.75000000  0.79454500  1
  Mg  Mg88  1  0.11884400  0.75000000  0.72182200  1
  Mg  Mg89  1  0.80894300  0.25000000  0.71279600  1
  Si  Si90  1  0.51805300  0.89974100  0.30357100  1
  Si  Si91  1  0.51805300  0.39974100  0.30357100  1
  Si  Si92  1  0.51805300  0.10025900  0.30357100  1
  Si  Si93  1  0.51805300  0.60025900  0.30357100  1
  Si  Si94  1  0.51805300  0.75000000  0.22023800  1
  Si  Si95  1  0.01805300  0.25000000  0.26190500  1
  Si  Si96  1  0.01805300  0.58746500  0.26190500  1
  Si  Si97  1  0.51805300  0.08746500  0.22023800  1
  Si  Si98  1  0.51805300  0.41253500  0.22023800  1
  Si  Si99  1  0.01805300  0.91253500  0.26190500  1
  Si  Si100  1  0.01805300  0.89974100  0.42857100  1
  Si  Si101  1  0.01805300  0.39974100  0.42857100  1
  Si  Si102  1  0.01805300  0.10025900  0.42857100  1
  Si  Si103  1  0.01805300  0.60025900  0.42857100  1
  Si  Si104  1  0.01805300  0.75000000  0.34523800  1
  Si  Si105  1  0.51805300  0.25000000  0.38690500  1
  Si  Si106  1  0.51805300  0.58746500  0.38690500  1
  Si  Si107  1  0.01805300  0.08746500  0.34523800  1
  Si  Si108  1  0.01805300  0.41253500  0.34523800  1
  Si  Si109  1  0.51805300  0.91253500  0.38690500  1
  Si  Si110  1  0.51805300  0.89974100  0.55357100  1
  Si  Si111  1  0.51805300  0.39974100  0.55357100  1
  Si  Si112  1  0.51805300  0.10025900  0.55357100  1
  Si  Si113  1  0.51805300  0.60025900  0.55357100  1
  Si  Si114  1  0.51805300  0.75000000  0.47023800  1
  Si  Si115  1  0.01805300  0.25000000  0.51190500  1
  Si  Si116  1  0.01805300  0.58746500  0.51190500  1
  Si  Si117  1  0.51805300  0.08746500  0.47023800  1
  Si  Si118  1  0.51805300  0.41253500  0.47023800  1
  Si  Si119  1  0.01805300  0.91253500  0.51190500  1
  Si  Si120  1  0.01805300  0.89974100  0.67857100  1
  Si  Si121  1  0.01805300  0.39974100  0.67857100  1
  Si  Si122  1  0.01805300  0.10025900  0.67857100  1
  Si  Si123  1  0.01805300  0.60025900  0.67857100  1
  Si  Si124  1  0.01805300  0.75000000  0.59523800  1
  Si  Si125  1  0.51805300  0.25000000  0.63690500  1
  Si  Si126  1  0.51805300  0.58746500  0.63690500  1
  Si  Si127  1  0.01805300  0.08746500  0.59523800  1
  Si  Si128  1  0.01805300  0.41253500  0.59523800  1
  Si  Si129  1  0.51805300  0.91253500  0.63690500  1
  Si  Si130  1  0.51805300  0.75000000  0.72023800  1
  Si  Si131  1  0.01805300  0.25000000  0.76190500  1
  Si  Si132  1  0.01805300  0.58746500  0.76190500  1
  Si  Si133  1  0.51805300  0.08746500  0.72023800  1
  Si  Si134  1  0.51805300  0.41253500  0.72023800  1
  Si  Si135  1  0.01805300  0.91253500  0.76190500  1
