# generated using pymatgen
data_Ho2Mg
_symmetry_space_group_name_H-M   'P 1'
_cell_length_a   5.45155000
_cell_length_b   8.73039247
_cell_length_c   43.10006900
_cell_angle_alpha   90.72372495
_cell_angle_beta   90.00000000
_cell_angle_gamma   90.00000000
_symmetry_Int_Tables_number   1
_chemical_formula_structural   Ho2Mg
_chemical_formula_sum   'Ho28 Mg14'
_cell_volume   2051.14841300
_cell_formula_units_Z   14
loop_
 _symmetry_equiv_pos_site_id
 _symmetry_equiv_pos_as_xyz
  1  'x, y, z'
loop_
 _atom_site_type_symbol
 _atom_site_label
 _atom_site_symmetry_multiplicity
 _atom_site_fract_x
 _atom_site_fract_y
 _atom_site_fract_z
 _atom_site_occupancy
  Ho  Ho0  1  0.75000000  0.65512600  0.74225200  1
  Ho  Ho1  1  0.75000000  0.26905000  0.76894400  1
  Ho  Ho2  1  0.25000000  0.01154100  0.75774800  1
  Ho  Ho3  1  0.25000000  0.39761600  0.73105600  1
  Ho  Ho4  1  0.75000000  0.73845900  0.65891900  1
  Ho  Ho5  1  0.75000000  0.35238400  0.68561100  1
  Ho  Ho6  1  0.25000000  0.09487400  0.67441500  1
  Ho  Ho7  1  0.25000000  0.48095000  0.64772200  1
  Ho  Ho8  1  0.75000000  0.82179200  0.57558500  1
  Ho  Ho9  1  0.75000000  0.43571700  0.60227800  1
  Ho  Ho10  1  0.25000000  0.17820800  0.59108100  1
  Ho  Ho11  1  0.25000000  0.56428300  0.56438900  1
  Ho  Ho12  1  0.75000000  0.90512600  0.49225200  1
  Ho  Ho13  1  0.75000000  0.51905000  0.51894400  1
  Ho  Ho14  1  0.25000000  0.26154100  0.50774800  1
  Ho  Ho15  1  0.25000000  0.64761600  0.48105600  1
  Ho  Ho16  1  0.75000000  0.98845900  0.40891900  1
  Ho  Ho17  1  0.75000000  0.60238400  0.43561100  1
  Ho  Ho18  1  0.25000000  0.34487400  0.42441500  1
  Ho  Ho19  1  0.25000000  0.73095000  0.39772200  1
  Ho  Ho20  1  0.75000000  0.07179200  0.32558500  1
  Ho  Ho21  1  0.75000000  0.68571700  0.35227800  1
  Ho  Ho22  1  0.25000000  0.42820800  0.34108100  1
  Ho  Ho23  1  0.25000000  0.81428300  0.31438900  1
  Ho  Ho24  1  0.75000000  0.15512600  0.24225200  1
  Ho  Ho25  1  0.75000000  0.76905000  0.26894400  1
  Ho  Ho26  1  0.25000000  0.51154100  0.25774800  1
  Ho  Ho27  1  0.25000000  0.89761600  0.23105600  1
  Mg  Mg28  1  0.75000000  0.00184800  0.71384800  1
  Mg  Mg29  1  0.25000000  0.66481900  0.78615200  1
  Mg  Mg30  1  0.75000000  0.08518100  0.63051500  1
  Mg  Mg31  1  0.25000000  0.74815200  0.70281800  1
  Mg  Mg32  1  0.75000000  0.16851400  0.54718200  1
  Mg  Mg33  1  0.25000000  0.83148600  0.61948500  1
  Mg  Mg34  1  0.75000000  0.25184800  0.46384800  1
  Mg  Mg35  1  0.25000000  0.91481900  0.53615200  1
  Mg  Mg36  1  0.75000000  0.33518100  0.38051500  1
  Mg  Mg37  1  0.25000000  0.99815200  0.45281800  1
  Mg  Mg38  1  0.75000000  0.41851400  0.29718200  1
  Mg  Mg39  1  0.25000000  0.08148600  0.36948500  1
  Mg  Mg40  1  0.75000000  0.50184800  0.21384800  1
  Mg  Mg41  1  0.25000000  0.16481900  0.28615200  1
