# generated using pymatgen
data_Ca2Mg
_symmetry_space_group_name_H-M   'P 1'
_cell_length_a   7.29490954
_cell_length_b   8.95443141
_cell_length_c   42.60679900
_cell_angle_alpha   86.22212412
_cell_angle_beta   86.47524865
_cell_angle_gamma   82.15313094
_symmetry_Int_Tables_number   1
_chemical_formula_structural   Ca2Mg
_chemical_formula_sum   'Ca32 Mg16'
_cell_volume   2747.21951752
_cell_formula_units_Z   16
loop_
 _symmetry_equiv_pos_site_id
 _symmetry_equiv_pos_as_xyz
  1  'x, y, z'
loop_
 _atom_site_type_symbol
 _atom_site_label
 _atom_site_symmetry_multiplicity
 _atom_site_fract_x
 _atom_site_fract_y
 _atom_site_fract_z
 _atom_site_occupancy
  Ca  Ca0  1  0.73983300  0.02328600  0.20934900  1
  Ca  Ca1  1  0.33640400  0.36179200  0.21381800  1
  Ca  Ca2  1  0.81744200  0.40743900  0.24772100  1
  Ca  Ca3  1  0.41401300  0.74594500  0.25219000  1
  Ca  Ca4  1  0.89367900  0.79251600  0.28627200  1
  Ca  Ca5  1  0.49025000  0.13102300  0.29074100  1
  Ca  Ca6  1  0.97128800  0.17667000  0.32464400  1
  Ca  Ca7  1  0.56785900  0.51517600  0.32911300  1
  Ca  Ca8  1  0.04752500  0.56174700  0.36319500  1
  Ca  Ca9  1  0.64409600  0.90025300  0.36766400  1
  Ca  Ca10  1  0.12513400  0.94590100  0.40156700  1
  Ca  Ca11  1  0.72170600  0.28440700  0.40603600  1
  Ca  Ca12  1  0.20137100  0.33097800  0.44011800  1
  Ca  Ca13  1  0.79794300  0.66948400  0.44458700  1
  Ca  Ca14  1  0.27898000  0.71513100  0.47849000  1
  Ca  Ca15  1  0.87555200  0.05363800  0.48295900  1
  Ca  Ca16  1  0.35521700  0.10020900  0.51704100  1
  Ca  Ca17  1  0.95178900  0.43871500  0.52151000  1
  Ca  Ca18  1  0.43282700  0.48436200  0.55541300  1
  Ca  Ca19  1  0.02939800  0.82286800  0.55988200  1
  Ca  Ca20  1  0.50906400  0.86943900  0.59396400  1
  Ca  Ca21  1  0.10563500  0.20794600  0.59843300  1
  Ca  Ca22  1  0.58667300  0.25359300  0.63233600  1
  Ca  Ca23  1  0.18324400  0.59209900  0.63680500  1
  Ca  Ca24  1  0.66291000  0.63867000  0.67088700  1
  Ca  Ca25  1  0.25948100  0.97717600  0.67535600  1
  Ca  Ca26  1  0.74051900  0.02282400  0.70925900  1
  Ca  Ca27  1  0.33709000  0.36133000  0.71372800  1
  Ca  Ca28  1  0.81675600  0.40790100  0.74781000  1
  Ca  Ca29  1  0.41332700  0.74640700  0.75227900  1
  Ca  Ca30  1  0.89436500  0.79205400  0.78618200  1
  Ca  Ca31  1  0.49093600  0.13056100  0.79065100  1
  Mg  Mg32  1  0.11570600  0.07642000  0.24992600  1
  Mg  Mg33  1  0.03814100  0.69281100  0.21161200  1
  Mg  Mg34  1  0.26955200  0.84565100  0.32684900  1
  Mg  Mg35  1  0.19198700  0.46204200  0.28853500  1
  Mg  Mg36  1  0.42339800  0.61488100  0.40377200  1
  Mg  Mg37  1  0.34583300  0.23127200  0.36545800  1
  Mg  Mg38  1  0.57724400  0.38411200  0.48069500  1
  Mg  Mg39  1  0.49967900  0.00050300  0.44238100  1
  Mg  Mg40  1  0.73109000  0.15334300  0.55761900  1
  Mg  Mg41  1  0.65352500  0.76973400  0.51930500  1
  Mg  Mg42  1  0.88493600  0.92257400  0.63454200  1
  Mg  Mg43  1  0.80737100  0.53896500  0.59622800  1
  Mg  Mg44  1  0.03878200  0.69180500  0.71146500  1
  Mg  Mg45  1  0.96121800  0.30819500  0.67315100  1
  Mg  Mg46  1  0.19262900  0.46103500  0.78838800  1
  Mg  Mg47  1  0.11506400  0.07742600  0.75007400  1
