# generated using pymatgen
data_Y2Mg
_symmetry_space_group_name_H-M   'P 1'
_cell_length_a   5.49634900
_cell_length_b   8.78578790
_cell_length_c   43.70715000
_cell_angle_alpha   90.91524143
_cell_angle_beta   90.00000000
_cell_angle_gamma   90.00000000
_symmetry_Int_Tables_number   1
_chemical_formula_structural   Y2Mg
_chemical_formula_sum   'Y28 Mg14'
_cell_volume   2110.33835896
_cell_formula_units_Z   14
loop_
 _symmetry_equiv_pos_site_id
 _symmetry_equiv_pos_as_xyz
  1  'x, y, z'
loop_
 _atom_site_type_symbol
 _atom_site_label
 _atom_site_symmetry_multiplicity
 _atom_site_fract_x
 _atom_site_fract_y
 _atom_site_fract_z
 _atom_site_occupancy
  Y  Y0  1  0.25000000  0.61810100  0.78412000  1
  Y  Y1  1  0.25000000  0.31046400  0.72726700  1
  Y  Y2  1  0.75000000  0.04856600  0.71588000  1
  Y  Y3  1  0.75000000  0.35620300  0.77273300  1
  Y  Y4  1  0.25000000  0.70143400  0.70078700  1
  Y  Y5  1  0.25000000  0.39379700  0.64393300  1
  Y  Y6  1  0.75000000  0.13189900  0.63254600  1
  Y  Y7  1  0.75000000  0.43953600  0.68940000  1
  Y  Y8  1  0.25000000  0.78476800  0.61745400  1
  Y  Y9  1  0.25000000  0.47713000  0.56060000  1
  Y  Y10  1  0.75000000  0.21523200  0.54921300  1
  Y  Y11  1  0.75000000  0.52287000  0.60606700  1
  Y  Y12  1  0.25000000  0.86810100  0.53412000  1
  Y  Y13  1  0.25000000  0.56046400  0.47726700  1
  Y  Y14  1  0.75000000  0.29856600  0.46588000  1
  Y  Y15  1  0.75000000  0.60620300  0.52273300  1
  Y  Y16  1  0.25000000  0.95143400  0.45078700  1
  Y  Y17  1  0.25000000  0.64379700  0.39393300  1
  Y  Y18  1  0.75000000  0.38189900  0.38254600  1
  Y  Y19  1  0.75000000  0.68953600  0.43940000  1
  Y  Y20  1  0.25000000  0.03476800  0.36745400  1
  Y  Y21  1  0.25000000  0.72713000  0.31060000  1
  Y  Y22  1  0.75000000  0.46523200  0.29921300  1
  Y  Y23  1  0.75000000  0.77287000  0.35606700  1
  Y  Y24  1  0.25000000  0.11810100  0.28412000  1
  Y  Y25  1  0.25000000  0.81046400  0.22726700  1
  Y  Y26  1  0.75000000  0.54856600  0.21588000  1
  Y  Y27  1  0.75000000  0.85620300  0.27273300  1
  Mg  Mg28  1  0.25000000  0.96276600  0.75562800  1
  Mg  Mg29  1  0.75000000  0.70390000  0.74437200  1
  Mg  Mg30  1  0.25000000  0.04610000  0.67229400  1
  Mg  Mg31  1  0.75000000  0.78723400  0.66103900  1
  Mg  Mg32  1  0.25000000  0.12943300  0.58896100  1
  Mg  Mg33  1  0.75000000  0.87056700  0.57770600  1
  Mg  Mg34  1  0.25000000  0.21276600  0.50562800  1
  Mg  Mg35  1  0.75000000  0.95390000  0.49437200  1
  Mg  Mg36  1  0.25000000  0.29610000  0.42229400  1
  Mg  Mg37  1  0.75000000  0.03723400  0.41103900  1
  Mg  Mg38  1  0.25000000  0.37943300  0.33896100  1
  Mg  Mg39  1  0.75000000  0.12056700  0.32770600  1
  Mg  Mg40  1  0.25000000  0.46276600  0.25562800  1
  Mg  Mg41  1  0.75000000  0.20390000  0.24437200  1
