# generated using pymatgen
data_Mg22Ni43
_symmetry_space_group_name_H-M   'P 1'
_cell_length_a   4.81848500
_cell_length_b   15.71815300
_cell_length_c   41.72930500
_cell_angle_alpha   90.00000000
_cell_angle_beta   90.00000000
_cell_angle_gamma   90.00000000
_symmetry_Int_Tables_number   1
_chemical_formula_structural   Mg22Ni43
_chemical_formula_sum   'Mg44 Ni86'
_cell_volume   3160.48093475
_cell_formula_units_Z   2
loop_
 _symmetry_equiv_pos_site_id
 _symmetry_equiv_pos_as_xyz
  1  'x, y, z'
loop_
 _atom_site_type_symbol
 _atom_site_label
 _atom_site_symmetry_multiplicity
 _atom_site_fract_x
 _atom_site_fract_y
 _atom_site_fract_z
 _atom_site_occupancy
  Mg  Mg0  1  0.62336700  0.90702400  0.27916700  1
  Mg  Mg1  1  0.62336700  0.09297600  0.27916700  1
  Mg  Mg2  1  0.62336700  0.40702400  0.27916700  1
  Mg  Mg3  1  0.62336700  0.59297600  0.27916700  1
  Mg  Mg4  1  0.12336700  0.90702400  0.37916700  1
  Mg  Mg5  1  0.12336700  0.09297600  0.37916700  1
  Mg  Mg6  1  0.12336700  0.40702400  0.37916700  1
  Mg  Mg7  1  0.12336700  0.59297600  0.37916700  1
  Mg  Mg8  1  0.62336700  0.15594900  0.34583300  1
  Mg  Mg9  1  0.12336700  0.84405100  0.31250000  1
  Mg  Mg10  1  0.12336700  0.65594900  0.31250000  1
  Mg  Mg11  1  0.62336700  0.34405100  0.34583300  1
  Mg  Mg12  1  0.62336700  0.90702400  0.47916700  1
  Mg  Mg13  1  0.62336700  0.09297600  0.47916700  1
  Mg  Mg14  1  0.62336700  0.40702400  0.47916700  1
  Mg  Mg15  1  0.62336700  0.59297600  0.47916700  1
  Mg  Mg16  1  0.12336700  0.15594900  0.44583300  1
  Mg  Mg17  1  0.62336700  0.84405100  0.41250000  1
  Mg  Mg18  1  0.62336700  0.65594900  0.41250000  1
  Mg  Mg19  1  0.12336700  0.34405100  0.44583300  1
  Mg  Mg20  1  0.12336700  0.90702400  0.57916700  1
  Mg  Mg21  1  0.12336700  0.09297600  0.57916700  1
  Mg  Mg22  1  0.12336700  0.40702400  0.57916700  1
  Mg  Mg23  1  0.12336700  0.59297600  0.57916700  1
  Mg  Mg24  1  0.62336700  0.15594900  0.54583300  1
  Mg  Mg25  1  0.12336700  0.84405100  0.51250000  1
  Mg  Mg26  1  0.12336700  0.65594900  0.51250000  1
  Mg  Mg27  1  0.62336700  0.34405100  0.54583300  1
  Mg  Mg28  1  0.62336700  0.90702400  0.67916700  1
  Mg  Mg29  1  0.62336700  0.09297600  0.67916700  1
  Mg  Mg30  1  0.62336700  0.40702400  0.67916700  1
  Mg  Mg31  1  0.62336700  0.59297600  0.67916700  1
  Mg  Mg32  1  0.12336700  0.15594900  0.64583300  1
  Mg  Mg33  1  0.62336700  0.84405100  0.61250000  1
  Mg  Mg34  1  0.62336700  0.65594900  0.61250000  1
  Mg  Mg35  1  0.12336700  0.34405100  0.64583300  1
  Mg  Mg36  1  0.12336700  0.90702400  0.77916700  1
  Mg  Mg37  1  0.12336700  0.09297600  0.77916700  1
  Mg  Mg38  1  0.12336700  0.40702400  0.77916700  1
  Mg  Mg39  1  0.12336700  0.59297600  0.77916700  1
  Mg  Mg40  1  0.62336700  0.15594900  0.74583300  1
  Mg  Mg41  1  0.12336700  0.84405100  0.71250000  1
  Mg  Mg42  1  0.12336700  0.65594900  0.71250000  1
  Mg  Mg43  1  0.62336700  0.34405100  0.74583300  1
  Ni  Ni44  1  0.12336700  0.00000000  0.27916700  1
  Ni  Ni45  1  0.12336700  0.50000000  0.27916700  1
  Ni  Ni46  1  0.37663300  0.75000000  0.26271800  1
  Ni  Ni47  1  0.87010100  0.75000000  0.26271800  1
  Ni  Ni48  1  0.87010100  0.25000000  0.29561600  1
  Ni  Ni49  1  0.37663300  0.25000000  0.29561600  1
  Ni  Ni50  1  0.62336700  0.87497400  0.34583300  1
  Ni  Ni51  1  0.12336700  0.12502600  0.31250000  1
  Ni  Ni52  1  0.12336700  0.37497400  0.31250000  1
  Ni  Ni53  1  0.62336700  0.62502600  0.34583300  1
  Ni  Ni54  1  0.37336700  0.00000000  0.32916700  1
  Ni  Ni55  1  0.62336700  0.00000000  0.37916700  1
  Ni  Ni56  1  0.87336700  0.00000000  0.32916700  1
  Ni  Ni57  1  0.37336700  0.50000000  0.32916700  1
  Ni  Ni58  1  0.62336700  0.50000000  0.37916700  1
  Ni  Ni59  1  0.87336700  0.50000000  0.32916700  1
  Ni  Ni60  1  0.87663300  0.75000000  0.36271800  1
  Ni  Ni61  1  0.62336700  0.75000000  0.31206500  1
  Ni  Ni62  1  0.37010100  0.75000000  0.36271800  1
  Ni  Ni63  1  0.37010100  0.25000000  0.39561600  1
  Ni  Ni64  1  0.12336700  0.25000000  0.34626900  1
  Ni  Ni65  1  0.87663300  0.25000000  0.39561600  1
  Ni  Ni66  1  0.12336700  0.87497400  0.44583300  1
  Ni  Ni67  1  0.62336700  0.12502600  0.41250000  1
  Ni  Ni68  1  0.62336700  0.37497400  0.41250000  1
  Ni  Ni69  1  0.12336700  0.62502600  0.44583300  1
  Ni  Ni70  1  0.87336700  0.00000000  0.42916700  1
  Ni  Ni71  1  0.12336700  0.00000000  0.47916700  1
  Ni  Ni72  1  0.37336700  0.00000000  0.42916700  1
  Ni  Ni73  1  0.87336700  0.50000000  0.42916700  1
  Ni  Ni74  1  0.12336700  0.50000000  0.47916700  1
  Ni  Ni75  1  0.37336700  0.50000000  0.42916700  1
  Ni  Ni76  1  0.37663300  0.75000000  0.46271800  1
  Ni  Ni77  1  0.12336700  0.75000000  0.41206500  1
  Ni  Ni78  1  0.87010100  0.75000000  0.46271800  1
  Ni  Ni79  1  0.87010100  0.25000000  0.49561600  1
  Ni  Ni80  1  0.62336700  0.25000000  0.44626900  1
  Ni  Ni81  1  0.37663300  0.25000000  0.49561600  1
  Ni  Ni82  1  0.62336700  0.87497400  0.54583300  1
  Ni  Ni83  1  0.12336700  0.12502600  0.51250000  1
  Ni  Ni84  1  0.12336700  0.37497400  0.51250000  1
  Ni  Ni85  1  0.62336700  0.62502600  0.54583300  1
  Ni  Ni86  1  0.37336700  0.00000000  0.52916700  1
  Ni  Ni87  1  0.62336700  0.00000000  0.57916700  1
  Ni  Ni88  1  0.87336700  0.00000000  0.52916700  1
  Ni  Ni89  1  0.37336700  0.50000000  0.52916700  1
  Ni  Ni90  1  0.62336700  0.50000000  0.57916700  1
  Ni  Ni91  1  0.87336700  0.50000000  0.52916700  1
  Ni  Ni92  1  0.87663300  0.75000000  0.56271800  1
  Ni  Ni93  1  0.62336700  0.75000000  0.51206500  1
  Ni  Ni94  1  0.37010100  0.75000000  0.56271800  1
  Ni  Ni95  1  0.37010100  0.25000000  0.59561600  1
  Ni  Ni96  1  0.12336700  0.25000000  0.54626900  1
  Ni  Ni97  1  0.87663300  0.25000000  0.59561600  1
  Ni  Ni98  1  0.12336700  0.87497400  0.64583300  1
  Ni  Ni99  1  0.62336700  0.12502600  0.61250000  1
  Ni  Ni100  1  0.62336700  0.37497400  0.61250000  1
  Ni  Ni101  1  0.12336700  0.62502600  0.64583300  1
  Ni  Ni102  1  0.87336700  0.00000000  0.62916700  1
  Ni  Ni103  1  0.12336700  0.00000000  0.67916700  1
  Ni  Ni104  1  0.37336700  0.00000000  0.62916700  1
  Ni  Ni105  1  0.87336700  0.50000000  0.62916700  1
  Ni  Ni106  1  0.12336700  0.50000000  0.67916700  1
  Ni  Ni107  1  0.37336700  0.50000000  0.62916700  1
  Ni  Ni108  1  0.37663300  0.75000000  0.66271800  1
  Ni  Ni109  1  0.12336700  0.75000000  0.61206500  1
  Ni  Ni110  1  0.87010100  0.75000000  0.66271800  1
  Ni  Ni111  1  0.87010100  0.25000000  0.69561600  1
  Ni  Ni112  1  0.62336700  0.25000000  0.64626900  1
  Ni  Ni113  1  0.37663300  0.25000000  0.69561600  1
  Ni  Ni114  1  0.62336700  0.87497400  0.74583300  1
  Ni  Ni115  1  0.12336700  0.12502600  0.71250000  1
  Ni  Ni116  1  0.12336700  0.37497400  0.71250000  1
  Ni  Ni117  1  0.62336700  0.62502600  0.74583300  1
  Ni  Ni118  1  0.37336700  0.00000000  0.72916700  1
  Ni  Ni119  1  0.62336700  0.00000000  0.77916700  1
  Ni  Ni120  1  0.87336700  0.00000000  0.72916700  1
  Ni  Ni121  1  0.37336700  0.50000000  0.72916700  1
  Ni  Ni122  1  0.62336700  0.50000000  0.77916700  1
  Ni  Ni123  1  0.87336700  0.50000000  0.72916700  1
  Ni  Ni124  1  0.87663300  0.75000000  0.76271800  1
  Ni  Ni125  1  0.62336700  0.75000000  0.71206500  1
  Ni  Ni126  1  0.37010100  0.75000000  0.76271800  1
  Ni  Ni127  1  0.37010100  0.25000000  0.79561600  1
  Ni  Ni128  1  0.12336700  0.25000000  0.74626900  1
  Ni  Ni129  1  0.87663300  0.25000000  0.79561600  1
