# generated using pymatgen
data_Ba10Mg23
_symmetry_space_group_name_H-M   'P 1'
_cell_length_a   6.58888000
_cell_length_b   6.58887960
_cell_length_c   54.29943600
_cell_angle_alpha   90.00000000
_cell_angle_beta   90.00000000
_cell_angle_gamma   120.00000201
_symmetry_Int_Tables_number   1
_chemical_formula_structural   Ba10Mg23
_chemical_formula_sum   'Ba10 Mg23'
_cell_volume   2041.49871650
_cell_formula_units_Z   1
loop_
 _symmetry_equiv_pos_site_id
 _symmetry_equiv_pos_as_xyz
  1  'x, y, z'
loop_
 _atom_site_type_symbol
 _atom_site_label
 _atom_site_symmetry_multiplicity
 _atom_site_fract_x
 _atom_site_fract_y
 _atom_site_fract_z
 _atom_site_occupancy
  Ba  Ba0  1  0.66666700  0.33333300  0.36333300  1
  Ba  Ba1  1  0.33333300  0.66666700  0.26333300  1
  Ba  Ba2  1  0.33333300  0.66666700  0.38666700  1
  Ba  Ba3  1  0.66666700  0.33333300  0.28666700  1
  Ba  Ba4  1  0.66666700  0.33333300  0.56333300  1
  Ba  Ba5  1  0.33333300  0.66666700  0.46333300  1
  Ba  Ba6  1  0.33333300  0.66666700  0.58666700  1
  Ba  Ba7  1  0.66666700  0.33333300  0.48666700  1
  Ba  Ba8  1  0.33333300  0.66666700  0.66333300  1
  Ba  Ba9  1  0.66666700  0.33333300  0.68666700  1
  Mg  Mg10  1  0.32720000  0.16360000  0.22500000  1
  Mg  Mg11  1  0.16360000  0.32720000  0.32500000  1
  Mg  Mg12  1  0.16360000  0.83640000  0.32500000  1
  Mg  Mg13  1  0.83640000  0.16360000  0.22500000  1
  Mg  Mg14  1  0.00000000  0.00000000  0.27500000  1
  Mg  Mg15  1  0.00000000  0.00000000  0.37500000  1
  Mg  Mg16  1  0.67280000  0.83640000  0.32500000  1
  Mg  Mg17  1  0.83640000  0.67280000  0.22500000  1
  Mg  Mg18  1  0.32720000  0.16360000  0.42500000  1
  Mg  Mg19  1  0.16360000  0.32720000  0.52500000  1
  Mg  Mg20  1  0.16360000  0.83640000  0.52500000  1
  Mg  Mg21  1  0.83640000  0.16360000  0.42500000  1
  Mg  Mg22  1  0.00000000  0.00000000  0.47500000  1
  Mg  Mg23  1  0.00000000  0.00000000  0.57500000  1
  Mg  Mg24  1  0.67280000  0.83640000  0.52500000  1
  Mg  Mg25  1  0.83640000  0.67280000  0.42500000  1
  Mg  Mg26  1  0.32720000  0.16360000  0.62500000  1
  Mg  Mg27  1  0.16360000  0.32720000  0.72500000  1
  Mg  Mg28  1  0.16360000  0.83640000  0.72500000  1
  Mg  Mg29  1  0.83640000  0.16360000  0.62500000  1
  Mg  Mg30  1  0.00000000  0.00000000  0.67500000  1
  Mg  Mg31  1  0.67280000  0.83640000  0.72500000  1
  Mg  Mg32  1  0.83640000  0.67280000  0.62500000  1
