# generated using pymatgen
data_Mg20Zn39
_symmetry_space_group_name_H-M   'P 1'
_cell_length_a   5.07402229
_cell_length_b   14.70723601
_cell_length_c   50.49845100
_cell_angle_alpha   88.21601723
_cell_angle_beta   89.67566990
_cell_angle_gamma   90.29193359
_symmetry_Int_Tables_number   1
_chemical_formula_structural   Mg20Zn39
_chemical_formula_sum   'Mg20 Zn39'
_cell_volume   3766.49971225
_cell_formula_units_Z   1
loop_
 _symmetry_equiv_pos_site_id
 _symmetry_equiv_pos_as_xyz
  1  'x, y, z'
loop_
 _atom_site_type_symbol
 _atom_site_label
 _atom_site_symmetry_multiplicity
 _atom_site_fract_x
 _atom_site_fract_y
 _atom_site_fract_z
 _atom_site_occupancy
  Mg  Mg0  1  0.23796200  0.90706100  0.44684000  1
  Mg  Mg1  1  0.23517500  0.17351400  0.36678200  1
  Mg  Mg2  1  0.74380100  0.41975800  0.48164600  1
  Mg  Mg3  1  0.74135300  0.88418000  0.41312300  1
  Mg  Mg4  1  0.74000400  0.25980500  0.39176100  1
  Mg  Mg5  1  0.24186600  0.73451500  0.49115300  1
  Mg  Mg6  1  0.73762600  0.22272000  0.45445700  1
  Mg  Mg7  1  0.73716900  0.85508000  0.35505900  1
  Mg  Mg8  1  0.23844100  0.10428700  0.47325000  1
  Mg  Mg9  1  0.73851700  0.47945500  0.37642100  1
  Mg  Mg10  1  0.73472100  0.31950300  0.28653600  1
  Mg  Mg11  1  0.24008100  0.63497400  0.29493200  1
  Mg  Mg12  1  0.23786000  0.96812100  0.38068900  1
  Mg  Mg13  1  0.23895800  0.53885900  0.46369200  1
  Mg  Mg14  1  0.23956400  0.20040200  0.30449000  1
  Mg  Mg15  1  0.74089500  0.51654100  0.31372500  1
  Mg  Mg16  1  0.24055900  0.83219900  0.32134200  1
  Mg  Mg17  1  0.23665500  0.00474600  0.27702900  1
  Mg  Mg18  1  0.24334600  0.56574700  0.40139900  1
  Mg  Mg19  1  0.24066200  0.77114000  0.38749300  1
  Zn  Zn20  1  0.23515900  0.23964200  0.42179000  1
  Zn  Zn21  1  0.73853100  0.06118200  0.37515200  1
  Zn  Zn22  1  0.24277300  0.33517500  0.25569400  1
  Zn  Zn23  1  0.48865300  0.65750300  0.34790800  1
  Zn  Zn24  1  0.98441800  0.33750800  0.33945000  1
  Zn  Zn25  1  0.48630800  0.08400200  0.41925100  1
  Zn  Zn26  1  0.98926100  0.49463000  0.25909100  1
  Zn  Zn27  1  0.24336200  0.49961900  0.34639200  1
  Zn  Zn28  1  0.74006700  0.10046600  0.29034900  1
  Zn  Zn29  1  0.98769300  0.40177200  0.42882600  1
  Zn  Zn30  1  0.48585200  0.92787200  0.50137300  1
  Zn  Zn31  1  0.73838600  0.82113700  0.46938800  1
  Zn  Zn32  1  0.23967600  0.31896700  0.46835600  1
  Zn  Zn33  1  0.74476900  0.55421200  0.43188600  1
  Zn  Zn34  1  0.73999000  0.67807800  0.39303000  1
  Zn  Zn35  1  0.73845400  0.63879500  0.47783300  1
  Zn  Zn36  1  0.99841300  0.71704800  0.43701700  1
  Zn  Zn37  1  0.49082800  0.33748900  0.33935500  1
  Zn  Zn38  1  0.99221300  0.65525900  0.34893100  1
  Zn  Zn39  1  0.23884500  0.42029400  0.29982600  1
  Zn  Zn40  1  0.48010800  0.02221300  0.33116500  1
  Zn  Zn41  1  0.49410400  0.40175300  0.42873200  1
  Zn  Zn42  1  0.48926100  0.49463000  0.25909100  1
  Zn  Zn43  1  0.73371000  0.00937400  0.45981000  1
  Zn  Zn44  1  0.98991500  0.92697000  0.50174900  1
  Zn  Zn45  1  0.48501400  0.71952600  0.43635600  1
  Zn  Zn46  1  0.74481100  0.72988700  0.30837200  1
  Zn  Zn47  1  0.99350700  0.01973400  0.33182500  1
  Zn  Zn48  1  0.73375200  0.18504800  0.33629600  1
  Zn  Zn49  1  0.48860700  0.81229000  0.26643300  1
  Zn  Zn50  1  0.98986800  0.08175800  0.42027400  1
  Zn  Zn51  1  0.23926100  0.36963000  0.38409100  1
  Zn  Zn52  1  0.99266900  0.81138800  0.26680900  1
  Zn  Zn53  1  0.74013600  0.91812300  0.29879400  1
  Zn  Zn54  1  0.73574800  0.65408500  0.26248800  1
  Zn  Zn55  1  0.74277300  0.08517500  0.50569400  1
  Zn  Zn56  1  0.48926100  0.24463000  0.50909100  1
  Zn  Zn57  1  0.98926100  0.24463000  0.50909100  1
  Zn  Zn58  1  0.23574800  0.40408500  0.51248800  1
