# generated using pymatgen
data_Mg34Rh13
_symmetry_space_group_name_H-M   'P 1'
_cell_length_a   8.64031975
_cell_length_b   8.03467500
_cell_length_c   52.55701100
_cell_angle_alpha   90.00000000
_cell_angle_beta   94.71500456
_cell_angle_gamma   90.00000000
_symmetry_Int_Tables_number   1
_chemical_formula_structural   Mg34Rh13
_chemical_formula_sum   'Mg68 Rh26'
_cell_volume   3636.27396607
_cell_formula_units_Z   2
loop_
 _symmetry_equiv_pos_site_id
 _symmetry_equiv_pos_as_xyz
  1  'x, y, z'
loop_
 _atom_site_type_symbol
 _atom_site_label
 _atom_site_symmetry_multiplicity
 _atom_site_fract_x
 _atom_site_fract_y
 _atom_site_fract_z
 _atom_site_occupancy
  Mg  Mg0  1  0.69527300  0.50000000  0.31122400  1
  Mg  Mg1  1  0.69527300  0.00000000  0.31122400  1
  Mg  Mg2  1  0.18952500  0.75000000  0.29972900  1
  Mg  Mg3  1  0.84633500  0.25000000  0.23404800  1
  Mg  Mg4  1  0.46703500  0.25000000  0.23404800  1
  Mg  Mg5  1  0.35208300  0.75000000  0.24554400  1
  Mg  Mg6  1  0.97278200  0.75000000  0.24554400  1
  Mg  Mg7  1  0.20102100  0.25000000  0.32272000  1
  Mg  Mg8  1  0.15117300  0.43548400  0.22302400  1
  Mg  Mg9  1  0.99588500  0.93548400  0.33855300  1
  Mg  Mg10  1  0.42198900  0.93548400  0.33855300  1
  Mg  Mg11  1  0.96855700  0.43548400  0.28389600  1
  Mg  Mg12  1  0.39466000  0.43548400  0.28389600  1
  Mg  Mg13  1  0.66794500  0.56451600  0.25656800  1
  Mg  Mg14  1  0.99588500  0.56451600  0.33855300  1
  Mg  Mg15  1  0.66794500  0.93548400  0.25656800  1
  Mg  Mg16  1  0.42198900  0.56451600  0.33855300  1
  Mg  Mg17  1  0.96855700  0.06451600  0.28389600  1
  Mg  Mg18  1  0.15117300  0.06451600  0.22302400  1
  Mg  Mg19  1  0.39466000  0.06451600  0.28389600  1
  Mg  Mg20  1  0.26670100  0.50000000  0.45408200  1
  Mg  Mg21  1  0.26670100  0.00000000  0.45408200  1
  Mg  Mg22  1  0.76095400  0.75000000  0.44258600  1
  Mg  Mg23  1  0.41776400  0.25000000  0.37690500  1
  Mg  Mg24  1  0.03846300  0.25000000  0.37690500  1
  Mg  Mg25  1  0.92351100  0.75000000  0.38840100  1
  Mg  Mg26  1  0.54421100  0.75000000  0.38840100  1
  Mg  Mg27  1  0.77244900  0.25000000  0.46557700  1
  Mg  Mg28  1  0.72260100  0.43548400  0.36588100  1
  Mg  Mg29  1  0.56731400  0.93548400  0.48141000  1
  Mg  Mg30  1  0.99341700  0.93548400  0.48141000  1
  Mg  Mg31  1  0.53998600  0.43548400  0.42675300  1
  Mg  Mg32  1  0.96608900  0.43548400  0.42675300  1
  Mg  Mg33  1  0.23937300  0.56451600  0.39942500  1
  Mg  Mg34  1  0.56731400  0.56451600  0.48141000  1
  Mg  Mg35  1  0.23937300  0.93548400  0.39942500  1
  Mg  Mg36  1  0.99341700  0.56451600  0.48141000  1
  Mg  Mg37  1  0.53998600  0.06451600  0.42675300  1
  Mg  Mg38  1  0.72260100  0.06451600  0.36588100  1
  Mg  Mg39  1  0.96608900  0.06451600  0.42675300  1
  Mg  Mg40  1  0.83813000  0.50000000  0.59693900  1
  Mg  Mg41  1  0.83813000  0.00000000  0.59693900  1
  Mg  Mg42  1  0.33238200  0.75000000  0.58544400  1
  Mg  Mg43  1  0.98919200  0.25000000  0.51976300  1
  Mg  Mg44  1  0.60989200  0.25000000  0.51976300  1
  Mg  Mg45  1  0.49494000  0.75000000  0.53125800  1
  Mg  Mg46  1  0.11563900  0.75000000  0.53125800  1
  Mg  Mg47  1  0.34387800  0.25000000  0.60843400  1
  Mg  Mg48  1  0.29403000  0.43548400  0.50873800  1
  Mg  Mg49  1  0.13874300  0.93548400  0.62426700  1
  Mg  Mg50  1  0.56484600  0.93548400  0.62426700  1
  Mg  Mg51  1  0.11141400  0.43548400  0.56961000  1
  Mg  Mg52  1  0.53751800  0.43548400  0.56961000  1
  Mg  Mg53  1  0.81080200  0.56451600  0.54228200  1
  Mg  Mg54  1  0.13874300  0.56451600  0.62426700  1
  Mg  Mg55  1  0.81080200  0.93548400  0.54228200  1
  Mg  Mg56  1  0.56484600  0.56451600  0.62426700  1
  Mg  Mg57  1  0.11141400  0.06451600  0.56961000  1
  Mg  Mg58  1  0.29403000  0.06451600  0.50873800  1
  Mg  Mg59  1  0.53751800  0.06451600  0.56961000  1
  Mg  Mg60  1  0.56062100  0.25000000  0.66262000  1
  Mg  Mg61  1  0.18132000  0.25000000  0.66262000  1
  Mg  Mg62  1  0.06636800  0.75000000  0.67411500  1
  Mg  Mg63  1  0.68706800  0.75000000  0.67411500  1
  Mg  Mg64  1  0.86545800  0.43548400  0.65159600  1
  Mg  Mg65  1  0.38223000  0.56451600  0.68513900  1
  Mg  Mg66  1  0.38223000  0.93548400  0.68513900  1
  Mg  Mg67  1  0.86545800  0.06451600  0.65159600  1
  Rh  Rh68  1  0.17146300  0.25000000  0.26360500  1
  Rh  Rh69  1  0.64765400  0.75000000  0.21598600  1
  Rh  Rh70  1  0.71274500  0.75000000  0.34616800  1
  Rh  Rh71  1  0.88746400  0.25000000  0.32869600  1
  Rh  Rh72  1  0.52055400  0.25000000  0.32869600  1
  Rh  Rh73  1  0.86999200  0.75000000  0.29375300  1
  Rh  Rh74  1  0.50308200  0.75000000  0.29375300  1
  Rh  Rh75  1  0.67780100  0.25000000  0.27628100  1
  Rh  Rh76  1  0.74289200  0.25000000  0.40646300  1
  Rh  Rh77  1  0.21908200  0.75000000  0.35884400  1
  Rh  Rh78  1  0.28417300  0.75000000  0.48902500  1
  Rh  Rh79  1  0.45889300  0.25000000  0.47155400  1
  Rh  Rh80  1  0.09198200  0.25000000  0.47155400  1
  Rh  Rh81  1  0.44142100  0.75000000  0.43661000  1
  Rh  Rh82  1  0.07451000  0.75000000  0.43661000  1
  Rh  Rh83  1  0.24923000  0.25000000  0.41913800  1
  Rh  Rh84  1  0.31432100  0.25000000  0.54932000  1
  Rh  Rh85  1  0.79051100  0.75000000  0.50170100  1
  Rh  Rh86  1  0.85560200  0.75000000  0.63188300  1
  Rh  Rh87  1  0.03032100  0.25000000  0.61441100  1
  Rh  Rh88  1  0.66341100  0.25000000  0.61441100  1
  Rh  Rh89  1  0.01284900  0.75000000  0.57946700  1
  Rh  Rh90  1  0.64593900  0.75000000  0.57946700  1
  Rh  Rh91  1  0.82065800  0.25000000  0.56199500  1
  Rh  Rh92  1  0.88574900  0.25000000  0.69217700  1
  Rh  Rh93  1  0.36194000  0.75000000  0.64455800  1
