# generated using pymatgen
data_Mg11B41
_symmetry_space_group_name_H-M   'P 1'
_cell_length_a   4.39738600
_cell_length_b   9.23299237
_cell_length_c   44.33566700
_cell_angle_alpha   84.37095004
_cell_angle_beta   90.00000000
_cell_angle_gamma   90.00000000
_symmetry_Int_Tables_number   1
_chemical_formula_structural   Mg11B41
_chemical_formula_sum   'Mg22 B82'
_cell_volume   1791.39348480
_cell_formula_units_Z   2
loop_
 _symmetry_equiv_pos_site_id
 _symmetry_equiv_pos_as_xyz
  1  'x, y, z'
loop_
 _atom_site_type_symbol
 _atom_site_label
 _atom_site_symmetry_multiplicity
 _atom_site_fract_x
 _atom_site_fract_y
 _atom_site_fract_z
 _atom_site_occupancy
  Mg  Mg0  1  0.25000000  0.05417200  0.28078900  1
  Mg  Mg1  1  0.75000000  0.25605600  0.29921100  1
  Mg  Mg2  1  0.25000000  0.65417200  0.38078900  1
  Mg  Mg3  1  0.75000000  0.85605600  0.39921100  1
  Mg  Mg4  1  0.25000000  0.71951500  0.30834600  1
  Mg  Mg5  1  0.75000000  0.19071400  0.37165400  1
  Mg  Mg6  1  0.25000000  0.25417200  0.48078900  1
  Mg  Mg7  1  0.75000000  0.45605600  0.49921100  1
  Mg  Mg8  1  0.25000000  0.31951500  0.40834600  1
  Mg  Mg9  1  0.75000000  0.79071400  0.47165400  1
  Mg  Mg10  1  0.25000000  0.85417200  0.58078900  1
  Mg  Mg11  1  0.75000000  0.05605600  0.59921100  1
  Mg  Mg12  1  0.25000000  0.91951500  0.50834600  1
  Mg  Mg13  1  0.75000000  0.39071400  0.57165400  1
  Mg  Mg14  1  0.25000000  0.45417200  0.68078900  1
  Mg  Mg15  1  0.75000000  0.65605600  0.69921100  1
  Mg  Mg16  1  0.25000000  0.51951500  0.60834600  1
  Mg  Mg17  1  0.75000000  0.99071400  0.67165400  1
  Mg  Mg18  1  0.25000000  0.05417200  0.78078900  1
  Mg  Mg19  1  0.75000000  0.25605600  0.79921100  1
  Mg  Mg20  1  0.25000000  0.11951500  0.70834600  1
  Mg  Mg21  1  0.75000000  0.59071400  0.77165400  1
  B  B22  1  0.25000000  0.47394700  0.29687000  1
  B  B23  1  0.75000000  0.83628100  0.28313000  1
  B  B24  1  0.25000000  0.07394700  0.39687000  1
  B  B25  1  0.75000000  0.43628100  0.38313000  1
  B  B26  1  0.25000000  0.15837400  0.32760700  1
  B  B27  1  0.75000000  0.75185500  0.35239300  1
  B  B28  1  0.25000000  0.02193000  0.36003100  1
  B  B29  1  0.75000000  0.88829900  0.31996900  1
  B  B30  1  0.25000000  0.34560000  0.33064300  1
  B  B31  1  0.75000000  0.56462800  0.34935700  1
  B  B32  1  0.05800500  0.44011500  0.35955500  1
  B  B33  1  0.55800500  0.47011400  0.32044500  1
  B  B34  1  0.44199500  0.86425100  0.34691100  1
  B  B35  1  0.94199500  0.04597800  0.33308900  1
  B  B36  1  0.94199500  0.47011400  0.32044500  1
  B  B37  1  0.44199500  0.44011500  0.35955500  1
  B  B38  1  0.55800500  0.04597800  0.33308900  1
  B  B39  1  0.05800500  0.86425100  0.34691100  1
  B  B40  1  0.25000000  0.67394700  0.49687000  1
  B  B41  1  0.75000000  0.03628100  0.48313000  1
  B  B42  1  0.25000000  0.75837400  0.42760700  1
  B  B43  1  0.75000000  0.35185500  0.45239300  1
  B  B44  1  0.25000000  0.62193000  0.46003100  1
  B  B45  1  0.75000000  0.48829900  0.41996900  1
  B  B46  1  0.25000000  0.94560000  0.43064300  1
  B  B47  1  0.75000000  0.16462800  0.44935700  1
  B  B48  1  0.05800500  0.04011500  0.45955500  1
  B  B49  1  0.55800500  0.07011400  0.42044500  1
  B  B50  1  0.44199500  0.46425100  0.44691100  1
  B  B51  1  0.94199500  0.64597800  0.43308900  1
  B  B52  1  0.94199500  0.07011400  0.42044500  1
  B  B53  1  0.44199500  0.04011500  0.45955500  1
  B  B54  1  0.55800500  0.64597800  0.43308900  1
  B  B55  1  0.05800500  0.46425100  0.44691100  1
  B  B56  1  0.25000000  0.27394700  0.59687000  1
  B  B57  1  0.75000000  0.63628100  0.58313000  1
  B  B58  1  0.25000000  0.35837400  0.52760700  1
  B  B59  1  0.75000000  0.95185500  0.55239300  1
  B  B60  1  0.25000000  0.22193000  0.56003100  1
  B  B61  1  0.75000000  0.08829900  0.51996900  1
  B  B62  1  0.25000000  0.54560000  0.53064300  1
  B  B63  1  0.75000000  0.76462800  0.54935700  1
  B  B64  1  0.05800500  0.64011500  0.55955500  1
  B  B65  1  0.55800500  0.67011400  0.52044500  1
  B  B66  1  0.44199500  0.06425100  0.54691100  1
  B  B67  1  0.94199500  0.24597800  0.53308900  1
  B  B68  1  0.94199500  0.67011400  0.52044500  1
  B  B69  1  0.44199500  0.64011500  0.55955500  1
  B  B70  1  0.55800500  0.24597800  0.53308900  1
  B  B71  1  0.05800500  0.06425100  0.54691100  1
  B  B72  1  0.25000000  0.87394700  0.69687000  1
  B  B73  1  0.75000000  0.23628100  0.68313000  1
  B  B74  1  0.25000000  0.95837400  0.62760700  1
  B  B75  1  0.75000000  0.55185500  0.65239300  1
  B  B76  1  0.25000000  0.82193000  0.66003100  1
  B  B77  1  0.75000000  0.68829900  0.61996900  1
  B  B78  1  0.25000000  0.14560000  0.63064300  1
  B  B79  1  0.75000000  0.36462800  0.64935700  1
  B  B80  1  0.05800500  0.24011500  0.65955500  1
  B  B81  1  0.55800500  0.27011400  0.62044500  1
  B  B82  1  0.44199500  0.66425100  0.64691100  1
  B  B83  1  0.94199500  0.84597800  0.63308900  1
  B  B84  1  0.94199500  0.27011400  0.62044500  1
  B  B85  1  0.44199500  0.24011500  0.65955500  1
  B  B86  1  0.55800500  0.84597800  0.63308900  1
  B  B87  1  0.05800500  0.66425100  0.64691100  1
  B  B88  1  0.25000000  0.47394700  0.79687000  1
  B  B89  1  0.75000000  0.83628100  0.78313000  1
  B  B90  1  0.25000000  0.55837400  0.72760700  1
  B  B91  1  0.75000000  0.15185500  0.75239300  1
  B  B92  1  0.25000000  0.42193000  0.76003100  1
  B  B93  1  0.75000000  0.28829900  0.71996900  1
  B  B94  1  0.25000000  0.74560000  0.73064300  1
  B  B95  1  0.75000000  0.96462800  0.74935700  1
  B  B96  1  0.05800500  0.84011500  0.75955500  1
  B  B97  1  0.55800500  0.87011400  0.72044500  1
  B  B98  1  0.44199500  0.26425100  0.74691100  1
  B  B99  1  0.94199500  0.44597800  0.73308900  1
  B  B100  1  0.94199500  0.87011400  0.72044500  1
  B  B101  1  0.44199500  0.84011500  0.75955500  1
  B  B102  1  0.55800500  0.44597800  0.73308900  1
  B  B103  1  0.05800500  0.26425100  0.74691100  1
