# generated using pymatgen
data_Tm3Mg
_symmetry_space_group_name_H-M   'P 1'
_cell_length_a   4.96522100
_cell_length_b   9.27261600
_cell_length_c   44.68698700
_cell_angle_alpha   90.00000000
_cell_angle_beta   90.00000000
_cell_angle_gamma   90.00000000
_symmetry_Int_Tables_number   1
_chemical_formula_structural   Tm3Mg
_chemical_formula_sum   'Tm33 Mg11'
_cell_volume   2057.41514349
_cell_formula_units_Z   11
loop_
 _symmetry_equiv_pos_site_id
 _symmetry_equiv_pos_as_xyz
  1  'x, y, z'
loop_
 _atom_site_type_symbol
 _atom_site_label
 _atom_site_symmetry_multiplicity
 _atom_site_fract_x
 _atom_site_fract_y
 _atom_site_fract_z
 _atom_site_occupancy
  Tm  Tm0  1  0.25000000  0.24215800  0.22222200  1
  Tm  Tm1  1  0.75000000  0.50000000  0.22222200  1
  Tm  Tm2  1  0.25000000  0.75784200  0.22222200  1
  Tm  Tm3  1  0.75000000  0.24215800  0.27777800  1
  Tm  Tm4  1  0.25000000  0.50000000  0.27777800  1
  Tm  Tm5  1  0.75000000  0.75784200  0.27777800  1
  Tm  Tm6  1  0.25000000  0.24215800  0.33333300  1
  Tm  Tm7  1  0.75000000  0.50000000  0.33333300  1
  Tm  Tm8  1  0.25000000  0.75784200  0.33333300  1
  Tm  Tm9  1  0.75000000  0.24215800  0.38888900  1
  Tm  Tm10  1  0.25000000  0.50000000  0.38888900  1
  Tm  Tm11  1  0.75000000  0.75784200  0.38888900  1
  Tm  Tm12  1  0.25000000  0.24215800  0.44444400  1
  Tm  Tm13  1  0.75000000  0.50000000  0.44444400  1
  Tm  Tm14  1  0.25000000  0.75784200  0.44444400  1
  Tm  Tm15  1  0.75000000  0.24215800  0.50000000  1
  Tm  Tm16  1  0.25000000  0.50000000  0.50000000  1
  Tm  Tm17  1  0.75000000  0.75784200  0.50000000  1
  Tm  Tm18  1  0.25000000  0.24215800  0.55555600  1
  Tm  Tm19  1  0.75000000  0.50000000  0.55555600  1
  Tm  Tm20  1  0.25000000  0.75784200  0.55555600  1
  Tm  Tm21  1  0.75000000  0.24215800  0.61111100  1
  Tm  Tm22  1  0.25000000  0.50000000  0.61111100  1
  Tm  Tm23  1  0.75000000  0.75784200  0.61111100  1
  Tm  Tm24  1  0.25000000  0.24215800  0.66666700  1
  Tm  Tm25  1  0.75000000  0.50000000  0.66666700  1
  Tm  Tm26  1  0.25000000  0.75784200  0.66666700  1
  Tm  Tm27  1  0.75000000  0.24215800  0.72222200  1
  Tm  Tm28  1  0.25000000  0.50000000  0.72222200  1
  Tm  Tm29  1  0.75000000  0.75784200  0.72222200  1
  Tm  Tm30  1  0.25000000  0.24215800  0.77777800  1
  Tm  Tm31  1  0.75000000  0.50000000  0.77777800  1
  Tm  Tm32  1  0.25000000  0.75784200  0.77777800  1
  Mg  Mg33  1  0.75000000  0.00000000  0.22222200  1
  Mg  Mg34  1  0.25000000  0.00000000  0.27777800  1
  Mg  Mg35  1  0.75000000  0.00000000  0.33333300  1
  Mg  Mg36  1  0.25000000  0.00000000  0.38888900  1
  Mg  Mg37  1  0.75000000  0.00000000  0.44444400  1
  Mg  Mg38  1  0.25000000  0.00000000  0.50000000  1
  Mg  Mg39  1  0.75000000  0.00000000  0.55555600  1
  Mg  Mg40  1  0.25000000  0.00000000  0.61111100  1
  Mg  Mg41  1  0.75000000  0.00000000  0.66666700  1
  Mg  Mg42  1  0.25000000  0.00000000  0.72222200  1
  Mg  Mg43  1  0.75000000  0.00000000  0.77777800  1
