# generated using pymatgen
data_Ho7Mg39
_symmetry_space_group_name_H-M   'P 1'
_cell_length_a   3.64999800
_cell_length_b   11.78231593
_cell_length_c   48.00042200
_cell_angle_alpha   86.08470304
_cell_angle_beta   90.00000000
_cell_angle_gamma   90.00000000
_symmetry_Int_Tables_number   1
_chemical_formula_structural   Ho7Mg39
_chemical_formula_sum   'Ho7 Mg39'
_cell_volume   2059.46091587
_cell_formula_units_Z   1
loop_
 _symmetry_equiv_pos_site_id
 _symmetry_equiv_pos_as_xyz
  1  'x, y, z'
loop_
 _atom_site_type_symbol
 _atom_site_label
 _atom_site_symmetry_multiplicity
 _atom_site_fract_x
 _atom_site_fract_y
 _atom_site_fract_z
 _atom_site_occupancy
  Ho  Ho0  1  0.50000000  0.06058300  0.27381000  1
  Ho  Ho1  1  0.00000000  0.63201200  0.34523800  1
  Ho  Ho2  1  0.50000000  0.20344100  0.41666700  1
  Ho  Ho3  1  0.00000000  0.77486900  0.48809500  1
  Ho  Ho4  1  0.50000000  0.34629800  0.55952400  1
  Ho  Ho5  1  0.00000000  0.91772600  0.63095200  1
  Ho  Ho6  1  0.50000000  0.48915500  0.70238100  1
  Mg  Mg7  1  0.50000000  0.36187800  0.25211900  1
  Mg  Mg8  1  1.00000000  0.25760000  0.29874800  1
  Mg  Mg9  1  0.50000000  0.13201200  0.34523800  1
  Mg  Mg10  1  0.50000000  0.43499600  0.32030000  1
  Mg  Mg11  1  1.00000000  0.18786000  0.22407100  1
  Mg  Mg12  1  0.00000000  0.93330600  0.32354800  1
  Mg  Mg13  1  0.50000000  0.68617100  0.22731900  1
  Mg  Mg14  1  1.00000000  0.56058300  0.27381000  1
  Mg  Mg15  1  0.00000000  0.86356700  0.24887100  1
  Mg  Mg16  1  0.50000000  0.75928900  0.29550000  1
  Mg  Mg17  1  0.50000000  0.50473500  0.39497600  1
  Mg  Mg18  1  0.00000000  0.40045700  0.44160500  1
  Mg  Mg19  1  0.50000000  0.27486900  0.48809500  1
  Mg  Mg20  1  0.50000000  0.57785300  0.46315700  1
  Mg  Mg21  1  1.00000000  0.33071800  0.36692800  1
  Mg  Mg22  1  1.00000000  0.07616400  0.46640500  1
  Mg  Mg23  1  0.50000000  0.82902800  0.37017600  1
  Mg  Mg24  1  0.00000000  0.70344100  0.41666700  1
  Mg  Mg25  1  0.00000000  0.00642400  0.39172800  1
  Mg  Mg26  1  0.50000000  0.90214600  0.43835700  1
  Mg  Mg27  1  0.50000000  0.64759200  0.53783300  1
  Mg  Mg28  1  1.00000000  0.54331400  0.58446200  1
  Mg  Mg29  1  0.50000000  0.41772600  0.63095200  1
  Mg  Mg30  1  0.50000000  0.72071000  0.60601400  1
  Mg  Mg31  1  1.00000000  0.47357500  0.50978600  1
  Mg  Mg32  1  1.00000000  0.21902100  0.60926200  1
  Mg  Mg33  1  0.50000000  0.97188500  0.51303300  1
  Mg  Mg34  1  1.00000000  0.84629800  0.55952400  1
  Mg  Mg35  1  0.00000000  0.14928100  0.53458600  1
  Mg  Mg36  1  0.50000000  0.04500300  0.58121400  1
  Mg  Mg37  1  0.50000000  0.79044900  0.68069100  1
  Mg  Mg38  1  0.00000000  0.68617100  0.72731900  1
  Mg  Mg39  1  0.50000000  0.86356700  0.74887100  1
  Mg  Mg40  1  0.00000000  0.61643200  0.65264300  1
  Mg  Mg41  1  0.00000000  0.36187800  0.75211900  1
  Mg  Mg42  1  0.50000000  0.11474300  0.65589100  1
  Mg  Mg43  1  1.00000000  0.98915500  0.70238100  1
  Mg  Mg44  1  0.00000000  0.29213900  0.67744300  1
  Mg  Mg45  1  0.50000000  0.18786000  0.72407100  1
