# generated using pymatgen
data_La2Mg
_symmetry_space_group_name_H-M   'P 1'
_cell_length_a   4.00438100
_cell_length_b   4.03112374
_cell_length_c   60.99736100
_cell_angle_alpha   90.29028052
_cell_angle_beta   90.00000000
_cell_angle_gamma   90.00000000
_symmetry_Int_Tables_number   1
_chemical_formula_structural   La2Mg
_chemical_formula_sum   'La12 Mg6'
_cell_volume   984.61623711
_cell_formula_units_Z   6
loop_
 _symmetry_equiv_pos_site_id
 _symmetry_equiv_pos_as_xyz
  1  'x, y, z'
loop_
 _atom_site_type_symbol
 _atom_site_label
 _atom_site_symmetry_multiplicity
 _atom_site_fract_x
 _atom_site_fract_y
 _atom_site_fract_z
 _atom_site_occupancy
  La  La0  1  0.50000000  0.54662500  0.71908000  1
  La  La1  1  1.00000000  0.05337500  0.68092000  1
  La  La2  1  0.00000000  0.04662500  0.61908000  1
  La  La3  1  0.50000000  0.55337500  0.78092000  1
  La  La4  1  0.50000000  0.54662500  0.51908000  1
  La  La5  1  0.00000000  0.05337500  0.48092000  1
  La  La6  1  1.00000000  0.04662500  0.41908000  1
  La  La7  1  0.50000000  0.55337500  0.58092000  1
  La  La8  1  0.50000000  0.54662500  0.31908000  1
  La  La9  1  0.00000000  0.05337500  0.28092000  1
  La  La10  1  1.00000000  0.04662500  0.21908000  1
  La  La11  1  0.50000000  0.55337500  0.38092000  1
  Mg  Mg12  1  0.00000000  0.05000000  0.75000000  1
  Mg  Mg13  1  0.50000000  0.55000000  0.65000000  1
  Mg  Mg14  1  0.00000000  0.05000000  0.55000000  1
  Mg  Mg15  1  0.50000000  0.55000000  0.45000000  1
  Mg  Mg16  1  0.00000000  0.05000000  0.35000000  1
  Mg  Mg17  1  0.50000000  0.55000000  0.25000000  1
