# generated using pymatgen
data_Ba10Mg19
_symmetry_space_group_name_H-M   'P 1'
_cell_length_a   6.58888000
_cell_length_b   10.85988700
_cell_length_c   45.64909800
_cell_angle_alpha   90.00000000
_cell_angle_beta   90.00000000
_cell_angle_gamma   90.00000000
_symmetry_Int_Tables_number   1
_chemical_formula_structural   Ba10Mg19
_chemical_formula_sum   'Ba20 Mg38'
_cell_volume   3266.39802936
_cell_formula_units_Z   2
loop_
 _symmetry_equiv_pos_site_id
 _symmetry_equiv_pos_as_xyz
  1  'x, y, z'
loop_
 _atom_site_type_symbol
 _atom_site_label
 _atom_site_symmetry_multiplicity
 _atom_site_fract_x
 _atom_site_fract_y
 _atom_site_fract_z
 _atom_site_occupancy
  Ba  Ba0  1  0.04090000  0.94166300  0.26041700  1
  Ba  Ba1  1  0.54090000  0.44166300  0.21875000  1
  Ba  Ba2  1  0.54090000  0.05833700  0.21875000  1
  Ba  Ba3  1  0.04090000  0.55833700  0.26041700  1
  Ba  Ba4  1  0.54090000  0.94166300  0.38541700  1
  Ba  Ba5  1  0.04090000  0.44166300  0.34375000  1
  Ba  Ba6  1  0.04090000  0.05833700  0.34375000  1
  Ba  Ba7  1  0.54090000  0.55833700  0.38541700  1
  Ba  Ba8  1  0.04090000  0.94166300  0.51041700  1
  Ba  Ba9  1  0.54090000  0.44166300  0.46875000  1
  Ba  Ba10  1  0.54090000  0.05833700  0.46875000  1
  Ba  Ba11  1  0.04090000  0.55833700  0.51041700  1
  Ba  Ba12  1  0.54090000  0.94166300  0.63541700  1
  Ba  Ba13  1  0.04090000  0.44166300  0.59375000  1
  Ba  Ba14  1  0.04090000  0.05833700  0.59375000  1
  Ba  Ba15  1  0.54090000  0.55833700  0.63541700  1
  Ba  Ba16  1  0.04090000  0.94166300  0.76041700  1
  Ba  Ba17  1  0.54090000  0.44166300  0.71875000  1
  Ba  Ba18  1  0.54090000  0.05833700  0.71875000  1
  Ba  Ba19  1  0.04090000  0.55833700  0.76041700  1
  Mg  Mg20  1  0.04090000  0.25000000  0.21798300  1
  Mg  Mg21  1  0.28630000  0.75000000  0.19753300  1
  Mg  Mg22  1  0.79550000  0.75000000  0.19753300  1
  Mg  Mg23  1  0.78630000  0.25000000  0.28163300  1
  Mg  Mg24  1  0.54090000  0.50000000  0.30208300  1
  Mg  Mg25  1  0.54090000  0.00000000  0.30208300  1
  Mg  Mg26  1  0.54090000  0.75000000  0.26118300  1
  Mg  Mg27  1  0.29550000  0.25000000  0.28163300  1
  Mg  Mg28  1  0.54090000  0.25000000  0.34298300  1
  Mg  Mg29  1  0.78630000  0.75000000  0.32253300  1
  Mg  Mg30  1  0.29550000  0.75000000  0.32253300  1
  Mg  Mg31  1  0.28630000  0.25000000  0.40663300  1
  Mg  Mg32  1  0.04090000  0.50000000  0.42708300  1
  Mg  Mg33  1  0.04090000  0.00000000  0.42708300  1
  Mg  Mg34  1  0.04090000  0.75000000  0.38618300  1
  Mg  Mg35  1  0.79550000  0.25000000  0.40663300  1
  Mg  Mg36  1  0.04090000  0.25000000  0.46798300  1
  Mg  Mg37  1  0.28630000  0.75000000  0.44753300  1
  Mg  Mg38  1  0.79550000  0.75000000  0.44753300  1
  Mg  Mg39  1  0.78630000  0.25000000  0.53163300  1
  Mg  Mg40  1  0.54090000  0.50000000  0.55208300  1
  Mg  Mg41  1  0.54090000  0.00000000  0.55208300  1
  Mg  Mg42  1  0.54090000  0.75000000  0.51118300  1
  Mg  Mg43  1  0.29550000  0.25000000  0.53163300  1
  Mg  Mg44  1  0.54090000  0.25000000  0.59298300  1
  Mg  Mg45  1  0.78630000  0.75000000  0.57253300  1
  Mg  Mg46  1  0.29550000  0.75000000  0.57253300  1
  Mg  Mg47  1  0.28630000  0.25000000  0.65663300  1
  Mg  Mg48  1  0.04090000  0.50000000  0.67708300  1
  Mg  Mg49  1  0.04090000  0.00000000  0.67708300  1
  Mg  Mg50  1  0.04090000  0.75000000  0.63618300  1
  Mg  Mg51  1  0.79550000  0.25000000  0.65663300  1
  Mg  Mg52  1  0.04090000  0.25000000  0.71798300  1
  Mg  Mg53  1  0.28630000  0.75000000  0.69753300  1
  Mg  Mg54  1  0.79550000  0.75000000  0.69753300  1
  Mg  Mg55  1  0.78630000  0.25000000  0.78163300  1
  Mg  Mg56  1  0.54090000  0.75000000  0.76118300  1
  Mg  Mg57  1  0.29550000  0.25000000  0.78163300  1
