# generated using pymatgen
data_Mg67Si37
_symmetry_space_group_name_H-M   'P 1'
_cell_length_a   12.41651900
_cell_length_b   14.27249660
_cell_length_c   44.74766500
_cell_angle_alpha   90.16648621
_cell_angle_beta   90.00000000
_cell_angle_gamma   64.21593671
_symmetry_Int_Tables_number   1
_chemical_formula_structural   Mg67Si37
_chemical_formula_sum   'Mg134 Si74'
_cell_volume   7140.40101402
_cell_formula_units_Z   2
loop_
 _symmetry_equiv_pos_site_id
 _symmetry_equiv_pos_as_xyz
  1  'x, y, z'
loop_
 _atom_site_type_symbol
 _atom_site_label
 _atom_site_symmetry_multiplicity
 _atom_site_fract_x
 _atom_site_fract_y
 _atom_site_fract_z
 _atom_site_occupancy
  Mg  Mg0  1  0.82800000  0.04022400  0.23543900  1
  Mg  Mg1  1  0.41792800  0.53943500  0.23622900  1
  Mg  Mg2  1  0.04450200  0.52281900  0.25284400  1
  Mg  Mg3  1  0.45512700  0.05970100  0.21596200  1
  Mg  Mg4  1  0.08170200  0.04308600  0.23257800  1
  Mg  Mg5  1  0.67163000  0.54229600  0.23336700  1
  Mg  Mg6  1  0.51743700  0.85068200  0.25906600  1
  Mg  Mg7  1  0.92750900  0.35147200  0.25827700  1
  Mg  Mg8  1  0.30093400  0.36808700  0.24166100  1
  Mg  Mg9  1  0.35184800  0.90812800  0.20162000  1
  Mg  Mg10  1  0.26373500  0.84782100  0.26192800  1
  Mg  Mg11  1  0.67380700  0.34861000  0.26113800  1
  Mg  Mg12  1  0.95335400  0.73019000  0.21251600  1
  Mg  Mg13  1  0.56960200  0.22389900  0.21880600  1
  Mg  Mg14  1  0.17185500  0.22097500  0.22173100  1
  Mg  Mg15  1  0.63512000  0.74685500  0.19585100  1
  Mg  Mg16  1  0.23737400  0.74393000  0.19877600  1
  Mg  Mg17  1  0.85362200  0.23763900  0.20506700  1
  Mg  Mg18  1  0.36646100  0.96330100  0.31236200  1
  Mg  Mg19  1  0.95638900  0.46251100  0.31315200  1
  Mg  Mg20  1  0.58296400  0.44589600  0.32976800  1
  Mg  Mg21  1  0.99358900  0.98277800  0.29288500  1
  Mg  Mg22  1  0.62016300  0.96616300  0.30950100  1
  Mg  Mg23  1  0.21009100  0.46537300  0.31029100  1
  Mg  Mg24  1  0.05589800  0.77375900  0.33598900  1
  Mg  Mg25  1  0.46597000  0.27454900  0.33520000  1
  Mg  Mg26  1  0.83939600  0.29116400  0.31858400  1
  Mg  Mg27  1  0.89030900  0.83120500  0.27854300  1
  Mg  Mg28  1  0.80219600  0.77089700  0.33885100  1
  Mg  Mg29  1  0.21226800  0.27168700  0.33806100  1
  Mg  Mg30  1  0.49181500  0.65326700  0.28943900  1
  Mg  Mg31  1  0.10806300  0.14697600  0.29573000  1
  Mg  Mg32  1  0.71031600  0.14405100  0.29865400  1
  Mg  Mg33  1  0.17358200  0.66993200  0.27277400  1
  Mg  Mg34  1  0.77583500  0.66700700  0.27569900  1
  Mg  Mg35  1  0.39208300  0.16071600  0.28199000  1
  Mg  Mg36  1  0.90492300  0.88637800  0.38928500  1
  Mg  Mg37  1  0.49485100  0.38558800  0.39007500  1
  Mg  Mg38  1  0.12142500  0.36897300  0.40669100  1
  Mg  Mg39  1  0.53205100  0.90585500  0.36980800  1
  Mg  Mg40  1  0.15862500  0.88923900  0.38642400  1
  Mg  Mg41  1  0.74855300  0.38845000  0.38721400  1
  Mg  Mg42  1  0.59436000  0.69683600  0.41291200  1
  Mg  Mg43  1  0.00443200  0.19762500  0.41212300  1
  Mg  Mg44  1  0.37785800  0.21424100  0.39550700  1
  Mg  Mg45  1  0.42877100  0.75428200  0.35546600  1
  Mg  Mg46  1  0.34065800  0.69397400  0.41577400  1
  Mg  Mg47  1  0.75073000  0.19476400  0.41498400  1
  Mg  Mg48  1  0.03027700  0.57634400  0.36636200  1
  Mg  Mg49  1  0.64652500  0.07005300  0.37265300  1
  Mg  Mg50  1  0.24877800  0.06712800  0.37557700  1
  Mg  Mg51  1  0.71204300  0.59300800  0.34969700  1
  Mg  Mg52  1  0.31429700  0.59008400  0.35262200  1
  Mg  Mg53  1  0.93054500  0.08379300  0.35891300  1
  Mg  Mg54  1  0.44338400  0.80945500  0.46620800  1
  Mg  Mg55  1  0.03331200  0.30866500  0.46699800  1
  Mg  Mg56  1  0.65988700  0.29205000  0.48361400  1
  Mg  Mg57  1  0.07051200  0.82893200  0.44673100  1
  Mg  Mg58  1  0.69708700  0.81231600  0.46334700  1
  Mg  Mg59  1  0.28701500  0.31152700  0.46413700  1
  Mg  Mg60  1  0.13282200  0.61991300  0.48983600  1
  Mg  Mg61  1  0.54289400  0.12070200  0.48904600  1
  Mg  Mg62  1  0.91631900  0.13731800  0.47243000  1
  Mg  Mg63  1  0.96723200  0.67735900  0.43238900  1
  Mg  Mg64  1  0.87911900  0.61705100  0.49269700  1
  Mg  Mg65  1  0.28919100  0.11784100  0.49190700  1
  Mg  Mg66  1  0.56873800  0.49942100  0.44328500  1
  Mg  Mg67  1  0.18498600  0.99313000  0.44957600  1
  Mg  Mg68  1  0.78724000  0.99020500  0.45250000  1
  Mg  Mg69  1  0.25050500  0.51608500  0.42662000  1
  Mg  Mg70  1  0.85275800  0.51316100  0.42954500  1
  Mg  Mg71  1  0.46900600  0.00687000  0.43583600  1
  Mg  Mg72  1  0.98184600  0.73253200  0.54313200  1
  Mg  Mg73  1  0.57177400  0.23174200  0.54392100  1
  Mg  Mg74  1  0.19834800  0.21512700  0.56053700  1
  Mg  Mg75  1  0.60897400  0.75200900  0.52365500  1
  Mg  Mg76  1  0.23554800  0.73539300  0.54027000  1
  Mg  Mg77  1  0.82547600  0.23460400  0.54106000  1
  Mg  Mg78  1  0.67128300  0.54299000  0.56675900  1
  Mg  Mg79  1  0.08135500  0.04377900  0.56596900  1
  Mg  Mg80  1  0.45478100  0.06039500  0.54935300  1
  Mg  Mg81  1  0.50569400  0.60043600  0.50931300  1
  Mg  Mg82  1  0.41758100  0.54012800  0.56962000  1
  Mg  Mg83  1  0.82765300  0.04091800  0.56883000  1
  Mg  Mg84  1  0.10720000  0.42249800  0.52020800  1
  Mg  Mg85  1  0.72344800  0.91620700  0.52649900  1
  Mg  Mg86  1  0.32570100  0.91328200  0.52942400  1
  Mg  Mg87  1  0.78896600  0.43916200  0.50354300  1
  Mg  Mg88  1  0.39122000  0.43623800  0.50646800  1
  Mg  Mg89  1  0.00746800  0.92994700  0.51275900  1
  Mg  Mg90  1  0.52030800  0.65560900  0.62005500  1
  Mg  Mg91  1  0.11023600  0.15481900  0.62084400  1
  Mg  Mg92  1  0.73681000  0.13820400  0.63746000  1
  Mg  Mg93  1  0.14743500  0.67508600  0.60057800  1
  Mg  Mg94  1  0.77401000  0.65847000  0.61719300  1
  Mg  Mg95  1  0.36393800  0.15768100  0.61798300  1
  Mg  Mg96  1  0.20974500  0.46606700  0.64368200  1
  Mg  Mg97  1  0.61981700  0.96685600  0.64289200  1
  Mg  Mg98  1  0.99324200  0.98347200  0.62627600  1
  Mg  Mg99  1  0.04415500  0.52351300  0.58623600  1
  Mg  Mg100  1  0.95604300  0.46320500  0.64654300  1
  Mg  Mg101  1  0.36611500  0.96399500  0.64575300  1
  Mg  Mg102  1  0.64566100  0.34557500  0.59713100  1
  Mg  Mg103  1  0.26190900  0.83928400  0.60342200  1
  Mg  Mg104  1  0.86416300  0.83635900  0.60634700  1
  Mg  Mg105  1  0.32742800  0.36223900  0.58046700  1
  Mg  Mg106  1  0.92968100  0.35931400  0.58339100  1
  Mg  Mg107  1  0.54592900  0.85302400  0.58968200  1
  Mg  Mg108  1  0.05876900  0.57868600  0.69697800  1
  Mg  Mg109  1  0.64869700  0.07789600  0.69776700  1
  Mg  Mg110  1  0.27527200  0.06128000  0.71438300  1
  Mg  Mg111  1  0.68589700  0.59816300  0.67750100  1
  Mg  Mg112  1  0.31247100  0.58154700  0.69411600  1
  Mg  Mg113  1  0.90239900  0.08075700  0.69490600  1
  Mg  Mg114  1  0.74820600  0.38914300  0.72060500  1
  Mg  Mg115  1  0.15827800  0.88993300  0.71981500  1
  Mg  Mg116  1  0.53170400  0.90654900  0.70320000  1
  Mg  Mg117  1  0.58261700  0.44659000  0.66315900  1
  Mg  Mg118  1  0.49450400  0.38628200  0.72346600  1
  Mg  Mg119  1  0.90457600  0.88707200  0.72267700  1
  Mg  Mg120  1  0.18412300  0.26865200  0.67405400  1
  Mg  Mg121  1  0.80037100  0.76236100  0.68034500  1
  Mg  Mg122  1  0.40262400  0.75943600  0.68327000  1
  Mg  Mg123  1  0.86589000  0.28531600  0.65739000  1
  Mg  Mg124  1  0.46814300  0.28239100  0.66031400  1
  Mg  Mg125  1  0.08439100  0.77610100  0.66660500  1
  Mg  Mg126  1  0.22435800  0.52124000  0.75442400  1
  Mg  Mg127  1  0.12107900  0.36966600  0.74008200  1
  Mg  Mg128  1  0.72258400  0.19172900  0.75097700  1
  Mg  Mg129  1  0.33883200  0.68543800  0.75726800  1
  Mg  Mg130  1  0.94108600  0.68251300  0.76019300  1
  Mg  Mg131  1  0.40435100  0.20839300  0.73431300  1
  Mg  Mg132  1  0.00660400  0.20546800  0.73723800  1
  Mg  Mg133  1  0.62285200  0.69917800  0.74352800  1
  Si  Si134  1  0.71899200  0.85290700  0.23954100  1
  Si  Si135  1  0.94976100  0.39136800  0.20107900  1
  Si  Si136  1  0.62644500  0.03799900  0.25496500  1
  Si  Si137  1  0.85721400  0.57646100  0.21650300  1
  Si  Si138  1  0.45477000  0.71468400  0.22802200  1
  Si  Si139  1  0.89066700  0.17622200  0.26648400  1
  Si  Si140  1  0.19645200  0.56465200  0.21551900  1
  Si  Si141  1  0.29901700  0.02619000  0.25398100  1
  Si  Si142  1  0.61052300  0.40317800  0.20206300  1
  Si  Si143  1  0.04642000  0.86471600  0.24052500  1
  Si  Si144  1  0.25745300  0.77598400  0.31646400  1
  Si  Si145  1  0.48822200  0.31444500  0.27800200  1
  Si  Si146  1  0.16490700  0.96107600  0.33188800  1
  Si  Si147  1  0.39567600  0.49953800  0.29342600  1
  Si  Si148  1  0.99323100  0.63776100  0.30494500  1
  Si  Si149  1  0.42912900  0.09929900  0.34340700  1
  Si  Si150  1  0.73491400  0.48772800  0.29244200  1
  Si  Si151  1  0.83747800  0.94926700  0.33090400  1
  Si  Si152  1  0.14898400  0.32625500  0.27898600  1
  Si  Si153  1  0.58488200  0.78779300  0.31744800  1
  Si  Si154  1  0.79591500  0.69906100  0.39338700  1
  Si  Si155  1  0.02668400  0.23752200  0.35492500  1
  Si  Si156  1  0.70336800  0.88415300  0.40881100  1
  Si  Si157  1  0.93413800  0.42261500  0.37035000  1
  Si  Si158  1  0.53169300  0.56083800  0.38186800  1
  Si  Si159  1  0.96759000  0.02237600  0.42033000  1
  Si  Si160  1  0.27337600  0.41080500  0.36936500  1
  Si  Si161  1  0.37594000  0.87234400  0.40782700  1
  Si  Si162  1  0.68744600  0.24933200  0.35590900  1
  Si  Si163  1  0.12334300  0.71087000  0.39437100  1
  Si  Si164  1  0.33437600  0.62213800  0.47031000  1
  Si  Si165  1  0.56514500  0.16059900  0.43184800  1
  Si  Si166  1  0.24183000  0.80723000  0.48573400  1
  Si  Si167  1  0.47259900  0.34569200  0.44727300  1
  Si  Si168  1  0.07015400  0.48391500  0.45879100  1
  Si  Si169  1  0.50605200  0.94545300  0.49725300  1
  Si  Si170  1  0.81183700  0.33388200  0.44628900  1
  Si  Si171  1  0.91440100  0.79542100  0.48475000  1
  Si  Si172  1  0.22590700  0.17240800  0.43283200  1
  Si  Si173  1  0.66180500  0.63394700  0.47129400  1
  Si  Si174  1  0.87283800  0.54521400  0.54723300  1
  Si  Si175  1  0.10360700  0.08367600  0.50877100  1
  Si  Si176  1  0.78029100  0.73030700  0.56265700  1
  Si  Si177  1  0.01106100  0.26876900  0.52419600  1
  Si  Si178  1  0.60861600  0.40699200  0.53571400  1
  Si  Si179  1  0.04451300  0.86853000  0.57417600  1
  Si  Si180  1  0.35029900  0.25695900  0.52321200  1
  Si  Si181  1  0.45286300  0.71849800  0.56167300  1
  Si  Si182  1  0.76436900  0.09548500  0.50975500  1
  Si  Si183  1  0.20026600  0.55702400  0.54821700  1
  Si  Si184  1  0.41129900  0.46829100  0.62415600  1
  Si  Si185  1  0.64206800  0.00675300  0.58569400  1
  Si  Si186  1  0.31875300  0.65338400  0.63958000  1
  Si  Si187  1  0.54952200  0.19184600  0.60111900  1
  Si  Si188  1  0.14707700  0.33006800  0.61263700  1
  Si  Si189  1  0.58297500  0.79160700  0.65109900  1
  Si  Si190  1  0.88876000  0.18003600  0.60013500  1
  Si  Si191  1  0.99132400  0.64157500  0.63859600  1
  Si  Si192  1  0.30283000  0.01856200  0.58667900  1
  Si  Si193  1  0.73872800  0.48010100  0.62514000  1
  Si  Si194  1  0.94976100  0.39136800  0.70107900  1
  Si  Si195  1  0.18053000  0.92983000  0.66261700  1
  Si  Si196  1  0.85721400  0.57646100  0.71650300  1
  Si  Si197  1  0.08798400  0.11492200  0.67804200  1
  Si  Si198  1  0.68553900  0.25314500  0.68956000  1
  Si  Si199  1  0.12143600  0.71468400  0.72802200  1
  Si  Si200  1  0.42722200  0.10311300  0.67705800  1
  Si  Si201  1  0.52978600  0.56465200  0.71551900  1
  Si  Si202  1  0.84129200  0.94163900  0.66360200  1
  Si  Si203  1  0.27718900  0.40317800  0.70206300  1
  Si  Si204  1  0.71899200  0.85290700  0.73954100  1
  Si  Si205  1  0.62644500  0.03799900  0.75496500  1
  Si  Si206  1  0.96568300  0.02619000  0.75398100  1
  Si  Si207  1  0.37975400  0.86471600  0.74052500  1
