# generated using pymatgen
data_LiMg2
_symmetry_space_group_name_H-M   'P 1'
_cell_length_a   5.91597339
_cell_length_b   16.83539200
_cell_length_c   41.85375800
_cell_angle_alpha   90.00000000
_cell_angle_beta   92.07719422
_cell_angle_gamma   90.00000000
_symmetry_Int_Tables_number   1
_chemical_formula_structural   LiMg2
_chemical_formula_sum   'Li40 Mg80'
_cell_volume   4165.80018413
_cell_formula_units_Z   40
loop_
 _symmetry_equiv_pos_site_id
 _symmetry_equiv_pos_as_xyz
  1  'x, y, z'
loop_
 _atom_site_type_symbol
 _atom_site_label
 _atom_site_symmetry_multiplicity
 _atom_site_fract_x
 _atom_site_fract_y
 _atom_site_fract_z
 _atom_site_occupancy
  Li  Li0  1  0.18750000  0.88599800  0.20312500  1
  Li  Li1  1  0.68750000  0.61400200  0.20312500  1
  Li  Li2  1  0.06250000  0.38599800  0.23437500  1
  Li  Li3  1  0.56250000  0.11400200  0.23437500  1
  Li  Li4  1  0.93750000  0.88599800  0.26562500  1
  Li  Li5  1  0.43750000  0.61400200  0.26562500  1
  Li  Li6  1  0.81250000  0.38599800  0.29687500  1
  Li  Li7  1  0.31250000  0.11400200  0.29687500  1
  Li  Li8  1  0.68750000  0.88599800  0.32812500  1
  Li  Li9  1  0.18750000  0.61400200  0.32812500  1
  Li  Li10  1  0.56250000  0.38599800  0.35937500  1
  Li  Li11  1  0.06250000  0.11400200  0.35937500  1
  Li  Li12  1  0.43750000  0.88599800  0.39062500  1
  Li  Li13  1  0.93750000  0.61400200  0.39062500  1
  Li  Li14  1  0.31250000  0.38599800  0.42187500  1
  Li  Li15  1  0.81250000  0.11400200  0.42187500  1
  Li  Li16  1  0.18750000  0.88599800  0.45312500  1
  Li  Li17  1  0.68750000  0.61400200  0.45312500  1
  Li  Li18  1  0.06250000  0.38599800  0.48437500  1
  Li  Li19  1  0.56250000  0.11400200  0.48437500  1
  Li  Li20  1  0.93750000  0.88599800  0.51562500  1
  Li  Li21  1  0.43750000  0.61400200  0.51562500  1
  Li  Li22  1  0.81250000  0.38599800  0.54687500  1
  Li  Li23  1  0.31250000  0.11400200  0.54687500  1
  Li  Li24  1  0.68750000  0.88599800  0.57812500  1
  Li  Li25  1  0.18750000  0.61400200  0.57812500  1
  Li  Li26  1  0.56250000  0.38599800  0.60937500  1
  Li  Li27  1  0.06250000  0.11400200  0.60937500  1
  Li  Li28  1  0.43750000  0.88599800  0.64062500  1
  Li  Li29  1  0.93750000  0.61400200  0.64062500  1
  Li  Li30  1  0.31250000  0.38599800  0.67187500  1
  Li  Li31  1  0.81250000  0.11400200  0.67187500  1
  Li  Li32  1  0.18750000  0.88599800  0.70312500  1
  Li  Li33  1  0.68750000  0.61400200  0.70312500  1
  Li  Li34  1  0.06250000  0.38599800  0.73437500  1
  Li  Li35  1  0.56250000  0.11400200  0.73437500  1
  Li  Li36  1  0.93750000  0.88599800  0.76562500  1
  Li  Li37  1  0.43750000  0.61400200  0.76562500  1
  Li  Li38  1  0.81250000  0.38599800  0.79687500  1
  Li  Li39  1  0.31250000  0.11400200  0.79687500  1
  Mg  Mg40  1  0.06250000  0.71797500  0.23437500  1
  Mg  Mg41  1  0.18750000  0.55113200  0.20312500  1
  Mg  Mg42  1  0.56250000  0.78202500  0.23437500  1
  Mg  Mg43  1  0.68750000  0.94886800  0.20312500  1
  Mg  Mg44  1  0.18750000  0.21797500  0.20312500  1
  Mg  Mg45  1  0.06250000  0.05113200  0.23437500  1
  Mg  Mg46  1  0.68750000  0.28202500  0.20312500  1
  Mg  Mg47  1  0.56250000  0.44886800  0.23437500  1
  Mg  Mg48  1  0.81250000  0.71797500  0.29687500  1
  Mg  Mg49  1  0.93750000  0.55113200  0.26562500  1
  Mg  Mg50  1  0.31250000  0.78202500  0.29687500  1
  Mg  Mg51  1  0.43750000  0.94886800  0.26562500  1
  Mg  Mg52  1  0.93750000  0.21797500  0.26562500  1
  Mg  Mg53  1  0.81250000  0.05113200  0.29687500  1
  Mg  Mg54  1  0.43750000  0.28202500  0.26562500  1
  Mg  Mg55  1  0.31250000  0.44886800  0.29687500  1
  Mg  Mg56  1  0.56250000  0.71797500  0.35937500  1
  Mg  Mg57  1  0.68750000  0.55113200  0.32812500  1
  Mg  Mg58  1  0.06250000  0.78202500  0.35937500  1
  Mg  Mg59  1  0.18750000  0.94886800  0.32812500  1
  Mg  Mg60  1  0.68750000  0.21797500  0.32812500  1
  Mg  Mg61  1  0.56250000  0.05113200  0.35937500  1
  Mg  Mg62  1  0.18750000  0.28202500  0.32812500  1
  Mg  Mg63  1  0.06250000  0.44886800  0.35937500  1
  Mg  Mg64  1  0.31250000  0.71797500  0.42187500  1
  Mg  Mg65  1  0.43750000  0.55113200  0.39062500  1
  Mg  Mg66  1  0.81250000  0.78202500  0.42187500  1
  Mg  Mg67  1  0.93750000  0.94886800  0.39062500  1
  Mg  Mg68  1  0.43750000  0.21797500  0.39062500  1
  Mg  Mg69  1  0.31250000  0.05113200  0.42187500  1
  Mg  Mg70  1  0.93750000  0.28202500  0.39062500  1
  Mg  Mg71  1  0.81250000  0.44886800  0.42187500  1
  Mg  Mg72  1  0.06250000  0.71797500  0.48437500  1
  Mg  Mg73  1  0.18750000  0.55113200  0.45312500  1
  Mg  Mg74  1  0.56250000  0.78202500  0.48437500  1
  Mg  Mg75  1  0.68750000  0.94886800  0.45312500  1
  Mg  Mg76  1  0.18750000  0.21797500  0.45312500  1
  Mg  Mg77  1  0.06250000  0.05113200  0.48437500  1
  Mg  Mg78  1  0.68750000  0.28202500  0.45312500  1
  Mg  Mg79  1  0.56250000  0.44886800  0.48437500  1
  Mg  Mg80  1  0.81250000  0.71797500  0.54687500  1
  Mg  Mg81  1  0.93750000  0.55113200  0.51562500  1
  Mg  Mg82  1  0.31250000  0.78202500  0.54687500  1
  Mg  Mg83  1  0.43750000  0.94886800  0.51562500  1
  Mg  Mg84  1  0.93750000  0.21797500  0.51562500  1
  Mg  Mg85  1  0.81250000  0.05113200  0.54687500  1
  Mg  Mg86  1  0.43750000  0.28202500  0.51562500  1
  Mg  Mg87  1  0.31250000  0.44886800  0.54687500  1
  Mg  Mg88  1  0.56250000  0.71797500  0.60937500  1
  Mg  Mg89  1  0.68750000  0.55113200  0.57812500  1
  Mg  Mg90  1  0.06250000  0.78202500  0.60937500  1
  Mg  Mg91  1  0.18750000  0.94886800  0.57812500  1
  Mg  Mg92  1  0.68750000  0.21797500  0.57812500  1
  Mg  Mg93  1  0.56250000  0.05113200  0.60937500  1
  Mg  Mg94  1  0.18750000  0.28202500  0.57812500  1
  Mg  Mg95  1  0.06250000  0.44886800  0.60937500  1
  Mg  Mg96  1  0.31250000  0.71797500  0.67187500  1
  Mg  Mg97  1  0.43750000  0.55113200  0.64062500  1
  Mg  Mg98  1  0.81250000  0.78202500  0.67187500  1
  Mg  Mg99  1  0.93750000  0.94886800  0.64062500  1
  Mg  Mg100  1  0.43750000  0.21797500  0.64062500  1
  Mg  Mg101  1  0.31250000  0.05113200  0.67187500  1
  Mg  Mg102  1  0.93750000  0.28202500  0.64062500  1
  Mg  Mg103  1  0.81250000  0.44886800  0.67187500  1
  Mg  Mg104  1  0.06250000  0.71797500  0.73437500  1
  Mg  Mg105  1  0.18750000  0.55113200  0.70312500  1
  Mg  Mg106  1  0.56250000  0.78202500  0.73437500  1
  Mg  Mg107  1  0.68750000  0.94886800  0.70312500  1
  Mg  Mg108  1  0.18750000  0.21797500  0.70312500  1
  Mg  Mg109  1  0.06250000  0.05113200  0.73437500  1
  Mg  Mg110  1  0.68750000  0.28202500  0.70312500  1
  Mg  Mg111  1  0.56250000  0.44886800  0.73437500  1
  Mg  Mg112  1  0.81250000  0.71797500  0.79687500  1
  Mg  Mg113  1  0.93750000  0.55113200  0.76562500  1
  Mg  Mg114  1  0.31250000  0.78202500  0.79687500  1
  Mg  Mg115  1  0.43750000  0.94886800  0.76562500  1
  Mg  Mg116  1  0.93750000  0.21797500  0.76562500  1
  Mg  Mg117  1  0.81250000  0.05113200  0.79687500  1
  Mg  Mg118  1  0.43750000  0.28202500  0.76562500  1
  Mg  Mg119  1  0.31250000  0.44886800  0.79687500  1
