# generated using pymatgen
data_Mg22Au63
_symmetry_space_group_name_H-M   'P 1'
_cell_length_a   10.43041218
_cell_length_b   11.29953425
_cell_length_c   49.40543900
_cell_angle_alpha   85.63582371
_cell_angle_beta   88.14566253
_cell_angle_gamma   98.74753851
_symmetry_Int_Tables_number   1
_chemical_formula_structural   Mg22Au63
_chemical_formula_sum   'Mg44 Au126'
_cell_volume   5732.74310784
_cell_formula_units_Z   2
loop_
 _symmetry_equiv_pos_site_id
 _symmetry_equiv_pos_as_xyz
  1  'x, y, z'
loop_
 _atom_site_type_symbol
 _atom_site_label
 _atom_site_symmetry_multiplicity
 _atom_site_fract_x
 _atom_site_fract_y
 _atom_site_fract_z
 _atom_site_occupancy
  Mg  Mg0  1  0.42210600  0.57977100  0.77190900  1
  Mg  Mg1  1  0.95158300  0.50657000  0.79684100  1
  Mg  Mg2  1  0.90142400  0.15545200  0.74668200  1
  Mg  Mg3  1  0.37226600  0.23088800  0.72206800  1
  Mg  Mg4  1  0.04105000  0.50699200  0.71310100  1
  Mg  Mg5  1  0.23264000  0.87934800  0.75564900  1
  Mg  Mg6  1  0.61130300  0.28124300  0.78835100  1
  Mg  Mg7  1  0.76238700  0.80509800  0.78039900  1
  Mg  Mg8  1  0.32210600  0.87977100  0.67190900  1
  Mg  Mg9  1  0.85158300  0.80657000  0.69684100  1
  Mg  Mg10  1  0.80142400  0.45545200  0.64668200  1
  Mg  Mg11  1  0.27226600  0.53088800  0.62206800  1
  Mg  Mg12  1  0.94105000  0.80699200  0.61310100  1
  Mg  Mg13  1  0.13264000  0.17934800  0.65564900  1
  Mg  Mg14  1  0.51130300  0.58124300  0.68835100  1
  Mg  Mg15  1  0.66238700  0.10509800  0.68039900  1
  Mg  Mg16  1  0.22210600  0.17977100  0.57190900  1
  Mg  Mg17  1  0.75158300  0.10657000  0.59684100  1
  Mg  Mg18  1  0.70142400  0.75545200  0.54668200  1
  Mg  Mg19  1  0.17226600  0.83088800  0.52206800  1
  Mg  Mg20  1  0.84105000  0.10699200  0.51310100  1
  Mg  Mg21  1  0.03264000  0.47934800  0.55564900  1
  Mg  Mg22  1  0.41130300  0.88124300  0.58835100  1
  Mg  Mg23  1  0.56238700  0.40509800  0.58039900  1
  Mg  Mg24  1  0.12210600  0.47977100  0.47190900  1
  Mg  Mg25  1  0.65158300  0.40657000  0.49684100  1
  Mg  Mg26  1  0.60142400  0.05545200  0.44668200  1
  Mg  Mg27  1  0.07226600  0.13088800  0.42206800  1
  Mg  Mg28  1  0.74105000  0.40699200  0.41310100  1
  Mg  Mg29  1  0.93264000  0.77934800  0.45564900  1
  Mg  Mg30  1  0.31130300  0.18124300  0.48835100  1
  Mg  Mg31  1  0.46238700  0.70509800  0.48039900  1
  Mg  Mg32  1  0.02210600  0.77977100  0.37190900  1
  Mg  Mg33  1  0.55158300  0.70657000  0.39684100  1
  Mg  Mg34  1  0.50142400  0.35545200  0.34668200  1
  Mg  Mg35  1  0.97226600  0.43088800  0.32206800  1
  Mg  Mg36  1  0.64105000  0.70699200  0.31310100  1
  Mg  Mg37  1  0.83264000  0.07934800  0.35564900  1
  Mg  Mg38  1  0.21130300  0.48124300  0.38835100  1
  Mg  Mg39  1  0.36238700  0.00509800  0.38039900  1
  Mg  Mg40  1  0.92210600  0.07977100  0.27190900  1
  Mg  Mg41  1  0.45158300  0.00657000  0.29684100  1
  Mg  Mg42  1  0.11130300  0.78124300  0.28835100  1
  Mg  Mg43  1  0.26238700  0.30509800  0.28039900  1
  Au  Au44  1  0.11173300  0.26850700  0.70926300  1
  Au  Au45  1  0.11195700  0.76783400  0.70948700  1
  Au  Au46  1  0.16195700  0.11783400  0.75948700  1
  Au  Au47  1  0.16173300  0.61850700  0.75926300  1
  Au  Au48  1  0.94742800  0.00574300  0.79703400  1
  Au  Au49  1  0.42626200  0.08059700  0.77171600  1
  Au  Au50  1  0.37637200  0.73136600  0.72182600  1
  Au  Au51  1  0.89731800  0.65497400  0.74692400  1
  Au  Au52  1  0.49723800  0.84153500  0.76825400  1
  Au  Au53  1  0.82686100  0.39358000  0.75090500  1
  Au  Au54  1  0.77645200  0.54480600  0.70049600  1
  Au  Au55  1  0.44682900  0.99276000  0.71784500  1
  Au  Au56  1  0.02148500  0.76720200  0.79303100  1
  Au  Au57  1  0.30211500  0.46940700  0.72562900  1
  Au  Au58  1  0.35220500  0.31913800  0.77571900  1
  Au  Au59  1  0.97157500  0.91693300  0.74312100  1
  Au  Au60  1  0.68684500  0.54317000  0.78437500  1
  Au  Au61  1  0.63684500  0.69317000  0.73437500  1
  Au  Au62  1  0.63684500  0.19317000  0.73437500  1
  Au  Au63  1  0.68684500  0.04317000  0.78437500  1
  Au  Au64  1  0.56421900  0.43170300  0.73819700  1
  Au  Au65  1  0.70947100  0.95463700  0.73055300  1
  Au  Au66  1  0.08473400  0.35599500  0.76343300  1
  Au  Au67  1  0.18895500  0.03034600  0.70531700  1
  Au  Au68  1  0.01173300  0.56850700  0.60926300  1
  Au  Au69  1  0.01195700  0.06783400  0.60948700  1
  Au  Au70  1  0.06195700  0.41783400  0.65948700  1
  Au  Au71  1  0.06173300  0.91850700  0.65926300  1
  Au  Au72  1  0.84742800  0.30574300  0.69703400  1
  Au  Au73  1  0.32626200  0.38059700  0.67171600  1
  Au  Au74  1  0.27637200  0.03136600  0.62182600  1
  Au  Au75  1  0.79731800  0.95497400  0.64692400  1
  Au  Au76  1  0.39723800  0.14153500  0.66825400  1
  Au  Au77  1  0.72686100  0.69358000  0.65090500  1
  Au  Au78  1  0.67645200  0.84480600  0.60049600  1
  Au  Au79  1  0.34682900  0.29276000  0.61784500  1
  Au  Au80  1  0.92148500  0.06720200  0.69303100  1
  Au  Au81  1  0.20211500  0.76940700  0.62562900  1
  Au  Au82  1  0.25220500  0.61913800  0.67571900  1
  Au  Au83  1  0.87157500  0.21693300  0.64312100  1
  Au  Au84  1  0.58684500  0.84317000  0.68437500  1
  Au  Au85  1  0.53684500  0.99317000  0.63437500  1
  Au  Au86  1  0.53684500  0.49317000  0.63437500  1
  Au  Au87  1  0.58684500  0.34317000  0.68437500  1
  Au  Au88  1  0.46421900  0.73170300  0.63819700  1
  Au  Au89  1  0.60947100  0.25463700  0.63055300  1
  Au  Au90  1  0.98473400  0.65599500  0.66343300  1
  Au  Au91  1  0.08895500  0.33034600  0.60531700  1
  Au  Au92  1  0.91173300  0.86850700  0.50926300  1
  Au  Au93  1  0.91195700  0.36783400  0.50948700  1
  Au  Au94  1  0.96195700  0.71783400  0.55948700  1
  Au  Au95  1  0.96173300  0.21850700  0.55926300  1
  Au  Au96  1  0.74742800  0.60574300  0.59703400  1
  Au  Au97  1  0.22626200  0.68059700  0.57171600  1
  Au  Au98  1  0.17637200  0.33136600  0.52182600  1
  Au  Au99  1  0.69731800  0.25497400  0.54692400  1
  Au  Au100  1  0.29723800  0.44153500  0.56825400  1
  Au  Au101  1  0.62686100  0.99358000  0.55090500  1
  Au  Au102  1  0.57645200  0.14480600  0.50049600  1
  Au  Au103  1  0.24682900  0.59276000  0.51784500  1
  Au  Au104  1  0.82148500  0.36720200  0.59303100  1
  Au  Au105  1  0.10211500  0.06940700  0.52562900  1
  Au  Au106  1  0.15220500  0.91913800  0.57571900  1
  Au  Au107  1  0.77157500  0.51693300  0.54312100  1
  Au  Au108  1  0.48684500  0.14317000  0.58437500  1
  Au  Au109  1  0.43684500  0.29317000  0.53437500  1
  Au  Au110  1  0.43684500  0.79317000  0.53437500  1
  Au  Au111  1  0.48684500  0.64317000  0.58437500  1
  Au  Au112  1  0.36421900  0.03170300  0.53819700  1
  Au  Au113  1  0.50947100  0.55463700  0.53055300  1
  Au  Au114  1  0.88473400  0.95599500  0.56343300  1
  Au  Au115  1  0.98895500  0.63034600  0.50531700  1
  Au  Au116  1  0.81173300  0.16850700  0.40926300  1
  Au  Au117  1  0.81195700  0.66783400  0.40948700  1
  Au  Au118  1  0.86195700  0.01783400  0.45948700  1
  Au  Au119  1  0.86173300  0.51850700  0.45926300  1
  Au  Au120  1  0.64742800  0.90574300  0.49703400  1
  Au  Au121  1  0.12626200  0.98059700  0.47171600  1
  Au  Au122  1  0.07637200  0.63136600  0.42182600  1
  Au  Au123  1  0.59731800  0.55497400  0.44692400  1
  Au  Au124  1  0.19723800  0.74153500  0.46825400  1
  Au  Au125  1  0.52686100  0.29358000  0.45090500  1
  Au  Au126  1  0.47645200  0.44480600  0.40049600  1
  Au  Au127  1  0.14682900  0.89276000  0.41784500  1
  Au  Au128  1  0.72148500  0.66720200  0.49303100  1
  Au  Au129  1  0.00211500  0.36940700  0.42562900  1
  Au  Au130  1  0.05220500  0.21913800  0.47571900  1
  Au  Au131  1  0.67157500  0.81693300  0.44312100  1
  Au  Au132  1  0.38684500  0.44317000  0.48437500  1
  Au  Au133  1  0.33684500  0.59317000  0.43437500  1
  Au  Au134  1  0.33684500  0.09317000  0.43437500  1
  Au  Au135  1  0.38684500  0.94317000  0.48437500  1
  Au  Au136  1  0.26421900  0.33170300  0.43819700  1
  Au  Au137  1  0.40947100  0.85463700  0.43055300  1
  Au  Au138  1  0.78473400  0.25599500  0.46343300  1
  Au  Au139  1  0.88895500  0.93034600  0.40531700  1
  Au  Au140  1  0.71173300  0.46850700  0.30926300  1
  Au  Au141  1  0.71195700  0.96783400  0.30948700  1
  Au  Au142  1  0.76195700  0.31783400  0.35948700  1
  Au  Au143  1  0.76173300  0.81850700  0.35926300  1
  Au  Au144  1  0.54742800  0.20574300  0.39703400  1
  Au  Au145  1  0.02626200  0.28059700  0.37171600  1
  Au  Au146  1  0.97637200  0.93136600  0.32182600  1
  Au  Au147  1  0.49731800  0.85497400  0.34692400  1
  Au  Au148  1  0.09723800  0.04153500  0.36825400  1
  Au  Au149  1  0.42686100  0.59358000  0.35090500  1
  Au  Au150  1  0.37645200  0.74480600  0.30049600  1
  Au  Au151  1  0.04682900  0.19276000  0.31784500  1
  Au  Au152  1  0.62148500  0.96720200  0.39303100  1
  Au  Au153  1  0.90211500  0.66940700  0.32562900  1
  Au  Au154  1  0.95220500  0.51913800  0.37571900  1
  Au  Au155  1  0.57157500  0.11693300  0.34312100  1
  Au  Au156  1  0.28684500  0.74317000  0.38437500  1
  Au  Au157  1  0.23684500  0.89317000  0.33437500  1
  Au  Au158  1  0.23684500  0.39317000  0.33437500  1
  Au  Au159  1  0.28684500  0.24317000  0.38437500  1
  Au  Au160  1  0.16421900  0.63170300  0.33819700  1
  Au  Au161  1  0.30947100  0.15463700  0.33055300  1
  Au  Au162  1  0.68473400  0.55599500  0.36343300  1
  Au  Au163  1  0.78895500  0.23034600  0.30531700  1
  Au  Au164  1  0.44742800  0.50574300  0.29703400  1
  Au  Au165  1  0.92626200  0.58059700  0.27171600  1
  Au  Au166  1  0.52148500  0.26720200  0.29303100  1
  Au  Au167  1  0.85220500  0.81913800  0.27571900  1
  Au  Au168  1  0.18684500  0.04317000  0.28437500  1
  Au  Au169  1  0.18684500  0.54317000  0.28437500  1
