# generated using pymatgen
data_Mg12Zn61
_symmetry_space_group_name_H-M   'P 1'
_cell_length_a   4.98183571
_cell_length_b   9.87228479
_cell_length_c   49.62169200
_cell_angle_alpha   87.16066620
_cell_angle_beta   87.12264785
_cell_angle_gamma   75.38550100
_symmetry_Int_Tables_number   1
_chemical_formula_structural   Mg12Zn61
_chemical_formula_sum   'Mg12 Zn61'
_cell_volume   2356.84330036
_cell_formula_units_Z   1
loop_
 _symmetry_equiv_pos_site_id
 _symmetry_equiv_pos_as_xyz
  1  'x, y, z'
loop_
 _atom_site_type_symbol
 _atom_site_label
 _atom_site_symmetry_multiplicity
 _atom_site_fract_x
 _atom_site_fract_y
 _atom_site_fract_z
 _atom_site_occupancy
  Mg  Mg0  1  0.49285300  0.40645600  0.60783900  1
  Mg  Mg1  1  0.01126000  0.41170700  0.56577200  1
  Mg  Mg2  1  0.33142700  0.69964300  0.63750400  1
  Mg  Mg3  1  0.17268700  0.11851900  0.53610800  1
  Mg  Mg4  1  0.32618600  0.90645600  0.44117200  1
  Mg  Mg5  1  0.84459400  0.91170700  0.39910600  1
  Mg  Mg6  1  0.16476000  0.19964300  0.47083700  1
  Mg  Mg7  1  0.00602000  0.61851900  0.36944100  1
  Mg  Mg8  1  0.15951900  0.40645600  0.27450500  1
  Mg  Mg9  1  0.67792700  0.41170700  0.23243900  1
  Mg  Mg10  1  0.99809300  0.69964300  0.30417000  1
  Mg  Mg11  1  0.83935300  0.11851900  0.20277400  1
  Zn  Zn12  1  0.83539000  0.65908100  0.67013900  1
  Zn  Zn13  1  0.25205700  0.90908100  0.58680600  1
  Zn  Zn14  1  0.74995100  0.88214500  0.61795400  1
  Zn  Zn15  1  0.60327400  0.14555200  0.64790100  1
  Zn  Zn16  1  0.58884800  0.27148500  0.55081800  1
  Zn  Zn17  1  0.91526500  0.54667800  0.62279300  1
  Zn  Zn18  1  0.70682200  0.41502900  0.66602600  1
  Zn  Zn19  1  0.62497100  0.67274500  0.58302400  1
  Zn  Zn20  1  0.75416200  0.93601800  0.55565800  1
  Zn  Zn21  1  0.04744000  0.27523600  0.62988500  1
  Zn  Zn22  1  0.38485300  0.14541700  0.59058700  1
  Zn  Zn23  1  0.11926000  0.67274500  0.58302400  1
  Zn  Zn24  1  0.87914200  0.14541700  0.59058700  1
  Zn  Zn25  1  0.29199000  0.40313300  0.50758500  1
  Zn  Zn26  1  0.90084000  0.67261000  0.52571000  1
  Zn  Zn27  1  0.21212300  0.41502900  0.66602600  1
  Zn  Zn28  1  0.79729100  0.40313300  0.50758500  1
  Zn  Zn29  1  0.66872300  0.15908100  0.50347200  1
  Zn  Zn30  1  0.32511800  0.80950600  0.54025800  1
  Zn  Zn31  1  0.17899500  0.00865600  0.63335300  1
  Zn  Zn32  1  0.45667400  0.54292700  0.54372600  1
  Zn  Zn33  1  0.08539000  0.40908100  0.42013900  1
  Zn  Zn34  1  0.58328400  0.38214500  0.45128700  1
  Zn  Zn35  1  0.43660700  0.64555200  0.48123400  1
  Zn  Zn36  1  0.42218200  0.77148500  0.38415200  1
  Zn  Zn37  1  0.74859800  0.04667800  0.45612600  1
  Zn  Zn38  1  0.54015500  0.91502900  0.49935900  1
  Zn  Zn39  1  0.45830500  0.17274500  0.41635700  1
  Zn  Zn40  1  0.58749600  0.43601800  0.38899100  1
  Zn  Zn41  1  0.88077300  0.77523600  0.46321800  1
  Zn  Zn42  1  0.21818700  0.64541700  0.42392100  1
  Zn  Zn43  1  0.95259300  0.17274500  0.41635700  1
  Zn  Zn44  1  0.71247500  0.64541700  0.42392100  1
  Zn  Zn45  1  0.12532300  0.90313300  0.34091900  1
  Zn  Zn46  1  0.73417300  0.17261000  0.35904400  1
  Zn  Zn47  1  0.04545600  0.91502900  0.49935900  1
  Zn  Zn48  1  0.63062500  0.90313300  0.34091900  1
  Zn  Zn49  1  0.50205700  0.65908100  0.33680600  1
  Zn  Zn50  1  0.15845100  0.30950600  0.37359100  1
  Zn  Zn51  1  0.01232900  0.50865600  0.46668600  1
  Zn  Zn52  1  0.29000700  0.04292700  0.37706000  1
  Zn  Zn53  1  0.91872300  0.90908100  0.25347200  1
  Zn  Zn54  1  0.41661800  0.88214500  0.28462000  1
  Zn  Zn55  1  0.26994000  0.14555200  0.31456700  1
  Zn  Zn56  1  0.25551500  0.27148500  0.21748500  1
  Zn  Zn57  1  0.58193100  0.54667800  0.28945900  1
  Zn  Zn58  1  0.37348900  0.41502900  0.33269200  1
  Zn  Zn59  1  0.29163800  0.67274500  0.24969000  1
  Zn  Zn60  1  0.42082900  0.93601800  0.22232400  1
  Zn  Zn61  1  0.71410600  0.27523600  0.29655200  1
  Zn  Zn62  1  0.05152000  0.14541700  0.25725400  1
  Zn  Zn63  1  0.78592600  0.67274500  0.24969000  1
  Zn  Zn64  1  0.54580800  0.14541700  0.25725400  1
  Zn  Zn65  1  0.95865700  0.40313300  0.17425200  1
  Zn  Zn66  1  0.56750600  0.67261000  0.19237700  1
  Zn  Zn67  1  0.87879000  0.41502900  0.33269200  1
  Zn  Zn68  1  0.46395800  0.40313300  0.17425200  1
  Zn  Zn69  1  0.33539000  0.15908100  0.17013900  1
  Zn  Zn70  1  0.99178500  0.80950600  0.20692500  1
  Zn  Zn71  1  0.84566200  0.00865600  0.30002000  1
  Zn  Zn72  1  0.12334000  0.54292700  0.21039300  1
