# generated using pymatgen
data_MgGa
_symmetry_space_group_name_H-M   'P 1'
_cell_length_a   12.02268053
_cell_length_b   12.02268044
_cell_length_c   44.88106400
_cell_angle_alpha   85.32689429
_cell_angle_beta   94.67310567
_cell_angle_gamma   102.23861087
_symmetry_Int_Tables_number   1
_chemical_formula_structural   MgGa
_chemical_formula_sum   'Mg96 Ga96'
_cell_volume   6305.07448137
_cell_formula_units_Z   96
loop_
 _symmetry_equiv_pos_site_id
 _symmetry_equiv_pos_as_xyz
  1  'x, y, z'
loop_
 _atom_site_type_symbol
 _atom_site_label
 _atom_site_symmetry_multiplicity
 _atom_site_fract_x
 _atom_site_fract_y
 _atom_site_fract_z
 _atom_site_occupancy
  Mg  Mg0  1  0.79167000  0.41316900  0.27977300  1
  Mg  Mg1  1  0.54682500  0.51258400  0.25977000  1
  Mg  Mg2  1  0.61031900  0.33027200  0.21880200  1
  Mg  Mg3  1  0.55118600  0.24397500  0.29165500  1
  Mg  Mg4  1  0.14881400  0.55602500  0.20834500  1
  Mg  Mg5  1  0.48968100  0.06972800  0.23119800  1
  Mg  Mg6  1  0.75317500  0.68741600  0.29023000  1
  Mg  Mg7  1  0.90833000  0.38683100  0.22022700  1
  Mg  Mg8  1  0.19167000  0.01316900  0.22977300  1
  Mg  Mg9  1  0.94682500  0.11258400  0.20977000  1
  Mg  Mg10  1  0.21031900  0.73027200  0.26880200  1
  Mg  Mg11  1  0.95118600  0.84397500  0.24165500  1
  Mg  Mg12  1  0.74881400  0.95602500  0.25834500  1
  Mg  Mg13  1  0.08968100  0.46972800  0.28119800  1
  Mg  Mg14  1  0.15317500  0.28741600  0.24023000  1
  Mg  Mg15  1  0.50833000  0.78683100  0.27022700  1
  Mg  Mg16  1  0.99167000  0.21316900  0.37977300  1
  Mg  Mg17  1  0.74682500  0.31258400  0.35977000  1
  Mg  Mg18  1  0.81031900  0.13027200  0.31880200  1
  Mg  Mg19  1  0.75118600  0.04397500  0.39165500  1
  Mg  Mg20  1  0.34881400  0.35602500  0.30834500  1
  Mg  Mg21  1  0.68968100  0.86972800  0.33119800  1
  Mg  Mg22  1  0.95317500  0.48741600  0.39023000  1
  Mg  Mg23  1  0.10833000  0.18683100  0.32022700  1
  Mg  Mg24  1  0.39167000  0.81316900  0.32977300  1
  Mg  Mg25  1  0.14682500  0.91258400  0.30977000  1
  Mg  Mg26  1  0.41031900  0.53027200  0.36880200  1
  Mg  Mg27  1  0.15118600  0.64397500  0.34165500  1
  Mg  Mg28  1  0.94881400  0.75602500  0.35834500  1
  Mg  Mg29  1  0.28968100  0.26972800  0.38119800  1
  Mg  Mg30  1  0.35317500  0.08741600  0.34023000  1
  Mg  Mg31  1  0.70833000  0.58683100  0.37022700  1
  Mg  Mg32  1  0.19167000  0.01316900  0.47977300  1
  Mg  Mg33  1  0.94682500  0.11258400  0.45977000  1
  Mg  Mg34  1  0.01031900  0.93027200  0.41880200  1
  Mg  Mg35  1  0.95118600  0.84397500  0.49165500  1
  Mg  Mg36  1  0.54881400  0.15602500  0.40834500  1
  Mg  Mg37  1  0.88968100  0.66972800  0.43119800  1
  Mg  Mg38  1  0.15317500  0.28741600  0.49023000  1
  Mg  Mg39  1  0.30833000  0.98683100  0.42022700  1
  Mg  Mg40  1  0.59167000  0.61316900  0.42977300  1
  Mg  Mg41  1  0.34682500  0.71258400  0.40977000  1
  Mg  Mg42  1  0.61031900  0.33027200  0.46880200  1
  Mg  Mg43  1  0.35118600  0.44397500  0.44165500  1
  Mg  Mg44  1  0.14881400  0.55602500  0.45834500  1
  Mg  Mg45  1  0.48968100  0.06972800  0.48119800  1
  Mg  Mg46  1  0.55317500  0.88741600  0.44023000  1
  Mg  Mg47  1  0.90833000  0.38683100  0.47022700  1
  Mg  Mg48  1  0.39167000  0.81316900  0.57977300  1
  Mg  Mg49  1  0.14682500  0.91258400  0.55977000  1
  Mg  Mg50  1  0.21031900  0.73027200  0.51880200  1
  Mg  Mg51  1  0.15118600  0.64397500  0.59165500  1
  Mg  Mg52  1  0.74881400  0.95602500  0.50834500  1
  Mg  Mg53  1  0.08968100  0.46972800  0.53119800  1
  Mg  Mg54  1  0.35317500  0.08741600  0.59023000  1
  Mg  Mg55  1  0.50833000  0.78683100  0.52022700  1
  Mg  Mg56  1  0.79167000  0.41316900  0.52977300  1
  Mg  Mg57  1  0.54682500  0.51258400  0.50977000  1
  Mg  Mg58  1  0.81031900  0.13027200  0.56880200  1
  Mg  Mg59  1  0.55118600  0.24397500  0.54165500  1
  Mg  Mg60  1  0.34881400  0.35602500  0.55834500  1
  Mg  Mg61  1  0.68968100  0.86972800  0.58119800  1
  Mg  Mg62  1  0.75317500  0.68741600  0.54023000  1
  Mg  Mg63  1  0.10833000  0.18683100  0.57022700  1
  Mg  Mg64  1  0.59167000  0.61316900  0.67977300  1
  Mg  Mg65  1  0.34682500  0.71258400  0.65977000  1
  Mg  Mg66  1  0.41031900  0.53027200  0.61880200  1
  Mg  Mg67  1  0.35118600  0.44397500  0.69165500  1
  Mg  Mg68  1  0.94881400  0.75602500  0.60834500  1
  Mg  Mg69  1  0.28968100  0.26972800  0.63119800  1
  Mg  Mg70  1  0.55317500  0.88741600  0.69023000  1
  Mg  Mg71  1  0.70833000  0.58683100  0.62022700  1
  Mg  Mg72  1  0.99167000  0.21316900  0.62977300  1
  Mg  Mg73  1  0.74682500  0.31258400  0.60977000  1
  Mg  Mg74  1  0.01031900  0.93027200  0.66880200  1
  Mg  Mg75  1  0.75118600  0.04397500  0.64165500  1
  Mg  Mg76  1  0.54881400  0.15602500  0.65834500  1
  Mg  Mg77  1  0.88968100  0.66972800  0.68119800  1
  Mg  Mg78  1  0.95317500  0.48741600  0.64023000  1
  Mg  Mg79  1  0.30833000  0.98683100  0.67022700  1
  Mg  Mg80  1  0.79167000  0.41316900  0.77977300  1
  Mg  Mg81  1  0.54682500  0.51258400  0.75977000  1
  Mg  Mg82  1  0.61031900  0.33027200  0.71880200  1
  Mg  Mg83  1  0.55118600  0.24397500  0.79165500  1
  Mg  Mg84  1  0.14881400  0.55602500  0.70834500  1
  Mg  Mg85  1  0.48968100  0.06972800  0.73119800  1
  Mg  Mg86  1  0.75317500  0.68741600  0.79023000  1
  Mg  Mg87  1  0.90833000  0.38683100  0.72022700  1
  Mg  Mg88  1  0.19167000  0.01316900  0.72977300  1
  Mg  Mg89  1  0.94682500  0.11258400  0.70977000  1
  Mg  Mg90  1  0.21031900  0.73027200  0.76880200  1
  Mg  Mg91  1  0.95118600  0.84397500  0.74165500  1
  Mg  Mg92  1  0.74881400  0.95602500  0.75834500  1
  Mg  Mg93  1  0.08968100  0.46972800  0.78119800  1
  Mg  Mg94  1  0.15317500  0.28741600  0.74023000  1
  Mg  Mg95  1  0.50833000  0.78683100  0.77022700  1
  Ga  Ga96  1  0.94576800  0.24848800  0.27225400  1
  Ga  Ga97  1  0.43030600  0.66143100  0.21865500  1
  Ga  Ga98  1  0.72201600  0.18624700  0.25750600  1
  Ga  Ga99  1  0.30655400  0.49919000  0.25390700  1
  Ga  Ga100  1  0.39344600  0.30081000  0.24609300  1
  Ga  Ga101  1  0.57798400  0.01375300  0.29249400  1
  Ga  Ga102  1  0.66969400  0.73856900  0.23134500  1
  Ga  Ga103  1  0.75423200  0.55151200  0.22774600  1
  Ga  Ga104  1  0.34576800  0.84848800  0.22225400  1
  Ga  Ga105  1  0.03030600  0.06143100  0.26865500  1
  Ga  Ga106  1  0.12201600  0.78624700  0.20750600  1
  Ga  Ga107  1  0.70655400  0.09919000  0.20390700  1
  Ga  Ga108  1  0.99344600  0.70081000  0.29609300  1
  Ga  Ga109  1  0.97798400  0.61375300  0.24249400  1
  Ga  Ga110  1  0.26969400  0.13856900  0.28134500  1
  Ga  Ga111  1  0.35423200  0.95151200  0.27774600  1
  Ga  Ga112  1  0.14576800  0.04848800  0.37225400  1
  Ga  Ga113  1  0.63030600  0.46143100  0.31865500  1
  Ga  Ga114  1  0.92201600  0.98624700  0.35750600  1
  Ga  Ga115  1  0.50655400  0.29919000  0.35390700  1
  Ga  Ga116  1  0.59344600  0.10081000  0.34609300  1
  Ga  Ga117  1  0.77798400  0.81375300  0.39249400  1
  Ga  Ga118  1  0.86969400  0.53856900  0.33134500  1
  Ga  Ga119  1  0.95423200  0.35151200  0.32774600  1
  Ga  Ga120  1  0.54576800  0.64848800  0.32225400  1
  Ga  Ga121  1  0.23030600  0.86143100  0.36865500  1
  Ga  Ga122  1  0.32201600  0.58624700  0.30750600  1
  Ga  Ga123  1  0.90655400  0.89919000  0.30390700  1
  Ga  Ga124  1  0.19344600  0.50081000  0.39609300  1
  Ga  Ga125  1  0.17798400  0.41375300  0.34249400  1
  Ga  Ga126  1  0.46969400  0.93856900  0.38134500  1
  Ga  Ga127  1  0.55423200  0.75151200  0.37774600  1
  Ga  Ga128  1  0.34576800  0.84848800  0.47225400  1
  Ga  Ga129  1  0.83030600  0.26143100  0.41865500  1
  Ga  Ga130  1  0.12201600  0.78624700  0.45750600  1
  Ga  Ga131  1  0.70655400  0.09919000  0.45390700  1
  Ga  Ga132  1  0.79344600  0.90081000  0.44609300  1
  Ga  Ga133  1  0.97798400  0.61375300  0.49249400  1
  Ga  Ga134  1  0.06969400  0.33856900  0.43134500  1
  Ga  Ga135  1  0.15423200  0.15151200  0.42774600  1
  Ga  Ga136  1  0.74576800  0.44848800  0.42225400  1
  Ga  Ga137  1  0.43030600  0.66143100  0.46865500  1
  Ga  Ga138  1  0.52201600  0.38624700  0.40750600  1
  Ga  Ga139  1  0.10655400  0.69919000  0.40390700  1
  Ga  Ga140  1  0.39344600  0.30081000  0.49609300  1
  Ga  Ga141  1  0.37798400  0.21375300  0.44249400  1
  Ga  Ga142  1  0.66969400  0.73856900  0.48134500  1
  Ga  Ga143  1  0.75423200  0.55151200  0.47774600  1
  Ga  Ga144  1  0.54576800  0.64848800  0.57225400  1
  Ga  Ga145  1  0.03030600  0.06143100  0.51865500  1
  Ga  Ga146  1  0.32201600  0.58624700  0.55750600  1
  Ga  Ga147  1  0.90655400  0.89919000  0.55390700  1
  Ga  Ga148  1  0.99344600  0.70081000  0.54609300  1
  Ga  Ga149  1  0.17798400  0.41375300  0.59249400  1
  Ga  Ga150  1  0.26969400  0.13856900  0.53134500  1
  Ga  Ga151  1  0.35423200  0.95151200  0.52774600  1
  Ga  Ga152  1  0.94576800  0.24848800  0.52225400  1
  Ga  Ga153  1  0.63030600  0.46143100  0.56865500  1
  Ga  Ga154  1  0.72201600  0.18624700  0.50750600  1
  Ga  Ga155  1  0.30655400  0.49919000  0.50390700  1
  Ga  Ga156  1  0.59344600  0.10081000  0.59609300  1
  Ga  Ga157  1  0.57798400  0.01375300  0.54249400  1
  Ga  Ga158  1  0.86969400  0.53856900  0.58134500  1
  Ga  Ga159  1  0.95423200  0.35151200  0.57774600  1
  Ga  Ga160  1  0.74576800  0.44848800  0.67225400  1
  Ga  Ga161  1  0.23030600  0.86143100  0.61865500  1
  Ga  Ga162  1  0.52201600  0.38624700  0.65750600  1
  Ga  Ga163  1  0.10655400  0.69919000  0.65390700  1
  Ga  Ga164  1  0.19344600  0.50081000  0.64609300  1
  Ga  Ga165  1  0.37798400  0.21375300  0.69249400  1
  Ga  Ga166  1  0.46969400  0.93856900  0.63134500  1
  Ga  Ga167  1  0.55423200  0.75151200  0.62774600  1
  Ga  Ga168  1  0.14576800  0.04848800  0.62225400  1
  Ga  Ga169  1  0.83030600  0.26143100  0.66865500  1
  Ga  Ga170  1  0.92201600  0.98624700  0.60750600  1
  Ga  Ga171  1  0.50655400  0.29919000  0.60390700  1
  Ga  Ga172  1  0.79344600  0.90081000  0.69609300  1
  Ga  Ga173  1  0.77798400  0.81375300  0.64249400  1
  Ga  Ga174  1  0.06969400  0.33856900  0.68134500  1
  Ga  Ga175  1  0.15423200  0.15151200  0.67774600  1
  Ga  Ga176  1  0.94576800  0.24848800  0.77225400  1
  Ga  Ga177  1  0.43030600  0.66143100  0.71865500  1
  Ga  Ga178  1  0.72201600  0.18624700  0.75750600  1
  Ga  Ga179  1  0.30655400  0.49919000  0.75390700  1
  Ga  Ga180  1  0.39344600  0.30081000  0.74609300  1
  Ga  Ga181  1  0.57798400  0.01375300  0.79249400  1
  Ga  Ga182  1  0.66969400  0.73856900  0.73134500  1
  Ga  Ga183  1  0.75423200  0.55151200  0.72774600  1
  Ga  Ga184  1  0.34576800  0.84848800  0.72225400  1
  Ga  Ga185  1  0.03030600  0.06143100  0.76865500  1
  Ga  Ga186  1  0.12201600  0.78624700  0.70750600  1
  Ga  Ga187  1  0.70655400  0.09919000  0.70390700  1
  Ga  Ga188  1  0.99344600  0.70081000  0.79609300  1
  Ga  Ga189  1  0.97798400  0.61375300  0.74249400  1
  Ga  Ga190  1  0.26969400  0.13856900  0.78134500  1
  Ga  Ga191  1  0.35423200  0.95151200  0.77774600  1
