# generated using pymatgen
data_Y7Mg3
_symmetry_space_group_name_H-M   'P 1'
_cell_length_a   3.72656800
_cell_length_b   5.49634900
_cell_length_c   51.51559500
_cell_angle_alpha   90.00000000
_cell_angle_beta   90.00000000
_cell_angle_gamma   90.00000000
_symmetry_Int_Tables_number   1
_chemical_formula_structural   Y7Mg3
_chemical_formula_sum   'Y14 Mg6'
_cell_volume   1055.16911733
_cell_formula_units_Z   2
loop_
 _symmetry_equiv_pos_site_id
 _symmetry_equiv_pos_as_xyz
  1  'x, y, z'
loop_
 _atom_site_type_symbol
 _atom_site_label
 _atom_site_symmetry_multiplicity
 _atom_site_fract_x
 _atom_site_fract_y
 _atom_site_fract_z
 _atom_site_occupancy
  Y  Y0  1  0.50000000  0.25000000  0.47463000  1
  Y  Y1  1  0.00000000  0.25000000  0.20204500  1
  Y  Y2  1  0.00000000  0.75000000  0.24759200  1
  Y  Y3  1  0.50000000  0.75000000  0.18684400  1
  Y  Y4  1  0.00000000  0.25000000  0.30796300  1
  Y  Y5  1  0.50000000  0.25000000  0.36871200  1
  Y  Y6  1  0.50000000  0.75000000  0.41425900  1
  Y  Y7  1  0.00000000  0.75000000  0.35351100  1
  Y  Y8  1  0.00000000  0.25000000  0.53537800  1
  Y  Y9  1  0.00000000  0.75000000  0.58092600  1
  Y  Y10  1  0.50000000  0.75000000  0.52017700  1
  Y  Y11  1  0.00000000  0.25000000  0.64129600  1
  Y  Y12  1  0.50000000  0.25000000  0.70204500  1
  Y  Y13  1  0.00000000  0.75000000  0.68684400  1
  Mg  Mg14  1  0.50000000  0.25000000  0.25526800  1
  Mg  Mg15  1  0.00000000  0.75000000  0.46695500  1
  Mg  Mg16  1  0.00000000  0.25000000  0.42193400  1
  Mg  Mg17  1  0.50000000  0.75000000  0.30028800  1
  Mg  Mg18  1  0.50000000  0.25000000  0.58860100  1
  Mg  Mg19  1  0.50000000  0.75000000  0.63362100  1
