# generated using pymatgen
data_Mg8Rh3
_symmetry_space_group_name_H-M   'P 1'
_cell_length_a   8.64031975
_cell_length_b   8.03467500
_cell_length_c   52.55701100
_cell_angle_alpha   90.00000000
_cell_angle_beta   94.71500456
_cell_angle_gamma   90.00000000
_symmetry_Int_Tables_number   1
_chemical_formula_structural   Mg8Rh3
_chemical_formula_sum   'Mg64 Rh24'
_cell_volume   3636.27396607
_cell_formula_units_Z   8
loop_
 _symmetry_equiv_pos_site_id
 _symmetry_equiv_pos_as_xyz
  1  'x, y, z'
loop_
 _atom_site_type_symbol
 _atom_site_label
 _atom_site_symmetry_multiplicity
 _atom_site_fract_x
 _atom_site_fract_y
 _atom_site_fract_z
 _atom_site_occupancy
  Mg  Mg0  1  0.75193500  0.50000000  0.29591800  1
  Mg  Mg1  1  0.75193500  0.00000000  0.29591800  1
  Mg  Mg2  1  0.24618800  0.75000000  0.28442300  1
  Mg  Mg3  1  0.90299700  0.25000000  0.21874200  1
  Mg  Mg4  1  0.52369700  0.25000000  0.21874200  1
  Mg  Mg5  1  0.40874500  0.75000000  0.23023700  1
  Mg  Mg6  1  0.02944400  0.75000000  0.23023700  1
  Mg  Mg7  1  0.25768300  0.25000000  0.30741400  1
  Mg  Mg8  1  0.77926400  0.43548400  0.35057500  1
  Mg  Mg9  1  0.05254800  0.93548400  0.32324700  1
  Mg  Mg10  1  0.47865100  0.93548400  0.32324700  1
  Mg  Mg11  1  0.02521900  0.43548400  0.26859000  1
  Mg  Mg12  1  0.45132300  0.43548400  0.26859000  1
  Mg  Mg13  1  0.72460700  0.56451600  0.24126200  1
  Mg  Mg14  1  0.05254800  0.56451600  0.32324700  1
  Mg  Mg15  1  0.72460700  0.93548400  0.24126200  1
  Mg  Mg16  1  0.47865100  0.56451600  0.32324700  1
  Mg  Mg17  1  0.02521900  0.06451600  0.26859000  1
  Mg  Mg18  1  0.77926400  0.06451600  0.35057500  1
  Mg  Mg19  1  0.45132300  0.06451600  0.26859000  1
  Mg  Mg20  1  0.32336400  0.50000000  0.43877600  1
  Mg  Mg21  1  0.32336400  0.00000000  0.43877600  1
  Mg  Mg22  1  0.81761600  0.75000000  0.42728000  1
  Mg  Mg23  1  0.47442600  0.25000000  0.36159900  1
  Mg  Mg24  1  0.09512500  0.25000000  0.36159900  1
  Mg  Mg25  1  0.98017400  0.75000000  0.37309500  1
  Mg  Mg26  1  0.60087300  0.75000000  0.37309500  1
  Mg  Mg27  1  0.82911100  0.25000000  0.45027100  1
  Mg  Mg28  1  0.35069200  0.43548400  0.49343200  1
  Mg  Mg29  1  0.62397600  0.93548400  0.46610400  1
  Mg  Mg30  1  0.05008000  0.93548400  0.46610400  1
  Mg  Mg31  1  0.59664800  0.43548400  0.41144700  1
  Mg  Mg32  1  0.02275100  0.43548400  0.41144700  1
  Mg  Mg33  1  0.29603500  0.56451600  0.38411900  1
  Mg  Mg34  1  0.62397600  0.56451600  0.46610400  1
  Mg  Mg35  1  0.29603500  0.93548400  0.38411900  1
  Mg  Mg36  1  0.05008000  0.56451600  0.46610400  1
  Mg  Mg37  1  0.59664800  0.06451600  0.41144700  1
  Mg  Mg38  1  0.35069200  0.06451600  0.49343200  1
  Mg  Mg39  1  0.02275100  0.06451600  0.41144700  1
  Mg  Mg40  1  0.89479200  0.50000000  0.58163300  1
  Mg  Mg41  1  0.89479200  0.00000000  0.58163300  1
  Mg  Mg42  1  0.38904500  0.75000000  0.57013700  1
  Mg  Mg43  1  0.04585500  0.25000000  0.50445600  1
  Mg  Mg44  1  0.66655400  0.25000000  0.50445600  1
  Mg  Mg45  1  0.55160200  0.75000000  0.51595200  1
  Mg  Mg46  1  0.17230200  0.75000000  0.51595200  1
  Mg  Mg47  1  0.40054000  0.25000000  0.59312800  1
  Mg  Mg48  1  0.92212100  0.43548400  0.63628900  1
  Mg  Mg49  1  0.19540500  0.93548400  0.60896100  1
  Mg  Mg50  1  0.62150800  0.93548400  0.60896100  1
  Mg  Mg51  1  0.16807600  0.43548400  0.55430400  1
  Mg  Mg52  1  0.59418000  0.43548400  0.55430400  1
  Mg  Mg53  1  0.86746400  0.56451600  0.52697600  1
  Mg  Mg54  1  0.19540500  0.56451600  0.60896100  1
  Mg  Mg55  1  0.86746400  0.93548400  0.52697600  1
  Mg  Mg56  1  0.62150800  0.56451600  0.60896100  1
  Mg  Mg57  1  0.16807600  0.06451600  0.55430400  1
  Mg  Mg58  1  0.92212100  0.06451600  0.63628900  1
  Mg  Mg59  1  0.59418000  0.06451600  0.55430400  1
  Mg  Mg60  1  0.61728300  0.25000000  0.64731400  1
  Mg  Mg61  1  0.23798300  0.25000000  0.64731400  1
  Mg  Mg62  1  0.12303100  0.75000000  0.65880900  1
  Mg  Mg63  1  0.74373000  0.75000000  0.65880900  1
  Rh  Rh64  1  0.22812600  0.25000000  0.24829900  1
  Rh  Rh65  1  0.27574500  0.75000000  0.34353700  1
  Rh  Rh66  1  0.76940700  0.75000000  0.33086200  1
  Rh  Rh67  1  0.94412600  0.25000000  0.31339000  1
  Rh  Rh68  1  0.57721600  0.25000000  0.31339000  1
  Rh  Rh69  1  0.92665500  0.75000000  0.27844600  1
  Rh  Rh70  1  0.55974400  0.75000000  0.27844600  1
  Rh  Rh71  1  0.73446300  0.25000000  0.26097500  1
  Rh  Rh72  1  0.79955400  0.25000000  0.39115600  1
  Rh  Rh73  1  0.84717300  0.75000000  0.48639500  1
  Rh  Rh74  1  0.34083600  0.75000000  0.47371900  1
  Rh  Rh75  1  0.51555500  0.25000000  0.45624700  1
  Rh  Rh76  1  0.14864500  0.25000000  0.45624700  1
  Rh  Rh77  1  0.49808300  0.75000000  0.42130400  1
  Rh  Rh78  1  0.13117300  0.75000000  0.42130400  1
  Rh  Rh79  1  0.30589200  0.25000000  0.40383200  1
  Rh  Rh80  1  0.37098300  0.25000000  0.53401400  1
  Rh  Rh81  1  0.41860200  0.75000000  0.62925200  1
  Rh  Rh82  1  0.91226400  0.75000000  0.61657700  1
  Rh  Rh83  1  0.08698400  0.25000000  0.59910500  1
  Rh  Rh84  1  0.72007300  0.25000000  0.59910500  1
  Rh  Rh85  1  0.06951200  0.75000000  0.56416100  1
  Rh  Rh86  1  0.70260100  0.75000000  0.56416100  1
  Rh  Rh87  1  0.87732000  0.25000000  0.54668900  1
