# generated using pymatgen
data_Li13Mg12
_symmetry_space_group_name_H-M   'P 1'
_cell_length_a   4.84718900
_cell_length_b   4.84718941
_cell_length_c   41.55598900
_cell_angle_alpha   90.00000000
_cell_angle_beta   90.00000000
_cell_angle_gamma   59.99999600
_symmetry_Int_Tables_number   1
_chemical_formula_structural   Li13Mg12
_chemical_formula_sum   'Li13 Mg12'
_cell_volume   845.55951647
_cell_formula_units_Z   1
loop_
 _symmetry_equiv_pos_site_id
 _symmetry_equiv_pos_as_xyz
  1  'x, y, z'
loop_
 _atom_site_type_symbol
 _atom_site_label
 _atom_site_symmetry_multiplicity
 _atom_site_fract_x
 _atom_site_fract_y
 _atom_site_fract_z
 _atom_site_occupancy
  Li  Li0  1  0.75000000  0.75000000  0.22619000  1
  Li  Li1  1  0.41666700  0.41666700  0.27381000  1
  Li  Li2  1  0.08333300  0.08333300  0.32142900  1
  Li  Li3  1  0.75000000  0.75000000  0.36904800  1
  Li  Li4  1  0.41666700  0.41666700  0.41666700  1
  Li  Li5  1  0.08333300  0.08333300  0.46428600  1
  Li  Li6  1  0.75000000  0.75000000  0.51190500  1
  Li  Li7  1  0.41666700  0.41666700  0.55952400  1
  Li  Li8  1  0.08333300  0.08333300  0.60714300  1
  Li  Li9  1  0.75000000  0.75000000  0.65476200  1
  Li  Li10  1  0.41666700  0.41666700  0.70238100  1
  Li  Li11  1  0.08333300  0.08333300  0.75000000  1
  Li  Li12  1  0.75000000  0.75000000  0.79761900  1
  Mg  Mg13  1  0.08333300  0.08333300  0.25000000  1
  Mg  Mg14  1  0.75000000  0.75000000  0.29761900  1
  Mg  Mg15  1  0.41666700  0.41666700  0.34523800  1
  Mg  Mg16  1  0.08333300  0.08333300  0.39285700  1
  Mg  Mg17  1  0.75000000  0.75000000  0.44047600  1
  Mg  Mg18  1  0.41666700  0.41666700  0.48809500  1
  Mg  Mg19  1  0.08333300  0.08333300  0.53571400  1
  Mg  Mg20  1  0.75000000  0.75000000  0.58333300  1
  Mg  Mg21  1  0.41666700  0.41666700  0.63095200  1
  Mg  Mg22  1  0.08333300  0.08333300  0.67857100  1
  Mg  Mg23  1  0.75000000  0.75000000  0.72619000  1
  Mg  Mg24  1  0.41666700  0.41666700  0.77381000  1
