# generated using pymatgen
data_Mg8Be111
_symmetry_space_group_name_H-M   'P 1'
_cell_length_a   7.13400264
_cell_length_b   7.13400270
_cell_length_c   46.78078400
_cell_angle_alpha   85.62699019
_cell_angle_beta   85.62699015
_cell_angle_gamma   60.00000065
_symmetry_Int_Tables_number   1
_chemical_formula_structural   Mg8Be111
_chemical_formula_sum   'Mg8 Be111'
_cell_volume   2053.87870868
_cell_formula_units_Z   1
loop_
 _symmetry_equiv_pos_site_id
 _symmetry_equiv_pos_as_xyz
  1  'x, y, z'
loop_
 _atom_site_type_symbol
 _atom_site_label
 _atom_site_symmetry_multiplicity
 _atom_site_fract_x
 _atom_site_fract_y
 _atom_site_fract_z
 _atom_site_occupancy
  Mg  Mg0  1  0.99369700  0.61559000  0.67187500  1
  Mg  Mg1  1  0.68119700  0.30309000  0.60937500  1
  Mg  Mg2  1  0.36869700  0.99059000  0.54687500  1
  Mg  Mg3  1  0.05619700  0.67809000  0.48437500  1
  Mg  Mg4  1  0.74369700  0.36559000  0.42187500  1
  Mg  Mg5  1  0.43119700  0.05309000  0.35937500  1
  Mg  Mg6  1  0.11869700  0.74059000  0.29687500  1
  Mg  Mg7  1  0.80619700  0.42809000  0.23437500  1
  Be  Be8  1  0.64994700  0.27184000  0.70312500  1
  Be  Be9  1  0.38390600  0.23094000  0.69494500  1
  Be  Be10  1  0.60904700  0.58696100  0.69494500  1
  Be  Be11  1  0.69084700  0.95671900  0.71130500  1
  Be  Be12  1  0.33482600  0.53788100  0.71130500  1
  Be  Be13  1  0.91598800  0.31273900  0.71130500  1
  Be  Be14  1  0.96506800  0.00579800  0.69494500  1
  Be  Be15  1  0.33744700  0.95934000  0.64062500  1
  Be  Be16  1  0.02494700  0.64684000  0.57812500  1
  Be  Be17  1  0.15583400  0.00286800  0.60430200  1
  Be  Be18  1  0.69347500  0.09022600  0.66680200  1
  Be  Be19  1  0.75890600  0.60594000  0.56994500  1
  Be  Be20  1  0.98404700  0.96196100  0.56994500  1
  Be  Be21  1  0.06584700  0.33171900  0.58630500  1
  Be  Be22  1  0.82435400  0.31536800  0.66680200  1
  Be  Be23  1  0.70982600  0.91288100  0.58630500  1
  Be  Be24  1  0.38097500  0.13374700  0.60430200  1
  Be  Be25  1  0.51185400  0.77772600  0.60430200  1
  Be  Be26  1  0.65256800  0.91844000  0.63244500  1
  Be  Be27  1  0.29391900  0.78493200  0.67694800  1
  Be  Be28  1  0.60348800  0.64421900  0.64880500  1
  Be  Be29  1  0.16303900  0.14095300  0.67694800  1
  Be  Be30  1  0.07140600  0.27446100  0.63244500  1
  Be  Be31  1  0.02232600  0.00023900  0.64880500  1
  Be  Be32  1  0.46833400  0.44624700  0.66680200  1
  Be  Be33  1  0.29098800  0.68773900  0.58630500  1
  Be  Be34  1  0.34006800  0.38079800  0.56994500  1
  Be  Be35  1  0.85053900  0.60331100  0.61444800  1
  Be  Be36  1  0.98141900  0.82845300  0.61444800  1
  Be  Be37  1  0.20656000  0.47243200  0.61444800  1
  Be  Be38  1  0.29654700  0.69329800  0.63244500  1
  Be  Be39  1  0.51906000  0.91581100  0.67694800  1
  Be  Be40  1  0.37834700  0.22538100  0.64880500  1
  Be  Be41  1  0.71244700  0.33434000  0.51562500  1
  Be  Be42  1  0.39994700  0.02184000  0.45312500  1
  Be  Be43  1  0.53083400  0.37786800  0.47930200  1
  Be  Be44  1  0.06847500  0.46522600  0.54180200  1
  Be  Be45  1  0.13390600  0.98094000  0.44494500  1
  Be  Be46  1  0.35904700  0.33696100  0.44494500  1
  Be  Be47  1  0.44084700  0.70671900  0.46130500  1
  Be  Be48  1  0.19935400  0.69036800  0.54180200  1
  Be  Be49  1  0.08482600  0.28788100  0.46130500  1
  Be  Be50  1  0.75597500  0.50874700  0.47930200  1
  Be  Be51  1  0.88685400  0.15272600  0.47930200  1
  Be  Be52  1  0.02756800  0.29344000  0.50744500  1
  Be  Be53  1  0.66891900  0.15993200  0.55194800  1
  Be  Be54  1  0.97848800  0.01921900  0.52380500  1
  Be  Be55  1  0.53803900  0.51595300  0.55194800  1
  Be  Be56  1  0.44640600  0.64946100  0.50744500  1
  Be  Be57  1  0.39732600  0.37523900  0.52380500  1
  Be  Be58  1  0.84333400  0.82124700  0.54180200  1
  Be  Be59  1  0.66598800  0.06273900  0.46130500  1
  Be  Be60  1  0.71506800  0.75579800  0.44494500  1
  Be  Be61  1  0.22553900  0.97831100  0.48944800  1
  Be  Be62  1  0.35641900  0.20345300  0.48944800  1
  Be  Be63  1  0.58156000  0.84743200  0.48944800  1
  Be  Be64  1  0.67154700  0.06829800  0.50744500  1
  Be  Be65  1  0.89406000  0.29081100  0.55194800  1
  Be  Be66  1  0.75334700  0.60038100  0.52380500  1
  Be  Be67  1  0.08744700  0.70934000  0.39062500  1
  Be  Be68  1  0.77494700  0.39684000  0.32812500  1
  Be  Be69  1  0.90583400  0.75286800  0.35430200  1
  Be  Be70  1  0.44347500  0.84022600  0.41680200  1
  Be  Be71  1  0.50890600  0.35594000  0.31994500  1
  Be  Be72  1  0.73404700  0.71196100  0.31994500  1
  Be  Be73  1  0.81584700  0.08171900  0.33630500  1
  Be  Be74  1  0.57435400  0.06536800  0.41680200  1
  Be  Be75  1  0.45982600  0.66288100  0.33630500  1
  Be  Be76  1  0.13097500  0.88374700  0.35430200  1
  Be  Be77  1  0.26185400  0.52772600  0.35430200  1
  Be  Be78  1  0.40256800  0.66844000  0.38244500  1
  Be  Be79  1  0.04391900  0.53493200  0.42694800  1
  Be  Be80  1  0.35348800  0.39421900  0.39880500  1
  Be  Be81  1  0.91303900  0.89095300  0.42694800  1
  Be  Be82  1  0.82140600  0.02446100  0.38244500  1
  Be  Be83  1  0.77232600  0.75023900  0.39880500  1
  Be  Be84  1  0.21833400  0.19624700  0.41680200  1
  Be  Be85  1  0.04098800  0.43773900  0.33630500  1
  Be  Be86  1  0.09006800  0.13079800  0.31994500  1
  Be  Be87  1  0.60053900  0.35331100  0.36444800  1
  Be  Be88  1  0.73141900  0.57845300  0.36444800  1
  Be  Be89  1  0.95656000  0.22243200  0.36444800  1
  Be  Be90  1  0.04654700  0.44329800  0.38244500  1
  Be  Be91  1  0.26906000  0.66581100  0.42694800  1
  Be  Be92  1  0.12834700  0.97538100  0.39880500  1
  Be  Be93  1  0.46244700  0.08434000  0.26562500  1
  Be  Be94  1  0.14994700  0.77184000  0.20312500  1
  Be  Be95  1  0.28083400  0.12786800  0.22930200  1
  Be  Be96  1  0.81847500  0.21522600  0.29180200  1
  Be  Be97  1  0.88390600  0.73094000  0.19494500  1
  Be  Be98  1  0.10904700  0.08696100  0.19494500  1
  Be  Be99  1  0.19084700  0.45671900  0.21130500  1
  Be  Be100  1  0.94935400  0.44036800  0.29180200  1
  Be  Be101  1  0.83482600  0.03788100  0.21130500  1
  Be  Be102  1  0.50597500  0.25874700  0.22930200  1
  Be  Be103  1  0.63685400  0.90272600  0.22930200  1
  Be  Be104  1  0.77756800  0.04344000  0.25744500  1
  Be  Be105  1  0.41891900  0.90993200  0.30194800  1
  Be  Be106  1  0.72848800  0.76921900  0.27380500  1
  Be  Be107  1  0.28803900  0.26595300  0.30194800  1
  Be  Be108  1  0.19640600  0.39946100  0.25744500  1
  Be  Be109  1  0.14732600  0.12523900  0.27380500  1
  Be  Be110  1  0.59333400  0.57124700  0.29180200  1
  Be  Be111  1  0.41598800  0.81273900  0.21130500  1
  Be  Be112  1  0.46506800  0.50579800  0.19494500  1
  Be  Be113  1  0.97553900  0.72831100  0.23944800  1
  Be  Be114  1  0.10641900  0.95345300  0.23944800  1
  Be  Be115  1  0.33156000  0.59743200  0.23944800  1
  Be  Be116  1  0.42154700  0.81829800  0.25744500  1
  Be  Be117  1  0.64406000  0.04081100  0.30194800  1
  Be  Be118  1  0.50334700  0.35038100  0.27380500  1
