# generated using pymatgen
data_Er2Mg
_symmetry_space_group_name_H-M   'P 1'
_cell_length_a   3.65070000
_cell_length_b   17.86447484
_cell_length_c   41.62564500
_cell_angle_alpha   96.45089822
_cell_angle_beta   90.00000000
_cell_angle_gamma   90.00000000
_symmetry_Int_Tables_number   1
_chemical_formula_structural   Er2Mg
_chemical_formula_sum   'Er40 Mg20'
_cell_volume   2697.54625518
_cell_formula_units_Z   20
loop_
 _symmetry_equiv_pos_site_id
 _symmetry_equiv_pos_as_xyz
  1  'x, y, z'
loop_
 _atom_site_type_symbol
 _atom_site_label
 _atom_site_symmetry_multiplicity
 _atom_site_fract_x
 _atom_site_fract_y
 _atom_site_fract_z
 _atom_site_occupancy
  Er  Er0  1  0.50000000  0.91762100  0.19926800  1
  Er  Er1  1  0.00000000  0.76106600  0.22163300  1
  Er  Er2  1  0.00000000  0.70737900  0.30073200  1
  Er  Er3  1  0.50000000  0.86393400  0.27836700  1
  Er  Er4  1  0.00000000  0.48012100  0.26176800  1
  Er  Er5  1  0.50000000  0.32356600  0.28413300  1
  Er  Er6  1  0.50000000  0.14487900  0.23823200  1
  Er  Er7  1  0.00000000  0.30143400  0.21586700  1
  Er  Er8  1  0.50000000  0.04262100  0.32426800  1
  Er  Er9  1  0.00000000  0.88606600  0.34663300  1
  Er  Er10  1  0.00000000  0.83237900  0.42573200  1
  Er  Er11  1  0.50000000  0.98893400  0.40336700  1
  Er  Er12  1  0.00000000  0.60512100  0.38676800  1
  Er  Er13  1  0.50000000  0.44856600  0.40913300  1
  Er  Er14  1  0.50000000  0.26987900  0.36323200  1
  Er  Er15  1  0.00000000  0.42643400  0.34086700  1
  Er  Er16  1  0.50000000  0.16762100  0.44926800  1
  Er  Er17  1  0.00000000  0.01106600  0.47163300  1
  Er  Er18  1  0.00000000  0.95737900  0.55073200  1
  Er  Er19  1  0.50000000  0.11393400  0.52836700  1
  Er  Er20  1  0.00000000  0.73012100  0.51176800  1
  Er  Er21  1  0.50000000  0.57356600  0.53413300  1
  Er  Er22  1  0.50000000  0.39487900  0.48823200  1
  Er  Er23  1  0.00000000  0.55143400  0.46586700  1
  Er  Er24  1  0.50000000  0.29262100  0.57426800  1
  Er  Er25  1  0.00000000  0.13606600  0.59663300  1
  Er  Er26  1  0.00000000  0.08237900  0.67573200  1
  Er  Er27  1  0.50000000  0.23893400  0.65336700  1
  Er  Er28  1  0.00000000  0.85512100  0.63676800  1
  Er  Er29  1  0.50000000  0.69856600  0.65913300  1
  Er  Er30  1  0.50000000  0.51987900  0.61323200  1
  Er  Er31  1  0.00000000  0.67643400  0.59086700  1
  Er  Er32  1  0.50000000  0.41762100  0.69926800  1
  Er  Er33  1  0.00000000  0.26106600  0.72163300  1
  Er  Er34  1  0.00000000  0.20737900  0.80073200  1
  Er  Er35  1  0.50000000  0.36393400  0.77836700  1
  Er  Er36  1  0.00000000  0.98012100  0.76176800  1
  Er  Er37  1  0.50000000  0.82356600  0.78413300  1
  Er  Er38  1  0.50000000  0.64487900  0.73823200  1
  Er  Er39  1  0.00000000  0.80143400  0.71586700  1
  Mg  Mg40  1  0.50000000  0.61983200  0.24181000  1
  Mg  Mg41  1  0.00000000  0.00516800  0.25819000  1
  Mg  Mg42  1  0.00000000  0.18233200  0.30431000  1
  Mg  Mg43  1  0.50000000  0.44266800  0.19569000  1
  Mg  Mg44  1  0.50000000  0.74483200  0.36681000  1
  Mg  Mg45  1  1.00000000  0.13016800  0.38319000  1
  Mg  Mg46  1  0.00000000  0.30733200  0.42931000  1
  Mg  Mg47  1  0.50000000  0.56766800  0.32069000  1
  Mg  Mg48  1  0.50000000  0.86983200  0.49181000  1
  Mg  Mg49  1  0.00000000  0.25516800  0.50819000  1
  Mg  Mg50  1  0.00000000  0.43233200  0.55431000  1
  Mg  Mg51  1  0.50000000  0.69266800  0.44569000  1
  Mg  Mg52  1  0.50000000  0.99483200  0.61681000  1
  Mg  Mg53  1  0.00000000  0.38016800  0.63319000  1
  Mg  Mg54  1  0.00000000  0.55733200  0.67931000  1
  Mg  Mg55  1  0.50000000  0.81766800  0.57069000  1
  Mg  Mg56  1  0.50000000  0.11983200  0.74181000  1
  Mg  Mg57  1  0.00000000  0.50516800  0.75819000  1
  Mg  Mg58  1  0.00000000  0.68233200  0.80431000  1
  Mg  Mg59  1  0.50000000  0.94266800  0.69569000  1
