# generated using pymatgen
data_MgSc2
_symmetry_space_group_name_H-M   'P 1'
_cell_length_a   6.15802808
_cell_length_b   8.41162235
_cell_length_c   44.44502100
_cell_angle_alpha   88.64208176
_cell_angle_beta   86.82203302
_cell_angle_gamma   83.76368766
_symmetry_Int_Tables_number   1
_chemical_formula_structural   MgSc2
_chemical_formula_sum   'Mg20 Sc40'
_cell_volume   2284.70234821
_cell_formula_units_Z   20
loop_
 _symmetry_equiv_pos_site_id
 _symmetry_equiv_pos_as_xyz
  1  'x, y, z'
loop_
 _atom_site_type_symbol
 _atom_site_label
 _atom_site_symmetry_multiplicity
 _atom_site_fract_x
 _atom_site_fract_y
 _atom_site_fract_z
 _atom_site_occupancy
  Mg  Mg0  1  0.50387600  0.11347100  0.76172500  1
  Mg  Mg1  1  0.80862400  0.32402900  0.80077500  1
  Mg  Mg2  1  0.81637600  0.17597100  0.69922500  1
  Mg  Mg3  1  0.12112400  0.38652900  0.73827500  1
  Mg  Mg4  1  0.12887600  0.23847100  0.63672500  1
  Mg  Mg5  1  0.43362400  0.44902900  0.67577500  1
  Mg  Mg6  1  0.44137600  0.30097100  0.57422500  1
  Mg  Mg7  1  0.74612400  0.51152900  0.61327500  1
  Mg  Mg8  1  0.75387600  0.36347100  0.51172500  1
  Mg  Mg9  1  0.05862400  0.57402900  0.55077500  1
  Mg  Mg10  1  0.06637600  0.42597100  0.44922500  1
  Mg  Mg11  1  0.37112400  0.63652900  0.48827500  1
  Mg  Mg12  1  0.37887600  0.48847100  0.38672500  1
  Mg  Mg13  1  0.68362400  0.69902900  0.42577500  1
  Mg  Mg14  1  0.69137600  0.55097100  0.32422500  1
  Mg  Mg15  1  0.99612400  0.76152900  0.36327500  1
  Mg  Mg16  1  0.00387600  0.61347100  0.26172500  1
  Mg  Mg17  1  0.30862400  0.82402900  0.30077500  1
  Mg  Mg18  1  0.31637600  0.67597100  0.19922500  1
  Mg  Mg19  1  0.62112400  0.88652900  0.23827500  1
  Sc  Sc20  1  0.29612500  0.40152200  0.80327500  1
  Sc  Sc21  1  0.39899300  0.76374300  0.78270100  1
  Sc  Sc22  1  0.01637500  0.03597800  0.75922500  1
  Sc  Sc23  1  0.91350700  0.67375700  0.77979900  1
  Sc  Sc24  1  0.60862500  0.46402200  0.74077500  1
  Sc  Sc25  1  0.71149300  0.82624300  0.72020100  1
  Sc  Sc26  1  0.32887500  0.09847800  0.69672500  1
  Sc  Sc27  1  0.22600700  0.73625700  0.71729900  1
  Sc  Sc28  1  0.92112500  0.52652200  0.67827500  1
  Sc  Sc29  1  0.02399300  0.88874300  0.65770100  1
  Sc  Sc30  1  0.64137500  0.16097800  0.63422500  1
  Sc  Sc31  1  0.53850700  0.79875700  0.65479900  1
  Sc  Sc32  1  0.23362500  0.58902200  0.61577500  1
  Sc  Sc33  1  0.33649300  0.95124300  0.59520100  1
  Sc  Sc34  1  0.95387500  0.22347800  0.57172500  1
  Sc  Sc35  1  0.85100700  0.86125700  0.59229900  1
  Sc  Sc36  1  0.54612500  0.65152200  0.55327500  1
  Sc  Sc37  1  0.64899300  0.01374300  0.53270100  1
  Sc  Sc38  1  0.26637500  0.28597800  0.50922500  1
  Sc  Sc39  1  0.16350700  0.92375700  0.52979900  1
  Sc  Sc40  1  0.85862500  0.71402200  0.49077500  1
  Sc  Sc41  1  0.96149300  0.07624300  0.47020100  1
  Sc  Sc42  1  0.57887500  0.34847800  0.44672500  1
  Sc  Sc43  1  0.47600700  0.98625700  0.46729900  1
  Sc  Sc44  1  0.17112500  0.77652200  0.42827500  1
  Sc  Sc45  1  0.27399300  0.13874300  0.40770100  1
  Sc  Sc46  1  0.89137500  0.41097800  0.38422500  1
  Sc  Sc47  1  0.78850700  0.04875700  0.40479900  1
  Sc  Sc48  1  0.48362500  0.83902200  0.36577500  1
  Sc  Sc49  1  0.58649300  0.20124300  0.34520100  1
  Sc  Sc50  1  0.20387500  0.47347800  0.32172500  1
  Sc  Sc51  1  0.10100700  0.11125700  0.34229900  1
  Sc  Sc52  1  0.79612500  0.90152200  0.30327500  1
  Sc  Sc53  1  0.89899300  0.26374300  0.28270100  1
  Sc  Sc54  1  0.51637500  0.53597800  0.25922500  1
  Sc  Sc55  1  0.41350700  0.17375700  0.27979900  1
  Sc  Sc56  1  0.10862500  0.96402200  0.24077500  1
  Sc  Sc57  1  0.21149300  0.32624300  0.22020100  1
  Sc  Sc58  1  0.82887500  0.59847800  0.19672500  1
  Sc  Sc59  1  0.72600700  0.23625700  0.21729900  1
