# generated using pymatgen
data_Mg3Zn
_symmetry_space_group_name_H-M   'P 1'
_cell_length_a   6.14549200
_cell_length_b   7.89728281
_cell_length_c   43.64987100
_cell_angle_alpha   93.71774774
_cell_angle_beta   90.00000000
_cell_angle_gamma   67.10217279
_symmetry_Int_Tables_number   1
_chemical_formula_structural   Mg3Zn
_chemical_formula_sum   'Mg42 Zn14'
_cell_volume   1946.67205951
_cell_formula_units_Z   14
loop_
 _symmetry_equiv_pos_site_id
 _symmetry_equiv_pos_as_xyz
  1  'x, y, z'
loop_
 _atom_site_type_symbol
 _atom_site_label
 _atom_site_symmetry_multiplicity
 _atom_site_fract_x
 _atom_site_fract_y
 _atom_site_fract_z
 _atom_site_occupancy
  Mg  Mg0  1  0.15062800  0.21025100  0.21495800  1
  Mg  Mg1  1  0.02275100  0.95449700  0.25758400  1
  Mg  Mg2  1  0.63912000  0.21025100  0.21495800  1
  Mg  Mg3  1  0.72724900  0.54550300  0.24241600  1
  Mg  Mg4  1  0.11088000  0.28974900  0.28504200  1
  Mg  Mg5  1  0.59937200  0.28974900  0.28504200  1
  Mg  Mg6  1  0.90062800  0.71025100  0.29829100  1
  Mg  Mg7  1  0.77275100  0.45449700  0.34091700  1
  Mg  Mg8  1  0.38912000  0.71025100  0.29829100  1
  Mg  Mg9  1  0.47724900  0.04550300  0.32575000  1
  Mg  Mg10  1  0.86088000  0.78974900  0.36837500  1
  Mg  Mg11  1  0.34937200  0.78974900  0.36837500  1
  Mg  Mg12  1  0.65062800  0.21025100  0.38162500  1
  Mg  Mg13  1  0.52275100  0.95449700  0.42425000  1
  Mg  Mg14  1  0.13912000  0.21025100  0.38162500  1
  Mg  Mg15  1  0.22724900  0.54550300  0.40908300  1
  Mg  Mg16  1  0.61088000  0.28974900  0.45170900  1
  Mg  Mg17  1  0.09937200  0.28974900  0.45170900  1
  Mg  Mg18  1  0.40062800  0.71025100  0.46495800  1
  Mg  Mg19  1  0.27275100  0.45449700  0.50758400  1
  Mg  Mg20  1  0.88912000  0.71025100  0.46495800  1
  Mg  Mg21  1  0.97724900  0.04550300  0.49241600  1
  Mg  Mg22  1  0.36088000  0.78974900  0.53504200  1
  Mg  Mg23  1  0.84937200  0.78974900  0.53504200  1
  Mg  Mg24  1  0.15062800  0.21025100  0.54829100  1
  Mg  Mg25  1  0.02275100  0.95449700  0.59091700  1
  Mg  Mg26  1  0.63912000  0.21025100  0.54829100  1
  Mg  Mg27  1  0.72724900  0.54550300  0.57575000  1
  Mg  Mg28  1  0.11088000  0.28974900  0.61837500  1
  Mg  Mg29  1  0.59937200  0.28974900  0.61837500  1
  Mg  Mg30  1  0.90062800  0.71025100  0.63162500  1
  Mg  Mg31  1  0.77275100  0.45449700  0.67425000  1
  Mg  Mg32  1  0.38912000  0.71025100  0.63162500  1
  Mg  Mg33  1  0.47724900  0.04550300  0.65908300  1
  Mg  Mg34  1  0.86088000  0.78974900  0.70170900  1
  Mg  Mg35  1  0.34937200  0.78974900  0.70170900  1
  Mg  Mg36  1  0.65062800  0.21025100  0.71495800  1
  Mg  Mg37  1  0.52275100  0.95449700  0.75758400  1
  Mg  Mg38  1  0.13912000  0.21025100  0.71495800  1
  Mg  Mg39  1  0.22724900  0.54550300  0.74241600  1
  Mg  Mg40  1  0.61088000  0.28974900  0.78504200  1
  Mg  Mg41  1  0.09937200  0.28974900  0.78504200  1
  Zn  Zn42  1  0.52083300  0.95833300  0.25694400  1
  Zn  Zn43  1  0.22916700  0.54166700  0.24305600  1
  Zn  Zn44  1  0.27083300  0.45833300  0.34027800  1
  Zn  Zn45  1  0.97916700  0.04166700  0.32638900  1
  Zn  Zn46  1  0.02083300  0.95833300  0.42361100  1
  Zn  Zn47  1  0.72916700  0.54166700  0.40972200  1
  Zn  Zn48  1  0.77083300  0.45833300  0.50694400  1
  Zn  Zn49  1  0.47916700  0.04166700  0.49305600  1
  Zn  Zn50  1  0.52083300  0.95833300  0.59027800  1
  Zn  Zn51  1  0.22916700  0.54166700  0.57638900  1
  Zn  Zn52  1  0.27083300  0.45833300  0.67361100  1
  Zn  Zn53  1  0.97916700  0.04166700  0.65972200  1
  Zn  Zn54  1  0.02083300  0.95833300  0.75694400  1
  Zn  Zn55  1  0.72916700  0.54166700  0.74305600  1
