# generated using pymatgen
data_Mg24Ir5
_symmetry_space_group_name_H-M   'P 1'
_cell_length_a   8.24582600
_cell_length_b   9.82944229
_cell_length_c   49.03777500
_cell_angle_alpha   90.00000000
_cell_angle_beta   90.00000000
_cell_angle_gamma   106.23813566
_symmetry_Int_Tables_number   1
_chemical_formula_structural   Mg24Ir5
_chemical_formula_sum   'Mg96 Ir20'
_cell_volume   3816.04764390
_cell_formula_units_Z   4
loop_
 _symmetry_equiv_pos_site_id
 _symmetry_equiv_pos_as_xyz
  1  'x, y, z'
loop_
 _atom_site_type_symbol
 _atom_site_label
 _atom_site_symmetry_multiplicity
 _atom_site_fract_x
 _atom_site_fract_y
 _atom_site_fract_z
 _atom_site_occupancy
  Mg  Mg0  1  0.84473900  0.03421800  0.78125000  1
  Mg  Mg1  1  0.59473900  0.28421800  0.69791700  1
  Mg  Mg2  1  0.34473900  0.53421800  0.78125000  1
  Mg  Mg3  1  0.34473900  0.03421800  0.78125000  1
  Mg  Mg4  1  0.09473900  0.28421800  0.69791700  1
  Mg  Mg5  1  0.84473900  0.53421800  0.78125000  1
  Mg  Mg6  1  0.02846900  0.33540600  0.75916000  1
  Mg  Mg7  1  0.34473900  0.28421800  0.74209700  1
  Mg  Mg8  1  0.66101000  0.23303100  0.75916000  1
  Mg  Mg9  1  0.66101000  0.73303100  0.80334000  1
  Mg  Mg10  1  0.34473900  0.78421800  0.82040300  1
  Mg  Mg11  1  0.02846900  0.83540600  0.80334000  1
  Mg  Mg12  1  0.84473900  0.78421800  0.69791700  1
  Mg  Mg13  1  0.34473900  0.78421800  0.69791700  1
  Mg  Mg14  1  0.26082600  0.04645500  0.67927400  1
  Mg  Mg15  1  0.60174300  0.06920700  0.83019900  1
  Mg  Mg16  1  0.15767200  0.73699400  0.75094400  1
  Mg  Mg17  1  0.53180700  0.83144300  0.75094400  1
  Mg  Mg18  1  0.08773600  0.49923000  0.83019900  1
  Mg  Mg19  1  0.42865300  0.52198200  0.67927400  1
  Mg  Mg20  1  0.92865300  0.52198200  0.71656000  1
  Mg  Mg21  1  0.08773600  0.99923000  0.73230100  1
  Mg  Mg22  1  0.53180700  0.33144300  0.81155600  1
  Mg  Mg23  1  0.15767200  0.23699400  0.81155600  1
  Mg  Mg24  1  0.60174300  0.56920700  0.73230100  1
  Mg  Mg25  1  0.76082600  0.04645500  0.71656000  1
  Mg  Mg26  1  0.34473900  0.53421800  0.61458300  1
  Mg  Mg27  1  0.09473900  0.78421800  0.53125000  1
  Mg  Mg28  1  0.84473900  0.03421800  0.61458300  1
  Mg  Mg29  1  0.84473900  0.53421800  0.61458300  1
  Mg  Mg30  1  0.59473900  0.78421800  0.53125000  1
  Mg  Mg31  1  0.34473900  0.03421800  0.61458300  1
  Mg  Mg32  1  0.52846900  0.83540600  0.59249300  1
  Mg  Mg33  1  0.84473900  0.78421800  0.57543100  1
  Mg  Mg34  1  0.16101000  0.73303100  0.59249300  1
  Mg  Mg35  1  0.16101000  0.23303100  0.63667400  1
  Mg  Mg36  1  0.84473900  0.28421800  0.65373600  1
  Mg  Mg37  1  0.52846900  0.33540600  0.63667400  1
  Mg  Mg38  1  0.34473900  0.28421800  0.53125000  1
  Mg  Mg39  1  0.84473900  0.28421800  0.53125000  1
  Mg  Mg40  1  0.76082600  0.54645500  0.51260700  1
  Mg  Mg41  1  0.10174300  0.56920700  0.66353200  1
  Mg  Mg42  1  0.65767200  0.23699400  0.58427700  1
  Mg  Mg43  1  0.03180700  0.33144300  0.58427700  1
  Mg  Mg44  1  0.58773600  0.99923000  0.66353200  1
  Mg  Mg45  1  0.92865300  0.02198200  0.51260700  1
  Mg  Mg46  1  0.42865300  0.02198200  0.54989300  1
  Mg  Mg47  1  0.58773600  0.49923000  0.56563500  1
  Mg  Mg48  1  0.03180700  0.83144300  0.64488900  1
  Mg  Mg49  1  0.65767200  0.73699400  0.64488900  1
  Mg  Mg50  1  0.10174300  0.06920700  0.56563500  1
  Mg  Mg51  1  0.26082600  0.54645500  0.54989300  1
  Mg  Mg52  1  0.84473900  0.03421800  0.44791700  1
  Mg  Mg53  1  0.59473900  0.28421800  0.36458300  1
  Mg  Mg54  1  0.34473900  0.53421800  0.44791700  1
  Mg  Mg55  1  0.34473900  0.03421800  0.44791700  1
  Mg  Mg56  1  0.09473900  0.28421800  0.36458300  1
  Mg  Mg57  1  0.84473900  0.53421800  0.44791700  1
  Mg  Mg58  1  0.02846900  0.33540600  0.42582600  1
  Mg  Mg59  1  0.34473900  0.28421800  0.40876400  1
  Mg  Mg60  1  0.66101000  0.23303100  0.42582600  1
  Mg  Mg61  1  0.66101000  0.73303100  0.47000700  1
  Mg  Mg62  1  0.34473900  0.78421800  0.48706900  1
  Mg  Mg63  1  0.02846900  0.83540600  0.47000700  1
  Mg  Mg64  1  0.84473900  0.78421800  0.36458300  1
  Mg  Mg65  1  0.34473900  0.78421800  0.36458300  1
  Mg  Mg66  1  0.26082600  0.04645500  0.34594000  1
  Mg  Mg67  1  0.60174300  0.06920700  0.49686500  1
  Mg  Mg68  1  0.15767200  0.73699400  0.41761100  1
  Mg  Mg69  1  0.53180700  0.83144300  0.41761100  1
  Mg  Mg70  1  0.08773600  0.49923000  0.49686500  1
  Mg  Mg71  1  0.42865300  0.52198200  0.34594000  1
  Mg  Mg72  1  0.92865300  0.52198200  0.38322600  1
  Mg  Mg73  1  0.08773600  0.99923000  0.39896800  1
  Mg  Mg74  1  0.53180700  0.33144300  0.47822300  1
  Mg  Mg75  1  0.15767200  0.23699400  0.47822300  1
  Mg  Mg76  1  0.60174300  0.56920700  0.39896800  1
  Mg  Mg77  1  0.76082600  0.04645500  0.38322600  1
  Mg  Mg78  1  0.34473900  0.53421800  0.28125000  1
  Mg  Mg79  1  0.84473900  0.03421800  0.28125000  1
  Mg  Mg80  1  0.84473900  0.53421800  0.28125000  1
  Mg  Mg81  1  0.34473900  0.03421800  0.28125000  1
  Mg  Mg82  1  0.52846900  0.83540600  0.25916000  1
  Mg  Mg83  1  0.84473900  0.78421800  0.24209700  1
  Mg  Mg84  1  0.16101000  0.73303100  0.25916000  1
  Mg  Mg85  1  0.16101000  0.23303100  0.30334000  1
  Mg  Mg86  1  0.84473900  0.28421800  0.32040300  1
  Mg  Mg87  1  0.52846900  0.33540600  0.30334000  1
  Mg  Mg88  1  0.10174300  0.56920700  0.33019900  1
  Mg  Mg89  1  0.65767200  0.23699400  0.25094400  1
  Mg  Mg90  1  0.03180700  0.33144300  0.25094400  1
  Mg  Mg91  1  0.58773600  0.99923000  0.33019900  1
  Mg  Mg92  1  0.58773600  0.49923000  0.23230100  1
  Mg  Mg93  1  0.03180700  0.83144300  0.31155600  1
  Mg  Mg94  1  0.65767200  0.73699400  0.31155600  1
  Mg  Mg95  1  0.10174300  0.06920700  0.23230100  1
  Ir  Ir96  1  0.25841400  0.52524200  0.72669200  1
  Ir  Ir97  1  0.84473900  0.28421800  0.80703300  1
  Ir  Ir98  1  0.43106500  0.04319500  0.72669200  1
  Ir  Ir99  1  0.93106500  0.04319500  0.66914200  1
  Ir  Ir100  1  0.84473900  0.78421800  0.75546700  1
  Ir  Ir101  1  0.75841400  0.52524200  0.66914200  1
  Ir  Ir102  1  0.75841400  0.02524200  0.56002500  1
  Ir  Ir103  1  0.34473900  0.78421800  0.64036600  1
  Ir  Ir104  1  0.93106500  0.54319500  0.56002500  1
  Ir  Ir105  1  0.43106500  0.54319500  0.50247500  1
  Ir  Ir106  1  0.34473900  0.28421800  0.58880000  1
  Ir  Ir107  1  0.25841400  0.02524200  0.50247500  1
  Ir  Ir108  1  0.25841400  0.52524200  0.39335800  1
  Ir  Ir109  1  0.84473900  0.28421800  0.47370000  1
  Ir  Ir110  1  0.43106500  0.04319500  0.39335800  1
  Ir  Ir111  1  0.93106500  0.04319500  0.33580800  1
  Ir  Ir112  1  0.84473900  0.78421800  0.42213400  1
  Ir  Ir113  1  0.75841400  0.52524200  0.33580800  1
  Ir  Ir114  1  0.34473900  0.78421800  0.30703300  1
  Ir  Ir115  1  0.34473900  0.28421800  0.25546700  1
