# generated using pymatgen
data_Mg12Zn19
_symmetry_space_group_name_H-M   'P 1'
_cell_length_a   5.07402229
_cell_length_b   14.70723601
_cell_length_c   50.49845100
_cell_angle_alpha   88.21601723
_cell_angle_beta   89.67566990
_cell_angle_gamma   90.29193359
_symmetry_Int_Tables_number   1
_chemical_formula_structural   Mg12Zn19
_chemical_formula_sum   'Mg24 Zn38'
_cell_volume   3766.49971225
_cell_formula_units_Z   2
loop_
 _symmetry_equiv_pos_site_id
 _symmetry_equiv_pos_as_xyz
  1  'x, y, z'
loop_
 _atom_site_type_symbol
 _atom_site_label
 _atom_site_symmetry_multiplicity
 _atom_site_fract_x
 _atom_site_fract_y
 _atom_site_fract_z
 _atom_site_occupancy
  Mg  Mg0  1  0.52699100  0.15329900  0.49176100  1
  Mg  Mg1  1  0.52550500  0.37294900  0.47642100  1
  Mg  Mg2  1  0.02484700  0.86161500  0.48068900  1
  Mg  Mg3  1  0.02764900  0.66463300  0.48749300  1
  Mg  Mg4  1  0.02494900  0.80055500  0.54684000  1
  Mg  Mg5  1  0.52216200  0.81700800  0.71678200  1
  Mg  Mg6  1  0.53078800  0.31325200  0.58164600  1
  Mg  Mg7  1  0.52834000  0.77767400  0.51312300  1
  Mg  Mg8  1  0.02699100  0.90329900  0.74176100  1
  Mg  Mg9  1  0.02885300  0.62800900  0.59115300  1
  Mg  Mg10  1  0.52461400  0.11621300  0.55445700  1
  Mg  Mg11  1  0.02415600  0.49857400  0.70505900  1
  Mg  Mg12  1  0.02542800  0.99778000  0.57325000  1
  Mg  Mg13  1  0.02550500  0.12294900  0.72642100  1
  Mg  Mg14  1  0.02170800  0.96299600  0.63653600  1
  Mg  Mg15  1  0.52706800  0.27846700  0.64493200  1
  Mg  Mg16  1  0.52484700  0.61161500  0.73068900  1
  Mg  Mg17  1  0.02594500  0.43235200  0.56369200  1
  Mg  Mg18  1  0.52655100  0.84389600  0.65449000  1
  Mg  Mg19  1  0.02788200  0.16003500  0.66372500  1
  Mg  Mg20  1  0.52754600  0.47569300  0.67134200  1
  Mg  Mg21  1  0.52364200  0.64823900  0.62702900  1
  Mg  Mg22  1  0.03033400  0.45924000  0.50139900  1
  Mg  Mg23  1  0.52764900  0.41463300  0.73749300  1
  Zn  Zn24  1  0.52551800  0.95467600  0.47515200  1
  Zn  Zn25  1  0.52697800  0.57157200  0.49303000  1
  Zn  Zn26  1  0.02624800  0.26312400  0.48409100  1
  Zn  Zn27  1  0.02214700  0.13313600  0.52179000  1
  Zn  Zn28  1  0.02551800  0.70467600  0.72515200  1
  Zn  Zn29  1  0.52976100  0.97866900  0.60569400  1
  Zn  Zn30  1  0.77564000  0.30099600  0.69790800  1
  Zn  Zn31  1  0.27140500  0.98100100  0.68945000  1
  Zn  Zn32  1  0.27329600  0.97749500  0.51925100  1
  Zn  Zn33  1  0.27624800  0.13812400  0.60909100  1
  Zn  Zn34  1  0.53034900  0.14311200  0.69639200  1
  Zn  Zn35  1  0.02705400  0.74396000  0.64034900  1
  Zn  Zn36  1  0.77468100  0.29526600  0.52882600  1
  Zn  Zn37  1  0.27283900  0.82136600  0.60137300  1
  Zn  Zn38  1  0.52537300  0.71463100  0.56938800  1
  Zn  Zn39  1  0.02666400  0.21246100  0.56835600  1
  Zn  Zn40  1  0.53175700  0.44770600  0.53188600  1
  Zn  Zn41  1  0.02697800  0.32157200  0.74303000  1
  Zn  Zn42  1  0.52544200  0.53228800  0.57783300  1
  Zn  Zn43  1  0.78540100  0.61054100  0.53701700  1
  Zn  Zn44  1  0.77781500  0.98098200  0.68935500  1
  Zn  Zn45  1  0.27920000  0.29875300  0.69893100  1
  Zn  Zn46  1  0.52583200  0.06378700  0.64982600  1
  Zn  Zn47  1  0.76709500  0.66570700  0.68116500  1
  Zn  Zn48  1  0.28109100  0.29524700  0.52873200  1
  Zn  Zn49  1  0.77624800  0.13812400  0.60909100  1
  Zn  Zn50  1  0.52069800  0.90286800  0.55981000  1
  Zn  Zn51  1  0.77690200  0.82046400  0.60174900  1
  Zn  Zn52  1  0.27200100  0.61302000  0.53635600  1
  Zn  Zn53  1  0.03179800  0.37338000  0.65837200  1
  Zn  Zn54  1  0.28049500  0.66322800  0.68182500  1
  Zn  Zn55  1  0.02073900  0.82854200  0.68629600  1
  Zn  Zn56  1  0.77559400  0.45578400  0.61643300  1
  Zn  Zn57  1  0.77685500  0.97525200  0.52027400  1
  Zn  Zn58  1  0.52624800  0.01312400  0.73409100  1
  Zn  Zn59  1  0.27965700  0.45488200  0.61680900  1
  Zn  Zn60  1  0.02712300  0.56161700  0.64879400  1
  Zn  Zn61  1  0.02273500  0.29757900  0.61248800  1
