# generated using pymatgen
data_Nd13Mg6
_symmetry_space_group_name_H-M   'P 1'
_cell_length_a   5.67409700
_cell_length_b   8.93304483
_cell_length_c   41.30115800
_cell_angle_alpha   89.76705242
_cell_angle_beta   90.00000000
_cell_angle_gamma   90.00000000
_symmetry_Int_Tables_number   1
_chemical_formula_structural   Nd13Mg6
_chemical_formula_sum   'Nd26 Mg12'
_cell_volume   2093.41296024
_cell_formula_units_Z   2
loop_
 _symmetry_equiv_pos_site_id
 _symmetry_equiv_pos_as_xyz
  1  'x, y, z'
loop_
 _atom_site_type_symbol
 _atom_site_label
 _atom_site_symmetry_multiplicity
 _atom_site_fract_x
 _atom_site_fract_y
 _atom_site_fract_z
 _atom_site_occupancy
  Nd  Nd0  1  0.25000000  0.27091700  0.73451000  1
  Nd  Nd1  1  0.75000000  0.93851900  0.75033800  1
  Nd  Nd2  1  0.25000000  0.18000800  0.64360100  1
  Nd  Nd3  1  0.25000000  0.57183800  0.67256100  1
  Nd  Nd4  1  0.75000000  0.84761000  0.65942900  1
  Nd  Nd5  1  0.75000000  0.54668900  0.72137800  1
  Nd  Nd6  1  0.25000000  0.08909900  0.55269200  1
  Nd  Nd7  1  0.25000000  0.48092900  0.58165200  1
  Nd  Nd8  1  0.75000000  0.75670100  0.56852000  1
  Nd  Nd9  1  0.75000000  0.45578000  0.63046900  1
  Nd  Nd10  1  0.25000000  0.99818900  0.46178300  1
  Nd  Nd11  1  0.25000000  0.39002000  0.49074300  1
  Nd  Nd12  1  0.75000000  0.66579200  0.47761100  1
  Nd  Nd13  1  0.75000000  0.36487100  0.53956000  1
  Nd  Nd14  1  0.25000000  0.90728000  0.37087400  1
  Nd  Nd15  1  0.25000000  0.29911100  0.39983400  1
  Nd  Nd16  1  0.75000000  0.57488300  0.38670200  1
  Nd  Nd17  1  0.75000000  0.27396200  0.44865100  1
  Nd  Nd18  1  0.25000000  0.81637100  0.27996500  1
  Nd  Nd19  1  0.25000000  0.20820200  0.30892500  1
  Nd  Nd20  1  0.75000000  0.48397400  0.29579300  1
  Nd  Nd21  1  0.75000000  0.18305300  0.35774200  1
  Nd  Nd22  1  0.25000000  0.72546200  0.18905500  1
  Nd  Nd23  1  0.25000000  0.11729200  0.21801600  1
  Nd  Nd24  1  0.75000000  0.39306500  0.20488400  1
  Nd  Nd25  1  0.75000000  0.09214400  0.26683300  1
  Mg  Mg26  1  0.25000000  0.92481000  0.70337200  1
  Mg  Mg27  1  0.75000000  0.19371700  0.69056700  1
  Mg  Mg28  1  0.25000000  0.83390100  0.61246300  1
  Mg  Mg29  1  0.75000000  0.10280800  0.59965800  1
  Mg  Mg30  1  0.25000000  0.74299100  0.52155400  1
  Mg  Mg31  1  0.75000000  0.01189900  0.50874900  1
  Mg  Mg32  1  0.25000000  0.65208200  0.43064500  1
  Mg  Mg33  1  0.75000000  0.92099000  0.41784000  1
  Mg  Mg34  1  0.25000000  0.56117300  0.33973600  1
  Mg  Mg35  1  0.75000000  0.83008100  0.32693100  1
  Mg  Mg36  1  0.25000000  0.47026400  0.24882700  1
  Mg  Mg37  1  0.75000000  0.73917200  0.23602200  1
