# generated using pymatgen
data_Mg75Ir17
_symmetry_space_group_name_H-M   'P 1'
_cell_length_a   8.24582600
_cell_length_b   16.34592500
_cell_length_c   56.62394600
_cell_angle_alpha   90.00000000
_cell_angle_beta   90.00000000
_cell_angle_gamma   90.00000000
_symmetry_Int_Tables_number   1
_chemical_formula_structural   Mg75Ir17
_chemical_formula_sum   'Mg150 Ir34'
_cell_volume   7632.09555738
_cell_formula_units_Z   2
loop_
 _symmetry_equiv_pos_site_id
 _symmetry_equiv_pos_as_xyz
  1  'x, y, z'
loop_
 _atom_site_type_symbol
 _atom_site_label
 _atom_site_symmetry_multiplicity
 _atom_site_fract_x
 _atom_site_fract_y
 _atom_site_fract_z
 _atom_site_occupancy
  Mg  Mg0  1  0.16666700  0.00787100  0.32291700  1
  Mg  Mg1  1  0.83333300  0.75787100  0.28125000  1
  Mg  Mg2  1  0.16666700  0.25787100  0.44791700  1
  Mg  Mg3  1  0.66666700  0.00787100  0.32291700  1
  Mg  Mg4  1  0.33333300  0.75787100  0.28125000  1
  Mg  Mg5  1  0.66666700  0.25787100  0.44791700  1
  Mg  Mg6  1  0.25000000  0.82414200  0.33144800  1
  Mg  Mg7  1  0.58333300  0.82414200  0.31438500  1
  Mg  Mg8  1  0.91666700  0.87532900  0.32291700  1
  Mg  Mg9  1  0.41666700  0.19160000  0.48105200  1
  Mg  Mg10  1  0.08333300  0.69160000  0.24811500  1
  Mg  Mg11  1  0.75000000  0.14041300  0.48958300  1
  Mg  Mg12  1  0.25000000  0.50787100  0.48958300  1
  Mg  Mg13  1  0.75000000  0.50787100  0.48958300  1
  Mg  Mg14  1  0.57867400  0.84878800  0.24745400  1
  Mg  Mg15  1  0.24534100  0.56380000  0.27921100  1
  Mg  Mg16  1  0.91200700  0.11102400  0.44208500  1
  Mg  Mg17  1  0.25465900  0.06380000  0.44995600  1
  Mg  Mg18  1  0.92132600  0.34878800  0.48171300  1
  Mg  Mg19  1  0.58799300  0.61102400  0.28708100  1
  Mg  Mg20  1  0.08799300  0.66695300  0.31504600  1
  Mg  Mg21  1  0.42132600  0.95194200  0.28328900  1
  Mg  Mg22  1  0.75465900  0.90471700  0.37041500  1
  Mg  Mg23  1  0.41200700  0.95194200  0.36254400  1
  Mg  Mg24  1  0.74534100  0.66695300  0.33078700  1
  Mg  Mg25  1  0.07867400  0.90471700  0.27541900  1
  Mg  Mg26  1  0.50000000  0.00787100  0.48958300  1
  Mg  Mg27  1  0.16666700  0.75787100  0.44791700  1
  Mg  Mg28  1  0.50000000  0.75787100  0.36458300  1
  Mg  Mg29  1  0.00000000  0.00787100  0.48958300  1
  Mg  Mg30  1  0.66666700  0.75787100  0.44791700  1
  Mg  Mg31  1  0.00000000  0.75787100  0.36458300  1
  Mg  Mg32  1  0.58333300  0.32414200  0.24811500  1
  Mg  Mg33  1  0.91666700  0.82414200  0.48105200  1
  Mg  Mg34  1  0.25000000  0.87532900  0.48958300  1
  Mg  Mg35  1  0.75000000  0.69160000  0.39771900  1
  Mg  Mg36  1  0.41666700  0.69160000  0.41478100  1
  Mg  Mg37  1  0.08333300  0.64041300  0.40625000  1
  Mg  Mg38  1  0.58333300  0.00787100  0.40625000  1
  Mg  Mg39  1  0.08333300  0.00787100  0.40625000  1
  Mg  Mg40  1  0.91200700  0.84878800  0.41412100  1
  Mg  Mg41  1  0.57867400  0.56380000  0.44587700  1
  Mg  Mg42  1  0.24534100  0.61102400  0.35875200  1
  Mg  Mg43  1  0.58799300  0.56380000  0.36662300  1
  Mg  Mg44  1  0.25465900  0.84878800  0.39837900  1
  Mg  Mg45  1  0.92132600  0.61102400  0.45374800  1
  Mg  Mg46  1  0.42132600  0.66695300  0.48171300  1
  Mg  Mg47  1  0.75465900  0.95194200  0.44995600  1
  Mg  Mg48  1  0.08799300  0.40471700  0.28708100  1
  Mg  Mg49  1  0.74534100  0.45194200  0.27921100  1
  Mg  Mg50  1  0.07867400  0.16695300  0.24745400  1
  Mg  Mg51  1  0.41200700  0.90471700  0.44208500  1
  Mg  Mg52  1  0.83333300  0.50787100  0.40625000  1
  Mg  Mg53  1  0.50000000  0.25787100  0.36458300  1
  Mg  Mg54  1  0.83333300  0.25787100  0.28125000  1
  Mg  Mg55  1  0.33333300  0.50787100  0.40625000  1
  Mg  Mg56  1  0.00000000  0.25787100  0.36458300  1
  Mg  Mg57  1  0.33333300  0.25787100  0.28125000  1
  Mg  Mg58  1  0.91666700  0.32414200  0.41478100  1
  Mg  Mg59  1  0.25000000  0.32414200  0.39771900  1
  Mg  Mg60  1  0.58333300  0.37532900  0.40625000  1
  Mg  Mg61  1  0.08333300  0.19160000  0.31438500  1
  Mg  Mg62  1  0.75000000  0.19160000  0.33144800  1
  Mg  Mg63  1  0.41666700  0.14041300  0.32291700  1
  Mg  Mg64  1  0.91666700  0.50787100  0.32291700  1
  Mg  Mg65  1  0.41666700  0.50787100  0.32291700  1
  Mg  Mg66  1  0.24534100  0.34878800  0.33078700  1
  Mg  Mg67  1  0.91200700  0.06380000  0.36254400  1
  Mg  Mg68  1  0.57867400  0.11102400  0.27541900  1
  Mg  Mg69  1  0.92132600  0.06380000  0.28328900  1
  Mg  Mg70  1  0.58799300  0.34878800  0.31504600  1
  Mg  Mg71  1  0.25465900  0.11102400  0.37041500  1
  Mg  Mg72  1  0.75465900  0.16695300  0.39837900  1
  Mg  Mg73  1  0.08799300  0.45194200  0.36662300  1
  Mg  Mg74  1  0.42132600  0.40471700  0.45374800  1
  Mg  Mg75  1  0.07867400  0.45194200  0.44587700  1
  Mg  Mg76  1  0.41200700  0.16695300  0.41412100  1
  Mg  Mg77  1  0.74534100  0.40471700  0.35875200  1
  Mg  Mg78  1  0.16666700  0.50787100  0.57291700  1
  Mg  Mg79  1  0.83333300  0.25787100  0.53125000  1
  Mg  Mg80  1  0.16666700  0.75787100  0.69791700  1
  Mg  Mg81  1  0.66666700  0.50787100  0.57291700  1
  Mg  Mg82  1  0.33333300  0.25787100  0.53125000  1
  Mg  Mg83  1  0.66666700  0.75787100  0.69791700  1
  Mg  Mg84  1  0.25000000  0.32414200  0.58144800  1
  Mg  Mg85  1  0.58333300  0.32414200  0.56438500  1
  Mg  Mg86  1  0.91666700  0.37532900  0.57291700  1
  Mg  Mg87  1  0.41666700  0.69160000  0.73105200  1
  Mg  Mg88  1  0.08333300  0.19160000  0.49811500  1
  Mg  Mg89  1  0.57867400  0.34878800  0.49745400  1
  Mg  Mg90  1  0.24534100  0.06380000  0.52921100  1
  Mg  Mg91  1  0.91200700  0.61102400  0.69208500  1
  Mg  Mg92  1  0.25465900  0.56380000  0.69995600  1
  Mg  Mg93  1  0.92132600  0.84878800  0.73171300  1
  Mg  Mg94  1  0.58799300  0.11102400  0.53708100  1
  Mg  Mg95  1  0.08799300  0.16695300  0.56504600  1
  Mg  Mg96  1  0.42132600  0.45194200  0.53328900  1
  Mg  Mg97  1  0.75465900  0.40471700  0.62041500  1
  Mg  Mg98  1  0.41200700  0.45194200  0.61254400  1
  Mg  Mg99  1  0.74534100  0.16695300  0.58078700  1
  Mg  Mg100  1  0.07867400  0.40471700  0.52541900  1
  Mg  Mg101  1  0.16666700  0.25787100  0.69791700  1
  Mg  Mg102  1  0.50000000  0.25787100  0.61458300  1
  Mg  Mg103  1  0.66666700  0.25787100  0.69791700  1
  Mg  Mg104  1  0.00000000  0.25787100  0.61458300  1
  Mg  Mg105  1  0.58333300  0.82414200  0.49811500  1
  Mg  Mg106  1  0.91666700  0.32414200  0.73105200  1
  Mg  Mg107  1  0.75000000  0.19160000  0.64771900  1
  Mg  Mg108  1  0.41666700  0.19160000  0.66478100  1
  Mg  Mg109  1  0.08333300  0.14041300  0.65625000  1
  Mg  Mg110  1  0.58333300  0.50787100  0.65625000  1
  Mg  Mg111  1  0.08333300  0.50787100  0.65625000  1
  Mg  Mg112  1  0.91200700  0.34878800  0.66412100  1
  Mg  Mg113  1  0.57867400  0.06380000  0.69587700  1
  Mg  Mg114  1  0.24534100  0.11102400  0.60875200  1
  Mg  Mg115  1  0.58799300  0.06380000  0.61662300  1
  Mg  Mg116  1  0.25465900  0.34878800  0.64837900  1
  Mg  Mg117  1  0.92132600  0.11102400  0.70374800  1
  Mg  Mg118  1  0.42132600  0.16695300  0.73171300  1
  Mg  Mg119  1  0.75465900  0.45194200  0.69995600  1
  Mg  Mg120  1  0.08799300  0.90471700  0.53708100  1
  Mg  Mg121  1  0.74534100  0.95194200  0.52921100  1
  Mg  Mg122  1  0.07867400  0.66695300  0.49745400  1
  Mg  Mg123  1  0.41200700  0.40471700  0.69208500  1
  Mg  Mg124  1  0.83333300  0.00787100  0.65625000  1
  Mg  Mg125  1  0.50000000  0.75787100  0.61458300  1
  Mg  Mg126  1  0.83333300  0.75787100  0.53125000  1
  Mg  Mg127  1  0.33333300  0.00787100  0.65625000  1
  Mg  Mg128  1  0.00000000  0.75787100  0.61458300  1
  Mg  Mg129  1  0.33333300  0.75787100  0.53125000  1
  Mg  Mg130  1  0.91666700  0.82414200  0.66478100  1
  Mg  Mg131  1  0.25000000  0.82414200  0.64771900  1
  Mg  Mg132  1  0.58333300  0.87532900  0.65625000  1
  Mg  Mg133  1  0.08333300  0.69160000  0.56438500  1
  Mg  Mg134  1  0.75000000  0.69160000  0.58144800  1
  Mg  Mg135  1  0.41666700  0.64041300  0.57291700  1
  Mg  Mg136  1  0.91666700  0.00787100  0.57291700  1
  Mg  Mg137  1  0.41666700  0.00787100  0.57291700  1
  Mg  Mg138  1  0.24534100  0.84878800  0.58078700  1
  Mg  Mg139  1  0.91200700  0.56380000  0.61254400  1
  Mg  Mg140  1  0.57867400  0.61102400  0.52541900  1
  Mg  Mg141  1  0.92132600  0.56380000  0.53328900  1
  Mg  Mg142  1  0.58799300  0.84878800  0.56504600  1
  Mg  Mg143  1  0.25465900  0.61102400  0.62041500  1
  Mg  Mg144  1  0.75465900  0.66695300  0.64837900  1
  Mg  Mg145  1  0.08799300  0.95194200  0.61662300  1
  Mg  Mg146  1  0.42132600  0.90471700  0.70374800  1
  Mg  Mg147  1  0.07867400  0.95194200  0.69587700  1
  Mg  Mg148  1  0.41200700  0.66695300  0.66412100  1
  Mg  Mg149  1  0.74534100  0.90471700  0.60875200  1
  Ir  Ir150  1  0.41666700  0.68052100  0.32291700  1
  Ir  Ir151  1  0.08333300  0.92154500  0.36308700  1
  Ir  Ir152  1  0.75000000  0.92154500  0.28274600  1
  Ir  Ir153  1  0.25000000  0.33522000  0.48958300  1
  Ir  Ir154  1  0.58333300  0.09419600  0.44941300  1
  Ir  Ir155  1  0.91666700  0.59419600  0.27975400  1
  Ir  Ir156  1  0.75000000  0.68052100  0.48958300  1
  Ir  Ir157  1  0.41666700  0.42154500  0.27975400  1
  Ir  Ir158  1  0.08333300  0.92154500  0.44941300  1
  Ir  Ir159  1  0.58333300  0.83522000  0.40625000  1
  Ir  Ir160  1  0.91666700  0.59419600  0.36607900  1
  Ir  Ir161  1  0.25000000  0.59419600  0.44642100  1
  Ir  Ir162  1  0.08333300  0.18052100  0.40625000  1
  Ir  Ir163  1  0.75000000  0.42154500  0.44642100  1
  Ir  Ir164  1  0.41666700  0.42154500  0.36607900  1
  Ir  Ir165  1  0.91666700  0.33522000  0.32291700  1
  Ir  Ir166  1  0.25000000  0.09419600  0.28274600  1
  Ir  Ir167  1  0.58333300  0.09419600  0.36308700  1
  Ir  Ir168  1  0.41666700  0.18052100  0.57291700  1
  Ir  Ir169  1  0.08333300  0.42154500  0.61308700  1
  Ir  Ir170  1  0.75000000  0.42154500  0.53274600  1
  Ir  Ir171  1  0.58333300  0.59419600  0.69941300  1
  Ir  Ir172  1  0.91666700  0.09419600  0.52975400  1
  Ir  Ir173  1  0.41666700  0.92154500  0.52975400  1
  Ir  Ir174  1  0.08333300  0.42154500  0.69941300  1
  Ir  Ir175  1  0.58333300  0.33522000  0.65625000  1
  Ir  Ir176  1  0.91666700  0.09419600  0.61607900  1
  Ir  Ir177  1  0.25000000  0.09419600  0.69642100  1
  Ir  Ir178  1  0.08333300  0.68052100  0.65625000  1
  Ir  Ir179  1  0.75000000  0.92154500  0.69642100  1
  Ir  Ir180  1  0.41666700  0.92154500  0.61607900  1
  Ir  Ir181  1  0.91666700  0.83522000  0.57291700  1
  Ir  Ir182  1  0.25000000  0.59419600  0.53274600  1
  Ir  Ir183  1  0.58333300  0.59419600  0.61308700  1
