# generated using pymatgen
data_MgIr2
_symmetry_space_group_name_H-M   'P 1'
_cell_length_a   5.21013600
_cell_length_b   8.45815400
_cell_length_c   45.12110200
_cell_angle_alpha   90.00000000
_cell_angle_beta   90.00000000
_cell_angle_gamma   90.00000000
_symmetry_Int_Tables_number   1
_chemical_formula_structural   MgIr2
_chemical_formula_sum   'Mg24 Ir48'
_cell_volume   1988.40270820
_cell_formula_units_Z   24
loop_
 _symmetry_equiv_pos_site_id
 _symmetry_equiv_pos_as_xyz
  1  'x, y, z'
loop_
 _atom_site_type_symbol
 _atom_site_label
 _atom_site_symmetry_multiplicity
 _atom_site_fract_x
 _atom_site_fract_y
 _atom_site_fract_z
 _atom_site_occupancy
  Mg  Mg0  1  0.25000000  0.56903800  0.21666700  1
  Mg  Mg1  1  0.25000000  0.06903800  0.28333300  1
  Mg  Mg2  1  0.25000000  0.43096200  0.28333300  1
  Mg  Mg3  1  0.25000000  0.93096200  0.21666700  1
  Mg  Mg4  1  0.75000000  0.56903800  0.31666700  1
  Mg  Mg5  1  0.75000000  0.06903800  0.38333300  1
  Mg  Mg6  1  0.75000000  0.43096200  0.38333300  1
  Mg  Mg7  1  0.75000000  0.93096200  0.31666700  1
  Mg  Mg8  1  0.25000000  0.56903800  0.41666700  1
  Mg  Mg9  1  0.25000000  0.06903800  0.48333300  1
  Mg  Mg10  1  0.25000000  0.43096200  0.48333300  1
  Mg  Mg11  1  0.25000000  0.93096200  0.41666700  1
  Mg  Mg12  1  0.75000000  0.56903800  0.51666700  1
  Mg  Mg13  1  0.75000000  0.06903800  0.58333300  1
  Mg  Mg14  1  0.75000000  0.43096200  0.58333300  1
  Mg  Mg15  1  0.75000000  0.93096200  0.51666700  1
  Mg  Mg16  1  0.25000000  0.56903800  0.61666700  1
  Mg  Mg17  1  0.25000000  0.06903800  0.68333300  1
  Mg  Mg18  1  0.25000000  0.43096200  0.68333300  1
  Mg  Mg19  1  0.25000000  0.93096200  0.61666700  1
  Mg  Mg20  1  0.75000000  0.56903800  0.71666700  1
  Mg  Mg21  1  0.75000000  0.06903800  0.78333300  1
  Mg  Mg22  1  0.75000000  0.43096200  0.78333300  1
  Mg  Mg23  1  0.75000000  0.93096200  0.71666700  1
  Ir  Ir24  1  0.75000000  0.50000000  0.25000000  1
  Ir  Ir25  1  0.75000000  0.00000000  0.25000000  1
  Ir  Ir26  1  0.75000000  0.75000000  0.21564600  1
  Ir  Ir27  1  0.49234900  0.25000000  0.23282300  1
  Ir  Ir28  1  0.00765100  0.25000000  0.23282300  1
  Ir  Ir29  1  0.49234900  0.75000000  0.26717700  1
  Ir  Ir30  1  0.00765100  0.75000000  0.26717700  1
  Ir  Ir31  1  0.75000000  0.25000000  0.28435400  1
  Ir  Ir32  1  0.25000000  0.50000000  0.35000000  1
  Ir  Ir33  1  0.25000000  0.00000000  0.35000000  1
  Ir  Ir34  1  0.25000000  0.75000000  0.31564600  1
  Ir  Ir35  1  0.99234900  0.25000000  0.33282300  1
  Ir  Ir36  1  0.50765100  0.25000000  0.33282300  1
  Ir  Ir37  1  0.99234900  0.75000000  0.36717700  1
  Ir  Ir38  1  0.50765100  0.75000000  0.36717700  1
  Ir  Ir39  1  0.25000000  0.25000000  0.38435400  1
  Ir  Ir40  1  0.75000000  0.50000000  0.45000000  1
  Ir  Ir41  1  0.75000000  0.00000000  0.45000000  1
  Ir  Ir42  1  0.75000000  0.75000000  0.41564600  1
  Ir  Ir43  1  0.49234900  0.25000000  0.43282300  1
  Ir  Ir44  1  0.00765100  0.25000000  0.43282300  1
  Ir  Ir45  1  0.49234900  0.75000000  0.46717700  1
  Ir  Ir46  1  0.00765100  0.75000000  0.46717700  1
  Ir  Ir47  1  0.75000000  0.25000000  0.48435400  1
  Ir  Ir48  1  0.25000000  0.50000000  0.55000000  1
  Ir  Ir49  1  0.25000000  0.00000000  0.55000000  1
  Ir  Ir50  1  0.25000000  0.75000000  0.51564600  1
  Ir  Ir51  1  0.99234900  0.25000000  0.53282300  1
  Ir  Ir52  1  0.50765100  0.25000000  0.53282300  1
  Ir  Ir53  1  0.99234900  0.75000000  0.56717700  1
  Ir  Ir54  1  0.50765100  0.75000000  0.56717700  1
  Ir  Ir55  1  0.25000000  0.25000000  0.58435400  1
  Ir  Ir56  1  0.75000000  0.50000000  0.65000000  1
  Ir  Ir57  1  0.75000000  0.00000000  0.65000000  1
  Ir  Ir58  1  0.75000000  0.75000000  0.61564600  1
  Ir  Ir59  1  0.49234900  0.25000000  0.63282300  1
  Ir  Ir60  1  0.00765100  0.25000000  0.63282300  1
  Ir  Ir61  1  0.49234900  0.75000000  0.66717700  1
  Ir  Ir62  1  0.00765100  0.75000000  0.66717700  1
  Ir  Ir63  1  0.75000000  0.25000000  0.68435400  1
  Ir  Ir64  1  0.25000000  0.50000000  0.75000000  1
  Ir  Ir65  1  0.25000000  0.00000000  0.75000000  1
  Ir  Ir66  1  0.25000000  0.75000000  0.71564600  1
  Ir  Ir67  1  0.99234900  0.25000000  0.73282300  1
  Ir  Ir68  1  0.50765100  0.25000000  0.73282300  1
  Ir  Ir69  1  0.99234900  0.75000000  0.76717700  1
  Ir  Ir70  1  0.50765100  0.75000000  0.76717700  1
  Ir  Ir71  1  0.25000000  0.25000000  0.78435400  1
