# generated using pymatgen
data_Mg26Zn45
_symmetry_space_group_name_H-M   'P 1'
_cell_length_a   5.07402209
_cell_length_b   22.10207791
_cell_length_c   42.67993100
_cell_angle_alpha   98.00895109
_cell_angle_beta   93.24549340
_cell_angle_gamma   83.83945518
_symmetry_Int_Tables_number   1
_chemical_formula_structural   Mg26Zn45
_chemical_formula_sum   'Mg52 Zn90'
_cell_volume   4708.12433190
_cell_formula_units_Z   2
loop_
 _symmetry_equiv_pos_site_id
 _symmetry_equiv_pos_as_xyz
  1  'x, y, z'
loop_
 _atom_site_type_symbol
 _atom_site_label
 _atom_site_symmetry_multiplicity
 _atom_site_fract_x
 _atom_site_fract_y
 _atom_site_fract_z
 _atom_site_occupancy
  Mg  Mg0  1  0.27929200  0.92256400  0.38528600  1
  Mg  Mg1  1  0.05353200  0.35544700  0.34939900  1
  Mg  Mg2  1  0.88967700  0.70262400  0.37376000  1
  Mg  Mg3  1  0.05957700  0.26441300  0.28280200  1
  Mg  Mg4  1  0.83324900  0.74322700  0.30987600  1
  Mg  Mg5  1  0.66939300  0.09040400  0.33423700  1
  Mg  Mg6  1  0.33696100  0.78542200  0.35811400  1
  Mg  Mg7  1  0.50691500  0.44486200  0.35526500  1
  Mg  Mg8  1  0.21601100  0.00098900  0.32837200  1
  Mg  Mg9  1  0.66334900  0.18143800  0.40083400  1
  Mg  Mg10  1  0.44363400  0.52328700  0.29835000  1
  Mg  Mg11  1  0.38596400  0.66042900  0.32552200  1
  Mg  Mg12  1  0.41542700  0.68263600  0.41205300  1
  Mg  Mg13  1  0.07929200  0.52256400  0.58528600  1
  Mg  Mg14  1  0.85353200  0.95544700  0.54939900  1
  Mg  Mg15  1  0.68967700  0.30262400  0.57376000  1
  Mg  Mg16  1  0.79184100  0.94936000  0.42752300  1
  Mg  Mg17  1  0.49815300  0.53479400  0.42185700  1
  Mg  Mg18  1  0.85957700  0.86441300  0.48280200  1
  Mg  Mg19  1  0.63324900  0.34322700  0.50987600  1
  Mg  Mg20  1  0.40287000  0.77456000  0.47790900  1
  Mg  Mg21  1  0.73108400  0.09649100  0.45611300  1
  Mg  Mg22  1  0.46939300  0.69040400  0.53423700  1
  Mg  Mg23  1  0.12005500  0.27129100  0.40572800  1
  Mg  Mg24  1  0.13696100  0.38542200  0.55811400  1
  Mg  Mg25  1  0.30691500  0.04486200  0.55526500  1
  Mg  Mg26  1  0.01601100  0.60098900  0.52837200  1
  Mg  Mg27  1  0.46334900  0.78143800  0.60083400  1
  Mg  Mg28  1  0.10749900  0.36321500  0.47158300  1
  Mg  Mg29  1  0.02477200  0.51105700  0.46177900  1
  Mg  Mg30  1  0.24363400  0.12328700  0.49835000  1
  Mg  Mg31  1  0.18596400  0.26042900  0.52552200  1
  Mg  Mg32  1  0.21542700  0.28263600  0.61205300  1
  Mg  Mg33  1  0.87929200  0.12256400  0.78528600  1
  Mg  Mg34  1  0.65353200  0.55544700  0.74939900  1
  Mg  Mg35  1  0.48967700  0.90262400  0.77376000  1
  Mg  Mg36  1  0.59184100  0.54936000  0.62752300  1
  Mg  Mg37  1  0.29815300  0.13479400  0.62185700  1
  Mg  Mg38  1  0.65957700  0.46441300  0.68280200  1
  Mg  Mg39  1  0.43324900  0.94322700  0.70987600  1
  Mg  Mg40  1  0.20287000  0.37456000  0.67790900  1
  Mg  Mg41  1  0.53108400  0.69649100  0.65611300  1
  Mg  Mg42  1  0.26939300  0.29040400  0.73423700  1
  Mg  Mg43  1  0.92005500  0.87129100  0.60572800  1
  Mg  Mg44  1  0.93696100  0.98542200  0.75811400  1
  Mg  Mg45  1  0.10691500  0.64486200  0.75526500  1
  Mg  Mg46  1  0.81601100  0.20098900  0.72837200  1
  Mg  Mg47  1  0.26334900  0.38143800  0.80083400  1
  Mg  Mg48  1  0.90749900  0.96321500  0.67158300  1
  Mg  Mg49  1  0.82477200  0.11105700  0.66177900  1
  Mg  Mg50  1  0.04363400  0.72328700  0.69835000  1
  Mg  Mg51  1  0.98596400  0.86042900  0.72552200  1
  Zn  Zn52  1  0.81348300  0.84679600  0.37118900  1
  Zn  Zn53  1  0.14346900  0.13065000  0.30653000  1
  Zn  Zn54  1  0.96840300  0.04829300  0.39075200  1
  Zn  Zn55  1  0.86146300  0.22292600  0.34181800  1
  Zn  Zn56  1  0.72236000  0.95516900  0.29424300  1
  Zn  Zn57  1  0.24820300  0.39747500  0.29298200  1
  Zn  Zn58  1  0.55627600  0.30826300  0.31595000  1
  Zn  Zn59  1  0.97785000  0.48587900  0.32653000  1
  Zn  Zn60  1  0.90944200  0.59905500  0.31244700  1
  Zn  Zn61  1  0.00056600  0.49068200  0.38939300  1
  Zn  Zn62  1  0.20405800  0.57845000  0.36422800  1
  Zn  Zn63  1  0.47472300  0.04837600  0.39065400  1
  Zn  Zn64  1  0.16665000  0.13758800  0.36768600  1
  Zn  Zn65  1  0.51886800  0.86740100  0.31940900  1
  Zn  Zn66  1  0.75452200  0.39755800  0.29288400  1
  Zn  Zn67  1  0.36146300  0.22292600  0.34181800  1
  Zn  Zn68  1  0.68950200  0.58059800  0.36406300  1
  Zn  Zn69  1  0.03342300  0.86525400  0.31957300  1
  Zn  Zn70  1  0.74507500  0.95997200  0.35710600  1
  Zn  Zn71  1  0.57945600  0.31520100  0.37710600  1
  Zn  Zn72  1  0.32105800  0.90723400  0.45351900  1
  Zn  Zn73  1  0.61348300  0.44679600  0.57118900  1
  Zn  Zn74  1  0.94346900  0.73065000  0.50653000  1
  Zn  Zn75  1  0.41709800  0.23183200  0.46321000  1
  Zn  Zn76  1  0.76840300  0.64829300  0.59075200  1
  Zn  Zn77  1  0.60079600  0.81638900  0.41985200  1
  Zn  Zn78  1  0.66146300  0.82292600  0.54181800  1
  Zn  Zn79  1  0.20186800  0.13861700  0.43011700  1
  Zn  Zn80  1  0.52236000  0.55516900  0.49424300  1
  Zn  Zn81  1  0.04820300  0.99747500  0.49298200  1
  Zn  Zn82  1  0.71368700  0.64058900  0.47074800  1
  Zn  Zn83  1  0.95558300  0.60853300  0.41741600  1
  Zn  Zn84  1  0.35627600  0.90826300  0.51595000  1
  Zn  Zn85  1  0.77785000  0.08587900  0.52653000  1
  Zn  Zn86  1  0.70944200  0.19905500  0.51244700  1
  Zn  Zn87  1  0.80056600  0.09068200  0.58939300  1
  Zn  Zn88  1  0.00405800  0.17845000  0.56422800  1
  Zn  Zn89  1  0.27472300  0.64837600  0.59065400  1
  Zn  Zn90  1  0.92213000  0.22946200  0.46378400  1
  Zn  Zn91  1  0.96665000  0.73758800  0.56768600  1
  Zn  Zn92  1  0.31886800  0.46740100  0.51940900  1
  Zn  Zn93  1  0.55452200  0.99755800  0.49288400  1
  Zn  Zn94  1  0.16146300  0.82292600  0.54181800  1
  Zn  Zn95  1  0.90368200  0.73105300  0.44548600  1
  Zn  Zn96  1  0.21830600  0.63967200  0.47094400  1
  Zn  Zn97  1  0.48950200  0.18059800  0.56406300  1
  Zn  Zn98  1  0.61924300  0.31479800  0.43815100  1
  Zn  Zn99  1  0.83342300  0.46525400  0.51957300  1
  Zn  Zn100  1  0.54507500  0.55997200  0.55710600  1
  Zn  Zn101  1  0.30461900  0.40617900  0.41269200  1
  Zn  Zn102  1  0.10582800  0.81401900  0.42042700  1
  Zn  Zn103  1  0.26146300  0.02292600  0.44181800  1
  Zn  Zn104  1  0.80923800  0.40526200  0.41288800  1
  Zn  Zn105  1  0.56734200  0.43731800  0.46622000  1
  Zn  Zn106  1  0.37945600  0.91520100  0.57710600  1
  Zn  Zn107  1  0.12105800  0.50723400  0.65351900  1
  Zn  Zn108  1  0.41348300  0.04679600  0.77118900  1
  Zn  Zn109  1  0.74346900  0.33065000  0.70653000  1
  Zn  Zn110  1  0.21709800  0.83183200  0.66321000  1
  Zn  Zn111  1  0.56840300  0.24829300  0.79075200  1
  Zn  Zn112  1  0.40079600  0.41638900  0.61985200  1
  Zn  Zn113  1  0.46146300  0.42292600  0.74181800  1
  Zn  Zn114  1  0.00186800  0.73861700  0.63011700  1
  Zn  Zn115  1  0.32236000  0.15516900  0.69424300  1
  Zn  Zn116  1  0.84820300  0.59747500  0.69298200  1
  Zn  Zn117  1  0.51368700  0.24058900  0.67074800  1
  Zn  Zn118  1  0.75558300  0.20853300  0.61741600  1
  Zn  Zn119  1  0.15627600  0.50826300  0.71595000  1
  Zn  Zn120  1  0.57785000  0.68587900  0.72653000  1
  Zn  Zn121  1  0.50944200  0.79905500  0.71244700  1
  Zn  Zn122  1  0.60056600  0.69068200  0.78939300  1
  Zn  Zn123  1  0.80405800  0.77845000  0.76422800  1
  Zn  Zn124  1  0.07472300  0.24837600  0.79065400  1
  Zn  Zn125  1  0.72213000  0.82946200  0.66378400  1
  Zn  Zn126  1  0.76665000  0.33758800  0.76768600  1
  Zn  Zn127  1  0.11886800  0.06740100  0.71940900  1
  Zn  Zn128  1  0.35452200  0.59755800  0.69288400  1
  Zn  Zn129  1  0.96146300  0.42292600  0.74181800  1
  Zn  Zn130  1  0.70368200  0.33105300  0.64548600  1
  Zn  Zn131  1  0.01830600  0.23967200  0.67094400  1
  Zn  Zn132  1  0.28950200  0.78059800  0.76406300  1
  Zn  Zn133  1  0.41924300  0.91479800  0.63815100  1
  Zn  Zn134  1  0.63342300  0.06525400  0.71957300  1
  Zn  Zn135  1  0.34507500  0.15997200  0.75710600  1
  Zn  Zn136  1  0.10461900  0.00617900  0.61269200  1
  Zn  Zn137  1  0.90582800  0.41401900  0.62042700  1
  Zn  Zn138  1  0.06146300  0.62292600  0.64181800  1
  Zn  Zn139  1  0.60923800  0.00526200  0.61288800  1
  Zn  Zn140  1  0.36734200  0.03731800  0.66622000  1
  Zn  Zn141  1  0.17945600  0.51520100  0.77710600  1
