# generated using pymatgen
data_Pr5Mg64
_symmetry_space_group_name_H-M   'P 1'
_cell_length_a   5.93281600
_cell_length_b   10.30448800
_cell_length_c   51.52243800
_cell_angle_alpha   90.00000000
_cell_angle_beta   90.00000000
_cell_angle_gamma   90.00000000
_symmetry_Int_Tables_number   1
_chemical_formula_structural   Pr5Mg64
_chemical_formula_sum   'Pr5 Mg64'
_cell_volume   3149.80524968
_cell_formula_units_Z   1
loop_
 _symmetry_equiv_pos_site_id
 _symmetry_equiv_pos_as_xyz
  1  'x, y, z'
loop_
 _atom_site_type_symbol
 _atom_site_label
 _atom_site_symmetry_multiplicity
 _atom_site_fract_x
 _atom_site_fract_y
 _atom_site_fract_z
 _atom_site_occupancy
  Pr  Pr0  1  0.00000000  0.00000000  0.36538500  1
  Pr  Pr1  1  0.50000000  0.50000000  0.26538500  1
  Pr  Pr2  1  0.00000000  0.00000000  0.56538500  1
  Pr  Pr3  1  0.50000000  0.50000000  0.46538500  1
  Pr  Pr4  1  0.50000000  0.50000000  0.66538500  1
  Mg  Mg5  1  0.25000000  0.25000000  0.31538500  1
  Mg  Mg6  1  0.25000000  0.25000000  0.21538500  1
  Mg  Mg7  1  0.75000000  0.25000000  0.21538500  1
  Mg  Mg8  1  0.75000000  0.25000000  0.31538500  1
  Mg  Mg9  1  0.50000000  0.50000000  0.39493500  1
  Mg  Mg10  1  0.00000000  0.35224900  0.36538500  1
  Mg  Mg11  1  0.00000000  0.64775100  0.36538500  1
  Mg  Mg12  1  0.50000000  0.50000000  0.33583500  1
  Mg  Mg13  1  0.00000000  0.50000000  0.30800500  1
  Mg  Mg14  1  0.50000000  0.78690000  0.36538500  1
  Mg  Mg15  1  0.50000000  0.21310000  0.36538500  1
  Mg  Mg16  1  0.00000000  0.50000000  0.22276500  1
  Mg  Mg17  1  0.75000000  0.75000000  0.21538500  1
  Mg  Mg18  1  0.75000000  0.75000000  0.31538500  1
  Mg  Mg19  1  0.25000000  0.75000000  0.31538500  1
  Mg  Mg20  1  0.25000000  0.75000000  0.21538500  1
  Mg  Mg21  1  0.00000000  0.00000000  0.29493500  1
  Mg  Mg22  1  0.50000000  0.85224900  0.26538500  1
  Mg  Mg23  1  0.50000000  0.14775100  0.26538500  1
  Mg  Mg24  1  0.00000000  0.00000000  0.23583500  1
  Mg  Mg25  1  0.50000000  0.00000000  0.40800500  1
  Mg  Mg26  1  0.00000000  0.28690000  0.26538500  1
  Mg  Mg27  1  0.00000000  0.71310000  0.26538500  1
  Mg  Mg28  1  0.50000000  0.00000000  0.32276500  1
  Mg  Mg29  1  0.25000000  0.25000000  0.51538500  1
  Mg  Mg30  1  0.25000000  0.25000000  0.41538500  1
  Mg  Mg31  1  0.75000000  0.25000000  0.41538500  1
  Mg  Mg32  1  0.75000000  0.25000000  0.51538500  1
  Mg  Mg33  1  0.50000000  0.50000000  0.59493500  1
  Mg  Mg34  1  0.00000000  0.35224900  0.56538500  1
  Mg  Mg35  1  0.00000000  0.64775100  0.56538500  1
  Mg  Mg36  1  0.50000000  0.50000000  0.53583500  1
  Mg  Mg37  1  0.00000000  0.50000000  0.50800500  1
  Mg  Mg38  1  0.50000000  0.78690000  0.56538500  1
  Mg  Mg39  1  0.50000000  0.21310000  0.56538500  1
  Mg  Mg40  1  0.00000000  0.50000000  0.42276500  1
  Mg  Mg41  1  0.75000000  0.75000000  0.41538500  1
  Mg  Mg42  1  0.75000000  0.75000000  0.51538500  1
  Mg  Mg43  1  0.25000000  0.75000000  0.51538500  1
  Mg  Mg44  1  0.25000000  0.75000000  0.41538500  1
  Mg  Mg45  1  0.00000000  0.00000000  0.49493500  1
  Mg  Mg46  1  0.50000000  0.85224900  0.46538500  1
  Mg  Mg47  1  0.50000000  0.14775100  0.46538500  1
  Mg  Mg48  1  0.00000000  0.00000000  0.43583500  1
  Mg  Mg49  1  0.50000000  0.00000000  0.60800500  1
  Mg  Mg50  1  0.00000000  0.28690000  0.46538500  1
  Mg  Mg51  1  0.00000000  0.71310000  0.46538500  1
  Mg  Mg52  1  0.50000000  0.00000000  0.52276500  1
  Mg  Mg53  1  0.25000000  0.25000000  0.71538500  1
  Mg  Mg54  1  0.25000000  0.25000000  0.61538500  1
  Mg  Mg55  1  0.75000000  0.25000000  0.61538500  1
  Mg  Mg56  1  0.75000000  0.25000000  0.71538500  1
  Mg  Mg57  1  0.00000000  0.50000000  0.70800500  1
  Mg  Mg58  1  0.00000000  0.50000000  0.62276500  1
  Mg  Mg59  1  0.75000000  0.75000000  0.61538500  1
  Mg  Mg60  1  0.75000000  0.75000000  0.71538500  1
  Mg  Mg61  1  0.25000000  0.75000000  0.71538500  1
  Mg  Mg62  1  0.25000000  0.75000000  0.61538500  1
  Mg  Mg63  1  0.00000000  0.00000000  0.69493500  1
  Mg  Mg64  1  0.50000000  0.85224900  0.66538500  1
  Mg  Mg65  1  0.50000000  0.14775100  0.66538500  1
  Mg  Mg66  1  0.00000000  0.00000000  0.63583500  1
  Mg  Mg67  1  0.00000000  0.28690000  0.66538500  1
  Mg  Mg68  1  0.00000000  0.71310000  0.66538500  1
