# generated using pymatgen
data_Ba8Mg67
_symmetry_space_group_name_H-M   'P 1'
_cell_length_a   10.57649000
_cell_length_b   18.93828387
_cell_length_c   48.26522000
_cell_angle_alpha   99.95427710
_cell_angle_beta   90.00000000
_cell_angle_gamma   73.78540565
_symmetry_Int_Tables_number   1
_chemical_formula_structural   Ba8Mg67
_chemical_formula_sum   'Ba24 Mg201'
_cell_volume   9131.33884670
_cell_formula_units_Z   3
loop_
 _symmetry_equiv_pos_site_id
 _symmetry_equiv_pos_as_xyz
  1  'x, y, z'
loop_
 _atom_site_type_symbol
 _atom_site_label
 _atom_site_symmetry_multiplicity
 _atom_site_fract_x
 _atom_site_fract_y
 _atom_site_fract_z
 _atom_site_occupancy
  Ba  Ba0  1  0.52787800  0.07121100  0.19822500  1
  Ba  Ba1  1  0.75252300  0.62192100  0.31054700  1
  Ba  Ba2  1  0.30565600  0.51565600  0.25378000  1
  Ba  Ba3  1  0.19696800  0.73303200  0.19943600  1
  Ba  Ba4  1  0.08343400  0.96010000  0.30933600  1
  Ba  Ba5  1  0.97474600  0.17747700  0.25499200  1
  Ba  Ba6  1  0.86121200  0.40454500  0.36489100  1
  Ba  Ba7  1  0.08585700  0.95525400  0.47721400  1
  Ba  Ba8  1  0.63898900  0.84898900  0.42044700  1
  Ba  Ba9  1  0.53030100  0.06636600  0.36610300  1
  Ba  Ba10  1  0.41676700  0.29343400  0.47600200  1
  Ba  Ba11  1  0.30807900  0.51081000  0.42165800  1
  Ba  Ba12  1  0.19454500  0.73787800  0.53155800  1
  Ba  Ba13  1  0.41919000  0.28858800  0.64388100  1
  Ba  Ba14  1  0.97232300  0.18232300  0.58711400  1
  Ba  Ba15  1  0.86363500  0.39969900  0.53276900  1
  Ba  Ba16  1  0.75010000  0.62676700  0.64266900  1
  Ba  Ba17  1  0.64141200  0.84414300  0.58832500  1
  Ba  Ba18  1  0.52787800  0.07121100  0.69822500  1
  Ba  Ba19  1  0.75252300  0.62192100  0.81054700  1
  Ba  Ba20  1  0.30565600  0.51565600  0.75378000  1
  Ba  Ba21  1  0.19696800  0.73303200  0.69943600  1
  Ba  Ba22  1  0.08343400  0.96010000  0.80933600  1
  Ba  Ba23  1  0.97474600  0.17747700  0.75499200  1
  Mg  Mg24  1  0.88962700  0.05518700  0.19203000  1
  Mg  Mg25  1  0.41290400  0.30116000  0.22502200  1
  Mg  Mg26  1  0.19702700  0.22720800  0.20136800  1
  Mg  Mg27  1  0.60793900  0.91109100  0.23825500  1
  Mg  Mg28  1  0.18215500  0.05518700  0.19203000  1
  Mg  Mg29  1  0.61299700  0.19350100  0.26118700  1
  Mg  Mg30  1  0.57766900  0.46592400  0.30740400  1
  Mg  Mg31  1  0.67246300  0.78204200  0.27051700  1
  Mg  Mg32  1  0.56989500  0.40212200  0.19883000  1
  Mg  Mg33  1  0.14020100  0.34656600  0.25438600  1
  Mg  Mg34  1  0.32046900  0.19350100  0.26118700  1
  Mg  Mg35  1  0.08337500  0.46592400  0.30740400  1
  Mg  Mg36  1  0.86749800  0.39197300  0.28375000  1
  Mg  Mg37  1  0.70273300  0.22720800  0.20136800  1
  Mg  Mg38  1  0.52909000  0.06878800  0.28216400  1
  Mg  Mg39  1  0.15495100  0.40212200  0.19883000  1
  Mg  Mg40  1  0.64020100  0.34656600  0.25438600  1
  Mg  Mg41  1  0.66740400  0.49963100  0.24758500  1
  Mg  Mg42  1  0.19068200  0.74560400  0.28057800  1
  Mg  Mg43  1  0.97480400  0.67165300  0.25692300  1
  Mg  Mg44  1  0.38571600  0.35553500  0.29381000  1
  Mg  Mg45  1  0.95993200  0.49963100  0.24758500  1
  Mg  Mg46  1  0.39077500  0.63794600  0.31674200  1
  Mg  Mg47  1  0.02211300  0.57703500  0.19629300  1
  Mg  Mg48  1  0.45024100  0.22648600  0.32607300  1
  Mg  Mg49  1  0.34767300  0.84656600  0.25438600  1
  Mg  Mg50  1  0.91797900  0.79101100  0.30994200  1
  Mg  Mg51  1  0.09824700  0.63794600  0.31674200  1
  Mg  Mg52  1  0.52782000  0.57703500  0.19629300  1
  Mg  Mg53  1  0.48051100  0.67165300  0.25692300  1
  Mg  Mg54  1  0.93272900  0.84656600  0.25438600  1
  Mg  Mg55  1  0.41797900  0.79101100  0.30994200  1
  Mg  Mg56  1  0.44518200  0.94407600  0.30314100  1
  Mg  Mg57  1  0.75258200  0.11609700  0.31247900  1
  Mg  Mg58  1  0.83016100  0.46664600  0.18269900  1
  Mg  Mg59  1  0.73771000  0.94407600  0.30314100  1
  Mg  Mg60  1  0.83522000  0.74905700  0.20563100  1
  Mg  Mg61  1  0.79989100  0.02148000  0.25184900  1
  Mg  Mg62  1  0.89468500  0.33759700  0.21496100  1
  Mg  Mg63  1  0.12545100  0.29101100  0.30994200  1
  Mg  Mg64  1  0.36242300  0.90212200  0.19883000  1
  Mg  Mg65  1  0.54269100  0.74905700  0.20563100  1
  Mg  Mg66  1  0.30559700  0.02148000  0.25184900  1
  Mg  Mg67  1  0.08972000  0.94752800  0.22819400  1
  Mg  Mg68  1  0.25828900  0.11609700  0.31247900  1
  Mg  Mg69  1  0.75131200  0.62434400  0.22660800  1
  Mg  Mg70  1  0.71050700  0.29101100  0.30994200  1
  Mg  Mg71  1  0.86242300  0.90212200  0.19883000  1
  Mg  Mg72  1  0.22296000  0.38852000  0.35869600  1
  Mg  Mg73  1  0.74623700  0.63449300  0.39168900  1
  Mg  Mg74  1  0.53036000  0.56054100  0.36803400  1
  Mg  Mg75  1  0.94127200  0.24442400  0.40492200  1
  Mg  Mg76  1  0.51548800  0.38852000  0.35869600  1
  Mg  Mg77  1  0.94633100  0.52683500  0.42785300  1
  Mg  Mg78  1  0.91100200  0.79925800  0.47407100  1
  Mg  Mg79  1  0.00579600  0.11537500  0.43718400  1
  Mg  Mg80  1  0.90322800  0.73545500  0.36549700  1
  Mg  Mg81  1  0.47353400  0.67990000  0.42105300  1
  Mg  Mg82  1  0.65380300  0.52683500  0.42785300  1
  Mg  Mg83  1  0.41670800  0.79925800  0.47407100  1
  Mg  Mg84  1  0.20083100  0.72530600  0.45041700  1
  Mg  Mg85  1  0.03606700  0.56054100  0.36803400  1
  Mg  Mg86  1  0.86242300  0.40212200  0.44883000  1
  Mg  Mg87  1  0.48828500  0.73545500  0.36549700  1
  Mg  Mg88  1  0.97353400  0.67990000  0.42105300  1
  Mg  Mg89  1  0.00073800  0.83296500  0.41425200  1
  Mg  Mg90  1  0.52401500  0.07893800  0.44724400  1
  Mg  Mg91  1  0.30813800  0.00498600  0.42359000  1
  Mg  Mg92  1  0.71905000  0.68886800  0.46047700  1
  Mg  Mg93  1  0.29326600  0.83296500  0.41425200  1
  Mg  Mg94  1  0.72410900  0.97127900  0.48340900  1
  Mg  Mg95  1  0.35544600  0.91036900  0.36296000  1
  Mg  Mg96  1  0.78357400  0.55982000  0.49273900  1
  Mg  Mg97  1  0.68100600  0.17990000  0.42105300  1
  Mg  Mg98  1  0.25131200  0.12434400  0.47660800  1
  Mg  Mg99  1  0.43158000  0.97127900  0.48340900  1
  Mg  Mg100  1  0.86115300  0.91036900  0.36296000  1
  Mg  Mg101  1  0.64527500  0.83641700  0.33930500  1
  Mg  Mg102  1  0.81384400  0.00498600  0.42359000  1
  Mg  Mg103  1  0.30686800  0.51323300  0.33771900  1
  Mg  Mg104  1  0.26606200  0.17990000  0.42105300  1
  Mg  Mg105  1  0.75131200  0.12434400  0.47660800  1
  Mg  Mg106  1  0.77851500  0.27740900  0.46980700  1
  Mg  Mg107  1  0.96846000  0.19004900  0.33613300  1
  Mg  Mg108  1  0.08591600  0.44943000  0.47914500  1
  Mg  Mg109  1  0.16349400  0.79997900  0.34936600  1
  Mg  Mg110  1  0.07104400  0.27740900  0.46980700  1
  Mg  Mg111  1  0.16855300  0.08239000  0.37229800  1
  Mg  Mg112  1  0.13322400  0.35481300  0.41851500  1
  Mg  Mg113  1  0.22801900  0.67093100  0.38162800  1
  Mg  Mg114  1  0.45878400  0.62434400  0.47660800  1
  Mg  Mg115  1  0.69575600  0.23545500  0.36549700  1
  Mg  Mg116  1  0.87602500  0.08239000  0.37229800  1
  Mg  Mg117  1  0.63893100  0.35481300  0.41851500  1
  Mg  Mg118  1  0.42305300  0.28086200  0.39486100  1
  Mg  Mg119  1  0.59162200  0.44943000  0.47914500  1
  Mg  Mg120  1  0.08464500  0.95767700  0.39327500  1
  Mg  Mg121  1  0.04384000  0.62434400  0.47660800  1
  Mg  Mg122  1  0.19575600  0.23545500  0.36549700  1
  Mg  Mg123  1  0.55629300  0.72185300  0.52536300  1
  Mg  Mg124  1  0.07957100  0.96782700  0.55835500  1
  Mg  Mg125  1  0.86369300  0.89387500  0.53470100  1
  Mg  Mg126  1  0.27460500  0.57775700  0.57158800  1
  Mg  Mg127  1  0.84882100  0.72185300  0.52536300  1
  Mg  Mg128  1  0.27966400  0.86016800  0.59452000  1
  Mg  Mg129  1  0.24433500  0.13259100  0.64073800  1
  Mg  Mg130  1  0.33913000  0.44870900  0.60385000  1
  Mg  Mg131  1  0.23656200  0.06878800  0.53216400  1
  Mg  Mg132  1  0.80686800  0.01323300  0.58771900  1
  Mg  Mg133  1  0.98713600  0.86016800  0.59452000  1
  Mg  Mg134  1  0.75004200  0.13259100  0.64073800  1
  Mg  Mg135  1  0.53416400  0.05863900  0.61708300  1
  Mg  Mg136  1  0.36940000  0.89387500  0.53470100  1
  Mg  Mg137  1  0.19575600  0.73545500  0.61549700  1
  Mg  Mg138  1  0.82161800  0.06878800  0.53216400  1
  Mg  Mg139  1  0.30686800  0.01323300  0.58771900  1
  Mg  Mg140  1  0.33407100  0.16629800  0.58091800  1
  Mg  Mg141  1  0.85734900  0.41227100  0.61391100  1
  Mg  Mg142  1  0.64147100  0.33831900  0.59025700  1
  Mg  Mg143  1  0.05238300  0.02220200  0.62714400  1
  Mg  Mg144  1  0.62659900  0.16629800  0.58091800  1
  Mg  Mg145  1  0.05744200  0.30461200  0.65007600  1
  Mg  Mg146  1  0.68878000  0.24370200  0.52962600  1
  Mg  Mg147  1  0.11690700  0.89315300  0.65940600  1
  Mg  Mg148  1  0.01433900  0.51323300  0.58771900  1
  Mg  Mg149  1  0.58464500  0.45767700  0.64327500  1
  Mg  Mg150  1  0.76491400  0.30461200  0.65007600  1
  Mg  Mg151  1  0.19448600  0.24370200  0.52962600  1
  Mg  Mg152  1  0.97860900  0.16975000  0.50597200  1
  Mg  Mg153  1  0.14717800  0.33831900  0.59025700  1
  Mg  Mg154  1  0.64020100  0.84656600  0.50438600  1
  Mg  Mg155  1  0.59939600  0.51323300  0.58771900  1
  Mg  Mg156  1  0.08464500  0.45767700  0.64327500  1
  Mg  Mg157  1  0.11184900  0.61074200  0.63647400  1
  Mg  Mg158  1  0.30179300  0.52338200  0.50280000  1
  Mg  Mg159  1  0.41924900  0.78276400  0.64581200  1
  Mg  Mg160  1  0.49682800  0.13331300  0.51603300  1
  Mg  Mg161  1  0.40437700  0.61074200  0.63647400  1
  Mg  Mg162  1  0.50188600  0.41572400  0.53896500  1
  Mg  Mg163  1  0.46655700  0.68814700  0.58518200  1
  Mg  Mg164  1  0.56135200  0.00426400  0.54829500  1
  Mg  Mg165  1  0.79211700  0.95767700  0.64327500  1
  Mg  Mg166  1  0.02909000  0.56878800  0.53216400  1
  Mg  Mg167  1  0.20935800  0.41572400  0.53896500  1
  Mg  Mg168  1  0.97226400  0.68814700  0.58518200  1
  Mg  Mg169  1  0.75638700  0.61419500  0.56152800  1
  Mg  Mg170  1  0.92495500  0.78276400  0.64581200  1
  Mg  Mg171  1  0.41797900  0.29101100  0.55994200  1
  Mg  Mg172  1  0.37717300  0.95767700  0.64327500  1
  Mg  Mg173  1  0.52909000  0.56878800  0.53216400  1
  Mg  Mg174  1  0.88962700  0.05518700  0.69203000  1
  Mg  Mg175  1  0.41290400  0.30116000  0.72502200  1
  Mg  Mg176  1  0.19702700  0.22720800  0.70136800  1
  Mg  Mg177  1  0.60793900  0.91109100  0.73825500  1
  Mg  Mg178  1  0.18215500  0.05518700  0.69203000  1
  Mg  Mg179  1  0.61299700  0.19350100  0.76118700  1
  Mg  Mg180  1  0.57766900  0.46592400  0.80740400  1
  Mg  Mg181  1  0.67246300  0.78204200  0.77051700  1
  Mg  Mg182  1  0.56989500  0.40212200  0.69883000  1
  Mg  Mg183  1  0.14020100  0.34656600  0.75438600  1
  Mg  Mg184  1  0.32046900  0.19350100  0.76118700  1
  Mg  Mg185  1  0.08337500  0.46592400  0.80740400  1
  Mg  Mg186  1  0.86749800  0.39197300  0.78375000  1
  Mg  Mg187  1  0.70273300  0.22720800  0.70136800  1
  Mg  Mg188  1  0.52909000  0.06878800  0.78216400  1
  Mg  Mg189  1  0.15495100  0.40212200  0.69883000  1
  Mg  Mg190  1  0.64020100  0.34656600  0.75438600  1
  Mg  Mg191  1  0.66740400  0.49963100  0.74758500  1
  Mg  Mg192  1  0.19068200  0.74560400  0.78057800  1
  Mg  Mg193  1  0.97480400  0.67165300  0.75692300  1
  Mg  Mg194  1  0.38571600  0.35553500  0.79381000  1
  Mg  Mg195  1  0.95993200  0.49963100  0.74758500  1
  Mg  Mg196  1  0.39077500  0.63794600  0.81674200  1
  Mg  Mg197  1  0.02211300  0.57703500  0.69629300  1
  Mg  Mg198  1  0.45024100  0.22648600  0.82607300  1
  Mg  Mg199  1  0.34767300  0.84656600  0.75438600  1
  Mg  Mg200  1  0.91797900  0.79101100  0.80994200  1
  Mg  Mg201  1  0.09824700  0.63794600  0.81674200  1
  Mg  Mg202  1  0.52782000  0.57703500  0.69629300  1
  Mg  Mg203  1  0.31194200  0.50308400  0.67263900  1
  Mg  Mg204  1  0.48051100  0.67165300  0.75692300  1
  Mg  Mg205  1  0.97353400  0.17990000  0.67105300  1
  Mg  Mg206  1  0.93272900  0.84656600  0.75438600  1
  Mg  Mg207  1  0.41797900  0.79101100  0.80994200  1
  Mg  Mg208  1  0.44518200  0.94407600  0.80314100  1
  Mg  Mg209  1  0.63512600  0.85671500  0.66946600  1
  Mg  Mg210  1  0.75258200  0.11609700  0.81247900  1
  Mg  Mg211  1  0.83016100  0.46664600  0.68269900  1
  Mg  Mg212  1  0.73771000  0.94407600  0.80314100  1
  Mg  Mg213  1  0.83522000  0.74905700  0.70563100  1
  Mg  Mg214  1  0.79989100  0.02148000  0.75184900  1
  Mg  Mg215  1  0.89468500  0.33759700  0.71496100  1
  Mg  Mg216  1  0.12545100  0.29101100  0.80994200  1
  Mg  Mg217  1  0.36242300  0.90212200  0.69883000  1
  Mg  Mg218  1  0.54269100  0.74905700  0.70563100  1
  Mg  Mg219  1  0.30559700  0.02148000  0.75184900  1
  Mg  Mg220  1  0.08972000  0.94752800  0.72819400  1
  Mg  Mg221  1  0.25828900  0.11609700  0.81247900  1
  Mg  Mg222  1  0.75131200  0.62434400  0.72660800  1
  Mg  Mg223  1  0.71050700  0.29101100  0.80994200  1
  Mg  Mg224  1  0.86242300  0.90212200  0.69883000  1
