# generated using pymatgen
data_Mg5Ga2
_symmetry_space_group_name_H-M   'P 1'
_cell_length_a   8.32987939
_cell_length_b   8.32987964
_cell_length_c   45.71159500
_cell_angle_alpha   92.83451803
_cell_angle_beta   92.83451811
_cell_angle_gamma   113.28028594
_symmetry_Int_Tables_number   1
_chemical_formula_structural   Mg5Ga2
_chemical_formula_sum   'Mg60 Ga24'
_cell_volume   2901.74131394
_cell_formula_units_Z   12
loop_
 _symmetry_equiv_pos_site_id
 _symmetry_equiv_pos_as_xyz
  1  'x, y, z'
loop_
 _atom_site_type_symbol
 _atom_site_label
 _atom_site_symmetry_multiplicity
 _atom_site_fract_x
 _atom_site_fract_y
 _atom_site_fract_z
 _atom_site_occupancy
  Mg  Mg0  1  0.91057500  0.07593900  0.71554300  1
  Mg  Mg1  1  0.48942500  0.32406100  0.78445700  1
  Mg  Mg2  1  0.87593900  0.71057500  0.76554300  1
  Mg  Mg3  1  0.52406100  0.68942500  0.73445700  1
  Mg  Mg4  1  0.30000000  0.30000000  0.72500000  1
  Mg  Mg5  1  0.10000000  0.10000000  0.77500000  1
  Mg  Mg6  1  0.06531200  0.53468800  0.72500000  1
  Mg  Mg7  1  0.53468800  0.06531200  0.72500000  1
  Mg  Mg8  1  0.33468800  0.86531200  0.77500000  1
  Mg  Mg9  1  0.86531200  0.33468800  0.77500000  1
  Mg  Mg10  1  0.31057500  0.47593900  0.61554300  1
  Mg  Mg11  1  0.88942500  0.72406100  0.68445700  1
  Mg  Mg12  1  0.27593900  0.11057500  0.66554300  1
  Mg  Mg13  1  0.92406100  0.08942500  0.63445700  1
  Mg  Mg14  1  0.70000000  0.70000000  0.62500000  1
  Mg  Mg15  1  0.50000000  0.50000000  0.67500000  1
  Mg  Mg16  1  0.46531200  0.93468800  0.62500000  1
  Mg  Mg17  1  0.93468800  0.46531200  0.62500000  1
  Mg  Mg18  1  0.73468800  0.26531200  0.67500000  1
  Mg  Mg19  1  0.26531200  0.73468800  0.67500000  1
  Mg  Mg20  1  0.71057500  0.87593900  0.51554300  1
  Mg  Mg21  1  0.28942500  0.12406100  0.58445700  1
  Mg  Mg22  1  0.67593900  0.51057500  0.56554300  1
  Mg  Mg23  1  0.32406100  0.48942500  0.53445700  1
  Mg  Mg24  1  0.10000000  0.10000000  0.52500000  1
  Mg  Mg25  1  0.90000000  0.90000000  0.57500000  1
  Mg  Mg26  1  0.86531200  0.33468800  0.52500000  1
  Mg  Mg27  1  0.33468800  0.86531200  0.52500000  1
  Mg  Mg28  1  0.13468800  0.66531200  0.57500000  1
  Mg  Mg29  1  0.66531200  0.13468800  0.57500000  1
  Mg  Mg30  1  0.11057500  0.27593900  0.41554300  1
  Mg  Mg31  1  0.68942500  0.52406100  0.48445700  1
  Mg  Mg32  1  0.07593900  0.91057500  0.46554300  1
  Mg  Mg33  1  0.72406100  0.88942500  0.43445700  1
  Mg  Mg34  1  0.50000000  0.50000000  0.42500000  1
  Mg  Mg35  1  0.30000000  0.30000000  0.47500000  1
  Mg  Mg36  1  0.26531200  0.73468800  0.42500000  1
  Mg  Mg37  1  0.73468800  0.26531200  0.42500000  1
  Mg  Mg38  1  0.53468800  0.06531200  0.47500000  1
  Mg  Mg39  1  0.06531200  0.53468800  0.47500000  1
  Mg  Mg40  1  0.51057500  0.67593900  0.31554300  1
  Mg  Mg41  1  0.08942500  0.92406100  0.38445700  1
  Mg  Mg42  1  0.47593900  0.31057500  0.36554300  1
  Mg  Mg43  1  0.12406100  0.28942500  0.33445700  1
  Mg  Mg44  1  0.90000000  0.90000000  0.32500000  1
  Mg  Mg45  1  0.70000000  0.70000000  0.37500000  1
  Mg  Mg46  1  0.66531200  0.13468800  0.32500000  1
  Mg  Mg47  1  0.13468800  0.66531200  0.32500000  1
  Mg  Mg48  1  0.93468800  0.46531200  0.37500000  1
  Mg  Mg49  1  0.46531200  0.93468800  0.37500000  1
  Mg  Mg50  1  0.91057500  0.07593900  0.21554300  1
  Mg  Mg51  1  0.48942500  0.32406100  0.28445700  1
  Mg  Mg52  1  0.87593900  0.71057500  0.26554300  1
  Mg  Mg53  1  0.52406100  0.68942500  0.23445700  1
  Mg  Mg54  1  0.30000000  0.30000000  0.22500000  1
  Mg  Mg55  1  0.10000000  0.10000000  0.27500000  1
  Mg  Mg56  1  0.06531200  0.53468800  0.22500000  1
  Mg  Mg57  1  0.53468800  0.06531200  0.22500000  1
  Mg  Mg58  1  0.33468800  0.86531200  0.27500000  1
  Mg  Mg59  1  0.86531200  0.33468800  0.27500000  1
  Ga  Ga60  1  0.23324700  0.47807400  0.77594300  1
  Ga  Ga61  1  0.16675300  0.92192600  0.72405700  1
  Ga  Ga62  1  0.67807400  0.43324700  0.72594300  1
  Ga  Ga63  1  0.72192600  0.96675300  0.77405700  1
  Ga  Ga64  1  0.63324700  0.87807400  0.67594300  1
  Ga  Ga65  1  0.56675300  0.32192600  0.62405700  1
  Ga  Ga66  1  0.07807400  0.83324700  0.62594300  1
  Ga  Ga67  1  0.12192600  0.36675300  0.67405700  1
  Ga  Ga68  1  0.03324700  0.27807400  0.57594300  1
  Ga  Ga69  1  0.96675300  0.72192600  0.52405700  1
  Ga  Ga70  1  0.47807400  0.23324700  0.52594300  1
  Ga  Ga71  1  0.52192600  0.76675300  0.57405700  1
  Ga  Ga72  1  0.43324700  0.67807400  0.47594300  1
  Ga  Ga73  1  0.36675300  0.12192600  0.42405700  1
  Ga  Ga74  1  0.87807400  0.63324700  0.42594300  1
  Ga  Ga75  1  0.92192600  0.16675300  0.47405700  1
  Ga  Ga76  1  0.83324700  0.07807400  0.37594300  1
  Ga  Ga77  1  0.76675300  0.52192600  0.32405700  1
  Ga  Ga78  1  0.27807400  0.03324700  0.32594300  1
  Ga  Ga79  1  0.32192600  0.56675300  0.37405700  1
  Ga  Ga80  1  0.23324700  0.47807400  0.27594300  1
  Ga  Ga81  1  0.16675300  0.92192600  0.22405700  1
  Ga  Ga82  1  0.67807400  0.43324700  0.22594300  1
  Ga  Ga83  1  0.72192600  0.96675300  0.27405700  1
