# generated using pymatgen
data_Mg17B126
_symmetry_space_group_name_H-M   'P 1'
_cell_length_a   7.26364917
_cell_length_b   7.26364924
_cell_length_c   41.50303500
_cell_angle_alpha   90.48958354
_cell_angle_beta   90.48958355
_cell_angle_gamma   67.87756161
_symmetry_Int_Tables_number   1
_chemical_formula_structural   Mg17B126
_chemical_formula_sum   'Mg17 B126'
_cell_volume   2028.41254556
_cell_formula_units_Z   1
loop_
 _symmetry_equiv_pos_site_id
 _symmetry_equiv_pos_as_xyz
  1  'x, y, z'
loop_
 _atom_site_type_symbol
 _atom_site_label
 _atom_site_symmetry_multiplicity
 _atom_site_fract_x
 _atom_site_fract_y
 _atom_site_fract_z
 _atom_site_occupancy
  Mg  Mg0  1  0.30865000  0.80865000  0.71679700  1
  Mg  Mg1  1  0.05865000  0.55865000  0.59179700  1
  Mg  Mg2  1  0.18365000  0.68365000  0.65429700  1
  Mg  Mg3  1  0.50649700  0.23580400  0.62304700  1
  Mg  Mg4  1  0.86080400  0.13149700  0.68554700  1
  Mg  Mg5  1  0.80865000  0.30865000  0.46679700  1
  Mg  Mg6  1  0.93365000  0.43365000  0.52929700  1
  Mg  Mg7  1  0.25649700  0.98580400  0.49804700  1
  Mg  Mg8  1  0.61080400  0.88149700  0.56054700  1
  Mg  Mg9  1  0.55865000  0.05865000  0.34179700  1
  Mg  Mg10  1  0.68365000  0.18365000  0.40429700  1
  Mg  Mg11  1  0.00649700  0.73580400  0.37304700  1
  Mg  Mg12  1  0.36080400  0.63149700  0.43554700  1
  Mg  Mg13  1  0.30865000  0.80865000  0.21679700  1
  Mg  Mg14  1  0.43365000  0.93365000  0.27929700  1
  Mg  Mg15  1  0.75649700  0.48580400  0.24804700  1
  Mg  Mg16  1  0.11080400  0.38149700  0.31054700  1
  B  B17  1  0.38395700  0.47340000  0.73789400  1
  B  B18  1  0.42326900  0.07058600  0.72708400  1
  B  B19  1  0.45763500  0.40886400  0.69603000  1
  B  B20  1  0.55869100  0.23185700  0.72828600  1
  B  B21  1  0.48091200  0.15407800  0.68939600  1
  B  B22  1  0.58801400  0.81853400  0.73436000  1
  B  B23  1  0.64220600  0.73164900  0.69485300  1
  B  B24  1  0.97509500  0.88565200  0.73874100  1
  B  B25  1  0.02928700  0.79876700  0.69923400  1
  B  B26  1  0.13638900  0.46322300  0.74419700  1
  B  B27  1  0.05861000  0.38544400  0.70530800  1
  B  B28  1  0.15966600  0.20843700  0.73756300  1
  B  B29  1  0.19403200  0.54671400  0.70651000  1
  B  B30  1  0.23334400  0.14390000  0.69570000  1
  B  B31  1  0.17376700  0.40428700  0.63673400  1
  B  B32  1  0.13395700  0.22340000  0.61289400  1
  B  B33  1  0.26065200  0.35009500  0.67624100  1
  B  B34  1  0.17326900  0.82058600  0.60208400  1
  B  B35  1  0.20763500  0.15886400  0.57103000  1
  B  B36  1  0.30869100  0.98185700  0.60328600  1
  B  B37  1  0.23091200  0.90407800  0.56439600  1
  B  B38  1  0.44558600  0.79826900  0.66458400  1
  B  B39  1  0.33801400  0.56853400  0.60936000  1
  B  B40  1  0.58343700  0.53466600  0.67506300  1
  B  B41  1  0.39220600  0.48164900  0.56985300  1
  B  B42  1  0.51890000  0.60834400  0.63320000  1
  B  B43  1  0.60685700  0.93369100  0.66578600  1
  B  B44  1  0.52907800  0.85591200  0.62689600  1
  B  B45  1  0.83822300  0.51138900  0.68169700  1
  B  B46  1  0.76044400  0.43361000  0.64280800  1
  B  B47  1  0.84840000  0.75895700  0.67539400  1
  B  B48  1  0.72509500  0.63565200  0.61374100  1
  B  B49  1  0.78386400  0.83263500  0.63353000  1
  B  B50  1  0.77928700  0.54876700  0.57423400  1
  B  B51  1  0.92171400  0.56903200  0.64401000  1
  B  B52  1  0.88638900  0.21322300  0.61919700  1
  B  B53  1  0.80861000  0.13544400  0.58030800  1
  B  B54  1  0.90966600  0.95843700  0.61256300  1
  B  B55  1  0.94403200  0.29671400  0.58151000  1
  B  B56  1  0.10664900  0.01720600  0.63235300  1
  B  B57  1  0.98334400  0.89390000  0.57070000  1
  B  B58  1  0.19353400  0.96301400  0.67186000  1
  B  B59  1  0.92376700  0.15428700  0.51173400  1
  B  B60  1  0.88395700  0.97340000  0.48789400  1
  B  B61  1  0.01065200  0.10009500  0.55124100  1
  B  B62  1  0.92326900  0.57058600  0.47708400  1
  B  B63  1  0.95763500  0.90886400  0.44603000  1
  B  B64  1  0.05869100  0.73185700  0.47828600  1
  B  B65  1  0.98091200  0.65407800  0.43939600  1
  B  B66  1  0.19558600  0.54826900  0.53958400  1
  B  B67  1  0.08801400  0.31853400  0.48436000  1
  B  B68  1  0.33343700  0.28466600  0.55006300  1
  B  B69  1  0.14220600  0.23164900  0.44485300  1
  B  B70  1  0.26890000  0.35834400  0.50820000  1
  B  B71  1  0.35685700  0.68369100  0.54078600  1
  B  B72  1  0.27907800  0.60591200  0.50189600  1
  B  B73  1  0.58822300  0.26138900  0.55669700  1
  B  B74  1  0.51044400  0.18361000  0.51780800  1
  B  B75  1  0.59840000  0.50895700  0.55039400  1
  B  B76  1  0.47509500  0.38565200  0.48874100  1
  B  B77  1  0.53386400  0.58263500  0.50853000  1
  B  B78  1  0.52928700  0.29876700  0.44923400  1
  B  B79  1  0.67171400  0.31903200  0.51901000  1
  B  B80  1  0.63638900  0.96322300  0.49419700  1
  B  B81  1  0.55861000  0.88544400  0.45530800  1
  B  B82  1  0.65966600  0.70843700  0.48756300  1
  B  B83  1  0.69403200  0.04671400  0.45651000  1
  B  B84  1  0.85664900  0.76720600  0.50735300  1
  B  B85  1  0.73334400  0.64390000  0.44570000  1
  B  B86  1  0.94353400  0.71301400  0.54686000  1
  B  B87  1  0.67376700  0.90428700  0.38673400  1
  B  B88  1  0.63395700  0.72340000  0.36289400  1
  B  B89  1  0.76065200  0.85009500  0.42624100  1
  B  B90  1  0.67326900  0.32058600  0.35208400  1
  B  B91  1  0.70763500  0.65886400  0.32103000  1
  B  B92  1  0.80869100  0.48185700  0.35328600  1
  B  B93  1  0.73091200  0.40407800  0.31439600  1
  B  B94  1  0.94558600  0.29826900  0.41458400  1
  B  B95  1  0.83801400  0.06853400  0.35936000  1
  B  B96  1  0.08343700  0.03466600  0.42506300  1
  B  B97  1  0.89220600  0.98164900  0.31985300  1
  B  B98  1  0.01890000  0.10834400  0.38320000  1
  B  B99  1  0.10685700  0.43369100  0.41578600  1
  B  B100  1  0.02907800  0.35591200  0.37689600  1
  B  B101  1  0.33822300  0.01138900  0.43169700  1
  B  B102  1  0.26044400  0.93361000  0.39280800  1
  B  B103  1  0.34840000  0.25895700  0.42539400  1
  B  B104  1  0.22509500  0.13565200  0.36374100  1
  B  B105  1  0.28386400  0.33263500  0.38353000  1
  B  B106  1  0.27928700  0.04876700  0.32423400  1
  B  B107  1  0.42171400  0.06903200  0.39401000  1
  B  B108  1  0.38638900  0.71322300  0.36919700  1
  B  B109  1  0.30861000  0.63544400  0.33030800  1
  B  B110  1  0.40966600  0.45843700  0.36256300  1
  B  B111  1  0.44403200  0.79671400  0.33151000  1
  B  B112  1  0.60664900  0.51720600  0.38235300  1
  B  B113  1  0.48334400  0.39390000  0.32070000  1
  B  B114  1  0.69353400  0.46301400  0.42186000  1
  B  B115  1  0.42376700  0.65428700  0.26173400  1
  B  B116  1  0.38395700  0.47340000  0.23789400  1
  B  B117  1  0.51065200  0.60009500  0.30124100  1
  B  B118  1  0.42326900  0.07058600  0.22708400  1
  B  B119  1  0.45763500  0.40886400  0.19603000  1
  B  B120  1  0.55869100  0.23185700  0.22828600  1
  B  B121  1  0.48091200  0.15407800  0.18939600  1
  B  B122  1  0.69558600  0.04826900  0.28958400  1
  B  B123  1  0.58801400  0.81853400  0.23436000  1
  B  B124  1  0.83343700  0.78466600  0.30006300  1
  B  B125  1  0.64220600  0.73164900  0.19485300  1
  B  B126  1  0.76890000  0.85834400  0.25820000  1
  B  B127  1  0.85685700  0.18369100  0.29078600  1
  B  B128  1  0.77907800  0.10591200  0.25189600  1
  B  B129  1  0.08822300  0.76138900  0.30669700  1
  B  B130  1  0.01044400  0.68361000  0.26780800  1
  B  B131  1  0.09840000  0.00895700  0.30039400  1
  B  B132  1  0.97509500  0.88565200  0.23874100  1
  B  B133  1  0.03386400  0.08263500  0.25853000  1
  B  B134  1  0.02928700  0.79876700  0.19923400  1
  B  B135  1  0.17171400  0.81903200  0.26901000  1
  B  B136  1  0.13638900  0.46322300  0.24419700  1
  B  B137  1  0.05861000  0.38544400  0.20530800  1
  B  B138  1  0.15966600  0.20843700  0.23756300  1
  B  B139  1  0.19403200  0.54671400  0.20651000  1
  B  B140  1  0.35664900  0.26720600  0.25735300  1
  B  B141  1  0.23334400  0.14390000  0.19570000  1
  B  B142  1  0.44353400  0.21301400  0.29686000  1
