# generated using pymatgen
data_Mg91Pd36
_symmetry_space_group_name_H-M   'P 1'
_cell_length_a   8.83883700
_cell_length_b   11.93708038
_cell_length_c   44.35540600
_cell_angle_alpha   87.49946255
_cell_angle_beta   90.00000000
_cell_angle_gamma   68.27044156
_symmetry_Int_Tables_number   1
_chemical_formula_structural   Mg91Pd36
_chemical_formula_sum   'Mg91 Pd36'
_cell_volume   4342.58916709
_cell_formula_units_Z   1
loop_
 _symmetry_equiv_pos_site_id
 _symmetry_equiv_pos_as_xyz
  1  'x, y, z'
loop_
 _atom_site_type_symbol
 _atom_site_label
 _atom_site_symmetry_multiplicity
 _atom_site_fract_x
 _atom_site_fract_y
 _atom_site_fract_z
 _atom_site_occupancy
  Mg  Mg0  1  0.48933100  0.44668800  0.25146400  1
  Mg  Mg1  1  0.17031800  0.65936300  0.19829500  1
  Mg  Mg2  1  0.06398100  0.44668800  0.25146400  1
  Mg  Mg3  1  0.37745900  0.81973200  0.19050000  1
  Mg  Mg4  1  0.69647200  0.60705700  0.24366900  1
  Mg  Mg5  1  0.80280900  0.81973200  0.19050000  1
  Mg  Mg6  1  0.28475600  0.00513800  0.23685200  1
  Mg  Mg7  1  0.60376800  0.79246300  0.29002000  1
  Mg  Mg8  1  0.71010600  0.00513800  0.23685200  1
  Mg  Mg9  1  0.58203400  0.26128200  0.20511300  1
  Mg  Mg10  1  0.01302100  0.97395700  0.27694400  1
  Mg  Mg11  1  0.15668400  0.26128200  0.20511300  1
  Mg  Mg12  1  0.67767300  0.02770200  0.30985900  1
  Mg  Mg13  1  0.39038700  0.21922600  0.26197800  1
  Mg  Mg14  1  0.29462500  0.02770200  0.30985900  1
  Mg  Mg15  1  0.93911700  0.73871800  0.25710500  1
  Mg  Mg16  1  0.22640300  0.54719400  0.30498600  1
  Mg  Mg17  1  0.32216500  0.73871800  0.25710500  1
  Mg  Mg18  1  0.80839500  0.38321000  0.28348200  1
  Mg  Mg19  1  0.93339500  0.13321000  0.22098200  1
  Mg  Mg20  1  0.23933100  0.94668800  0.37646400  1
  Mg  Mg21  1  0.92031800  0.15936300  0.32329500  1
  Mg  Mg22  1  0.81398100  0.94668800  0.37646400  1
  Mg  Mg23  1  0.12745900  0.31973200  0.31550000  1
  Mg  Mg24  1  0.44647200  0.10705700  0.36866900  1
  Mg  Mg25  1  0.55280900  0.31973200  0.31550000  1
  Mg  Mg26  1  0.03475600  0.50513800  0.36185200  1
  Mg  Mg27  1  0.35376800  0.29246300  0.41502000  1
  Mg  Mg28  1  0.46010600  0.50513800  0.36185200  1
  Mg  Mg29  1  0.33203400  0.76128200  0.33011300  1
  Mg  Mg30  1  0.76302100  0.47395700  0.40194400  1
  Mg  Mg31  1  0.90668400  0.76128200  0.33011300  1
  Mg  Mg32  1  0.42767300  0.52770200  0.43485900  1
  Mg  Mg33  1  0.14038700  0.71922600  0.38697800  1
  Mg  Mg34  1  0.04462500  0.52770200  0.43485900  1
  Mg  Mg35  1  0.68911700  0.23871800  0.38210500  1
  Mg  Mg36  1  0.97640300  0.04719400  0.42998600  1
  Mg  Mg37  1  0.07216500  0.23871800  0.38210500  1
  Mg  Mg38  1  0.55839500  0.88321000  0.40848200  1
  Mg  Mg39  1  0.68339500  0.63321000  0.34598200  1
  Mg  Mg40  1  0.98933100  0.44668800  0.50146400  1
  Mg  Mg41  1  0.67031800  0.65936300  0.44829500  1
  Mg  Mg42  1  0.56398100  0.44668800  0.50146400  1
  Mg  Mg43  1  0.87745900  0.81973200  0.44050000  1
  Mg  Mg44  1  0.19647200  0.60705700  0.49366900  1
  Mg  Mg45  1  0.30280900  0.81973200  0.44050000  1
  Mg  Mg46  1  0.78475600  0.00513800  0.48685200  1
  Mg  Mg47  1  0.10376800  0.79246300  0.54002000  1
  Mg  Mg48  1  0.21010600  0.00513800  0.48685200  1
  Mg  Mg49  1  0.08203400  0.26128200  0.45511300  1
  Mg  Mg50  1  0.51302100  0.97395700  0.52694400  1
  Mg  Mg51  1  0.65668400  0.26128200  0.45511300  1
  Mg  Mg52  1  0.17767300  0.02770200  0.55985900  1
  Mg  Mg53  1  0.89038700  0.21922600  0.51197800  1
  Mg  Mg54  1  0.79462500  0.02770200  0.55985900  1
  Mg  Mg55  1  0.43911700  0.73871800  0.50710500  1
  Mg  Mg56  1  0.72640300  0.54719400  0.55498600  1
  Mg  Mg57  1  0.82216500  0.73871800  0.50710500  1
  Mg  Mg58  1  0.30839500  0.38321000  0.53348200  1
  Mg  Mg59  1  0.43339500  0.13321000  0.47098200  1
  Mg  Mg60  1  0.73933100  0.94668800  0.62646400  1
  Mg  Mg61  1  0.42031800  0.15936300  0.57329500  1
  Mg  Mg62  1  0.31398100  0.94668800  0.62646400  1
  Mg  Mg63  1  0.62745900  0.31973200  0.56550000  1
  Mg  Mg64  1  0.94647200  0.10705700  0.61866900  1
  Mg  Mg65  1  0.05280900  0.31973200  0.56550000  1
  Mg  Mg66  1  0.53475600  0.50513800  0.61185200  1
  Mg  Mg67  1  0.85376800  0.29246300  0.66502000  1
  Mg  Mg68  1  0.96010600  0.50513800  0.61185200  1
  Mg  Mg69  1  0.83203400  0.76128200  0.58011300  1
  Mg  Mg70  1  0.26302100  0.47395700  0.65194400  1
  Mg  Mg71  1  0.40668400  0.76128200  0.58011300  1
  Mg  Mg72  1  0.92767300  0.52770200  0.68485900  1
  Mg  Mg73  1  0.64038700  0.71922600  0.63697800  1
  Mg  Mg74  1  0.54462500  0.52770200  0.68485900  1
  Mg  Mg75  1  0.18911700  0.23871800  0.63210500  1
  Mg  Mg76  1  0.47640300  0.04719400  0.67998600  1
  Mg  Mg77  1  0.57216500  0.23871800  0.63210500  1
  Mg  Mg78  1  0.05839500  0.88321000  0.65848200  1
  Mg  Mg79  1  0.18339500  0.63321000  0.59598200  1
  Mg  Mg80  1  0.48933100  0.44668800  0.75146400  1
  Mg  Mg81  1  0.17031800  0.65936300  0.69829500  1
  Mg  Mg82  1  0.06398100  0.44668800  0.75146400  1
  Mg  Mg83  1  0.37745900  0.81973200  0.69050000  1
  Mg  Mg84  1  0.69647200  0.60705700  0.74366900  1
  Mg  Mg85  1  0.80280900  0.81973200  0.69050000  1
  Mg  Mg86  1  0.28475600  0.00513800  0.73685200  1
  Mg  Mg87  1  0.71010600  0.00513800  0.73685200  1
  Mg  Mg88  1  0.58203400  0.26128200  0.70511300  1
  Mg  Mg89  1  0.15668400  0.26128200  0.70511300  1
  Mg  Mg90  1  0.93339500  0.13321000  0.72098200  1
  Pd  Pd91  1  0.08890400  0.19592200  0.26780400  1
  Pd  Pd92  1  0.80860700  0.38278700  0.22108800  1
  Pd  Pd93  1  0.71517400  0.19592200  0.26780400  1
  Pd  Pd94  1  0.52788600  0.57049800  0.29916000  1
  Pd  Pd95  1  0.05818300  0.88363300  0.22087600  1
  Pd  Pd96  1  0.90161600  0.57049800  0.29916000  1
  Pd  Pd97  1  0.28756200  0.42487700  0.21056500  1
  Pd  Pd98  1  0.57922800  0.84154300  0.23139900  1
  Pd  Pd99  1  0.83890400  0.69592200  0.39280400  1
  Pd  Pd100  1  0.55860700  0.88278700  0.34608800  1
  Pd  Pd101  1  0.46517400  0.69592200  0.39280400  1
  Pd  Pd102  1  0.27788600  0.07049800  0.42416000  1
  Pd  Pd103  1  0.80818300  0.38363300  0.34587600  1
  Pd  Pd104  1  0.65161600  0.07049800  0.42416000  1
  Pd  Pd105  1  0.03756200  0.92487700  0.33556500  1
  Pd  Pd106  1  0.32922800  0.34154300  0.35639900  1
  Pd  Pd107  1  0.58890400  0.19592200  0.51780400  1
  Pd  Pd108  1  0.30860700  0.38278700  0.47108800  1
  Pd  Pd109  1  0.21517400  0.19592200  0.51780400  1
  Pd  Pd110  1  0.02788600  0.57049800  0.54916000  1
  Pd  Pd111  1  0.55818300  0.88363300  0.47087600  1
  Pd  Pd112  1  0.40161600  0.57049800  0.54916000  1
  Pd  Pd113  1  0.78756200  0.42487700  0.46056500  1
  Pd  Pd114  1  0.07922800  0.84154300  0.48139900  1
  Pd  Pd115  1  0.33890400  0.69592200  0.64280400  1
  Pd  Pd116  1  0.05860700  0.88278700  0.59608800  1
  Pd  Pd117  1  0.96517400  0.69592200  0.64280400  1
  Pd  Pd118  1  0.77788600  0.07049800  0.67416000  1
  Pd  Pd119  1  0.30818300  0.38363300  0.59587600  1
  Pd  Pd120  1  0.15161600  0.07049800  0.67416000  1
  Pd  Pd121  1  0.53756200  0.92487700  0.58556500  1
  Pd  Pd122  1  0.82922800  0.34154300  0.60639900  1
  Pd  Pd123  1  0.80860700  0.38278700  0.72108800  1
  Pd  Pd124  1  0.05818300  0.88363300  0.72087600  1
  Pd  Pd125  1  0.28756200  0.42487700  0.71056500  1
  Pd  Pd126  1  0.57922800  0.84154300  0.73139900  1
