# generated using pymatgen
data_Ce12Mg121
_symmetry_space_group_name_H-M   'P 1'
_cell_length_a   10.33012900
_cell_length_b   14.43775486
_cell_length_c   46.86335100
_cell_angle_alpha   91.26380978
_cell_angle_beta   90.00000000
_cell_angle_gamma   69.03810193
_symmetry_Int_Tables_number   1
_chemical_formula_structural   Ce12Mg121
_chemical_formula_sum   'Ce12 Mg121'
_cell_volume   6524.99326643
_cell_formula_units_Z   1
loop_
 _symmetry_equiv_pos_site_id
 _symmetry_equiv_pos_as_xyz
  1  'x, y, z'
loop_
 _atom_site_type_symbol
 _atom_site_label
 _atom_site_symmetry_multiplicity
 _atom_site_fract_x
 _atom_site_fract_y
 _atom_site_fract_z
 _atom_site_occupancy
  Ce  Ce0  1  0.86393200  0.27213600  0.28571400  1
  Ce  Ce1  1  0.72107500  0.55785000  0.35714300  1
  Ce  Ce2  1  0.43536100  0.12927900  0.33333300  1
  Ce  Ce3  1  0.14964600  0.70070700  0.30952400  1
  Ce  Ce4  1  0.57821800  0.84356400  0.42857100  1
  Ce  Ce5  1  0.43536100  0.12927900  0.50000000  1
  Ce  Ce6  1  0.14964600  0.70070700  0.47619000  1
  Ce  Ce7  1  0.86393200  0.27213600  0.45238100  1
  Ce  Ce8  1  0.29250400  0.41499300  0.57142900  1
  Ce  Ce9  1  0.14964600  0.70070700  0.64285700  1
  Ce  Ce10  1  0.86393200  0.27213600  0.61904800  1
  Ce  Ce11  1  0.57821800  0.84356400  0.59523800  1
  Mg  Mg12  1  0.29250400  0.41499300  0.32142900  1
  Mg  Mg13  1  0.93536100  0.62927900  0.25000000  1
  Mg  Mg14  1  0.07676300  0.33313300  0.34151900  1
  Mg  Mg15  1  0.72062400  0.07209300  0.27625900  1
  Mg  Mg16  1  0.14157200  0.71685600  0.22800400  1
  Mg  Mg17  1  0.79112100  0.71267400  0.30553500  1
  Mg  Mg18  1  0.53470000  0.93059900  0.28366400  1
  Mg  Mg19  1  0.24898600  0.50202800  0.25985400  1
  Mg  Mg20  1  0.15009800  0.18646400  0.22374100  1
  Mg  Mg21  1  0.87988000  0.84581300  0.26115500  1
  Mg  Mg22  1  0.08880300  0.11731100  0.33732200  1
  Mg  Mg23  1  0.20728300  0.07209300  0.27625900  1
  Mg  Mg24  1  0.20149600  0.28635100  0.28097600  1
  Mg  Mg25  1  0.49620400  0.71267400  0.30553500  1
  Mg  Mg26  1  0.59010400  0.33313300  0.34151900  1
  Mg  Mg27  1  0.72914900  0.54170100  0.27199600  1
  Mg  Mg28  1  0.01105200  0.97789600  0.29326400  1
  Mg  Mg29  1  0.57395500  0.85209000  0.34959300  1
  Mg  Mg30  1  0.62173500  0.75652900  0.24014600  1
  Mg  Mg31  1  0.99490300  0.49685300  0.30133900  1
  Mg  Mg32  1  0.29250400  0.91499300  0.32142900  1
  Mg  Mg33  1  0.51215300  0.28635100  0.28097600  1
  Mg  Mg34  1  0.79388600  0.11731100  0.33732200  1
  Mg  Mg35  1  0.05030700  0.89938600  0.35919400  1
  Mg  Mg36  1  0.50824400  0.49685300  0.30133900  1
  Mg  Mg37  1  0.59641500  0.41274400  0.23884500  1
  Mg  Mg38  1  0.35856900  0.97220600  0.21902400  1
  Mg  Mg39  1  0.66343800  0.18646400  0.22374100  1
  Mg  Mg40  1  0.99084100  0.41274400  0.23884500  1
  Mg  Mg41  1  0.79250400  0.91499300  0.32142900  1
  Mg  Mg42  1  0.27430700  0.84581300  0.26115500  1
  Mg  Mg43  1  0.66922500  0.97220600  0.21902400  1
  Mg  Mg44  1  0.43536100  0.62927900  0.25000000  1
  Mg  Mg45  1  0.43536100  0.12927900  0.25000000  1
  Mg  Mg46  1  0.00678900  0.98642100  0.46428600  1
  Mg  Mg47  1  0.64964600  0.20070700  0.39285700  1
  Mg  Mg48  1  0.79104900  0.90456200  0.48437600  1
  Mg  Mg49  1  0.43491000  0.64352100  0.41911600  1
  Mg  Mg50  1  0.85585800  0.28828400  0.37086100  1
  Mg  Mg51  1  0.50540700  0.28410300  0.44839200  1
  Mg  Mg52  1  0.24898600  0.50202800  0.42652100  1
  Mg  Mg53  1  0.96327200  0.07345600  0.40271100  1
  Mg  Mg54  1  0.86438300  0.75789300  0.36659900  1
  Mg  Mg55  1  0.59416600  0.41724100  0.40401200  1
  Mg  Mg56  1  0.80308800  0.68874000  0.48018000  1
  Mg  Mg57  1  0.92156900  0.64352100  0.41911600  1
  Mg  Mg58  1  0.91578200  0.85778000  0.42383300  1
  Mg  Mg59  1  0.21049000  0.28410300  0.44839200  1
  Mg  Mg60  1  0.30438900  0.90456200  0.48437600  1
  Mg  Mg61  1  0.44343500  0.11313000  0.41485300  1
  Mg  Mg62  1  0.72533800  0.54932500  0.43612100  1
  Mg  Mg63  1  0.28824100  0.42351800  0.49245000  1
  Mg  Mg64  1  0.33602100  0.32795800  0.38300300  1
  Mg  Mg65  1  0.70918900  0.06828100  0.44419600  1
  Mg  Mg66  1  0.00678900  0.48642100  0.46428600  1
  Mg  Mg67  1  0.22643800  0.85778000  0.42383300  1
  Mg  Mg68  1  0.50817100  0.68874000  0.48018000  1
  Mg  Mg69  1  0.76459300  0.47081500  0.50205100  1
  Mg  Mg70  1  0.22253000  0.06828100  0.44419600  1
  Mg  Mg71  1  0.31070000  0.98417300  0.38170200  1
  Mg  Mg72  1  0.07285400  0.54363400  0.36188100  1
  Mg  Mg73  1  0.37772400  0.75789300  0.36659900  1
  Mg  Mg74  1  0.70512700  0.98417300  0.38170200  1
  Mg  Mg75  1  0.50678900  0.48642100  0.46428600  1
  Mg  Mg76  1  0.98859200  0.41724100  0.40401200  1
  Mg  Mg77  1  0.38351100  0.54363400  0.36188100  1
  Mg  Mg78  1  0.14964600  0.20070700  0.39285700  1
  Mg  Mg79  1  0.14964600  0.70070700  0.39285700  1
  Mg  Mg80  1  0.72107500  0.55785000  0.60714300  1
  Mg  Mg81  1  0.36393200  0.77213600  0.53571400  1
  Mg  Mg82  1  0.50533500  0.47599000  0.62723300  1
  Mg  Mg83  1  0.14919500  0.21495000  0.56197300  1
  Mg  Mg84  1  0.57014400  0.85971300  0.51371800  1
  Mg  Mg85  1  0.21969300  0.85553100  0.59124900  1
  Mg  Mg86  1  0.96327200  0.07345600  0.56937800  1
  Mg  Mg87  1  0.67755700  0.64488500  0.54556800  1
  Mg  Mg88  1  0.57866900  0.32932100  0.50945600  1
  Mg  Mg89  1  0.30845200  0.98867000  0.54687000  1
  Mg  Mg90  1  0.51737400  0.26016900  0.62303700  1
  Mg  Mg91  1  0.63585500  0.21495000  0.56197300  1
  Mg  Mg92  1  0.63006700  0.42920800  0.56669000  1
  Mg  Mg93  1  0.92477600  0.85553100  0.59124900  1
  Mg  Mg94  1  0.01867500  0.47599000  0.62723300  1
  Mg  Mg95  1  0.15772100  0.68455900  0.55771000  1
  Mg  Mg96  1  0.43962300  0.12075300  0.57897900  1
  Mg  Mg97  1  0.00252700  0.99494700  0.63530700  1
  Mg  Mg98  1  0.05030700  0.89938600  0.52586000  1
  Mg  Mg99  1  0.42347500  0.63971000  0.58705300  1
  Mg  Mg100  1  0.72107500  0.05785000  0.60714300  1
  Mg  Mg101  1  0.94072400  0.42920800  0.56669000  1
  Mg  Mg102  1  0.22245700  0.26016900  0.62303700  1
  Mg  Mg103  1  0.47887800  0.04224300  0.64490800  1
  Mg  Mg104  1  0.93681500  0.63971000  0.58705300  1
  Mg  Mg105  1  0.02498600  0.55560100  0.52455900  1
  Mg  Mg106  1  0.78714000  0.11506300  0.50473900  1
  Mg  Mg107  1  0.09201000  0.32932100  0.50945600  1
  Mg  Mg108  1  0.41941200  0.55560100  0.52455900  1
  Mg  Mg109  1  0.22107500  0.05785000  0.60714300  1
  Mg  Mg110  1  0.70287800  0.98867000  0.54687000  1
  Mg  Mg111  1  0.09779700  0.11506300  0.50473900  1
  Mg  Mg112  1  0.86393200  0.77213600  0.53571400  1
  Mg  Mg113  1  0.86393200  0.27213600  0.53571400  1
  Mg  Mg114  1  0.07821800  0.34356400  0.67857100  1
  Mg  Mg115  1  0.86348100  0.78637900  0.70483000  1
  Mg  Mg116  1  0.28442900  0.43114100  0.65657600  1
  Mg  Mg117  1  0.39184300  0.21631400  0.68842500  1
  Mg  Mg118  1  0.29295500  0.90075000  0.65231300  1
  Mg  Mg119  1  0.02273800  0.56009900  0.68972700  1
  Mg  Mg120  1  0.35014100  0.78637900  0.70483000  1
  Mg  Mg121  1  0.34435300  0.00063700  0.70954700  1
  Mg  Mg122  1  0.87200600  0.25598700  0.70056700  1
  Mg  Mg123  1  0.76459300  0.47081500  0.66871700  1
  Mg  Mg124  1  0.65501000  0.00063700  0.70954700  1
  Mg  Mg125  1  0.73927200  0.12703000  0.66741600  1
  Mg  Mg126  1  0.50142600  0.68649200  0.64759600  1
  Mg  Mg127  1  0.80629500  0.90075000  0.65231300  1
  Mg  Mg128  1  0.13369800  0.12703000  0.66741600  1
  Mg  Mg129  1  0.41716400  0.56009900  0.68972700  1
  Mg  Mg130  1  0.81208300  0.68649200  0.64759600  1
  Mg  Mg131  1  0.57821800  0.34356400  0.67857100  1
  Mg  Mg132  1  0.57821800  0.84356400  0.67857100  1
