# generated using pymatgen
data_Mg24Sc11
_symmetry_space_group_name_H-M   'P 1'
_cell_length_a   3.25178700
_cell_length_b   17.39149928
_cell_length_c   49.72144200
_cell_angle_alpha   92.07066956
_cell_angle_beta   90.00000000
_cell_angle_gamma   90.00000000
_symmetry_Int_Tables_number   1
_chemical_formula_structural   Mg24Sc11
_chemical_formula_sum   'Mg48 Sc22'
_cell_volume   2810.08302364
_cell_formula_units_Z   2
loop_
 _symmetry_equiv_pos_site_id
 _symmetry_equiv_pos_as_xyz
  1  'x, y, z'
loop_
 _atom_site_type_symbol
 _atom_site_label
 _atom_site_symmetry_multiplicity
 _atom_site_fract_x
 _atom_site_fract_y
 _atom_site_fract_z
 _atom_site_occupancy
  Mg  Mg0  1  0.00000000  0.95945600  0.26931900  1
  Mg  Mg1  1  0.50000000  0.80946000  0.28598500  1
  Mg  Mg2  1  0.50000000  0.65719700  0.24734800  1
  Mg  Mg3  1  0.00000000  0.80719300  0.23068100  1
  Mg  Mg4  1  0.50000000  0.40945600  0.21931900  1
  Mg  Mg5  1  0.00000000  0.25946000  0.23598500  1
  Mg  Mg6  1  0.00000000  0.20719700  0.29734800  1
  Mg  Mg7  1  0.50000000  0.35719300  0.28068100  1
  Mg  Mg8  1  0.00000000  0.05945600  0.36931900  1
  Mg  Mg9  1  0.50000000  0.90946000  0.38598500  1
  Mg  Mg10  1  0.50000000  0.75719700  0.34734800  1
  Mg  Mg11  1  0.00000000  0.90719300  0.33068100  1
  Mg  Mg12  1  0.50000000  0.50945600  0.31931900  1
  Mg  Mg13  1  0.00000000  0.35946000  0.33598500  1
  Mg  Mg14  1  0.00000000  0.30719700  0.39734800  1
  Mg  Mg15  1  0.50000000  0.45719300  0.38068100  1
  Mg  Mg16  1  0.00000000  0.15945600  0.46931900  1
  Mg  Mg17  1  0.50000000  0.00946000  0.48598500  1
  Mg  Mg18  1  0.50000000  0.85719700  0.44734800  1
  Mg  Mg19  1  0.00000000  0.00719300  0.43068100  1
  Mg  Mg20  1  0.50000000  0.60945600  0.41931900  1
  Mg  Mg21  1  0.00000000  0.45946000  0.43598500  1
  Mg  Mg22  1  0.00000000  0.40719700  0.49734800  1
  Mg  Mg23  1  0.50000000  0.55719300  0.48068100  1
  Mg  Mg24  1  0.00000000  0.25945600  0.56931900  1
  Mg  Mg25  1  0.50000000  0.10946000  0.58598500  1
  Mg  Mg26  1  0.50000000  0.95719700  0.54734800  1
  Mg  Mg27  1  0.00000000  0.10719300  0.53068100  1
  Mg  Mg28  1  0.50000000  0.70945600  0.51931900  1
  Mg  Mg29  1  0.00000000  0.55946000  0.53598500  1
  Mg  Mg30  1  0.00000000  0.50719700  0.59734800  1
  Mg  Mg31  1  0.50000000  0.65719300  0.58068100  1
  Mg  Mg32  1  0.00000000  0.35945600  0.66931900  1
  Mg  Mg33  1  0.50000000  0.20946000  0.68598500  1
  Mg  Mg34  1  0.50000000  0.05719700  0.64734800  1
  Mg  Mg35  1  0.00000000  0.20719300  0.63068100  1
  Mg  Mg36  1  0.50000000  0.80945600  0.61931900  1
  Mg  Mg37  1  0.00000000  0.65946000  0.63598500  1
  Mg  Mg38  1  1.00000000  0.60719700  0.69734800  1
  Mg  Mg39  1  0.50000000  0.75719300  0.68068100  1
  Mg  Mg40  1  0.00000000  0.45945600  0.76931900  1
  Mg  Mg41  1  0.50000000  0.30946000  0.78598500  1
  Mg  Mg42  1  0.50000000  0.15719700  0.74734800  1
  Mg  Mg43  1  0.00000000  0.30719300  0.73068100  1
  Mg  Mg44  1  0.50000000  0.90945600  0.71931900  1
  Mg  Mg45  1  0.00000000  0.75946000  0.73598500  1
  Mg  Mg46  1  0.00000000  0.70719700  0.79734800  1
  Mg  Mg47  1  0.50000000  0.85719300  0.78068100  1
  Sc  Sc48  1  0.50000000  0.10933700  0.25266500  1
  Sc  Sc49  1  0.00000000  0.50731600  0.26400100  1
  Sc  Sc50  1  0.00000000  0.65933700  0.30266500  1
  Sc  Sc51  1  0.50000000  0.05731600  0.31400100  1
  Sc  Sc52  1  0.50000000  0.20933700  0.35266500  1
  Sc  Sc53  1  0.00000000  0.60731600  0.36400100  1
  Sc  Sc54  1  0.00000000  0.75933700  0.40266500  1
  Sc  Sc55  1  0.50000000  0.15731600  0.41400100  1
  Sc  Sc56  1  0.50000000  0.30933700  0.45266500  1
  Sc  Sc57  1  0.00000000  0.70731600  0.46400100  1
  Sc  Sc58  1  0.00000000  0.85933700  0.50266500  1
  Sc  Sc59  1  0.50000000  0.25731600  0.51400100  1
  Sc  Sc60  1  0.50000000  0.40933700  0.55266500  1
  Sc  Sc61  1  0.00000000  0.80731600  0.56400100  1
  Sc  Sc62  1  0.00000000  0.95933700  0.60266500  1
  Sc  Sc63  1  0.50000000  0.35731600  0.61400100  1
  Sc  Sc64  1  0.50000000  0.50933700  0.65266500  1
  Sc  Sc65  1  0.00000000  0.90731600  0.66400100  1
  Sc  Sc66  1  0.00000000  0.05933700  0.70266500  1
  Sc  Sc67  1  0.50000000  0.45731600  0.71400100  1
  Sc  Sc68  1  0.50000000  0.60933700  0.75266500  1
  Sc  Sc69  1  0.00000000  0.00731600  0.76400100  1
