# generated using pymatgen
data_Mg57Tl23
_symmetry_space_group_name_H-M   'P 1'
_cell_length_a   9.54566444
_cell_length_b   16.02918063
_cell_length_c   45.11443000
_cell_angle_alpha   88.68557816
_cell_angle_beta   89.47322622
_cell_angle_gamma   74.82313579
_symmetry_Int_Tables_number   1
_chemical_formula_structural   Mg57Tl23
_chemical_formula_sum   'Mg114 Tl46'
_cell_volume   6660.37438527
_cell_formula_units_Z   2
loop_
 _symmetry_equiv_pos_site_id
 _symmetry_equiv_pos_as_xyz
  1  'x, y, z'
loop_
 _atom_site_type_symbol
 _atom_site_label
 _atom_site_symmetry_multiplicity
 _atom_site_fract_x
 _atom_site_fract_y
 _atom_site_fract_z
 _atom_site_occupancy
  Mg  Mg0  1  0.11618000  0.07278900  0.21069100  1
  Mg  Mg1  1  0.64541200  0.17599300  0.28717800  1
  Mg  Mg2  1  0.25126800  0.93781700  0.26071400  1
  Mg  Mg3  1  0.28413900  0.31988100  0.29370100  1
  Mg  Mg4  1  0.28635600  0.40284500  0.21073700  1
  Mg  Mg5  1  0.35712400  0.19964100  0.23425000  1
  Mg  Mg6  1  0.15712400  0.14964100  0.28425000  1
  Mg  Mg7  1  0.84541200  0.22599300  0.23717800  1
  Mg  Mg8  1  0.71839700  0.05575300  0.22772700  1
  Mg  Mg9  1  0.45126800  0.98781700  0.21071400  1
  Mg  Mg10  1  0.41618000  0.52278900  0.26069100  1
  Mg  Mg11  1  0.34541200  0.72599300  0.23717800  1
  Mg  Mg12  1  0.95126800  0.48781700  0.21071400  1
  Mg  Mg13  1  0.98413900  0.86988100  0.24370100  1
  Mg  Mg14  1  0.58635600  0.85284500  0.26073700  1
  Mg  Mg15  1  0.65712400  0.64964100  0.28425000  1
  Mg  Mg16  1  0.85712400  0.69964100  0.23425000  1
  Mg  Mg17  1  0.14541200  0.67599300  0.28717800  1
  Mg  Mg18  1  0.01839700  0.50575300  0.27772700  1
  Mg  Mg19  1  0.75126800  0.43781700  0.26071400  1
  Mg  Mg20  1  0.71618000  0.97278900  0.31069100  1
  Mg  Mg21  1  0.24541200  0.07599300  0.38717800  1
  Mg  Mg22  1  0.85126800  0.83781700  0.36071400  1
  Mg  Mg23  1  0.88413900  0.21988100  0.39370100  1
  Mg  Mg24  1  0.88635600  0.30284500  0.31073700  1
  Mg  Mg25  1  0.95712400  0.09964100  0.33425000  1
  Mg  Mg26  1  0.75712400  0.04964100  0.38425000  1
  Mg  Mg27  1  0.44541200  0.12599300  0.33717800  1
  Mg  Mg28  1  0.31839700  0.95575300  0.32772700  1
  Mg  Mg29  1  0.05126800  0.88781700  0.31071400  1
  Mg  Mg30  1  0.01618000  0.42278900  0.36069100  1
  Mg  Mg31  1  0.94541200  0.62599300  0.33717800  1
  Mg  Mg32  1  0.55126800  0.38781700  0.31071400  1
  Mg  Mg33  1  0.58413900  0.76988100  0.34370100  1
  Mg  Mg34  1  0.18635600  0.75284500  0.36073700  1
  Mg  Mg35  1  0.25712400  0.54964100  0.38425000  1
  Mg  Mg36  1  0.45712400  0.59964100  0.33425000  1
  Mg  Mg37  1  0.74541200  0.57599300  0.38717800  1
  Mg  Mg38  1  0.61839700  0.40575300  0.37772700  1
  Mg  Mg39  1  0.35126800  0.33781700  0.36071400  1
  Mg  Mg40  1  0.31618000  0.87278900  0.41069100  1
  Mg  Mg41  1  0.84541200  0.97599300  0.48717800  1
  Mg  Mg42  1  0.45126800  0.73781700  0.46071400  1
  Mg  Mg43  1  0.48413900  0.11988100  0.49370100  1
  Mg  Mg44  1  0.48635600  0.20284500  0.41073700  1
  Mg  Mg45  1  0.55712400  0.99964100  0.43425000  1
  Mg  Mg46  1  0.35712400  0.94964100  0.48425000  1
  Mg  Mg47  1  0.04541200  0.02599300  0.43717800  1
  Mg  Mg48  1  0.91839700  0.85575300  0.42772700  1
  Mg  Mg49  1  0.65126800  0.78781700  0.41071400  1
  Mg  Mg50  1  0.61618000  0.32278900  0.46069100  1
  Mg  Mg51  1  0.54541200  0.52599300  0.43717800  1
  Mg  Mg52  1  0.15126800  0.28781700  0.41071400  1
  Mg  Mg53  1  0.18413900  0.66988100  0.44370100  1
  Mg  Mg54  1  0.78635600  0.65284500  0.46073700  1
  Mg  Mg55  1  0.85712400  0.44964100  0.48425000  1
  Mg  Mg56  1  0.05712400  0.49964100  0.43425000  1
  Mg  Mg57  1  0.34541200  0.47599300  0.48717800  1
  Mg  Mg58  1  0.21839700  0.30575300  0.47772700  1
  Mg  Mg59  1  0.95126800  0.23781700  0.46071400  1
  Mg  Mg60  1  0.91618000  0.77278900  0.51069100  1
  Mg  Mg61  1  0.44541200  0.87599300  0.58717800  1
  Mg  Mg62  1  0.05126800  0.63781700  0.56071400  1
  Mg  Mg63  1  0.08413900  0.01988100  0.59370100  1
  Mg  Mg64  1  0.08635600  0.10284500  0.51073700  1
  Mg  Mg65  1  0.15712400  0.89964100  0.53425000  1
  Mg  Mg66  1  0.95712400  0.84964100  0.58425000  1
  Mg  Mg67  1  0.64541200  0.92599300  0.53717800  1
  Mg  Mg68  1  0.51839700  0.75575300  0.52772700  1
  Mg  Mg69  1  0.25126800  0.68781700  0.51071400  1
  Mg  Mg70  1  0.21618000  0.22278900  0.56069100  1
  Mg  Mg71  1  0.14541200  0.42599300  0.53717800  1
  Mg  Mg72  1  0.75126800  0.18781700  0.51071400  1
  Mg  Mg73  1  0.78413900  0.56988100  0.54370100  1
  Mg  Mg74  1  0.38635600  0.55284500  0.56073700  1
  Mg  Mg75  1  0.45712400  0.34964100  0.58425000  1
  Mg  Mg76  1  0.65712400  0.39964100  0.53425000  1
  Mg  Mg77  1  0.94541200  0.37599300  0.58717800  1
  Mg  Mg78  1  0.81839700  0.20575300  0.57772700  1
  Mg  Mg79  1  0.55126800  0.13781700  0.56071400  1
  Mg  Mg80  1  0.51618000  0.67278900  0.61069100  1
  Mg  Mg81  1  0.04541200  0.77599300  0.68717800  1
  Mg  Mg82  1  0.65126800  0.53781700  0.66071400  1
  Mg  Mg83  1  0.68413900  0.91988100  0.69370100  1
  Mg  Mg84  1  0.68635600  0.00284500  0.61073700  1
  Mg  Mg85  1  0.75712400  0.79964100  0.63425000  1
  Mg  Mg86  1  0.55712400  0.74964100  0.68425000  1
  Mg  Mg87  1  0.24541200  0.82599300  0.63717800  1
  Mg  Mg88  1  0.11839700  0.65575300  0.62772700  1
  Mg  Mg89  1  0.85126800  0.58781700  0.61071400  1
  Mg  Mg90  1  0.81618000  0.12278900  0.66069100  1
  Mg  Mg91  1  0.74541200  0.32599300  0.63717800  1
  Mg  Mg92  1  0.35126800  0.08781700  0.61071400  1
  Mg  Mg93  1  0.38413900  0.46988100  0.64370100  1
  Mg  Mg94  1  0.98635600  0.45284500  0.66073700  1
  Mg  Mg95  1  0.05712400  0.24964100  0.68425000  1
  Mg  Mg96  1  0.25712400  0.29964100  0.63425000  1
  Mg  Mg97  1  0.54541200  0.27599300  0.68717800  1
  Mg  Mg98  1  0.41839700  0.10575300  0.67772700  1
  Mg  Mg99  1  0.15126800  0.03781700  0.66071400  1
  Mg  Mg100  1  0.11618000  0.57278900  0.71069100  1
  Mg  Mg101  1  0.25126800  0.43781700  0.76071400  1
  Mg  Mg102  1  0.28635600  0.90284500  0.71073700  1
  Mg  Mg103  1  0.35712400  0.69964100  0.73425000  1
  Mg  Mg104  1  0.84541200  0.72599300  0.73717800  1
  Mg  Mg105  1  0.71839700  0.55575300  0.72772700  1
  Mg  Mg106  1  0.45126800  0.48781700  0.71071400  1
  Mg  Mg107  1  0.41618000  0.02278900  0.76069100  1
  Mg  Mg108  1  0.34541200  0.22599300  0.73717800  1
  Mg  Mg109  1  0.95126800  0.98781700  0.71071400  1
  Mg  Mg110  1  0.98413900  0.36988100  0.74370100  1
  Mg  Mg111  1  0.58635600  0.35284500  0.76073700  1
  Mg  Mg112  1  0.85712400  0.19964100  0.73425000  1
  Mg  Mg113  1  0.75126800  0.93781700  0.76071400  1
  Tl  Tl114  1  0.54199700  0.32950300  0.24719700  1
  Tl  Tl115  1  0.94453300  0.04879800  0.27156400  1
  Tl  Tl116  1  0.05800300  0.32683600  0.24986500  1
  Tl  Tl117  1  0.46053800  0.04613000  0.27423100  1
  Tl  Tl118  1  0.84199700  0.77950300  0.29719700  1
  Tl  Tl119  1  0.64453300  0.59879800  0.22156400  1
  Tl  Tl120  1  0.75800300  0.87683600  0.19986500  1
  Tl  Tl121  1  0.16053800  0.59613000  0.22423100  1
  Tl  Tl122  1  0.14199700  0.22950300  0.34719700  1
  Tl  Tl123  1  0.54453300  0.94879800  0.37156400  1
  Tl  Tl124  1  0.65800300  0.22683600  0.34986500  1
  Tl  Tl125  1  0.06053800  0.94613000  0.37423100  1
  Tl  Tl126  1  0.44199700  0.67950300  0.39719700  1
  Tl  Tl127  1  0.24453300  0.49879800  0.32156400  1
  Tl  Tl128  1  0.35800300  0.77683600  0.29986500  1
  Tl  Tl129  1  0.76053800  0.49613000  0.32423100  1
  Tl  Tl130  1  0.74199700  0.12950300  0.44719700  1
  Tl  Tl131  1  0.14453300  0.84879800  0.47156400  1
  Tl  Tl132  1  0.25800300  0.12683600  0.44986500  1
  Tl  Tl133  1  0.66053800  0.84613000  0.47423100  1
  Tl  Tl134  1  0.04199700  0.57950300  0.49719700  1
  Tl  Tl135  1  0.84453300  0.39879800  0.42156400  1
  Tl  Tl136  1  0.95800300  0.67683600  0.39986500  1
  Tl  Tl137  1  0.36053800  0.39613000  0.42423100  1
  Tl  Tl138  1  0.34199700  0.02950300  0.54719700  1
  Tl  Tl139  1  0.74453300  0.74879800  0.57156400  1
  Tl  Tl140  1  0.85800300  0.02683600  0.54986500  1
  Tl  Tl141  1  0.26053800  0.74613000  0.57423100  1
  Tl  Tl142  1  0.64199700  0.47950300  0.59719700  1
  Tl  Tl143  1  0.44453300  0.29879800  0.52156400  1
  Tl  Tl144  1  0.55800300  0.57683600  0.49986500  1
  Tl  Tl145  1  0.96053800  0.29613000  0.52423100  1
  Tl  Tl146  1  0.94199700  0.92950300  0.64719700  1
  Tl  Tl147  1  0.34453300  0.64879800  0.67156400  1
  Tl  Tl148  1  0.45800300  0.92683600  0.64986500  1
  Tl  Tl149  1  0.86053800  0.64613000  0.67423100  1
  Tl  Tl150  1  0.24199700  0.37950300  0.69719700  1
  Tl  Tl151  1  0.04453300  0.19879800  0.62156400  1
  Tl  Tl152  1  0.15800300  0.47683600  0.59986500  1
  Tl  Tl153  1  0.56053800  0.19613000  0.62423100  1
  Tl  Tl154  1  0.54199700  0.82950300  0.74719700  1
  Tl  Tl155  1  0.94453300  0.54879800  0.77156400  1
  Tl  Tl156  1  0.05800300  0.82683600  0.74986500  1
  Tl  Tl157  1  0.64453300  0.09879800  0.72156400  1
  Tl  Tl158  1  0.75800300  0.37683600  0.69986500  1
  Tl  Tl159  1  0.16053800  0.09613000  0.72423100  1
