# generated using pymatgen
data_Ce5Mg41
_symmetry_space_group_name_H-M   'P 1'
_cell_length_a   10.33012841
_cell_length_b   10.08648700
_cell_length_c   45.02798700
_cell_angle_alpha   90.00000000
_cell_angle_beta   83.41322442
_cell_angle_gamma   90.00000000
_symmetry_Int_Tables_number   1
_chemical_formula_structural   Ce5Mg41
_chemical_formula_sum   'Ce10 Mg82'
_cell_volume   4660.70935486
_cell_formula_units_Z   2
loop_
 _symmetry_equiv_pos_site_id
 _symmetry_equiv_pos_as_xyz
  1  'x, y, z'
loop_
 _atom_site_type_symbol
 _atom_site_label
 _atom_site_symmetry_multiplicity
 _atom_site_fract_x
 _atom_site_fract_y
 _atom_site_fract_z
 _atom_site_occupancy
  Ce  Ce0  1  0.54709200  0.75000000  0.35789500  1
  Ce  Ce1  1  0.54709200  0.25000000  0.35789500  1
  Ce  Ce2  1  0.94709200  0.75000000  0.55789500  1
  Ce  Ce3  1  0.94709200  0.25000000  0.55789500  1
  Ce  Ce4  1  0.01375900  0.75000000  0.42456100  1
  Ce  Ce5  1  0.48042500  0.25000000  0.49122800  1
  Ce  Ce6  1  0.34709200  0.75000000  0.75789500  1
  Ce  Ce7  1  0.34709200  0.25000000  0.75789500  1
  Ce  Ce8  1  0.41375900  0.75000000  0.62456100  1
  Ce  Ce9  1  0.88042500  0.25000000  0.69122800  1
  Mg  Mg10  1  0.04709200  0.00000000  0.35789500  1
  Mg  Mg11  1  0.77420000  0.97841000  0.39033900  1
  Mg  Mg12  1  0.28754000  0.52159000  0.39033900  1
  Mg  Mg13  1  0.80664400  0.47841000  0.32545100  1
  Mg  Mg14  1  0.77420000  0.52159000  0.39033900  1
  Mg  Mg15  1  0.89508100  0.75000000  0.35126100  1
  Mg  Mg16  1  0.28754000  0.97841000  0.39033900  1
  Mg  Mg17  1  0.80664400  0.02159000  0.32545100  1
  Mg  Mg18  1  0.20573700  0.75000000  0.35126100  1
  Mg  Mg19  1  0.31998400  0.02159000  0.32545100  1
  Mg  Mg20  1  0.88844700  0.25000000  0.36452900  1
  Mg  Mg21  1  0.31998400  0.47841000  0.32545100  1
  Mg  Mg22  1  0.19910300  0.25000000  0.36452900  1
  Mg  Mg23  1  0.04709200  0.50000000  0.35789500  1
  Mg  Mg24  1  0.44709200  0.00000000  0.55789500  1
  Mg  Mg25  1  0.24709200  0.00000000  0.45789500  1
  Mg  Mg26  1  0.17420000  0.97841000  0.59033900  1
  Mg  Mg27  1  0.68754000  0.52159000  0.59033900  1
  Mg  Mg28  1  0.51464800  0.02159000  0.42278300  1
  Mg  Mg29  1  0.13067600  0.25000000  0.48564300  1
  Mg  Mg30  1  0.01375900  0.40231100  0.42456100  1
  Mg  Mg31  1  0.48042500  0.90231100  0.49122800  1
  Mg  Mg32  1  0.20664400  0.47841000  0.52545100  1
  Mg  Mg33  1  0.31707000  0.25000000  0.42351200  1
  Mg  Mg34  1  0.65842500  0.75000000  0.43014600  1
  Mg  Mg35  1  0.17420000  0.52159000  0.59033900  1
  Mg  Mg36  1  0.29508100  0.75000000  0.55126100  1
  Mg  Mg37  1  0.83575900  0.25000000  0.48564300  1
  Mg  Mg38  1  0.68754000  0.97841000  0.59033900  1
  Mg  Mg39  1  0.97953600  0.97841000  0.49300700  1
  Mg  Mg40  1  0.51464800  0.47841000  0.42278300  1
  Mg  Mg41  1  0.97953600  0.52159000  0.49300700  1
  Mg  Mg42  1  0.01375900  0.09768900  0.42456100  1
  Mg  Mg43  1  0.20664400  0.02159000  0.52545100  1
  Mg  Mg44  1  0.74709200  0.50000000  0.45789500  1
  Mg  Mg45  1  0.60573700  0.75000000  0.55126100  1
  Mg  Mg46  1  0.36350800  0.75000000  0.43014600  1
  Mg  Mg47  1  0.48042500  0.59768900  0.49122800  1
  Mg  Mg48  1  0.71998400  0.02159000  0.52545100  1
  Mg  Mg49  1  0.78268800  0.75000000  0.49227700  1
  Mg  Mg50  1  0.28844700  0.25000000  0.56452900  1
  Mg  Mg51  1  0.71998400  0.47841000  0.52545100  1
  Mg  Mg52  1  0.17711400  0.75000000  0.49227700  1
  Mg  Mg53  1  0.24709200  0.50000000  0.45789500  1
  Mg  Mg54  1  0.71149600  0.25000000  0.42351200  1
  Mg  Mg55  1  0.59910300  0.25000000  0.56452900  1
  Mg  Mg56  1  0.74709200  0.00000000  0.45789500  1
  Mg  Mg57  1  0.44709200  0.50000000  0.55789500  1
  Mg  Mg58  1  0.84709200  0.00000000  0.75789500  1
  Mg  Mg59  1  0.64709200  0.00000000  0.65789500  1
  Mg  Mg60  1  0.57420000  0.97841000  0.79033900  1
  Mg  Mg61  1  0.08754000  0.52159000  0.79033900  1
  Mg  Mg62  1  0.91464800  0.02159000  0.62278300  1
  Mg  Mg63  1  0.53067600  0.25000000  0.68564300  1
  Mg  Mg64  1  0.41375900  0.40231100  0.62456100  1
  Mg  Mg65  1  0.88042500  0.90231100  0.69122800  1
  Mg  Mg66  1  0.60664400  0.47841000  0.72545100  1
  Mg  Mg67  1  0.71707000  0.25000000  0.62351200  1
  Mg  Mg68  1  0.05842500  0.75000000  0.63014600  1
  Mg  Mg69  1  0.57420000  0.52159000  0.79033900  1
  Mg  Mg70  1  0.69508100  0.75000000  0.75126100  1
  Mg  Mg71  1  0.23575900  0.25000000  0.68564300  1
  Mg  Mg72  1  0.08754000  0.97841000  0.79033900  1
  Mg  Mg73  1  0.37953600  0.97841000  0.69300700  1
  Mg  Mg74  1  0.91464800  0.47841000  0.62278300  1
  Mg  Mg75  1  0.37953600  0.52159000  0.69300700  1
  Mg  Mg76  1  0.41375900  0.09768900  0.62456100  1
  Mg  Mg77  1  0.60664400  0.02159000  0.72545100  1
  Mg  Mg78  1  0.14709200  0.50000000  0.65789500  1
  Mg  Mg79  1  0.00573700  0.75000000  0.75126100  1
  Mg  Mg80  1  0.76350800  0.75000000  0.63014600  1
  Mg  Mg81  1  0.88042500  0.59768900  0.69122800  1
  Mg  Mg82  1  0.11998400  0.02159000  0.72545100  1
  Mg  Mg83  1  0.18268800  0.75000000  0.69227700  1
  Mg  Mg84  1  0.68844700  0.25000000  0.76452900  1
  Mg  Mg85  1  0.11998400  0.47841000  0.72545100  1
  Mg  Mg86  1  0.57711400  0.75000000  0.69227700  1
  Mg  Mg87  1  0.64709200  0.50000000  0.65789500  1
  Mg  Mg88  1  0.11149600  0.25000000  0.62351200  1
  Mg  Mg89  1  0.99910300  0.25000000  0.76452900  1
  Mg  Mg90  1  0.14709200  0.00000000  0.65789500  1
  Mg  Mg91  1  0.84709200  0.50000000  0.75789500  1
