# generated using pymatgen
data_Dy17Mg9
_symmetry_space_group_name_H-M   'P 1'
_cell_length_a   6.60896973
_cell_length_b   8.74776942
_cell_length_c   42.27082600
_cell_angle_alpha   91.26799270
_cell_angle_beta   92.01157452
_cell_angle_gamma   96.78872541
_symmetry_Int_Tables_number   1
_chemical_formula_structural   Dy17Mg9
_chemical_formula_sum   'Dy34 Mg18'
_cell_volume   2424.35459031
_cell_formula_units_Z   2
loop_
 _symmetry_equiv_pos_site_id
 _symmetry_equiv_pos_as_xyz
  1  'x, y, z'
loop_
 _atom_site_type_symbol
 _atom_site_label
 _atom_site_symmetry_multiplicity
 _atom_site_fract_x
 _atom_site_fract_y
 _atom_site_fract_z
 _atom_site_occupancy
  Dy  Dy0  1  0.51347300  0.42098300  0.23749400  1
  Dy  Dy1  1  0.10390500  0.03139800  0.21488600  1
  Dy  Dy2  1  0.22775900  0.49241100  0.30892300  1
  Dy  Dy3  1  0.42215700  0.80459900  0.26032300  1
  Dy  Dy4  1  0.81819100  0.10282700  0.28631500  1
  Dy  Dy5  1  0.90950700  0.71921000  0.26348600  1
  Dy  Dy6  1  0.94204500  0.56384000  0.38035200  1
  Dy  Dy7  1  0.13644300  0.87602800  0.33175200  1
  Dy  Dy8  1  0.53247700  0.17425500  0.35774400  1
  Dy  Dy9  1  0.62379300  0.79063900  0.33491500  1
  Dy  Dy10  1  0.65633100  0.63526800  0.45178000  1
  Dy  Dy11  1  0.85072900  0.94745600  0.40318100  1
  Dy  Dy12  1  0.24676200  0.24568400  0.42917200  1
  Dy  Dy13  1  0.33807900  0.86206800  0.40634300  1
  Dy  Dy14  1  0.37061600  0.70669700  0.52320900  1
  Dy  Dy15  1  0.56501400  0.01888500  0.47460900  1
  Dy  Dy16  1  0.96104800  0.31711300  0.50060100  1
  Dy  Dy17  1  0.05236400  0.93349600  0.47777200  1
  Dy  Dy18  1  0.08490200  0.77812500  0.59463700  1
  Dy  Dy19  1  0.27930000  0.09031300  0.54603800  1
  Dy  Dy20  1  0.67533400  0.38854100  0.57202900  1
  Dy  Dy21  1  0.76665000  0.00492500  0.54920000  1
  Dy  Dy22  1  0.79918800  0.84955400  0.66606600  1
  Dy  Dy23  1  0.99358600  0.16174200  0.61746600  1
  Dy  Dy24  1  0.38962000  0.45997000  0.64345800  1
  Dy  Dy25  1  0.48093600  0.07635300  0.62062900  1
  Dy  Dy26  1  0.51347300  0.92098300  0.73749400  1
  Dy  Dy27  1  0.70787200  0.23317100  0.68889500  1
  Dy  Dy28  1  0.10390500  0.53139800  0.71488600  1
  Dy  Dy29  1  0.19522100  0.14778200  0.69205700  1
  Dy  Dy30  1  0.22775900  0.99241100  0.80892300  1
  Dy  Dy31  1  0.42215700  0.30459900  0.76032300  1
  Dy  Dy32  1  0.81819100  0.60282700  0.78631500  1
  Dy  Dy33  1  0.90950700  0.21921000  0.76348600  1
  Mg  Mg34  1  0.61096500  0.07904800  0.21312200  1
  Mg  Mg35  1  0.00641400  0.37333300  0.23925900  1
  Mg  Mg36  1  0.32525000  0.15047700  0.28455000  1
  Mg  Mg37  1  0.72070000  0.44476100  0.31068800  1
  Mg  Mg38  1  0.03953600  0.22190500  0.35597900  1
  Mg  Mg39  1  0.43498600  0.51619000  0.38211600  1
  Mg  Mg40  1  0.75382200  0.29333400  0.42740700  1
  Mg  Mg41  1  0.14927100  0.58761800  0.45354500  1
  Mg  Mg42  1  0.46810700  0.36476300  0.49883600  1
  Mg  Mg43  1  0.86355700  0.65904700  0.52497400  1
  Mg  Mg44  1  0.18239300  0.43619100  0.57026500  1
  Mg  Mg45  1  0.57784300  0.73047600  0.59640200  1
  Mg  Mg46  1  0.89667900  0.50762000  0.64169300  1
  Mg  Mg47  1  0.29212800  0.80190400  0.66783100  1
  Mg  Mg48  1  0.61096500  0.57904800  0.71312200  1
  Mg  Mg49  1  0.00641400  0.87333300  0.73925900  1
  Mg  Mg50  1  0.32525000  0.65047700  0.78455000  1
  Mg  Mg51  1  0.72070000  0.94476100  0.81068800  1
