# generated using pymatgen
data_MgSc2
_symmetry_space_group_name_H-M   'P 1'
_cell_length_a   6.15802808
_cell_length_b   8.41162235
_cell_length_c   44.44502100
_cell_angle_alpha   88.64208176
_cell_angle_beta   86.82203302
_cell_angle_gamma   83.76368766
_symmetry_Int_Tables_number   1
_chemical_formula_structural   MgSc2
_chemical_formula_sum   'Mg20 Sc40'
_cell_volume   2284.70234821
_cell_formula_units_Z   20
loop_
 _symmetry_equiv_pos_site_id
 _symmetry_equiv_pos_as_xyz
  1  'x, y, z'
loop_
 _atom_site_type_symbol
 _atom_site_label
 _atom_site_symmetry_multiplicity
 _atom_site_fract_x
 _atom_site_fract_y
 _atom_site_fract_z
 _atom_site_occupancy
  Mg  Mg0  1  0.34762600  0.08222100  0.79297500  1
  Mg  Mg1  1  0.96487400  0.35527900  0.76952500  1
  Mg  Mg2  1  0.66012600  0.14472100  0.73047500  1
  Mg  Mg3  1  0.27737400  0.41777900  0.70702500  1
  Mg  Mg4  1  0.97262600  0.20722100  0.66797500  1
  Mg  Mg5  1  0.58987400  0.48027900  0.64452500  1
  Mg  Mg6  1  0.28512600  0.26972100  0.60547500  1
  Mg  Mg7  1  0.90237400  0.54277900  0.58202500  1
  Mg  Mg8  1  0.59762600  0.33222100  0.54297500  1
  Mg  Mg9  1  0.21487400  0.60527900  0.51952500  1
  Mg  Mg10  1  0.91012600  0.39472100  0.48047500  1
  Mg  Mg11  1  0.52737400  0.66777900  0.45702500  1
  Mg  Mg12  1  0.22262600  0.45722100  0.41797500  1
  Mg  Mg13  1  0.83987400  0.73027900  0.39452500  1
  Mg  Mg14  1  0.53512600  0.51972100  0.35547500  1
  Mg  Mg15  1  0.15237400  0.79277900  0.33202500  1
  Mg  Mg16  1  0.84762600  0.58222100  0.29297500  1
  Mg  Mg17  1  0.46487400  0.85527900  0.26952500  1
  Mg  Mg18  1  0.16012600  0.64472100  0.23047500  1
  Mg  Mg19  1  0.77737400  0.91777900  0.20702500  1
  Sc  Sc20  1  0.45237500  0.43277200  0.77202500  1
  Sc  Sc21  1  0.55524300  0.79499300  0.75145100  1
  Sc  Sc22  1  0.86012500  0.00472800  0.79047500  1
  Sc  Sc23  1  0.75725700  0.64250700  0.81104900  1
  Sc  Sc24  1  0.76487500  0.49527200  0.70952500  1
  Sc  Sc25  1  0.86774300  0.85749300  0.68895100  1
  Sc  Sc26  1  0.17262500  0.06722800  0.72797500  1
  Sc  Sc27  1  0.06975700  0.70500700  0.74854900  1
  Sc  Sc28  1  0.07737500  0.55777200  0.64702500  1
  Sc  Sc29  1  0.18024300  0.91999300  0.62645100  1
  Sc  Sc30  1  0.48512500  0.12972800  0.66547500  1
  Sc  Sc31  1  0.38225700  0.76750700  0.68604900  1
  Sc  Sc32  1  0.38987500  0.62027200  0.58452500  1
  Sc  Sc33  1  0.49274300  0.98249300  0.56395100  1
  Sc  Sc34  1  0.79762500  0.19222800  0.60297500  1
  Sc  Sc35  1  0.69475700  0.83000700  0.62354900  1
  Sc  Sc36  1  0.70237500  0.68277200  0.52202500  1
  Sc  Sc37  1  0.80524300  0.04499300  0.50145100  1
  Sc  Sc38  1  0.11012500  0.25472800  0.54047500  1
  Sc  Sc39  1  0.00725700  0.89250700  0.56104900  1
  Sc  Sc40  1  0.01487500  0.74527200  0.45952500  1
  Sc  Sc41  1  0.11774300  0.10749300  0.43895100  1
  Sc  Sc42  1  0.42262500  0.31722800  0.47797500  1
  Sc  Sc43  1  0.31975700  0.95500700  0.49854900  1
  Sc  Sc44  1  0.32737500  0.80777200  0.39702500  1
  Sc  Sc45  1  0.43024300  0.16999300  0.37645100  1
  Sc  Sc46  1  0.73512500  0.37972800  0.41547500  1
  Sc  Sc47  1  0.63225700  0.01750700  0.43604900  1
  Sc  Sc48  1  0.63987500  0.87027200  0.33452500  1
  Sc  Sc49  1  0.74274300  0.23249300  0.31395100  1
  Sc  Sc50  1  0.04762500  0.44222800  0.35297500  1
  Sc  Sc51  1  0.94475700  0.08000700  0.37354900  1
  Sc  Sc52  1  0.95237500  0.93277200  0.27202500  1
  Sc  Sc53  1  0.05524300  0.29499300  0.25145100  1
  Sc  Sc54  1  0.36012500  0.50472800  0.29047500  1
  Sc  Sc55  1  0.25725700  0.14250700  0.31104900  1
  Sc  Sc56  1  0.26487500  0.99527200  0.20952500  1
  Sc  Sc57  1  0.36774300  0.35749300  0.18895100  1
  Sc  Sc58  1  0.67262500  0.56722800  0.22797500  1
  Sc  Sc59  1  0.56975700  0.20500700  0.24854900  1
