# generated using pymatgen
data_Mg125Rh48
_symmetry_space_group_name_H-M   'P 1'
_cell_length_a   11.79877580
_cell_length_b   11.79877571
_cell_length_c   42.13651500
_cell_angle_alpha   95.11887838
_cell_angle_beta   84.88112166
_cell_angle_gamma   101.27924998
_symmetry_Int_Tables_number   1
_chemical_formula_structural   Mg125Rh48
_chemical_formula_sum   'Mg125 Rh48'
_cell_volume   5714.14400078
_cell_formula_units_Z   1
loop_
 _symmetry_equiv_pos_site_id
 _symmetry_equiv_pos_as_xyz
  1  'x, y, z'
loop_
 _atom_site_type_symbol
 _atom_site_label
 _atom_site_symmetry_multiplicity
 _atom_site_fract_x
 _atom_site_fract_y
 _atom_site_fract_z
 _atom_site_occupancy
  Mg  Mg0  1  0.33065000  0.66935000  0.26461000  1
  Mg  Mg1  1  0.95146300  0.85723800  0.26546300  1
  Mg  Mg2  1  0.11589100  0.50151200  0.25874500  1
  Mg  Mg3  1  0.70983600  0.48146300  0.26375800  1
  Mg  Mg4  1  0.54540900  0.83718900  0.27047500  1
  Mg  Mg5  1  0.51246800  0.48753200  0.31006500  1
  Mg  Mg6  1  0.69428600  0.30571400  0.35551900  1
  Mg  Mg7  1  0.45813400  0.08209900  0.27636500  1
  Mg  Mg8  1  0.09971900  0.36004700  0.32182000  1
  Mg  Mg9  1  0.96179200  0.11867400  0.28733800  1
  Mg  Mg10  1  0.06314400  0.85639000  0.33279200  1
  Mg  Mg11  1  0.92521600  0.61501700  0.29831000  1
  Mg  Mg12  1  0.56680100  0.89296500  0.34376500  1
  Mg  Mg13  1  0.31510000  0.49360200  0.35637200  1
  Mg  Mg14  1  0.32458000  0.86671900  0.31091800  1
  Mg  Mg15  1  0.47952700  0.13787500  0.34965400  1
  Mg  Mg16  1  0.68030600  0.70229100  0.30420000  1
  Mg  Mg17  1  0.83525300  0.97344800  0.34293700  1
  Mg  Mg18  1  0.07347300  0.11782600  0.35466700  1
  Mg  Mg19  1  0.18968300  0.00161600  0.27719300  1
  Mg  Mg20  1  0.84473400  0.34656500  0.29748200  1
  Mg  Mg21  1  0.34462900  0.27277300  0.31593000  1
  Mg  Mg22  1  0.90904500  0.47355200  0.36138500  1
  Mg  Mg23  1  0.18020200  0.62849900  0.32264800  1
  Mg  Mg24  1  0.70035600  0.10834500  0.30921200  1
  Mg  Mg25  1  0.87610400  0.12389600  0.40097400  1
  Mg  Mg26  1  0.05792200  0.94207800  0.44642900  1
  Mg  Mg27  1  0.82177100  0.71846200  0.36727400  1
  Mg  Mg28  1  0.46335600  0.99641100  0.41272900  1
  Mg  Mg29  1  0.32542800  0.75503800  0.37824700  1
  Mg  Mg30  1  0.42678000  0.49275300  0.42370100  1
  Mg  Mg31  1  0.28885300  0.25138000  0.38921900  1
  Mg  Mg32  1  0.93043800  0.52932900  0.43467400  1
  Mg  Mg33  1  0.67873600  0.12996500  0.44728100  1
  Mg  Mg34  1  0.68821700  0.50308200  0.40182700  1
  Mg  Mg35  1  0.84316300  0.77423900  0.44056300  1
  Mg  Mg36  1  0.04394300  0.33865500  0.39510900  1
  Mg  Mg37  1  0.19888900  0.60981200  0.43384600  1
  Mg  Mg38  1  0.43710900  0.75419000  0.44557600  1
  Mg  Mg39  1  0.55331900  0.63798000  0.36810200  1
  Mg  Mg40  1  0.20837000  0.98292900  0.38839100  1
  Mg  Mg41  1  0.70826600  0.90913600  0.40683900  1
  Mg  Mg42  1  0.27268200  0.10991600  0.45229400  1
  Mg  Mg43  1  0.54383800  0.26486300  0.41355700  1
  Mg  Mg44  1  0.06399200  0.74470900  0.40012100  1
  Mg  Mg45  1  0.23974100  0.76025900  0.49188300  1
  Mg  Mg46  1  0.42155900  0.57844100  0.53733800  1
  Mg  Mg47  1  0.18540700  0.35482600  0.45818300  1
  Mg  Mg48  1  0.82699200  0.63277500  0.50363800  1
  Mg  Mg49  1  0.68906500  0.39140200  0.46915600  1
  Mg  Mg50  1  0.79041700  0.12911700  0.51461000  1
  Mg  Mg51  1  0.65248900  0.88774400  0.48012900  1
  Mg  Mg52  1  0.29407400  0.16569300  0.52558300  1
  Mg  Mg53  1  0.04237200  0.76632900  0.53819000  1
  Mg  Mg54  1  0.05185300  0.13944600  0.49273600  1
  Mg  Mg55  1  0.20680000  0.41060300  0.53147300  1
  Mg  Mg56  1  0.40757900  0.97501900  0.48601800  1
  Mg  Mg57  1  0.56252600  0.24617500  0.52475500  1
  Mg  Mg58  1  0.80074500  0.39055300  0.53648500  1
  Mg  Mg59  1  0.91695500  0.27434300  0.45901200  1
  Mg  Mg60  1  0.57200700  0.61929200  0.47930000  1
  Mg  Mg61  1  0.07190200  0.54550000  0.49774800  1
  Mg  Mg62  1  0.63631800  0.74628000  0.54320300  1
  Mg  Mg63  1  0.90747500  0.90122600  0.50446600  1
  Mg  Mg64  1  0.42762800  0.38107300  0.49103000  1
  Mg  Mg65  1  0.60337700  0.39662300  0.58279200  1
  Mg  Mg66  1  0.78519500  0.21480500  0.62824700  1
  Mg  Mg67  1  0.54904400  0.99119000  0.54909200  1
  Mg  Mg68  1  0.19062900  0.26913800  0.59454700  1
  Mg  Mg69  1  0.05270100  0.02776500  0.56006500  1
  Mg  Mg70  1  0.15405300  0.76548100  0.60551900  1
  Mg  Mg71  1  0.01612500  0.52410800  0.57103800  1
  Mg  Mg72  1  0.65771100  0.80205600  0.61649200  1
  Mg  Mg73  1  0.40600900  0.40269300  0.62910000  1
  Mg  Mg74  1  0.41548900  0.77581000  0.58364500  1
  Mg  Mg75  1  0.57043600  0.04696600  0.62238200  1
  Mg  Mg76  1  0.77121600  0.61138200  0.57692700  1
  Mg  Mg77  1  0.92616200  0.88253900  0.61566400  1
  Mg  Mg78  1  0.16438200  0.02691700  0.62739400  1
  Mg  Mg79  1  0.28059200  0.91070700  0.54992100  1
  Mg  Mg80  1  0.93564300  0.25565600  0.57020900  1
  Mg  Mg81  1  0.43553900  0.18186400  0.58865700  1
  Mg  Mg82  1  0.99995400  0.38264300  0.63411200  1
  Mg  Mg83  1  0.27111100  0.53759000  0.59537500  1
  Mg  Mg84  1  0.79126500  0.01743600  0.58193900  1
  Mg  Mg85  1  0.96701300  0.03298700  0.67370100  1
  Mg  Mg86  1  0.14883200  0.85116800  0.71915600  1
  Mg  Mg87  1  0.91268000  0.62755300  0.64000100  1
  Mg  Mg88  1  0.55426500  0.90550200  0.68545600  1
  Mg  Mg89  1  0.41633700  0.66412900  0.65097400  1
  Mg  Mg90  1  0.51768900  0.40184400  0.69642900  1
  Mg  Mg91  1  0.37976200  0.16047100  0.66194700  1
  Mg  Mg92  1  0.02134700  0.43842000  0.70740100  1
  Mg  Mg93  1  0.76964500  0.03905600  0.72000900  1
  Mg  Mg94  1  0.77912600  0.41217300  0.67455400  1
  Mg  Mg95  1  0.93407200  0.68333000  0.71329100  1
  Mg  Mg96  1  0.13485200  0.24774600  0.66783600  1
  Mg  Mg97  1  0.28979900  0.51890300  0.70657300  1
  Mg  Mg98  1  0.52801800  0.66328100  0.71830300  1
  Mg  Mg99  1  0.64422800  0.54707100  0.64083000  1
  Mg  Mg100  1  0.29927900  0.89202000  0.66111800  1
  Mg  Mg101  1  0.79917500  0.81822700  0.67956600  1
  Mg  Mg102  1  0.36359100  0.01900700  0.72502100  1
  Mg  Mg103  1  0.63474700  0.17395400  0.68628400  1
  Mg  Mg104  1  0.15490100  0.65380000  0.67284900  1
  Mg  Mg105  1  0.33065000  0.66935000  0.76461000  1
  Mg  Mg106  1  0.51246800  0.48753200  0.81006500  1
  Mg  Mg107  1  0.27631600  0.26391700  0.73091000  1
  Mg  Mg108  1  0.91790100  0.54186600  0.77636500  1
  Mg  Mg109  1  0.77997400  0.30049200  0.74188300  1
  Mg  Mg110  1  0.88132600  0.03820800  0.78733800  1
  Mg  Mg111  1  0.74339800  0.79683500  0.75285600  1
  Mg  Mg112  1  0.38498300  0.07478400  0.79831000  1
  Mg  Mg113  1  0.13328100  0.67542000  0.81091800  1
  Mg  Mg114  1  0.14276200  0.04853700  0.76546300  1
  Mg  Mg115  1  0.29770900  0.31969400  0.80420000  1
  Mg  Mg116  1  0.49848800  0.88410900  0.75874500  1
  Mg  Mg117  1  0.65343500  0.15526600  0.79748200  1
  Mg  Mg118  1  0.89165500  0.29964400  0.80921200  1
  Mg  Mg119  1  0.00786500  0.18343400  0.73173900  1
  Mg  Mg120  1  0.66291600  0.52838300  0.75202700  1
  Mg  Mg121  1  0.16281100  0.45459100  0.77047500  1
  Mg  Mg122  1  0.72722700  0.65537100  0.81593000  1
  Mg  Mg123  1  0.99838400  0.81031700  0.77719300  1
  Mg  Mg124  1  0.51853700  0.29016400  0.76375800  1
  Rh  Rh125  1  0.75489200  0.91177400  0.28733800  1
  Rh  Rh126  1  0.27004400  0.06329000  0.33279200  1
  Rh  Rh127  1  0.12855600  0.74914100  0.27523900  1
  Rh  Rh128  1  0.43267700  0.68962600  0.32069300  1
  Rh  Rh129  1  0.29925500  0.45613800  0.28733800  1
  Rh  Rh130  1  0.72568000  0.51892600  0.33279200  1
  Rh  Rh131  1  0.59225900  0.28543800  0.29943700  1
  Rh  Rh132  1  0.89638000  0.22592300  0.34489100  1
  Rh  Rh133  1  0.11852900  0.54813800  0.37824700  1
  Rh  Rh134  1  0.63368000  0.69965300  0.42370100  1
  Rh  Rh135  1  0.49219200  0.38550400  0.36614800  1
  Rh  Rh136  1  0.79631400  0.32599000  0.41160200  1
  Rh  Rh137  1  0.66289200  0.09250100  0.37824700  1
  Rh  Rh138  1  0.08931700  0.15529000  0.42370100  1
  Rh  Rh139  1  0.95589500  0.92180200  0.39034600  1
  Rh  Rh140  1  0.26001700  0.86228700  0.43580000  1
  Rh  Rh141  1  0.48216500  0.18450200  0.46915600  1
  Rh  Rh142  1  0.99731600  0.33601700  0.51461000  1
  Rh  Rh143  1  0.85582800  0.02186800  0.45705700  1
  Rh  Rh144  1  0.15995000  0.96235300  0.50251100  1
  Rh  Rh145  1  0.02652800  0.72886500  0.46915600  1
  Rh  Rh146  1  0.45295300  0.79165400  0.51461000  1
  Rh  Rh147  1  0.31953100  0.55816500  0.48125500  1
  Rh  Rh148  1  0.62365300  0.49865100  0.52670900  1
  Rh  Rh149  1  0.84580100  0.82086500  0.56006500  1
  Rh  Rh150  1  0.36095300  0.97238100  0.60551900  1
  Rh  Rh151  1  0.21946500  0.65823200  0.54796600  1
  Rh  Rh152  1  0.52358600  0.59871700  0.59342000  1
  Rh  Rh153  1  0.39016400  0.36522900  0.56006500  1
  Rh  Rh154  1  0.81659000  0.42801700  0.60551900  1
  Rh  Rh155  1  0.68316800  0.19452900  0.57216400  1
  Rh  Rh156  1  0.98728900  0.13501400  0.61761900  1
  Rh  Rh157  1  0.20943800  0.45722900  0.65097400  1
  Rh  Rh158  1  0.72458900  0.60874400  0.69642900  1
  Rh  Rh159  1  0.58310100  0.29459500  0.63887500  1
  Rh  Rh160  1  0.88722300  0.23508100  0.68433000  1
  Rh  Rh161  1  0.75380100  0.00159200  0.65097400  1
  Rh  Rh162  1  0.18022600  0.06438100  0.69642900  1
  Rh  Rh163  1  0.04680400  0.83089300  0.66307300  1
  Rh  Rh164  1  0.35092600  0.77137800  0.70852800  1
  Rh  Rh165  1  0.57307400  0.09359300  0.74188300  1
  Rh  Rh166  1  0.08822600  0.24510800  0.78733800  1
  Rh  Rh167  1  0.94673700  0.93095900  0.72978400  1
  Rh  Rh168  1  0.25085900  0.87144400  0.77523900  1
  Rh  Rh169  1  0.11743700  0.63795600  0.74188300  1
  Rh  Rh170  1  0.54386200  0.70074500  0.78733800  1
  Rh  Rh171  1  0.41044000  0.46725600  0.75398200  1
  Rh  Rh172  1  0.71456200  0.40774100  0.79943700  1
