# generated using pymatgen
data_Er17Mg8
_symmetry_space_group_name_H-M   'P 1'
_cell_length_a   6.54038706
_cell_length_b   8.70370688
_cell_length_c   44.84936800
_cell_angle_alpha   88.66178197
_cell_angle_beta   85.96648255
_cell_angle_gamma   83.27744677
_symmetry_Int_Tables_number   1
_chemical_formula_structural   Er17Mg8
_chemical_formula_sum   'Er34 Mg16'
_cell_volume   2528.94949365
_cell_formula_units_Z   2
loop_
 _symmetry_equiv_pos_site_id
 _symmetry_equiv_pos_as_xyz
  1  'x, y, z'
loop_
 _atom_site_type_symbol
 _atom_site_label
 _atom_site_symmetry_multiplicity
 _atom_site_fract_x
 _atom_site_fract_y
 _atom_site_fract_z
 _atom_site_occupancy
  Er  Er0  1  0.52504900  0.44313000  0.74516500  1
  Er  Er1  1  0.29874300  0.75570800  0.79042700  1
  Er  Er2  1  0.92114800  0.04575900  0.76594600  1
  Er  Er3  1  0.81412100  0.66651400  0.78735100  1
  Er  Er4  1  0.85838200  0.50979700  0.67849900  1
  Er  Er5  1  0.63207600  0.82237500  0.72376000  1
  Er  Er6  1  0.25448100  0.11242600  0.69927900  1
  Er  Er7  1  0.14745400  0.73318100  0.72068400  1
  Er  Er8  1  0.19171600  0.57646300  0.61183200  1
  Er  Er9  1  0.96540900  0.88904100  0.65709300  1
  Er  Er10  1  0.58781400  0.17909200  0.63261200  1
  Er  Er11  1  0.48078800  0.79984700  0.65401800  1
  Er  Er12  1  0.52504900  0.64313000  0.54516500  1
  Er  Er13  1  0.29874300  0.95570800  0.59042700  1
  Er  Er14  1  0.92114800  0.24575900  0.56594600  1
  Er  Er15  1  0.81412100  0.86651400  0.58735100  1
  Er  Er16  1  0.85838200  0.70979700  0.47849900  1
  Er  Er17  1  0.63207600  0.02237500  0.52376000  1
  Er  Er18  1  0.25448100  0.31242600  0.49927900  1
  Er  Er19  1  0.14745400  0.93318100  0.52068400  1
  Er  Er20  1  0.19171600  0.77646300  0.41183200  1
  Er  Er21  1  0.96540900  0.08904100  0.45709300  1
  Er  Er22  1  0.58781400  0.37909200  0.43261200  1
  Er  Er23  1  0.48078800  0.99984700  0.45401800  1
  Er  Er24  1  0.52504900  0.84313000  0.34516500  1
  Er  Er25  1  0.29874300  0.15570800  0.39042700  1
  Er  Er26  1  0.92114800  0.44575900  0.36594600  1
  Er  Er27  1  0.81412100  0.06651400  0.38735100  1
  Er  Er28  1  0.85838200  0.90979700  0.27849900  1
  Er  Er29  1  0.63207600  0.22237500  0.32376000  1
  Er  Er30  1  0.25448100  0.51242600  0.29927900  1
  Er  Er31  1  0.14745400  0.13318100  0.32068400  1
  Er  Er32  1  0.96540900  0.28904100  0.25709300  1
  Er  Er33  1  0.48078800  0.19984700  0.25401800  1
  Mg  Mg34  1  0.41160600  0.10110000  0.76785400  1
  Mg  Mg35  1  0.03459100  0.38778900  0.74325700  1
  Mg  Mg36  1  0.74493900  0.16776700  0.70118700  1
  Mg  Mg37  1  0.36792400  0.45445500  0.67659000  1
  Mg  Mg38  1  0.07827300  0.23443400  0.63452100  1
  Mg  Mg39  1  0.70125700  0.52112200  0.60992400  1
  Mg  Mg40  1  0.41160600  0.30110000  0.56785400  1
  Mg  Mg41  1  0.03459100  0.58778900  0.54325700  1
  Mg  Mg42  1  0.74493900  0.36776700  0.50118700  1
  Mg  Mg43  1  0.36792400  0.65445500  0.47659000  1
  Mg  Mg44  1  0.07827300  0.43443400  0.43452100  1
  Mg  Mg45  1  0.70125700  0.72112200  0.40992400  1
  Mg  Mg46  1  0.41160600  0.50110000  0.36785400  1
  Mg  Mg47  1  0.03459100  0.78778900  0.34325700  1
  Mg  Mg48  1  0.74493900  0.56776700  0.30118700  1
  Mg  Mg49  1  0.36792400  0.85445500  0.27659000  1
