# generated using pymatgen
data_MgPd2
_symmetry_space_group_name_H-M   'P 1'
_cell_length_a   4.19057600
_cell_length_b   5.53884600
_cell_length_c   49.07721500
_cell_angle_alpha   90.00000000
_cell_angle_beta   90.00000000
_cell_angle_gamma   90.00000000
_symmetry_Int_Tables_number   1
_chemical_formula_structural   MgPd2
_chemical_formula_sum   'Mg14 Pd28'
_cell_volume   1139.12903455
_cell_formula_units_Z   14
loop_
 _symmetry_equiv_pos_site_id
 _symmetry_equiv_pos_as_xyz
  1  'x, y, z'
loop_
 _atom_site_type_symbol
 _atom_site_label
 _atom_site_symmetry_multiplicity
 _atom_site_fract_x
 _atom_site_fract_y
 _atom_site_fract_z
 _atom_site_occupancy
  Mg  Mg0  1  0.75000000  0.16860900  0.19195400  1
  Mg  Mg1  1  0.25000000  0.83139100  0.22471200  1
  Mg  Mg2  1  0.75000000  0.66860900  0.30804600  1
  Mg  Mg3  1  0.25000000  0.33139100  0.27528800  1
  Mg  Mg4  1  0.75000000  0.16860900  0.35862100  1
  Mg  Mg5  1  0.25000000  0.83139100  0.39137900  1
  Mg  Mg6  1  0.75000000  0.66860900  0.47471200  1
  Mg  Mg7  1  0.25000000  0.33139100  0.44195400  1
  Mg  Mg8  1  0.75000000  0.16860900  0.52528800  1
  Mg  Mg9  1  0.25000000  0.83139100  0.55804600  1
  Mg  Mg10  1  0.75000000  0.66860900  0.64137900  1
  Mg  Mg11  1  0.25000000  0.33139100  0.60862100  1
  Mg  Mg12  1  0.75000000  0.16860900  0.69195400  1
  Mg  Mg13  1  0.25000000  0.83139100  0.72471200  1
  Pd  Pd14  1  0.75000000  0.15889900  0.30377000  1
  Pd  Pd15  1  0.25000000  0.84110100  0.27956300  1
  Pd  Pd16  1  0.75000000  0.65889900  0.19623000  1
  Pd  Pd17  1  0.25000000  0.34110100  0.22043700  1
  Pd  Pd18  1  0.75000000  0.06807400  0.24764800  1
  Pd  Pd19  1  0.25000000  0.93192600  0.16901900  1
  Pd  Pd20  1  0.75000000  0.56807400  0.25235200  1
  Pd  Pd21  1  0.25000000  0.43192600  0.33098100  1
  Pd  Pd22  1  0.75000000  0.15889900  0.47043700  1
  Pd  Pd23  1  0.25000000  0.84110100  0.44623000  1
  Pd  Pd24  1  0.75000000  0.65889900  0.36289600  1
  Pd  Pd25  1  0.25000000  0.34110100  0.38710400  1
  Pd  Pd26  1  0.75000000  0.06807400  0.41431400  1
  Pd  Pd27  1  0.25000000  0.93192600  0.33568600  1
  Pd  Pd28  1  0.75000000  0.56807400  0.41901900  1
  Pd  Pd29  1  0.25000000  0.43192600  0.49764800  1
  Pd  Pd30  1  0.75000000  0.15889900  0.63710400  1
  Pd  Pd31  1  0.25000000  0.84110100  0.61289600  1
  Pd  Pd32  1  0.75000000  0.65889900  0.52956300  1
  Pd  Pd33  1  0.25000000  0.34110100  0.55377000  1
  Pd  Pd34  1  0.75000000  0.06807400  0.58098100  1
  Pd  Pd35  1  0.25000000  0.93192600  0.50235200  1
  Pd  Pd36  1  0.75000000  0.56807400  0.58568600  1
  Pd  Pd37  1  0.25000000  0.43192600  0.66431400  1
  Pd  Pd38  1  0.75000000  0.65889900  0.69623000  1
  Pd  Pd39  1  0.25000000  0.34110100  0.72043700  1
  Pd  Pd40  1  0.75000000  0.06807400  0.74764800  1
  Pd  Pd41  1  0.25000000  0.93192600  0.66901900  1
