# generated using pymatgen
data_Mg13Zn24
_symmetry_space_group_name_H-M   'P 1'
_cell_length_a   5.07402237
_cell_length_b   17.20699092
_cell_length_c   54.58155700
_cell_angle_alpha   87.89733091
_cell_angle_beta   92.22235669
_cell_angle_gamma   98.42726965
_symmetry_Int_Tables_number   1
_chemical_formula_structural   Mg13Zn24
_chemical_formula_sum   'Mg52 Zn96'
_cell_volume   4708.12472958
_cell_formula_units_Z   4
loop_
 _symmetry_equiv_pos_site_id
 _symmetry_equiv_pos_as_xyz
  1  'x, y, z'
loop_
 _atom_site_type_symbol
 _atom_site_label
 _atom_site_symmetry_multiplicity
 _atom_site_fract_x
 _atom_site_fract_y
 _atom_site_fract_z
 _atom_site_occupancy
  Mg  Mg0  1  0.46030700  0.42796400  0.36107200  1
  Mg  Mg1  1  0.11741400  0.81215600  0.27941700  1
  Mg  Mg2  1  0.91191800  0.34005800  0.34541800  1
  Mg  Mg3  1  0.03376700  0.63411700  0.30251100  1
  Mg  Mg4  1  0.82062400  0.19485800  0.31640000  1
  Mg  Mg5  1  0.53720500  0.60440200  0.33747300  1
  Mg  Mg6  1  0.61512800  0.72276000  0.38240100  1
  Mg  Mg7  1  0.19533700  0.93051400  0.32434500  1
  Mg  Mg8  1  0.37980500  0.31906700  0.30917000  1
  Mg  Mg9  1  0.69877500  0.90079900  0.35930700  1
  Mg  Mg10  1  0.27223500  0.10695200  0.30074600  1
  Mg  Mg11  1  0.35273700  0.21584900  0.35264900  1
  Mg  Mg12  1  0.26030700  0.82796400  0.56107200  1
  Mg  Mg13  1  0.19873000  0.81170900  0.45974700  1
  Mg  Mg14  1  0.91741400  0.21215600  0.47941700  1
  Mg  Mg15  1  0.71191800  0.74005800  0.54541800  1
  Mg  Mg16  1  0.75578800  0.91843700  0.45747600  1
  Mg  Mg17  1  0.49174000  0.42192500  0.42216900  1
  Mg  Mg18  1  0.83376700  0.03411700  0.50251100  1
  Mg  Mg19  1  0.62062400  0.59485800  0.51640000  1
  Mg  Mg20  1  0.33720500  0.00440200  0.53747300  1
  Mg  Mg21  1  0.77675400  0.01647900  0.40434200  1
  Mg  Mg22  1  0.41512800  0.12276000  0.58240100  1
  Mg  Mg23  1  0.99533700  0.33051400  0.52434500  1
  Mg  Mg24  1  0.17980500  0.71906700  0.50917000  1
  Mg  Mg25  1  0.41125500  0.24411700  0.44482400  1
  Mg  Mg26  1  0.12128700  0.69079900  0.41699400  1
  Mg  Mg27  1  0.49877500  0.30079900  0.55930700  1
  Mg  Mg28  1  0.07223500  0.50695200  0.50074600  1
  Mg  Mg29  1  0.04080200  0.51299100  0.43964900  1
  Mg  Mg30  1  0.33381200  0.12320700  0.40207100  1
  Mg  Mg31  1  0.15273700  0.61584900  0.55264900  1
  Mg  Mg32  1  0.06030700  0.22796400  0.76107200  1
  Mg  Mg33  1  0.99873000  0.21170900  0.65974700  1
  Mg  Mg34  1  0.71741400  0.61215600  0.67941700  1
  Mg  Mg35  1  0.51191800  0.14005800  0.74541800  1
  Mg  Mg36  1  0.55578800  0.31843700  0.65747600  1
  Mg  Mg37  1  0.29174000  0.82192500  0.62216900  1
  Mg  Mg38  1  0.63376700  0.43411700  0.70251100  1
  Mg  Mg39  1  0.42062400  0.99485800  0.71640000  1
  Mg  Mg40  1  0.13720500  0.40440200  0.73747300  1
  Mg  Mg41  1  0.57675400  0.41647900  0.60434200  1
  Mg  Mg42  1  0.21512800  0.52276000  0.78240100  1
  Mg  Mg43  1  0.79533700  0.73051400  0.72434500  1
  Mg  Mg44  1  0.97980500  0.11906700  0.70917000  1
  Mg  Mg45  1  0.21125500  0.64411700  0.64482400  1
  Mg  Mg46  1  0.92128700  0.09079900  0.61699400  1
  Mg  Mg47  1  0.29877500  0.70079900  0.75930700  1
  Mg  Mg48  1  0.87223500  0.90695200  0.70074600  1
  Mg  Mg49  1  0.84080200  0.91299100  0.63964900  1
  Mg  Mg50  1  0.13381200  0.52320700  0.60207100  1
  Mg  Mg51  1  0.95273700  0.01584900  0.75264900  1
  Zn  Zn52  1  0.48895000  0.57240200  0.27952600  1
  Zn  Zn53  1  0.89133700  0.36272200  0.28723500  1
  Zn  Zn54  1  0.08313700  0.66431100  0.36076200  1
  Zn  Zn55  1  0.52258200  0.06057900  0.35162500  1
  Zn  Zn56  1  0.70541700  0.47343200  0.30913100  1
  Zn  Zn57  1  0.86627100  0.76745800  0.33090900  1
  Zn  Zn58  1  0.24359200  0.96251400  0.38229200  1
  Zn  Zn59  1  0.78870500  0.56042300  0.38963000  1
  Zn  Zn60  1  0.97511300  0.42601500  0.39178600  1
  Zn  Zn61  1  0.57452500  0.72244200  0.29160100  1
  Zn  Zn62  1  0.84120500  0.17219400  0.37458300  1
  Zn  Zn63  1  0.16900300  0.29234500  0.39318100  1
  Zn  Zn64  1  0.02712500  0.06148400  0.35268700  1
  Zn  Zn65  1  0.15801700  0.81247400  0.37021800  1
  Zn  Zn66  1  0.56353900  0.24257100  0.26863700  1
  Zn  Zn67  1  0.36627100  0.76745800  0.33090900  1
  Zn  Zn68  1  0.99467600  0.51788500  0.34839200  1
  Zn  Zn69  1  0.29311400  0.56070900  0.39003600  1
  Zn  Zn70  1  0.65517500  0.29238000  0.39228900  1
  Zn  Zn71  1  0.73786600  0.01703100  0.31342700  1
  Zn  Zn72  1  0.07736700  0.24253600  0.26952900  1
  Zn  Zn73  1  0.43942800  0.97420700  0.27178200  1
  Zn  Zn74  1  0.20996000  0.47433700  0.31019300  1
  Zn  Zn75  1  0.94383700  0.97449300  0.27218900  1
  Zn  Zn76  1  0.75742900  0.10890100  0.27003200  1
  Zn  Zn77  1  0.64940500  0.87060500  0.30105600  1
  Zn  Zn78  1  0.28895000  0.97240200  0.47952600  1
  Zn  Zn79  1  0.69133700  0.76272200  0.48723500  1
  Zn  Zn80  1  0.88313700  0.06431100  0.56076200  1
  Zn  Zn81  1  0.32258200  0.46057900  0.55162500  1
  Zn  Zn82  1  0.94250600  0.84997300  0.41054900  1
  Zn  Zn83  1  0.50541700  0.87343200  0.50913100  1
  Zn  Zn84  1  0.66627100  0.16745800  0.53090900  1
  Zn  Zn85  1  0.04359200  0.36251400  0.58229200  1
  Zn  Zn86  1  0.58200600  0.59972700  0.42849700  1
  Zn  Zn87  1  0.08376200  0.08516100  0.45132200  1
  Zn  Zn88  1  0.58870500  0.96042300  0.58963000  1
  Zn  Zn89  1  0.77511300  0.82601500  0.59178600  1
  Zn  Zn90  1  0.37452500  0.12244200  0.49160100  1
  Zn  Zn91  1  0.87561000  0.18335700  0.42267000  1
  Zn  Zn92  1  0.64120500  0.57219400  0.57458300  1
  Zn  Zn93  1  0.95053600  0.33518900  0.43332100  1
  Zn  Zn94  1  0.96900300  0.69234500  0.59318100  1
  Zn  Zn95  1  0.44878000  0.84975500  0.41049600  1
  Zn  Zn96  1  0.82712500  0.46148400  0.55268700  1
  Zn  Zn97  1  0.95801700  0.21247400  0.57021800  1
  Zn  Zn98  1  0.36353900  0.64257100  0.46863700  1
  Zn  Zn99  1  0.59003600  0.08494300  0.45126900  1
  Zn  Zn100  1  0.16627100  0.16745800  0.53090900  1
  Zn  Zn101  1  0.79467600  0.91788500  0.54839200  1
  Zn  Zn102  1  0.09311400  0.96070900  0.59003600  1
  Zn  Zn103  1  0.45517500  0.69238000  0.59228900  1
  Zn  Zn104  1  0.53786600  0.41703100  0.51342700  1
  Zn  Zn105  1  0.87736700  0.64253600  0.46952900  1
  Zn  Zn106  1  0.65693200  0.75155900  0.43914800  1
  Zn  Zn107  1  0.23942800  0.37420700  0.47178200  1
  Zn  Zn108  1  0.00996000  0.87433700  0.51019300  1
  Zn  Zn109  1  0.26627100  0.96745800  0.43090900  1
  Zn  Zn110  1  0.74383700  0.37449300  0.47218900  1
  Zn  Zn111  1  0.55742900  0.50890100  0.47003200  1
  Zn  Zn112  1  0.44940500  0.27060500  0.50105600  1
  Zn  Zn113  1  0.08895000  0.37240200  0.67952600  1
  Zn  Zn114  1  0.49133700  0.16272200  0.68723500  1
  Zn  Zn115  1  0.68313700  0.46431100  0.76076200  1
  Zn  Zn116  1  0.12258200  0.86057900  0.75162500  1
  Zn  Zn117  1  0.74250600  0.24997300  0.61054900  1
  Zn  Zn118  1  0.30541700  0.27343200  0.70913100  1
  Zn  Zn119  1  0.46627100  0.56745800  0.73090900  1
  Zn  Zn120  1  0.84359200  0.76251400  0.78229200  1
  Zn  Zn121  1  0.38200600  0.99972700  0.62849700  1
  Zn  Zn122  1  0.88376200  0.48516100  0.65132200  1
  Zn  Zn123  1  0.38870500  0.36042300  0.78963000  1
  Zn  Zn124  1  0.57511300  0.22601500  0.79178600  1
  Zn  Zn125  1  0.17452500  0.52244200  0.69160100  1
  Zn  Zn126  1  0.67561000  0.58335700  0.62267000  1
  Zn  Zn127  1  0.44120500  0.97219400  0.77458300  1
  Zn  Zn128  1  0.75053600  0.73518900  0.63332100  1
  Zn  Zn129  1  0.76900300  0.09234500  0.79318100  1
  Zn  Zn130  1  0.24878000  0.24975500  0.61049600  1
  Zn  Zn131  1  0.62712500  0.86148400  0.75268700  1
  Zn  Zn132  1  0.75801700  0.61247400  0.77021800  1
  Zn  Zn133  1  0.16353900  0.04257100  0.66863700  1
  Zn  Zn134  1  0.39003600  0.48494300  0.65126900  1
  Zn  Zn135  1  0.96627100  0.56745800  0.73090900  1
  Zn  Zn136  1  0.59467600  0.31788500  0.74839200  1
  Zn  Zn137  1  0.89311400  0.36070900  0.79003600  1
  Zn  Zn138  1  0.25517500  0.09238000  0.79228900  1
  Zn  Zn139  1  0.33786600  0.81703100  0.71342700  1
  Zn  Zn140  1  0.67736700  0.04253600  0.66952900  1
  Zn  Zn141  1  0.45693200  0.15155900  0.63914800  1
  Zn  Zn142  1  0.03942800  0.77420700  0.67178200  1
  Zn  Zn143  1  0.80996000  0.27433700  0.71019300  1
  Zn  Zn144  1  0.06627100  0.36745800  0.63090900  1
  Zn  Zn145  1  0.54383700  0.77449300  0.67218900  1
  Zn  Zn146  1  0.35742900  0.90890100  0.67003200  1
  Zn  Zn147  1  0.24940500  0.67060500  0.70105600  1
