# generated using pymatgen
data_MgAg3
_symmetry_space_group_name_H-M   'P 1'
_cell_length_a   4.80183000
_cell_length_b   5.90771900
_cell_length_c   40.92988000
_cell_angle_alpha   90.00000000
_cell_angle_beta   90.00000000
_cell_angle_gamma   90.00000000
_symmetry_Int_Tables_number   1
_chemical_formula_structural   MgAg3
_chemical_formula_sum   'Mg10 Ag30'
_cell_volume   1161.09320085
_cell_formula_units_Z   10
loop_
 _symmetry_equiv_pos_site_id
 _symmetry_equiv_pos_as_xyz
  1  'x, y, z'
loop_
 _atom_site_type_symbol
 _atom_site_label
 _atom_site_symmetry_multiplicity
 _atom_site_fract_x
 _atom_site_fract_y
 _atom_site_fract_z
 _atom_site_occupancy
  Mg  Mg0  1  0.75000000  0.25000000  0.29166700  1
  Mg  Mg1  1  0.25000000  0.25000000  0.20833300  1
  Mg  Mg2  1  0.75000000  0.75000000  0.41666700  1
  Mg  Mg3  1  0.25000000  0.75000000  0.33333300  1
  Mg  Mg4  1  0.75000000  0.25000000  0.54166700  1
  Mg  Mg5  1  0.25000000  0.25000000  0.45833300  1
  Mg  Mg6  1  0.75000000  0.75000000  0.66666700  1
  Mg  Mg7  1  0.25000000  0.75000000  0.58333300  1
  Mg  Mg8  1  0.75000000  0.25000000  0.79166700  1
  Mg  Mg9  1  0.25000000  0.25000000  0.70833300  1
  Ag  Ag10  1  0.75000000  0.75000000  0.29166000  1
  Ag  Ag11  1  0.75000000  0.99995900  0.22917000  1
  Ag  Ag12  1  0.75000000  0.50004100  0.22917000  1
  Ag  Ag13  1  0.25000000  0.99995900  0.27083000  1
  Ag  Ag14  1  0.25000000  0.50004100  0.27083000  1
  Ag  Ag15  1  0.25000000  0.75000000  0.20834000  1
  Ag  Ag16  1  0.75000000  0.25000000  0.41666000  1
  Ag  Ag17  1  0.75000000  0.49995900  0.35417000  1
  Ag  Ag18  1  0.75000000  0.00004100  0.35417000  1
  Ag  Ag19  1  0.25000000  0.49995900  0.39583000  1
  Ag  Ag20  1  0.25000000  0.00004100  0.39583000  1
  Ag  Ag21  1  0.25000000  0.25000000  0.33334000  1
  Ag  Ag22  1  0.75000000  0.75000000  0.54166000  1
  Ag  Ag23  1  0.75000000  0.99995900  0.47917000  1
  Ag  Ag24  1  0.75000000  0.50004100  0.47917000  1
  Ag  Ag25  1  0.25000000  0.99995900  0.52083000  1
  Ag  Ag26  1  0.25000000  0.50004100  0.52083000  1
  Ag  Ag27  1  0.25000000  0.75000000  0.45834000  1
  Ag  Ag28  1  0.75000000  0.25000000  0.66666000  1
  Ag  Ag29  1  0.75000000  0.49995900  0.60417000  1
  Ag  Ag30  1  0.75000000  0.00004100  0.60417000  1
  Ag  Ag31  1  0.25000000  0.49995900  0.64583000  1
  Ag  Ag32  1  0.25000000  0.00004100  0.64583000  1
  Ag  Ag33  1  0.25000000  0.25000000  0.58334000  1
  Ag  Ag34  1  0.75000000  0.75000000  0.79166000  1
  Ag  Ag35  1  0.75000000  0.99995900  0.72917000  1
  Ag  Ag36  1  0.75000000  0.50004100  0.72917000  1
  Ag  Ag37  1  0.25000000  0.99995900  0.77083000  1
  Ag  Ag38  1  0.25000000  0.50004100  0.77083000  1
  Ag  Ag39  1  0.25000000  0.75000000  0.70834000  1
