# generated using pymatgen
data_Mg7Zn8
_symmetry_space_group_name_H-M   'P 1'
_cell_length_a   3.26915800
_cell_length_b   6.65860591
_cell_length_c   43.27254900
_cell_angle_alpha   92.06015934
_cell_angle_beta   90.00000000
_cell_angle_gamma   90.00000000
_symmetry_Int_Tables_number   1
_chemical_formula_structural   Mg7Zn8
_chemical_formula_sum   'Mg14 Zn16'
_cell_volume   941.34949986
_cell_formula_units_Z   2
loop_
 _symmetry_equiv_pos_site_id
 _symmetry_equiv_pos_as_xyz
  1  'x, y, z'
loop_
 _atom_site_type_symbol
 _atom_site_label
 _atom_site_symmetry_multiplicity
 _atom_site_fract_x
 _atom_site_fract_y
 _atom_site_fract_z
 _atom_site_occupancy
  Mg  Mg0  1  0.50000000  0.42198300  0.25315500  1
  Mg  Mg1  1  0.50000000  0.87781900  0.24684500  1
  Mg  Mg2  1  0.50000000  0.96044500  0.33007800  1
  Mg  Mg3  1  0.50000000  0.41628000  0.32376800  1
  Mg  Mg4  1  0.50000000  0.49890600  0.40700100  1
  Mg  Mg5  1  0.50000000  0.95474200  0.40069200  1
  Mg  Mg6  1  0.50000000  0.03736800  0.48392400  1
  Mg  Mg7  1  0.50000000  0.49320300  0.47761500  1
  Mg  Mg8  1  0.50000000  0.57582900  0.56084700  1
  Mg  Mg9  1  0.50000000  0.03166500  0.55453800  1
  Mg  Mg10  1  0.50000000  0.11429100  0.63777000  1
  Mg  Mg11  1  0.50000000  0.57012600  0.63146100  1
  Mg  Mg12  1  0.50000000  0.65275200  0.71469300  1
  Mg  Mg13  1  0.50000000  0.10858800  0.70838400  1
  Zn  Zn14  1  0.00000000  0.16195800  0.21600800  1
  Zn  Zn15  1  0.00000000  0.59938200  0.20706900  1
  Zn  Zn16  1  0.00000000  0.70042000  0.29293100  1
  Zn  Zn17  1  0.00000000  0.13784400  0.28399200  1
  Zn  Zn18  1  1.00000000  0.23888100  0.36985400  1
  Zn  Zn19  1  0.00000000  0.67630500  0.36091500  1
  Zn  Zn20  1  0.00000000  0.77734300  0.44677700  1
  Zn  Zn21  1  0.00000000  0.21476700  0.43783800  1
  Zn  Zn22  1  1.00000000  0.31580400  0.52370000  1
  Zn  Zn23  1  0.00000000  0.75322800  0.51476100  1
  Zn  Zn24  1  1.00000000  0.85426600  0.60062400  1
  Zn  Zn25  1  0.00000000  0.29169000  0.59168400  1
  Zn  Zn26  1  0.00000000  0.39272700  0.67754700  1
  Zn  Zn27  1  1.00000000  0.83015100  0.66860700  1
  Zn  Zn28  1  0.00000000  0.93118900  0.75447000  1
  Zn  Zn29  1  0.00000000  0.36861300  0.74553000  1
