# generated using pymatgen
data_Mg25Zn9
_symmetry_space_group_name_H-M   'P 1'
_cell_length_a   4.95983900
_cell_length_b   10.64430500
_cell_length_c   43.01844600
_cell_angle_alpha   90.00000000
_cell_angle_beta   90.00000000
_cell_angle_gamma   90.00000000
_symmetry_Int_Tables_number   1
_chemical_formula_structural   Mg25Zn9
_chemical_formula_sum   'Mg50 Zn18'
_cell_volume   2271.11751872
_cell_formula_units_Z   2
loop_
 _symmetry_equiv_pos_site_id
 _symmetry_equiv_pos_as_xyz
  1  'x, y, z'
loop_
 _atom_site_type_symbol
 _atom_site_label
 _atom_site_symmetry_multiplicity
 _atom_site_fract_x
 _atom_site_fract_y
 _atom_site_fract_z
 _atom_site_occupancy
  Mg  Mg0  1  0.75000000  0.45162000  0.23214300  1
  Mg  Mg1  1  0.25000000  0.79262600  0.23214300  1
  Mg  Mg2  1  0.75000000  0.95162000  0.30357100  1
  Mg  Mg3  1  0.75000000  0.20737400  0.26703500  1
  Mg  Mg4  1  0.75000000  0.70737400  0.26867900  1
  Mg  Mg5  1  0.25000000  0.53687200  0.26867900  1
  Mg  Mg6  1  0.25000000  0.03687200  0.26703500  1
  Mg  Mg7  1  0.25000000  0.29262600  0.30357100  1
  Mg  Mg8  1  0.75000000  0.45162000  0.37500000  1
  Mg  Mg9  1  0.75000000  0.70737400  0.33846400  1
  Mg  Mg10  1  0.75000000  0.20737400  0.34010800  1
  Mg  Mg11  1  0.25000000  0.03687200  0.34010800  1
  Mg  Mg12  1  0.25000000  0.53687200  0.33846400  1
  Mg  Mg13  1  0.25000000  0.79262600  0.37500000  1
  Mg  Mg14  1  0.75000000  0.95162000  0.44642900  1
  Mg  Mg15  1  0.75000000  0.20737400  0.40989200  1
  Mg  Mg16  1  0.75000000  0.70737400  0.41153600  1
  Mg  Mg17  1  0.25000000  0.53687200  0.41153600  1
  Mg  Mg18  1  0.25000000  0.03687200  0.40989200  1
  Mg  Mg19  1  0.25000000  0.29262600  0.44642900  1
  Mg  Mg20  1  0.75000000  0.45162000  0.51785700  1
  Mg  Mg21  1  0.75000000  0.70737400  0.48132100  1
  Mg  Mg22  1  0.75000000  0.20737400  0.48296500  1
  Mg  Mg23  1  0.25000000  0.03687200  0.48296500  1
  Mg  Mg24  1  0.25000000  0.53687200  0.48132100  1
  Mg  Mg25  1  0.25000000  0.79262600  0.51785700  1
  Mg  Mg26  1  0.75000000  0.95162000  0.58928600  1
  Mg  Mg27  1  0.75000000  0.20737400  0.55274900  1
  Mg  Mg28  1  0.75000000  0.70737400  0.55439300  1
  Mg  Mg29  1  0.25000000  0.53687200  0.55439300  1
  Mg  Mg30  1  0.25000000  0.03687200  0.55274900  1
  Mg  Mg31  1  0.25000000  0.29262600  0.58928600  1
  Mg  Mg32  1  0.75000000  0.45162000  0.66071400  1
  Mg  Mg33  1  0.75000000  0.70737400  0.62417800  1
  Mg  Mg34  1  0.75000000  0.20737400  0.62582200  1
  Mg  Mg35  1  0.25000000  0.03687200  0.62582200  1
  Mg  Mg36  1  0.25000000  0.53687200  0.62417800  1
  Mg  Mg37  1  0.25000000  0.79262600  0.66071400  1
  Mg  Mg38  1  0.75000000  0.95162000  0.73214300  1
  Mg  Mg39  1  0.75000000  0.20737400  0.69560700  1
  Mg  Mg40  1  0.75000000  0.70737400  0.69725100  1
  Mg  Mg41  1  0.25000000  0.53687200  0.69725100  1
  Mg  Mg42  1  0.25000000  0.03687200  0.69560700  1
  Mg  Mg43  1  0.25000000  0.29262600  0.73214300  1
  Mg  Mg44  1  0.75000000  0.45162000  0.80357100  1
  Mg  Mg45  1  0.75000000  0.70737400  0.76703500  1
  Mg  Mg46  1  0.75000000  0.20737400  0.76867900  1
  Mg  Mg47  1  0.25000000  0.03687200  0.76867900  1
  Mg  Mg48  1  0.25000000  0.53687200  0.76703500  1
  Mg  Mg49  1  0.25000000  0.79262600  0.80357100  1
  Zn  Zn50  1  0.75000000  0.95545600  0.23214300  1
  Zn  Zn51  1  0.25000000  0.28879000  0.23214300  1
  Zn  Zn52  1  0.75000000  0.45545600  0.30357100  1
  Zn  Zn53  1  0.25000000  0.78879000  0.30357100  1
  Zn  Zn54  1  0.75000000  0.95545600  0.37500000  1
  Zn  Zn55  1  0.25000000  0.28879000  0.37500000  1
  Zn  Zn56  1  0.75000000  0.45545600  0.44642900  1
  Zn  Zn57  1  0.25000000  0.78879000  0.44642900  1
  Zn  Zn58  1  0.75000000  0.95545600  0.51785700  1
  Zn  Zn59  1  0.25000000  0.28879000  0.51785700  1
  Zn  Zn60  1  0.75000000  0.45545600  0.58928600  1
  Zn  Zn61  1  0.25000000  0.78879000  0.58928600  1
  Zn  Zn62  1  0.75000000  0.95545600  0.66071400  1
  Zn  Zn63  1  0.25000000  0.28879000  0.66071400  1
  Zn  Zn64  1  0.75000000  0.45545600  0.73214300  1
  Zn  Zn65  1  0.25000000  0.78879000  0.73214300  1
  Zn  Zn66  1  0.75000000  0.95545600  0.80357100  1
  Zn  Zn67  1  0.25000000  0.28879000  0.80357100  1
