# generated using pymatgen
data_Mg57Ga22
_symmetry_space_group_name_H-M   'P 1'
_cell_length_a   9.16112904
_cell_length_b   15.19729366
_cell_length_c   43.27204700
_cell_angle_alpha   89.39542574
_cell_angle_beta   90.04668781
_cell_angle_gamma   74.44431518
_symmetry_Int_Tables_number   1
_chemical_formula_structural   Mg57Ga22
_chemical_formula_sum   'Mg114 Ga44'
_cell_volume   5803.48213205
_cell_formula_units_Z   2
loop_
 _symmetry_equiv_pos_site_id
 _symmetry_equiv_pos_as_xyz
  1  'x, y, z'
loop_
 _atom_site_type_symbol
 _atom_site_label
 _atom_site_symmetry_multiplicity
 _atom_site_fract_x
 _atom_site_fract_y
 _atom_site_fract_z
 _atom_site_occupancy
  Mg  Mg0  1  0.63758800  0.07822200  0.20595400  1
  Mg  Mg1  1  0.81722000  0.41048000  0.20833200  1
  Mg  Mg2  1  0.80373400  0.32939500  0.28941800  1
  Mg  Mg3  1  0.25107400  0.05930800  0.22486800  1
  Mg  Mg4  1  0.97740400  0.99435100  0.20714300  1
  Mg  Mg5  1  0.77740400  0.94435100  0.25714300  1
  Mg  Mg6  1  0.88352900  0.20557000  0.23061200  1
  Mg  Mg7  1  0.37127900  0.23313200  0.23367400  1
  Mg  Mg8  1  0.17127900  0.18313200  0.28367400  1
  Mg  Mg9  1  0.68352900  0.15557000  0.28061200  1
  Mg  Mg10  1  0.93758800  0.52822200  0.25595400  1
  Mg  Mg11  1  0.11722000  0.86048000  0.25833200  1
  Mg  Mg12  1  0.50373400  0.87939500  0.23941800  1
  Mg  Mg13  1  0.55107400  0.50930800  0.27486800  1
  Mg  Mg14  1  0.27740400  0.44435100  0.25714300  1
  Mg  Mg15  1  0.47740400  0.49435100  0.20714300  1
  Mg  Mg16  1  0.18352900  0.65557000  0.28061200  1
  Mg  Mg17  1  0.67127900  0.68313200  0.28367400  1
  Mg  Mg18  1  0.87127900  0.73313200  0.23367400  1
  Mg  Mg19  1  0.38352900  0.70557000  0.23061200  1
  Mg  Mg20  1  0.23758800  0.97822200  0.30595400  1
  Mg  Mg21  1  0.41722000  0.31048000  0.30833200  1
  Mg  Mg22  1  0.40373400  0.22939500  0.38941800  1
  Mg  Mg23  1  0.85107400  0.95930800  0.32486800  1
  Mg  Mg24  1  0.57740400  0.89435100  0.30714300  1
  Mg  Mg25  1  0.37740400  0.84435100  0.35714300  1
  Mg  Mg26  1  0.48352900  0.10557000  0.33061200  1
  Mg  Mg27  1  0.97127900  0.13313200  0.33367400  1
  Mg  Mg28  1  0.77127900  0.08313200  0.38367400  1
  Mg  Mg29  1  0.28352900  0.05557000  0.38061200  1
  Mg  Mg30  1  0.53758800  0.42822200  0.35595400  1
  Mg  Mg31  1  0.71722000  0.76048000  0.35833200  1
  Mg  Mg32  1  0.10373400  0.77939500  0.33941800  1
  Mg  Mg33  1  0.15107400  0.40930800  0.37486800  1
  Mg  Mg34  1  0.87740400  0.34435100  0.35714300  1
  Mg  Mg35  1  0.07740400  0.39435100  0.30714300  1
  Mg  Mg36  1  0.78352900  0.55557000  0.38061200  1
  Mg  Mg37  1  0.27127900  0.58313200  0.38367400  1
  Mg  Mg38  1  0.47127900  0.63313200  0.33367400  1
  Mg  Mg39  1  0.98352900  0.60557000  0.33061200  1
  Mg  Mg40  1  0.83758800  0.87822200  0.40595400  1
  Mg  Mg41  1  0.01722000  0.21048000  0.40833200  1
  Mg  Mg42  1  0.00373400  0.12939500  0.48941800  1
  Mg  Mg43  1  0.45107400  0.85930800  0.42486800  1
  Mg  Mg44  1  0.17740400  0.79435100  0.40714300  1
  Mg  Mg45  1  0.97740400  0.74435100  0.45714300  1
  Mg  Mg46  1  0.08352900  0.00557000  0.43061200  1
  Mg  Mg47  1  0.57127900  0.03313200  0.43367400  1
  Mg  Mg48  1  0.37127900  0.98313200  0.48367400  1
  Mg  Mg49  1  0.88352900  0.95557000  0.48061200  1
  Mg  Mg50  1  0.13758800  0.32822200  0.45595400  1
  Mg  Mg51  1  0.31722000  0.66048000  0.45833200  1
  Mg  Mg52  1  0.70373400  0.67939500  0.43941800  1
  Mg  Mg53  1  0.75107400  0.30930800  0.47486800  1
  Mg  Mg54  1  0.47740400  0.24435100  0.45714300  1
  Mg  Mg55  1  0.67740400  0.29435100  0.40714300  1
  Mg  Mg56  1  0.38352900  0.45557000  0.48061200  1
  Mg  Mg57  1  0.87127900  0.48313200  0.48367400  1
  Mg  Mg58  1  0.07127900  0.53313200  0.43367400  1
  Mg  Mg59  1  0.58352900  0.50557000  0.43061200  1
  Mg  Mg60  1  0.43758800  0.77822200  0.50595400  1
  Mg  Mg61  1  0.61722000  0.11048000  0.50833200  1
  Mg  Mg62  1  0.60373400  0.02939500  0.58941800  1
  Mg  Mg63  1  0.05107400  0.75930800  0.52486800  1
  Mg  Mg64  1  0.77740400  0.69435100  0.50714300  1
  Mg  Mg65  1  0.57740400  0.64435100  0.55714300  1
  Mg  Mg66  1  0.68352900  0.90557000  0.53061200  1
  Mg  Mg67  1  0.17127900  0.93313200  0.53367400  1
  Mg  Mg68  1  0.97127900  0.88313200  0.58367400  1
  Mg  Mg69  1  0.48352900  0.85557000  0.58061200  1
  Mg  Mg70  1  0.73758800  0.22822200  0.55595400  1
  Mg  Mg71  1  0.91722000  0.56048000  0.55833200  1
  Mg  Mg72  1  0.30373400  0.57939500  0.53941800  1
  Mg  Mg73  1  0.35107400  0.20930800  0.57486800  1
  Mg  Mg74  1  0.07740400  0.14435100  0.55714300  1
  Mg  Mg75  1  0.27740400  0.19435100  0.50714300  1
  Mg  Mg76  1  0.98352900  0.35557000  0.58061200  1
  Mg  Mg77  1  0.47127900  0.38313200  0.58367400  1
  Mg  Mg78  1  0.67127900  0.43313200  0.53367400  1
  Mg  Mg79  1  0.18352900  0.40557000  0.53061200  1
  Mg  Mg80  1  0.03758800  0.67822200  0.60595400  1
  Mg  Mg81  1  0.21722000  0.01048000  0.60833200  1
  Mg  Mg82  1  0.20373400  0.92939500  0.68941800  1
  Mg  Mg83  1  0.65107400  0.65930800  0.62486800  1
  Mg  Mg84  1  0.37740400  0.59435100  0.60714300  1
  Mg  Mg85  1  0.17740400  0.54435100  0.65714300  1
  Mg  Mg86  1  0.28352900  0.80557000  0.63061200  1
  Mg  Mg87  1  0.77127900  0.83313200  0.63367400  1
  Mg  Mg88  1  0.57127900  0.78313200  0.68367400  1
  Mg  Mg89  1  0.08352900  0.75557000  0.68061200  1
  Mg  Mg90  1  0.33758800  0.12822200  0.65595400  1
  Mg  Mg91  1  0.51722000  0.46048000  0.65833200  1
  Mg  Mg92  1  0.90373400  0.47939500  0.63941800  1
  Mg  Mg93  1  0.95107400  0.10930800  0.67486800  1
  Mg  Mg94  1  0.67740400  0.04435100  0.65714300  1
  Mg  Mg95  1  0.87740400  0.09435100  0.60714300  1
  Mg  Mg96  1  0.58352900  0.25557000  0.68061200  1
  Mg  Mg97  1  0.07127900  0.28313200  0.68367400  1
  Mg  Mg98  1  0.27127900  0.33313200  0.63367400  1
  Mg  Mg99  1  0.78352900  0.30557000  0.63061200  1
  Mg  Mg100  1  0.63758800  0.57822200  0.70595400  1
  Mg  Mg101  1  0.81722000  0.91048000  0.70833200  1
  Mg  Mg102  1  0.25107400  0.55930800  0.72486800  1
  Mg  Mg103  1  0.97740400  0.49435100  0.70714300  1
  Mg  Mg104  1  0.77740400  0.44435100  0.75714300  1
  Mg  Mg105  1  0.88352900  0.70557000  0.73061200  1
  Mg  Mg106  1  0.37127900  0.73313200  0.73367400  1
  Mg  Mg107  1  0.93758800  0.02822200  0.75595400  1
  Mg  Mg108  1  0.11722000  0.36048000  0.75833200  1
  Mg  Mg109  1  0.50373400  0.37939500  0.73941800  1
  Mg  Mg110  1  0.27740400  0.94435100  0.75714300  1
  Mg  Mg111  1  0.47740400  0.99435100  0.70714300  1
  Mg  Mg112  1  0.87127900  0.23313200  0.73367400  1
  Mg  Mg113  1  0.38352900  0.20557000  0.73061200  1
  Ga  Ga114  1  0.98409900  0.05358000  0.27032800  1
  Ga  Ga115  1  0.07070900  0.33512200  0.24395800  1
  Ga  Ga116  1  0.58203000  0.33323600  0.24584500  1
  Ga  Ga117  1  0.47277800  0.05546600  0.26844100  1
  Ga  Ga118  1  0.68409900  0.60358000  0.22032800  1
  Ga  Ga119  1  0.37070900  0.78512200  0.29395800  1
  Ga  Ga120  1  0.88203000  0.78323600  0.29584500  1
  Ga  Ga121  1  0.17277800  0.60546600  0.21844100  1
  Ga  Ga122  1  0.58409900  0.95358000  0.37032800  1
  Ga  Ga123  1  0.67070900  0.23512200  0.34395800  1
  Ga  Ga124  1  0.18203000  0.23323600  0.34584500  1
  Ga  Ga125  1  0.07277800  0.95546600  0.36844100  1
  Ga  Ga126  1  0.28409900  0.50358000  0.32032800  1
  Ga  Ga127  1  0.97070900  0.68512200  0.39395800  1
  Ga  Ga128  1  0.48203000  0.68323600  0.39584500  1
  Ga  Ga129  1  0.77277800  0.50546600  0.31844100  1
  Ga  Ga130  1  0.18409900  0.85358000  0.47032800  1
  Ga  Ga131  1  0.27070900  0.13512200  0.44395800  1
  Ga  Ga132  1  0.78203000  0.13323600  0.44584500  1
  Ga  Ga133  1  0.67277800  0.85546600  0.46844100  1
  Ga  Ga134  1  0.88409900  0.40358000  0.42032800  1
  Ga  Ga135  1  0.57070900  0.58512200  0.49395800  1
  Ga  Ga136  1  0.08203000  0.58323600  0.49584500  1
  Ga  Ga137  1  0.37277800  0.40546600  0.41844100  1
  Ga  Ga138  1  0.78409900  0.75358000  0.57032800  1
  Ga  Ga139  1  0.87070900  0.03512200  0.54395800  1
  Ga  Ga140  1  0.38203000  0.03323600  0.54584500  1
  Ga  Ga141  1  0.27277800  0.75546600  0.56844100  1
  Ga  Ga142  1  0.48409900  0.30358000  0.52032800  1
  Ga  Ga143  1  0.17070900  0.48512200  0.59395800  1
  Ga  Ga144  1  0.68203000  0.48323600  0.59584500  1
  Ga  Ga145  1  0.97277800  0.30546600  0.51844100  1
  Ga  Ga146  1  0.38409900  0.65358000  0.67032800  1
  Ga  Ga147  1  0.47070900  0.93512200  0.64395800  1
  Ga  Ga148  1  0.98203000  0.93323600  0.64584500  1
  Ga  Ga149  1  0.87277800  0.65546600  0.66844100  1
  Ga  Ga150  1  0.08409900  0.20358000  0.62032800  1
  Ga  Ga151  1  0.77070900  0.38512200  0.69395800  1
  Ga  Ga152  1  0.28203000  0.38323600  0.69584500  1
  Ga  Ga153  1  0.57277800  0.20546600  0.61844100  1
  Ga  Ga154  1  0.07070900  0.83512200  0.74395800  1
  Ga  Ga155  1  0.58203000  0.83323600  0.74584500  1
  Ga  Ga156  1  0.68409900  0.10358000  0.72032800  1
  Ga  Ga157  1  0.17277800  0.10546600  0.71844100  1
