# generated using pymatgen
data_Mg11Bi8
_symmetry_space_group_name_H-M   'P 1'
_cell_length_a   4.73063000
_cell_length_b   4.73063021
_cell_length_c   52.12660900
_cell_angle_alpha   90.00000000
_cell_angle_beta   90.00000000
_cell_angle_gamma   119.99999852
_symmetry_Int_Tables_number   1
_chemical_formula_structural   Mg11Bi8
_chemical_formula_sum   'Mg11 Bi8'
_cell_volume   1010.24822115
_cell_formula_units_Z   1
loop_
 _symmetry_equiv_pos_site_id
 _symmetry_equiv_pos_as_xyz
  1  'x, y, z'
loop_
 _atom_site_type_symbol
 _atom_site_label
 _atom_site_symmetry_multiplicity
 _atom_site_fract_x
 _atom_site_fract_y
 _atom_site_fract_z
 _atom_site_occupancy
  Mg  Mg0  1  0.33333300  0.66666700  0.28967100  1
  Mg  Mg1  1  0.00000000  0.00000000  0.34285700  1
  Mg  Mg2  1  0.66666700  0.33333300  0.25318700  1
  Mg  Mg3  1  0.33333300  0.66666700  0.43252800  1
  Mg  Mg4  1  0.00000000  0.00000000  0.48571400  1
  Mg  Mg5  1  0.66666700  0.33333300  0.39604400  1
  Mg  Mg6  1  0.33333300  0.66666700  0.57538500  1
  Mg  Mg7  1  0.00000000  0.00000000  0.62857100  1
  Mg  Mg8  1  0.66666700  0.33333300  0.53890100  1
  Mg  Mg9  1  0.33333300  0.66666700  0.71824200  1
  Mg  Mg10  1  0.66666700  0.33333300  0.68175800  1
  Bi  Bi11  1  0.33333300  0.66666700  0.23143300  1
  Bi  Bi12  1  0.66666700  0.33333300  0.31142400  1
  Bi  Bi13  1  0.33333300  0.66666700  0.37429000  1
  Bi  Bi14  1  0.66666700  0.33333300  0.45428100  1
  Bi  Bi15  1  0.33333300  0.66666700  0.51714700  1
  Bi  Bi16  1  0.66666700  0.33333300  0.59713900  1
  Bi  Bi17  1  0.33333300  0.66666700  0.66000400  1
  Bi  Bi18  1  0.66666700  0.33333300  0.73999600  1
