# generated using pymatgen
data_Mg29Pd47
_symmetry_space_group_name_H-M   'P 1'
_cell_length_a   4.30853900
_cell_length_b   10.69961100
_cell_length_c   44.12876800
_cell_angle_alpha   90.00000000
_cell_angle_beta   90.00000000
_cell_angle_gamma   90.00000000
_symmetry_Int_Tables_number   1
_chemical_formula_structural   Mg29Pd47
_chemical_formula_sum   'Mg29 Pd47'
_cell_volume   2034.32258129
_cell_formula_units_Z   1
loop_
 _symmetry_equiv_pos_site_id
 _symmetry_equiv_pos_as_xyz
  1  'x, y, z'
loop_
 _atom_site_type_symbol
 _atom_site_label
 _atom_site_symmetry_multiplicity
 _atom_site_fract_x
 _atom_site_fract_y
 _atom_site_fract_z
 _atom_site_occupancy
  Mg  Mg0  1  1.00000000  0.50000000  0.29687500  1
  Mg  Mg1  1  0.00000000  0.00000000  0.23437500  1
  Mg  Mg2  1  0.50000000  0.86253400  0.27673100  1
  Mg  Mg3  1  0.50000000  0.13746600  0.19201900  1
  Mg  Mg4  1  0.50000000  0.36253400  0.25451900  1
  Mg  Mg5  1  0.50000000  0.63746600  0.21423100  1
  Mg  Mg6  1  0.00000000  0.50000000  0.42187500  1
  Mg  Mg7  1  0.00000000  0.00000000  0.35937500  1
  Mg  Mg8  1  0.50000000  0.86253400  0.40173100  1
  Mg  Mg9  1  0.50000000  0.13746600  0.31701900  1
  Mg  Mg10  1  0.50000000  0.36253400  0.37951900  1
  Mg  Mg11  1  0.50000000  0.63746600  0.33923100  1
  Mg  Mg12  1  1.00000000  0.50000000  0.54687500  1
  Mg  Mg13  1  0.00000000  0.00000000  0.48437500  1
  Mg  Mg14  1  0.50000000  0.86253400  0.52673100  1
  Mg  Mg15  1  0.50000000  0.13746600  0.44201900  1
  Mg  Mg16  1  0.50000000  0.36253400  0.50451900  1
  Mg  Mg17  1  0.50000000  0.63746600  0.46423100  1
  Mg  Mg18  1  1.00000000  0.50000000  0.67187500  1
  Mg  Mg19  1  1.00000000  0.00000000  0.60937500  1
  Mg  Mg20  1  0.50000000  0.86253400  0.65173100  1
  Mg  Mg21  1  0.50000000  0.13746600  0.56701900  1
  Mg  Mg22  1  0.50000000  0.36253400  0.62951900  1
  Mg  Mg23  1  0.50000000  0.63746600  0.58923100  1
  Mg  Mg24  1  0.00000000  0.00000000  0.73437500  1
  Mg  Mg25  1  0.50000000  0.86253400  0.77673100  1
  Mg  Mg26  1  0.50000000  0.13746600  0.69201900  1
  Mg  Mg27  1  0.50000000  0.36253400  0.75451900  1
  Mg  Mg28  1  0.50000000  0.63746600  0.71423100  1
  Pd  Pd29  1  0.50000000  0.61114300  0.27503700  1
  Pd  Pd30  1  0.50000000  0.38885700  0.19371300  1
  Pd  Pd31  1  0.50000000  0.11114300  0.25621300  1
  Pd  Pd32  1  0.50000000  0.88885700  0.21253700  1
  Pd  Pd33  1  0.00000000  0.75616100  0.24830500  1
  Pd  Pd34  1  0.00000000  0.24383900  0.22044500  1
  Pd  Pd35  1  0.00000000  0.25616100  0.28294500  1
  Pd  Pd36  1  0.00000000  0.74383900  0.31080500  1
  Pd  Pd37  1  1.00000000  0.00000000  0.29687500  1
  Pd  Pd38  1  1.00000000  0.50000000  0.23437500  1
  Pd  Pd39  1  0.50000000  0.61114300  0.40003700  1
  Pd  Pd40  1  0.50000000  0.38885700  0.31871300  1
  Pd  Pd41  1  0.50000000  0.11114300  0.38121300  1
  Pd  Pd42  1  0.50000000  0.88885700  0.33753700  1
  Pd  Pd43  1  0.00000000  0.75616100  0.37330500  1
  Pd  Pd44  1  0.00000000  0.24383900  0.34544500  1
  Pd  Pd45  1  0.00000000  0.25616100  0.40794500  1
  Pd  Pd46  1  0.00000000  0.74383900  0.43580500  1
  Pd  Pd47  1  0.00000000  0.00000000  0.42187500  1
  Pd  Pd48  1  1.00000000  0.50000000  0.35937500  1
  Pd  Pd49  1  0.50000000  0.61114300  0.52503700  1
  Pd  Pd50  1  0.50000000  0.38885700  0.44371300  1
  Pd  Pd51  1  0.50000000  0.11114300  0.50621300  1
  Pd  Pd52  1  0.50000000  0.88885700  0.46253700  1
  Pd  Pd53  1  0.00000000  0.75616100  0.49830500  1
  Pd  Pd54  1  0.00000000  0.24383900  0.47044500  1
  Pd  Pd55  1  0.00000000  0.25616100  0.53294500  1
  Pd  Pd56  1  0.00000000  0.74383900  0.56080500  1
  Pd  Pd57  1  0.00000000  0.00000000  0.54687500  1
  Pd  Pd58  1  1.00000000  0.50000000  0.48437500  1
  Pd  Pd59  1  0.50000000  0.61114300  0.65003700  1
  Pd  Pd60  1  0.50000000  0.38885700  0.56871300  1
  Pd  Pd61  1  0.50000000  0.11114300  0.63121300  1
  Pd  Pd62  1  0.50000000  0.88885700  0.58753700  1
  Pd  Pd63  1  0.00000000  0.75616100  0.62330500  1
  Pd  Pd64  1  1.00000000  0.24383900  0.59544500  1
  Pd  Pd65  1  0.00000000  0.25616100  0.65794500  1
  Pd  Pd66  1  0.00000000  0.74383900  0.68580500  1
  Pd  Pd67  1  0.00000000  0.00000000  0.67187500  1
  Pd  Pd68  1  1.00000000  0.50000000  0.60937500  1
  Pd  Pd69  1  0.50000000  0.61114300  0.77503700  1
  Pd  Pd70  1  0.50000000  0.38885700  0.69371300  1
  Pd  Pd71  1  0.50000000  0.11114300  0.75621300  1
  Pd  Pd72  1  0.50000000  0.88885700  0.71253700  1
  Pd  Pd73  1  0.00000000  0.75616100  0.74830500  1
  Pd  Pd74  1  1.00000000  0.24383900  0.72044500  1
  Pd  Pd75  1  0.00000000  0.50000000  0.73437500  1
