# generated using pymatgen
data_Mg7Zn11
_symmetry_space_group_name_H-M   'P 1'
_cell_length_a   5.07402229
_cell_length_b   14.70723601
_cell_length_c   50.49845100
_cell_angle_alpha   88.21601723
_cell_angle_beta   89.67566990
_cell_angle_gamma   90.29193359
_symmetry_Int_Tables_number   1
_chemical_formula_structural   Mg7Zn11
_chemical_formula_sum   'Mg28 Zn44'
_cell_volume   3766.49971225
_cell_formula_units_Z   4
loop_
 _symmetry_equiv_pos_site_id
 _symmetry_equiv_pos_as_xyz
  1  'x, y, z'
loop_
 _atom_site_type_symbol
 _atom_site_label
 _atom_site_symmetry_multiplicity
 _atom_site_fract_x
 _atom_site_fract_y
 _atom_site_fract_z
 _atom_site_occupancy
  Mg  Mg0  1  0.07673900  0.09429600  0.44405500  1
  Mg  Mg1  1  0.58291600  0.80496200  0.49039500  1
  Mg  Mg2  1  0.58156700  0.18058700  0.46903400  1
  Mg  Mg3  1  0.57873200  0.77586200  0.43233200  1
  Mg  Mg4  1  0.58008100  0.40023700  0.45369300  1
  Mg  Mg5  1  0.07942300  0.88890300  0.45796100  1
  Mg  Mg6  1  0.08491000  0.48652900  0.47867200  1
  Mg  Mg7  1  0.08222500  0.69192200  0.46476600  1
  Mg  Mg8  1  0.07952600  0.82784300  0.52411200  1
  Mg  Mg9  1  0.57673900  0.84429600  0.69405500  1
  Mg  Mg10  1  0.58536400  0.34054000  0.55891900  1
  Mg  Mg11  1  0.08291600  0.55496200  0.74039500  1
  Mg  Mg12  1  0.08156700  0.93058700  0.71903400  1
  Mg  Mg13  1  0.08343000  0.65529700  0.56842600  1
  Mg  Mg14  1  0.57919000  0.14350200  0.53173000  1
  Mg  Mg15  1  0.07873200  0.52586200  0.68233200  1
  Mg  Mg16  1  0.08000400  0.02506900  0.55052300  1
  Mg  Mg17  1  0.08008100  0.15023700  0.70369300  1
  Mg  Mg18  1  0.07628400  0.99028500  0.61380800  1
  Mg  Mg19  1  0.58164400  0.30575600  0.62220500  1
  Mg  Mg20  1  0.57942300  0.63890300  0.70796100  1
  Mg  Mg21  1  0.08052100  0.45964000  0.54096400  1
  Mg  Mg22  1  0.58112700  0.87118400  0.63176300  1
  Mg  Mg23  1  0.08245900  0.18732300  0.64099700  1
  Mg  Mg24  1  0.58212300  0.50298100  0.64861500  1
  Mg  Mg25  1  0.57821900  0.67552800  0.60430100  1
  Mg  Mg26  1  0.58491000  0.23652900  0.72867200  1
  Mg  Mg27  1  0.58222500  0.44192200  0.71476600  1
  Zn  Zn28  1  0.07672300  0.16042400  0.49906200  1
  Zn  Zn29  1  0.58009500  0.98196400  0.45242400  1
  Zn  Zn30  1  0.33021700  0.57828400  0.42518100  1
  Zn  Zn31  1  0.32787200  0.00478400  0.49652300  1
  Zn  Zn32  1  0.08492600  0.42040100  0.42366500  1
  Zn  Zn33  1  0.58155400  0.59886000  0.47030300  1
  Zn  Zn34  1  0.83377700  0.57604100  0.42620400  1
  Zn  Zn35  1  0.83143200  0.00254000  0.49754700  1
  Zn  Zn36  1  0.08082400  0.29041200  0.46136400  1
  Zn  Zn37  1  0.57672300  0.91042400  0.74906200  1
  Zn  Zn38  1  0.08009500  0.73196400  0.70242400  1
  Zn  Zn39  1  0.58433700  0.00595700  0.58296600  1
  Zn  Zn40  1  0.83021700  0.32828400  0.67518100  1
  Zn  Zn41  1  0.32598100  0.00828900  0.66672200  1
  Zn  Zn42  1  0.82787200  0.75478400  0.74652300  1
  Zn  Zn43  1  0.33082400  0.16541200  0.58636400  1
  Zn  Zn44  1  0.58492600  0.17040100  0.67366500  1
  Zn  Zn45  1  0.08163000  0.77124800  0.61762200  1
  Zn  Zn46  1  0.82925700  0.32255400  0.50609900  1
  Zn  Zn47  1  0.32741600  0.84865400  0.57864500  1
  Zn  Zn48  1  0.57994900  0.74191900  0.54666100  1
  Zn  Zn49  1  0.08124000  0.23974900  0.54562800  1
  Zn  Zn50  1  0.58633300  0.47499400  0.50915900  1
  Zn  Zn51  1  0.08155400  0.34886000  0.72030300  1
  Zn  Zn52  1  0.58001800  0.55957600  0.55510500  1
  Zn  Zn53  1  0.83997700  0.63782900  0.51429000  1
  Zn  Zn54  1  0.83239100  0.00827000  0.66662800  1
  Zn  Zn55  1  0.33377700  0.32604100  0.67620400  1
  Zn  Zn56  1  0.58040800  0.09107600  0.62709900  1
  Zn  Zn57  1  0.82167100  0.69299500  0.65843800  1
  Zn  Zn58  1  0.33566700  0.32253500  0.50600500  1
  Zn  Zn59  1  0.83082400  0.16541200  0.58636400  1
  Zn  Zn60  1  0.57527400  0.93015600  0.53708200  1
  Zn  Zn61  1  0.83147800  0.84775200  0.57902200  1
  Zn  Zn62  1  0.32657700  0.64030800  0.51362900  1
  Zn  Zn63  1  0.08637500  0.40066900  0.63564500  1
  Zn  Zn64  1  0.33507100  0.69051600  0.65909800  1
  Zn  Zn65  1  0.07531500  0.85583000  0.66356800  1
  Zn  Zn66  1  0.83017000  0.48307200  0.59370600  1
  Zn  Zn67  1  0.33143200  0.75254000  0.74754700  1
  Zn  Zn68  1  0.58082400  0.04041200  0.71136400  1
  Zn  Zn69  1  0.33423300  0.48217000  0.59408200  1
  Zn  Zn70  1  0.08169900  0.58890500  0.62606700  1
  Zn  Zn71  1  0.07731200  0.32486700  0.58976100  1
