# generated using pymatgen
data_Mg19Au55
_symmetry_space_group_name_H-M   'P 1'
_cell_length_a   9.58286600
_cell_length_b   10.43041211
_cell_length_c   46.00314700
_cell_angle_alpha   94.13499482
_cell_angle_beta   90.00000000
_cell_angle_gamma   90.00000000
_symmetry_Int_Tables_number   1
_chemical_formula_structural   Mg19Au55
_chemical_formula_sum   'Mg38 Au110'
_cell_volume   4586.19431584
_cell_formula_units_Z   2
loop_
 _symmetry_equiv_pos_site_id
 _symmetry_equiv_pos_as_xyz
  1  'x, y, z'
loop_
 _atom_site_type_symbol
 _atom_site_label
 _atom_site_symmetry_multiplicity
 _atom_site_fract_x
 _atom_site_fract_y
 _atom_site_fract_z
 _atom_site_occupancy
  Mg  Mg0  1  0.49920200  0.13040500  0.74204500  1
  Mg  Mg1  1  0.50079800  0.66591600  0.71108000  1
  Mg  Mg2  1  0.99920200  0.66591600  0.71108000  1
  Mg  Mg3  1  0.00079800  0.13040500  0.74204500  1
  Mg  Mg4  1  0.25000000  0.35486300  0.69034300  1
  Mg  Mg5  1  0.75000000  0.44145800  0.76278200  1
  Mg  Mg6  1  0.49920200  0.25540500  0.61704500  1
  Mg  Mg7  1  0.50079800  0.79091600  0.58608000  1
  Mg  Mg8  1  0.99920200  0.79091600  0.58608000  1
  Mg  Mg9  1  0.00079800  0.25540500  0.61704500  1
  Mg  Mg10  1  0.25000000  0.89079700  0.65940500  1
  Mg  Mg11  1  0.75000000  0.03052400  0.66872000  1
  Mg  Mg12  1  0.25000000  0.47986300  0.56534300  1
  Mg  Mg13  1  0.75000000  0.56645800  0.63778200  1
  Mg  Mg14  1  0.49920200  0.38040500  0.49204500  1
  Mg  Mg15  1  0.50079800  0.91591600  0.46108000  1
  Mg  Mg16  1  0.99920200  0.91591600  0.46108000  1
  Mg  Mg17  1  0.00079800  0.38040500  0.49204500  1
  Mg  Mg18  1  0.25000000  0.01579700  0.53440500  1
  Mg  Mg19  1  0.75000000  0.15552400  0.54372000  1
  Mg  Mg20  1  0.25000000  0.60486300  0.44034300  1
  Mg  Mg21  1  0.75000000  0.69145800  0.51278200  1
  Mg  Mg22  1  0.49920200  0.50540500  0.36704500  1
  Mg  Mg23  1  0.50079800  0.04091600  0.33608000  1
  Mg  Mg24  1  0.99920200  0.04091600  0.33608000  1
  Mg  Mg25  1  0.00079800  0.50540500  0.36704500  1
  Mg  Mg26  1  0.25000000  0.14079700  0.40940500  1
  Mg  Mg27  1  0.75000000  0.28052400  0.41872000  1
  Mg  Mg28  1  0.25000000  0.72986300  0.31534300  1
  Mg  Mg29  1  0.75000000  0.81645800  0.38778200  1
  Mg  Mg30  1  0.49920200  0.63040500  0.24204500  1
  Mg  Mg31  1  0.50079800  0.16591600  0.21108000  1
  Mg  Mg32  1  0.99920200  0.16591600  0.21108000  1
  Mg  Mg33  1  0.00079800  0.63040500  0.24204500  1
  Mg  Mg34  1  0.25000000  0.26579700  0.28440500  1
  Mg  Mg35  1  0.75000000  0.40552400  0.29372000  1
  Mg  Mg36  1  0.25000000  0.85486300  0.19034300  1
  Mg  Mg37  1  0.75000000  0.94145800  0.26278200  1
  Au  Au38  1  0.00000000  0.86677000  0.75795300  1
  Au  Au39  1  0.50000000  0.92955100  0.69517200  1
  Au  Au40  1  0.00000000  0.92955100  0.69517200  1
  Au  Au41  1  0.50000000  0.86677000  0.75795300  1
  Au  Au42  1  0.25000000  0.56105900  0.73715000  1
  Au  Au43  1  0.75000000  0.23526200  0.71597500  1
  Au  Au44  1  0.75000000  0.70371500  0.74699300  1
  Au  Au45  1  0.25000000  0.09260600  0.70613200  1
  Au  Au46  1  0.50000000  0.39816100  0.72656300  1
  Au  Au47  1  0.00000000  0.39816100  0.72656300  1
  Au  Au48  1  0.25000000  0.29524000  0.75303400  1
  Au  Au49  1  0.75000000  0.50108100  0.70009100  1
  Au  Au50  1  0.25000000  0.82206500  0.72148900  1
  Au  Au51  1  0.75000000  0.97425700  0.73163600  1
  Au  Au52  1  0.00000000  0.99177000  0.63295300  1
  Au  Au53  1  0.50000000  0.05455100  0.57017200  1
  Au  Au54  1  0.00000000  0.05455100  0.57017200  1
  Au  Au55  1  0.50000000  0.99177000  0.63295300  1
  Au  Au56  1  0.00054900  0.72433900  0.64830800  1
  Au  Au57  1  0.99945100  0.19698200  0.67981700  1
  Au  Au58  1  0.50054900  0.19698200  0.67981700  1
  Au  Au59  1  0.49945100  0.72433900  0.64830800  1
  Au  Au60  1  0.75000000  0.29827300  0.65296400  1
  Au  Au61  1  0.25000000  0.68605900  0.61215000  1
  Au  Au62  1  0.25000000  0.62304800  0.67516100  1
  Au  Au63  1  0.75000000  0.36026200  0.59097500  1
  Au  Au64  1  0.75000000  0.82871500  0.62199300  1
  Au  Au65  1  0.25000000  0.15499400  0.64374500  1
  Au  Au66  1  0.25000000  0.21760600  0.58113200  1
  Au  Au67  1  0.75000000  0.76632700  0.68438000  1
  Au  Au68  1  0.50000000  0.52316100  0.60156200  1
  Au  Au69  1  0.50000000  0.46066100  0.66406200  1
  Au  Au70  1  0.00000000  0.52316100  0.60156200  1
  Au  Au71  1  0.00000000  0.46066100  0.66406200  1
  Au  Au72  1  0.25000000  0.42024000  0.62803400  1
  Au  Au73  1  0.75000000  0.62608100  0.57509100  1
  Au  Au74  1  0.25000000  0.94706500  0.59648900  1
  Au  Au75  1  0.75000000  0.09925700  0.60663600  1
  Au  Au76  1  0.00000000  0.11677000  0.50795300  1
  Au  Au77  1  0.50000000  0.17955100  0.44517200  1
  Au  Au78  1  0.00000000  0.17955100  0.44517200  1
  Au  Au79  1  0.50000000  0.11677000  0.50795300  1
  Au  Au80  1  0.00054900  0.84933900  0.52330800  1
  Au  Au81  1  0.99945100  0.32198200  0.55481700  1
  Au  Au82  1  0.50054900  0.32198200  0.55481700  1
  Au  Au83  1  0.49945100  0.84933900  0.52330800  1
  Au  Au84  1  0.75000000  0.42327300  0.52796400  1
  Au  Au85  1  0.25000000  0.81105900  0.48715000  1
  Au  Au86  1  0.25000000  0.74804800  0.55016100  1
  Au  Au87  1  0.75000000  0.48526200  0.46597500  1
  Au  Au88  1  0.75000000  0.95371500  0.49699300  1
  Au  Au89  1  0.25000000  0.27999400  0.51874500  1
  Au  Au90  1  0.25000000  0.34260600  0.45613200  1
  Au  Au91  1  0.75000000  0.89132700  0.55938000  1
  Au  Au92  1  0.50000000  0.64816100  0.47656200  1
  Au  Au93  1  0.50000000  0.58566100  0.53906200  1
  Au  Au94  1  0.00000000  0.64816100  0.47656200  1
  Au  Au95  1  0.00000000  0.58566100  0.53906200  1
  Au  Au96  1  0.25000000  0.54524000  0.50303400  1
  Au  Au97  1  0.75000000  0.75108100  0.45009100  1
  Au  Au98  1  0.25000000  0.07206500  0.47148900  1
  Au  Au99  1  0.75000000  0.22425700  0.48163600  1
  Au  Au100  1  0.00000000  0.24177000  0.38295300  1
  Au  Au101  1  0.50000000  0.30455100  0.32017200  1
  Au  Au102  1  0.00000000  0.30455100  0.32017200  1
  Au  Au103  1  0.50000000  0.24177000  0.38295300  1
  Au  Au104  1  0.00054900  0.97433900  0.39830800  1
  Au  Au105  1  0.99945100  0.44698200  0.42981700  1
  Au  Au106  1  0.50054900  0.44698200  0.42981700  1
  Au  Au107  1  0.49945100  0.97433900  0.39830800  1
  Au  Au108  1  0.75000000  0.54827300  0.40296400  1
  Au  Au109  1  0.25000000  0.93605900  0.36215000  1
  Au  Au110  1  0.25000000  0.87304800  0.42516100  1
  Au  Au111  1  0.75000000  0.61026200  0.34097500  1
  Au  Au112  1  0.75000000  0.07871500  0.37199300  1
  Au  Au113  1  0.25000000  0.40499400  0.39374500  1
  Au  Au114  1  0.25000000  0.46760600  0.33113200  1
  Au  Au115  1  0.75000000  0.01632700  0.43438000  1
  Au  Au116  1  0.50000000  0.77316100  0.35156200  1
  Au  Au117  1  0.50000000  0.71066100  0.41406200  1
  Au  Au118  1  0.00000000  0.77316100  0.35156200  1
  Au  Au119  1  0.00000000  0.71066100  0.41406200  1
  Au  Au120  1  0.25000000  0.67024000  0.37803400  1
  Au  Au121  1  0.75000000  0.87608100  0.32509100  1
  Au  Au122  1  0.25000000  0.19706500  0.34648900  1
  Au  Au123  1  0.75000000  0.34925700  0.35663600  1
  Au  Au124  1  0.00000000  0.36677000  0.25795300  1
  Au  Au125  1  0.50000000  0.42955100  0.19517200  1
  Au  Au126  1  0.00000000  0.42955100  0.19517200  1
  Au  Au127  1  0.50000000  0.36677000  0.25795300  1
  Au  Au128  1  0.00054900  0.09933900  0.27330800  1
  Au  Au129  1  0.99945100  0.57198200  0.30481700  1
  Au  Au130  1  0.50054900  0.57198200  0.30481700  1
  Au  Au131  1  0.49945100  0.09933900  0.27330800  1
  Au  Au132  1  0.75000000  0.67327300  0.27796400  1
  Au  Au133  1  0.25000000  0.06105900  0.23715000  1
  Au  Au134  1  0.25000000  0.99804800  0.30016100  1
  Au  Au135  1  0.75000000  0.73526200  0.21597500  1
  Au  Au136  1  0.75000000  0.20371500  0.24699300  1
  Au  Au137  1  0.25000000  0.52999400  0.26874500  1
  Au  Au138  1  0.25000000  0.59260600  0.20613200  1
  Au  Au139  1  0.75000000  0.14132700  0.30938000  1
  Au  Au140  1  0.50000000  0.89816100  0.22656200  1
  Au  Au141  1  0.50000000  0.83566100  0.28906300  1
  Au  Au142  1  0.00000000  0.89816100  0.22656200  1
  Au  Au143  1  0.00000000  0.83566100  0.28906300  1
  Au  Au144  1  0.25000000  0.79524000  0.25303400  1
  Au  Au145  1  0.75000000  0.00108100  0.20009100  1
  Au  Au146  1  0.25000000  0.32206500  0.22148900  1
  Au  Au147  1  0.75000000  0.47425700  0.23163600  1
