# generated using pymatgen
data_Ba10Mg73
_symmetry_space_group_name_H-M   'P 1'
_cell_length_a   8.04420300
_cell_length_b   12.12331199
_cell_length_c   42.30595900
_cell_angle_alpha   90.00000000
_cell_angle_beta   90.00000000
_cell_angle_gamma   100.37110432
_symmetry_Int_Tables_number   1
_chemical_formula_structural   Ba10Mg73
_chemical_formula_sum   'Ba10 Mg73'
_cell_volume   4058.37255665
_cell_formula_units_Z   1
loop_
 _symmetry_equiv_pos_site_id
 _symmetry_equiv_pos_as_xyz
  1  'x, y, z'
loop_
 _atom_site_type_symbol
 _atom_site_label
 _atom_site_symmetry_multiplicity
 _atom_site_fract_x
 _atom_site_fract_y
 _atom_site_fract_z
 _atom_site_occupancy
  Ba  Ba0  1  0.80929600  0.91010000  0.28947400  1
  Ba  Ba1  1  0.48323200  0.23616400  0.28947400  1
  Ba  Ba2  1  0.80929600  0.41010000  0.41447400  1
  Ba  Ba3  1  0.48323200  0.73616400  0.41447400  1
  Ba  Ba4  1  0.80929600  0.91010000  0.53947400  1
  Ba  Ba5  1  0.48323200  0.23616400  0.53947400  1
  Ba  Ba6  1  0.80929600  0.41010000  0.66447400  1
  Ba  Ba7  1  0.48323200  0.73616400  0.66447400  1
  Ba  Ba8  1  0.80929600  0.91010000  0.78947400  1
  Ba  Ba9  1  0.48323200  0.23616400  0.78947400  1
  Mg  Mg10  1  0.99672300  0.22837900  0.28947400  1
  Mg  Mg11  1  0.04947800  0.66991800  0.28947400  1
  Mg  Mg12  1  0.24305100  0.47634600  0.28947400  1
  Mg  Mg13  1  0.29580500  0.91788500  0.28947400  1
  Mg  Mg14  1  0.64626400  0.57313200  0.28947400  1
  Mg  Mg15  1  0.43879200  0.21939600  0.37790800  1
  Mg  Mg16  1  0.80151100  0.67073800  0.35126000  1
  Mg  Mg17  1  0.99672300  0.72837900  0.41447400  1
  Mg  Mg18  1  0.04947800  0.16991800  0.41447400  1
  Mg  Mg19  1  0.14626400  0.07313200  0.34134200  1
  Mg  Mg20  1  0.85373600  0.42686800  0.32604000  1
  Mg  Mg21  1  0.80151100  0.17073800  0.35268700  1
  Mg  Mg22  1  0.24305100  0.97634600  0.41447400  1
  Mg  Mg23  1  0.43879200  0.71939600  0.32604000  1
  Mg  Mg24  1  0.14626400  0.82313200  0.35197400  1
  Mg  Mg25  1  0.14626400  0.57313200  0.36260600  1
  Mg  Mg26  1  0.29580500  0.41788500  0.41447400  1
  Mg  Mg27  1  0.49101700  0.97552600  0.35268700  1
  Mg  Mg28  1  0.49101700  0.47552600  0.35126000  1
  Mg  Mg29  1  0.14626400  0.32313200  0.35197400  1
  Mg  Mg30  1  0.85373600  0.92686800  0.37790800  1
  Mg  Mg31  1  0.64626400  0.07313200  0.41447400  1
  Mg  Mg32  1  0.43879200  0.71939600  0.50290800  1
  Mg  Mg33  1  0.80151100  0.17073800  0.47626000  1
  Mg  Mg34  1  0.99672300  0.22837900  0.53947400  1
  Mg  Mg35  1  0.04947800  0.66991800  0.53947400  1
  Mg  Mg36  1  0.14626400  0.57313200  0.46634200  1
  Mg  Mg37  1  0.85373600  0.92686800  0.45104000  1
  Mg  Mg38  1  0.80151100  0.67073800  0.47768700  1
  Mg  Mg39  1  0.24305100  0.47634600  0.53947400  1
  Mg  Mg40  1  0.43879200  0.21939600  0.45104000  1
  Mg  Mg41  1  0.14626400  0.32313200  0.47697400  1
  Mg  Mg42  1  0.14626400  0.07313200  0.48760600  1
  Mg  Mg43  1  0.29580500  0.91788500  0.53947400  1
  Mg  Mg44  1  0.49101700  0.47552600  0.47768700  1
  Mg  Mg45  1  0.49101700  0.97552600  0.47626000  1
  Mg  Mg46  1  0.14626400  0.82313200  0.47697400  1
  Mg  Mg47  1  0.85373600  0.42686800  0.50290800  1
  Mg  Mg48  1  0.64626400  0.57313200  0.53947400  1
  Mg  Mg49  1  0.43879200  0.21939600  0.62790800  1
  Mg  Mg50  1  0.80151100  0.67073800  0.60126000  1
  Mg  Mg51  1  0.99672300  0.72837900  0.66447400  1
  Mg  Mg52  1  0.04947800  0.16991800  0.66447400  1
  Mg  Mg53  1  0.14626400  0.07313200  0.59134200  1
  Mg  Mg54  1  0.85373600  0.42686800  0.57604000  1
  Mg  Mg55  1  0.80151100  0.17073800  0.60268700  1
  Mg  Mg56  1  0.24305100  0.97634600  0.66447400  1
  Mg  Mg57  1  0.43879200  0.71939600  0.57604000  1
  Mg  Mg58  1  0.14626400  0.82313200  0.60197400  1
  Mg  Mg59  1  0.14626400  0.57313200  0.61260600  1
  Mg  Mg60  1  0.29580500  0.41788500  0.66447400  1
  Mg  Mg61  1  0.49101700  0.97552600  0.60268700  1
  Mg  Mg62  1  0.49101700  0.47552600  0.60126000  1
  Mg  Mg63  1  0.14626400  0.32313200  0.60197400  1
  Mg  Mg64  1  0.85373600  0.92686800  0.62790800  1
  Mg  Mg65  1  0.64626400  0.07313200  0.66447400  1
  Mg  Mg66  1  0.43879200  0.71939600  0.75290800  1
  Mg  Mg67  1  0.80151100  0.17073800  0.72626000  1
  Mg  Mg68  1  0.99672300  0.22837900  0.78947400  1
  Mg  Mg69  1  0.04947800  0.66991800  0.78947400  1
  Mg  Mg70  1  0.14626400  0.57313200  0.71634200  1
  Mg  Mg71  1  0.85373600  0.92686800  0.70104000  1
  Mg  Mg72  1  0.80151100  0.67073800  0.72768700  1
  Mg  Mg73  1  0.24305100  0.47634600  0.78947400  1
  Mg  Mg74  1  0.43879200  0.21939600  0.70104000  1
  Mg  Mg75  1  0.14626400  0.32313200  0.72697400  1
  Mg  Mg76  1  0.14626400  0.07313200  0.73760600  1
  Mg  Mg77  1  0.29580500  0.91788500  0.78947400  1
  Mg  Mg78  1  0.49101700  0.47552600  0.72768700  1
  Mg  Mg79  1  0.49101700  0.97552600  0.72626000  1
  Mg  Mg80  1  0.14626400  0.82313200  0.72697400  1
  Mg  Mg81  1  0.85373600  0.42686800  0.75290800  1
  Mg  Mg82  1  0.64626400  0.57313200  0.78947400  1
