# generated using pymatgen
data_Mg16Pd27
_symmetry_space_group_name_H-M   'P 1'
_cell_length_a   4.30853900
_cell_length_b   12.03781485
_cell_length_c   49.04360200
_cell_angle_alpha   91.40300406
_cell_angle_beta   90.00000000
_cell_angle_gamma   90.00000000
_symmetry_Int_Tables_number   1
_chemical_formula_structural   Mg16Pd27
_chemical_formula_sum   'Mg32 Pd54'
_cell_volume   2542.90320535
_cell_formula_units_Z   2
loop_
 _symmetry_equiv_pos_site_id
 _symmetry_equiv_pos_as_xyz
  1  'x, y, z'
loop_
 _atom_site_type_symbol
 _atom_site_label
 _atom_site_symmetry_multiplicity
 _atom_site_fract_x
 _atom_site_fract_y
 _atom_site_fract_z
 _atom_site_occupancy
  Mg  Mg0  1  1.00000000  0.46662200  0.21875000  1
  Mg  Mg1  1  0.00000000  0.96662200  0.21875000  1
  Mg  Mg2  1  0.50000000  0.78887900  0.23888800  1
  Mg  Mg3  1  0.50000000  0.94436500  0.29861200  1
  Mg  Mg4  1  0.50000000  0.22441900  0.27111800  1
  Mg  Mg5  1  0.50000000  0.50882500  0.26638200  1
  Mg  Mg6  1  0.00000000  0.26662200  0.31875000  1
  Mg  Mg7  1  0.00000000  0.76662200  0.31875000  1
  Mg  Mg8  1  0.50000000  0.58887900  0.33888800  1
  Mg  Mg9  1  0.50000000  0.74436500  0.39861200  1
  Mg  Mg10  1  0.50000000  0.02441900  0.37111800  1
  Mg  Mg11  1  0.50000000  0.30882500  0.36638200  1
  Mg  Mg12  1  0.00000000  0.06662200  0.41875000  1
  Mg  Mg13  1  0.00000000  0.56662200  0.41875000  1
  Mg  Mg14  1  0.50000000  0.38887900  0.43888800  1
  Mg  Mg15  1  0.50000000  0.54436500  0.49861200  1
  Mg  Mg16  1  0.50000000  0.82441900  0.47111800  1
  Mg  Mg17  1  0.50000000  0.10882500  0.46638200  1
  Mg  Mg18  1  0.00000000  0.86662200  0.51875000  1
  Mg  Mg19  1  0.00000000  0.36662200  0.51875000  1
  Mg  Mg20  1  0.50000000  0.18887900  0.53888800  1
  Mg  Mg21  1  0.50000000  0.34436500  0.59861200  1
  Mg  Mg22  1  0.50000000  0.62441900  0.57111800  1
  Mg  Mg23  1  0.50000000  0.90882500  0.56638200  1
  Mg  Mg24  1  0.00000000  0.66662200  0.61875000  1
  Mg  Mg25  1  0.00000000  0.16662200  0.61875000  1
  Mg  Mg26  1  0.50000000  0.98887900  0.63888800  1
  Mg  Mg27  1  0.50000000  0.14436500  0.69861200  1
  Mg  Mg28  1  0.50000000  0.42441900  0.67111800  1
  Mg  Mg29  1  0.50000000  0.70882500  0.66638200  1
  Mg  Mg30  1  0.00000000  0.46662200  0.71875000  1
  Mg  Mg31  1  0.00000000  0.96662200  0.71875000  1
  Pd  Pd32  1  0.50000000  0.59047700  0.21239400  1
  Pd  Pd33  1  0.50000000  0.34276600  0.22510600  1
  Pd  Pd34  1  0.50000000  0.02059500  0.24733500  1
  Pd  Pd35  1  0.50000000  0.71264800  0.29016500  1
  Pd  Pd36  1  0.00000000  0.74926300  0.20551000  1
  Pd  Pd37  1  0.00000000  0.18398100  0.23199000  1
  Pd  Pd38  1  1.00000000  0.09383900  0.28322200  1
  Pd  Pd39  1  0.00000000  0.63940500  0.25427800  1
  Pd  Pd40  1  0.00000000  0.86662200  0.26875000  1
  Pd  Pd41  1  0.00000000  0.36662200  0.26875000  1
  Pd  Pd42  1  0.50000000  0.39047700  0.31239400  1
  Pd  Pd43  1  0.50000000  0.14276600  0.32510600  1
  Pd  Pd44  1  0.50000000  0.82059500  0.34733500  1
  Pd  Pd45  1  0.50000000  0.51264800  0.39016500  1
  Pd  Pd46  1  0.00000000  0.54926300  0.30551000  1
  Pd  Pd47  1  0.00000000  0.98398100  0.33199000  1
  Pd  Pd48  1  0.00000000  0.89383900  0.38322200  1
  Pd  Pd49  1  0.00000000  0.43940500  0.35427800  1
  Pd  Pd50  1  0.00000000  0.66662200  0.36875000  1
  Pd  Pd51  1  0.00000000  0.16662200  0.36875000  1
  Pd  Pd52  1  0.50000000  0.19047700  0.41239400  1
  Pd  Pd53  1  0.50000000  0.94276600  0.42510600  1
  Pd  Pd54  1  0.50000000  0.62059500  0.44733500  1
  Pd  Pd55  1  0.50000000  0.31264800  0.49016500  1
  Pd  Pd56  1  0.00000000  0.34926300  0.40551000  1
  Pd  Pd57  1  0.00000000  0.78398100  0.43199000  1
  Pd  Pd58  1  0.00000000  0.69383900  0.48322200  1
  Pd  Pd59  1  0.00000000  0.23940500  0.45427800  1
  Pd  Pd60  1  0.00000000  0.46662200  0.46875000  1
  Pd  Pd61  1  0.00000000  0.96662200  0.46875000  1
  Pd  Pd62  1  0.50000000  0.99047700  0.51239400  1
  Pd  Pd63  1  0.50000000  0.74276600  0.52510600  1
  Pd  Pd64  1  0.50000000  0.42059500  0.54733500  1
  Pd  Pd65  1  0.50000000  0.11264800  0.59016500  1
  Pd  Pd66  1  0.00000000  0.14926300  0.50551000  1
  Pd  Pd67  1  0.00000000  0.58398100  0.53199000  1
  Pd  Pd68  1  0.00000000  0.49383900  0.58322200  1
  Pd  Pd69  1  1.00000000  0.03940500  0.55427800  1
  Pd  Pd70  1  0.00000000  0.26662200  0.56875000  1
  Pd  Pd71  1  0.00000000  0.76662200  0.56875000  1
  Pd  Pd72  1  0.50000000  0.79047700  0.61239400  1
  Pd  Pd73  1  0.50000000  0.54276600  0.62510600  1
  Pd  Pd74  1  0.50000000  0.22059500  0.64733500  1
  Pd  Pd75  1  0.50000000  0.91264800  0.69016500  1
  Pd  Pd76  1  0.00000000  0.94926300  0.60551000  1
  Pd  Pd77  1  0.00000000  0.38398100  0.63199000  1
  Pd  Pd78  1  0.00000000  0.29383900  0.68322200  1
  Pd  Pd79  1  0.00000000  0.83940500  0.65427800  1
  Pd  Pd80  1  0.00000000  0.06662200  0.66875000  1
  Pd  Pd81  1  0.00000000  0.56662200  0.66875000  1
  Pd  Pd82  1  0.50000000  0.59047700  0.71239400  1
  Pd  Pd83  1  0.50000000  0.34276600  0.72510600  1
  Pd  Pd84  1  0.00000000  0.74926300  0.70551000  1
  Pd  Pd85  1  0.00000000  0.18398100  0.73199000  1
