# generated using pymatgen
data_Mg12Pd23
_symmetry_space_group_name_H-M   'P 1'
_cell_length_a   4.19057600
_cell_length_b   9.87844226
_cell_length_c   45.88469700
_cell_angle_alpha   91.77467978
_cell_angle_beta   90.00000000
_cell_angle_gamma   90.00000000
_symmetry_Int_Tables_number   1
_chemical_formula_structural   Mg12Pd23
_chemical_formula_sum   'Mg24 Pd46'
_cell_volume   1898.54848723
_cell_formula_units_Z   2
loop_
 _symmetry_equiv_pos_site_id
 _symmetry_equiv_pos_as_xyz
  1  'x, y, z'
loop_
 _atom_site_type_symbol
 _atom_site_label
 _atom_site_symmetry_multiplicity
 _atom_site_fract_x
 _atom_site_fract_y
 _atom_site_fract_z
 _atom_site_occupancy
  Mg  Mg0  1  0.25000000  0.51172200  0.23463300  1
  Mg  Mg1  1  0.75000000  0.27297300  0.24870000  1
  Mg  Mg2  1  0.25000000  0.87413900  0.21497800  1
  Mg  Mg3  1  0.75000000  0.91055600  0.26835500  1
  Mg  Mg4  1  0.25000000  0.21172200  0.33463300  1
  Mg  Mg5  1  0.75000000  0.97297300  0.34870000  1
  Mg  Mg6  1  0.25000000  0.57413900  0.31497800  1
  Mg  Mg7  1  0.75000000  0.61055600  0.36835500  1
  Mg  Mg8  1  0.25000000  0.91172200  0.43463300  1
  Mg  Mg9  1  0.75000000  0.67297300  0.44870000  1
  Mg  Mg10  1  0.25000000  0.27413900  0.41497800  1
  Mg  Mg11  1  0.75000000  0.31055600  0.46835500  1
  Mg  Mg12  1  0.25000000  0.61172200  0.53463300  1
  Mg  Mg13  1  0.75000000  0.37297300  0.54870000  1
  Mg  Mg14  1  0.25000000  0.97413900  0.51497800  1
  Mg  Mg15  1  0.75000000  0.01055600  0.56835500  1
  Mg  Mg16  1  0.25000000  0.31172200  0.63463300  1
  Mg  Mg17  1  0.75000000  0.07297300  0.64870000  1
  Mg  Mg18  1  0.25000000  0.67413900  0.61497800  1
  Mg  Mg19  1  0.75000000  0.71055600  0.66835500  1
  Mg  Mg20  1  0.25000000  0.01172200  0.73463300  1
  Mg  Mg21  1  0.75000000  0.77297300  0.74870000  1
  Mg  Mg22  1  0.25000000  0.37413900  0.71497800  1
  Mg  Mg23  1  0.75000000  0.41055600  0.76835500  1
  Pd  Pd24  1  0.25000000  0.73918300  0.26851500  1
  Pd  Pd25  1  0.75000000  0.04551300  0.21481900  1
  Pd  Pd26  1  0.25000000  0.34085200  0.28303900  1
  Pd  Pd27  1  0.75000000  0.14384300  0.30029500  1
  Pd  Pd28  1  0.25000000  0.24764900  0.21127100  1
  Pd  Pd29  1  0.75000000  0.53704600  0.27206300  1
  Pd  Pd30  1  0.25000000  0.07789100  0.25844800  1
  Pd  Pd31  1  0.75000000  0.70680400  0.22488500  1
  Pd  Pd32  1  0.25000000  0.43918300  0.36851500  1
  Pd  Pd33  1  0.75000000  0.74551300  0.31481900  1
  Pd  Pd34  1  0.25000000  0.04085200  0.38303900  1
  Pd  Pd35  1  0.75000000  0.84384300  0.40029500  1
  Pd  Pd36  1  0.25000000  0.94764900  0.31127100  1
  Pd  Pd37  1  0.75000000  0.23704600  0.37206300  1
  Pd  Pd38  1  0.25000000  0.77789100  0.35844800  1
  Pd  Pd39  1  0.75000000  0.40680400  0.32488500  1
  Pd  Pd40  1  0.25000000  0.13918300  0.46851500  1
  Pd  Pd41  1  0.75000000  0.44551300  0.41481900  1
  Pd  Pd42  1  0.25000000  0.74085200  0.48303900  1
  Pd  Pd43  1  0.75000000  0.54384300  0.50029500  1
  Pd  Pd44  1  0.25000000  0.64764900  0.41127100  1
  Pd  Pd45  1  0.75000000  0.93704600  0.47206300  1
  Pd  Pd46  1  0.25000000  0.47789100  0.45844800  1
  Pd  Pd47  1  0.75000000  0.10680400  0.42488500  1
  Pd  Pd48  1  0.25000000  0.83918300  0.56851500  1
  Pd  Pd49  1  0.75000000  0.14551300  0.51481900  1
  Pd  Pd50  1  0.25000000  0.44085200  0.58303900  1
  Pd  Pd51  1  0.75000000  0.24384300  0.60029500  1
  Pd  Pd52  1  0.25000000  0.34764900  0.51127100  1
  Pd  Pd53  1  0.75000000  0.63704600  0.57206300  1
  Pd  Pd54  1  0.25000000  0.17789100  0.55844800  1
  Pd  Pd55  1  0.75000000  0.80680400  0.52488500  1
  Pd  Pd56  1  0.25000000  0.53918300  0.66851500  1
  Pd  Pd57  1  0.75000000  0.84551300  0.61481900  1
  Pd  Pd58  1  0.25000000  0.14085200  0.68303900  1
  Pd  Pd59  1  0.75000000  0.94384300  0.70029500  1
  Pd  Pd60  1  0.25000000  0.04764900  0.61127100  1
  Pd  Pd61  1  0.75000000  0.33704600  0.67206300  1
  Pd  Pd62  1  0.25000000  0.87789100  0.65844800  1
  Pd  Pd63  1  0.75000000  0.50680400  0.62488500  1
  Pd  Pd64  1  0.25000000  0.23918300  0.76851500  1
  Pd  Pd65  1  0.75000000  0.54551300  0.71481900  1
  Pd  Pd66  1  0.25000000  0.74764900  0.71127100  1
  Pd  Pd67  1  0.75000000  0.03704600  0.77206300  1
  Pd  Pd68  1  0.25000000  0.57789100  0.75844800  1
  Pd  Pd69  1  0.75000000  0.20680400  0.72488500  1
