# generated using pymatgen
data_Mg24Al47
_symmetry_space_group_name_H-M   'P 1'
_cell_length_a   5.50999200
_cell_length_b   10.24190098
_cell_length_c   41.89781300
_cell_angle_alpha   94.42221519
_cell_angle_beta   90.00000000
_cell_angle_gamma   74.39566803
_symmetry_Int_Tables_number   1
_chemical_formula_structural   Mg24Al47
_chemical_formula_sum   'Mg24 Al47'
_cell_volume   2269.95445228
_cell_formula_units_Z   1
loop_
 _symmetry_equiv_pos_site_id
 _symmetry_equiv_pos_as_xyz
  1  'x, y, z'
loop_
 _atom_site_type_symbol
 _atom_site_label
 _atom_site_symmetry_multiplicity
 _atom_site_fract_x
 _atom_site_fract_y
 _atom_site_fract_z
 _atom_site_occupancy
  Mg  Mg0  1  0.25569700  0.52826800  0.21920900  1
  Mg  Mg1  1  0.52236400  0.99493500  0.23587500  1
  Mg  Mg2  1  0.37603300  0.28759700  0.27245800  1
  Mg  Mg3  1  0.10936600  0.82093000  0.25579100  1
  Mg  Mg4  1  0.85569700  0.32826800  0.31920900  1
  Mg  Mg5  1  0.12236400  0.79493500  0.33587500  1
  Mg  Mg6  1  0.97603300  0.08759700  0.37245800  1
  Mg  Mg7  1  0.70936600  0.62093000  0.35579100  1
  Mg  Mg8  1  0.45569700  0.12826800  0.41920900  1
  Mg  Mg9  1  0.72236400  0.59493500  0.43587500  1
  Mg  Mg10  1  0.57603300  0.88759700  0.47245800  1
  Mg  Mg11  1  0.30936600  0.42093000  0.45579100  1
  Mg  Mg12  1  0.05569700  0.92826800  0.51920900  1
  Mg  Mg13  1  0.32236400  0.39493500  0.53587500  1
  Mg  Mg14  1  0.17603300  0.68759700  0.57245800  1
  Mg  Mg15  1  0.90936600  0.22093000  0.55579100  1
  Mg  Mg16  1  0.65569700  0.72826800  0.61920900  1
  Mg  Mg17  1  0.92236400  0.19493500  0.63587500  1
  Mg  Mg18  1  0.77603300  0.48759700  0.67245800  1
  Mg  Mg19  1  0.50936600  0.02093000  0.65579100  1
  Mg  Mg20  1  0.25569700  0.52826800  0.71920900  1
  Mg  Mg21  1  0.52236400  0.99493500  0.73587500  1
  Mg  Mg22  1  0.37603300  0.28759700  0.77245800  1
  Mg  Mg23  1  0.10936600  0.82093000  0.75579100  1
  Al  Al24  1  0.81586500  0.40793300  0.24583300  1
  Al  Al25  1  0.61586500  0.80793300  0.29583300  1
  Al  Al26  1  0.95000000  0.13966300  0.25496800  1
  Al  Al27  1  0.98894400  0.57379800  0.28790100  1
  Al  Al28  1  0.47692100  0.57379800  0.28790100  1
  Al  Al29  1  0.15480900  0.24206700  0.20376600  1
  Al  Al30  1  0.64278700  0.24206700  0.20376600  1
  Al  Al31  1  0.68173000  0.67620200  0.23669900  1
  Al  Al32  1  0.41586500  0.20793300  0.34583300  1
  Al  Al33  1  0.21586500  0.60793300  0.39583300  1
  Al  Al34  1  0.55000000  0.93966300  0.35496800  1
  Al  Al35  1  0.58894400  0.37379800  0.38790100  1
  Al  Al36  1  0.07692100  0.37379800  0.38790100  1
  Al  Al37  1  0.75480900  0.04206700  0.30376600  1
  Al  Al38  1  0.24278700  0.04206700  0.30376600  1
  Al  Al39  1  0.28173000  0.47620200  0.33669900  1
  Al  Al40  1  0.01586500  0.00793300  0.44583300  1
  Al  Al41  1  0.81586500  0.40793300  0.49583300  1
  Al  Al42  1  0.15000000  0.73966300  0.45496800  1
  Al  Al43  1  0.18894400  0.17379800  0.48790100  1
  Al  Al44  1  0.67692100  0.17379800  0.48790100  1
  Al  Al45  1  0.35480900  0.84206700  0.40376600  1
  Al  Al46  1  0.84278700  0.84206700  0.40376600  1
  Al  Al47  1  0.88173000  0.27620200  0.43669900  1
  Al  Al48  1  0.61586500  0.80793300  0.54583300  1
  Al  Al49  1  0.41586500  0.20793300  0.59583300  1
  Al  Al50  1  0.75000000  0.53966300  0.55496800  1
  Al  Al51  1  0.78894400  0.97379800  0.58790100  1
  Al  Al52  1  0.27692100  0.97379800  0.58790100  1
  Al  Al53  1  0.95480900  0.64206700  0.50376600  1
  Al  Al54  1  0.44278700  0.64206700  0.50376600  1
  Al  Al55  1  0.48173000  0.07620200  0.53669900  1
  Al  Al56  1  0.21586500  0.60793300  0.64583300  1
  Al  Al57  1  0.01586500  0.00793300  0.69583300  1
  Al  Al58  1  0.35000000  0.33966300  0.65496800  1
  Al  Al59  1  0.38894400  0.77379800  0.68790100  1
  Al  Al60  1  0.87692100  0.77379800  0.68790100  1
  Al  Al61  1  0.55480900  0.44206700  0.60376600  1
  Al  Al62  1  0.04278700  0.44206700  0.60376600  1
  Al  Al63  1  0.08173000  0.87620200  0.63669900  1
  Al  Al64  1  0.81586500  0.40793300  0.74583300  1
  Al  Al65  1  0.95000000  0.13966300  0.75496800  1
  Al  Al66  1  0.98894400  0.57379800  0.78790100  1
  Al  Al67  1  0.47692100  0.57379800  0.78790100  1
  Al  Al68  1  0.15480900  0.24206700  0.70376600  1
  Al  Al69  1  0.64278700  0.24206700  0.70376600  1
  Al  Al70  1  0.68173000  0.67620200  0.73669900  1
