# generated using pymatgen
data_Y17Mg9
_symmetry_space_group_name_H-M   'P 1'
_cell_length_a   6.64056910
_cell_length_b   8.78578758
_cell_length_c   42.54886000
_cell_angle_alpha   91.18845685
_cell_angle_beta   92.24944289
_cell_angle_gamma   96.83526682
_symmetry_Int_Tables_number   1
_chemical_formula_structural   Y17Mg9
_chemical_formula_sum   'Y34 Mg18'
_cell_volume   2462.06112541
_cell_formula_units_Z   2
loop_
 _symmetry_equiv_pos_site_id
 _symmetry_equiv_pos_as_xyz
  1  'x, y, z'
loop_
 _atom_site_type_symbol
 _atom_site_label
 _atom_site_symmetry_multiplicity
 _atom_site_fract_x
 _atom_site_fract_y
 _atom_site_fract_z
 _atom_site_occupancy
  Y  Y0  1  0.51296900  0.41869100  0.23757900  1
  Y  Y1  1  0.10407900  0.03369000  0.21480200  1
  Y  Y2  1  0.22725400  0.49012000  0.30900800  1
  Y  Y3  1  0.42218200  0.80587900  0.26027600  1
  Y  Y4  1  0.81836500  0.10511800  0.28623000  1
  Y  Y5  1  0.90915200  0.71793000  0.26353300  1
  Y  Y6  1  0.94154000  0.56154900  0.38043600  1
  Y  Y7  1  0.13646700  0.87730800  0.33170500  1
  Y  Y8  1  0.53265100  0.17654700  0.35765900  1
  Y  Y9  1  0.62343800  0.78935900  0.33496200  1
  Y  Y10  1  0.65582600  0.63297700  0.45186500  1
  Y  Y11  1  0.85075300  0.94873600  0.40313300  1
  Y  Y12  1  0.24693700  0.24797500  0.42908700  1
  Y  Y13  1  0.33772400  0.86078700  0.40639100  1
  Y  Y14  1  0.37011100  0.70440600  0.52329400  1
  Y  Y15  1  0.56503900  0.02016500  0.47456200  1
  Y  Y16  1  0.96122200  0.31940400  0.50051600  1
  Y  Y17  1  0.05200900  0.93221600  0.47781900  1
  Y  Y18  1  0.08439700  0.77583400  0.59472200  1
  Y  Y19  1  0.27932400  0.09159400  0.54599000  1
  Y  Y20  1  0.67550800  0.39083200  0.57194400  1
  Y  Y21  1  0.76629500  0.00364500  0.54924800  1
  Y  Y22  1  0.79868300  0.84726300  0.66615100  1
  Y  Y23  1  0.99361000  0.16302200  0.61741900  1
  Y  Y24  1  0.38979400  0.46226100  0.64337300  1
  Y  Y25  1  0.48058100  0.07507300  0.62067600  1
  Y  Y26  1  0.51296900  0.91869100  0.73757900  1
  Y  Y27  1  0.70789600  0.23445100  0.68884800  1
  Y  Y28  1  0.10407900  0.53369000  0.71480200  1
  Y  Y29  1  0.19486600  0.14650200  0.69210500  1
  Y  Y30  1  0.22725400  0.99012000  0.80900800  1
  Y  Y31  1  0.42218200  0.30587900  0.76027600  1
  Y  Y32  1  0.81836500  0.60511800  0.78623000  1
  Y  Y33  1  0.90915200  0.21793000  0.76353300  1
  Mg  Mg34  1  0.61065800  0.07809700  0.21315700  1
  Mg  Mg35  1  0.00639000  0.37428400  0.23922400  1
  Mg  Mg36  1  0.32494400  0.14952500  0.28458500  1
  Mg  Mg37  1  0.72067600  0.44571300  0.31065300  1
  Mg  Mg38  1  0.03923000  0.22095400  0.35601400  1
  Mg  Mg39  1  0.43496100  0.51714200  0.38208100  1
  Mg  Mg40  1  0.75351500  0.29238200  0.42744300  1
  Mg  Mg41  1  0.14924700  0.58857000  0.45351000  1
  Mg  Mg42  1  0.46780100  0.36381100  0.49887100  1
  Mg  Mg43  1  0.86353300  0.65999900  0.52493800  1
  Mg  Mg44  1  0.18208700  0.43523900  0.57030000  1
  Mg  Mg45  1  0.57781800  0.73142700  0.59636700  1
  Mg  Mg46  1  0.89637300  0.50666800  0.64172800  1
  Mg  Mg47  1  0.29210400  0.80285600  0.66779500  1
  Mg  Mg48  1  0.61065800  0.57809700  0.71315700  1
  Mg  Mg49  1  0.00639000  0.87428400  0.73922400  1
  Mg  Mg50  1  0.32494400  0.64952500  0.78458500  1
  Mg  Mg51  1  0.72067600  0.94571300  0.81065300  1
