# generated using pymatgen
data_Ac2Mg
_symmetry_space_group_name_H-M   'P 1'
_cell_length_a   4.15035232
_cell_length_b   7.30057625
_cell_length_c   43.50716900
_cell_angle_alpha   90.69825644
_cell_angle_beta   90.08266461
_cell_angle_gamma   106.25718942
_symmetry_Int_Tables_number   1
_chemical_formula_structural   Ac2Mg
_chemical_formula_sum   'Ac14 Mg7'
_cell_volume   1265.44427510
_cell_formula_units_Z   7
loop_
 _symmetry_equiv_pos_site_id
 _symmetry_equiv_pos_as_xyz
  1  'x, y, z'
loop_
 _atom_site_type_symbol
 _atom_site_label
 _atom_site_symmetry_multiplicity
 _atom_site_fract_x
 _atom_site_fract_y
 _atom_site_fract_z
 _atom_site_occupancy
  Ac  Ac0  1  0.59328000  0.54073200  0.74114500  1
  Ac  Ac1  1  0.95217400  0.27745000  0.80430900  1
  Ac  Ac2  1  0.50237100  0.35891300  0.65023600  1
  Ac  Ac3  1  0.86126500  0.09563200  0.71340000  1
  Ac  Ac4  1  0.41146200  0.17709500  0.55932700  1
  Ac  Ac5  1  0.77035600  0.91381400  0.62249100  1
  Ac  Ac6  1  0.32055300  0.99527700  0.46841800  1
  Ac  Ac7  1  0.67944700  0.73199600  0.53158200  1
  Ac  Ac8  1  0.22964400  0.81345900  0.37750900  1
  Ac  Ac9  1  0.58853800  0.55017700  0.44067300  1
  Ac  Ac10  1  0.13873500  0.63164100  0.28660000  1
  Ac  Ac11  1  0.49762900  0.36835900  0.34976400  1
  Ac  Ac12  1  0.04782600  0.44982300  0.19569100  1
  Ac  Ac13  1  0.40672000  0.18654100  0.25885500  1
  Mg  Mg14  1  0.27272700  0.90909100  0.77272700  1
  Mg  Mg15  1  0.18181800  0.72727300  0.68181800  1
  Mg  Mg16  1  0.09090900  0.54545500  0.59090900  1
  Mg  Mg17  1  0.00000000  0.36363600  0.50000000  1
  Mg  Mg18  1  0.90909100  0.18181800  0.40909100  1
  Mg  Mg19  1  0.81818200  0.00000000  0.31818200  1
  Mg  Mg20  1  0.72727300  0.81818200  0.22727300  1
