# generated using pymatgen
data_MgCd3
_symmetry_space_group_name_H-M   'P 1'
_cell_length_a   8.11902578
_cell_length_b   8.11902631
_cell_length_c   42.99398300
_cell_angle_alpha   87.67672182
_cell_angle_beta   92.32327833
_cell_angle_gamma   95.55822931
_symmetry_Int_Tables_number   1
_chemical_formula_structural   MgCd3
_chemical_formula_sum   'Mg20 Cd60'
_cell_volume   2816.54805949
_cell_formula_units_Z   20
loop_
 _symmetry_equiv_pos_site_id
 _symmetry_equiv_pos_as_xyz
  1  'x, y, z'
loop_
 _atom_site_type_symbol
 _atom_site_label
 _atom_site_symmetry_multiplicity
 _atom_site_fract_x
 _atom_site_fract_y
 _atom_site_fract_z
 _atom_site_occupancy
  Mg  Mg0  1  0.94815800  0.38517500  0.23437500  1
  Mg  Mg1  1  0.42732500  0.23934200  0.20312500  1
  Mg  Mg2  1  0.32315800  0.01017500  0.29687500  1
  Mg  Mg3  1  0.80232500  0.86434200  0.26562500  1
  Mg  Mg4  1  0.69815800  0.63517500  0.35937500  1
  Mg  Mg5  1  0.17732500  0.48934200  0.32812500  1
  Mg  Mg6  1  0.07315800  0.26017500  0.42187500  1
  Mg  Mg7  1  0.55232500  0.11434200  0.39062500  1
  Mg  Mg8  1  0.44815800  0.88517500  0.48437500  1
  Mg  Mg9  1  0.92732500  0.73934200  0.45312500  1
  Mg  Mg10  1  0.82315800  0.51017500  0.54687500  1
  Mg  Mg11  1  0.30232500  0.36434200  0.51562500  1
  Mg  Mg12  1  0.19815800  0.13517500  0.60937500  1
  Mg  Mg13  1  0.67732500  0.98934200  0.57812500  1
  Mg  Mg14  1  0.57315800  0.76017500  0.67187500  1
  Mg  Mg15  1  0.05232500  0.61434200  0.64062500  1
  Mg  Mg16  1  0.94815800  0.38517500  0.73437500  1
  Mg  Mg17  1  0.42732500  0.23934200  0.70312500  1
  Mg  Mg18  1  0.32315800  0.01017500  0.79687500  1
  Mg  Mg19  1  0.80232500  0.86434200  0.76562500  1
  Cd  Cd20  1  0.44837300  0.88539000  0.23437500  1
  Cd  Cd21  1  0.92711000  0.73912700  0.20312500  1
  Cd  Cd22  1  0.11485200  0.05203000  0.23441500  1
  Cd  Cd23  1  0.76047000  0.07264800  0.20316500  1
  Cd  Cd24  1  0.26063100  0.57248800  0.20308500  1
  Cd  Cd25  1  0.61501200  0.55186900  0.23433500  1
  Cd  Cd26  1  0.82337300  0.51039000  0.29687500  1
  Cd  Cd27  1  0.30211000  0.36412700  0.26562500  1
  Cd  Cd28  1  0.48985200  0.67703000  0.29691500  1
  Cd  Cd29  1  0.13547000  0.69764800  0.26566500  1
  Cd  Cd30  1  0.63563100  0.19748800  0.26558500  1
  Cd  Cd31  1  0.99001200  0.17686900  0.29683500  1
  Cd  Cd32  1  0.19837300  0.13539000  0.35937500  1
  Cd  Cd33  1  0.67711000  0.98912700  0.32812500  1
  Cd  Cd34  1  0.86485200  0.30203000  0.35941500  1
  Cd  Cd35  1  0.51047000  0.32264800  0.32816500  1
  Cd  Cd36  1  0.01063100  0.82248800  0.32808500  1
  Cd  Cd37  1  0.36501200  0.80186900  0.35933500  1
  Cd  Cd38  1  0.57337300  0.76039000  0.42187500  1
  Cd  Cd39  1  0.05211000  0.61412700  0.39062500  1
  Cd  Cd40  1  0.23985200  0.92703000  0.42191500  1
  Cd  Cd41  1  0.88547000  0.94764800  0.39066500  1
  Cd  Cd42  1  0.38563100  0.44748800  0.39058500  1
  Cd  Cd43  1  0.74001200  0.42686900  0.42183500  1
  Cd  Cd44  1  0.94837300  0.38539000  0.48437500  1
  Cd  Cd45  1  0.42711000  0.23912700  0.45312500  1
  Cd  Cd46  1  0.61485200  0.55203000  0.48441500  1
  Cd  Cd47  1  0.26047000  0.57264800  0.45316500  1
  Cd  Cd48  1  0.76063100  0.07248800  0.45308500  1
  Cd  Cd49  1  0.11501200  0.05186900  0.48433500  1
  Cd  Cd50  1  0.32337300  0.01039000  0.54687500  1
  Cd  Cd51  1  0.80211000  0.86412700  0.51562500  1
  Cd  Cd52  1  0.98985200  0.17703000  0.54691500  1
  Cd  Cd53  1  0.63547000  0.19764800  0.51566500  1
  Cd  Cd54  1  0.13563100  0.69748800  0.51558500  1
  Cd  Cd55  1  0.49001200  0.67686900  0.54683500  1
  Cd  Cd56  1  0.69837300  0.63539000  0.60937500  1
  Cd  Cd57  1  0.17711000  0.48912700  0.57812500  1
  Cd  Cd58  1  0.36485200  0.80203000  0.60941500  1
  Cd  Cd59  1  0.01047000  0.82264800  0.57816500  1
  Cd  Cd60  1  0.51063100  0.32248800  0.57808500  1
  Cd  Cd61  1  0.86501200  0.30186900  0.60933500  1
  Cd  Cd62  1  0.07337300  0.26039000  0.67187500  1
  Cd  Cd63  1  0.55211000  0.11412700  0.64062500  1
  Cd  Cd64  1  0.73985200  0.42703000  0.67191500  1
  Cd  Cd65  1  0.38547000  0.44764800  0.64066500  1
  Cd  Cd66  1  0.88563100  0.94748800  0.64058500  1
  Cd  Cd67  1  0.24001200  0.92686900  0.67183500  1
  Cd  Cd68  1  0.44837300  0.88539000  0.73437500  1
  Cd  Cd69  1  0.92711000  0.73912700  0.70312500  1
  Cd  Cd70  1  0.11485200  0.05203000  0.73441500  1
  Cd  Cd71  1  0.76047000  0.07264800  0.70316500  1
  Cd  Cd72  1  0.26063100  0.57248800  0.70308500  1
  Cd  Cd73  1  0.61501200  0.55186900  0.73433500  1
  Cd  Cd74  1  0.82337300  0.51039000  0.79687500  1
  Cd  Cd75  1  0.30211000  0.36412700  0.76562500  1
  Cd  Cd76  1  0.48985200  0.67703000  0.79691500  1
  Cd  Cd77  1  0.13547000  0.69764800  0.76566500  1
  Cd  Cd78  1  0.63563100  0.19748800  0.76558500  1
  Cd  Cd79  1  0.99001200  0.17686900  0.79683500  1
