# generated using pymatgen
data_Mg28Ir55
_symmetry_space_group_name_H-M   'P 1'
_cell_length_a   5.21013629
_cell_length_b   9.93407682
_cell_length_c   44.06856100
_cell_angle_alpha   96.15496522
_cell_angle_beta   93.38895847
_cell_angle_gamma   74.79724947
_symmetry_Int_Tables_number   1
_chemical_formula_structural   Mg28Ir55
_chemical_formula_sum   'Mg28 Ir55'
_cell_volume   2187.24305336
_cell_formula_units_Z   1
loop_
 _symmetry_equiv_pos_site_id
 _symmetry_equiv_pos_as_xyz
  1  'x, y, z'
loop_
 _atom_site_type_symbol
 _atom_site_label
 _atom_site_symmetry_multiplicity
 _atom_site_fract_x
 _atom_site_fract_y
 _atom_site_fract_z
 _atom_site_occupancy
  Mg  Mg0  1  0.04879800  0.42677000  0.25248800  1
  Mg  Mg1  1  0.32152500  0.89646700  0.26764000  1
  Mg  Mg2  1  0.55355300  0.37440500  0.20963300  1
  Mg  Mg3  1  0.28082600  0.90470800  0.19448100  1
  Mg  Mg4  1  0.68516200  0.24495200  0.34339700  1
  Mg  Mg5  1  0.95788900  0.71464900  0.35854900  1
  Mg  Mg6  1  0.18991700  0.19258700  0.30054200  1
  Mg  Mg7  1  0.91718900  0.72289000  0.28539000  1
  Mg  Mg8  1  0.32152500  0.06313400  0.43430600  1
  Mg  Mg9  1  0.59425200  0.53283100  0.44945800  1
  Mg  Mg10  1  0.82628000  0.01076900  0.39145100  1
  Mg  Mg11  1  0.55355300  0.54107200  0.37630000  1
  Mg  Mg12  1  0.95788900  0.88131600  0.52521600  1
  Mg  Mg13  1  0.23061600  0.35101300  0.54036700  1
  Mg  Mg14  1  0.46264400  0.82895000  0.48236000  1
  Mg  Mg15  1  0.18991700  0.35925300  0.46720900  1
  Mg  Mg16  1  0.59425200  0.69949800  0.61612500  1
  Mg  Mg17  1  0.86698000  0.16919500  0.63127600  1
  Mg  Mg18  1  0.09900700  0.64713200  0.57326900  1
  Mg  Mg19  1  0.82628000  0.17743500  0.55811800  1
  Mg  Mg20  1  0.23061600  0.51768000  0.70703400  1
  Mg  Mg21  1  0.50334300  0.98737600  0.72218500  1
  Mg  Mg22  1  0.73537100  0.46531400  0.66417800  1
  Mg  Mg23  1  0.46264400  0.99561700  0.64902700  1
  Mg  Mg24  1  0.86698000  0.33586100  0.79794300  1
  Mg  Mg25  1  0.13970700  0.80555800  0.81309400  1
  Mg  Mg26  1  0.37173500  0.28349600  0.75508700  1
  Mg  Mg27  1  0.09900700  0.81379900  0.73993600  1
  Ir  Ir28  1  0.80117500  0.90058800  0.23106100  1
  Ir  Ir29  1  0.48160200  0.57668500  0.26801200  1
  Ir  Ir30  1  0.42919200  0.13636400  0.23817300  1
  Ir  Ir31  1  0.94449500  0.13636400  0.23817300  1
  Ir  Ir32  1  0.65785600  0.66481200  0.22394900  1
  Ir  Ir33  1  0.17315900  0.66481200  0.22394900  1
  Ir  Ir34  1  0.12074800  0.22449000  0.19410900  1
  Ir  Ir35  1  0.61935700  0.30967900  0.27651500  1
  Ir  Ir36  1  0.43753900  0.71877000  0.32197000  1
  Ir  Ir37  1  0.11796600  0.39486700  0.35892100  1
  Ir  Ir38  1  0.06555600  0.95454500  0.32908200  1
  Ir  Ir39  1  0.58085800  0.95454500  0.32908200  1
  Ir  Ir40  1  0.29422000  0.48299400  0.31485800  1
  Ir  Ir41  1  0.80952200  0.48299400  0.31485800  1
  Ir  Ir42  1  0.75711200  0.04267200  0.28501800  1
  Ir  Ir43  1  0.25572100  0.12786000  0.36742400  1
  Ir  Ir44  1  0.07390300  0.53695100  0.41287900  1
  Ir  Ir45  1  0.75433000  0.21304900  0.44983000  1
  Ir  Ir46  1  0.70191900  0.77272700  0.41999100  1
  Ir  Ir47  1  0.21722200  0.77272700  0.41999100  1
  Ir  Ir48  1  0.93058300  0.30117500  0.40576700  1
  Ir  Ir49  1  0.44588600  0.30117500  0.40576700  1
  Ir  Ir50  1  0.39347600  0.86085400  0.37592700  1
  Ir  Ir51  1  0.89208500  0.94604200  0.45833300  1
  Ir  Ir52  1  0.71026600  0.35513300  0.50378800  1
  Ir  Ir53  1  0.39069300  0.03123000  0.54073900  1
  Ir  Ir54  1  0.33828300  0.59090900  0.51090000  1
  Ir  Ir55  1  0.85358600  0.59090900  0.51090000  1
  Ir  Ir56  1  0.56694700  0.11935700  0.49667600  1
  Ir  Ir57  1  0.08225000  0.11935700  0.49667600  1
  Ir  Ir58  1  0.02983900  0.67903600  0.46683700  1
  Ir  Ir59  1  0.52844800  0.76422400  0.54924200  1
  Ir  Ir60  1  0.34663000  0.17331500  0.59469700  1
  Ir  Ir61  1  0.02705700  0.84941200  0.63164800  1
  Ir  Ir62  1  0.97464700  0.40909100  0.60180900  1
  Ir  Ir63  1  0.48994900  0.40909100  0.60180900  1
  Ir  Ir64  1  0.20331100  0.93753900  0.58758500  1
  Ir  Ir65  1  0.71861300  0.93753900  0.58758500  1
  Ir  Ir66  1  0.66620300  0.49721800  0.55774600  1
  Ir  Ir67  1  0.16481200  0.58240600  0.64015200  1
  Ir  Ir68  1  0.98299400  0.99149700  0.68560600  1
  Ir  Ir69  1  0.66342100  0.66759400  0.72255700  1
  Ir  Ir70  1  0.61101000  0.22727300  0.69271800  1
  Ir  Ir71  1  0.12631300  0.22727300  0.69271800  1
  Ir  Ir72  1  0.83967400  0.75572100  0.67849400  1
  Ir  Ir73  1  0.35497700  0.75572100  0.67849400  1
  Ir  Ir74  1  0.30256700  0.31540000  0.64865500  1
  Ir  Ir75  1  0.80117500  0.40058800  0.73106100  1
  Ir  Ir76  1  0.61935700  0.80967900  0.77651500  1
  Ir  Ir77  1  0.29978400  0.48577600  0.81346700  1
  Ir  Ir78  1  0.24737400  0.04545500  0.78362700  1
  Ir  Ir79  1  0.76267700  0.04545500  0.78362700  1
  Ir  Ir80  1  0.47603800  0.57390300  0.76940300  1
  Ir  Ir81  1  0.99134100  0.57390300  0.76940300  1
  Ir  Ir82  1  0.93893000  0.13358100  0.73956400  1
