# generated using pymatgen
data_Mg25Ir38
_symmetry_space_group_name_H-M   'P 1'
_cell_length_a   9.72091561
_cell_length_b   10.02721097
_cell_length_c   44.35051200
_cell_angle_alpha   96.44506080
_cell_angle_beta   93.67631499
_cell_angle_gamma   75.98716788
_symmetry_Int_Tables_number   1
_chemical_formula_structural   Mg25Ir38
_chemical_formula_sum   'Mg50 Ir76'
_cell_volume   4164.79217447
_cell_formula_units_Z   2
loop_
 _symmetry_equiv_pos_site_id
 _symmetry_equiv_pos_as_xyz
  1  'x, y, z'
loop_
 _atom_site_type_symbol
 _atom_site_label
 _atom_site_symmetry_multiplicity
 _atom_site_fract_x
 _atom_site_fract_y
 _atom_site_fract_z
 _atom_site_occupancy
  Mg  Mg0  1  0.28872400  0.70263700  0.72845300  1
  Mg  Mg1  1  0.20727600  0.98924500  0.76754700  1
  Mg  Mg2  1  0.84000800  0.41125800  0.73087400  1
  Mg  Mg3  1  0.65599200  0.28062400  0.76512600  1
  Mg  Mg4  1  0.34489500  0.44755700  0.76337500  1
  Mg  Mg5  1  0.15110500  0.24432500  0.73262500  1
  Mg  Mg6  1  0.55058100  0.71777200  0.70598100  1
  Mg  Mg7  1  0.94541900  0.97411000  0.79001900  1
  Mg  Mg8  1  0.80610500  0.71262200  0.76404100  1
  Mg  Mg9  1  0.68989500  0.97926000  0.73195900  1
  Mg  Mg10  1  0.18872400  0.40263700  0.62845300  1
  Mg  Mg11  1  0.10727600  0.68924500  0.66754700  1
  Mg  Mg12  1  0.74000800  0.11125800  0.63087400  1
  Mg  Mg13  1  0.55599200  0.98062400  0.66512600  1
  Mg  Mg14  1  0.24489500  0.14755700  0.66337500  1
  Mg  Mg15  1  0.05110500  0.94432500  0.63262500  1
  Mg  Mg16  1  0.45058100  0.41777200  0.60598100  1
  Mg  Mg17  1  0.84541900  0.67411000  0.69001900  1
  Mg  Mg18  1  0.70610500  0.41262200  0.66404100  1
  Mg  Mg19  1  0.58989500  0.67926000  0.63195900  1
  Mg  Mg20  1  0.08872400  0.10263700  0.52845300  1
  Mg  Mg21  1  0.00727600  0.38924500  0.56754700  1
  Mg  Mg22  1  0.64000800  0.81125800  0.53087400  1
  Mg  Mg23  1  0.45599200  0.68062400  0.56512600  1
  Mg  Mg24  1  0.14489500  0.84755700  0.56337500  1
  Mg  Mg25  1  0.95110500  0.64432500  0.53262500  1
  Mg  Mg26  1  0.35058100  0.11777200  0.50598100  1
  Mg  Mg27  1  0.74541900  0.37411000  0.59001900  1
  Mg  Mg28  1  0.60610500  0.11262200  0.56404100  1
  Mg  Mg29  1  0.48989500  0.37926000  0.53195900  1
  Mg  Mg30  1  0.98872400  0.80263700  0.42845300  1
  Mg  Mg31  1  0.90727600  0.08924500  0.46754700  1
  Mg  Mg32  1  0.54000800  0.51125800  0.43087400  1
  Mg  Mg33  1  0.35599200  0.38062400  0.46512600  1
  Mg  Mg34  1  0.04489500  0.54755700  0.46337500  1
  Mg  Mg35  1  0.85110500  0.34432500  0.43262500  1
  Mg  Mg36  1  0.25058100  0.81777200  0.40598100  1
  Mg  Mg37  1  0.64541900  0.07411000  0.49001900  1
  Mg  Mg38  1  0.50610500  0.81262200  0.46404100  1
  Mg  Mg39  1  0.38989500  0.07926000  0.43195900  1
  Mg  Mg40  1  0.88872400  0.50263700  0.32845300  1
  Mg  Mg41  1  0.80727600  0.78924500  0.36754700  1
  Mg  Mg42  1  0.44000800  0.21125800  0.33087400  1
  Mg  Mg43  1  0.25599200  0.08062400  0.36512600  1
  Mg  Mg44  1  0.94489500  0.24755700  0.36337500  1
  Mg  Mg45  1  0.75110500  0.04432500  0.33262500  1
  Mg  Mg46  1  0.15058100  0.51777200  0.30598100  1
  Mg  Mg47  1  0.54541900  0.77411000  0.39001900  1
  Mg  Mg48  1  0.40610500  0.51262200  0.36404100  1
  Mg  Mg49  1  0.28989500  0.77926000  0.33195900  1
  Ir  Ir50  1  0.50170100  0.86545300  0.76394400  1
  Ir  Ir51  1  0.99429900  0.82642900  0.73205600  1
  Ir  Ir52  1  0.06499700  0.55974200  0.72911000  1
  Ir  Ir53  1  0.43100300  0.13214000  0.76689000  1
  Ir  Ir54  1  0.38090600  0.98184800  0.71679300  1
  Ir  Ir55  1  0.11509400  0.71003500  0.77920700  1
  Ir  Ir56  1  0.79800000  0.49594100  0.79800000  1
  Ir  Ir57  1  0.13263300  0.96103600  0.70070600  1
  Ir  Ir58  1  0.36336700  0.73084600  0.79529400  1
  Ir  Ir59  1  0.05276200  0.47837300  0.78110600  1
  Ir  Ir60  1  0.44323800  0.21350900  0.71489400  1
  Ir  Ir61  1  0.53173800  0.44585500  0.71327400  1
  Ir  Ir62  1  0.96426200  0.24602700  0.78272600  1
  Ir  Ir63  1  0.91747400  0.10566400  0.73593900  1
  Ir  Ir64  1  0.57852600  0.58621800  0.76006100  1
  Ir  Ir65  1  0.40170100  0.56545300  0.66394400  1
  Ir  Ir66  1  0.89429900  0.52642900  0.63205600  1
  Ir  Ir67  1  0.96499700  0.25974200  0.62911000  1
  Ir  Ir68  1  0.33100300  0.83214000  0.66689000  1
  Ir  Ir69  1  0.28090600  0.68184800  0.61679300  1
  Ir  Ir70  1  0.01509400  0.41003500  0.67920700  1
  Ir  Ir71  1  0.69800000  0.19594100  0.69800000  1
  Ir  Ir72  1  0.03263300  0.66103600  0.60070600  1
  Ir  Ir73  1  0.26336700  0.43084600  0.69529400  1
  Ir  Ir74  1  0.95276200  0.17837300  0.68110600  1
  Ir  Ir75  1  0.34323800  0.91350900  0.61489400  1
  Ir  Ir76  1  0.43173800  0.14585500  0.61327400  1
  Ir  Ir77  1  0.86426200  0.94602700  0.68272600  1
  Ir  Ir78  1  0.81747400  0.80566400  0.63593900  1
  Ir  Ir79  1  0.47852600  0.28621800  0.66006100  1
  Ir  Ir80  1  0.30170100  0.26545300  0.56394400  1
  Ir  Ir81  1  0.79429900  0.22642900  0.53205600  1
  Ir  Ir82  1  0.86499700  0.95974200  0.52911000  1
  Ir  Ir83  1  0.23100300  0.53214000  0.56689000  1
  Ir  Ir84  1  0.18090600  0.38184800  0.51679300  1
  Ir  Ir85  1  0.91509400  0.11003500  0.57920700  1
  Ir  Ir86  1  0.59800000  0.89594100  0.59800000  1
  Ir  Ir87  1  0.93263300  0.36103600  0.50070600  1
  Ir  Ir88  1  0.16336700  0.13084600  0.59529400  1
  Ir  Ir89  1  0.85276200  0.87837300  0.58110600  1
  Ir  Ir90  1  0.24323800  0.61350900  0.51489400  1
  Ir  Ir91  1  0.33173800  0.84585500  0.51327400  1
  Ir  Ir92  1  0.76426200  0.64602700  0.58272600  1
  Ir  Ir93  1  0.71747400  0.50566400  0.53593900  1
  Ir  Ir94  1  0.37852600  0.98621800  0.56006100  1
  Ir  Ir95  1  0.20170100  0.96545300  0.46394400  1
  Ir  Ir96  1  0.69429900  0.92642900  0.43205600  1
  Ir  Ir97  1  0.76499700  0.65974200  0.42911000  1
  Ir  Ir98  1  0.13100300  0.23214000  0.46689000  1
  Ir  Ir99  1  0.08090600  0.08184800  0.41679300  1
  Ir  Ir100  1  0.81509400  0.81003500  0.47920700  1
  Ir  Ir101  1  0.49800000  0.59594100  0.49800000  1
  Ir  Ir102  1  0.83263300  0.06103600  0.40070600  1
  Ir  Ir103  1  0.06336700  0.83084600  0.49529400  1
  Ir  Ir104  1  0.75276200  0.57837300  0.48110600  1
  Ir  Ir105  1  0.14323800  0.31350900  0.41489400  1
  Ir  Ir106  1  0.23173800  0.54585500  0.41327400  1
  Ir  Ir107  1  0.66426200  0.34602700  0.48272600  1
  Ir  Ir108  1  0.61747400  0.20566400  0.43593900  1
  Ir  Ir109  1  0.27852600  0.68621800  0.46006100  1
  Ir  Ir110  1  0.10170100  0.66545300  0.36394400  1
  Ir  Ir111  1  0.59429900  0.62642900  0.33205600  1
  Ir  Ir112  1  0.66499700  0.35974200  0.32911000  1
  Ir  Ir113  1  0.03100300  0.93214000  0.36689000  1
  Ir  Ir114  1  0.98090600  0.78184800  0.31679300  1
  Ir  Ir115  1  0.71509400  0.51003500  0.37920700  1
  Ir  Ir116  1  0.39800000  0.29594100  0.39800000  1
  Ir  Ir117  1  0.73263300  0.76103600  0.30070600  1
  Ir  Ir118  1  0.96336700  0.53084600  0.39529400  1
  Ir  Ir119  1  0.65276200  0.27837300  0.38110600  1
  Ir  Ir120  1  0.04323800  0.01350900  0.31489400  1
  Ir  Ir121  1  0.13173800  0.24585500  0.31327400  1
  Ir  Ir122  1  0.56426200  0.04602700  0.38272600  1
  Ir  Ir123  1  0.51747400  0.90566400  0.33593900  1
  Ir  Ir124  1  0.17852600  0.38621800  0.36006100  1
  Ir  Ir125  1  0.29800000  0.99594100  0.29800000  1
