# generated using pymatgen
data_Mg2Ir3
_symmetry_space_group_name_H-M   'P 1'
_cell_length_a   9.72091470
_cell_length_b   10.02721169
_cell_length_c   42.99921300
_cell_angle_alpha   94.02267208
_cell_angle_beta   94.30460560
_cell_angle_gamma   92.31047724
_symmetry_Int_Tables_number   1
_chemical_formula_structural   Mg2Ir3
_chemical_formula_sum   'Mg58 Ir87'
_cell_volume   4164.79203527
_cell_formula_units_Z   29
loop_
 _symmetry_equiv_pos_site_id
 _symmetry_equiv_pos_as_xyz
  1  'x, y, z'
loop_
 _atom_site_type_symbol
 _atom_site_label
 _atom_site_symmetry_multiplicity
 _atom_site_fract_x
 _atom_site_fract_y
 _atom_site_fract_z
 _atom_site_occupancy
  Mg  Mg0  1  0.61837900  0.15196800  0.22352000  1
  Mg  Mg1  1  0.66596100  0.20152200  0.29648000  1
  Mg  Mg2  1  0.02682300  0.57868800  0.26621300  1
  Mg  Mg3  1  0.25751700  0.77480200  0.25378700  1
  Mg  Mg4  1  0.53417700  0.70067300  0.28647300  1
  Mg  Mg5  1  0.75016300  0.65281800  0.23352700  1
  Mg  Mg6  1  0.12035400  0.29744500  0.23975300  1
  Mg  Mg7  1  0.16398600  0.05604500  0.28024700  1
  Mg  Mg8  1  0.51837900  0.45196800  0.32352000  1
  Mg  Mg9  1  0.56596100  0.50152200  0.39648000  1
  Mg  Mg10  1  0.92682300  0.87868800  0.36621300  1
  Mg  Mg11  1  0.15751700  0.07480200  0.35378700  1
  Mg  Mg12  1  0.43417700  0.00067300  0.38647300  1
  Mg  Mg13  1  0.65016300  0.95281800  0.33352700  1
  Mg  Mg14  1  0.24001200  0.35153400  0.31755900  1
  Mg  Mg15  1  0.94432800  0.30195600  0.30244100  1
  Mg  Mg16  1  0.02035400  0.59744500  0.33975300  1
  Mg  Mg17  1  0.06398600  0.35604500  0.38024700  1
  Mg  Mg18  1  0.41837900  0.75196800  0.42352000  1
  Mg  Mg19  1  0.46596100  0.80152200  0.49648000  1
  Mg  Mg20  1  0.82682300  0.17868800  0.46621300  1
  Mg  Mg21  1  0.05751700  0.37480200  0.45378700  1
  Mg  Mg22  1  0.33417700  0.30067300  0.48647300  1
  Mg  Mg23  1  0.55016300  0.25281800  0.43352700  1
  Mg  Mg24  1  0.14001200  0.65153400  0.41755900  1
  Mg  Mg25  1  0.84432800  0.60195600  0.40244100  1
  Mg  Mg26  1  0.92035400  0.89744500  0.43975300  1
  Mg  Mg27  1  0.96398600  0.65604500  0.48024700  1
  Mg  Mg28  1  0.31837900  0.05196800  0.52352000  1
  Mg  Mg29  1  0.36596100  0.10152200  0.59648000  1
  Mg  Mg30  1  0.72682300  0.47868800  0.56621300  1
  Mg  Mg31  1  0.95751700  0.67480200  0.55378700  1
  Mg  Mg32  1  0.23417700  0.60067300  0.58647300  1
  Mg  Mg33  1  0.45016300  0.55281800  0.53352700  1
  Mg  Mg34  1  0.04001200  0.95153400  0.51755900  1
  Mg  Mg35  1  0.74432800  0.90195600  0.50244100  1
  Mg  Mg36  1  0.82035400  0.19744500  0.53975300  1
  Mg  Mg37  1  0.86398600  0.95604500  0.58024700  1
  Mg  Mg38  1  0.21837900  0.35196800  0.62352000  1
  Mg  Mg39  1  0.26596100  0.40152200  0.69648000  1
  Mg  Mg40  1  0.62682300  0.77868800  0.66621300  1
  Mg  Mg41  1  0.85751700  0.97480200  0.65378700  1
  Mg  Mg42  1  0.13417700  0.90067300  0.68647300  1
  Mg  Mg43  1  0.35016300  0.85281800  0.63352700  1
  Mg  Mg44  1  0.94001200  0.25153400  0.61755900  1
  Mg  Mg45  1  0.64432800  0.20195600  0.60244100  1
  Mg  Mg46  1  0.72035400  0.49744500  0.63975300  1
  Mg  Mg47  1  0.76398600  0.25604500  0.68024700  1
  Mg  Mg48  1  0.11837900  0.65196800  0.72352000  1
  Mg  Mg49  1  0.16596100  0.70152200  0.79648000  1
  Mg  Mg50  1  0.52682300  0.07868800  0.76621300  1
  Mg  Mg51  1  0.75751700  0.27480200  0.75378700  1
  Mg  Mg52  1  0.03417700  0.20067300  0.78647300  1
  Mg  Mg53  1  0.25016300  0.15281800  0.73352700  1
  Mg  Mg54  1  0.84001200  0.55153400  0.71755900  1
  Mg  Mg55  1  0.54432800  0.50195600  0.70244100  1
  Mg  Mg56  1  0.62035400  0.79744500  0.73975300  1
  Mg  Mg57  1  0.66398600  0.55604500  0.78024700  1
  Ir  Ir58  1  0.39413300  0.23590600  0.27028000  1
  Ir  Ir59  1  0.89020700  0.11758400  0.24972000  1
  Ir  Ir60  1  0.77107900  0.51188500  0.29520400  1
  Ir  Ir61  1  0.51326100  0.84160500  0.22479600  1
  Ir  Ir62  1  0.46335900  0.99131300  0.27469800  1
  Ir  Ir63  1  0.82098100  0.36217800  0.24530200  1
  Ir  Ir64  1  0.70614100  0.93207200  0.26410100  1
  Ir  Ir65  1  0.57819900  0.42141800  0.25589900  1
  Ir  Ir66  1  0.83078400  0.76281600  0.29972900  1
  Ir  Ir67  1  0.45355500  0.59067400  0.22027100  1
  Ir  Ir68  1  0.31761300  0.49092900  0.26609200  1
  Ir  Ir69  1  0.96672700  0.86256100  0.25390800  1
  Ir  Ir70  1  0.29413300  0.53590600  0.37028000  1
  Ir  Ir71  1  0.79020700  0.41758400  0.34972000  1
  Ir  Ir72  1  0.67107900  0.81188500  0.39520400  1
  Ir  Ir73  1  0.41326100  0.14160500  0.32479600  1
  Ir  Ir74  1  0.36335900  0.29131300  0.37469800  1
  Ir  Ir75  1  0.72098100  0.66217800  0.34530200  1
  Ir  Ir76  1  0.09217000  0.82674500  0.31000000  1
  Ir  Ir77  1  0.60614100  0.23207200  0.36410100  1
  Ir  Ir78  1  0.47819900  0.72141800  0.35589900  1
  Ir  Ir79  1  0.73078400  0.06281600  0.39972900  1
  Ir  Ir80  1  0.35355500  0.89067400  0.32027100  1
  Ir  Ir81  1  0.21761300  0.79092900  0.36609200  1
  Ir  Ir82  1  0.86672700  0.16256100  0.35390800  1
  Ir  Ir83  1  0.91351500  0.02219800  0.30712000  1
  Ir  Ir84  1  0.27082500  0.63129200  0.31288000  1
  Ir  Ir85  1  0.19413300  0.83590600  0.47028000  1
  Ir  Ir86  1  0.69020700  0.71758400  0.44972000  1
  Ir  Ir87  1  0.57107900  0.11188500  0.49520400  1
  Ir  Ir88  1  0.31326100  0.44160500  0.42479600  1
  Ir  Ir89  1  0.26335900  0.59131300  0.47469800  1
  Ir  Ir90  1  0.62098100  0.96217800  0.44530200  1
  Ir  Ir91  1  0.99217000  0.12674500  0.41000000  1
  Ir  Ir92  1  0.50614100  0.53207200  0.46410100  1
  Ir  Ir93  1  0.37819900  0.02141800  0.45589900  1
  Ir  Ir94  1  0.63078400  0.36281600  0.49972900  1
  Ir  Ir95  1  0.25355500  0.19067400  0.42027100  1
  Ir  Ir96  1  0.11761300  0.09092900  0.46609200  1
  Ir  Ir97  1  0.76672700  0.46256100  0.45390800  1
  Ir  Ir98  1  0.81351500  0.32219800  0.40712000  1
  Ir  Ir99  1  0.17082500  0.93129200  0.41288000  1
  Ir  Ir100  1  0.09413300  0.13590600  0.57028000  1
  Ir  Ir101  1  0.59020700  0.01758400  0.54972000  1
  Ir  Ir102  1  0.47107900  0.41188500  0.59520400  1
  Ir  Ir103  1  0.21326100  0.74160500  0.52479600  1
  Ir  Ir104  1  0.16335900  0.89131300  0.57469800  1
  Ir  Ir105  1  0.52098100  0.26217800  0.54530200  1
  Ir  Ir106  1  0.89217000  0.42674500  0.51000000  1
  Ir  Ir107  1  0.40614100  0.83207200  0.56410100  1
  Ir  Ir108  1  0.27819900  0.32141800  0.55589900  1
  Ir  Ir109  1  0.53078400  0.66281600  0.59972900  1
  Ir  Ir110  1  0.15355500  0.49067400  0.52027100  1
  Ir  Ir111  1  0.01761300  0.39092900  0.56609200  1
  Ir  Ir112  1  0.66672700  0.76256100  0.55390800  1
  Ir  Ir113  1  0.71351500  0.62219800  0.50712000  1
  Ir  Ir114  1  0.07082500  0.23129200  0.51288000  1
  Ir  Ir115  1  0.99413300  0.43590600  0.67028000  1
  Ir  Ir116  1  0.49020700  0.31758400  0.64972000  1
  Ir  Ir117  1  0.37107900  0.71188500  0.69520400  1
  Ir  Ir118  1  0.11326100  0.04160500  0.62479600  1
  Ir  Ir119  1  0.06335900  0.19131300  0.67469800  1
  Ir  Ir120  1  0.42098100  0.56217800  0.64530200  1
  Ir  Ir121  1  0.79217000  0.72674500  0.61000000  1
  Ir  Ir122  1  0.30614100  0.13207200  0.66410100  1
  Ir  Ir123  1  0.17819900  0.62141800  0.65589900  1
  Ir  Ir124  1  0.43078400  0.96281600  0.69972900  1
  Ir  Ir125  1  0.05355500  0.79067400  0.62027100  1
  Ir  Ir126  1  0.91761300  0.69092900  0.66609200  1
  Ir  Ir127  1  0.56672700  0.06256100  0.65390800  1
  Ir  Ir128  1  0.61351500  0.92219800  0.60712000  1
  Ir  Ir129  1  0.97082500  0.53129200  0.61288000  1
  Ir  Ir130  1  0.89413300  0.73590600  0.77028000  1
  Ir  Ir131  1  0.39020700  0.61758400  0.74972000  1
  Ir  Ir132  1  0.27107900  0.01188500  0.79520400  1
  Ir  Ir133  1  0.01326100  0.34160500  0.72479600  1
  Ir  Ir134  1  0.96335900  0.49131300  0.77469800  1
  Ir  Ir135  1  0.32098100  0.86217800  0.74530200  1
  Ir  Ir136  1  0.69217000  0.02674500  0.71000000  1
  Ir  Ir137  1  0.20614100  0.43207200  0.76410100  1
  Ir  Ir138  1  0.07819900  0.92141800  0.75589900  1
  Ir  Ir139  1  0.33078400  0.26281600  0.79972900  1
  Ir  Ir140  1  0.95355500  0.09067400  0.72027100  1
  Ir  Ir141  1  0.81761300  0.99092900  0.76609200  1
  Ir  Ir142  1  0.46672700  0.36256100  0.75390800  1
  Ir  Ir143  1  0.51351500  0.22219800  0.70712000  1
  Ir  Ir144  1  0.87082500  0.83129200  0.71288000  1
