# generated using pymatgen
data_Er19Mg10
_symmetry_space_group_name_H-M   'P 1'
_cell_length_a   3.65070000
_cell_length_b   17.86447484
_cell_length_c   41.62564500
_cell_angle_alpha   96.45089822
_cell_angle_beta   90.00000000
_cell_angle_gamma   90.00000000
_symmetry_Int_Tables_number   1
_chemical_formula_structural   Er19Mg10
_chemical_formula_sum   'Er38 Mg20'
_cell_volume   2697.54625518
_cell_formula_units_Z   2
loop_
 _symmetry_equiv_pos_site_id
 _symmetry_equiv_pos_as_xyz
  1  'x, y, z'
loop_
 _atom_site_type_symbol
 _atom_site_label
 _atom_site_symmetry_multiplicity
 _atom_site_fract_x
 _atom_site_fract_y
 _atom_site_fract_z
 _atom_site_occupancy
  Er  Er0  1  0.50000000  0.93768800  0.22010200  1
  Er  Er1  1  0.00000000  0.78113400  0.24246700  1
  Er  Er2  1  0.00000000  0.60244700  0.19656500  1
  Er  Er3  1  0.50000000  0.88400200  0.29920000  1
  Er  Er4  1  0.00000000  0.50018800  0.28260200  1
  Er  Er5  1  0.50000000  0.34363400  0.30496700  1
  Er  Er6  1  0.50000000  0.16494700  0.25906500  1
  Er  Er7  1  0.00000000  0.32150200  0.23670000  1
  Er  Er8  1  0.50000000  0.06268800  0.34510200  1
  Er  Er9  1  0.00000000  0.90613400  0.36746700  1
  Er  Er10  1  1.00000000  0.72744700  0.32156500  1
  Er  Er11  1  0.50000000  0.00900200  0.42420000  1
  Er  Er12  1  0.00000000  0.62518800  0.40760200  1
  Er  Er13  1  0.50000000  0.46863400  0.42996700  1
  Er  Er14  1  0.50000000  0.28994700  0.38406500  1
  Er  Er15  1  0.00000000  0.44650200  0.36170000  1
  Er  Er16  1  0.50000000  0.18768800  0.47010200  1
  Er  Er17  1  0.00000000  0.03113400  0.49246700  1
  Er  Er18  1  0.00000000  0.85244700  0.44656500  1
  Er  Er19  1  0.50000000  0.13400200  0.54920000  1
  Er  Er20  1  0.00000000  0.75018800  0.53260200  1
  Er  Er21  1  0.50000000  0.59363400  0.55496700  1
  Er  Er22  1  0.50000000  0.41494700  0.50906500  1
  Er  Er23  1  0.00000000  0.57150200  0.48670000  1
  Er  Er24  1  0.50000000  0.31268800  0.59510200  1
  Er  Er25  1  0.00000000  0.15613400  0.61746700  1
  Er  Er26  1  0.00000000  0.97744700  0.57156500  1
  Er  Er27  1  0.50000000  0.25900200  0.67420000  1
  Er  Er28  1  0.00000000  0.87518800  0.65760200  1
  Er  Er29  1  0.50000000  0.71863400  0.67996700  1
  Er  Er30  1  0.50000000  0.53994700  0.63406500  1
  Er  Er31  1  0.00000000  0.69650200  0.61170000  1
  Er  Er32  1  0.50000000  0.43768800  0.72010200  1
  Er  Er33  1  0.00000000  0.28113400  0.74246700  1
  Er  Er34  1  1.00000000  0.10244700  0.69656500  1
  Er  Er35  1  0.00000000  0.00018800  0.78260200  1
  Er  Er36  1  0.50000000  0.66494700  0.75906500  1
  Er  Er37  1  0.00000000  0.82150200  0.73670000  1
  Mg  Mg38  1  0.50000000  0.63990000  0.26264300  1
  Mg  Mg39  1  0.00000000  0.02523500  0.27902400  1
  Mg  Mg40  1  0.00000000  0.07740000  0.20014300  1
  Mg  Mg41  1  0.50000000  0.46273500  0.21652400  1
  Mg  Mg42  1  0.50000000  0.76490000  0.38764300  1
  Mg  Mg43  1  1.00000000  0.15023500  0.40402400  1
  Mg  Mg44  1  0.00000000  0.20240000  0.32514300  1
  Mg  Mg45  1  0.50000000  0.58773500  0.34152400  1
  Mg  Mg46  1  0.50000000  0.88990000  0.51264300  1
  Mg  Mg47  1  0.00000000  0.27523500  0.52902400  1
  Mg  Mg48  1  0.00000000  0.32740000  0.45014300  1
  Mg  Mg49  1  0.50000000  0.71273500  0.46652400  1
  Mg  Mg50  1  0.50000000  0.01490000  0.63764300  1
  Mg  Mg51  1  0.00000000  0.40023500  0.65402400  1
  Mg  Mg52  1  0.00000000  0.45240000  0.57514300  1
  Mg  Mg53  1  0.50000000  0.83773500  0.59152400  1
  Mg  Mg54  1  0.50000000  0.13990000  0.76264300  1
  Mg  Mg55  1  0.00000000  0.52523500  0.77902400  1
  Mg  Mg56  1  0.00000000  0.57740000  0.70014300  1
  Mg  Mg57  1  0.50000000  0.96273500  0.71652400  1
