# generated using pymatgen
data_Mg18Au55
_symmetry_space_group_name_H-M   'P 1'
_cell_length_a   9.58286600
_cell_length_b   10.43041211
_cell_length_c   46.00314700
_cell_angle_alpha   94.13499482
_cell_angle_beta   90.00000000
_cell_angle_gamma   90.00000000
_symmetry_Int_Tables_number   1
_chemical_formula_structural   Mg18Au55
_chemical_formula_sum   'Mg36 Au110'
_cell_volume   4586.19431584
_cell_formula_units_Z   2
loop_
 _symmetry_equiv_pos_site_id
 _symmetry_equiv_pos_as_xyz
  1  'x, y, z'
loop_
 _atom_site_type_symbol
 _atom_site_label
 _atom_site_symmetry_multiplicity
 _atom_site_fract_x
 _atom_site_fract_y
 _atom_site_fract_z
 _atom_site_occupancy
  Mg  Mg0  1  0.49920200  0.13729100  0.73813900  1
  Mg  Mg1  1  0.50079800  0.67280100  0.70717300  1
  Mg  Mg2  1  0.99920200  0.67280100  0.70717300  1
  Mg  Mg3  1  0.00079800  0.13729100  0.73813900  1
  Mg  Mg4  1  0.49920200  0.26229100  0.61313900  1
  Mg  Mg5  1  0.50079800  0.79780100  0.58217300  1
  Mg  Mg6  1  0.99920200  0.79780100  0.58217300  1
  Mg  Mg7  1  0.00079800  0.26229100  0.61313900  1
  Mg  Mg8  1  0.25000000  0.89768300  0.65549900  1
  Mg  Mg9  1  0.75000000  0.03740900  0.66481400  1
  Mg  Mg10  1  0.25000000  0.36174800  0.68643600  1
  Mg  Mg11  1  0.75000000  0.57334400  0.63387600  1
  Mg  Mg12  1  0.49920200  0.38729100  0.48813900  1
  Mg  Mg13  1  0.50079800  0.92280100  0.45717300  1
  Mg  Mg14  1  0.99920200  0.92280100  0.45717300  1
  Mg  Mg15  1  0.00079800  0.38729100  0.48813900  1
  Mg  Mg16  1  0.25000000  0.02268300  0.53049900  1
  Mg  Mg17  1  0.75000000  0.16240900  0.53981400  1
  Mg  Mg18  1  0.25000000  0.48674800  0.56143600  1
  Mg  Mg19  1  0.75000000  0.69834400  0.50887600  1
  Mg  Mg20  1  0.49920200  0.51229100  0.36313900  1
  Mg  Mg21  1  0.50079800  0.04780100  0.33217300  1
  Mg  Mg22  1  0.99920200  0.04780100  0.33217300  1
  Mg  Mg23  1  0.00079800  0.51229100  0.36313900  1
  Mg  Mg24  1  0.25000000  0.14768300  0.40549900  1
  Mg  Mg25  1  0.75000000  0.28740900  0.41481400  1
  Mg  Mg26  1  0.25000000  0.61174800  0.43643600  1
  Mg  Mg27  1  0.75000000  0.82334400  0.38387600  1
  Mg  Mg28  1  0.49920200  0.63729100  0.23813900  1
  Mg  Mg29  1  0.50079800  0.17280100  0.20717300  1
  Mg  Mg30  1  0.99920200  0.17280100  0.20717300  1
  Mg  Mg31  1  0.00079800  0.63729100  0.23813900  1
  Mg  Mg32  1  0.25000000  0.27268300  0.28049900  1
  Mg  Mg33  1  0.75000000  0.41240900  0.28981400  1
  Mg  Mg34  1  0.25000000  0.73674800  0.31143600  1
  Mg  Mg35  1  0.75000000  0.94834400  0.25887600  1
  Au  Au36  1  0.00000000  0.87365600  0.75404600  1
  Au  Au37  1  0.50000000  0.93643600  0.69126600  1
  Au  Au38  1  0.00000000  0.93643600  0.69126600  1
  Au  Au39  1  0.50000000  0.87365600  0.75404600  1
  Au  Au40  1  0.25000000  0.56794400  0.73324400  1
  Au  Au41  1  0.75000000  0.24214800  0.71206900  1
  Au  Au42  1  0.75000000  0.71060000  0.74308600  1
  Au  Au43  1  0.25000000  0.09949200  0.70222600  1
  Au  Au44  1  0.50000000  0.40504600  0.72265600  1
  Au  Au45  1  0.00000000  0.40504600  0.72265600  1
  Au  Au46  1  0.25000000  0.30212600  0.74912800  1
  Au  Au47  1  0.75000000  0.50796600  0.69618400  1
  Au  Au48  1  0.25000000  0.82895000  0.71758300  1
  Au  Au49  1  0.75000000  0.98114200  0.72772900  1
  Au  Au50  1  0.00000000  0.99865600  0.62904600  1
  Au  Au51  1  0.50000000  0.06143600  0.56626600  1
  Au  Au52  1  0.00000000  0.06143600  0.56626600  1
  Au  Au53  1  0.50000000  0.99865600  0.62904600  1
  Au  Au54  1  0.00054900  0.73122500  0.64440100  1
  Au  Au55  1  0.99945100  0.20386700  0.67591100  1
  Au  Au56  1  0.50054900  0.20386700  0.67591100  1
  Au  Au57  1  0.49945100  0.73122500  0.64440100  1
  Au  Au58  1  0.75000000  0.30515900  0.64905800  1
  Au  Au59  1  0.25000000  0.69294400  0.60824400  1
  Au  Au60  1  0.25000000  0.62993400  0.67125400  1
  Au  Au61  1  0.75000000  0.36714800  0.58706900  1
  Au  Au62  1  0.75000000  0.83560000  0.61808600  1
  Au  Au63  1  0.25000000  0.16188000  0.63983800  1
  Au  Au64  1  0.25000000  0.22449200  0.57722600  1
  Au  Au65  1  0.75000000  0.77321200  0.68047400  1
  Au  Au66  1  0.50000000  0.53004600  0.59765600  1
  Au  Au67  1  0.50000000  0.46754600  0.66015600  1
  Au  Au68  1  0.00000000  0.53004600  0.59765600  1
  Au  Au69  1  0.00000000  0.46754600  0.66015600  1
  Au  Au70  1  0.25000000  0.42712600  0.62412800  1
  Au  Au71  1  0.75000000  0.63296600  0.57118400  1
  Au  Au72  1  0.25000000  0.95395000  0.59258300  1
  Au  Au73  1  0.75000000  0.10614200  0.60272900  1
  Au  Au74  1  0.00000000  0.12365600  0.50404600  1
  Au  Au75  1  0.50000000  0.18643600  0.44126600  1
  Au  Au76  1  0.00000000  0.18643600  0.44126600  1
  Au  Au77  1  0.50000000  0.12365600  0.50404600  1
  Au  Au78  1  0.00054900  0.85622500  0.51940100  1
  Au  Au79  1  0.99945100  0.32886700  0.55091100  1
  Au  Au80  1  0.50054900  0.32886700  0.55091100  1
  Au  Au81  1  0.49945100  0.85622500  0.51940100  1
  Au  Au82  1  0.75000000  0.43015900  0.52405800  1
  Au  Au83  1  0.25000000  0.81794400  0.48324400  1
  Au  Au84  1  0.25000000  0.75493400  0.54625400  1
  Au  Au85  1  0.75000000  0.49214800  0.46206900  1
  Au  Au86  1  0.75000000  0.96060000  0.49308600  1
  Au  Au87  1  0.25000000  0.28688000  0.51483800  1
  Au  Au88  1  0.25000000  0.34949200  0.45222600  1
  Au  Au89  1  0.75000000  0.89821200  0.55547400  1
  Au  Au90  1  0.50000000  0.65504600  0.47265600  1
  Au  Au91  1  0.50000000  0.59254600  0.53515600  1
  Au  Au92  1  0.00000000  0.65504600  0.47265600  1
  Au  Au93  1  0.00000000  0.59254600  0.53515600  1
  Au  Au94  1  0.25000000  0.55212600  0.49912800  1
  Au  Au95  1  0.75000000  0.75796600  0.44618400  1
  Au  Au96  1  0.25000000  0.07895000  0.46758300  1
  Au  Au97  1  0.75000000  0.23114200  0.47772900  1
  Au  Au98  1  0.00000000  0.24865600  0.37904600  1
  Au  Au99  1  0.50000000  0.31143600  0.31626600  1
  Au  Au100  1  0.00000000  0.31143600  0.31626600  1
  Au  Au101  1  0.50000000  0.24865600  0.37904600  1
  Au  Au102  1  0.00054900  0.98122500  0.39440100  1
  Au  Au103  1  0.99945100  0.45386700  0.42591100  1
  Au  Au104  1  0.50054900  0.45386700  0.42591100  1
  Au  Au105  1  0.49945100  0.98122500  0.39440100  1
  Au  Au106  1  0.75000000  0.55515900  0.39905800  1
  Au  Au107  1  0.25000000  0.94294400  0.35824400  1
  Au  Au108  1  0.25000000  0.87993400  0.42125400  1
  Au  Au109  1  0.75000000  0.61714800  0.33706900  1
  Au  Au110  1  0.75000000  0.08560000  0.36808600  1
  Au  Au111  1  0.25000000  0.41188000  0.38983800  1
  Au  Au112  1  0.25000000  0.47449200  0.32722600  1
  Au  Au113  1  0.75000000  0.02321200  0.43047400  1
  Au  Au114  1  0.50000000  0.78004600  0.34765600  1
  Au  Au115  1  0.50000000  0.71754600  0.41015600  1
  Au  Au116  1  0.00000000  0.78004600  0.34765600  1
  Au  Au117  1  0.00000000  0.71754600  0.41015600  1
  Au  Au118  1  0.25000000  0.67712600  0.37412800  1
  Au  Au119  1  0.75000000  0.88296600  0.32118400  1
  Au  Au120  1  0.25000000  0.20395000  0.34258300  1
  Au  Au121  1  0.75000000  0.35614200  0.35272900  1
  Au  Au122  1  0.00000000  0.37365600  0.25404600  1
  Au  Au123  1  0.50000000  0.43643600  0.19126600  1
  Au  Au124  1  0.00000000  0.43643600  0.19126600  1
  Au  Au125  1  0.50000000  0.37365600  0.25404600  1
  Au  Au126  1  0.00054900  0.10622500  0.26940100  1
  Au  Au127  1  0.99945100  0.57886700  0.30091100  1
  Au  Au128  1  0.50054900  0.57886700  0.30091100  1
  Au  Au129  1  0.49945100  0.10622500  0.26940100  1
  Au  Au130  1  0.75000000  0.68015900  0.27405800  1
  Au  Au131  1  0.25000000  0.06794400  0.23324400  1
  Au  Au132  1  0.25000000  0.00493400  0.29625400  1
  Au  Au133  1  0.75000000  0.74214800  0.21206900  1
  Au  Au134  1  0.75000000  0.21060000  0.24308600  1
  Au  Au135  1  0.25000000  0.53688000  0.26483800  1
  Au  Au136  1  0.25000000  0.59949200  0.20222600  1
  Au  Au137  1  0.75000000  0.14821200  0.30547400  1
  Au  Au138  1  0.50000000  0.90504600  0.22265600  1
  Au  Au139  1  0.50000000  0.84254600  0.28515600  1
  Au  Au140  1  0.00000000  0.90504600  0.22265600  1
  Au  Au141  1  0.00000000  0.84254600  0.28515600  1
  Au  Au142  1  0.25000000  0.80212600  0.24912800  1
  Au  Au143  1  0.75000000  0.00796600  0.19618400  1
  Au  Au144  1  0.25000000  0.32895000  0.21758300  1
  Au  Au145  1  0.75000000  0.48114200  0.22772900  1
