# generated using pymatgen
data_Nd2Mg
_symmetry_space_group_name_H-M   'P 1'
_cell_length_a   5.67409700
_cell_length_b   17.44750600
_cell_length_c   42.29166600
_cell_angle_alpha   90.00000000
_cell_angle_beta   90.00000000
_cell_angle_gamma   90.00000000
_symmetry_Int_Tables_number   1
_chemical_formula_structural   Nd2Mg
_chemical_formula_sum   'Nd56 Mg28'
_cell_volume   4186.82593708
_cell_formula_units_Z   28
loop_
 _symmetry_equiv_pos_site_id
 _symmetry_equiv_pos_as_xyz
  1  'x, y, z'
loop_
 _atom_site_type_symbol
 _atom_site_label
 _atom_site_symmetry_multiplicity
 _atom_site_fract_x
 _atom_site_fract_y
 _atom_site_fract_z
 _atom_site_occupancy
  Nd  Nd0  1  0.25000000  0.91294400  0.25000000  1
  Nd  Nd1  1  0.25000000  0.73150900  0.20454500  1
  Nd  Nd2  1  0.75000000  0.58705600  0.20454500  1
  Nd  Nd3  1  0.75000000  0.76849100  0.25000000  1
  Nd  Nd4  1  0.25000000  0.41294400  0.20454500  1
  Nd  Nd5  1  0.25000000  0.23150900  0.25000000  1
  Nd  Nd6  1  0.75000000  0.08705600  0.25000000  1
  Nd  Nd7  1  0.75000000  0.26849100  0.20454500  1
  Nd  Nd8  1  0.25000000  0.91294400  0.34090900  1
  Nd  Nd9  1  0.25000000  0.73150900  0.29545500  1
  Nd  Nd10  1  0.75000000  0.58705600  0.29545500  1
  Nd  Nd11  1  0.75000000  0.76849100  0.34090900  1
  Nd  Nd12  1  0.25000000  0.41294400  0.29545500  1
  Nd  Nd13  1  0.25000000  0.23150900  0.34090900  1
  Nd  Nd14  1  0.75000000  0.08705600  0.34090900  1
  Nd  Nd15  1  0.75000000  0.26849100  0.29545500  1
  Nd  Nd16  1  0.25000000  0.91294400  0.43181800  1
  Nd  Nd17  1  0.25000000  0.73150900  0.38636400  1
  Nd  Nd18  1  0.75000000  0.58705600  0.38636400  1
  Nd  Nd19  1  0.75000000  0.76849100  0.43181800  1
  Nd  Nd20  1  0.25000000  0.41294400  0.38636400  1
  Nd  Nd21  1  0.25000000  0.23150900  0.43181800  1
  Nd  Nd22  1  0.75000000  0.08705600  0.43181800  1
  Nd  Nd23  1  0.75000000  0.26849100  0.38636400  1
  Nd  Nd24  1  0.25000000  0.91294400  0.52272700  1
  Nd  Nd25  1  0.25000000  0.73150900  0.47727300  1
  Nd  Nd26  1  0.75000000  0.58705600  0.47727300  1
  Nd  Nd27  1  0.75000000  0.76849100  0.52272700  1
  Nd  Nd28  1  0.25000000  0.41294400  0.47727300  1
  Nd  Nd29  1  0.25000000  0.23150900  0.52272700  1
  Nd  Nd30  1  0.75000000  0.08705600  0.52272700  1
  Nd  Nd31  1  0.75000000  0.26849100  0.47727300  1
  Nd  Nd32  1  0.25000000  0.91294400  0.61363600  1
  Nd  Nd33  1  0.25000000  0.73150900  0.56818200  1
  Nd  Nd34  1  0.75000000  0.58705600  0.56818200  1
  Nd  Nd35  1  0.75000000  0.76849100  0.61363600  1
  Nd  Nd36  1  0.25000000  0.41294400  0.56818200  1
  Nd  Nd37  1  0.25000000  0.23150900  0.61363600  1
  Nd  Nd38  1  0.75000000  0.08705600  0.61363600  1
  Nd  Nd39  1  0.75000000  0.26849100  0.56818200  1
  Nd  Nd40  1  0.25000000  0.91294400  0.70454500  1
  Nd  Nd41  1  0.25000000  0.73150900  0.65909100  1
  Nd  Nd42  1  0.75000000  0.58705600  0.65909100  1
  Nd  Nd43  1  0.75000000  0.76849100  0.70454500  1
  Nd  Nd44  1  0.25000000  0.41294400  0.65909100  1
  Nd  Nd45  1  0.25000000  0.23150900  0.70454500  1
  Nd  Nd46  1  0.75000000  0.08705600  0.70454500  1
  Nd  Nd47  1  0.75000000  0.26849100  0.65909100  1
  Nd  Nd48  1  0.25000000  0.91294400  0.79545500  1
  Nd  Nd49  1  0.25000000  0.73150900  0.75000000  1
  Nd  Nd50  1  0.75000000  0.58705600  0.75000000  1
  Nd  Nd51  1  0.75000000  0.76849100  0.79545500  1
  Nd  Nd52  1  0.25000000  0.41294400  0.75000000  1
  Nd  Nd53  1  0.25000000  0.23150900  0.79545500  1
  Nd  Nd54  1  0.75000000  0.08705600  0.79545500  1
  Nd  Nd55  1  0.75000000  0.26849100  0.75000000  1
  Mg  Mg56  1  0.25000000  0.57042800  0.25000000  1
  Mg  Mg57  1  0.75000000  0.92957200  0.20454500  1
  Mg  Mg58  1  0.25000000  0.07042800  0.20454500  1
  Mg  Mg59  1  0.75000000  0.42957200  0.25000000  1
  Mg  Mg60  1  0.25000000  0.57042800  0.34090900  1
  Mg  Mg61  1  0.75000000  0.92957200  0.29545500  1
  Mg  Mg62  1  0.25000000  0.07042800  0.29545500  1
  Mg  Mg63  1  0.75000000  0.42957200  0.34090900  1
  Mg  Mg64  1  0.25000000  0.57042800  0.43181800  1
  Mg  Mg65  1  0.75000000  0.92957200  0.38636400  1
  Mg  Mg66  1  0.25000000  0.07042800  0.38636400  1
  Mg  Mg67  1  0.75000000  0.42957200  0.43181800  1
  Mg  Mg68  1  0.25000000  0.57042800  0.52272700  1
  Mg  Mg69  1  0.75000000  0.92957200  0.47727300  1
  Mg  Mg70  1  0.25000000  0.07042800  0.47727300  1
  Mg  Mg71  1  0.75000000  0.42957200  0.52272700  1
  Mg  Mg72  1  0.25000000  0.57042800  0.61363600  1
  Mg  Mg73  1  0.75000000  0.92957200  0.56818200  1
  Mg  Mg74  1  0.25000000  0.07042800  0.56818200  1
  Mg  Mg75  1  0.75000000  0.42957200  0.61363600  1
  Mg  Mg76  1  0.25000000  0.57042800  0.70454500  1
  Mg  Mg77  1  0.75000000  0.92957200  0.65909100  1
  Mg  Mg78  1  0.25000000  0.07042800  0.65909100  1
  Mg  Mg79  1  0.75000000  0.42957200  0.70454500  1
  Mg  Mg80  1  0.25000000  0.57042800  0.79545500  1
  Mg  Mg81  1  0.75000000  0.92957200  0.75000000  1
  Mg  Mg82  1  0.25000000  0.07042800  0.75000000  1
  Mg  Mg83  1  0.75000000  0.42957200  0.79545500  1
