# generated using pymatgen
data_Tm2Mg
_symmetry_space_group_name_H-M   'P 1'
_cell_length_a   3.55930500
_cell_length_b   8.80029096
_cell_length_c   43.37555700
_cell_angle_alpha   90.00000000
_cell_angle_beta   90.00000000
_cell_angle_gamma   101.66719536
_symmetry_Int_Tables_number   1
_chemical_formula_structural   Tm2Mg
_chemical_formula_sum   'Tm20 Mg10'
_cell_volume   1330.57770474
_cell_formula_units_Z   10
loop_
 _symmetry_equiv_pos_site_id
 _symmetry_equiv_pos_as_xyz
  1  'x, y, z'
loop_
 _atom_site_type_symbol
 _atom_site_label
 _atom_site_symmetry_multiplicity
 _atom_site_fract_x
 _atom_site_fract_y
 _atom_site_fract_z
 _atom_site_occupancy
  Tm  Tm0  1  0.90090700  0.80181500  0.21875000  1
  Tm  Tm1  1  0.22492700  0.44985300  0.21875000  1
  Tm  Tm2  1  0.09909300  0.19818500  0.28125000  1
  Tm  Tm3  1  0.77507300  0.55014700  0.28125000  1
  Tm  Tm4  1  0.90090700  0.80181500  0.34375000  1
  Tm  Tm5  1  0.22492700  0.44985300  0.34375000  1
  Tm  Tm6  1  0.09909300  0.19818500  0.40625000  1
  Tm  Tm7  1  0.77507300  0.55014700  0.40625000  1
  Tm  Tm8  1  0.90090700  0.80181500  0.46875000  1
  Tm  Tm9  1  0.22492700  0.44985300  0.46875000  1
  Tm  Tm10  1  0.09909300  0.19818500  0.53125000  1
  Tm  Tm11  1  0.77507300  0.55014700  0.53125000  1
  Tm  Tm12  1  0.90090700  0.80181500  0.59375000  1
  Tm  Tm13  1  0.22492700  0.44985300  0.59375000  1
  Tm  Tm14  1  0.09909300  0.19818500  0.65625000  1
  Tm  Tm15  1  0.77507300  0.55014700  0.65625000  1
  Tm  Tm16  1  0.90090700  0.80181500  0.71875000  1
  Tm  Tm17  1  0.22492700  0.44985300  0.71875000  1
  Tm  Tm18  1  0.09909300  0.19818500  0.78125000  1
  Tm  Tm19  1  0.77507300  0.55014700  0.78125000  1
  Mg  Mg20  1  0.56230100  0.12460100  0.21875000  1
  Mg  Mg21  1  0.43769900  0.87539900  0.28125000  1
  Mg  Mg22  1  0.56230100  0.12460100  0.34375000  1
  Mg  Mg23  1  0.43769900  0.87539900  0.40625000  1
  Mg  Mg24  1  0.56230100  0.12460100  0.46875000  1
  Mg  Mg25  1  0.43769900  0.87539900  0.53125000  1
  Mg  Mg26  1  0.56230100  0.12460100  0.59375000  1
  Mg  Mg27  1  0.43769900  0.87539900  0.65625000  1
  Mg  Mg28  1  0.56230100  0.12460100  0.71875000  1
  Mg  Mg29  1  0.43769900  0.87539900  0.78125000  1
