# generated using pymatgen
data_MgPb
_symmetry_space_group_name_H-M   'P 1'
_cell_length_a   5.22762700
_cell_length_b   6.83301744
_cell_length_c   44.89333700
_cell_angle_alpha   88.96054670
_cell_angle_beta   90.00000000
_cell_angle_gamma   90.00000000
_symmetry_Int_Tables_number   1
_chemical_formula_structural   MgPb
_chemical_formula_sum   'Mg18 Pb18'
_cell_volume   1603.34704872
_cell_formula_units_Z   18
loop_
 _symmetry_equiv_pos_site_id
 _symmetry_equiv_pos_as_xyz
  1  'x, y, z'
loop_
 _atom_site_type_symbol
 _atom_site_label
 _atom_site_symmetry_multiplicity
 _atom_site_fract_x
 _atom_site_fract_y
 _atom_site_fract_z
 _atom_site_occupancy
  Mg  Mg0  1  0.75000000  0.00126800  0.24557000  1
  Mg  Mg1  1  0.25000000  0.73206600  0.22109700  1
  Mg  Mg2  1  0.75000000  0.73460100  0.31223600  1
  Mg  Mg3  1  0.25000000  0.46539900  0.28776400  1
  Mg  Mg4  1  0.75000000  0.46793400  0.37890300  1
  Mg  Mg5  1  0.25000000  0.19873200  0.35443000  1
  Mg  Mg6  1  0.75000000  0.20126800  0.44557000  1
  Mg  Mg7  1  0.25000000  0.93206600  0.42109700  1
  Mg  Mg8  1  0.75000000  0.93460100  0.51223600  1
  Mg  Mg9  1  0.25000000  0.66539900  0.48776400  1
  Mg  Mg10  1  0.75000000  0.66793400  0.57890300  1
  Mg  Mg11  1  0.25000000  0.39873200  0.55443000  1
  Mg  Mg12  1  0.75000000  0.40126800  0.64557000  1
  Mg  Mg13  1  0.25000000  0.13206600  0.62109700  1
  Mg  Mg14  1  0.75000000  0.13460100  0.71223600  1
  Mg  Mg15  1  0.25000000  0.86539900  0.68776400  1
  Mg  Mg16  1  0.75000000  0.86793400  0.77890300  1
  Mg  Mg17  1  0.25000000  0.59873200  0.75443000  1
  Pb  Pb18  1  0.75000000  0.51774500  0.24706800  1
  Pb  Pb19  1  0.25000000  0.21558800  0.21959900  1
  Pb  Pb20  1  0.75000000  0.25107900  0.31373400  1
  Pb  Pb21  1  0.25000000  0.94892100  0.28626600  1
  Pb  Pb22  1  0.75000000  0.98441200  0.38040100  1
  Pb  Pb23  1  0.25000000  0.68225500  0.35293200  1
  Pb  Pb24  1  0.75000000  0.71774500  0.44706800  1
  Pb  Pb25  1  0.25000000  0.41558800  0.41959900  1
  Pb  Pb26  1  0.75000000  0.45107900  0.51373400  1
  Pb  Pb27  1  0.25000000  0.14892100  0.48626600  1
  Pb  Pb28  1  0.75000000  0.18441200  0.58040100  1
  Pb  Pb29  1  0.25000000  0.88225500  0.55293200  1
  Pb  Pb30  1  0.75000000  0.91774500  0.64706800  1
  Pb  Pb31  1  0.25000000  0.61558800  0.61959900  1
  Pb  Pb32  1  0.75000000  0.65107900  0.71373400  1
  Pb  Pb33  1  0.25000000  0.34892100  0.68626600  1
  Pb  Pb34  1  0.75000000  0.38441200  0.78040100  1
  Pb  Pb35  1  0.25000000  0.08225500  0.75293200  1
