# generated using pymatgen
data_CeMg
_symmetry_space_group_name_H-M   'P 1'
_cell_length_a   5.83029900
_cell_length_b   10.46698322
_cell_length_c   45.24416000
_cell_angle_alpha   90.00000000
_cell_angle_beta   90.00000000
_cell_angle_gamma   79.87617168
_symmetry_Int_Tables_number   1
_chemical_formula_structural   CeMg
_chemical_formula_sum   'Ce32 Mg32'
_cell_volume   2718.06474322
_cell_formula_units_Z   32
loop_
 _symmetry_equiv_pos_site_id
 _symmetry_equiv_pos_as_xyz
  1  'x, y, z'
loop_
 _atom_site_type_symbol
 _atom_site_label
 _atom_site_symmetry_multiplicity
 _atom_site_fract_x
 _atom_site_fract_y
 _atom_site_fract_z
 _atom_site_occupancy
  Ce  Ce0  1  0.20657200  0.35494500  0.21153800  1
  Ce  Ce1  1  0.29342800  0.14505500  0.25000000  1
  Ce  Ce2  1  0.70657200  0.85494500  0.25000000  1
  Ce  Ce3  1  0.79342800  0.64505500  0.21153800  1
  Ce  Ce4  1  0.20657200  0.35494500  0.28846200  1
  Ce  Ce5  1  0.29342800  0.14505500  0.32692300  1
  Ce  Ce6  1  0.70657200  0.85494500  0.32692300  1
  Ce  Ce7  1  0.79342800  0.64505500  0.28846200  1
  Ce  Ce8  1  0.20657200  0.35494500  0.36538500  1
  Ce  Ce9  1  0.29342800  0.14505500  0.40384600  1
  Ce  Ce10  1  0.70657200  0.85494500  0.40384600  1
  Ce  Ce11  1  0.79342800  0.64505500  0.36538500  1
  Ce  Ce12  1  0.20657200  0.35494500  0.44230800  1
  Ce  Ce13  1  0.29342800  0.14505500  0.48076900  1
  Ce  Ce14  1  0.70657200  0.85494500  0.48076900  1
  Ce  Ce15  1  0.79342800  0.64505500  0.44230800  1
  Ce  Ce16  1  0.20657200  0.35494500  0.51923100  1
  Ce  Ce17  1  0.29342800  0.14505500  0.55769200  1
  Ce  Ce18  1  0.70657200  0.85494500  0.55769200  1
  Ce  Ce19  1  0.79342800  0.64505500  0.51923100  1
  Ce  Ce20  1  0.20657200  0.35494500  0.59615400  1
  Ce  Ce21  1  0.29342800  0.14505500  0.63461500  1
  Ce  Ce22  1  0.70657200  0.85494500  0.63461500  1
  Ce  Ce23  1  0.79342800  0.64505500  0.59615400  1
  Ce  Ce24  1  0.20657200  0.35494500  0.67307700  1
  Ce  Ce25  1  0.29342800  0.14505500  0.71153800  1
  Ce  Ce26  1  0.70657200  0.85494500  0.71153800  1
  Ce  Ce27  1  0.79342800  0.64505500  0.67307700  1
  Ce  Ce28  1  0.20657200  0.35494500  0.75000000  1
  Ce  Ce29  1  0.29342800  0.14505500  0.78846200  1
  Ce  Ce30  1  0.70657200  0.85494500  0.78846200  1
  Ce  Ce31  1  0.79342800  0.64505500  0.75000000  1
  Mg  Mg32  1  0.79803000  0.12844000  0.21153800  1
  Mg  Mg33  1  0.70197000  0.37156000  0.25000000  1
  Mg  Mg34  1  0.29803000  0.62844000  0.25000000  1
  Mg  Mg35  1  0.20197000  0.87156000  0.21153800  1
  Mg  Mg36  1  0.79803000  0.12844000  0.28846200  1
  Mg  Mg37  1  0.70197000  0.37156000  0.32692300  1
  Mg  Mg38  1  0.29803000  0.62844000  0.32692300  1
  Mg  Mg39  1  0.20197000  0.87156000  0.28846200  1
  Mg  Mg40  1  0.79803000  0.12844000  0.36538500  1
  Mg  Mg41  1  0.70197000  0.37156000  0.40384600  1
  Mg  Mg42  1  0.29803000  0.62844000  0.40384600  1
  Mg  Mg43  1  0.20197000  0.87156000  0.36538500  1
  Mg  Mg44  1  0.79803000  0.12844000  0.44230800  1
  Mg  Mg45  1  0.70197000  0.37156000  0.48076900  1
  Mg  Mg46  1  0.29803000  0.62844000  0.48076900  1
  Mg  Mg47  1  0.20197000  0.87156000  0.44230800  1
  Mg  Mg48  1  0.79803000  0.12844000  0.51923100  1
  Mg  Mg49  1  0.70197000  0.37156000  0.55769200  1
  Mg  Mg50  1  0.29803000  0.62844000  0.55769200  1
  Mg  Mg51  1  0.20197000  0.87156000  0.51923100  1
  Mg  Mg52  1  0.79803000  0.12844000  0.59615400  1
  Mg  Mg53  1  0.70197000  0.37156000  0.63461500  1
  Mg  Mg54  1  0.29803000  0.62844000  0.63461500  1
  Mg  Mg55  1  0.20197000  0.87156000  0.59615400  1
  Mg  Mg56  1  0.79803000  0.12844000  0.67307700  1
  Mg  Mg57  1  0.70197000  0.37156000  0.71153800  1
  Mg  Mg58  1  0.29803000  0.62844000  0.71153800  1
  Mg  Mg59  1  0.20197000  0.87156000  0.67307700  1
  Mg  Mg60  1  0.79803000  0.12844000  0.75000000  1
  Mg  Mg61  1  0.70197000  0.37156000  0.78846200  1
  Mg  Mg62  1  0.29803000  0.62844000  0.78846200  1
  Mg  Mg63  1  0.20197000  0.87156000  0.75000000  1
