# generated using pymatgen
data_Mg3Hg
_symmetry_space_group_name_H-M   'P 1'
_cell_length_a   5.00141800
_cell_length_b   6.29546100
_cell_length_c   43.61623200
_cell_angle_alpha   90.00000000
_cell_angle_beta   90.00000000
_cell_angle_gamma   90.00000000
_symmetry_Int_Tables_number   1
_chemical_formula_structural   Mg3Hg
_chemical_formula_sum   'Mg30 Hg10'
_cell_volume   1373.31079813
_cell_formula_units_Z   10
loop_
 _symmetry_equiv_pos_site_id
 _symmetry_equiv_pos_as_xyz
  1  'x, y, z'
loop_
 _atom_site_type_symbol
 _atom_site_label
 _atom_site_symmetry_multiplicity
 _atom_site_fract_x
 _atom_site_fract_y
 _atom_site_fract_z
 _atom_site_occupancy
  Mg  Mg0  1  0.75000000  0.75000000  0.29215200  1
  Mg  Mg1  1  0.75000000  0.49708600  0.22892400  1
  Mg  Mg2  1  0.75000000  0.00291400  0.22892400  1
  Mg  Mg3  1  0.25000000  0.49708600  0.27107600  1
  Mg  Mg4  1  0.25000000  0.00291400  0.27107600  1
  Mg  Mg5  1  0.25000000  0.75000000  0.20784800  1
  Mg  Mg6  1  0.75000000  0.25000000  0.41715200  1
  Mg  Mg7  1  0.75000000  0.99708600  0.35392400  1
  Mg  Mg8  1  0.75000000  0.50291400  0.35392400  1
  Mg  Mg9  1  0.25000000  0.99708600  0.39607600  1
  Mg  Mg10  1  0.25000000  0.50291400  0.39607600  1
  Mg  Mg11  1  0.25000000  0.25000000  0.33284800  1
  Mg  Mg12  1  0.75000000  0.75000000  0.54215200  1
  Mg  Mg13  1  0.75000000  0.49708600  0.47892400  1
  Mg  Mg14  1  0.75000000  0.00291400  0.47892400  1
  Mg  Mg15  1  0.25000000  0.49708600  0.52107600  1
  Mg  Mg16  1  0.25000000  0.00291400  0.52107600  1
  Mg  Mg17  1  0.25000000  0.75000000  0.45784800  1
  Mg  Mg18  1  0.75000000  0.25000000  0.66715200  1
  Mg  Mg19  1  0.75000000  0.99708600  0.60392400  1
  Mg  Mg20  1  0.75000000  0.50291400  0.60392400  1
  Mg  Mg21  1  0.25000000  0.99708600  0.64607600  1
  Mg  Mg22  1  0.25000000  0.50291400  0.64607600  1
  Mg  Mg23  1  0.25000000  0.25000000  0.58284800  1
  Mg  Mg24  1  0.75000000  0.75000000  0.79215200  1
  Mg  Mg25  1  0.75000000  0.49708600  0.72892400  1
  Mg  Mg26  1  0.75000000  0.00291400  0.72892400  1
  Mg  Mg27  1  0.25000000  0.49708600  0.77107600  1
  Mg  Mg28  1  0.25000000  0.00291400  0.77107600  1
  Mg  Mg29  1  0.25000000  0.75000000  0.70784800  1
  Hg  Hg30  1  0.75000000  0.25000000  0.29166700  1
  Hg  Hg31  1  0.25000000  0.25000000  0.20833300  1
  Hg  Hg32  1  0.75000000  0.75000000  0.41666700  1
  Hg  Hg33  1  0.25000000  0.75000000  0.33333300  1
  Hg  Hg34  1  0.75000000  0.25000000  0.54166700  1
  Hg  Hg35  1  0.25000000  0.25000000  0.45833300  1
  Hg  Hg36  1  0.75000000  0.75000000  0.66666700  1
  Hg  Hg37  1  0.25000000  0.75000000  0.58333300  1
  Hg  Hg38  1  0.75000000  0.25000000  0.79166700  1
  Hg  Hg39  1  0.25000000  0.25000000  0.70833300  1
