# generated using pymatgen
data_Mg2Zn
_symmetry_space_group_name_H-M   'P 1'
_cell_length_a   3.10114600
_cell_length_b   7.92196441
_cell_length_c   49.17734100
_cell_angle_alpha   90.00000000
_cell_angle_beta   90.00000000
_cell_angle_gamma   101.28742224
_symmetry_Int_Tables_number   1
_chemical_formula_structural   Mg2Zn
_chemical_formula_sum   'Mg24 Zn12'
_cell_volume   1184.77958813
_cell_formula_units_Z   12
loop_
 _symmetry_equiv_pos_site_id
 _symmetry_equiv_pos_as_xyz
  1  'x, y, z'
loop_
 _atom_site_type_symbol
 _atom_site_label
 _atom_site_symmetry_multiplicity
 _atom_site_fract_x
 _atom_site_fract_y
 _atom_site_fract_z
 _atom_site_occupancy
  Mg  Mg0  1  0.90302700  0.80605500  0.22500000  1
  Mg  Mg1  1  0.21771800  0.43543600  0.22500000  1
  Mg  Mg2  1  0.78228200  0.56456400  0.27500000  1
  Mg  Mg3  1  0.09697300  0.19394500  0.27500000  1
  Mg  Mg4  1  0.90302700  0.80605500  0.32500000  1
  Mg  Mg5  1  0.21771800  0.43543600  0.32500000  1
  Mg  Mg6  1  0.78228200  0.56456400  0.37500000  1
  Mg  Mg7  1  0.09697300  0.19394500  0.37500000  1
  Mg  Mg8  1  0.90302700  0.80605500  0.42500000  1
  Mg  Mg9  1  0.21771800  0.43543600  0.42500000  1
  Mg  Mg10  1  0.78228200  0.56456400  0.47500000  1
  Mg  Mg11  1  0.09697300  0.19394500  0.47500000  1
  Mg  Mg12  1  0.90302700  0.80605500  0.52500000  1
  Mg  Mg13  1  0.21771800  0.43543600  0.52500000  1
  Mg  Mg14  1  0.78228200  0.56456400  0.57500000  1
  Mg  Mg15  1  0.09697300  0.19394500  0.57500000  1
  Mg  Mg16  1  0.90302700  0.80605500  0.62500000  1
  Mg  Mg17  1  0.21771800  0.43543600  0.62500000  1
  Mg  Mg18  1  0.78228200  0.56456400  0.67500000  1
  Mg  Mg19  1  0.09697300  0.19394500  0.67500000  1
  Mg  Mg20  1  0.90302700  0.80605500  0.72500000  1
  Mg  Mg21  1  0.21771800  0.43543600  0.72500000  1
  Mg  Mg22  1  0.78228200  0.56456400  0.77500000  1
  Mg  Mg23  1  0.09697300  0.19394500  0.77500000  1
  Zn  Zn24  1  0.55757800  0.11515500  0.22500000  1
  Zn  Zn25  1  0.44242200  0.88484500  0.27500000  1
  Zn  Zn26  1  0.55757800  0.11515500  0.32500000  1
  Zn  Zn27  1  0.44242200  0.88484500  0.37500000  1
  Zn  Zn28  1  0.55757800  0.11515500  0.42500000  1
  Zn  Zn29  1  0.44242200  0.88484500  0.47500000  1
  Zn  Zn30  1  0.55757800  0.11515500  0.52500000  1
  Zn  Zn31  1  0.44242200  0.88484500  0.57500000  1
  Zn  Zn32  1  0.55757800  0.11515500  0.62500000  1
  Zn  Zn33  1  0.44242200  0.88484500  0.67500000  1
  Zn  Zn34  1  0.55757800  0.11515500  0.72500000  1
  Zn  Zn35  1  0.44242200  0.88484500  0.77500000  1
