# generated using pymatgen
data_Mg34Ir47
_symmetry_space_group_name_H-M   'P 1'
_cell_length_a   5.24707500
_cell_length_b   8.54477426
_cell_length_c   55.75889500
_cell_angle_alpha   88.31672616
_cell_angle_beta   90.00000000
_cell_angle_gamma   90.00000000
_symmetry_Int_Tables_number   1
_chemical_formula_structural   Mg34Ir47
_chemical_formula_sum   'Mg34 Ir47'
_cell_volume   2498.87525280
_cell_formula_units_Z   1
loop_
 _symmetry_equiv_pos_site_id
 _symmetry_equiv_pos_as_xyz
  1  'x, y, z'
loop_
 _atom_site_type_symbol
 _atom_site_label
 _atom_site_symmetry_multiplicity
 _atom_site_fract_x
 _atom_site_fract_y
 _atom_site_fract_z
 _atom_site_occupancy
  Mg  Mg0  1  0.50000000  0.90491400  0.17662100  1
  Mg  Mg1  1  0.00000000  0.05414800  0.19671200  1
  Mg  Mg2  1  1.00000000  0.53108200  0.25181100  1
  Mg  Mg3  1  0.50000000  0.09464600  0.45485600  1
  Mg  Mg4  1  0.50000000  0.54860900  0.17308000  1
  Mg  Mg5  1  0.00000000  0.41045200  0.20025300  1
  Mg  Mg6  1  0.50000000  0.70151800  0.46256700  1
  Mg  Mg7  1  0.00000000  0.92421000  0.24410000  1
  Mg  Mg8  1  0.50000000  0.72176600  0.26298900  1
  Mg  Mg9  1  0.00000000  0.90396200  0.44367700  1
  Mg  Mg10  1  1.00000000  0.73824700  0.34328800  1
  Mg  Mg11  1  0.50000000  0.88748100  0.36337900  1
  Mg  Mg12  1  0.50000000  0.36441600  0.41847800  1
  Mg  Mg13  1  0.00000000  0.26131200  0.28818900  1
  Mg  Mg14  1  0.00000000  0.38194300  0.33974700  1
  Mg  Mg15  1  0.50000000  0.24378500  0.36692000  1
  Mg  Mg16  1  0.00000000  0.86818400  0.29590000  1
  Mg  Mg17  1  0.50000000  0.75754400  0.41076700  1
  Mg  Mg18  1  0.00000000  0.55509900  0.42965600  1
  Mg  Mg19  1  0.50000000  0.07062900  0.27701100  1
  Mg  Mg20  1  0.50000000  0.57158000  0.50995500  1
  Mg  Mg21  1  0.00000000  0.72081400  0.53004500  1
  Mg  Mg22  1  0.00000000  0.19774900  0.58514400  1
  Mg  Mg23  1  0.50000000  0.21527600  0.50641300  1
  Mg  Mg24  1  0.00000000  0.07711900  0.53358700  1
  Mg  Mg25  1  0.00000000  0.59087700  0.57743300  1
  Mg  Mg26  1  0.50000000  0.38843200  0.59632300  1
  Mg  Mg27  1  0.00000000  0.40491400  0.67662100  1
  Mg  Mg28  1  0.50000000  0.55414800  0.69671200  1
  Mg  Mg29  1  0.00000000  0.92797900  0.62152200  1
  Mg  Mg30  1  0.00000000  0.04860900  0.67308000  1
  Mg  Mg31  1  0.50000000  0.91045200  0.70025300  1
  Mg  Mg32  1  1.00000000  0.53485100  0.62923300  1
  Mg  Mg33  1  0.50000000  0.73729600  0.61034400  1
  Ir  Ir34  1  0.00000000  0.65750300  0.48037400  1
  Ir  Ir35  1  0.50000000  0.96822500  0.22629300  1
  Ir  Ir36  1  0.24951300  0.72265100  0.21401900  1
  Ir  Ir37  1  0.25048700  0.90307700  0.49264800  1
  Ir  Ir38  1  0.74951300  0.90307700  0.49264800  1
  Ir  Ir39  1  0.75048700  0.72265100  0.21401900  1
  Ir  Ir40  1  0.00000000  0.22953100  0.43666700  1
  Ir  Ir41  1  0.50000000  0.22516200  0.19801200  1
  Ir  Ir42  1  0.00000000  0.73389900  0.17532100  1
  Ir  Ir43  1  0.50000000  0.47458800  0.22472400  1
  Ir  Ir44  1  0.00000000  0.15113900  0.48194300  1
  Ir  Ir45  1  0.26606200  0.40336800  0.46692300  1
  Ir  Ir46  1  0.23393800  0.22236000  0.23974400  1
  Ir  Ir47  1  0.76606200  0.22236000  0.23974400  1
  Ir  Ir48  1  0.73393800  0.40336800  0.46692300  1
  Ir  Ir49  1  0.50000000  0.82416900  0.31370700  1
  Ir  Ir50  1  0.00000000  0.80155800  0.39295900  1
  Ir  Ir51  1  0.74951300  0.55598400  0.38068500  1
  Ir  Ir52  1  0.75048700  0.06974400  0.32598100  1
  Ir  Ir53  1  0.24951300  0.06974400  0.32598100  1
  Ir  Ir54  1  0.25048700  0.55598400  0.38068500  1
  Ir  Ir55  1  0.50000000  0.39619700  0.27000000  1
  Ir  Ir56  1  1.00000000  0.05849600  0.36467900  1
  Ir  Ir57  1  0.50000000  0.56723200  0.34198800  1
  Ir  Ir58  1  1.00000000  0.30792200  0.39139100  1
  Ir  Ir59  1  0.50000000  0.31780600  0.31527600  1
  Ir  Ir60  1  0.76606200  0.57003400  0.30025600  1
  Ir  Ir61  1  0.73393800  0.05569400  0.40641100  1
  Ir  Ir62  1  0.26606200  0.05569400  0.40641100  1
  Ir  Ir63  1  0.23393800  0.57003400  0.30025600  1
  Ir  Ir64  1  0.50000000  0.63489200  0.55962600  1
  Ir  Ir65  1  0.24951300  0.38931700  0.54735200  1
  Ir  Ir66  1  0.75048700  0.38931700  0.54735200  1
  Ir  Ir67  1  0.50000000  0.89182900  0.53134500  1
  Ir  Ir68  1  0.00000000  0.40056600  0.50865500  1
  Ir  Ir69  1  0.50000000  0.14125500  0.55805700  1
  Ir  Ir70  1  0.23393800  0.88902700  0.57307700  1
  Ir  Ir71  1  0.76606200  0.88902700  0.57307700  1
  Ir  Ir72  1  0.50000000  0.49083600  0.64704100  1
  Ir  Ir73  1  0.75048700  0.73641100  0.65931500  1
  Ir  Ir74  1  0.24951300  0.73641100  0.65931500  1
  Ir  Ir75  1  0.50000000  0.06286400  0.60333300  1
  Ir  Ir76  1  0.00000000  0.72516200  0.69801200  1
  Ir  Ir77  1  0.50000000  0.23389900  0.67532100  1
  Ir  Ir78  1  0.50000000  0.98447300  0.64860900  1
  Ir  Ir79  1  0.76606200  0.23670100  0.63358900  1
  Ir  Ir80  1  0.23393800  0.23670100  0.63358900  1
