# generated using pymatgen
data_Mg19B136
_symmetry_space_group_name_H-M   'P 1'
_cell_length_a   7.26364917
_cell_length_b   7.26364924
_cell_length_c   41.50303500
_cell_angle_alpha   90.48958354
_cell_angle_beta   90.48958355
_cell_angle_gamma   67.87756161
_symmetry_Int_Tables_number   1
_chemical_formula_structural   Mg19B136
_chemical_formula_sum   'Mg19 B136'
_cell_volume   2028.41254556
_cell_formula_units_Z   1
loop_
 _symmetry_equiv_pos_site_id
 _symmetry_equiv_pos_as_xyz
  1  'x, y, z'
loop_
 _atom_site_type_symbol
 _atom_site_label
 _atom_site_symmetry_multiplicity
 _atom_site_fract_x
 _atom_site_fract_y
 _atom_site_fract_z
 _atom_site_occupancy
  Mg  Mg0  1  0.27785000  0.77785000  0.69726600  1
  Mg  Mg1  1  0.40285000  0.90285000  0.75976600  1
  Mg  Mg2  1  0.72569600  0.45500300  0.72851600  1
  Mg  Mg3  1  0.08000300  0.35069600  0.79101600  1
  Mg  Mg4  1  0.02785000  0.52785000  0.57226600  1
  Mg  Mg5  1  0.15285000  0.65285000  0.63476600  1
  Mg  Mg6  1  0.47569600  0.20500300  0.60351600  1
  Mg  Mg7  1  0.83000300  0.10069600  0.66601600  1
  Mg  Mg8  1  0.77785000  0.27785000  0.44726600  1
  Mg  Mg9  1  0.90285000  0.40285000  0.50976600  1
  Mg  Mg10  1  0.22569600  0.95500300  0.47851600  1
  Mg  Mg11  1  0.58000300  0.85069600  0.54101600  1
  Mg  Mg12  1  0.52785000  0.02785000  0.32226600  1
  Mg  Mg13  1  0.65285000  0.15285000  0.38476600  1
  Mg  Mg14  1  0.97569600  0.70500300  0.35351600  1
  Mg  Mg15  1  0.33000300  0.60069600  0.41601600  1
  Mg  Mg16  1  0.40285000  0.90285000  0.25976600  1
  Mg  Mg17  1  0.72569600  0.45500300  0.22851600  1
  Mg  Mg18  1  0.08000300  0.35069600  0.29101600  1
  B  B19  1  0.39296600  0.62348600  0.74220300  1
  B  B20  1  0.35315700  0.44260000  0.71836300  1
  B  B21  1  0.47985100  0.56929400  0.78171000  1
  B  B22  1  0.39246900  0.03978600  0.70755300  1
  B  B23  1  0.67683500  0.62806300  0.80149900  1
  B  B24  1  0.52789000  0.20105600  0.70875500  1
  B  B25  1  0.70011100  0.37327700  0.79486500  1
  B  B26  1  0.66478600  0.01746900  0.77005300  1
  B  B27  1  0.55721300  0.78773400  0.71482800  1
  B  B28  1  0.80263600  0.75386500  0.78053200  1
  B  B29  1  0.86140500  0.95084800  0.80032100  1
  B  B30  1  0.73810000  0.82754300  0.73866900  1
  B  B31  1  0.82605600  0.15289000  0.77125500  1
  B  B32  1  0.74827700  0.07511100  0.73236500  1
  B  B33  1  0.05742200  0.73058900  0.78716600  1
  B  B34  1  0.97964300  0.65280900  0.74827600  1
  B  B35  1  0.06760000  0.97815700  0.78086300  1
  B  B36  1  0.94429400  0.85485100  0.71921000  1
  B  B37  1  0.00306300  0.05183500  0.73899900  1
  B  B38  1  0.24848600  0.01796600  0.80470300  1
  B  B39  1  0.14091400  0.78823100  0.74947900  1
  B  B40  1  0.10558900  0.43242200  0.72466600  1
  B  B41  1  0.02780900  0.35464300  0.68577600  1
  B  B42  1  0.12886500  0.17763600  0.71803200  1
  B  B43  1  0.16323100  0.51591400  0.68697900  1
  B  B44  1  0.32584800  0.23640500  0.73782100  1
  B  B45  1  0.45254300  0.36310000  0.80116900  1
  B  B46  1  0.41273400  0.18221300  0.77732800  1
  B  B47  1  0.14296600  0.37348600  0.61720300  1
  B  B48  1  0.10315700  0.19260000  0.59336300  1
  B  B49  1  0.22985100  0.31929400  0.65671000  1
  B  B50  1  0.14246900  0.78978600  0.58255300  1
  B  B51  1  0.42683500  0.37806300  0.67649900  1
  B  B52  1  0.27789000  0.95105600  0.58375500  1
  B  B53  1  0.45011100  0.12327700  0.66986500  1
  B  B54  1  0.41478600  0.76746900  0.64505300  1
  B  B55  1  0.30721300  0.53773400  0.58982800  1
  B  B56  1  0.55263600  0.50386500  0.65553200  1
  B  B57  1  0.61140500  0.70084800  0.67532100  1
  B  B58  1  0.48810000  0.57754300  0.61366900  1
  B  B59  1  0.57605600  0.90289000  0.64625500  1
  B  B60  1  0.49827700  0.82511100  0.60736500  1
  B  B61  1  0.80742200  0.48058900  0.66216600  1
  B  B62  1  0.72964300  0.40280900  0.62327600  1
  B  B63  1  0.81760000  0.72815700  0.65586300  1
  B  B64  1  0.69429400  0.60485100  0.59421000  1
  B  B65  1  0.75306300  0.80183500  0.61399900  1
  B  B66  1  0.99848600  0.76796600  0.67970300  1
  B  B67  1  0.89091400  0.53823100  0.62447900  1
  B  B68  1  0.85558900  0.18242200  0.59966600  1
  B  B69  1  0.77780900  0.10464300  0.56077600  1
  B  B70  1  0.87886500  0.92763600  0.59303200  1
  B  B71  1  0.91323100  0.26591400  0.56197900  1
  B  B72  1  0.07584800  0.98640500  0.61282100  1
  B  B73  1  0.20254300  0.11310000  0.67616900  1
  B  B74  1  0.16273400  0.93221300  0.65232800  1
  B  B75  1  0.89296600  0.12348600  0.49220300  1
  B  B76  1  0.85315700  0.94260000  0.46836300  1
  B  B77  1  0.97985100  0.06929400  0.53171000  1
  B  B78  1  0.89246900  0.53978600  0.45755300  1
  B  B79  1  0.17683500  0.12806300  0.55149900  1
  B  B80  1  0.02789000  0.70105600  0.45875500  1
  B  B81  1  0.20011100  0.87327700  0.54486500  1
  B  B82  1  0.16478600  0.51746900  0.52005300  1
  B  B83  1  0.05721300  0.28773400  0.46482800  1
  B  B84  1  0.30263600  0.25386500  0.53053200  1
  B  B85  1  0.36140500  0.45084800  0.55032100  1
  B  B86  1  0.23810000  0.32754300  0.48866900  1
  B  B87  1  0.32605600  0.65289000  0.52125500  1
  B  B88  1  0.24827700  0.57511100  0.48236500  1
  B  B89  1  0.55742200  0.23058900  0.53716600  1
  B  B90  1  0.47964300  0.15280900  0.49827600  1
  B  B91  1  0.56760000  0.47815700  0.53086300  1
  B  B92  1  0.44429400  0.35485100  0.46921000  1
  B  B93  1  0.50306300  0.55183500  0.48899900  1
  B  B94  1  0.74848600  0.51796600  0.55470300  1
  B  B95  1  0.64091400  0.28823100  0.49947900  1
  B  B96  1  0.60558900  0.93242200  0.47466600  1
  B  B97  1  0.52780900  0.85464300  0.43577600  1
  B  B98  1  0.62886500  0.67763600  0.46803200  1
  B  B99  1  0.66323100  0.01591400  0.43697900  1
  B  B100  1  0.82584800  0.73640500  0.48782100  1
  B  B101  1  0.95254300  0.86310000  0.55116900  1
  B  B102  1  0.91273400  0.68221300  0.52732800  1
  B  B103  1  0.64296600  0.87348600  0.36720300  1
  B  B104  1  0.60315700  0.69260000  0.34336300  1
  B  B105  1  0.72985100  0.81929400  0.40671000  1
  B  B106  1  0.64246900  0.28978600  0.33255300  1
  B  B107  1  0.92683500  0.87806300  0.42649900  1
  B  B108  1  0.77789000  0.45105600  0.33375500  1
  B  B109  1  0.95011100  0.62327700  0.41986500  1
  B  B110  1  0.91478600  0.26746900  0.39505300  1
  B  B111  1  0.80721300  0.03773400  0.33982800  1
  B  B112  1  0.05263600  0.00386500  0.40553200  1
  B  B113  1  0.11140500  0.20084800  0.42532100  1
  B  B114  1  0.98810000  0.07754300  0.36366900  1
  B  B115  1  0.07605600  0.40289000  0.39625500  1
  B  B116  1  0.99827700  0.32511100  0.35736500  1
  B  B117  1  0.30742200  0.98058900  0.41216600  1
  B  B118  1  0.22964300  0.90280900  0.37327600  1
  B  B119  1  0.31760000  0.22815700  0.40586300  1
  B  B120  1  0.19429400  0.10485100  0.34421000  1
  B  B121  1  0.25306300  0.30183500  0.36399900  1
  B  B122  1  0.49848600  0.26796600  0.42970300  1
  B  B123  1  0.39091400  0.03823100  0.37447900  1
  B  B124  1  0.35558900  0.68242200  0.34966600  1
  B  B125  1  0.27780900  0.60464300  0.31077600  1
  B  B126  1  0.37886500  0.42763600  0.34303200  1
  B  B127  1  0.41323100  0.76591400  0.31197900  1
  B  B128  1  0.57584800  0.48640500  0.36282100  1
  B  B129  1  0.70254300  0.61310000  0.42616900  1
  B  B130  1  0.66273400  0.43221300  0.40232800  1
  B  B131  1  0.39296600  0.62348600  0.24220300  1
  B  B132  1  0.35315700  0.44260000  0.21836300  1
  B  B133  1  0.47985100  0.56929400  0.28171000  1
  B  B134  1  0.67683500  0.62806300  0.30149900  1
  B  B135  1  0.70011100  0.37327700  0.29486500  1
  B  B136  1  0.66478600  0.01746900  0.27005300  1
  B  B137  1  0.55721300  0.78773400  0.21482800  1
  B  B138  1  0.80263600  0.75386500  0.28053200  1
  B  B139  1  0.86140500  0.95084800  0.30032100  1
  B  B140  1  0.73810000  0.82754300  0.23866900  1
  B  B141  1  0.82605600  0.15289000  0.27125500  1
  B  B142  1  0.74827700  0.07511100  0.23236500  1
  B  B143  1  0.05742200  0.73058900  0.28716600  1
  B  B144  1  0.97964300  0.65280900  0.24827600  1
  B  B145  1  0.06760000  0.97815700  0.28086300  1
  B  B146  1  0.94429400  0.85485100  0.21921000  1
  B  B147  1  0.00306300  0.05183500  0.23899900  1
  B  B148  1  0.24848600  0.01796600  0.30470300  1
  B  B149  1  0.14091400  0.78823100  0.24947900  1
  B  B150  1  0.10558900  0.43242200  0.22466600  1
  B  B151  1  0.12886500  0.17763600  0.21803200  1
  B  B152  1  0.32584800  0.23640500  0.23782100  1
  B  B153  1  0.45254300  0.36310000  0.30116900  1
  B  B154  1  0.41273400  0.18221300  0.27732800  1
