# generated using pymatgen
data_Lu3Mg
_symmetry_space_group_name_H-M   'P 1'
_cell_length_a   8.79149455
_cell_length_b   8.79149524
_cell_length_c   43.95747500
_cell_angle_alpha   94.68327948
_cell_angle_beta   85.31672015
_cell_angle_gamma   94.68328493
_symmetry_Int_Tables_number   1
_chemical_formula_structural   Lu3Mg
_chemical_formula_sum   'Lu54 Mg18'
_cell_volume   3365.21269371
_cell_formula_units_Z   18
loop_
 _symmetry_equiv_pos_site_id
 _symmetry_equiv_pos_as_xyz
  1  'x, y, z'
loop_
 _atom_site_type_symbol
 _atom_site_label
 _atom_site_symmetry_multiplicity
 _atom_site_fract_x
 _atom_site_fract_y
 _atom_site_fract_z
 _atom_site_occupancy
  Lu  Lu0  1  0.74898700  0.08333300  0.21686900  1
  Lu  Lu1  1  0.25000000  0.58232000  0.21646400  1
  Lu  Lu2  1  0.41768000  0.91768000  0.25000000  1
  Lu  Lu3  1  0.91565300  0.74898700  0.21666700  1
  Lu  Lu4  1  0.08333300  0.08434700  0.25020300  1
  Lu  Lu5  1  0.58434700  0.58333300  0.24979700  1
  Lu  Lu6  1  0.08232000  0.75000000  0.28353600  1
  Lu  Lu7  1  0.58333300  0.24898700  0.28313100  1
  Lu  Lu8  1  0.75101300  0.58434700  0.31666700  1
  Lu  Lu9  1  0.24898700  0.41565300  0.28333300  1
  Lu  Lu10  1  0.41666700  0.75101300  0.31686900  1
  Lu  Lu11  1  0.91768000  0.25000000  0.31646400  1
  Lu  Lu12  1  0.41565300  0.41666700  0.35020300  1
  Lu  Lu13  1  0.91666700  0.91565300  0.34979700  1
  Lu  Lu14  1  0.08434700  0.25101300  0.38333300  1
  Lu  Lu15  1  0.58232000  0.08232000  0.35000000  1
  Lu  Lu16  1  0.75000000  0.41768000  0.38353600  1
  Lu  Lu17  1  0.25101300  0.91666700  0.38313100  1
  Lu  Lu18  1  0.74898700  0.08333300  0.41686900  1
  Lu  Lu19  1  0.25000000  0.58232000  0.41646400  1
  Lu  Lu20  1  0.41768000  0.91768000  0.45000000  1
  Lu  Lu21  1  0.91565300  0.74898700  0.41666700  1
  Lu  Lu22  1  0.08333300  0.08434700  0.45020300  1
  Lu  Lu23  1  0.58434700  0.58333300  0.44979700  1
  Lu  Lu24  1  0.08232000  0.75000000  0.48353600  1
  Lu  Lu25  1  0.58333300  0.24898700  0.48313100  1
  Lu  Lu26  1  0.75101300  0.58434700  0.51666700  1
  Lu  Lu27  1  0.24898700  0.41565300  0.48333300  1
  Lu  Lu28  1  0.41666700  0.75101300  0.51686900  1
  Lu  Lu29  1  0.91768000  0.25000000  0.51646400  1
  Lu  Lu30  1  0.41565300  0.41666700  0.55020300  1
  Lu  Lu31  1  0.91666700  0.91565300  0.54979700  1
  Lu  Lu32  1  0.08434700  0.25101300  0.58333300  1
  Lu  Lu33  1  0.58232000  0.08232000  0.55000000  1
  Lu  Lu34  1  0.75000000  0.41768000  0.58353600  1
  Lu  Lu35  1  0.25101300  0.91666700  0.58313100  1
  Lu  Lu36  1  0.74898700  0.08333300  0.61686900  1
  Lu  Lu37  1  0.25000000  0.58232000  0.61646400  1
  Lu  Lu38  1  0.41768000  0.91768000  0.65000000  1
  Lu  Lu39  1  0.91565300  0.74898700  0.61666700  1
  Lu  Lu40  1  0.08333300  0.08434700  0.65020300  1
  Lu  Lu41  1  0.58434700  0.58333300  0.64979700  1
  Lu  Lu42  1  0.08232000  0.75000000  0.68353600  1
  Lu  Lu43  1  0.58333300  0.24898700  0.68313100  1
  Lu  Lu44  1  0.75101300  0.58434700  0.71666700  1
  Lu  Lu45  1  0.24898700  0.41565300  0.68333300  1
  Lu  Lu46  1  0.41666700  0.75101300  0.71686900  1
  Lu  Lu47  1  0.91768000  0.25000000  0.71646400  1
  Lu  Lu48  1  0.41565300  0.41666700  0.75020300  1
  Lu  Lu49  1  0.91666700  0.91565300  0.74979700  1
  Lu  Lu50  1  0.08434700  0.25101300  0.78333300  1
  Lu  Lu51  1  0.58232000  0.08232000  0.75000000  1
  Lu  Lu52  1  0.75000000  0.41768000  0.78353600  1
  Lu  Lu53  1  0.25101300  0.91666700  0.78313100  1
  Mg  Mg54  1  0.91666700  0.41666700  0.25000000  1
  Mg  Mg55  1  0.41666700  0.25000000  0.21666700  1
  Mg  Mg56  1  0.25000000  0.08333300  0.31666700  1
  Mg  Mg57  1  0.75000000  0.91666700  0.28333300  1
  Mg  Mg58  1  0.58333300  0.75000000  0.38333300  1
  Mg  Mg59  1  0.08333300  0.58333300  0.35000000  1
  Mg  Mg60  1  0.91666700  0.41666700  0.45000000  1
  Mg  Mg61  1  0.41666700  0.25000000  0.41666700  1
  Mg  Mg62  1  0.25000000  0.08333300  0.51666700  1
  Mg  Mg63  1  0.75000000  0.91666700  0.48333300  1
  Mg  Mg64  1  0.58333300  0.75000000  0.58333300  1
  Mg  Mg65  1  0.08333300  0.58333300  0.55000000  1
  Mg  Mg66  1  0.91666700  0.41666700  0.65000000  1
  Mg  Mg67  1  0.41666700  0.25000000  0.61666700  1
  Mg  Mg68  1  0.25000000  0.08333300  0.71666700  1
  Mg  Mg69  1  0.75000000  0.91666700  0.68333300  1
  Mg  Mg70  1  0.58333300  0.75000000  0.78333300  1
  Mg  Mg71  1  0.08333300  0.58333300  0.75000000  1
