# generated using pymatgen
data_Mg8Pd13
_symmetry_space_group_name_H-M   'P 1'
_cell_length_a   4.30853900
_cell_length_b   12.03781485
_cell_length_c   49.04360200
_cell_angle_alpha   91.40300406
_cell_angle_beta   90.00000000
_cell_angle_gamma   90.00000000
_symmetry_Int_Tables_number   1
_chemical_formula_structural   Mg8Pd13
_chemical_formula_sum   'Mg32 Pd52'
_cell_volume   2542.90320535
_cell_formula_units_Z   4
loop_
 _symmetry_equiv_pos_site_id
 _symmetry_equiv_pos_as_xyz
  1  'x, y, z'
loop_
 _atom_site_type_symbol
 _atom_site_label
 _atom_site_symmetry_multiplicity
 _atom_site_fract_x
 _atom_site_fract_y
 _atom_site_fract_z
 _atom_site_occupancy
  Mg  Mg0  1  0.00000000  0.48040400  0.21250000  1
  Mg  Mg1  1  0.00000000  0.98040400  0.21250000  1
  Mg  Mg2  1  0.50000000  0.80266100  0.23263800  1
  Mg  Mg3  1  0.50000000  0.95814700  0.29236200  1
  Mg  Mg4  1  0.50000000  0.23820100  0.26486800  1
  Mg  Mg5  1  0.50000000  0.52260700  0.26013200  1
  Mg  Mg6  1  0.00000000  0.28040400  0.31250000  1
  Mg  Mg7  1  0.00000000  0.78040400  0.31250000  1
  Mg  Mg8  1  0.50000000  0.60266100  0.33263800  1
  Mg  Mg9  1  0.50000000  0.75814700  0.39236200  1
  Mg  Mg10  1  0.50000000  0.03820100  0.36486800  1
  Mg  Mg11  1  0.50000000  0.32260700  0.36013200  1
  Mg  Mg12  1  0.00000000  0.08040400  0.41250000  1
  Mg  Mg13  1  0.00000000  0.58040400  0.41250000  1
  Mg  Mg14  1  0.50000000  0.40266100  0.43263800  1
  Mg  Mg15  1  0.50000000  0.55814700  0.49236200  1
  Mg  Mg16  1  0.50000000  0.83820100  0.46486800  1
  Mg  Mg17  1  0.50000000  0.12260700  0.46013200  1
  Mg  Mg18  1  0.00000000  0.88040400  0.51250000  1
  Mg  Mg19  1  0.00000000  0.38040400  0.51250000  1
  Mg  Mg20  1  0.50000000  0.20266100  0.53263800  1
  Mg  Mg21  1  0.50000000  0.35814700  0.59236200  1
  Mg  Mg22  1  0.50000000  0.63820100  0.56486800  1
  Mg  Mg23  1  0.50000000  0.92260700  0.56013200  1
  Mg  Mg24  1  0.00000000  0.68040400  0.61250000  1
  Mg  Mg25  1  1.00000000  0.18040400  0.61250000  1
  Mg  Mg26  1  0.50000000  0.00266100  0.63263800  1
  Mg  Mg27  1  0.50000000  0.15814700  0.69236200  1
  Mg  Mg28  1  0.50000000  0.43820100  0.66486800  1
  Mg  Mg29  1  0.50000000  0.72260700  0.66013200  1
  Mg  Mg30  1  0.00000000  0.48040400  0.71250000  1
  Mg  Mg31  1  0.00000000  0.98040400  0.71250000  1
  Pd  Pd32  1  0.50000000  0.60425900  0.20614400  1
  Pd  Pd33  1  0.50000000  0.35654900  0.21885600  1
  Pd  Pd34  1  0.50000000  0.03437700  0.24108500  1
  Pd  Pd35  1  0.50000000  0.72643100  0.28391500  1
  Pd  Pd36  1  0.00000000  0.56304500  0.29926000  1
  Pd  Pd37  1  0.00000000  0.19776300  0.22574000  1
  Pd  Pd38  1  0.00000000  0.10762100  0.27697200  1
  Pd  Pd39  1  0.00000000  0.65318700  0.24802800  1
  Pd  Pd40  1  1.00000000  0.88040400  0.26250000  1
  Pd  Pd41  1  0.00000000  0.38040400  0.26250000  1
  Pd  Pd42  1  0.50000000  0.40425900  0.30614400  1
  Pd  Pd43  1  0.50000000  0.15654900  0.31885600  1
  Pd  Pd44  1  0.50000000  0.83437700  0.34108500  1
  Pd  Pd45  1  0.50000000  0.52643100  0.38391500  1
  Pd  Pd46  1  0.00000000  0.36304500  0.39926000  1
  Pd  Pd47  1  0.00000000  0.99776300  0.32574000  1
  Pd  Pd48  1  1.00000000  0.90762100  0.37697200  1
  Pd  Pd49  1  0.00000000  0.45318700  0.34802800  1
  Pd  Pd50  1  0.00000000  0.68040400  0.36250000  1
  Pd  Pd51  1  0.00000000  0.18040400  0.36250000  1
  Pd  Pd52  1  0.50000000  0.20425900  0.40614400  1
  Pd  Pd53  1  0.50000000  0.95654900  0.41885600  1
  Pd  Pd54  1  0.50000000  0.63437700  0.44108500  1
  Pd  Pd55  1  0.50000000  0.32643100  0.48391500  1
  Pd  Pd56  1  0.00000000  0.16304500  0.49926000  1
  Pd  Pd57  1  0.00000000  0.79776300  0.42574000  1
  Pd  Pd58  1  0.00000000  0.70762100  0.47697200  1
  Pd  Pd59  1  0.00000000  0.25318700  0.44802800  1
  Pd  Pd60  1  0.00000000  0.48040400  0.46250000  1
  Pd  Pd61  1  0.00000000  0.98040400  0.46250000  1
  Pd  Pd62  1  0.50000000  0.00425900  0.50614400  1
  Pd  Pd63  1  0.50000000  0.75654900  0.51885600  1
  Pd  Pd64  1  0.50000000  0.43437700  0.54108500  1
  Pd  Pd65  1  0.50000000  0.12643100  0.58391500  1
  Pd  Pd66  1  0.00000000  0.96304500  0.59926000  1
  Pd  Pd67  1  0.00000000  0.59776300  0.52574000  1
  Pd  Pd68  1  0.00000000  0.50762100  0.57697200  1
  Pd  Pd69  1  1.00000000  0.05318700  0.54802800  1
  Pd  Pd70  1  0.00000000  0.28040400  0.56250000  1
  Pd  Pd71  1  1.00000000  0.78040400  0.56250000  1
  Pd  Pd72  1  0.50000000  0.80425900  0.60614400  1
  Pd  Pd73  1  0.50000000  0.55654900  0.61885600  1
  Pd  Pd74  1  0.50000000  0.23437700  0.64108500  1
  Pd  Pd75  1  0.50000000  0.92643100  0.68391500  1
  Pd  Pd76  1  0.00000000  0.76304500  0.69926000  1
  Pd  Pd77  1  0.00000000  0.39776300  0.62574000  1
  Pd  Pd78  1  0.00000000  0.30762100  0.67697200  1
  Pd  Pd79  1  1.00000000  0.85318700  0.64802800  1
  Pd  Pd80  1  0.00000000  0.08040400  0.66250000  1
  Pd  Pd81  1  0.00000000  0.58040400  0.66250000  1
  Pd  Pd82  1  0.50000000  0.60425900  0.70614400  1
  Pd  Pd83  1  0.50000000  0.35654900  0.71885600  1
