# generated using pymatgen
data_Mg135Pd56
_symmetry_space_group_name_H-M   'P 1'
_cell_length_a   11.93708013
_cell_length_b   11.93708005
_cell_length_c   42.77055300
_cell_angle_alpha   94.13972168
_cell_angle_beta   85.86027835
_cell_angle_gamma   100.22975759
_symmetry_Int_Tables_number   1
_chemical_formula_structural   Mg135Pd56
_chemical_formula_sum   'Mg135 Pd56'
_cell_volume   5971.05965499
_cell_formula_units_Z   1
loop_
 _symmetry_equiv_pos_site_id
 _symmetry_equiv_pos_as_xyz
  1  'x, y, z'
loop_
 _atom_site_type_symbol
 _atom_site_label
 _atom_site_symmetry_multiplicity
 _atom_site_fract_x
 _atom_site_fract_y
 _atom_site_fract_z
 _atom_site_occupancy
  Mg  Mg0  1  0.28849300  0.51995700  0.20649700  1
  Mg  Mg1  1  0.76813400  0.04031600  0.22007000  1
  Mg  Mg2  1  0.49745700  0.88564300  0.25873800  1
  Mg  Mg3  1  0.00666200  0.18488800  0.23181400  1
  Mg  Mg4  1  0.52702100  0.66452900  0.21824200  1
  Mg  Mg5  1  0.16133500  0.45556600  0.27048300  1
  Mg  Mg6  1  0.14150300  0.05004700  0.26552500  1
  Mg  Mg7  1  0.66186100  0.52968800  0.25195200  1
  Mg  Mg8  1  0.93253900  0.68436100  0.21328400  1
  Mg  Mg9  1  0.51728900  0.29116100  0.26369600  1
  Mg  Mg10  1  0.63329400  0.17515700  0.18636000  1
  Mg  Mg11  1  0.36261600  0.02048400  0.22502800  1
  Mg  Mg12  1  0.55312400  0.90789200  0.18579700  1
  Mg  Mg13  1  0.02122900  0.43978800  0.20706100  1
  Mg  Mg14  1  0.77747100  0.30049700  0.24188300  1
  Mg  Mg15  1  0.74203100  0.79695300  0.25251500  1
  Mg  Mg16  1  0.27392700  0.26505700  0.23125100  1
  Mg  Mg17  1  0.51768500  0.40434800  0.19642900  1
  Mg  Mg18  1  0.32939600  0.67060400  0.26461000  1
  Mg  Mg19  1  0.14757800  0.85242200  0.21915600  1
  Mg  Mg20  1  0.65213000  0.15632000  0.29740600  1
  Mg  Mg21  1  0.13177100  0.67667900  0.31097900  1
  Mg  Mg22  1  0.86109300  0.52200600  0.34964700  1
  Mg  Mg23  1  0.37029800  0.82125200  0.32272300  1
  Mg  Mg24  1  0.89065700  0.30089300  0.30915100  1
  Mg  Mg25  1  0.52497100  0.09192900  0.36139200  1
  Mg  Mg26  1  0.50513900  0.68641100  0.35643400  1
  Mg  Mg27  1  0.02549800  0.16605200  0.34286100  1
  Mg  Mg28  1  0.29617500  0.32072500  0.30419300  1
  Mg  Mg29  1  0.88092500  0.92752500  0.35460500  1
  Mg  Mg30  1  0.99693000  0.81152000  0.27726900  1
  Mg  Mg31  1  0.72625200  0.65684700  0.31593700  1
  Mg  Mg32  1  0.91676100  0.54425500  0.27670600  1
  Mg  Mg33  1  0.38486500  0.07615100  0.29797000  1
  Mg  Mg34  1  0.14110700  0.93686100  0.33279200  1
  Mg  Mg35  1  0.10566700  0.43331700  0.34342400  1
  Mg  Mg36  1  0.63756300  0.90142100  0.32216000  1
  Mg  Mg37  1  0.88132100  0.04071100  0.28733800  1
  Mg  Mg38  1  0.69303200  0.30696800  0.35551900  1
  Mg  Mg39  1  0.51121400  0.48878600  0.31006500  1
  Mg  Mg40  1  0.01576600  0.79268400  0.38831600  1
  Mg  Mg41  1  0.49540700  0.31304300  0.40188800  1
  Mg  Mg42  1  0.22473000  0.15837000  0.44055600  1
  Mg  Mg43  1  0.73393400  0.45761600  0.41363300  1
  Mg  Mg44  1  0.25429300  0.93725700  0.40006000  1
  Mg  Mg45  1  0.88860700  0.72829300  0.45230100  1
  Mg  Mg46  1  0.86877500  0.32277500  0.44734300  1
  Mg  Mg47  1  0.38913400  0.80241600  0.43377000  1
  Mg  Mg48  1  0.65981200  0.95708900  0.39510200  1
  Mg  Mg49  1  0.24456200  0.56388900  0.44551400  1
  Mg  Mg50  1  0.36056600  0.44788400  0.36817800  1
  Mg  Mg51  1  0.08988900  0.29321100  0.40684600  1
  Mg  Mg52  1  0.28039700  0.18061900  0.36761500  1
  Mg  Mg53  1  0.74850100  0.71251500  0.38887900  1
  Mg  Mg54  1  0.50474300  0.57322500  0.42370100  1
  Mg  Mg55  1  0.46930300  0.06968100  0.43433300  1
  Mg  Mg56  1  0.00119900  0.53778500  0.41306900  1
  Mg  Mg57  1  0.24495700  0.67707500  0.37824700  1
  Mg  Mg58  1  0.05666800  0.94333200  0.44642900  1
  Mg  Mg59  1  0.87485000  0.12515000  0.40097400  1
  Mg  Mg60  1  0.37940300  0.42904800  0.47922500  1
  Mg  Mg61  1  0.85904400  0.94940700  0.49279700  1
  Mg  Mg62  1  0.58836600  0.79473400  0.53146600  1
  Mg  Mg63  1  0.09757100  0.09397900  0.50454200  1
  Mg  Mg64  1  0.61793000  0.57362000  0.49096900  1
  Mg  Mg65  1  0.25224400  0.36465700  0.54321000  1
  Mg  Mg66  1  0.23241200  0.95913800  0.53825200  1
  Mg  Mg67  1  0.75277100  0.43877900  0.52467900  1
  Mg  Mg68  1  0.02344800  0.59345200  0.48601100  1
  Mg  Mg69  1  0.60819800  0.20025200  0.53642400  1
  Mg  Mg70  1  0.72420300  0.08424700  0.45908700  1
  Mg  Mg71  1  0.45352500  0.92957500  0.49775500  1
  Mg  Mg72  1  0.64403400  0.81698300  0.45852400  1
  Mg  Mg73  1  0.11213800  0.34887800  0.47978800  1
  Mg  Mg74  1  0.86838000  0.20958800  0.51461000  1
  Mg  Mg75  1  0.83294000  0.70604400  0.52524200  1
  Mg  Mg76  1  0.36483600  0.17414800  0.50397800  1
  Mg  Mg77  1  0.60859400  0.31343900  0.46915600  1
  Mg  Mg78  1  0.42030500  0.57969500  0.53733800  1
  Mg  Mg79  1  0.23848700  0.76151300  0.49188300  1
  Mg  Mg80  1  0.74303900  0.06541100  0.57013400  1
  Mg  Mg81  1  0.22268000  0.58577000  0.58370600  1
  Mg  Mg82  1  0.95200200  0.43109700  0.62237500  1
  Mg  Mg83  1  0.46120700  0.73034300  0.59545100  1
  Mg  Mg84  1  0.98156600  0.20998400  0.58187800  1
  Mg  Mg85  1  0.61588000  0.00102000  0.63411900  1
  Mg  Mg86  1  0.59604800  0.59550200  0.62916100  1
  Mg  Mg87  1  0.11640700  0.07514300  0.61558800  1
  Mg  Mg88  1  0.38708400  0.22981600  0.57692000  1
  Mg  Mg89  1  0.97183400  0.83661600  0.62733300  1
  Mg  Mg90  1  0.08783900  0.72061100  0.54999600  1
  Mg  Mg91  1  0.81716100  0.56593800  0.58866400  1
  Mg  Mg92  1  0.00767000  0.45334600  0.54943300  1
  Mg  Mg93  1  0.47577400  0.98524200  0.57069700  1
  Mg  Mg94  1  0.23201600  0.84595200  0.60551900  1
  Mg  Mg95  1  0.19657600  0.34240800  0.61615100  1
  Mg  Mg96  1  0.72847200  0.81051200  0.59488800  1
  Mg  Mg97  1  0.97223000  0.94980200  0.56006500  1
  Mg  Mg98  1  0.78394100  0.21605900  0.62824700  1
  Mg  Mg99  1  0.60212300  0.39787700  0.58279200  1
  Mg  Mg100  1  0.10667500  0.70177500  0.66104300  1
  Mg  Mg101  1  0.58631600  0.22213400  0.67461500  1
  Mg  Mg102  1  0.31563900  0.06746100  0.71328400  1
  Mg  Mg103  1  0.82484300  0.36670600  0.68636000  1
  Mg  Mg104  1  0.34520200  0.84634700  0.67278700  1
  Mg  Mg105  1  0.97951600  0.63738400  0.72502800  1
  Mg  Mg106  1  0.95968400  0.23186600  0.72007000  1
  Mg  Mg107  1  0.48004300  0.71150700  0.70649700  1
  Mg  Mg108  1  0.75072100  0.86617900  0.66782900  1
  Mg  Mg109  1  0.33547100  0.47297900  0.71824200  1
  Mg  Mg110  1  0.45147500  0.35697500  0.64090500  1
  Mg  Mg111  1  0.18079800  0.20230200  0.67957300  1
  Mg  Mg112  1  0.37130600  0.08971000  0.64034200  1
  Mg  Mg113  1  0.83941000  0.62160600  0.66160600  1
  Mg  Mg114  1  0.59565200  0.48231500  0.69642900  1
  Mg  Mg115  1  0.56021200  0.97877100  0.70706100  1
  Mg  Mg116  1  0.09210800  0.44687600  0.68579700  1
  Mg  Mg117  1  0.33586600  0.58616600  0.65097400  1
  Mg  Mg118  1  0.14757800  0.85242200  0.71915600  1
  Mg  Mg119  1  0.96575900  0.03424100  0.67370100  1
  Mg  Mg120  1  0.47031200  0.33813900  0.75195200  1
  Mg  Mg121  1  0.94995300  0.85849700  0.76552500  1
  Mg  Mg122  1  0.18848000  0.00307000  0.77726900  1
  Mg  Mg123  1  0.70883900  0.48271100  0.76369600  1
  Mg  Mg124  1  0.84368000  0.34787000  0.79740600  1
  Mg  Mg125  1  0.11435700  0.50254300  0.75873800  1
  Mg  Mg126  1  0.81511200  0.99333800  0.73181400  1
  Mg  Mg127  1  0.54443400  0.83866500  0.77048300  1
  Mg  Mg128  1  0.73494300  0.72607300  0.73125100  1
  Mg  Mg129  1  0.20304700  0.25796900  0.75251500  1
  Mg  Mg130  1  0.95928900  0.11867900  0.78733800  1
  Mg  Mg131  1  0.92384900  0.61513500  0.79797000  1
  Mg  Mg132  1  0.45574500  0.08323900  0.77670600  1
  Mg  Mg133  1  0.69950300  0.22252900  0.74188300  1
  Mg  Mg134  1  0.32939600  0.67060400  0.76461000  1
  Pd  Pd135  1  0.88617500  0.23840100  0.18494900  1
  Pd  Pd136  1  0.35173800  0.77283900  0.20790800  1
  Pd  Pd137  1  0.11391000  0.63693700  0.24188300  1
  Pd  Pd138  1  0.40898000  0.46644400  0.25336200  1
  Pd  Pd139  1  0.94341700  0.93200600  0.23040400  1
  Pd  Pd140  1  0.18124500  0.06790800  0.19642900  1
  Pd  Pd141  1  0.57182000  0.09484700  0.24188300  1
  Pd  Pd142  1  0.72333500  0.60999800  0.19642900  1
  Pd  Pd143  1  0.24981200  0.87476500  0.27585900  1
  Pd  Pd144  1  0.71537400  0.40920200  0.29881700  1
  Pd  Pd145  1  0.47754600  0.27330000  0.33279200  1
  Pd  Pd146  1  0.77261600  0.10280700  0.34427100  1
  Pd  Pd147  1  0.30705300  0.56837000  0.32131300  1
  Pd  Pd148  1  0.54488100  0.70427200  0.28733800  1
  Pd  Pd149  1  0.93545600  0.73121000  0.33279200  1
  Pd  Pd150  1  0.08697100  0.24636200  0.28733800  1
  Pd  Pd151  1  0.61344800  0.51112800  0.36676800  1
  Pd  Pd152  1  0.07901100  0.04556600  0.38972600  1
  Pd  Pd153  1  0.84118300  0.90966400  0.42370100  1
  Pd  Pd154  1  0.13625200  0.73917100  0.43518000  1
  Pd  Pd155  1  0.67069000  0.20473400  0.41222200  1
  Pd  Pd156  1  0.90851800  0.34063500  0.37824700  1
  Pd  Pd157  1  0.29909300  0.36757400  0.42370100  1
  Pd  Pd158  1  0.45060800  0.88272500  0.37824700  1
  Pd  Pd159  1  0.97708400  0.14749200  0.45767700  1
  Pd  Pd160  1  0.44264700  0.68192900  0.48063500  1
  Pd  Pd161  1  0.20481900  0.54602800  0.51461000  1
  Pd  Pd162  1  0.49988900  0.37553500  0.52608900  1
  Pd  Pd163  1  0.03432600  0.84109700  0.50313100  1
  Pd  Pd164  1  0.27215400  0.97699900  0.46915600  1
  Pd  Pd165  1  0.66272900  0.00393800  0.51461000  1
  Pd  Pd166  1  0.81424400  0.51908900  0.46915600  1
  Pd  Pd167  1  0.34072100  0.78385600  0.54858600  1
  Pd  Pd168  1  0.80628400  0.31829300  0.57154400  1
  Pd  Pd169  1  0.56845500  0.18239100  0.60551900  1
  Pd  Pd170  1  0.86352500  0.01189800  0.61699900  1
  Pd  Pd171  1  0.39796200  0.47746100  0.59404000  1
  Pd  Pd172  1  0.63579000  0.61336300  0.56006500  1
  Pd  Pd173  1  0.02636500  0.64030100  0.60551900  1
  Pd  Pd174  1  0.17788100  0.15545300  0.56006500  1
  Pd  Pd175  1  0.70435700  0.42021900  0.63949500  1
  Pd  Pd176  1  0.16992000  0.95465700  0.66245300  1
  Pd  Pd177  1  0.93209200  0.81875500  0.69642900  1
  Pd  Pd178  1  0.22716100  0.64826200  0.70790800  1
  Pd  Pd179  1  0.76159900  0.11382500  0.68494900  1
  Pd  Pd180  1  0.99942700  0.24972600  0.65097400  1
  Pd  Pd181  1  0.39000200  0.27666500  0.69642900  1
  Pd  Pd182  1  0.54151700  0.79181600  0.65097400  1
  Pd  Pd183  1  0.06799400  0.05658300  0.73040400  1
  Pd  Pd184  1  0.53355600  0.59102000  0.75336200  1
  Pd  Pd185  1  0.29572800  0.45511900  0.78733800  1
  Pd  Pd186  1  0.59079800  0.28462600  0.79881700  1
  Pd  Pd187  1  0.12523500  0.75018800  0.77585900  1
  Pd  Pd188  1  0.36306300  0.88609000  0.74188300  1
  Pd  Pd189  1  0.75363800  0.91302900  0.78733800  1
  Pd  Pd190  1  0.90515300  0.42818000  0.74188300  1
