# generated using pymatgen
data_Ba10Mg19
_symmetry_space_group_name_H-M   'P 1'
_cell_length_a   11.41227500
_cell_length_b   12.70238075
_cell_length_c   40.99777200
_cell_angle_alpha   91.35370379
_cell_angle_beta   90.00000000
_cell_angle_gamma   63.30648272
_symmetry_Int_Tables_number   1
_chemical_formula_structural   Ba10Mg19
_chemical_formula_sum   'Ba30 Mg57'
_cell_volume   5307.89686498
_cell_formula_units_Z   3
loop_
 _symmetry_equiv_pos_site_id
 _symmetry_equiv_pos_as_xyz
  1  'x, y, z'
loop_
 _atom_site_type_symbol
 _atom_site_label
 _atom_site_symmetry_multiplicity
 _atom_site_fract_x
 _atom_site_fract_y
 _atom_site_fract_z
 _atom_site_occupancy
  Ba  Ba0  1  0.97199800  0.88144000  0.25512800  1
  Ba  Ba1  1  0.25148100  0.98914000  0.26410300  1
  Ba  Ba2  1  0.51045900  0.80451700  0.33205100  1
  Ba  Ba3  1  0.07456200  0.34297900  0.29358900  1
  Ba  Ba4  1  0.78994300  0.91221700  0.34102600  1
  Ba  Ba5  1  0.68737900  0.45067800  0.30256400  1
  Ba  Ba6  1  0.04892100  0.72759400  0.40897400  1
  Ba  Ba7  1  0.61302300  0.26605500  0.37051300  1
  Ba  Ba8  1  0.32840400  0.83529400  0.41794900  1
  Ba  Ba9  1  0.22584000  0.37375500  0.37948700  1
  Ba  Ba10  1  0.58738200  0.65067100  0.48589700  1
  Ba  Ba11  1  0.15148500  0.18913200  0.44743600  1
  Ba  Ba12  1  0.86686600  0.75837100  0.49487200  1
  Ba  Ba13  1  0.76430200  0.29683200  0.45641100  1
  Ba  Ba14  1  0.12584400  0.57374800  0.56282000  1
  Ba  Ba15  1  0.68994600  0.11220900  0.52435900  1
  Ba  Ba16  1  0.40532700  0.68144700  0.57179500  1
  Ba  Ba17  1  0.30276300  0.21990900  0.53333400  1
  Ba  Ba18  1  0.66430500  0.49682500  0.63974300  1
  Ba  Ba19  1  0.22840800  0.03528600  0.60128200  1
  Ba  Ba20  1  0.94378900  0.60452400  0.64871800  1
  Ba  Ba21  1  0.84122500  0.14298600  0.61025700  1
  Ba  Ba22  1  0.20276700  0.41990200  0.71666600  1
  Ba  Ba23  1  0.76687000  0.95836300  0.67820500  1
  Ba  Ba24  1  0.48225000  0.52760100  0.72564100  1
  Ba  Ba25  1  0.37968600  0.06606300  0.68718000  1
  Ba  Ba26  1  0.74122800  0.34297900  0.79358900  1
  Ba  Ba27  1  0.30533100  0.88144000  0.75512800  1
  Ba  Ba28  1  0.02071200  0.45067800  0.80256400  1
  Ba  Ba29  1  0.91814800  0.98914000  0.76410300  1
  Mg  Mg30  1  0.61173900  0.93529000  0.25961500  1
  Mg  Mg31  1  0.43343200  0.12830500  0.31660000  1
  Mg  Mg32  1  0.82780100  0.66676700  0.27813800  1
  Mg  Mg33  1  0.10198600  0.62759800  0.31730800  1
  Mg  Mg34  1  0.65995500  0.16605900  0.27884600  1
  Mg  Mg35  1  0.38097000  0.39682800  0.29807700  1
  Mg  Mg36  1  0.15020100  0.85836700  0.33653800  1
  Mg  Mg37  1  0.32850900  0.66535100  0.27955400  1
  Mg  Mg38  1  0.93414000  0.12689000  0.31801500  1
  Mg  Mg39  1  0.97189300  0.05138200  0.39352300  1
  Mg  Mg40  1  0.36626200  0.58984400  0.35506200  1
  Mg  Mg41  1  0.64044700  0.55067500  0.39423100  1
  Mg  Mg42  1  0.19841600  0.08913600  0.35576900  1
  Mg  Mg43  1  0.91943200  0.31990500  0.37500000  1
  Mg  Mg44  1  0.68866300  0.78144400  0.41346200  1
  Mg  Mg45  1  0.86697000  0.58842800  0.35647700  1
  Mg  Mg46  1  0.47260100  0.04996700  0.39493800  1
  Mg  Mg47  1  0.51035500  0.97445900  0.47044600  1
  Mg  Mg48  1  0.90472400  0.51292100  0.43198500  1
  Mg  Mg49  1  0.17890900  0.47375100  0.47115400  1
  Mg  Mg50  1  0.73687800  0.01221300  0.43269200  1
  Mg  Mg51  1  0.45789300  0.24298200  0.45192300  1
  Mg  Mg52  1  0.22712400  0.70452100  0.49038500  1
  Mg  Mg53  1  0.40543200  0.51150500  0.43340000  1
  Mg  Mg54  1  0.01106300  0.97304400  0.47186200  1
  Mg  Mg55  1  0.04881600  0.89753600  0.54736900  1
  Mg  Mg56  1  0.44318600  0.43599800  0.50890800  1
  Mg  Mg57  1  0.71737000  0.39682800  0.54807700  1
  Mg  Mg58  1  0.27533900  0.93529000  0.50961500  1
  Mg  Mg59  1  0.99635500  0.16605900  0.52884600  1
  Mg  Mg60  1  0.76558600  0.62759800  0.56730800  1
  Mg  Mg61  1  0.94389300  0.43458200  0.51032300  1
  Mg  Mg62  1  0.54952400  0.89612100  0.54878500  1
  Mg  Mg63  1  0.58727800  0.82061300  0.62429200  1
  Mg  Mg64  1  0.98164700  0.35907500  0.58583100  1
  Mg  Mg65  1  0.25583200  0.31990500  0.62500000  1
  Mg  Mg66  1  0.81380100  0.85836700  0.58653800  1
  Mg  Mg67  1  0.53481600  0.08913600  0.60576900  1
  Mg  Mg68  1  0.30404700  0.55067500  0.64423100  1
  Mg  Mg69  1  0.48235500  0.35765900  0.58724600  1
  Mg  Mg70  1  0.08798600  0.81919800  0.62570800  1
  Mg  Mg71  1  0.12574000  0.74369000  0.70121500  1
  Mg  Mg72  1  0.52010900  0.28215100  0.66275400  1
  Mg  Mg73  1  0.79429300  0.24298200  0.70192300  1
  Mg  Mg74  1  0.35226200  0.78144400  0.66346200  1
  Mg  Mg75  1  0.07327800  0.01221300  0.68269200  1
  Mg  Mg76  1  0.84250900  0.47375100  0.72115400  1
  Mg  Mg77  1  0.02081600  0.28073600  0.66416900  1
  Mg  Mg78  1  0.62644700  0.74227400  0.70263100  1
  Mg  Mg79  1  0.66420100  0.66676700  0.77813800  1
  Mg  Mg80  1  0.05857000  0.20522800  0.73967700  1
  Mg  Mg81  1  0.33275500  0.16605900  0.77884600  1
  Mg  Mg82  1  0.89072400  0.70452100  0.74038500  1
  Mg  Mg83  1  0.61173900  0.93529000  0.75961500  1
  Mg  Mg84  1  0.38097000  0.39682800  0.79807700  1
  Mg  Mg85  1  0.55927800  0.20381300  0.74109200  1
  Mg  Mg86  1  0.16490900  0.66535100  0.77955400  1
