# generated using pymatgen
data_Mg28Zn41
_symmetry_space_group_name_H-M   'P 1'
_cell_length_a   5.07402260
_cell_length_b   13.26606241
_cell_length_c   57.00757700
_cell_angle_alpha   92.18610401
_cell_angle_beta   87.66012493
_cell_angle_gamma   100.62858194
_symmetry_Int_Tables_number   1
_chemical_formula_structural   Mg28Zn41
_chemical_formula_sum   'Mg28 Zn41'
_cell_volume   3766.49990850
_cell_formula_units_Z   1
loop_
 _symmetry_equiv_pos_site_id
 _symmetry_equiv_pos_as_xyz
  1  'x, y, z'
loop_
 _atom_site_type_symbol
 _atom_site_label
 _atom_site_symmetry_multiplicity
 _atom_site_fract_x
 _atom_site_fract_y
 _atom_site_fract_z
 _atom_site_occupancy
  Mg  Mg0  1  0.18021300  0.55341700  0.44313700  1
  Mg  Mg1  1  0.73010600  0.67413500  0.45728600  1
  Mg  Mg2  1  0.05562300  0.34410500  0.47519500  1
  Mg  Mg3  1  0.82862700  0.88459800  0.47907700  1
  Mg  Mg4  1  0.31134400  0.81674800  0.44441000  1
  Mg  Mg5  1  0.37852000  0.00531600  0.49322700  1
  Mg  Mg6  1  0.50311000  0.21462800  0.46116800  1
  Mg  Mg7  1  0.24738900  0.74198600  0.49195400  1
  Mg  Mg8  1  0.93021300  0.30341700  0.69313700  1
  Mg  Mg9  1  0.13971300  0.67024500  0.64653800  1
  Mg  Mg10  1  0.49163700  0.30106600  0.55626100  1
  Mg  Mg11  1  0.48010600  0.42413500  0.70728600  1
  Mg  Mg12  1  0.61274400  0.59814700  0.61872100  1
  Mg  Mg13  1  0.80562300  0.09410500  0.72519500  1
  Mg  Mg14  1  0.49613200  0.35376600  0.61231800  1
  Mg  Mg15  1  0.57862700  0.63459800  0.72907700  1
  Mg  Mg16  1  0.93282200  0.25368400  0.63722800  1
  Mg  Mg17  1  0.69598900  0.71058600  0.56764300  1
  Mg  Mg18  1  0.81709600  0.00766700  0.63010300  1
  Mg  Mg19  1  0.37591100  0.05504900  0.54913600  1
  Mg  Mg20  1  0.06134400  0.56674800  0.69441000  1
  Mg  Mg21  1  0.05767500  0.39817100  0.53097500  1
  Mg  Mg22  1  0.25105800  0.91056300  0.65538900  1
  Mg  Mg23  1  0.81260100  0.95496700  0.57404600  1
  Mg  Mg24  1  0.12852000  0.75531600  0.74322700  1
  Mg  Mg25  1  0.25311000  0.96462800  0.71116800  1
  Mg  Mg26  1  0.16902000  0.63848900  0.53982600  1
  Mg  Mg27  1  0.99738900  0.49198600  0.74195400  1
  Zn  Zn28  1  0.61884900  0.44738000  0.45898100  1
  Zn  Zn29  1  0.38944800  0.54274900  0.49309600  1
  Zn  Zn30  1  0.16928500  0.01598400  0.44326800  1
  Zn  Zn31  1  0.90462300  0.54584500  0.49264100  1
  Zn  Zn32  1  0.65411100  0.01288800  0.44372200  1
  Zn  Zn33  1  0.93988400  0.11135300  0.47738300  1
  Zn  Zn34  1  0.05999800  0.48049900  0.61625400  1
  Zn  Zn35  1  0.59362800  0.61077700  0.67252900  1
  Zn  Zn36  1  0.36693500  0.12724200  0.63389500  1
  Zn  Zn37  1  0.04026200  0.86202100  0.53025900  1
  Zn  Zn38  1  0.47930100  0.81374100  0.61237300  1
  Zn  Zn39  1  0.77438200  0.45111000  0.65579900  1
  Zn  Zn40  1  0.65436700  0.15436700  0.59318200  1
  Zn  Zn41  1  0.24873500  0.82823400  0.57010900  1
  Zn  Zn42  1  0.75031700  0.93860700  0.68390800  1
  Zn  Zn43  1  0.33568200  0.49464400  0.57396300  1
  Zn  Zn44  1  0.59209300  0.10412100  0.67430100  1
  Zn  Zn45  1  0.36884900  0.19738000  0.70898100  1
  Zn  Zn46  1  0.99382200  0.32570800  0.58478200  1
  Zn  Zn47  1  0.61136100  0.52128000  0.53508800  1
  Zn  Zn48  1  0.71510500  0.69795600  0.51383500  1
  Zn  Zn49  1  0.55841600  0.37012600  0.50245500  1
  Zn  Zn50  1  0.13944800  0.29274900  0.74309600  1
  Zn  Zn51  1  0.97305100  0.81408900  0.61240100  1
  Zn  Zn52  1  0.53435100  0.85762300  0.53056500  1
  Zn  Zn53  1  0.31491100  0.98302500  0.60158200  1
  Zn  Zn54  1  0.91928500  0.76598400  0.69326800  1
  Zn  Zn55  1  0.82943200  0.49499200  0.57399100  1
  Zn  Zn56  1  0.15436700  0.15436700  0.59318200  1
  Zn  Zn57  1  0.43734500  0.28035700  0.66431600  1
  Zn  Zn58  1  0.08714600  0.10248400  0.67443200  1
  Zn  Zn59  1  0.65462300  0.29584500  0.74264100  1
  Zn  Zn60  1  0.87138800  0.02837600  0.52204700  1
  Zn  Zn61  1  0.40411100  0.76288800  0.69372200  1
  Zn  Zn62  1  0.69737200  0.78745300  0.65127600  1
  Zn  Zn63  1  0.22158700  0.20624900  0.51193100  1
  Zn  Zn64  1  0.26847100  0.44671200  0.65610400  1
  Zn  Zn65  1  0.15436700  0.65436700  0.59318200  1
  Zn  Zn66  1  0.71664000  0.20461200  0.51206300  1
  Zn  Zn67  1  0.68988400  0.86135300  0.72738300  1
  Zn  Zn68  1  0.94179800  0.18149100  0.55246900  1
