# generated using pymatgen
data_Mg116Zn199
_symmetry_space_group_name_H-M   'P 1'
_cell_length_a   15.05205970
_cell_length_b   15.53344962
_cell_length_c   44.08704400
_cell_angle_alpha   96.16286714
_cell_angle_beta   84.01794547
_cell_angle_gamma   68.44884142
_symmetry_Int_Tables_number   1
_chemical_formula_structural   Mg116Zn199
_chemical_formula_sum   'Mg116 Zn199'
_cell_volume   9416.24976546
_cell_formula_units_Z   1
loop_
 _symmetry_equiv_pos_site_id
 _symmetry_equiv_pos_as_xyz
  1  'x, y, z'
loop_
 _atom_site_type_symbol
 _atom_site_label
 _atom_site_symmetry_multiplicity
 _atom_site_fract_x
 _atom_site_fract_y
 _atom_site_fract_z
 _atom_site_occupancy
  Mg  Mg0  1  0.79277100  0.14394500  0.24113800  1
  Mg  Mg1  1  0.14604700  0.36338800  0.27418500  1
  Mg  Mg2  1  0.67026200  0.70816600  0.25785500  1
  Mg  Mg3  1  0.96340700  0.12311600  0.27690600  1
  Mg  Mg4  1  0.65531900  0.05551400  0.28094000  1
  Mg  Mg5  1  0.78451000  0.48943100  0.26334700  1
  Mg  Mg6  1  0.16912100  0.00941200  0.25036600  1
  Mg  Mg7  1  0.68066000  0.36111200  0.23466800  1
  Mg  Mg8  1  0.46226600  0.42436300  0.26941800  1
  Mg  Mg9  1  0.45186900  0.77141700  0.29260400  1
  Mg  Mg10  1  0.77070800  0.83794100  0.28648400  1
  Mg  Mg11  1  0.36182000  0.29458800  0.24078900  1
  Mg  Mg12  1  0.34801800  0.64309800  0.26392600  1
  Mg  Mg13  1  0.33975700  0.98858300  0.28613500  1
  Mg  Mg14  1  0.47721000  0.07701400  0.24633300  1
  Mg  Mg15  1  0.98648100  0.76914000  0.25308800  1
  Mg  Mg16  1  0.89277100  0.24394500  0.34113800  1
  Mg  Mg17  1  0.24604700  0.46338800  0.37418500  1
  Mg  Mg18  1  0.77026200  0.80816600  0.35785500  1
  Mg  Mg19  1  0.06340700  0.22311600  0.37690600  1
  Mg  Mg20  1  0.10047500  0.52900100  0.32852800  1
  Mg  Mg21  1  0.75531900  0.15551400  0.38094000  1
  Mg  Mg22  1  0.88451000  0.58943100  0.36334700  1
  Mg  Mg23  1  0.26912100  0.10941200  0.35036600  1
  Mg  Mg24  1  0.78066000  0.46111200  0.33466800  1
  Mg  Mg25  1  0.13205300  0.70352700  0.29874400  1
  Mg  Mg26  1  0.56226600  0.52436300  0.36941800  1
  Mg  Mg27  1  0.55186900  0.87141700  0.39260400  1
  Mg  Mg28  1  0.11818300  0.19966200  0.30194600  1
  Mg  Mg29  1  0.87070800  0.93794100  0.38648400  1
  Mg  Mg30  1  0.46182000  0.39458800  0.34078900  1
  Mg  Mg31  1  0.44801800  0.74309800  0.36392600  1
  Mg  Mg32  1  0.43975700  0.08858300  0.38613500  1
  Mg  Mg33  1  0.57721000  0.17701400  0.34633300  1
  Mg  Mg34  1  0.08648100  0.86914000  0.35308800  1
  Mg  Mg35  1  0.11434600  0.03286600  0.32532700  1
  Mg  Mg36  1  0.99277100  0.34394500  0.44113800  1
  Mg  Mg37  1  0.34604700  0.56338800  0.47418500  1
  Mg  Mg38  1  0.87026200  0.90816600  0.45785500  1
  Mg  Mg39  1  0.16340700  0.32311600  0.47690600  1
  Mg  Mg40  1  0.20047500  0.62900100  0.42852800  1
  Mg  Mg41  1  0.85531900  0.25551400  0.48094000  1
  Mg  Mg42  1  0.98451000  0.68943100  0.46334700  1
  Mg  Mg43  1  0.36912100  0.20941200  0.45036600  1
  Mg  Mg44  1  0.88066000  0.56111200  0.43466800  1
  Mg  Mg45  1  0.23205300  0.80352700  0.39874400  1
  Mg  Mg46  1  0.66226600  0.62436300  0.46941800  1
  Mg  Mg47  1  0.65186900  0.97141700  0.49260400  1
  Mg  Mg48  1  0.21818300  0.29966200  0.40194600  1
  Mg  Mg49  1  0.97070800  0.03794100  0.48648400  1
  Mg  Mg50  1  0.56182000  0.49458800  0.44078900  1
  Mg  Mg51  1  0.54801800  0.84309800  0.46392600  1
  Mg  Mg52  1  0.53975700  0.18858300  0.48613500  1
  Mg  Mg53  1  0.67721000  0.27701400  0.44633300  1
  Mg  Mg54  1  0.18648100  0.96914000  0.45308800  1
  Mg  Mg55  1  0.21434600  0.13286600  0.42532700  1
  Mg  Mg56  1  0.09277100  0.44394500  0.54113800  1
  Mg  Mg57  1  0.44604700  0.66338800  0.57418500  1
  Mg  Mg58  1  0.97026200  0.00816600  0.55785500  1
  Mg  Mg59  1  0.26340700  0.42311600  0.57690600  1
  Mg  Mg60  1  0.30047500  0.72900100  0.52852800  1
  Mg  Mg61  1  0.95531900  0.35551400  0.58094000  1
  Mg  Mg62  1  0.08451000  0.78943100  0.56334700  1
  Mg  Mg63  1  0.46912100  0.30941200  0.55036600  1
  Mg  Mg64  1  0.98066000  0.66111200  0.53466800  1
  Mg  Mg65  1  0.33205300  0.90352700  0.49874400  1
  Mg  Mg66  1  0.76226600  0.72436300  0.56941800  1
  Mg  Mg67  1  0.75186900  0.07141700  0.59260400  1
  Mg  Mg68  1  0.31818300  0.39966200  0.50194600  1
  Mg  Mg69  1  0.07070800  0.13794100  0.58648400  1
  Mg  Mg70  1  0.66182000  0.59458800  0.54078900  1
  Mg  Mg71  1  0.64801800  0.94309800  0.56392600  1
  Mg  Mg72  1  0.63975700  0.28858300  0.58613500  1
  Mg  Mg73  1  0.77721000  0.37701400  0.54633300  1
  Mg  Mg74  1  0.28648100  0.06914000  0.55308800  1
  Mg  Mg75  1  0.31434600  0.23286600  0.52532700  1
  Mg  Mg76  1  0.19277100  0.54394500  0.64113800  1
  Mg  Mg77  1  0.54604700  0.76338800  0.67418500  1
  Mg  Mg78  1  0.07026200  0.10816600  0.65785500  1
  Mg  Mg79  1  0.36340700  0.52311600  0.67690600  1
  Mg  Mg80  1  0.40047500  0.82900100  0.62852800  1
  Mg  Mg81  1  0.05531900  0.45551400  0.68094000  1
  Mg  Mg82  1  0.18451000  0.88943100  0.66334700  1
  Mg  Mg83  1  0.56912100  0.40941200  0.65036600  1
  Mg  Mg84  1  0.08066000  0.76111200  0.63466800  1
  Mg  Mg85  1  0.43205300  0.00352700  0.59874400  1
  Mg  Mg86  1  0.86226600  0.82436300  0.66941800  1
  Mg  Mg87  1  0.85186900  0.17141700  0.69260400  1
  Mg  Mg88  1  0.41818300  0.49966200  0.60194600  1
  Mg  Mg89  1  0.17070800  0.23794100  0.68648400  1
  Mg  Mg90  1  0.76182000  0.69458800  0.64078900  1
  Mg  Mg91  1  0.74801800  0.04309800  0.66392600  1
  Mg  Mg92  1  0.73975700  0.38858300  0.68613500  1
  Mg  Mg93  1  0.87721000  0.47701400  0.64633300  1
  Mg  Mg94  1  0.38648100  0.16914000  0.65308800  1
  Mg  Mg95  1  0.41434600  0.33286600  0.62532700  1
  Mg  Mg96  1  0.29277100  0.64394500  0.74113800  1
  Mg  Mg97  1  0.64604700  0.86338800  0.77418500  1
  Mg  Mg98  1  0.17026200  0.20816600  0.75785500  1
  Mg  Mg99  1  0.46340700  0.62311600  0.77690600  1
  Mg  Mg100  1  0.50047500  0.92900100  0.72852800  1
  Mg  Mg101  1  0.15531900  0.55551400  0.78094000  1
  Mg  Mg102  1  0.28451000  0.98943100  0.76334700  1
  Mg  Mg103  1  0.66912100  0.50941200  0.75036600  1
  Mg  Mg104  1  0.18066000  0.86111200  0.73466800  1
  Mg  Mg105  1  0.53205300  0.10352700  0.69874400  1
  Mg  Mg106  1  0.96226600  0.92436300  0.76941800  1
  Mg  Mg107  1  0.95186900  0.27141700  0.79260400  1
  Mg  Mg108  1  0.51818300  0.59966200  0.70194600  1
  Mg  Mg109  1  0.27070800  0.33794100  0.78648400  1
  Mg  Mg110  1  0.86182000  0.79458800  0.74078900  1
  Mg  Mg111  1  0.84801800  0.14309800  0.76392600  1
  Mg  Mg112  1  0.83975700  0.48858300  0.78613500  1
  Mg  Mg113  1  0.97721000  0.57701400  0.74633300  1
  Mg  Mg114  1  0.48648100  0.26914000  0.75308800  1
  Mg  Mg115  1  0.51434600  0.43286600  0.72532700  1
  Zn  Zn116  1  0.94690800  0.50541300  0.29507400  1
  Zn  Zn117  1  0.07832400  0.22517900  0.23993900  1
  Zn  Zn118  1  0.18905700  0.79601400  0.24169700  1
  Zn  Zn119  1  0.89647200  0.28664300  0.23448400  1
  Zn  Zn120  1  0.56626400  0.56626400  0.26363600  1
  Zn  Zn121  1  0.18562100  0.62711600  0.23219800  1
  Zn  Zn122  1  0.47135800  0.23348400  0.29376200  1
  Zn  Zn123  1  0.88131900  0.63713800  0.25763300  1
  Zn  Zn124  1  0.62461300  0.26926400  0.29111200  1
  Zn  Zn125  1  0.05420500  0.90735000  0.28733400  1
  Zn  Zn126  1  0.66117100  0.89904400  0.23351000  1
  Zn  Zn127  1  0.82219700  0.93424400  0.23127300  1
  Zn  Zn128  1  0.25121000  0.49539000  0.26963900  1
  Zn  Zn129  1  0.23605600  0.84588500  0.29278900  1
  Zn  Zn130  1  0.31033100  0.19828500  0.29600000  1
  Zn  Zn131  1  0.78671900  0.30505700  0.28696600  1
  Zn  Zn132  1  0.57379300  0.21942200  0.24179700  1
  Zn  Zn133  1  0.87292100  0.98414400  0.27935500  1
  Zn  Zn134  1  0.34580900  0.82747200  0.24030600  1
  Zn  Zn135  1  0.25960800  0.14838400  0.24791800  1
  Zn  Zn136  1  0.55873500  0.91310600  0.28547600  1
  Zn  Zn137  1  0.94347200  0.33651400  0.28557600  1
  Zn  Zn138  1  0.06626400  0.56626400  0.26363600  1
  Zn  Zn139  1  0.50791500  0.86326500  0.23616100  1
  Zn  Zn140  1  0.04690800  0.60541300  0.39507400  1
  Zn  Zn141  1  0.17832400  0.32517900  0.33993900  1
  Zn  Zn142  1  0.61945100  0.44301000  0.30323500  1
  Zn  Zn143  1  0.28905700  0.89601400  0.34169700  1
  Zn  Zn144  1  0.30023700  0.54490700  0.31904400  1
  Zn  Zn145  1  0.99647200  0.38664300  0.33448400  1
  Zn  Zn146  1  0.66626400  0.66626400  0.36363600  1
  Zn  Zn147  1  0.28562100  0.72711600  0.33219800  1
  Zn  Zn148  1  0.57135800  0.33348400  0.39376200  1
  Zn  Zn149  1  0.98131900  0.73713800  0.35763300  1
  Zn  Zn150  1  0.72461300  0.36926400  0.39111200  1
  Zn  Zn151  1  0.77248700  0.15047800  0.31104700  1
  Zn  Zn152  1  0.77644600  0.64710600  0.31087700  1
  Zn  Zn153  1  0.93107300  0.85463200  0.31962700  1
  Zn  Zn154  1  0.15420500  0.00735000  0.38733400  1
  Zn  Zn155  1  0.76117100  0.99904400  0.33351000  1
  Zn  Zn156  1  0.92219700  0.03424400  0.33127300  1
  Zn  Zn157  1  0.35121000  0.59539000  0.36963900  1
  Zn  Zn158  1  0.33605600  0.94588500  0.39278900  1
  Zn  Zn159  1  0.45608300  0.58542300  0.31639600  1
  Zn  Zn160  1  0.41033100  0.29828500  0.39600000  1
  Zn  Zn161  1  0.93229200  0.68762100  0.30822900  1
  Zn  Zn162  1  0.61626400  0.61626400  0.31363600  1
  Zn  Zn163  1  0.88671900  0.40505700  0.38696600  1
  Zn  Zn164  1  0.67379300  0.31942200  0.34179700  1
  Zn  Zn165  1  0.97292100  0.08414400  0.37935500  1
  Zn  Zn166  1  0.44580900  0.92747200  0.34030600  1
  Zn  Zn167  1  0.35960800  0.24838400  0.34791800  1
  Zn  Zn168  1  0.30145500  0.37789700  0.30764600  1
  Zn  Zn169  1  0.65873500  0.01310600  0.38547600  1
  Zn  Zn170  1  0.04347200  0.43651400  0.38557600  1
  Zn  Zn171  1  0.16626400  0.66626400  0.36363600  1
  Zn  Zn172  1  0.60791500  0.96326500  0.33616100  1
  Zn  Zn173  1  0.46004200  0.08205000  0.31622600  1
  Zn  Zn174  1  0.61307700  0.78951800  0.32403800  1
  Zn  Zn175  1  0.14690800  0.70541300  0.49507400  1
  Zn  Zn176  1  0.27832400  0.42517900  0.43993900  1
  Zn  Zn177  1  0.71945100  0.54301000  0.40323500  1
  Zn  Zn178  1  0.38905700  0.99601400  0.44169700  1
  Zn  Zn179  1  0.40023700  0.64490700  0.41904400  1
  Zn  Zn180  1  0.09647200  0.48664300  0.43448400  1
  Zn  Zn181  1  0.76626400  0.76626400  0.46363600  1
  Zn  Zn182  1  0.38562100  0.82711600  0.43219800  1
  Zn  Zn183  1  0.67135800  0.43348400  0.49376200  1
  Zn  Zn184  1  0.08131900  0.83713800  0.45763300  1
  Zn  Zn185  1  0.82461300  0.46926400  0.49111200  1
  Zn  Zn186  1  0.87248700  0.25047800  0.41104700  1
  Zn  Zn187  1  0.87644600  0.74710600  0.41087700  1
  Zn  Zn188  1  0.03107300  0.95463200  0.41962700  1
  Zn  Zn189  1  0.25420500  0.10735000  0.48733400  1
  Zn  Zn190  1  0.86117100  0.09904400  0.43351000  1
  Zn  Zn191  1  0.02219700  0.13424400  0.43127300  1
  Zn  Zn192  1  0.45121000  0.69539000  0.46963900  1
  Zn  Zn193  1  0.43605600  0.04588500  0.49278900  1
  Zn  Zn194  1  0.55608300  0.68542300  0.41639600  1
  Zn  Zn195  1  0.51033100  0.39828500  0.49600000  1
  Zn  Zn196  1  0.03229200  0.78762100  0.40822900  1
  Zn  Zn197  1  0.71626400  0.71626400  0.41363600  1
  Zn  Zn198  1  0.98671900  0.50505700  0.48696600  1
  Zn  Zn199  1  0.77379300  0.41942200  0.44179700  1
  Zn  Zn200  1  0.07292100  0.18414400  0.47935500  1
  Zn  Zn201  1  0.54580900  0.02747200  0.44030600  1
  Zn  Zn202  1  0.45960800  0.34838400  0.44791800  1
  Zn  Zn203  1  0.40145500  0.47789700  0.40764600  1
  Zn  Zn204  1  0.75873500  0.11310600  0.48547600  1
  Zn  Zn205  1  0.14347200  0.53651400  0.48557600  1
  Zn  Zn206  1  0.26626400  0.76626400  0.46363600  1
  Zn  Zn207  1  0.70791500  0.06326500  0.43616100  1
  Zn  Zn208  1  0.56004200  0.18205000  0.41622600  1
  Zn  Zn209  1  0.71307700  0.88951800  0.42403800  1
  Zn  Zn210  1  0.24690800  0.80541300  0.59507400  1
  Zn  Zn211  1  0.37832400  0.52517900  0.53993900  1
  Zn  Zn212  1  0.81945100  0.64301000  0.50323500  1
  Zn  Zn213  1  0.48905700  0.09601400  0.54169700  1
  Zn  Zn214  1  0.50023700  0.74490700  0.51904400  1
  Zn  Zn215  1  0.19647200  0.58664300  0.53448400  1
  Zn  Zn216  1  0.86626400  0.86626400  0.56363600  1
  Zn  Zn217  1  0.48562100  0.92711600  0.53219800  1
  Zn  Zn218  1  0.77135800  0.53348400  0.59376200  1
  Zn  Zn219  1  0.18131900  0.93713800  0.55763300  1
  Zn  Zn220  1  0.92461300  0.56926400  0.59111200  1
  Zn  Zn221  1  0.97248700  0.35047800  0.51104700  1
  Zn  Zn222  1  0.97644600  0.84710600  0.51087700  1
  Zn  Zn223  1  0.13107300  0.05463200  0.51962700  1
  Zn  Zn224  1  0.35420500  0.20735000  0.58733400  1
  Zn  Zn225  1  0.96117100  0.19904400  0.53351000  1
  Zn  Zn226  1  0.12219700  0.23424400  0.53127300  1
  Zn  Zn227  1  0.55121000  0.79539000  0.56963900  1
  Zn  Zn228  1  0.53605600  0.14588500  0.59278900  1
  Zn  Zn229  1  0.65608300  0.78542300  0.51639600  1
  Zn  Zn230  1  0.61033100  0.49828500  0.59600000  1
  Zn  Zn231  1  0.13229200  0.88762100  0.50822900  1
  Zn  Zn232  1  0.81626400  0.81626400  0.51363600  1
  Zn  Zn233  1  0.08671900  0.60505700  0.58696600  1
  Zn  Zn234  1  0.87379300  0.51942200  0.54179700  1
  Zn  Zn235  1  0.17292100  0.28414400  0.57935500  1
  Zn  Zn236  1  0.64580900  0.12747200  0.54030600  1
  Zn  Zn237  1  0.55960800  0.44838400  0.54791800  1
  Zn  Zn238  1  0.50145500  0.57789700  0.50764600  1
  Zn  Zn239  1  0.85873500  0.21310600  0.58547600  1
  Zn  Zn240  1  0.24347200  0.63651400  0.58557600  1
  Zn  Zn241  1  0.36626400  0.86626400  0.56363600  1
  Zn  Zn242  1  0.80791500  0.16326500  0.53616100  1
  Zn  Zn243  1  0.66004200  0.28205000  0.51622600  1
  Zn  Zn244  1  0.81307700  0.98951800  0.52403800  1
  Zn  Zn245  1  0.34690800  0.90541300  0.69507400  1
  Zn  Zn246  1  0.47832400  0.62517900  0.63993900  1
  Zn  Zn247  1  0.91945100  0.74301000  0.60323500  1
  Zn  Zn248  1  0.58905700  0.19601400  0.64169700  1
  Zn  Zn249  1  0.60023700  0.84490700  0.61904400  1
  Zn  Zn250  1  0.29647200  0.68664300  0.63448400  1
  Zn  Zn251  1  0.96626400  0.96626400  0.66363600  1
  Zn  Zn252  1  0.58562100  0.02711600  0.63219800  1
  Zn  Zn253  1  0.87135800  0.63348400  0.69376200  1
  Zn  Zn254  1  0.28131900  0.03713800  0.65763300  1
  Zn  Zn255  1  0.02461300  0.66926400  0.69111200  1
  Zn  Zn256  1  0.07248700  0.45047800  0.61104700  1
  Zn  Zn257  1  0.07644600  0.94710600  0.61087700  1
  Zn  Zn258  1  0.23107300  0.15463200  0.61962700  1
  Zn  Zn259  1  0.45420500  0.30735000  0.68733400  1
  Zn  Zn260  1  0.06117100  0.29904400  0.63351000  1
  Zn  Zn261  1  0.22219700  0.33424400  0.63127300  1
  Zn  Zn262  1  0.65121000  0.89539000  0.66963900  1
  Zn  Zn263  1  0.63605600  0.24588500  0.69278900  1
  Zn  Zn264  1  0.75608300  0.88542300  0.61639600  1
  Zn  Zn265  1  0.71033100  0.59828500  0.69600000  1
  Zn  Zn266  1  0.23229200  0.98762100  0.60822900  1
  Zn  Zn267  1  0.91626400  0.91626400  0.61363600  1
  Zn  Zn268  1  0.18671900  0.70505700  0.68696600  1
  Zn  Zn269  1  0.97379300  0.61942200  0.64179700  1
  Zn  Zn270  1  0.27292100  0.38414400  0.67935500  1
  Zn  Zn271  1  0.74580900  0.22747200  0.64030600  1
  Zn  Zn272  1  0.65960800  0.54838400  0.64791800  1
  Zn  Zn273  1  0.60145500  0.67789700  0.60764600  1
  Zn  Zn274  1  0.95873500  0.31310600  0.68547600  1
  Zn  Zn275  1  0.34347200  0.73651400  0.68557600  1
  Zn  Zn276  1  0.46626400  0.96626400  0.66363600  1
  Zn  Zn277  1  0.90791500  0.26326500  0.63616100  1
  Zn  Zn278  1  0.76004200  0.38205000  0.61622600  1
  Zn  Zn279  1  0.91307700  0.08951800  0.62403800  1
  Zn  Zn280  1  0.44690800  0.00541300  0.79507400  1
  Zn  Zn281  1  0.57832400  0.72517900  0.73993900  1
  Zn  Zn282  1  0.01945100  0.84301000  0.70323500  1
  Zn  Zn283  1  0.68905700  0.29601400  0.74169700  1
  Zn  Zn284  1  0.70023700  0.94490700  0.71904400  1
  Zn  Zn285  1  0.39647200  0.78664300  0.73448400  1
  Zn  Zn286  1  0.06626400  0.06626400  0.76363600  1
  Zn  Zn287  1  0.68562100  0.12711600  0.73219800  1
  Zn  Zn288  1  0.97135800  0.73348400  0.79376200  1
  Zn  Zn289  1  0.38131900  0.13713800  0.75763300  1
  Zn  Zn290  1  0.12461300  0.76926400  0.79111200  1
  Zn  Zn291  1  0.17248700  0.55047800  0.71104700  1
  Zn  Zn292  1  0.17644600  0.04710600  0.71087700  1
  Zn  Zn293  1  0.33107300  0.25463200  0.71962700  1
  Zn  Zn294  1  0.55420500  0.40735000  0.78733400  1
  Zn  Zn295  1  0.16117100  0.39904400  0.73351000  1
  Zn  Zn296  1  0.32219700  0.43424400  0.73127300  1
  Zn  Zn297  1  0.75121000  0.99539000  0.76963900  1
  Zn  Zn298  1  0.73605600  0.34588500  0.79278900  1
  Zn  Zn299  1  0.85608300  0.98542300  0.71639600  1
  Zn  Zn300  1  0.81033100  0.69828500  0.79600000  1
  Zn  Zn301  1  0.33229200  0.08762100  0.70822900  1
  Zn  Zn302  1  0.01626400  0.01626400  0.71363600  1
  Zn  Zn303  1  0.28671900  0.80505700  0.78696600  1
  Zn  Zn304  1  0.07379300  0.71942200  0.74179700  1
  Zn  Zn305  1  0.37292100  0.48414400  0.77935500  1
  Zn  Zn306  1  0.84580900  0.32747200  0.74030600  1
  Zn  Zn307  1  0.75960800  0.64838400  0.74791800  1
  Zn  Zn308  1  0.70145500  0.77789700  0.70764600  1
  Zn  Zn309  1  0.05873500  0.41310600  0.78547600  1
  Zn  Zn310  1  0.44347200  0.83651400  0.78557600  1
  Zn  Zn311  1  0.56626400  0.06626400  0.76363600  1
  Zn  Zn312  1  0.00791500  0.36326500  0.73616100  1
  Zn  Zn313  1  0.86004200  0.48205000  0.71622600  1
  Zn  Zn314  1  0.01307700  0.18951800  0.72403800  1
