# generated using pymatgen
data_Mg81Pd32
_symmetry_space_group_name_H-M   'P 1'
_cell_length_a   8.83883700
_cell_length_b   11.93708038
_cell_length_c   44.35540600
_cell_angle_alpha   87.49946255
_cell_angle_beta   90.00000000
_cell_angle_gamma   68.27044156
_symmetry_Int_Tables_number   1
_chemical_formula_structural   Mg81Pd32
_chemical_formula_sum   'Mg81 Pd32'
_cell_volume   4342.58916709
_cell_formula_units_Z   1
loop_
 _symmetry_equiv_pos_site_id
 _symmetry_equiv_pos_as_xyz
  1  'x, y, z'
loop_
 _atom_site_type_symbol
 _atom_site_label
 _atom_site_symmetry_multiplicity
 _atom_site_fract_x
 _atom_site_fract_y
 _atom_site_fract_z
 _atom_site_occupancy
  Mg  Mg0  1  0.75653800  0.48692300  0.31026800  1
  Mg  Mg1  1  0.18747500  0.05040100  0.40325000  1
  Mg  Mg2  1  0.86846200  0.26307700  0.35008100  1
  Mg  Mg3  1  0.76212400  0.05040100  0.40325000  1
  Mg  Mg4  1  0.07560200  0.42344500  0.34228600  1
  Mg  Mg5  1  0.39461500  0.21077000  0.39545500  1
  Mg  Mg6  1  0.50095300  0.42344500  0.34228600  1
  Mg  Mg7  1  0.98289900  0.60885200  0.38863700  1
  Mg  Mg8  1  0.55191200  0.89617600  0.31680600  1
  Mg  Mg9  1  0.40824900  0.60885200  0.38863700  1
  Mg  Mg10  1  0.28017800  0.86499500  0.35689800  1
  Mg  Mg11  1  0.71116500  0.57767000  0.42873000  1
  Mg  Mg12  1  0.85482700  0.86499500  0.35689800  1
  Mg  Mg13  1  0.62581600  0.13141500  0.33664500  1
  Mg  Mg14  1  0.08853000  0.82293900  0.41376400  1
  Mg  Mg15  1  0.24276800  0.13141500  0.33664500  1
  Mg  Mg16  1  0.63726000  0.34243100  0.40889100  1
  Mg  Mg17  1  0.17454600  0.65090700  0.33177200  1
  Mg  Mg18  1  0.02030800  0.34243100  0.40889100  1
  Mg  Mg19  1  0.50653800  0.98692300  0.43526800  1
  Mg  Mg20  1  0.63153800  0.73692300  0.37276800  1
  Mg  Mg21  1  0.93747500  0.55040100  0.52825000  1
  Mg  Mg22  1  0.61846200  0.76307700  0.47508100  1
  Mg  Mg23  1  0.51212400  0.55040100  0.52825000  1
  Mg  Mg24  1  0.82560200  0.92344500  0.46728600  1
  Mg  Mg25  1  0.14461500  0.71077000  0.52045500  1
  Mg  Mg26  1  0.25095300  0.92344500  0.46728600  1
  Mg  Mg27  1  0.73289900  0.10885200  0.51363700  1
  Mg  Mg28  1  0.30191200  0.39617600  0.44180600  1
  Mg  Mg29  1  0.15824900  0.10885200  0.51363700  1
  Mg  Mg30  1  0.03017800  0.36499500  0.48189800  1
  Mg  Mg31  1  0.46116500  0.07767000  0.55373000  1
  Mg  Mg32  1  0.60482700  0.36499500  0.48189800  1
  Mg  Mg33  1  0.37581600  0.63141500  0.46164500  1
  Mg  Mg34  1  0.83853000  0.32293900  0.53876400  1
  Mg  Mg35  1  0.99276800  0.63141500  0.46164500  1
  Mg  Mg36  1  0.38726000  0.84243100  0.53389100  1
  Mg  Mg37  1  0.92454600  0.15090700  0.45677200  1
  Mg  Mg38  1  0.77030800  0.84243100  0.53389100  1
  Mg  Mg39  1  0.25653800  0.48692300  0.56026800  1
  Mg  Mg40  1  0.38153800  0.23692300  0.49776800  1
  Mg  Mg41  1  0.68747500  0.05040100  0.65325000  1
  Mg  Mg42  1  0.36846200  0.26307700  0.60008100  1
  Mg  Mg43  1  0.26212400  0.05040100  0.65325000  1
  Mg  Mg44  1  0.57560200  0.42344500  0.59228600  1
  Mg  Mg45  1  0.89461500  0.21077000  0.64545500  1
  Mg  Mg46  1  0.00095300  0.42344500  0.59228600  1
  Mg  Mg47  1  0.48289900  0.60885200  0.63863700  1
  Mg  Mg48  1  0.05191200  0.89617600  0.56680600  1
  Mg  Mg49  1  0.90824900  0.60885200  0.63863700  1
  Mg  Mg50  1  0.78017800  0.86499500  0.60689800  1
  Mg  Mg51  1  0.21116500  0.57767000  0.67873000  1
  Mg  Mg52  1  0.35482700  0.86499500  0.60689800  1
  Mg  Mg53  1  0.12581600  0.13141500  0.58664500  1
  Mg  Mg54  1  0.58853000  0.82293900  0.66376400  1
  Mg  Mg55  1  0.74276800  0.13141500  0.58664500  1
  Mg  Mg56  1  0.13726000  0.34243100  0.65889100  1
  Mg  Mg57  1  0.67454600  0.65090700  0.58177200  1
  Mg  Mg58  1  0.52030800  0.34243100  0.65889100  1
  Mg  Mg59  1  0.00653800  0.98692300  0.68526800  1
  Mg  Mg60  1  0.13153800  0.73692300  0.62276800  1
  Mg  Mg61  1  0.43747500  0.55040100  0.77825000  1
  Mg  Mg62  1  0.11846200  0.76307700  0.72508100  1
  Mg  Mg63  1  0.01212400  0.55040100  0.77825000  1
  Mg  Mg64  1  0.32560200  0.92344500  0.71728600  1
  Mg  Mg65  1  0.64461500  0.71077000  0.77045500  1
  Mg  Mg66  1  0.75095300  0.92344500  0.71728600  1
  Mg  Mg67  1  0.23289900  0.10885200  0.76363700  1
  Mg  Mg68  1  0.80191200  0.39617600  0.69180600  1
  Mg  Mg69  1  0.65824900  0.10885200  0.76363700  1
  Mg  Mg70  1  0.53017800  0.36499500  0.73189800  1
  Mg  Mg71  1  0.96116500  0.07767000  0.80373000  1
  Mg  Mg72  1  0.10482700  0.36499500  0.73189800  1
  Mg  Mg73  1  0.87581600  0.63141500  0.71164500  1
  Mg  Mg74  1  0.33853000  0.32293900  0.78876400  1
  Mg  Mg75  1  0.49276800  0.63141500  0.71164500  1
  Mg  Mg76  1  0.88726000  0.84243100  0.78389100  1
  Mg  Mg77  1  0.42454600  0.15090700  0.70677200  1
  Mg  Mg78  1  0.27030800  0.84243100  0.78389100  1
  Mg  Mg79  1  0.75653800  0.48692300  0.81026800  1
  Mg  Mg80  1  0.88153800  0.23692300  0.74776800  1
  Pd  Pd81  1  0.78704700  0.79963500  0.41959000  1
  Pd  Pd82  1  0.50675000  0.98650000  0.37287400  1
  Pd  Pd83  1  0.41331800  0.79963500  0.41959000  1
  Pd  Pd84  1  0.47602900  0.67421200  0.32594600  1
  Pd  Pd85  1  0.75632700  0.48734700  0.37266200  1
  Pd  Pd86  1  0.84975900  0.67421200  0.32594600  1
  Pd  Pd87  1  0.98570500  0.02859000  0.36235100  1
  Pd  Pd88  1  0.27737200  0.44525700  0.38318500  1
  Pd  Pd89  1  0.53704700  0.29963500  0.54459000  1
  Pd  Pd90  1  0.25675000  0.48650000  0.49787400  1
  Pd  Pd91  1  0.16331800  0.29963500  0.54459000  1
  Pd  Pd92  1  0.22602900  0.17421200  0.45094600  1
  Pd  Pd93  1  0.50632700  0.98734700  0.49766200  1
  Pd  Pd94  1  0.59975900  0.17421200  0.45094600  1
  Pd  Pd95  1  0.73570500  0.52859000  0.48735100  1
  Pd  Pd96  1  0.02737200  0.94525700  0.50818500  1
  Pd  Pd97  1  0.28704700  0.79963500  0.66959000  1
  Pd  Pd98  1  0.00675000  0.98650000  0.62287400  1
  Pd  Pd99  1  0.91331800  0.79963500  0.66959000  1
  Pd  Pd100  1  0.97602900  0.67421200  0.57594600  1
  Pd  Pd101  1  0.25632700  0.48734700  0.62266200  1
  Pd  Pd102  1  0.34975900  0.67421200  0.57594600  1
  Pd  Pd103  1  0.48570500  0.02859000  0.61235100  1
  Pd  Pd104  1  0.77737200  0.44525700  0.63318500  1
  Pd  Pd105  1  0.03704700  0.29963500  0.79459000  1
  Pd  Pd106  1  0.75675000  0.48650000  0.74787400  1
  Pd  Pd107  1  0.66331800  0.29963500  0.79459000  1
  Pd  Pd108  1  0.72602900  0.17421200  0.70094600  1
  Pd  Pd109  1  0.00632700  0.98734700  0.74766200  1
  Pd  Pd110  1  0.09975900  0.17421200  0.70094600  1
  Pd  Pd111  1  0.23570500  0.52859000  0.73735100  1
  Pd  Pd112  1  0.52737200  0.94525700  0.75818500  1
