# generated using pymatgen
data_Ca7Mg3
_symmetry_space_group_name_H-M   'P 1'
_cell_length_a   4.03063351
_cell_length_b   7.27631031
_cell_length_c   44.94231300
_cell_angle_alpha   91.17661978
_cell_angle_beta   90.08571697
_cell_angle_gamma   105.80411373
_symmetry_Int_Tables_number   1
_chemical_formula_structural   Ca7Mg3
_chemical_formula_sum   'Ca14 Mg6'
_cell_volume   1267.94734783
_cell_formula_units_Z   2
loop_
 _symmetry_equiv_pos_site_id
 _symmetry_equiv_pos_as_xyz
  1  'x, y, z'
loop_
 _atom_site_type_symbol
 _atom_site_label
 _atom_site_symmetry_multiplicity
 _atom_site_fract_x
 _atom_site_fract_y
 _atom_site_fract_z
 _atom_site_occupancy
  Ca  Ca0  1  0.39737600  0.38209100  0.25164700  1
  Ca  Ca1  1  0.13040200  0.84342700  0.27613100  1
  Ca  Ca2  1  0.48071000  0.54875800  0.33498000  1
  Ca  Ca3  1  0.21373500  0.01009400  0.35946500  1
  Ca  Ca4  1  0.56404300  0.71542400  0.41831300  1
  Ca  Ca5  1  0.29706800  0.17676000  0.44279800  1
  Ca  Ca6  1  0.64737600  0.88209100  0.50164700  1
  Ca  Ca7  1  0.38040200  0.34342700  0.52613100  1
  Ca  Ca8  1  0.73071000  0.04875800  0.58498000  1
  Ca  Ca9  1  0.46373500  0.51009400  0.60946500  1
  Ca  Ca10  1  0.81404300  0.21542400  0.66831300  1
  Ca  Ca11  1  0.54706800  0.67676000  0.69279800  1
  Ca  Ca12  1  0.89737600  0.38209100  0.75164700  1
  Ca  Ca13  1  0.63040200  0.84342700  0.77613100  1
  Mg  Mg14  1  0.80555600  0.19609200  0.30555600  1
  Mg  Mg15  1  0.88888900  0.36275900  0.38888900  1
  Mg  Mg16  1  0.97222200  0.52942600  0.47222200  1
  Mg  Mg17  1  0.05555600  0.69609200  0.55555600  1
  Mg  Mg18  1  0.13888900  0.86275900  0.63888900  1
  Mg  Mg19  1  0.22222200  0.02942600  0.72222200  1
