# generated using pymatgen
data_Mg59Zn103
_symmetry_space_group_name_H-M   'P 1'
_cell_length_a   13.26606255
_cell_length_b   15.58232770
_cell_length_c   46.38065300
_cell_angle_alpha   94.29618326
_cell_angle_beta   88.49627591
_cell_angle_gamma   99.94210053
_symmetry_Int_Tables_number   1
_chemical_formula_structural   Mg59Zn103
_chemical_formula_sum   'Mg118 Zn206'
_cell_volume   9416.24935325
_cell_formula_units_Z   2
loop_
 _symmetry_equiv_pos_site_id
 _symmetry_equiv_pos_as_xyz
  1  'x, y, z'
loop_
 _atom_site_type_symbol
 _atom_site_label
 _atom_site_symmetry_multiplicity
 _atom_site_fract_x
 _atom_site_fract_y
 _atom_site_fract_z
 _atom_site_occupancy
  Mg  Mg0  1  0.72478800  0.87560300  0.22210800  1
  Mg  Mg1  1  0.04736600  0.69155700  0.21975800  1
  Mg  Mg2  1  0.59785700  0.34039500  0.20981200  1
  Mg  Mg3  1  0.79759200  0.87013700  0.28417200  1
  Mg  Mg4  1  0.91405700  0.54689300  0.25315300  1
  Mg  Mg5  1  0.54396400  0.00026600  0.22567800  1
  Mg  Mg6  1  0.67813600  0.53614500  0.23829000  1
  Mg  Mg7  1  0.10909800  0.03655300  0.20491900  1
  Mg  Mg8  1  0.54684000  0.57966100  0.29441400  1
  Mg  Mg9  1  0.99263300  0.35979700  0.23593800  1
  Mg  Mg10  1  0.30883200  0.56629400  0.27927900  1
  Mg  Mg11  1  0.25985000  0.22702900  0.29467700  1
  Mg  Mg12  1  0.97564200  0.86694500  0.23585700  1
  Mg  Mg13  1  0.62571400  0.19528900  0.25377300  1
  Mg  Mg14  1  0.28097500  0.71140100  0.23531800  1
  Mg  Mg15  1  0.22855400  0.37054500  0.25080100  1
  Mg  Mg16  1  0.18190200  0.03108700  0.26698300  1
  Mg  Mg17  1  0.36272600  0.90642400  0.26341300  1
  Mg  Mg18  1  0.85932300  0.21513300  0.26933300  1
  Mg  Mg19  1  0.93104800  0.03974500  0.25323400  1
  Mg  Mg20  1  0.62478800  0.77560300  0.32210800  1
  Mg  Mg21  1  0.94736600  0.59155700  0.31975800  1
  Mg  Mg22  1  0.49785700  0.24039500  0.30981200  1
  Mg  Mg23  1  0.69759200  0.77013700  0.38417200  1
  Mg  Mg24  1  0.81405700  0.44689300  0.35315300  1
  Mg  Mg25  1  0.44396400  0.90026600  0.32567800  1
  Mg  Mg26  1  0.57813600  0.43614500  0.33829000  1
  Mg  Mg27  1  0.00909800  0.93655300  0.30491900  1
  Mg  Mg28  1  0.44684000  0.47966100  0.39441400  1
  Mg  Mg29  1  0.89263300  0.25979700  0.33593800  1
  Mg  Mg30  1  0.20883200  0.46629400  0.37927900  1
  Mg  Mg31  1  0.15985000  0.12702900  0.39467700  1
  Mg  Mg32  1  0.87564200  0.76694500  0.33585700  1
  Mg  Mg33  1  0.52571400  0.09528900  0.35377300  1
  Mg  Mg34  1  0.18097500  0.61140100  0.33531800  1
  Mg  Mg35  1  0.12855400  0.27054500  0.35080100  1
  Mg  Mg36  1  0.08190200  0.93108700  0.36698300  1
  Mg  Mg37  1  0.26272600  0.80642400  0.36341300  1
  Mg  Mg38  1  0.75932300  0.11513300  0.36933300  1
  Mg  Mg39  1  0.83104800  0.93974500  0.35323400  1
  Mg  Mg40  1  0.52478800  0.67560300  0.42210800  1
  Mg  Mg41  1  0.84736600  0.49155700  0.41975800  1
  Mg  Mg42  1  0.39785700  0.14039500  0.40981200  1
  Mg  Mg43  1  0.59759200  0.67013700  0.48417200  1
  Mg  Mg44  1  0.71405700  0.34689300  0.45315300  1
  Mg  Mg45  1  0.34396400  0.80026600  0.42567800  1
  Mg  Mg46  1  0.47813600  0.33614500  0.43829000  1
  Mg  Mg47  1  0.90909800  0.83655300  0.40491900  1
  Mg  Mg48  1  0.34684000  0.37966100  0.49441400  1
  Mg  Mg49  1  0.79263300  0.15979700  0.43593800  1
  Mg  Mg50  1  0.10883200  0.36629400  0.47927900  1
  Mg  Mg51  1  0.05985000  0.02702900  0.49467700  1
  Mg  Mg52  1  0.77564200  0.66694500  0.43585700  1
  Mg  Mg53  1  0.42571400  0.99528900  0.45377300  1
  Mg  Mg54  1  0.08097500  0.51140100  0.43531800  1
  Mg  Mg55  1  0.02855400  0.17054500  0.45080100  1
  Mg  Mg56  1  0.98190200  0.83108700  0.46698300  1
  Mg  Mg57  1  0.16272600  0.70642400  0.46341300  1
  Mg  Mg58  1  0.65932300  0.01513300  0.46933300  1
  Mg  Mg59  1  0.73104800  0.83974500  0.45323400  1
  Mg  Mg60  1  0.42478800  0.57560300  0.52210800  1
  Mg  Mg61  1  0.74736600  0.39155700  0.51975800  1
  Mg  Mg62  1  0.29785700  0.04039500  0.50981200  1
  Mg  Mg63  1  0.49759200  0.57013700  0.58417200  1
  Mg  Mg64  1  0.61405700  0.24689300  0.55315300  1
  Mg  Mg65  1  0.24396400  0.70026600  0.52567800  1
  Mg  Mg66  1  0.37813600  0.23614500  0.53829000  1
  Mg  Mg67  1  0.80909800  0.73655300  0.50491900  1
  Mg  Mg68  1  0.24684000  0.27966100  0.59441400  1
  Mg  Mg69  1  0.69263300  0.05979700  0.53593800  1
  Mg  Mg70  1  0.00883200  0.26629400  0.57927900  1
  Mg  Mg71  1  0.95985000  0.92702900  0.59467700  1
  Mg  Mg72  1  0.67564200  0.56694500  0.53585700  1
  Mg  Mg73  1  0.32571400  0.89528900  0.55377300  1
  Mg  Mg74  1  0.98097500  0.41140100  0.53531800  1
  Mg  Mg75  1  0.92855400  0.07054500  0.55080100  1
  Mg  Mg76  1  0.88190200  0.73108700  0.56698300  1
  Mg  Mg77  1  0.06272600  0.60642400  0.56341300  1
  Mg  Mg78  1  0.55932300  0.91513300  0.56933300  1
  Mg  Mg79  1  0.63104800  0.73974500  0.55323400  1
  Mg  Mg80  1  0.32478800  0.47560300  0.62210800  1
  Mg  Mg81  1  0.64736600  0.29155700  0.61975800  1
  Mg  Mg82  1  0.19785700  0.94039500  0.60981200  1
  Mg  Mg83  1  0.39759200  0.47013700  0.68417200  1
  Mg  Mg84  1  0.51405700  0.14689300  0.65315300  1
  Mg  Mg85  1  0.14396400  0.60026600  0.62567800  1
  Mg  Mg86  1  0.27813600  0.13614500  0.63829000  1
  Mg  Mg87  1  0.70909800  0.63655300  0.60491900  1
  Mg  Mg88  1  0.14684000  0.17966100  0.69441400  1
  Mg  Mg89  1  0.59263300  0.95979700  0.63593800  1
  Mg  Mg90  1  0.90883200  0.16629400  0.67927900  1
  Mg  Mg91  1  0.85985000  0.82702900  0.69467700  1
  Mg  Mg92  1  0.57564200  0.46694500  0.63585700  1
  Mg  Mg93  1  0.22571400  0.79528900  0.65377300  1
  Mg  Mg94  1  0.88097500  0.31140100  0.63531800  1
  Mg  Mg95  1  0.82855400  0.97054500  0.65080100  1
  Mg  Mg96  1  0.78190200  0.63108700  0.66698300  1
  Mg  Mg97  1  0.96272600  0.50642400  0.66341300  1
  Mg  Mg98  1  0.45932300  0.81513300  0.66933300  1
  Mg  Mg99  1  0.53104800  0.63974500  0.65323400  1
  Mg  Mg100  1  0.22478800  0.37560300  0.72210800  1
  Mg  Mg101  1  0.54736600  0.19155700  0.71975800  1
  Mg  Mg102  1  0.09785700  0.84039500  0.70981200  1
  Mg  Mg103  1  0.29759200  0.37013700  0.78417200  1
  Mg  Mg104  1  0.41405700  0.04689300  0.75315300  1
  Mg  Mg105  1  0.04396400  0.50026600  0.72567800  1
  Mg  Mg106  1  0.17813600  0.03614500  0.73829000  1
  Mg  Mg107  1  0.60909800  0.53655300  0.70491900  1
  Mg  Mg108  1  0.49263300  0.85979700  0.73593800  1
  Mg  Mg109  1  0.80883200  0.06629400  0.77927900  1
  Mg  Mg110  1  0.47564200  0.36694500  0.73585700  1
  Mg  Mg111  1  0.12571400  0.69528900  0.75377300  1
  Mg  Mg112  1  0.78097500  0.21140100  0.73531800  1
  Mg  Mg113  1  0.72855400  0.87054500  0.75080100  1
  Mg  Mg114  1  0.68190200  0.53108700  0.76698300  1
  Mg  Mg115  1  0.86272600  0.40642400  0.76341300  1
  Mg  Mg116  1  0.35932300  0.71513300  0.76933300  1
  Mg  Mg117  1  0.43104800  0.53974500  0.75323400  1
  Zn  Zn118  1  0.75045100  0.49353500  0.29664500  1
  Zn  Zn119  1  0.95550300  0.73713300  0.27814500  1
  Zn  Zn120  1  0.47532000  0.62458400  0.23615900  1
  Zn  Zn121  1  0.09094800  0.19452700  0.25167400  1
  Zn  Zn122  1  0.13982100  0.53802000  0.23663400  1
  Zn  Zn123  1  0.76939500  0.66050300  0.28785600  1
  Zn  Zn124  1  0.45334500  0.45334500  0.24454500  1
  Zn  Zn125  1  0.05623900  0.31315500  0.29244600  1
  Zn  Zn126  1  0.37335400  0.86129300  0.19950400  1
  Zn  Zn127  1  0.81588100  0.41794600  0.20306700  1
  Zn  Zn128  1  0.44988600  0.74348900  0.27887800  1
  Zn  Zn129  1  0.58281000  0.88719300  0.27389300  1
  Zn  Zn130  1  0.58654100  0.38999800  0.27429100  1
  Zn  Zn131  1  0.79551100  0.25431500  0.21119800  1
  Zn  Zn132  1  0.95118700  0.16955700  0.21094600  1
  Zn  Zn133  1  0.53333600  0.04539700  0.28958700  1
  Zn  Zn134  1  0.71817600  0.02953700  0.26801100  1
  Zn  Zn135  1  0.09080900  0.48874400  0.28602400  1
  Zn  Zn136  1  0.13729400  0.24618600  0.20123500  1
  Zn  Zn137  1  0.32014900  0.51669100  0.21480000  1
  Zn  Zn138  1  0.18851400  0.87715300  0.22108000  1
  Zn  Zn139  1  0.76686900  0.36867000  0.25245600  1
  Zn  Zn140  1  0.40334500  0.40334500  0.29454500  1
  Zn  Zn141  1  0.63660500  0.72401800  0.25841100  1
  Zn  Zn142  1  0.49881000  0.79444400  0.22844900  1
  Zn  Zn143  1  0.76952700  0.07642800  0.21930100  1
  Zn  Zn144  1  0.27008500  0.18267200  0.23068000  1
  Zn  Zn145  1  0.13716200  0.83026200  0.26979000  1
  Zn  Zn146  1  0.11117900  0.65237400  0.27789300  1
  Zn  Zn147  1  0.40788000  0.11224600  0.26064200  1
  Zn  Zn148  1  0.81574200  0.71216300  0.23741700  1
  Zn  Zn149  1  0.90334500  0.40334500  0.29454500  1
  Zn  Zn150  1  0.45680400  0.16320100  0.21021300  1
  Zn  Zn151  1  0.32388000  0.01949600  0.21519800  1
  Zn  Zn152  1  0.43137000  0.28210600  0.25293200  1
  Zn  Zn153  1  0.65045100  0.39353500  0.39664500  1
  Zn  Zn154  1  0.85550300  0.63713300  0.37814500  1
  Zn  Zn155  1  0.37532000  0.52458400  0.33615900  1
  Zn  Zn156  1  0.99094800  0.09452700  0.35167400  1
  Zn  Zn157  1  0.03982100  0.43802000  0.33663400  1
  Zn  Zn158  1  0.66939500  0.56050300  0.38785600  1
  Zn  Zn159  1  0.35334500  0.35334500  0.34454500  1
  Zn  Zn160  1  0.95623900  0.21315500  0.39244600  1
  Zn  Zn161  1  0.27335400  0.76129300  0.29950400  1
  Zn  Zn162  1  0.71588100  0.31794600  0.30306700  1
  Zn  Zn163  1  0.34988600  0.64348900  0.37887800  1
  Zn  Zn164  1  0.48281000  0.78719300  0.37389300  1
  Zn  Zn165  1  0.48654100  0.28999800  0.37429100  1
  Zn  Zn166  1  0.69551100  0.15431500  0.31119800  1
  Zn  Zn167  1  0.85118700  0.06955700  0.31094600  1
  Zn  Zn168  1  0.43333600  0.94539700  0.38958700  1
  Zn  Zn169  1  0.61817600  0.92953700  0.36801100  1
  Zn  Zn170  1  0.99080900  0.38874400  0.38602400  1
  Zn  Zn171  1  0.03729400  0.14618600  0.30123500  1
  Zn  Zn172  1  0.22014900  0.41669100  0.31480000  1
  Zn  Zn173  1  0.08851400  0.77715300  0.32108000  1
  Zn  Zn174  1  0.66686900  0.26867000  0.35245600  1
  Zn  Zn175  1  0.30334500  0.30334500  0.39454500  1
  Zn  Zn176  1  0.53660500  0.62401800  0.35841100  1
  Zn  Zn177  1  0.39881000  0.69444400  0.32844900  1
  Zn  Zn178  1  0.66952700  0.97642800  0.31930100  1
  Zn  Zn179  1  0.17008500  0.08267200  0.33068000  1
  Zn  Zn180  1  0.03716200  0.73026200  0.36979000  1
  Zn  Zn181  1  0.01117900  0.55237400  0.37789300  1
  Zn  Zn182  1  0.30788000  0.01224600  0.36064200  1
  Zn  Zn183  1  0.71574200  0.61216300  0.33741700  1
  Zn  Zn184  1  0.80334500  0.30334500  0.39454500  1
  Zn  Zn185  1  0.35680400  0.06320100  0.31021300  1
  Zn  Zn186  1  0.22388000  0.91949600  0.31519800  1
  Zn  Zn187  1  0.33137000  0.18210600  0.35293200  1
  Zn  Zn188  1  0.55045100  0.29353500  0.49664500  1
  Zn  Zn189  1  0.75550300  0.53713300  0.47814500  1
  Zn  Zn190  1  0.27532000  0.42458400  0.43615900  1
  Zn  Zn191  1  0.89094800  0.99452700  0.45167400  1
  Zn  Zn192  1  0.93982100  0.33802000  0.43663400  1
  Zn  Zn193  1  0.56939500  0.46050300  0.48785600  1
  Zn  Zn194  1  0.25334500  0.25334500  0.44454500  1
  Zn  Zn195  1  0.85623900  0.11315500  0.49244600  1
  Zn  Zn196  1  0.17335400  0.66129300  0.39950400  1
  Zn  Zn197  1  0.61588100  0.21794600  0.40306700  1
  Zn  Zn198  1  0.24988600  0.54348900  0.47887800  1
  Zn  Zn199  1  0.38281000  0.68719300  0.47389300  1
  Zn  Zn200  1  0.38654100  0.18999800  0.47429100  1
  Zn  Zn201  1  0.59551100  0.05431500  0.41119800  1
  Zn  Zn202  1  0.75118700  0.96955700  0.41094600  1
  Zn  Zn203  1  0.33333600  0.84539700  0.48958700  1
  Zn  Zn204  1  0.51817600  0.82953700  0.46801100  1
  Zn  Zn205  1  0.89080900  0.28874400  0.48602400  1
  Zn  Zn206  1  0.93729400  0.04618600  0.40123500  1
  Zn  Zn207  1  0.12014900  0.31669100  0.41480000  1
  Zn  Zn208  1  0.98851400  0.67715300  0.42108000  1
  Zn  Zn209  1  0.56686900  0.16867000  0.45245600  1
  Zn  Zn210  1  0.20334500  0.20334500  0.49454500  1
  Zn  Zn211  1  0.43660500  0.52401800  0.45841100  1
  Zn  Zn212  1  0.29881000  0.59444400  0.42844900  1
  Zn  Zn213  1  0.56952700  0.87642800  0.41930100  1
  Zn  Zn214  1  0.07008500  0.98267200  0.43068000  1
  Zn  Zn215  1  0.93716200  0.63026200  0.46979000  1
  Zn  Zn216  1  0.91117900  0.45237400  0.47789300  1
  Zn  Zn217  1  0.20788000  0.91224600  0.46064200  1
  Zn  Zn218  1  0.61574200  0.51216300  0.43741700  1
  Zn  Zn219  1  0.70334500  0.20334500  0.49454500  1
  Zn  Zn220  1  0.25680400  0.96320100  0.41021300  1
  Zn  Zn221  1  0.12388000  0.81949600  0.41519800  1
  Zn  Zn222  1  0.23137000  0.08210600  0.45293200  1
  Zn  Zn223  1  0.45045100  0.19353500  0.59664500  1
  Zn  Zn224  1  0.65550300  0.43713300  0.57814500  1
  Zn  Zn225  1  0.17532000  0.32458400  0.53615900  1
  Zn  Zn226  1  0.79094800  0.89452700  0.55167400  1
  Zn  Zn227  1  0.83982100  0.23802000  0.53663400  1
  Zn  Zn228  1  0.46939500  0.36050300  0.58785600  1
  Zn  Zn229  1  0.15334500  0.15334500  0.54454500  1
  Zn  Zn230  1  0.75623900  0.01315500  0.59244600  1
  Zn  Zn231  1  0.07335400  0.56129300  0.49950400  1
  Zn  Zn232  1  0.51588100  0.11794600  0.50306700  1
  Zn  Zn233  1  0.14988600  0.44348900  0.57887800  1
  Zn  Zn234  1  0.28281000  0.58719300  0.57389300  1
  Zn  Zn235  1  0.28654100  0.08999800  0.57429100  1
  Zn  Zn236  1  0.49551100  0.95431500  0.51119800  1
  Zn  Zn237  1  0.65118700  0.86955700  0.51094600  1
  Zn  Zn238  1  0.23333600  0.74539700  0.58958700  1
  Zn  Zn239  1  0.41817600  0.72953700  0.56801100  1
  Zn  Zn240  1  0.79080900  0.18874400  0.58602400  1
  Zn  Zn241  1  0.83729400  0.94618600  0.50123500  1
  Zn  Zn242  1  0.02014900  0.21669100  0.51480000  1
  Zn  Zn243  1  0.88851400  0.57715300  0.52108000  1
  Zn  Zn244  1  0.46686900  0.06867000  0.55245600  1
  Zn  Zn245  1  0.10334500  0.10334500  0.59454500  1
  Zn  Zn246  1  0.33660500  0.42401800  0.55841100  1
  Zn  Zn247  1  0.19881000  0.49444400  0.52844900  1
  Zn  Zn248  1  0.46952700  0.77642800  0.51930100  1
  Zn  Zn249  1  0.97008500  0.88267200  0.53068000  1
  Zn  Zn250  1  0.83716200  0.53026200  0.56979000  1
  Zn  Zn251  1  0.81117900  0.35237400  0.57789300  1
  Zn  Zn252  1  0.10788000  0.81224600  0.56064200  1
  Zn  Zn253  1  0.51574200  0.41216300  0.53741700  1
  Zn  Zn254  1  0.60334500  0.10334500  0.59454500  1
  Zn  Zn255  1  0.15680400  0.86320100  0.51021300  1
  Zn  Zn256  1  0.02388000  0.71949600  0.51519800  1
  Zn  Zn257  1  0.13137000  0.98210600  0.55293200  1
  Zn  Zn258  1  0.35045100  0.09353500  0.69664500  1
  Zn  Zn259  1  0.55550300  0.33713300  0.67814500  1
  Zn  Zn260  1  0.07532000  0.22458400  0.63615900  1
  Zn  Zn261  1  0.69094800  0.79452700  0.65167400  1
  Zn  Zn262  1  0.73982100  0.13802000  0.63663400  1
  Zn  Zn263  1  0.36939500  0.26050300  0.68785600  1
  Zn  Zn264  1  0.05334500  0.05334500  0.64454500  1
  Zn  Zn265  1  0.65623900  0.91315500  0.69244600  1
  Zn  Zn266  1  0.97335400  0.46129300  0.59950400  1
  Zn  Zn267  1  0.41588100  0.01794600  0.60306700  1
  Zn  Zn268  1  0.04988600  0.34348900  0.67887800  1
  Zn  Zn269  1  0.18281000  0.48719300  0.67389300  1
  Zn  Zn270  1  0.18654100  0.98999800  0.67429100  1
  Zn  Zn271  1  0.39551100  0.85431500  0.61119800  1
  Zn  Zn272  1  0.55118700  0.76955700  0.61094600  1
  Zn  Zn273  1  0.13333600  0.64539700  0.68958700  1
  Zn  Zn274  1  0.31817600  0.62953700  0.66801100  1
  Zn  Zn275  1  0.69080900  0.08874400  0.68602400  1
  Zn  Zn276  1  0.73729400  0.84618600  0.60123500  1
  Zn  Zn277  1  0.92014900  0.11669100  0.61480000  1
  Zn  Zn278  1  0.78851400  0.47715300  0.62108000  1
  Zn  Zn279  1  0.36686900  0.96867000  0.65245600  1
  Zn  Zn280  1  0.00334500  0.00334500  0.69454500  1
  Zn  Zn281  1  0.23660500  0.32401800  0.65841100  1
  Zn  Zn282  1  0.09881000  0.39444400  0.62844900  1
  Zn  Zn283  1  0.36952700  0.67642800  0.61930100  1
  Zn  Zn284  1  0.87008500  0.78267200  0.63068000  1
  Zn  Zn285  1  0.73716200  0.43026200  0.66979000  1
  Zn  Zn286  1  0.71117900  0.25237400  0.67789300  1
  Zn  Zn287  1  0.00788000  0.71224600  0.66064200  1
  Zn  Zn288  1  0.41574200  0.31216300  0.63741700  1
  Zn  Zn289  1  0.50334500  0.00334500  0.69454500  1
  Zn  Zn290  1  0.05680400  0.76320100  0.61021300  1
  Zn  Zn291  1  0.92388000  0.61949600  0.61519800  1
  Zn  Zn292  1  0.03137000  0.88210600  0.65293200  1
  Zn  Zn293  1  0.45550300  0.23713300  0.77814500  1
  Zn  Zn294  1  0.97532000  0.12458400  0.73615900  1
  Zn  Zn295  1  0.59094800  0.69452700  0.75167400  1
  Zn  Zn296  1  0.63982100  0.03802000  0.73663400  1
  Zn  Zn297  1  0.26939500  0.16050300  0.78785600  1
  Zn  Zn298  1  0.95334500  0.95334500  0.74454500  1
  Zn  Zn299  1  0.87335400  0.36129300  0.69950400  1
  Zn  Zn300  1  0.31588100  0.91794600  0.70306700  1
  Zn  Zn301  1  0.94988600  0.24348900  0.77887800  1
  Zn  Zn302  1  0.08281000  0.38719300  0.77389300  1
  Zn  Zn303  1  0.08654100  0.88999800  0.77429100  1
  Zn  Zn304  1  0.29551100  0.75431500  0.71119800  1
  Zn  Zn305  1  0.45118700  0.66955700  0.71094600  1
  Zn  Zn306  1  0.03333600  0.54539700  0.78958700  1
  Zn  Zn307  1  0.21817600  0.52953700  0.76801100  1
  Zn  Zn308  1  0.59080900  0.98874400  0.78602400  1
  Zn  Zn309  1  0.63729400  0.74618600  0.70123500  1
  Zn  Zn310  1  0.82014900  0.01669100  0.71480000  1
  Zn  Zn311  1  0.68851400  0.37715300  0.72108000  1
  Zn  Zn312  1  0.26686900  0.86867000  0.75245600  1
  Zn  Zn313  1  0.13660500  0.22401800  0.75841100  1
  Zn  Zn314  1  0.99881000  0.29444400  0.72844900  1
  Zn  Zn315  1  0.26952700  0.57642800  0.71930100  1
  Zn  Zn316  1  0.77008500  0.68267200  0.73068000  1
  Zn  Zn317  1  0.63716200  0.33026200  0.76979000  1
  Zn  Zn318  1  0.61117900  0.15237400  0.77789300  1
  Zn  Zn319  1  0.90788000  0.61224600  0.76064200  1
  Zn  Zn320  1  0.31574200  0.21216300  0.73741700  1
  Zn  Zn321  1  0.95680400  0.66320100  0.71021300  1
  Zn  Zn322  1  0.82388000  0.51949600  0.71519800  1
  Zn  Zn323  1  0.93137000  0.78210600  0.75293200  1
