# generated using pymatgen
data_Mg2Cd
_symmetry_space_group_name_H-M   'P 1'
_cell_length_a   5.19055600
_cell_length_b   16.11607500
_cell_length_c   41.23228900
_cell_angle_alpha   90.00000000
_cell_angle_beta   90.00000000
_cell_angle_gamma   90.00000000
_symmetry_Int_Tables_number   1
_chemical_formula_structural   Mg2Cd
_chemical_formula_sum   'Mg64 Cd32'
_cell_volume   3449.13827898
_cell_formula_units_Z   32
loop_
 _symmetry_equiv_pos_site_id
 _symmetry_equiv_pos_as_xyz
  1  'x, y, z'
loop_
 _atom_site_type_symbol
 _atom_site_label
 _atom_site_symmetry_multiplicity
 _atom_site_fract_x
 _atom_site_fract_y
 _atom_site_fract_z
 _atom_site_occupancy
  Mg  Mg0  1  0.25000000  0.55580300  0.25000000  1
  Mg  Mg1  1  0.25000000  0.72512500  0.21153800  1
  Mg  Mg2  1  0.75000000  0.77487500  0.25000000  1
  Mg  Mg3  1  0.75000000  0.94419700  0.21153800  1
  Mg  Mg4  1  0.25000000  0.05580300  0.21153800  1
  Mg  Mg5  1  0.25000000  0.22512500  0.25000000  1
  Mg  Mg6  1  0.75000000  0.27487500  0.21153800  1
  Mg  Mg7  1  0.75000000  0.44419700  0.25000000  1
  Mg  Mg8  1  0.25000000  0.55580300  0.32692300  1
  Mg  Mg9  1  0.25000000  0.72512500  0.28846200  1
  Mg  Mg10  1  0.75000000  0.77487500  0.32692300  1
  Mg  Mg11  1  0.75000000  0.94419700  0.28846200  1
  Mg  Mg12  1  0.25000000  0.05580300  0.28846200  1
  Mg  Mg13  1  0.25000000  0.22512500  0.32692300  1
  Mg  Mg14  1  0.75000000  0.27487500  0.28846200  1
  Mg  Mg15  1  0.75000000  0.44419700  0.32692300  1
  Mg  Mg16  1  0.25000000  0.55580300  0.40384600  1
  Mg  Mg17  1  0.25000000  0.72512500  0.36538500  1
  Mg  Mg18  1  0.75000000  0.77487500  0.40384600  1
  Mg  Mg19  1  0.75000000  0.94419700  0.36538500  1
  Mg  Mg20  1  0.25000000  0.05580300  0.36538500  1
  Mg  Mg21  1  0.25000000  0.22512500  0.40384600  1
  Mg  Mg22  1  0.75000000  0.27487500  0.36538500  1
  Mg  Mg23  1  0.75000000  0.44419700  0.40384600  1
  Mg  Mg24  1  0.25000000  0.55580300  0.48076900  1
  Mg  Mg25  1  0.25000000  0.72512500  0.44230800  1
  Mg  Mg26  1  0.75000000  0.77487500  0.48076900  1
  Mg  Mg27  1  0.75000000  0.94419700  0.44230800  1
  Mg  Mg28  1  0.25000000  0.05580300  0.44230800  1
  Mg  Mg29  1  0.25000000  0.22512500  0.48076900  1
  Mg  Mg30  1  0.75000000  0.27487500  0.44230800  1
  Mg  Mg31  1  0.75000000  0.44419700  0.48076900  1
  Mg  Mg32  1  0.25000000  0.55580300  0.55769200  1
  Mg  Mg33  1  0.25000000  0.72512500  0.51923100  1
  Mg  Mg34  1  0.75000000  0.77487500  0.55769200  1
  Mg  Mg35  1  0.75000000  0.94419700  0.51923100  1
  Mg  Mg36  1  0.25000000  0.05580300  0.51923100  1
  Mg  Mg37  1  0.25000000  0.22512500  0.55769200  1
  Mg  Mg38  1  0.75000000  0.27487500  0.51923100  1
  Mg  Mg39  1  0.75000000  0.44419700  0.55769200  1
  Mg  Mg40  1  0.25000000  0.55580300  0.63461500  1
  Mg  Mg41  1  0.25000000  0.72512500  0.59615400  1
  Mg  Mg42  1  0.75000000  0.77487500  0.63461500  1
  Mg  Mg43  1  0.75000000  0.94419700  0.59615400  1
  Mg  Mg44  1  0.25000000  0.05580300  0.59615400  1
  Mg  Mg45  1  0.25000000  0.22512500  0.63461500  1
  Mg  Mg46  1  0.75000000  0.27487500  0.59615400  1
  Mg  Mg47  1  0.75000000  0.44419700  0.63461500  1
  Mg  Mg48  1  0.25000000  0.55580300  0.71153800  1
  Mg  Mg49  1  0.25000000  0.72512500  0.67307700  1
  Mg  Mg50  1  0.75000000  0.77487500  0.71153800  1
  Mg  Mg51  1  0.75000000  0.94419700  0.67307700  1
  Mg  Mg52  1  0.25000000  0.05580300  0.67307700  1
  Mg  Mg53  1  0.25000000  0.22512500  0.71153800  1
  Mg  Mg54  1  0.75000000  0.27487500  0.67307700  1
  Mg  Mg55  1  0.75000000  0.44419700  0.71153800  1
  Mg  Mg56  1  0.25000000  0.55580300  0.78846200  1
  Mg  Mg57  1  0.25000000  0.72512500  0.75000000  1
  Mg  Mg58  1  0.75000000  0.77487500  0.78846200  1
  Mg  Mg59  1  0.75000000  0.94419700  0.75000000  1
  Mg  Mg60  1  0.25000000  0.05580300  0.75000000  1
  Mg  Mg61  1  0.25000000  0.22512500  0.78846200  1
  Mg  Mg62  1  0.75000000  0.27487500  0.75000000  1
  Mg  Mg63  1  0.75000000  0.44419700  0.78846200  1
  Cd  Cd64  1  0.25000000  0.88819600  0.25000000  1
  Cd  Cd65  1  0.75000000  0.61180400  0.21153800  1
  Cd  Cd66  1  0.25000000  0.38819600  0.21153800  1
  Cd  Cd67  1  0.75000000  0.11180400  0.25000000  1
  Cd  Cd68  1  0.25000000  0.88819600  0.32692300  1
  Cd  Cd69  1  0.75000000  0.61180400  0.28846200  1
  Cd  Cd70  1  0.25000000  0.38819600  0.28846200  1
  Cd  Cd71  1  0.75000000  0.11180400  0.32692300  1
  Cd  Cd72  1  0.25000000  0.88819600  0.40384600  1
  Cd  Cd73  1  0.75000000  0.61180400  0.36538500  1
  Cd  Cd74  1  0.25000000  0.38819600  0.36538500  1
  Cd  Cd75  1  0.75000000  0.11180400  0.40384600  1
  Cd  Cd76  1  0.25000000  0.88819600  0.48076900  1
  Cd  Cd77  1  0.75000000  0.61180400  0.44230800  1
  Cd  Cd78  1  0.25000000  0.38819600  0.44230800  1
  Cd  Cd79  1  0.75000000  0.11180400  0.48076900  1
  Cd  Cd80  1  0.25000000  0.88819600  0.55769200  1
  Cd  Cd81  1  0.75000000  0.61180400  0.51923100  1
  Cd  Cd82  1  0.25000000  0.38819600  0.51923100  1
  Cd  Cd83  1  0.75000000  0.11180400  0.55769200  1
  Cd  Cd84  1  0.25000000  0.88819600  0.63461500  1
  Cd  Cd85  1  0.75000000  0.61180400  0.59615400  1
  Cd  Cd86  1  0.25000000  0.38819600  0.59615400  1
  Cd  Cd87  1  0.75000000  0.11180400  0.63461500  1
  Cd  Cd88  1  0.25000000  0.88819600  0.71153800  1
  Cd  Cd89  1  0.75000000  0.61180400  0.67307700  1
  Cd  Cd90  1  0.25000000  0.38819600  0.67307700  1
  Cd  Cd91  1  0.75000000  0.11180400  0.71153800  1
  Cd  Cd92  1  0.25000000  0.88819600  0.78846200  1
  Cd  Cd93  1  0.75000000  0.61180400  0.75000000  1
  Cd  Cd94  1  0.25000000  0.38819600  0.75000000  1
  Cd  Cd95  1  0.75000000  0.11180400  0.78846200  1
