# generated using pymatgen
data_Mg19Rh8
_symmetry_space_group_name_H-M   'P 1'
_cell_length_a   8.64031975
_cell_length_b   8.03467500
_cell_length_c   52.55701100
_cell_angle_alpha   90.00000000
_cell_angle_beta   94.71500456
_cell_angle_gamma   90.00000000
_symmetry_Int_Tables_number   1
_chemical_formula_structural   Mg19Rh8
_chemical_formula_sum   'Mg76 Rh32'
_cell_volume   3636.27396607
_cell_formula_units_Z   4
loop_
 _symmetry_equiv_pos_site_id
 _symmetry_equiv_pos_as_xyz
  1  'x, y, z'
loop_
 _atom_site_type_symbol
 _atom_site_label
 _atom_site_symmetry_multiplicity
 _atom_site_fract_x
 _atom_site_fract_y
 _atom_site_fract_z
 _atom_site_occupancy
  Mg  Mg0  1  0.61487900  0.50000000  0.34693900  1
  Mg  Mg1  1  0.61487900  0.00000000  0.34693900  1
  Mg  Mg2  1  0.10913200  0.75000000  0.33544400  1
  Mg  Mg3  1  0.76594100  0.25000000  0.26976300  1
  Mg  Mg4  1  0.38664100  0.25000000  0.26976300  1
  Mg  Mg5  1  0.27168900  0.75000000  0.28125800  1
  Mg  Mg6  1  0.89238800  0.75000000  0.28125800  1
  Mg  Mg7  1  0.12062700  0.25000000  0.35843400  1
  Mg  Mg8  1  0.07077900  0.43548400  0.25873800  1
  Mg  Mg9  1  0.34406300  0.93548400  0.23141000  1
  Mg  Mg10  1  0.77016700  0.93548400  0.23141000  1
  Mg  Mg11  1  0.88816300  0.43548400  0.31961000  1
  Mg  Mg12  1  0.31426700  0.43548400  0.31961000  1
  Mg  Mg13  1  0.58755100  0.56451600  0.29228200  1
  Mg  Mg14  1  0.34406300  0.56451600  0.23141000  1
  Mg  Mg15  1  0.58755100  0.93548400  0.29228200  1
  Mg  Mg16  1  0.77016700  0.56451600  0.23141000  1
  Mg  Mg17  1  0.88816300  0.06451600  0.31961000  1
  Mg  Mg18  1  0.07077900  0.06451600  0.25873800  1
  Mg  Mg19  1  0.31426700  0.06451600  0.31961000  1
  Mg  Mg20  1  0.18630800  0.50000000  0.48979600  1
  Mg  Mg21  1  0.18630800  0.00000000  0.48979600  1
  Mg  Mg22  1  0.68056000  0.75000000  0.47830100  1
  Mg  Mg23  1  0.33737000  0.25000000  0.41262000  1
  Mg  Mg24  1  0.95806900  0.25000000  0.41262000  1
  Mg  Mg25  1  0.84311800  0.75000000  0.42411500  1
  Mg  Mg26  1  0.46381700  0.75000000  0.42411500  1
  Mg  Mg27  1  0.69205500  0.25000000  0.50129100  1
  Mg  Mg28  1  0.64220800  0.43548400  0.40159600  1
  Mg  Mg29  1  0.91549200  0.93548400  0.37426700  1
  Mg  Mg30  1  0.34159500  0.93548400  0.37426700  1
  Mg  Mg31  1  0.45959200  0.43548400  0.46246800  1
  Mg  Mg32  1  0.88569500  0.43548400  0.46246800  1
  Mg  Mg33  1  0.15897900  0.56451600  0.43513900  1
  Mg  Mg34  1  0.91549200  0.56451600  0.37426700  1
  Mg  Mg35  1  0.15897900  0.93548400  0.43513900  1
  Mg  Mg36  1  0.34159500  0.56451600  0.37426700  1
  Mg  Mg37  1  0.45959200  0.06451600  0.46246800  1
  Mg  Mg38  1  0.64220800  0.06451600  0.40159600  1
  Mg  Mg39  1  0.88569500  0.06451600  0.46246800  1
  Mg  Mg40  1  0.75773600  0.50000000  0.63265300  1
  Mg  Mg41  1  0.75773600  0.00000000  0.63265300  1
  Mg  Mg42  1  0.25198900  0.75000000  0.62115800  1
  Mg  Mg43  1  0.90879900  0.25000000  0.55547700  1
  Mg  Mg44  1  0.52949800  0.25000000  0.55547700  1
  Mg  Mg45  1  0.41454600  0.75000000  0.56697200  1
  Mg  Mg46  1  0.03524600  0.75000000  0.56697200  1
  Mg  Mg47  1  0.26348400  0.25000000  0.64414800  1
  Mg  Mg48  1  0.21363600  0.43548400  0.54445300  1
  Mg  Mg49  1  0.48692000  0.93548400  0.51712400  1
  Mg  Mg50  1  0.91302400  0.93548400  0.51712400  1
  Mg  Mg51  1  0.03102000  0.43548400  0.60532500  1
  Mg  Mg52  1  0.45712400  0.43548400  0.60532500  1
  Mg  Mg53  1  0.73040800  0.56451600  0.57799600  1
  Mg  Mg54  1  0.48692000  0.56451600  0.51712400  1
  Mg  Mg55  1  0.73040800  0.93548400  0.57799600  1
  Mg  Mg56  1  0.91302400  0.56451600  0.51712400  1
  Mg  Mg57  1  0.03102000  0.06451600  0.60532500  1
  Mg  Mg58  1  0.21363600  0.06451600  0.54445300  1
  Mg  Mg59  1  0.45712400  0.06451600  0.60532500  1
  Mg  Mg60  1  0.48022700  0.25000000  0.69833400  1
  Mg  Mg61  1  0.10092700  0.25000000  0.69833400  1
  Mg  Mg62  1  0.98597500  0.75000000  0.70982900  1
  Mg  Mg63  1  0.60667400  0.75000000  0.70982900  1
  Mg  Mg64  1  0.78506500  0.43548400  0.68731000  1
  Mg  Mg65  1  0.05834900  0.93548400  0.65998100  1
  Mg  Mg66  1  0.48445200  0.93548400  0.65998100  1
  Mg  Mg67  1  0.60244900  0.43548400  0.74818200  1
  Mg  Mg68  1  0.02855200  0.43548400  0.74818200  1
  Mg  Mg69  1  0.30183700  0.56451600  0.72085300  1
  Mg  Mg70  1  0.05834900  0.56451600  0.65998100  1
  Mg  Mg71  1  0.30183700  0.93548400  0.72085300  1
  Mg  Mg72  1  0.48445200  0.56451600  0.65998100  1
  Mg  Mg73  1  0.60244900  0.06451600  0.74818200  1
  Mg  Mg74  1  0.78506500  0.06451600  0.68731000  1
  Mg  Mg75  1  0.02855200  0.06451600  0.74818200  1
  Rh  Rh76  1  0.09107000  0.25000000  0.29932000  1
  Rh  Rh77  1  0.56726000  0.75000000  0.25170100  1
  Rh  Rh78  1  0.06092300  0.75000000  0.23902500  1
  Rh  Rh79  1  0.23564200  0.25000000  0.22155400  1
  Rh  Rh80  1  0.86873100  0.25000000  0.22155400  1
  Rh  Rh81  1  0.78959800  0.75000000  0.32946700  1
  Rh  Rh82  1  0.42268800  0.75000000  0.32946700  1
  Rh  Rh83  1  0.59740700  0.25000000  0.31199500  1
  Rh  Rh84  1  0.66249800  0.25000000  0.44217700  1
  Rh  Rh85  1  0.13868900  0.75000000  0.39455800  1
  Rh  Rh86  1  0.63235100  0.75000000  0.38188300  1
  Rh  Rh87  1  0.80707000  0.25000000  0.36441100  1
  Rh  Rh88  1  0.44016000  0.25000000  0.36441100  1
  Rh  Rh89  1  0.36102700  0.75000000  0.47232400  1
  Rh  Rh90  1  0.99411700  0.75000000  0.47232400  1
  Rh  Rh91  1  0.16883600  0.25000000  0.45485200  1
  Rh  Rh92  1  0.23392700  0.25000000  0.58503400  1
  Rh  Rh93  1  0.71011700  0.75000000  0.53741500  1
  Rh  Rh94  1  0.20378000  0.75000000  0.52474000  1
  Rh  Rh95  1  0.37849900  0.25000000  0.50726800  1
  Rh  Rh96  1  0.01158900  0.25000000  0.50726800  1
  Rh  Rh97  1  0.93245600  0.75000000  0.61518100  1
  Rh  Rh98  1  0.56554500  0.75000000  0.61518100  1
  Rh  Rh99  1  0.74026400  0.25000000  0.59770900  1
  Rh  Rh100  1  0.80535500  0.25000000  0.72789100  1
  Rh  Rh101  1  0.28154600  0.75000000  0.68027200  1
  Rh  Rh102  1  0.77520800  0.75000000  0.66759700  1
  Rh  Rh103  1  0.94992800  0.25000000  0.65012500  1
  Rh  Rh104  1  0.58301700  0.25000000  0.65012500  1
  Rh  Rh105  1  0.50388400  0.75000000  0.75803800  1
  Rh  Rh106  1  0.13697400  0.75000000  0.75803800  1
  Rh  Rh107  1  0.31169300  0.25000000  0.74056600  1
