# generated using pymatgen
data_Mg13Zn24
_symmetry_space_group_name_H-M   'P 1'
_cell_length_a   5.07402260
_cell_length_b   13.26606241
_cell_length_c   57.00757700
_cell_angle_alpha   92.18610401
_cell_angle_beta   87.66012493
_cell_angle_gamma   100.62858194
_symmetry_Int_Tables_number   1
_chemical_formula_structural   Mg13Zn24
_chemical_formula_sum   'Mg26 Zn48'
_cell_volume   3766.49990850
_cell_formula_units_Z   2
loop_
 _symmetry_equiv_pos_site_id
 _symmetry_equiv_pos_as_xyz
  1  'x, y, z'
loop_
 _atom_site_type_symbol
 _atom_site_label
 _atom_site_symmetry_multiplicity
 _atom_site_fract_x
 _atom_site_fract_y
 _atom_site_fract_z
 _atom_site_occupancy
  Mg  Mg0  1  0.23346700  0.60667100  0.39313700  1
  Mg  Mg1  1  0.44296700  0.97349800  0.34653800  1
  Mg  Mg2  1  0.79489100  0.60432000  0.25626100  1
  Mg  Mg3  1  0.78336000  0.72738900  0.40728600  1
  Mg  Mg4  1  0.91599800  0.90140100  0.31872100  1
  Mg  Mg5  1  0.10887700  0.39735900  0.42519500  1
  Mg  Mg6  1  0.79938600  0.65702000  0.31231800  1
  Mg  Mg7  1  0.88188100  0.93785200  0.42907700  1
  Mg  Mg8  1  0.23607600  0.55693800  0.33722800  1
  Mg  Mg9  1  0.99924300  0.01384000  0.26764300  1
  Mg  Mg10  1  0.12035000  0.31092000  0.33010300  1
  Mg  Mg11  1  0.42916500  0.10830300  0.49913600  1
  Mg  Mg12  1  0.36459800  0.87000100  0.39441000  1
  Mg  Mg13  1  0.11092900  0.45142400  0.48097500  1
  Mg  Mg14  1  0.55431200  0.21381600  0.35538900  1
  Mg  Mg15  1  0.11585500  0.25822100  0.27404600  1
  Mg  Mg16  1  0.43177400  0.05857000  0.44322700  1
  Mg  Mg17  1  0.55636400  0.26788200  0.41116800  1
  Mg  Mg18  1  0.22227400  0.69174200  0.48982600  1
  Mg  Mg19  1  0.30064300  0.79523900  0.44195400  1
  Mg  Mg20  1  0.54489100  0.35432000  0.50626100  1
  Mg  Mg21  1  0.66599800  0.65140100  0.56872100  1
  Mg  Mg22  1  0.54938600  0.40702000  0.56231800  1
  Mg  Mg23  1  0.74924300  0.76384000  0.51764300  1
  Mg  Mg24  1  0.87035000  0.06092000  0.58010300  1
  Mg  Mg25  1  0.86585500  0.00822100  0.52404600  1
  Zn  Zn26  1  0.36325200  0.78375300  0.31625400  1
  Zn  Zn27  1  0.89688200  0.91403100  0.37252900  1
  Zn  Zn28  1  0.67018900  0.43049600  0.33389500  1
  Zn  Zn29  1  0.09351600  0.91527400  0.48025900  1
  Zn  Zn30  1  0.78255500  0.11699500  0.31237300  1
  Zn  Zn31  1  0.07763600  0.75436400  0.35579900  1
  Zn  Zn32  1  0.95762000  0.45762000  0.29318200  1
  Zn  Zn33  1  0.55198900  0.13148800  0.27010900  1
  Zn  Zn34  1  0.05357100  0.24186100  0.38390800  1
  Zn  Zn35  1  0.63893600  0.79789800  0.27396300  1
  Zn  Zn36  1  0.89534700  0.40737500  0.37430100  1
  Zn  Zn37  1  0.67210300  0.50063400  0.40898100  1
  Zn  Zn38  1  0.29707600  0.62896200  0.28478200  1
  Zn  Zn39  1  0.66461500  0.57453300  0.48508800  1
  Zn  Zn40  1  0.76835900  0.75121000  0.46383500  1
  Zn  Zn41  1  0.61166900  0.42338000  0.45245500  1
  Zn  Zn42  1  0.44270200  0.59600300  0.44309600  1
  Zn  Zn43  1  0.27630500  0.11734300  0.31240100  1
  Zn  Zn44  1  0.58760500  0.91087700  0.48056500  1
  Zn  Zn45  1  0.61816500  0.28627900  0.30158200  1
  Zn  Zn46  1  0.22253900  0.06923800  0.39326800  1
  Zn  Zn47  1  0.13268600  0.79824600  0.27399100  1
  Zn  Zn48  1  0.45762000  0.45762000  0.29318200  1
  Zn  Zn49  1  0.74059900  0.58361100  0.36431600  1
  Zn  Zn50  1  0.39040000  0.40573800  0.37443200  1
  Zn  Zn51  1  0.95787600  0.59909900  0.44264100  1
  Zn  Zn52  1  0.92464200  0.08163000  0.47204700  1
  Zn  Zn53  1  0.70736400  0.06614200  0.39372200  1
  Zn  Zn54  1  0.00062500  0.09070700  0.35127600  1
  Zn  Zn55  1  0.27484100  0.25950300  0.46193100  1
  Zn  Zn56  1  0.57172500  0.74996600  0.35610400  1
  Zn  Zn57  1  0.45762000  0.95762000  0.29318200  1
  Zn  Zn58  1  0.76989400  0.25786600  0.46206300  1
  Zn  Zn59  1  0.99313800  0.16460700  0.42738300  1
  Zn  Zn60  1  0.24505200  0.48474500  0.25246900  1
  Zn  Zn61  1  0.11325200  0.53375300  0.56625400  1
  Zn  Zn62  1  0.42018900  0.18049600  0.58389500  1
  Zn  Zn63  1  0.53255500  0.86699500  0.56237300  1
  Zn  Zn64  1  0.70762000  0.20762000  0.54318200  1
  Zn  Zn65  1  0.30198900  0.88148800  0.52010900  1
  Zn  Zn66  1  0.38893600  0.54789800  0.52396300  1
  Zn  Zn67  1  0.04707600  0.37896200  0.53478200  1
  Zn  Zn68  1  0.02630500  0.86734300  0.56240100  1
  Zn  Zn69  1  0.36816500  0.03627900  0.55158200  1
  Zn  Zn70  1  0.88268600  0.54824600  0.52399100  1
  Zn  Zn71  1  0.20762000  0.20762000  0.54318200  1
  Zn  Zn72  1  0.20762000  0.70762000  0.54318200  1
  Zn  Zn73  1  0.99505200  0.23474500  0.50246900  1
