# generated using pymatgen
data_LiMg2
_symmetry_space_group_name_H-M   'P 1'
_cell_length_a   5.06834700
_cell_length_b   8.55483815
_cell_length_c   42.04420300
_cell_angle_alpha   91.27622824
_cell_angle_beta   90.00000000
_cell_angle_gamma   90.00000000
_symmetry_Int_Tables_number   1
_chemical_formula_structural   LiMg2
_chemical_formula_sum   'Li18 Mg36'
_cell_volume   1822.53768168
_cell_formula_units_Z   18
loop_
 _symmetry_equiv_pos_site_id
 _symmetry_equiv_pos_as_xyz
  1  'x, y, z'
loop_
 _atom_site_type_symbol
 _atom_site_label
 _atom_site_symmetry_multiplicity
 _atom_site_fract_x
 _atom_site_fract_y
 _atom_site_fract_z
 _atom_site_occupancy
  Li  Li0  1  0.25000000  0.04128900  0.81328600  1
  Li  Li1  1  0.75000000  0.53014000  0.75814300  1
  Li  Li2  1  0.25000000  0.96986000  0.74185700  1
  Li  Li3  1  0.75000000  0.45871100  0.68671400  1
  Li  Li4  1  0.25000000  0.89843200  0.67042800  1
  Li  Li5  1  0.75000000  0.38728300  0.61528600  1
  Li  Li6  1  0.25000000  0.82700300  0.59900000  1
  Li  Li7  1  0.75000000  0.31585400  0.54385700  1
  Li  Li8  1  0.25000000  0.75557400  0.52757100  1
  Li  Li9  1  0.75000000  0.24442600  0.47242900  1
  Li  Li10  1  0.25000000  0.68414600  0.45614300  1
  Li  Li11  1  0.75000000  0.17299700  0.40100000  1
  Li  Li12  1  0.25000000  0.61271700  0.38471400  1
  Li  Li13  1  0.75000000  0.10156800  0.32957200  1
  Li  Li14  1  0.25000000  0.54128900  0.31328600  1
  Li  Li15  1  0.75000000  0.03014000  0.25814300  1
  Li  Li16  1  0.25000000  0.46986000  0.24185700  1
  Li  Li17  1  0.75000000  0.95871100  0.18671400  1
  Mg  Mg18  1  0.25000000  0.32962000  0.76557000  1
  Mg  Mg19  1  0.25000000  0.68710300  0.78936700  1
  Mg  Mg20  1  0.75000000  0.24180800  0.80585900  1
  Mg  Mg21  1  0.75000000  0.88432500  0.78206200  1
  Mg  Mg22  1  0.25000000  0.25819200  0.69414100  1
  Mg  Mg23  1  0.25000000  0.61567500  0.71793800  1
  Mg  Mg24  1  0.75000000  0.17038000  0.73443000  1
  Mg  Mg25  1  0.75000000  0.81289700  0.71063300  1
  Mg  Mg26  1  0.25000000  0.18676300  0.62271200  1
  Mg  Mg27  1  0.25000000  0.54424600  0.64650900  1
  Mg  Mg28  1  0.75000000  0.09895100  0.66300200  1
  Mg  Mg29  1  0.75000000  0.74146800  0.63920500  1
  Mg  Mg30  1  0.25000000  0.11533400  0.55128400  1
  Mg  Mg31  1  0.25000000  0.47281800  0.57508100  1
  Mg  Mg32  1  0.75000000  0.02752300  0.59157300  1
  Mg  Mg33  1  0.75000000  0.67003900  0.56777600  1
  Mg  Mg34  1  0.25000000  0.04390600  0.47985500  1
  Mg  Mg35  1  0.25000000  0.40138900  0.50365200  1
  Mg  Mg36  1  0.75000000  0.95609400  0.52014500  1
  Mg  Mg37  1  0.75000000  0.59861100  0.49634800  1
  Mg  Mg38  1  0.25000000  0.97247700  0.40842700  1
  Mg  Mg39  1  0.25000000  0.32996100  0.43222400  1
  Mg  Mg40  1  0.75000000  0.88466600  0.44871600  1
  Mg  Mg41  1  0.75000000  0.52718200  0.42491900  1
  Mg  Mg42  1  0.25000000  0.90104900  0.33699800  1
  Mg  Mg43  1  0.25000000  0.25853200  0.36079500  1
  Mg  Mg44  1  0.75000000  0.81323700  0.37728800  1
  Mg  Mg45  1  0.75000000  0.45575400  0.35349100  1
  Mg  Mg46  1  0.25000000  0.82962000  0.26557000  1
  Mg  Mg47  1  0.25000000  0.18710300  0.28936700  1
  Mg  Mg48  1  0.75000000  0.74180800  0.30585900  1
  Mg  Mg49  1  0.75000000  0.38432500  0.28206200  1
  Mg  Mg50  1  0.25000000  0.75819200  0.19414100  1
  Mg  Mg51  1  0.25000000  0.11567500  0.21793800  1
  Mg  Mg52  1  0.75000000  0.67038000  0.23443000  1
  Mg  Mg53  1  0.75000000  0.31289700  0.21063300  1
