# generated using pymatgen
data_Mg12As7
_symmetry_space_group_name_H-M   'P 1'
_cell_length_a   17.64245218
_cell_length_b   17.64245173
_cell_length_c   51.43614400
_cell_angle_alpha   90.00000000
_cell_angle_beta   80.12503724
_cell_angle_gamma   60.00000132
_symmetry_Int_Tables_number   1
_chemical_formula_structural   Mg12As7
_chemical_formula_sum   'Mg192 As112'
_cell_volume   13590.32609305
_cell_formula_units_Z   16
loop_
 _symmetry_equiv_pos_site_id
 _symmetry_equiv_pos_as_xyz
  1  'x, y, z'
loop_
 _atom_site_type_symbol
 _atom_site_label
 _atom_site_symmetry_multiplicity
 _atom_site_fract_x
 _atom_site_fract_y
 _atom_site_fract_z
 _atom_site_occupancy
  Mg  Mg0  1  0.62668100  0.23216800  0.28997300  1
  Mg  Mg1  1  0.63445400  0.44760300  0.28738200  1
  Mg  Mg2  1  0.08657400  0.86641600  0.22284800  1
  Mg  Mg3  1  0.89951900  0.71321600  0.28738200  1
  Mg  Mg4  1  0.86510000  0.84434600  0.21854400  1
  Mg  Mg5  1  0.87445000  0.21041100  0.28551200  1
  Mg  Mg6  1  0.84780500  0.61833300  0.21408300  1
  Mg  Mg7  1  0.08312600  0.62113800  0.21595300  1
  Mg  Mg8  1  0.37883300  0.45794600  0.29427700  1
  Mg  Mg9  1  0.85218800  0.10734700  0.22284800  1
  Mg  Mg10  1  0.12013600  0.70803400  0.28997300  1
  Mg  Mg11  1  0.89858400  0.95134200  0.28551200  1
  Mg  Mg12  1  0.28218000  0.87374000  0.32431300  1
  Mg  Mg13  1  0.27440700  0.65830500  0.32690400  1
  Mg  Mg14  1  0.25085800  0.52520500  0.24858000  1
  Mg  Mg15  1  0.00934200  0.39269100  0.32690400  1
  Mg  Mg16  1  0.01027700  0.15456500  0.32877400  1
  Mg  Mg17  1  0.78872500  0.39787400  0.32431300  1
  Mg  Mg18  1  0.48524500  0.28427400  0.24858000  1
  Mg  Mg19  1  0.53002800  0.64796200  0.32000900  1
  Mg  Mg20  1  0.25430600  0.77048300  0.25547600  1
  Mg  Mg21  1  0.48962700  0.77328800  0.25734500  1
  Mg  Mg22  1  0.03441100  0.89549600  0.32877400  1
  Mg  Mg23  1  0.47233200  0.54727500  0.25288400  1
  Mg  Mg24  1  0.34096600  0.87502500  0.21854400  1
  Mg  Mg25  1  0.34874000  0.09046000  0.21595300  1
  Mg  Mg26  1  0.37228800  0.22355900  0.29427700  1
  Mg  Mg27  1  0.61380500  0.35607300  0.21595300  1
  Mg  Mg28  1  0.15081500  0.20148900  0.28997300  1
  Mg  Mg29  1  0.58873600  0.85326800  0.21408300  1
  Mg  Mg30  1  0.13351900  0.97547600  0.28551200  1
  Mg  Mg31  1  0.36884100  0.97828100  0.28738200  1
  Mg  Mg32  1  0.09311900  0.10080300  0.22284800  1
  Mg  Mg33  1  0.13790200  0.46449000  0.29427700  1
  Mg  Mg34  1  0.83442200  0.35089100  0.21854400  1
  Mg  Mg35  1  0.61287000  0.59419900  0.21408300  1
  Mg  Mg36  1  0.99646600  0.51659700  0.25288400  1
  Mg  Mg37  1  0.98869300  0.30116200  0.25547600  1
  Mg  Mg38  1  0.53657300  0.88234800  0.32000900  1
  Mg  Mg39  1  0.72362700  0.03554800  0.25547600  1
  Mg  Mg40  1  0.72456200  0.79742200  0.25734500  1
  Mg  Mg41  1  0.50301000  0.04073100  0.25288400  1
  Mg  Mg42  1  0.77095900  0.64141700  0.32000900  1
  Mg  Mg43  1  0.24431400  0.29081900  0.24858000  1
  Mg  Mg44  1  0.54002000  0.12762600  0.32690400  1
  Mg  Mg45  1  0.77534200  0.13043100  0.32877400  1
  Mg  Mg46  1  0.74869600  0.53835300  0.25734500  1
  Mg  Mg47  1  0.75804600  0.90441800  0.32431300  1
  Mg  Mg48  1  0.19810900  0.94645300  0.43283000  1
  Mg  Mg49  1  0.20588300  0.16188800  0.43023900  1
  Mg  Mg50  1  0.65800300  0.58070200  0.36570600  1
  Mg  Mg51  1  0.47094800  0.42750200  0.43023900  1
  Mg  Mg52  1  0.43652900  0.55863200  0.36140100  1
  Mg  Mg53  1  0.44587900  0.92469700  0.42836900  1
  Mg  Mg54  1  0.41923400  0.33261900  0.35694000  1
  Mg  Mg55  1  0.65455500  0.33542400  0.35881000  1
  Mg  Mg56  1  0.95026100  0.17223100  0.43713400  1
  Mg  Mg57  1  0.42361600  0.82163300  0.36570600  1
  Mg  Mg58  1  0.69156500  0.42231900  0.43283000  1
  Mg  Mg59  1  0.47001300  0.66562800  0.42836900  1
  Mg  Mg60  1  0.85360900  0.58802500  0.46717000  1
  Mg  Mg61  1  0.84583500  0.37259000  0.46976100  1
  Mg  Mg62  1  0.82228700  0.23949100  0.39143700  1
  Mg  Mg63  1  0.58077000  0.10697700  0.46976100  1
  Mg  Mg64  1  0.58170500  0.86885100  0.47163100  1
  Mg  Mg65  1  0.36015300  0.11215900  0.46717000  1
  Mg  Mg66  1  0.05667300  0.99856000  0.39143700  1
  Mg  Mg67  1  0.10145700  0.36224700  0.46286600  1
  Mg  Mg68  1  0.82573500  0.48476900  0.39833300  1
  Mg  Mg69  1  0.06105600  0.48757400  0.40020300  1
  Mg  Mg70  1  0.60583900  0.60978200  0.47163100  1
  Mg  Mg71  1  0.04376000  0.26156100  0.39574200  1
  Mg  Mg72  1  0.91239500  0.58931100  0.36140100  1
  Mg  Mg73  1  0.92016800  0.80474500  0.35881000  1
  Mg  Mg74  1  0.94371700  0.93784500  0.43713400  1
  Mg  Mg75  1  0.18523300  0.07035900  0.35881000  1
  Mg  Mg76  1  0.72224300  0.91577500  0.43283000  1
  Mg  Mg77  1  0.16016500  0.56755400  0.35694000  1
  Mg  Mg78  1  0.70494800  0.68976200  0.42836900  1
  Mg  Mg79  1  0.94026900  0.69256700  0.43023900  1
  Mg  Mg80  1  0.66454700  0.81508900  0.36570600  1
  Mg  Mg81  1  0.70933000  0.17877600  0.43713400  1
  Mg  Mg82  1  0.40585100  0.06517700  0.36140100  1
  Mg  Mg83  1  0.18429900  0.30848500  0.35694000  1
  Mg  Mg84  1  0.56789400  0.23088200  0.39574200  1
  Mg  Mg85  1  0.56012100  0.01544800  0.39833300  1
  Mg  Mg86  1  0.10800100  0.59663400  0.46286600  1
  Mg  Mg87  1  0.29505600  0.74983400  0.39833300  1
  Mg  Mg88  1  0.29599100  0.51170800  0.40020300  1
  Mg  Mg89  1  0.07443900  0.75501600  0.39574200  1
  Mg  Mg90  1  0.34238800  0.35570300  0.46286600  1
  Mg  Mg91  1  0.81574200  0.00510400  0.39143700  1
  Mg  Mg92  1  0.11144900  0.84191200  0.46976100  1
  Mg  Mg93  1  0.34677000  0.84471700  0.47163100  1
  Mg  Mg94  1  0.32012500  0.25263900  0.40020300  1
  Mg  Mg95  1  0.32947500  0.61870400  0.46717000  1
  Mg  Mg96  1  0.76953800  0.66073900  0.57568700  1
  Mg  Mg97  1  0.77731100  0.87617400  0.57309600  1
  Mg  Mg98  1  0.22943100  0.29498800  0.50856300  1
  Mg  Mg99  1  0.04237600  0.14178700  0.57309600  1
  Mg  Mg100  1  0.00795800  0.27291800  0.50425800  1
  Mg  Mg101  1  0.01730700  0.63898300  0.57122600  1
  Mg  Mg102  1  0.99066200  0.04690500  0.49979700  1
  Mg  Mg103  1  0.22598400  0.04971000  0.50166700  1
  Mg  Mg104  1  0.52169000  0.88651700  0.57999100  1
  Mg  Mg105  1  0.99504500  0.53591900  0.50856300  1
  Mg  Mg106  1  0.26299300  0.13660500  0.57568700  1
  Mg  Mg107  1  0.04144100  0.37991400  0.57122600  1
  Mg  Mg108  1  0.42503700  0.30231100  0.61002700  1
  Mg  Mg109  1  0.41726400  0.08687600  0.61261800  1
  Mg  Mg110  1  0.39371500  0.95377700  0.53429400  1
  Mg  Mg111  1  0.15219900  0.82126300  0.61261800  1
  Mg  Mg112  1  0.15313400  0.58313600  0.61448800  1
  Mg  Mg113  1  0.93158200  0.82644500  0.61002700  1
  Mg  Mg114  1  0.62810200  0.71284600  0.53429400  1
  Mg  Mg115  1  0.67288500  0.07653300  0.60572300  1
  Mg  Mg116  1  0.39716300  0.19905500  0.54119000  1
  Mg  Mg117  1  0.63248500  0.20186000  0.54306000  1
  Mg  Mg118  1  0.17726800  0.32406800  0.61448800  1
  Mg  Mg119  1  0.61518900  0.97584700  0.53859900  1
  Mg  Mg120  1  0.48382400  0.30359600  0.50425800  1
  Mg  Mg121  1  0.49159700  0.51903100  0.50166700  1
  Mg  Mg122  1  0.51514600  0.65213100  0.57999100  1
  Mg  Mg123  1  0.75666200  0.78464500  0.50166700  1
  Mg  Mg124  1  0.29367200  0.63006100  0.57568700  1
  Mg  Mg125  1  0.73159300  0.28184000  0.49979700  1
  Mg  Mg126  1  0.27637600  0.40404800  0.57122600  1
  Mg  Mg127  1  0.51169800  0.40685200  0.57309600  1
  Mg  Mg128  1  0.23597600  0.52937400  0.50856300  1
  Mg  Mg129  1  0.28075900  0.89306200  0.57999100  1
  Mg  Mg130  1  0.97727900  0.77946200  0.50425800  1
  Mg  Mg131  1  0.75572700  0.02277100  0.49979700  1
  Mg  Mg132  1  0.13932300  0.94516800  0.53859900  1
  Mg  Mg133  1  0.13155000  0.72973300  0.54119000  1
  Mg  Mg134  1  0.67943000  0.31092000  0.60572300  1
  Mg  Mg135  1  0.86648500  0.46412000  0.54119000  1
  Mg  Mg136  1  0.86742000  0.22599400  0.54306000  1
  Mg  Mg137  1  0.64586800  0.46930200  0.53859900  1
  Mg  Mg138  1  0.91381600  0.06998900  0.60572300  1
  Mg  Mg139  1  0.38717100  0.71939000  0.53429400  1
  Mg  Mg140  1  0.68287700  0.55619800  0.61261800  1
  Mg  Mg141  1  0.91819900  0.55900200  0.61448800  1
  Mg  Mg142  1  0.89155400  0.96692500  0.54306000  1
  Mg  Mg143  1  0.90090300  0.33298900  0.61002700  1
  Mg  Mg144  1  0.34096600  0.37502500  0.71854400  1
  Mg  Mg145  1  0.34874000  0.59046000  0.71595300  1
  Mg  Mg146  1  0.80086000  0.00927300  0.65142000  1
  Mg  Mg147  1  0.61380500  0.85607300  0.71595300  1
  Mg  Mg148  1  0.57938600  0.98720400  0.64711600  1
  Mg  Mg149  1  0.58873600  0.35326800  0.71408300  1
  Mg  Mg150  1  0.56209100  0.76119100  0.64265500  1
  Mg  Mg151  1  0.79741200  0.76399500  0.64452400  1
  Mg  Mg152  1  0.09311900  0.60080300  0.72284800  1
  Mg  Mg153  1  0.56647300  0.25020400  0.65142000  1
  Mg  Mg154  1  0.83442200  0.85089100  0.71854400  1
  Mg  Mg155  1  0.61287000  0.09419900  0.71408300  1
  Mg  Mg156  1  0.99646600  0.01659700  0.75288400  1
  Mg  Mg157  1  0.98869300  0.80116200  0.75547600  1
  Mg  Mg158  1  0.96514400  0.66806200  0.67715200  1
  Mg  Mg159  1  0.72362700  0.53554800  0.75547600  1
  Mg  Mg160  1  0.72456200  0.29742200  0.75734500  1
  Mg  Mg161  1  0.50301000  0.54073100  0.75288400  1
  Mg  Mg162  1  0.19953100  0.42713100  0.67715200  1
  Mg  Mg163  1  0.24431400  0.79081900  0.74858000  1
  Mg  Mg164  1  0.96859200  0.91334100  0.68404700  1
  Mg  Mg165  1  0.20391300  0.91614500  0.68591700  1
  Mg  Mg166  1  0.74869600  0.03835300  0.75734500  1
  Mg  Mg167  1  0.18661800  0.69013200  0.68145600  1
  Mg  Mg168  1  0.05525200  0.01788200  0.64711600  1
  Mg  Mg169  1  0.06302600  0.23331700  0.64452400  1
  Mg  Mg170  1  0.08657400  0.36641600  0.72284800  1
  Mg  Mg171  1  0.32809100  0.49893000  0.64452400  1
  Mg  Mg172  1  0.86510000  0.34434600  0.71854400  1
  Mg  Mg173  1  0.30302200  0.99612600  0.64265500  1
  Mg  Mg174  1  0.84780500  0.11833300  0.71408300  1
  Mg  Mg175  1  0.08312600  0.12113800  0.71595300  1
  Mg  Mg176  1  0.80740400  0.24366000  0.65142000  1
  Mg  Mg177  1  0.85218800  0.60734700  0.72284800  1
  Mg  Mg178  1  0.54870800  0.49374800  0.64711600  1
  Mg  Mg179  1  0.32715600  0.73705700  0.64265500  1
  Mg  Mg180  1  0.71075200  0.65945400  0.68145600  1
  Mg  Mg181  1  0.70297800  0.44401900  0.68404700  1
  Mg  Mg182  1  0.25085800  0.02520500  0.74858000  1
  Mg  Mg183  1  0.43791300  0.17840600  0.68404700  1
  Mg  Mg184  1  0.43884800  0.94027900  0.68591700  1
  Mg  Mg185  1  0.21729600  0.18358800  0.68145600  1
  Mg  Mg186  1  0.48524500  0.78427400  0.74858000  1
  Mg  Mg187  1  0.95859900  0.43367600  0.67715200  1
  Mg  Mg188  1  0.25430600  0.27048300  0.75547600  1
  Mg  Mg189  1  0.48962700  0.27328800  0.75734500  1
  Mg  Mg190  1  0.46298200  0.68121000  0.68591700  1
  Mg  Mg191  1  0.47233200  0.04727500  0.75288400  1
  As  As192  1  0.82104200  0.63069500  0.26827200  1
  As  As193  1  0.83781900  0.49730600  0.34601300  1
  As  As194  1  0.83466300  0.23783800  0.33970100  1
  As  As195  1  0.85675600  0.96574400  0.33970100  1
  As  As196  1  0.07419800  0.36807000  0.27458500  1
  As  As197  1  0.30210500  0.61807000  0.27458500  1
  As  As198  1  0.08781900  0.47521300  0.34601300  1
  As  As199  1  0.07104200  0.60860100  0.26827200  1
  As  As200  1  0.07419800  0.86807000  0.27458500  1
  As  As201  1  0.05210500  0.14016300  0.27458500  1
  As  As202  1  0.83466300  0.73783800  0.33970100  1
  As  As203  1  0.60675600  0.48783800  0.33970100  1
  As  As204  1  0.31157300  0.87438200  0.27142900  1
  As  As205  1  0.59728800  0.73152500  0.34285700  1
  As  As206  1  0.81157300  0.37438200  0.27142900  1
  As  As207  1  0.81157300  0.87438200  0.27142900  1
  As  As208  1  0.10675600  0.98783800  0.33970100  1
  As  As209  1  0.55210500  0.14016300  0.27458500  1
  As  As210  1  0.54894800  0.88069500  0.26827200  1
  As  As211  1  0.57104200  0.60860100  0.26827200  1
  As  As212  1  0.35991300  0.72521300  0.34601300  1
  As  As213  1  0.58781900  0.97521300  0.34601300  1
  As  As214  1  0.80210500  0.11807000  0.27458500  1
  As  As215  1  0.35675600  0.96574400  0.33970100  1
  As  As216  1  0.35991300  0.22521300  0.34601300  1
  As  As217  1  0.33781900  0.49730600  0.34601300  1
  As  As218  1  0.54894800  0.38069500  0.26827200  1
  As  As219  1  0.32104200  0.13069500  0.26827200  1
  As  As220  1  0.59728800  0.23152500  0.34285700  1
  As  As221  1  0.31157300  0.37438200  0.27142900  1
  As  As222  1  0.09728800  0.73152500  0.34285700  1
  As  As223  1  0.09728800  0.23152500  0.34285700  1
  As  As224  1  0.39247100  0.34498000  0.41112900  1
  As  As225  1  0.40924700  0.21159200  0.48887100  1
  As  As226  1  0.40609100  0.95212300  0.48255800  1
  As  As227  1  0.42818500  0.68003000  0.48255800  1
  As  As228  1  0.64562700  0.08235500  0.41744200  1
  As  As229  1  0.87353300  0.33235500  0.41744200  1
  As  As230  1  0.65924700  0.18949800  0.48887100  1
  As  As231  1  0.64247100  0.32288700  0.41112900  1
  As  As232  1  0.64562700  0.58235500  0.41744200  1
  As  As233  1  0.62353300  0.85444900  0.41744200  1
  As  As234  1  0.40609100  0.45212300  0.48255800  1
  As  As235  1  0.17818500  0.20212300  0.48255800  1
  As  As236  1  0.88300200  0.58866800  0.41428600  1
  As  As237  1  0.16871600  0.44581100  0.48571400  1
  As  As238  1  0.38300200  0.08866800  0.41428600  1
  As  As239  1  0.38300200  0.58866800  0.41428600  1
  As  As240  1  0.67818500  0.70212300  0.48255800  1
  As  As241  1  0.12353300  0.85444900  0.41744200  1
  As  As242  1  0.12037700  0.59498000  0.41112900  1
  As  As243  1  0.14247100  0.32288700  0.41112900  1
  As  As244  1  0.93134100  0.43949800  0.48887100  1
  As  As245  1  0.15924700  0.68949800  0.48887100  1
  As  As246  1  0.37353300  0.83235500  0.41744200  1
  As  As247  1  0.92818500  0.68003000  0.48255800  1
  As  As248  1  0.93134100  0.93949800  0.48887100  1
  As  As249  1  0.90924700  0.21159200  0.48887100  1
  As  As250  1  0.12037700  0.09498000  0.41112900  1
  As  As251  1  0.89247100  0.84498000  0.41112900  1
  As  As252  1  0.16871600  0.94581100  0.48571400  1
  As  As253  1  0.88300200  0.08866800  0.41428600  1
  As  As254  1  0.66871600  0.44581100  0.48571400  1
  As  As255  1  0.66871600  0.94581100  0.48571400  1
  As  As256  1  0.96389900  0.05926600  0.55398700  1
  As  As257  1  0.98067600  0.92587800  0.63172800  1
  As  As258  1  0.97752000  0.66640900  0.62541500  1
  As  As259  1  0.99961400  0.39431500  0.62541500  1
  As  As260  1  0.21705500  0.79664100  0.56029900  1
  As  As261  1  0.44496200  0.04664100  0.56029900  1
  As  As262  1  0.23067600  0.90378400  0.63172800  1
  As  As263  1  0.21389900  0.03717200  0.55398700  1
  As  As264  1  0.21705500  0.29664100  0.56029900  1
  As  As265  1  0.19496200  0.56873500  0.56029900  1
  As  As266  1  0.97752000  0.16640900  0.62541500  1
  As  As267  1  0.74961400  0.91640900  0.62541500  1
  As  As268  1  0.45443000  0.30295400  0.55714300  1
  As  As269  1  0.74014500  0.16009700  0.62857100  1
  As  As270  1  0.95443000  0.80295400  0.55714300  1
  As  As271  1  0.95443000  0.30295400  0.55714300  1
  As  As272  1  0.24961400  0.41640900  0.62541500  1
  As  As273  1  0.69496200  0.56873500  0.56029900  1
  As  As274  1  0.69180500  0.30926600  0.55398700  1
  As  As275  1  0.71389900  0.03717200  0.55398700  1
  As  As276  1  0.50277000  0.15378400  0.63172800  1
  As  As277  1  0.73067600  0.40378400  0.63172800  1
  As  As278  1  0.94496200  0.54664100  0.56029900  1
  As  As279  1  0.49961400  0.39431500  0.62541500  1
  As  As280  1  0.50277000  0.65378400  0.63172800  1
  As  As281  1  0.48067600  0.92587800  0.63172800  1
  As  As282  1  0.69180500  0.80926600  0.55398700  1
  As  As283  1  0.46389900  0.55926600  0.55398700  1
  As  As284  1  0.74014500  0.66009700  0.62857100  1
  As  As285  1  0.45443000  0.80295400  0.55714300  1
  As  As286  1  0.24014500  0.16009700  0.62857100  1
  As  As287  1  0.24014500  0.66009700  0.62857100  1
  As  As288  1  0.53532800  0.77355200  0.69684400  1
  As  As289  1  0.78848400  0.51092700  0.70315600  1
  As  As290  1  0.01639000  0.76092700  0.70315600  1
  As  As291  1  0.78532800  0.75145800  0.69684400  1
  As  As292  1  0.78848400  0.01092700  0.70315600  1
  As  As293  1  0.76639000  0.28302100  0.70315600  1
  As  As294  1  0.02585900  0.01723900  0.70000000  1
  As  As295  1  0.52585900  0.51723900  0.70000000  1
  As  As296  1  0.52585900  0.01723900  0.70000000  1
  As  As297  1  0.26639000  0.28302100  0.70315600  1
  As  As298  1  0.26323400  0.02355200  0.69684400  1
  As  As299  1  0.28532800  0.75145800  0.69684400  1
  As  As300  1  0.51639000  0.26092700  0.70315600  1
  As  As301  1  0.26323400  0.52355200  0.69684400  1
  As  As302  1  0.03532800  0.27355200  0.69684400  1
  As  As303  1  0.02585900  0.51723900  0.70000000  1
