# generated using pymatgen
data_Mg11Cd4
_symmetry_space_group_name_H-M   'P 1'
_cell_length_a   5.12256600
_cell_length_b   10.92353141
_cell_length_c   41.35582400
_cell_angle_alpha   82.41091037
_cell_angle_beta   90.00000000
_cell_angle_gamma   90.00000000
_symmetry_Int_Tables_number   1
_chemical_formula_structural   Mg11Cd4
_chemical_formula_sum   'Mg44 Cd16'
_cell_volume   2293.85748281
_cell_formula_units_Z   4
loop_
 _symmetry_equiv_pos_site_id
 _symmetry_equiv_pos_as_xyz
  1  'x, y, z'
loop_
 _atom_site_type_symbol
 _atom_site_label
 _atom_site_symmetry_multiplicity
 _atom_site_fract_x
 _atom_site_fract_y
 _atom_site_fract_z
 _atom_site_occupancy
  Mg  Mg0  1  0.25000000  0.51502000  0.25000000  1
  Mg  Mg1  1  0.75000000  0.17908700  0.25000000  1
  Mg  Mg2  1  0.25000000  0.74399000  0.28816200  1
  Mg  Mg3  1  0.25000000  0.24369000  0.28876100  1
  Mg  Mg4  1  0.25000000  0.97655800  0.32692300  1
  Mg  Mg5  1  0.75000000  0.41165600  0.28876100  1
  Mg  Mg6  1  0.75000000  0.91195600  0.28816200  1
  Mg  Mg7  1  0.75000000  0.64062600  0.32692300  1
  Mg  Mg8  1  0.25000000  0.20552800  0.36508500  1
  Mg  Mg9  1  0.25000000  0.70522800  0.36568500  1
  Mg  Mg10  1  0.25000000  0.43809700  0.40384600  1
  Mg  Mg11  1  0.75000000  0.87319400  0.36568500  1
  Mg  Mg12  1  0.75000000  0.37349400  0.36508500  1
  Mg  Mg13  1  0.75000000  0.10216400  0.40384600  1
  Mg  Mg14  1  0.25000000  0.66706700  0.44200800  1
  Mg  Mg15  1  0.25000000  0.16676700  0.44260800  1
  Mg  Mg16  1  0.25000000  0.89963500  0.48076900  1
  Mg  Mg17  1  0.75000000  0.33473300  0.44260800  1
  Mg  Mg18  1  0.75000000  0.83503300  0.44200800  1
  Mg  Mg19  1  0.75000000  0.56370300  0.48076900  1
  Mg  Mg20  1  0.25000000  0.12860500  0.51893100  1
  Mg  Mg21  1  0.25000000  0.62830500  0.51953100  1
  Mg  Mg22  1  0.25000000  0.36117400  0.55769200  1
  Mg  Mg23  1  0.75000000  0.79627100  0.51953100  1
  Mg  Mg24  1  0.75000000  0.29657100  0.51893100  1
  Mg  Mg25  1  0.75000000  0.02524100  0.55769200  1
  Mg  Mg26  1  0.25000000  0.59014300  0.59585400  1
  Mg  Mg27  1  0.25000000  0.08984400  0.59645400  1
  Mg  Mg28  1  0.25000000  0.82271200  0.63461500  1
  Mg  Mg29  1  0.75000000  0.25781000  0.59645400  1
  Mg  Mg30  1  0.75000000  0.75811000  0.59585400  1
  Mg  Mg31  1  0.75000000  0.48678000  0.63461500  1
  Mg  Mg32  1  0.25000000  0.05168200  0.67277700  1
  Mg  Mg33  1  0.25000000  0.55138200  0.67337700  1
  Mg  Mg34  1  0.25000000  0.28425100  0.71153800  1
  Mg  Mg35  1  0.75000000  0.71934800  0.67337700  1
  Mg  Mg36  1  0.75000000  0.21964800  0.67277700  1
  Mg  Mg37  1  0.75000000  0.94831800  0.71153800  1
  Mg  Mg38  1  0.25000000  0.51322000  0.74970000  1
  Mg  Mg39  1  0.25000000  0.01292000  0.75030000  1
  Mg  Mg40  1  0.25000000  0.74578900  0.78846200  1
  Mg  Mg41  1  0.75000000  0.18088700  0.75030000  1
  Mg  Mg42  1  0.75000000  0.68118700  0.74970000  1
  Mg  Mg43  1  0.75000000  0.40985700  0.78846200  1
  Cd  Cd44  1  0.25000000  0.01372000  0.25000000  1
  Cd  Cd45  1  0.75000000  0.68038700  0.25000000  1
  Cd  Cd46  1  0.25000000  0.47525900  0.32692300  1
  Cd  Cd47  1  0.75000000  0.14192500  0.32692300  1
  Cd  Cd48  1  0.25000000  0.93679700  0.40384600  1
  Cd  Cd49  1  0.75000000  0.60346400  0.40384600  1
  Cd  Cd50  1  0.25000000  0.39833600  0.48076900  1
  Cd  Cd51  1  0.75000000  0.06500200  0.48076900  1
  Cd  Cd52  1  0.25000000  0.85987400  0.55769200  1
  Cd  Cd53  1  0.75000000  0.52654100  0.55769200  1
  Cd  Cd54  1  0.25000000  0.32141300  0.63461500  1
  Cd  Cd55  1  0.75000000  0.98807900  0.63461500  1
  Cd  Cd56  1  0.25000000  0.78295100  0.71153800  1
  Cd  Cd57  1  0.75000000  0.44961800  0.71153800  1
  Cd  Cd58  1  0.25000000  0.24448900  0.78846200  1
  Cd  Cd59  1  0.75000000  0.91115600  0.78846200  1
