# generated using pymatgen
data_Tb10Mg17
_symmetry_space_group_name_H-M   'P 1'
_cell_length_a   6.08248400
_cell_length_b   9.78730500
_cell_length_c   42.14068500
_cell_angle_alpha   90.00000000
_cell_angle_beta   90.00000000
_cell_angle_gamma   90.00000000
_symmetry_Int_Tables_number   1
_chemical_formula_structural   Tb10Mg17
_chemical_formula_sum   'Tb20 Mg34'
_cell_volume   2508.68243123
_cell_formula_units_Z   2
loop_
 _symmetry_equiv_pos_site_id
 _symmetry_equiv_pos_as_xyz
  1  'x, y, z'
loop_
 _atom_site_type_symbol
 _atom_site_label
 _atom_site_symmetry_multiplicity
 _atom_site_fract_x
 _atom_site_fract_y
 _atom_site_fract_z
 _atom_site_occupancy
  Tb  Tb0  1  0.12852300  0.56262100  0.23958300  1
  Tb  Tb1  1  0.62852300  0.06262100  0.19791700  1
  Tb  Tb2  1  0.62852300  0.43737900  0.19791700  1
  Tb  Tb3  1  0.12852300  0.93737900  0.23958300  1
  Tb  Tb4  1  0.62852300  0.56262100  0.36458300  1
  Tb  Tb5  1  0.12852300  0.06262100  0.32291700  1
  Tb  Tb6  1  0.12852300  0.43737900  0.32291700  1
  Tb  Tb7  1  0.62852300  0.93737900  0.36458300  1
  Tb  Tb8  1  0.12852300  0.56262100  0.48958300  1
  Tb  Tb9  1  0.62852300  0.06262100  0.44791700  1
  Tb  Tb10  1  0.62852300  0.43737900  0.44791700  1
  Tb  Tb11  1  0.12852300  0.93737900  0.48958300  1
  Tb  Tb12  1  0.62852300  0.56262100  0.61458300  1
  Tb  Tb13  1  0.12852300  0.06262100  0.57291700  1
  Tb  Tb14  1  0.12852300  0.43737900  0.57291700  1
  Tb  Tb15  1  0.62852300  0.93737900  0.61458300  1
  Tb  Tb16  1  0.12852300  0.56262100  0.73958300  1
  Tb  Tb17  1  0.62852300  0.06262100  0.69791700  1
  Tb  Tb18  1  0.62852300  0.43737900  0.69791700  1
  Tb  Tb19  1  0.12852300  0.93737900  0.73958300  1
  Mg  Mg20  1  0.62852300  0.50000000  0.28125000  1
  Mg  Mg21  1  0.62852300  0.00000000  0.28125000  1
  Mg  Mg22  1  0.62852300  0.75000000  0.23840900  1
  Mg  Mg23  1  0.37147700  0.25000000  0.25982900  1
  Mg  Mg24  1  0.88556900  0.25000000  0.25982900  1
  Mg  Mg25  1  0.37147700  0.75000000  0.30267100  1
  Mg  Mg26  1  0.88556900  0.75000000  0.30267100  1
  Mg  Mg27  1  0.12852300  0.25000000  0.19909100  1
  Mg  Mg28  1  0.12852300  0.50000000  0.40625000  1
  Mg  Mg29  1  0.12852300  0.00000000  0.40625000  1
  Mg  Mg30  1  0.12852300  0.75000000  0.36340900  1
  Mg  Mg31  1  0.87147700  0.25000000  0.38482900  1
  Mg  Mg32  1  0.38556900  0.25000000  0.38482900  1
  Mg  Mg33  1  0.87147700  0.75000000  0.42767100  1
  Mg  Mg34  1  0.38556900  0.75000000  0.42767100  1
  Mg  Mg35  1  0.62852300  0.25000000  0.32409100  1
  Mg  Mg36  1  0.62852300  0.50000000  0.53125000  1
  Mg  Mg37  1  0.62852300  0.00000000  0.53125000  1
  Mg  Mg38  1  0.62852300  0.75000000  0.48840900  1
  Mg  Mg39  1  0.37147700  0.25000000  0.50982900  1
  Mg  Mg40  1  0.88556900  0.25000000  0.50982900  1
  Mg  Mg41  1  0.37147700  0.75000000  0.55267100  1
  Mg  Mg42  1  0.88556900  0.75000000  0.55267100  1
  Mg  Mg43  1  0.12852300  0.25000000  0.44909100  1
  Mg  Mg44  1  0.12852300  0.50000000  0.65625000  1
  Mg  Mg45  1  0.12852300  0.00000000  0.65625000  1
  Mg  Mg46  1  0.12852300  0.75000000  0.61340900  1
  Mg  Mg47  1  0.87147700  0.25000000  0.63482900  1
  Mg  Mg48  1  0.38556900  0.25000000  0.63482900  1
  Mg  Mg49  1  0.87147700  0.75000000  0.67767100  1
  Mg  Mg50  1  0.38556900  0.75000000  0.67767100  1
  Mg  Mg51  1  0.62852300  0.25000000  0.57409100  1
  Mg  Mg52  1  0.62852300  0.75000000  0.73840900  1
  Mg  Mg53  1  0.12852300  0.25000000  0.69909100  1
