# generated using pymatgen
data_MgZn
_symmetry_space_group_name_H-M   'P 1'
_cell_length_a   3.26915800
_cell_length_b   6.65860591
_cell_length_c   43.27254900
_cell_angle_alpha   92.06015934
_cell_angle_beta   90.00000000
_cell_angle_gamma   90.00000000
_symmetry_Int_Tables_number   1
_chemical_formula_structural   MgZn
_chemical_formula_sum   'Mg16 Zn16'
_cell_volume   941.34949986
_cell_formula_units_Z   16
loop_
 _symmetry_equiv_pos_site_id
 _symmetry_equiv_pos_as_xyz
  1  'x, y, z'
loop_
 _atom_site_type_symbol
 _atom_site_label
 _atom_site_symmetry_multiplicity
 _atom_site_fract_x
 _atom_site_fract_y
 _atom_site_fract_z
 _atom_site_occupancy
  Mg  Mg0  1  0.50000000  0.77208200  0.19546200  1
  Mg  Mg1  1  0.50000000  0.76637900  0.26607600  1
  Mg  Mg2  1  0.50000000  0.31054400  0.27238500  1
  Mg  Mg3  1  0.50000000  0.30484100  0.34299900  1
  Mg  Mg4  1  0.50000000  0.84900500  0.34930800  1
  Mg  Mg5  1  0.50000000  0.84330200  0.41992200  1
  Mg  Mg6  1  0.50000000  0.38746700  0.42623200  1
  Mg  Mg7  1  0.50000000  0.38176400  0.49684500  1
  Mg  Mg8  1  0.50000000  0.92592800  0.50315500  1
  Mg  Mg9  1  0.50000000  0.92022500  0.57376800  1
  Mg  Mg10  1  0.50000000  0.46439000  0.58007800  1
  Mg  Mg11  1  0.50000000  0.45868700  0.65069200  1
  Mg  Mg12  1  0.50000000  0.00285100  0.65700100  1
  Mg  Mg13  1  0.50000000  0.99714900  0.72761500  1
  Mg  Mg14  1  0.50000000  0.54131300  0.73392400  1
  Mg  Mg15  1  0.50000000  0.53561000  0.80453800  1
  Zn  Zn16  1  1.00000000  0.05051900  0.23523900  1
  Zn  Zn17  1  0.00000000  0.48794300  0.22630000  1
  Zn  Zn18  1  0.00000000  0.58898000  0.31216200  1
  Zn  Zn19  1  0.00000000  0.02640400  0.30322300  1
  Zn  Zn20  1  0.00000000  0.12744200  0.38908500  1
  Zn  Zn21  1  0.00000000  0.56486600  0.38014600  1
  Zn  Zn22  1  0.00000000  0.66590300  0.46600800  1
  Zn  Zn23  1  0.00000000  0.10332700  0.45706900  1
  Zn  Zn24  1  0.00000000  0.20436500  0.54293100  1
  Zn  Zn25  1  0.00000000  0.64178900  0.53399200  1
  Zn  Zn26  1  0.00000000  0.74282600  0.61985400  1
  Zn  Zn27  1  0.00000000  0.18025000  0.61091500  1
  Zn  Zn28  1  0.00000000  0.28128800  0.69677700  1
  Zn  Zn29  1  0.00000000  0.71871200  0.68783800  1
  Zn  Zn30  1  0.00000000  0.81975000  0.77370000  1
  Zn  Zn31  1  0.00000000  0.25717400  0.76476100  1
