# generated using pymatgen
data_Mg56Ir83
_symmetry_space_group_name_H-M   'P 1'
_cell_length_a   10.02721118
_cell_length_b   18.72038941
_cell_length_c   44.79036200
_cell_angle_alpha   94.03613252
_cell_angle_beta   86.64075209
_cell_angle_gamma   96.01571897
_symmetry_Int_Tables_number   1
_chemical_formula_structural   Mg56Ir83
_chemical_formula_sum   'Mg112 Ir166'
_cell_volume   8329.58426924
_cell_formula_units_Z   2
loop_
 _symmetry_equiv_pos_site_id
 _symmetry_equiv_pos_as_xyz
  1  'x, y, z'
loop_
 _atom_site_type_symbol
 _atom_site_label
 _atom_site_symmetry_multiplicity
 _atom_site_fract_x
 _atom_site_fract_y
 _atom_site_fract_z
 _atom_site_occupancy
  Mg  Mg0  1  0.12171700  0.55456700  0.28533000  1
  Mg  Mg1  1  0.43509100  0.94543300  0.25867000  1
  Mg  Mg2  1  0.70488300  0.92230000  0.29721100  1
  Mg  Mg3  1  0.85192500  0.57770000  0.24678900  1
  Mg  Mg4  1  0.91266800  0.28013600  0.25546600  1
  Mg  Mg5  1  0.64414000  0.21986400  0.28853400  1
  Mg  Mg6  1  0.16456000  0.29076000  0.29145100  1
  Mg  Mg7  1  0.39224800  0.20924000  0.25254900  1
  Mg  Mg8  1  0.85488300  0.42230000  0.24721100  1
  Mg  Mg9  1  0.70192500  0.07770000  0.29678900  1
  Mg  Mg10  1  0.98041400  0.02103200  0.26514400  1
  Mg  Mg11  1  0.57639500  0.47896800  0.27885600  1
  Mg  Mg12  1  0.76266800  0.78013600  0.30546600  1
  Mg  Mg13  1  0.49414000  0.71986400  0.33853400  1
  Mg  Mg14  1  0.82171700  0.55456700  0.38533000  1
  Mg  Mg15  1  0.13509100  0.94543300  0.35867000  1
  Mg  Mg16  1  0.01456000  0.79076000  0.34145100  1
  Mg  Mg17  1  0.24224800  0.70924000  0.30254900  1
  Mg  Mg18  1  0.40488300  0.92230000  0.39721100  1
  Mg  Mg19  1  0.55192500  0.57770000  0.34678900  1
  Mg  Mg20  1  0.83041400  0.52103200  0.31514400  1
  Mg  Mg21  1  0.42639500  0.97896800  0.32885600  1
  Mg  Mg22  1  0.61266800  0.28013600  0.35546600  1
  Mg  Mg23  1  0.34414000  0.21986400  0.38853400  1
  Mg  Mg24  1  0.97171700  0.05456700  0.33533000  1
  Mg  Mg25  1  0.28509100  0.44543300  0.30867000  1
  Mg  Mg26  1  0.86456000  0.29076000  0.39145100  1
  Mg  Mg27  1  0.09224800  0.20924000  0.35254900  1
  Mg  Mg28  1  0.55488300  0.42230000  0.34721100  1
  Mg  Mg29  1  0.40192500  0.07770000  0.39678900  1
  Mg  Mg30  1  0.68041400  0.02103200  0.36514400  1
  Mg  Mg31  1  0.27639500  0.47896800  0.37885600  1
  Mg  Mg32  1  0.46266800  0.78013600  0.40546600  1
  Mg  Mg33  1  0.19414000  0.71986400  0.43853400  1
  Mg  Mg34  1  0.52171700  0.55456700  0.48533000  1
  Mg  Mg35  1  0.83509100  0.94543300  0.45867000  1
  Mg  Mg36  1  0.71456000  0.79076000  0.44145100  1
  Mg  Mg37  1  0.94224800  0.70924000  0.40254900  1
  Mg  Mg38  1  0.10488300  0.92230000  0.49721100  1
  Mg  Mg39  1  0.25192500  0.57770000  0.44678900  1
  Mg  Mg40  1  0.53041400  0.52103200  0.41514400  1
  Mg  Mg41  1  0.12639500  0.97896800  0.42885600  1
  Mg  Mg42  1  0.31266800  0.28013600  0.45546600  1
  Mg  Mg43  1  0.04414000  0.21986400  0.48853400  1
  Mg  Mg44  1  0.67171700  0.05456700  0.43533000  1
  Mg  Mg45  1  0.98509100  0.44543300  0.40867000  1
  Mg  Mg46  1  0.56456000  0.29076000  0.49145100  1
  Mg  Mg47  1  0.79224800  0.20924000  0.45254900  1
  Mg  Mg48  1  0.25488300  0.42230000  0.44721100  1
  Mg  Mg49  1  0.10192500  0.07770000  0.49678900  1
  Mg  Mg50  1  0.38041400  0.02103200  0.46514400  1
  Mg  Mg51  1  0.97639500  0.47896800  0.47885600  1
  Mg  Mg52  1  0.16266800  0.78013600  0.50546600  1
  Mg  Mg53  1  0.89414000  0.71986400  0.53853400  1
  Mg  Mg54  1  0.22171700  0.55456700  0.58533000  1
  Mg  Mg55  1  0.53509100  0.94543300  0.55867000  1
  Mg  Mg56  1  0.41456000  0.79076000  0.54145100  1
  Mg  Mg57  1  0.64224800  0.70924000  0.50254900  1
  Mg  Mg58  1  0.80488300  0.92230000  0.59721100  1
  Mg  Mg59  1  0.95192500  0.57770000  0.54678900  1
  Mg  Mg60  1  0.23041400  0.52103200  0.51514400  1
  Mg  Mg61  1  0.82639500  0.97896800  0.52885600  1
  Mg  Mg62  1  0.01266800  0.28013600  0.55546600  1
  Mg  Mg63  1  0.74414000  0.21986400  0.58853400  1
  Mg  Mg64  1  0.37171700  0.05456700  0.53533000  1
  Mg  Mg65  1  0.68509100  0.44543300  0.50867000  1
  Mg  Mg66  1  0.26456000  0.29076000  0.59145100  1
  Mg  Mg67  1  0.49224800  0.20924000  0.55254900  1
  Mg  Mg68  1  0.95488300  0.42230000  0.54721100  1
  Mg  Mg69  1  0.80192500  0.07770000  0.59678900  1
  Mg  Mg70  1  0.08041400  0.02103200  0.56514400  1
  Mg  Mg71  1  0.67639500  0.47896800  0.57885600  1
  Mg  Mg72  1  0.86266800  0.78013600  0.60546600  1
  Mg  Mg73  1  0.59414000  0.71986400  0.63853400  1
  Mg  Mg74  1  0.92171700  0.55456700  0.68533000  1
  Mg  Mg75  1  0.23509100  0.94543300  0.65867000  1
  Mg  Mg76  1  0.11456000  0.79076000  0.64145100  1
  Mg  Mg77  1  0.34224800  0.70924000  0.60254900  1
  Mg  Mg78  1  0.50488300  0.92230000  0.69721100  1
  Mg  Mg79  1  0.65192500  0.57770000  0.64678900  1
  Mg  Mg80  1  0.93041400  0.52103200  0.61514400  1
  Mg  Mg81  1  0.52639500  0.97896800  0.62885600  1
  Mg  Mg82  1  0.71266800  0.28013600  0.65546600  1
  Mg  Mg83  1  0.44414000  0.21986400  0.68853400  1
  Mg  Mg84  1  0.07171700  0.05456700  0.63533000  1
  Mg  Mg85  1  0.38509100  0.44543300  0.60867000  1
  Mg  Mg86  1  0.96456000  0.29076000  0.69145100  1
  Mg  Mg87  1  0.19224800  0.20924000  0.65254900  1
  Mg  Mg88  1  0.65488300  0.42230000  0.64721100  1
  Mg  Mg89  1  0.50192500  0.07770000  0.69678900  1
  Mg  Mg90  1  0.78041400  0.02103200  0.66514400  1
  Mg  Mg91  1  0.37639500  0.47896800  0.67885600  1
  Mg  Mg92  1  0.56266800  0.78013600  0.70546600  1
  Mg  Mg93  1  0.29414000  0.71986400  0.73853400  1
  Mg  Mg94  1  0.62171700  0.55456700  0.78533000  1
  Mg  Mg95  1  0.93509100  0.94543300  0.75867000  1
  Mg  Mg96  1  0.81456000  0.79076000  0.74145100  1
  Mg  Mg97  1  0.04224800  0.70924000  0.70254900  1
  Mg  Mg98  1  0.20488300  0.92230000  0.79721100  1
  Mg  Mg99  1  0.35192500  0.57770000  0.74678900  1
  Mg  Mg100  1  0.63041400  0.52103200  0.71514400  1
  Mg  Mg101  1  0.22639500  0.97896800  0.72885600  1
  Mg  Mg102  1  0.41266800  0.28013600  0.75546600  1
  Mg  Mg103  1  0.14414000  0.21986400  0.78853400  1
  Mg  Mg104  1  0.77171700  0.05456700  0.73533000  1
  Mg  Mg105  1  0.08509100  0.44543300  0.70867000  1
  Mg  Mg106  1  0.66456000  0.29076000  0.79145100  1
  Mg  Mg107  1  0.89224800  0.20924000  0.75254900  1
  Mg  Mg108  1  0.35488300  0.42230000  0.74721100  1
  Mg  Mg109  1  0.20192500  0.07770000  0.79678900  1
  Mg  Mg110  1  0.48041400  0.02103200  0.76514400  1
  Mg  Mg111  1  0.07639500  0.47896800  0.77885600  1
  Ir  Ir112  1  0.87322900  0.86887800  0.24983200  1
  Ir  Ir113  1  0.68358000  0.63112200  0.29416800  1
  Ir  Ir114  1  0.61758800  0.83205600  0.24909600  1
  Ir  Ir115  1  0.93922000  0.66794400  0.29490400  1
  Ir  Ir116  1  0.20340400  0.00000000  0.29700000  1
  Ir  Ir117  1  0.52352000  0.71596400  0.27130200  1
  Ir  Ir118  1  0.03328800  0.78403600  0.27269800  1
  Ir  Ir119  1  0.14035700  0.90923200  0.24998500  1
  Ir  Ir120  1  0.41645100  0.59076800  0.29401500  1
  Ir  Ir121  1  0.93892700  0.16794400  0.29500200  1
  Ir  Ir122  1  0.61788100  0.33205600  0.24899800  1
  Ir  Ir123  1  0.35340400  0.50000000  0.24700000  1
  Ir  Ir124  1  0.18022300  0.13582800  0.29368800  1
  Ir  Ir125  1  0.37658500  0.36417200  0.25031200  1
  Ir  Ir126  1  0.42608800  0.09076800  0.29080300  1
  Ir  Ir127  1  0.13072100  0.40923200  0.25319700  1
  Ir  Ir128  1  0.57322900  0.86887800  0.34983200  1
  Ir  Ir129  1  0.38358000  0.63112200  0.39416800  1
  Ir  Ir130  1  0.78892700  0.66794400  0.34500200  1
  Ir  Ir131  1  0.46788100  0.83205600  0.29899800  1
  Ir  Ir132  1  0.31758800  0.83205600  0.34909600  1
  Ir  Ir133  1  0.63922000  0.66794400  0.39490400  1
  Ir  Ir134  1  0.90340400  0.00000000  0.39700000  1
  Ir  Ir135  1  0.22352000  0.71596400  0.37130200  1
  Ir  Ir136  1  0.73328800  0.78403600  0.37269800  1
  Ir  Ir137  1  0.03022300  0.63582800  0.34368800  1
  Ir  Ir138  1  0.22658500  0.86417200  0.30031200  1
  Ir  Ir139  1  0.84035700  0.90923200  0.34998500  1
  Ir  Ir140  1  0.11645100  0.59076800  0.39401500  1
  Ir  Ir141  1  0.27608800  0.59076800  0.34080300  1
  Ir  Ir142  1  0.98072100  0.90923200  0.30319700  1
  Ir  Ir143  1  0.72322900  0.36887800  0.29983200  1
  Ir  Ir144  1  0.53358000  0.13112200  0.34416800  1
  Ir  Ir145  1  0.63892700  0.16794400  0.39500200  1
  Ir  Ir146  1  0.31788100  0.33205600  0.34899800  1
  Ir  Ir147  1  0.46758800  0.33205600  0.29909600  1
  Ir  Ir148  1  0.78922000  0.16794400  0.34490400  1
  Ir  Ir149  1  0.05340400  0.50000000  0.34700000  1
  Ir  Ir150  1  0.37352000  0.21596400  0.32130200  1
  Ir  Ir151  1  0.88328800  0.28403600  0.32269800  1
  Ir  Ir152  1  0.88022300  0.13582800  0.39368800  1
  Ir  Ir153  1  0.07658500  0.36417200  0.35031200  1
  Ir  Ir154  1  0.99035700  0.40923200  0.29998500  1
  Ir  Ir155  1  0.26645100  0.09076800  0.34401500  1
  Ir  Ir156  1  0.12608800  0.09076800  0.39080300  1
  Ir  Ir157  1  0.83072100  0.40923200  0.35319700  1
  Ir  Ir158  1  0.27322900  0.86887800  0.44983200  1
  Ir  Ir159  1  0.08358000  0.63112200  0.49416800  1
  Ir  Ir160  1  0.48892700  0.66794400  0.44500200  1
  Ir  Ir161  1  0.16788100  0.83205600  0.39899800  1
  Ir  Ir162  1  0.01758800  0.83205600  0.44909600  1
  Ir  Ir163  1  0.33922000  0.66794400  0.49490400  1
  Ir  Ir164  1  0.60340400  0.00000000  0.49700000  1
  Ir  Ir165  1  0.92352000  0.71596400  0.47130200  1
  Ir  Ir166  1  0.43328800  0.78403600  0.47269800  1
  Ir  Ir167  1  0.73022300  0.63582800  0.44368800  1
  Ir  Ir168  1  0.92658500  0.86417200  0.40031200  1
  Ir  Ir169  1  0.54035700  0.90923200  0.44998500  1
  Ir  Ir170  1  0.81645100  0.59076800  0.49401500  1
  Ir  Ir171  1  0.97608800  0.59076800  0.44080300  1
  Ir  Ir172  1  0.68072100  0.90923200  0.40319700  1
  Ir  Ir173  1  0.42322900  0.36887800  0.39983200  1
  Ir  Ir174  1  0.23358000  0.13112200  0.44416800  1
  Ir  Ir175  1  0.33892700  0.16794400  0.49500200  1
  Ir  Ir176  1  0.01788100  0.33205600  0.44899800  1
  Ir  Ir177  1  0.16758800  0.33205600  0.39909600  1
  Ir  Ir178  1  0.48922000  0.16794400  0.44490400  1
  Ir  Ir179  1  0.75340400  0.50000000  0.44700000  1
  Ir  Ir180  1  0.07352000  0.21596400  0.42130200  1
  Ir  Ir181  1  0.58328800  0.28403600  0.42269800  1
  Ir  Ir182  1  0.58022300  0.13582800  0.49368800  1
  Ir  Ir183  1  0.77658500  0.36417200  0.45031200  1
  Ir  Ir184  1  0.69035700  0.40923200  0.39998500  1
  Ir  Ir185  1  0.96645100  0.09076800  0.44401500  1
  Ir  Ir186  1  0.82608800  0.09076800  0.49080300  1
  Ir  Ir187  1  0.53072100  0.40923200  0.45319700  1
  Ir  Ir188  1  0.97322900  0.86887800  0.54983200  1
  Ir  Ir189  1  0.78358000  0.63112200  0.59416800  1
  Ir  Ir190  1  0.18892700  0.66794400  0.54500200  1
  Ir  Ir191  1  0.86788100  0.83205600  0.49899800  1
  Ir  Ir192  1  0.71758800  0.83205600  0.54909600  1
  Ir  Ir193  1  0.03922000  0.66794400  0.59490400  1
  Ir  Ir194  1  0.30340400  0.00000000  0.59700000  1
  Ir  Ir195  1  0.62352000  0.71596400  0.57130200  1
  Ir  Ir196  1  0.13328800  0.78403600  0.57269800  1
  Ir  Ir197  1  0.43022300  0.63582800  0.54368800  1
  Ir  Ir198  1  0.62658500  0.86417200  0.50031200  1
  Ir  Ir199  1  0.24035700  0.90923200  0.54998500  1
  Ir  Ir200  1  0.51645100  0.59076800  0.59401500  1
  Ir  Ir201  1  0.67608800  0.59076800  0.54080300  1
  Ir  Ir202  1  0.38072100  0.90923200  0.50319700  1
  Ir  Ir203  1  0.12322900  0.36887800  0.49983200  1
  Ir  Ir204  1  0.93358000  0.13112200  0.54416800  1
  Ir  Ir205  1  0.03892700  0.16794400  0.59500200  1
  Ir  Ir206  1  0.71788100  0.33205600  0.54899800  1
  Ir  Ir207  1  0.86758800  0.33205600  0.49909600  1
  Ir  Ir208  1  0.18922000  0.16794400  0.54490400  1
  Ir  Ir209  1  0.45340400  0.50000000  0.54700000  1
  Ir  Ir210  1  0.77352000  0.21596400  0.52130200  1
  Ir  Ir211  1  0.28328800  0.28403600  0.52269800  1
  Ir  Ir212  1  0.28022300  0.13582800  0.59368800  1
  Ir  Ir213  1  0.47658500  0.36417200  0.55031200  1
  Ir  Ir214  1  0.39035700  0.40923200  0.49998500  1
  Ir  Ir215  1  0.66645100  0.09076800  0.54401500  1
  Ir  Ir216  1  0.52608800  0.09076800  0.59080300  1
  Ir  Ir217  1  0.23072100  0.40923200  0.55319700  1
  Ir  Ir218  1  0.67322900  0.86887800  0.64983200  1
  Ir  Ir219  1  0.48358000  0.63112200  0.69416800  1
  Ir  Ir220  1  0.88892700  0.66794400  0.64500200  1
  Ir  Ir221  1  0.56788100  0.83205600  0.59899800  1
  Ir  Ir222  1  0.41758800  0.83205600  0.64909600  1
  Ir  Ir223  1  0.73922000  0.66794400  0.69490400  1
  Ir  Ir224  1  0.00340400  0.00000000  0.69700000  1
  Ir  Ir225  1  0.32352000  0.71596400  0.67130200  1
  Ir  Ir226  1  0.83328800  0.78403600  0.67269800  1
  Ir  Ir227  1  0.13022300  0.63582800  0.64368800  1
  Ir  Ir228  1  0.32658500  0.86417200  0.60031200  1
  Ir  Ir229  1  0.94035700  0.90923200  0.64998500  1
  Ir  Ir230  1  0.21645100  0.59076800  0.69401500  1
  Ir  Ir231  1  0.37608800  0.59076800  0.64080300  1
  Ir  Ir232  1  0.08072100  0.90923200  0.60319700  1
  Ir  Ir233  1  0.82322900  0.36887800  0.59983200  1
  Ir  Ir234  1  0.63358000  0.13112200  0.64416800  1
  Ir  Ir235  1  0.73892700  0.16794400  0.69500200  1
  Ir  Ir236  1  0.41788100  0.33205600  0.64899800  1
  Ir  Ir237  1  0.56758800  0.33205600  0.59909600  1
  Ir  Ir238  1  0.88922000  0.16794400  0.64490400  1
  Ir  Ir239  1  0.15340400  0.50000000  0.64700000  1
  Ir  Ir240  1  0.47352000  0.21596400  0.62130200  1
  Ir  Ir241  1  0.98328800  0.28403600  0.62269800  1
  Ir  Ir242  1  0.98022300  0.13582800  0.69368800  1
  Ir  Ir243  1  0.17658500  0.36417200  0.65031200  1
  Ir  Ir244  1  0.09035700  0.40923200  0.59998500  1
  Ir  Ir245  1  0.36645100  0.09076800  0.64401500  1
  Ir  Ir246  1  0.22608800  0.09076800  0.69080300  1
  Ir  Ir247  1  0.93072100  0.40923200  0.65319700  1
  Ir  Ir248  1  0.37322900  0.86887800  0.74983200  1
  Ir  Ir249  1  0.18358000  0.63112200  0.79416800  1
  Ir  Ir250  1  0.58892700  0.66794400  0.74500200  1
  Ir  Ir251  1  0.26788100  0.83205600  0.69899800  1
  Ir  Ir252  1  0.11758800  0.83205600  0.74909600  1
  Ir  Ir253  1  0.43922000  0.66794400  0.79490400  1
  Ir  Ir254  1  0.70340400  0.00000000  0.79700000  1
  Ir  Ir255  1  0.02352000  0.71596400  0.77130200  1
  Ir  Ir256  1  0.53328800  0.78403600  0.77269800  1
  Ir  Ir257  1  0.83022300  0.63582800  0.74368800  1
  Ir  Ir258  1  0.02658500  0.86417200  0.70031200  1
  Ir  Ir259  1  0.64035700  0.90923200  0.74998500  1
  Ir  Ir260  1  0.91645100  0.59076800  0.79401500  1
  Ir  Ir261  1  0.07608800  0.59076800  0.74080300  1
  Ir  Ir262  1  0.78072100  0.90923200  0.70319700  1
  Ir  Ir263  1  0.52322900  0.36887800  0.69983200  1
  Ir  Ir264  1  0.33358000  0.13112200  0.74416800  1
  Ir  Ir265  1  0.43892700  0.16794400  0.79500200  1
  Ir  Ir266  1  0.11788100  0.33205600  0.74899800  1
  Ir  Ir267  1  0.26758800  0.33205600  0.69909600  1
  Ir  Ir268  1  0.58922000  0.16794400  0.74490400  1
  Ir  Ir269  1  0.85340400  0.50000000  0.74700000  1
  Ir  Ir270  1  0.17352000  0.21596400  0.72130200  1
  Ir  Ir271  1  0.68328800  0.28403600  0.72269800  1
  Ir  Ir272  1  0.68022300  0.13582800  0.79368800  1
  Ir  Ir273  1  0.87658500  0.36417200  0.75031200  1
  Ir  Ir274  1  0.79035700  0.40923200  0.69998500  1
  Ir  Ir275  1  0.06645100  0.09076800  0.74401500  1
  Ir  Ir276  1  0.92608800  0.09076800  0.79080300  1
  Ir  Ir277  1  0.63072100  0.40923200  0.75319700  1
