# generated using pymatgen
data_Ce4Mg37
_symmetry_space_group_name_H-M   'P 1'
_cell_length_a   10.08648700
_cell_length_b   17.89230800
_cell_length_c   41.32051500
_cell_angle_alpha   90.00000000
_cell_angle_beta   90.00000000
_cell_angle_gamma   90.00000000
_symmetry_Int_Tables_number   1
_chemical_formula_structural   Ce4Mg37
_chemical_formula_sum   'Ce16 Mg148'
_cell_volume   7457.13532630
_cell_formula_units_Z   4
loop_
 _symmetry_equiv_pos_site_id
 _symmetry_equiv_pos_as_xyz
  1  'x, y, z'
loop_
 _atom_site_type_symbol
 _atom_site_label
 _atom_site_symmetry_multiplicity
 _atom_site_fract_x
 _atom_site_fract_y
 _atom_site_fract_z
 _atom_site_occupancy
  Ce  Ce0  1  0.25000000  0.72360700  0.26973700  1
  Ce  Ce1  1  0.75000000  0.72360700  0.26973700  1
  Ce  Ce2  1  0.25000000  0.05694000  0.26973700  1
  Ce  Ce3  1  0.75000000  0.39027300  0.26973700  1
  Ce  Ce4  1  0.25000000  0.22360700  0.39473700  1
  Ce  Ce5  1  0.75000000  0.22360700  0.39473700  1
  Ce  Ce6  1  0.25000000  0.55694000  0.39473700  1
  Ce  Ce7  1  0.75000000  0.89027300  0.39473700  1
  Ce  Ce8  1  0.25000000  0.72360700  0.51973700  1
  Ce  Ce9  1  0.75000000  0.72360700  0.51973700  1
  Ce  Ce10  1  0.25000000  0.05694000  0.51973700  1
  Ce  Ce11  1  0.75000000  0.39027300  0.51973700  1
  Ce  Ce12  1  0.25000000  0.22360700  0.64473700  1
  Ce  Ce13  1  0.75000000  0.22360700  0.64473700  1
  Ce  Ce14  1  0.25000000  0.55694000  0.64473700  1
  Ce  Ce15  1  0.75000000  0.89027300  0.64473700  1
  Mg  Mg16  1  0.00000000  0.47360700  0.20723700  1
  Mg  Mg17  1  0.00000000  0.97360700  0.20723700  1
  Mg  Mg18  1  0.02159000  0.64249700  0.20890400  1
  Mg  Mg19  1  0.47841000  0.88582600  0.26973700  1
  Mg  Mg20  1  0.97841000  0.80471600  0.20890400  1
  Mg  Mg21  1  0.75000000  0.55956300  0.31904000  1
  Mg  Mg22  1  0.59768900  0.05694000  0.26973700  1
  Mg  Mg23  1  0.09768900  0.39027300  0.26973700  1
  Mg  Mg24  1  0.52159000  0.56138700  0.26973700  1
  Mg  Mg25  1  0.75000000  0.90423500  0.23287200  1
  Mg  Mg26  1  0.25000000  0.24019100  0.30856900  1
  Mg  Mg27  1  0.47841000  0.64249700  0.20890400  1
  Mg  Mg28  1  0.25000000  0.54297800  0.23287200  1
  Mg  Mg29  1  0.75000000  0.20702200  0.23090500  1
  Mg  Mg30  1  0.02159000  0.88582600  0.26973700  1
  Mg  Mg31  1  0.02159000  0.14249700  0.20556900  1
  Mg  Mg32  1  0.52159000  0.80471600  0.20890400  1
  Mg  Mg33  1  0.47841000  0.14249700  0.20556900  1
  Mg  Mg34  1  0.90231100  0.05694000  0.26973700  1
  Mg  Mg35  1  0.97841000  0.56138700  0.26973700  1
  Mg  Mg36  1  0.50000000  0.22360700  0.26973700  1
  Mg  Mg37  1  0.25000000  0.88765000  0.31904000  1
  Mg  Mg38  1  0.25000000  0.88765000  0.22043400  1
  Mg  Mg39  1  0.40231100  0.39027300  0.26973700  1
  Mg  Mg40  1  0.97841000  0.30471600  0.20556900  1
  Mg  Mg41  1  0.25000000  0.24019100  0.23090500  1
  Mg  Mg42  1  0.75000000  0.55956300  0.22043400  1
  Mg  Mg43  1  0.52159000  0.30471600  0.20556900  1
  Mg  Mg44  1  0.25000000  0.54297800  0.30660100  1
  Mg  Mg45  1  0.50000000  0.97360700  0.20723700  1
  Mg  Mg46  1  0.75000000  0.20702200  0.30856900  1
  Mg  Mg47  1  0.75000000  0.90423500  0.30660100  1
  Mg  Mg48  1  1.00000000  0.22360700  0.26973700  1
  Mg  Mg49  1  0.50000000  0.47360700  0.20723700  1
  Mg  Mg50  1  0.00000000  0.97360700  0.33223700  1
  Mg  Mg51  1  0.00000000  0.47360700  0.33223700  1
  Mg  Mg52  1  0.02159000  0.14249700  0.33390400  1
  Mg  Mg53  1  0.47841000  0.38582600  0.39473700  1
  Mg  Mg54  1  0.97841000  0.30471600  0.33390400  1
  Mg  Mg55  1  0.75000000  0.05956300  0.44404000  1
  Mg  Mg56  1  0.59768900  0.55694000  0.39473700  1
  Mg  Mg57  1  0.09768900  0.89027300  0.39473700  1
  Mg  Mg58  1  0.52159000  0.06138700  0.39473700  1
  Mg  Mg59  1  0.75000000  0.40423500  0.35787200  1
  Mg  Mg60  1  0.25000000  0.74019100  0.43356900  1
  Mg  Mg61  1  0.47841000  0.14249700  0.33390400  1
  Mg  Mg62  1  0.25000000  0.04297800  0.35787200  1
  Mg  Mg63  1  0.75000000  0.70702200  0.35590500  1
  Mg  Mg64  1  0.02159000  0.38582600  0.39473700  1
  Mg  Mg65  1  0.02159000  0.64249700  0.33056900  1
  Mg  Mg66  1  0.52159000  0.30471600  0.33390400  1
  Mg  Mg67  1  0.47841000  0.64249700  0.33056900  1
  Mg  Mg68  1  0.90231100  0.55694000  0.39473700  1
  Mg  Mg69  1  0.97841000  0.06138700  0.39473700  1
  Mg  Mg70  1  0.50000000  0.72360700  0.39473700  1
  Mg  Mg71  1  0.25000000  0.38765000  0.44404000  1
  Mg  Mg72  1  0.25000000  0.38765000  0.34543400  1
  Mg  Mg73  1  0.40231100  0.89027300  0.39473700  1
  Mg  Mg74  1  0.97841000  0.80471600  0.33056900  1
  Mg  Mg75  1  0.25000000  0.74019100  0.35590500  1
  Mg  Mg76  1  0.75000000  0.05956300  0.34543400  1
  Mg  Mg77  1  0.52159000  0.80471600  0.33056900  1
  Mg  Mg78  1  0.25000000  0.04297800  0.43160100  1
  Mg  Mg79  1  0.50000000  0.47360700  0.33223700  1
  Mg  Mg80  1  0.75000000  0.70702200  0.43356900  1
  Mg  Mg81  1  0.75000000  0.40423500  0.43160100  1
  Mg  Mg82  1  0.00000000  0.72360700  0.39473700  1
  Mg  Mg83  1  0.50000000  0.97360700  0.33223700  1
  Mg  Mg84  1  1.00000000  0.47360700  0.45723700  1
  Mg  Mg85  1  0.00000000  0.97360700  0.45723700  1
  Mg  Mg86  1  0.02159000  0.64249700  0.45890400  1
  Mg  Mg87  1  0.47841000  0.88582600  0.51973700  1
  Mg  Mg88  1  0.97841000  0.80471600  0.45890400  1
  Mg  Mg89  1  0.75000000  0.55956300  0.56904000  1
  Mg  Mg90  1  0.59768900  0.05694000  0.51973700  1
  Mg  Mg91  1  0.09768900  0.39027300  0.51973700  1
  Mg  Mg92  1  0.52159000  0.56138700  0.51973700  1
  Mg  Mg93  1  0.75000000  0.90423500  0.48287200  1
  Mg  Mg94  1  0.25000000  0.24019100  0.55856900  1
  Mg  Mg95  1  0.47841000  0.64249700  0.45890400  1
  Mg  Mg96  1  0.25000000  0.54297800  0.48287200  1
  Mg  Mg97  1  0.75000000  0.20702200  0.48090500  1
  Mg  Mg98  1  0.02159000  0.88582600  0.51973700  1
  Mg  Mg99  1  0.02159000  0.14249700  0.45556900  1
  Mg  Mg100  1  0.52159000  0.80471600  0.45890400  1
  Mg  Mg101  1  0.47841000  0.14249700  0.45556900  1
  Mg  Mg102  1  0.90231100  0.05694000  0.51973700  1
  Mg  Mg103  1  0.97841000  0.56138700  0.51973700  1
  Mg  Mg104  1  0.50000000  0.22360700  0.51973700  1
  Mg  Mg105  1  0.25000000  0.88765000  0.56904000  1
  Mg  Mg106  1  0.25000000  0.88765000  0.47043400  1
  Mg  Mg107  1  0.40231100  0.39027300  0.51973700  1
  Mg  Mg108  1  0.97841000  0.30471600  0.45556900  1
  Mg  Mg109  1  0.25000000  0.24019100  0.48090500  1
  Mg  Mg110  1  0.75000000  0.55956300  0.47043400  1
  Mg  Mg111  1  0.52159000  0.30471600  0.45556900  1
  Mg  Mg112  1  0.25000000  0.54297800  0.55660100  1
  Mg  Mg113  1  0.50000000  0.97360700  0.45723700  1
  Mg  Mg114  1  0.75000000  0.20702200  0.55856900  1
  Mg  Mg115  1  0.75000000  0.90423500  0.55660100  1
  Mg  Mg116  1  1.00000000  0.22360700  0.51973700  1
  Mg  Mg117  1  0.50000000  0.47360700  0.45723700  1
  Mg  Mg118  1  1.00000000  0.97360700  0.58223700  1
  Mg  Mg119  1  0.00000000  0.47360700  0.58223700  1
  Mg  Mg120  1  0.02159000  0.14249700  0.58390400  1
  Mg  Mg121  1  0.47841000  0.38582600  0.64473700  1
  Mg  Mg122  1  0.97841000  0.30471600  0.58390400  1
  Mg  Mg123  1  0.75000000  0.05956300  0.69404000  1
  Mg  Mg124  1  0.59768900  0.55694000  0.64473700  1
  Mg  Mg125  1  0.09768900  0.89027300  0.64473700  1
  Mg  Mg126  1  0.52159000  0.06138700  0.64473700  1
  Mg  Mg127  1  0.75000000  0.40423500  0.60787200  1
  Mg  Mg128  1  0.25000000  0.74019100  0.68356900  1
  Mg  Mg129  1  0.47841000  0.14249700  0.58390400  1
  Mg  Mg130  1  0.25000000  0.04297800  0.60787200  1
  Mg  Mg131  1  0.75000000  0.70702200  0.60590500  1
  Mg  Mg132  1  0.02159000  0.38582600  0.64473700  1
  Mg  Mg133  1  0.02159000  0.64249700  0.58056900  1
  Mg  Mg134  1  0.52159000  0.30471600  0.58390400  1
  Mg  Mg135  1  0.47841000  0.64249700  0.58056900  1
  Mg  Mg136  1  0.90231100  0.55694000  0.64473700  1
  Mg  Mg137  1  0.97841000  0.06138700  0.64473700  1
  Mg  Mg138  1  0.50000000  0.72360700  0.64473700  1
  Mg  Mg139  1  0.25000000  0.38765000  0.69404000  1
  Mg  Mg140  1  0.25000000  0.38765000  0.59543400  1
  Mg  Mg141  1  0.40231100  0.89027300  0.64473700  1
  Mg  Mg142  1  0.97841000  0.80471600  0.58056900  1
  Mg  Mg143  1  0.25000000  0.74019100  0.60590500  1
  Mg  Mg144  1  0.75000000  0.05956300  0.59543400  1
  Mg  Mg145  1  0.52159000  0.80471600  0.58056900  1
  Mg  Mg146  1  0.25000000  0.04297800  0.68160100  1
  Mg  Mg147  1  0.50000000  0.47360700  0.58223700  1
  Mg  Mg148  1  0.75000000  0.70702200  0.68356900  1
  Mg  Mg149  1  0.75000000  0.40423500  0.68160100  1
  Mg  Mg150  1  0.00000000  0.72360700  0.64473700  1
  Mg  Mg151  1  0.50000000  0.97360700  0.58223700  1
  Mg  Mg152  1  0.00000000  0.47360700  0.70723700  1
  Mg  Mg153  1  0.00000000  0.97360700  0.70723700  1
  Mg  Mg154  1  0.02159000  0.64249700  0.70890400  1
  Mg  Mg155  1  0.97841000  0.80471600  0.70890400  1
  Mg  Mg156  1  0.47841000  0.64249700  0.70890400  1
  Mg  Mg157  1  0.02159000  0.14249700  0.70556900  1
  Mg  Mg158  1  0.52159000  0.80471600  0.70890400  1
  Mg  Mg159  1  0.47841000  0.14249700  0.70556900  1
  Mg  Mg160  1  0.97841000  0.30471600  0.70556900  1
  Mg  Mg161  1  0.52159000  0.30471600  0.70556900  1
  Mg  Mg162  1  0.50000000  0.97360700  0.70723700  1
  Mg  Mg163  1  0.50000000  0.47360700  0.70723700  1
