# generated using pymatgen
data_Sm2Mg
_symmetry_space_group_name_H-M   'P 1'
_cell_length_a   3.79076100
_cell_length_b   8.88868588
_cell_length_c   44.76652700
_cell_angle_alpha   90.00000000
_cell_angle_beta   90.00000000
_cell_angle_gamma   102.31201284
_symmetry_Int_Tables_number   1
_chemical_formula_structural   Sm2Mg
_chemical_formula_sum   'Sm20 Mg10'
_cell_volume   1473.71099684
_cell_formula_units_Z   10
loop_
 _symmetry_equiv_pos_site_id
 _symmetry_equiv_pos_as_xyz
  1  'x, y, z'
loop_
 _atom_site_type_symbol
 _atom_site_label
 _atom_site_symmetry_multiplicity
 _atom_site_fract_x
 _atom_site_fract_y
 _atom_site_fract_z
 _atom_site_occupancy
  Sm  Sm0  1  0.91080000  0.82160000  0.21875000  1
  Sm  Sm1  1  0.22851200  0.45702300  0.21875000  1
  Sm  Sm2  1  0.08920000  0.17840000  0.28125000  1
  Sm  Sm3  1  0.77148800  0.54297700  0.28125000  1
  Sm  Sm4  1  0.91080000  0.82160000  0.34375000  1
  Sm  Sm5  1  0.22851200  0.45702300  0.34375000  1
  Sm  Sm6  1  0.08920000  0.17840000  0.40625000  1
  Sm  Sm7  1  0.77148800  0.54297700  0.40625000  1
  Sm  Sm8  1  0.91080000  0.82160000  0.46875000  1
  Sm  Sm9  1  0.22851200  0.45702300  0.46875000  1
  Sm  Sm10  1  0.08920000  0.17840000  0.53125000  1
  Sm  Sm11  1  0.77148800  0.54297700  0.53125000  1
  Sm  Sm12  1  0.91080000  0.82160000  0.59375000  1
  Sm  Sm13  1  0.22851200  0.45702300  0.59375000  1
  Sm  Sm14  1  0.08920000  0.17840000  0.65625000  1
  Sm  Sm15  1  0.77148800  0.54297700  0.65625000  1
  Sm  Sm16  1  0.91080000  0.82160000  0.71875000  1
  Sm  Sm17  1  0.22851200  0.45702300  0.71875000  1
  Sm  Sm18  1  0.08920000  0.17840000  0.78125000  1
  Sm  Sm19  1  0.77148800  0.54297700  0.78125000  1
  Mg  Mg20  1  0.56824600  0.13649200  0.21875000  1
  Mg  Mg21  1  0.43175400  0.86350800  0.28125000  1
  Mg  Mg22  1  0.56824600  0.13649200  0.34375000  1
  Mg  Mg23  1  0.43175400  0.86350800  0.40625000  1
  Mg  Mg24  1  0.56824600  0.13649200  0.46875000  1
  Mg  Mg25  1  0.43175400  0.86350800  0.53125000  1
  Mg  Mg26  1  0.56824600  0.13649200  0.59375000  1
  Mg  Mg27  1  0.43175400  0.86350800  0.65625000  1
  Mg  Mg28  1  0.56824600  0.13649200  0.71875000  1
  Mg  Mg29  1  0.43175400  0.86350800  0.78125000  1
