# generated using pymatgen
data_Tm13Mg24
_symmetry_space_group_name_H-M   'P 1'
_cell_length_a   6.13974977
_cell_length_b   6.13975005
_cell_length_c   42.88064100
_cell_angle_alpha   93.34395509
_cell_angle_beta   86.65604476
_cell_angle_gamma   85.75179376
_symmetry_Int_Tables_number   1
_chemical_formula_structural   Tm13Mg24
_chemical_formula_sum   'Tm13 Mg24'
_cell_volume   1606.07575067
_cell_formula_units_Z   1
loop_
 _symmetry_equiv_pos_site_id
 _symmetry_equiv_pos_as_xyz
  1  'x, y, z'
loop_
 _atom_site_type_symbol
 _atom_site_label
 _atom_site_symmetry_multiplicity
 _atom_site_fract_x
 _atom_site_fract_y
 _atom_site_fract_z
 _atom_site_occupancy
  Tm  Tm0  1  0.21428600  0.78571400  0.23015900  1
  Tm  Tm1  1  0.50000000  0.50000000  0.27777800  1
  Tm  Tm2  1  0.78571400  0.21428600  0.32539700  1
  Tm  Tm3  1  0.07142900  0.92857100  0.37301600  1
  Tm  Tm4  1  0.35714300  0.64285700  0.42063500  1
  Tm  Tm5  1  0.64285700  0.35714300  0.46825400  1
  Tm  Tm6  1  0.92857100  0.07142900  0.51587300  1
  Tm  Tm7  1  0.21428600  0.78571400  0.56349200  1
  Tm  Tm8  1  0.50000000  0.50000000  0.61111100  1
  Tm  Tm9  1  0.78571400  0.21428600  0.65873000  1
  Tm  Tm10  1  0.07142900  0.92857100  0.70634900  1
  Tm  Tm11  1  0.35714300  0.64285700  0.75396800  1
  Tm  Tm12  1  0.64285700  0.35714300  0.80158700  1
  Mg  Mg13  1  0.02381000  0.30952400  0.25396800  1
  Mg  Mg14  1  0.69047600  0.97619000  0.25396800  1
  Mg  Mg15  1  0.30952400  0.02381000  0.30158700  1
  Mg  Mg16  1  0.97619000  0.69047600  0.30158700  1
  Mg  Mg17  1  0.59523800  0.73809500  0.34920600  1
  Mg  Mg18  1  0.26190500  0.40476200  0.34920600  1
  Mg  Mg19  1  0.88095200  0.45238100  0.39682500  1
  Mg  Mg20  1  0.54761900  0.11904800  0.39682500  1
  Mg  Mg21  1  0.16666700  0.16666700  0.44444400  1
  Mg  Mg22  1  0.83333300  0.83333300  0.44444400  1
  Mg  Mg23  1  0.45238100  0.88095200  0.49206300  1
  Mg  Mg24  1  0.11904800  0.54761900  0.49206300  1
  Mg  Mg25  1  0.73809500  0.59523800  0.53968300  1
  Mg  Mg26  1  0.40476200  0.26190500  0.53968300  1
  Mg  Mg27  1  0.02381000  0.30952400  0.58730200  1
  Mg  Mg28  1  0.69047600  0.97619000  0.58730200  1
  Mg  Mg29  1  0.30952400  0.02381000  0.63492100  1
  Mg  Mg30  1  0.97619000  0.69047600  0.63492100  1
  Mg  Mg31  1  0.59523800  0.73809500  0.68254000  1
  Mg  Mg32  1  0.26190500  0.40476200  0.68254000  1
  Mg  Mg33  1  0.88095200  0.45238100  0.73015900  1
  Mg  Mg34  1  0.54761900  0.11904800  0.73015900  1
  Mg  Mg35  1  0.16666700  0.16666700  0.77777800  1
  Mg  Mg36  1  0.83333300  0.83333300  0.77777800  1
