# generated using pymatgen
data_Mg57Ga22
_symmetry_space_group_name_H-M   'P 1'
_cell_length_a   9.16112904
_cell_length_b   15.19729366
_cell_length_c   43.27204700
_cell_angle_alpha   89.39542574
_cell_angle_beta   90.04668781
_cell_angle_gamma   74.44431518
_symmetry_Int_Tables_number   1
_chemical_formula_structural   Mg57Ga22
_chemical_formula_sum   'Mg114 Ga44'
_cell_volume   5803.48213205
_cell_formula_units_Z   2
loop_
 _symmetry_equiv_pos_site_id
 _symmetry_equiv_pos_as_xyz
  1  'x, y, z'
loop_
 _atom_site_type_symbol
 _atom_site_label
 _atom_site_symmetry_multiplicity
 _atom_site_fract_x
 _atom_site_fract_y
 _atom_site_fract_z
 _atom_site_occupancy
  Mg  Mg0  1  0.71761200  0.92940300  0.26785700  1
  Mg  Mg1  1  0.82373700  0.19062200  0.24132600  1
  Mg  Mg2  1  0.31148700  0.21818400  0.24438800  1
  Mg  Mg3  1  0.11148700  0.16818400  0.29438800  1
  Mg  Mg4  1  0.62373700  0.14062200  0.29132600  1
  Mg  Mg5  1  0.87779600  0.51327400  0.26666800  1
  Mg  Mg6  1  0.05742700  0.84553200  0.26904600  1
  Mg  Mg7  1  0.44394100  0.86444600  0.25013200  1
  Mg  Mg8  1  0.49128200  0.49435900  0.28558200  1
  Mg  Mg9  1  0.21761200  0.42940300  0.26785700  1
  Mg  Mg10  1  0.12373700  0.64062200  0.29132600  1
  Mg  Mg11  1  0.61148700  0.66818400  0.29438800  1
  Mg  Mg12  1  0.81148700  0.71818400  0.24438800  1
  Mg  Mg13  1  0.32373700  0.69062200  0.24132600  1
  Mg  Mg14  1  0.17779600  0.96327400  0.31666800  1
  Mg  Mg15  1  0.35742700  0.29553200  0.31904600  1
  Mg  Mg16  1  0.74394100  0.31444600  0.30013200  1
  Mg  Mg17  1  0.79128200  0.94435900  0.33558200  1
  Mg  Mg18  1  0.51761200  0.87940300  0.31785700  1
  Mg  Mg19  1  0.31761200  0.82940300  0.36785700  1
  Mg  Mg20  1  0.42373700  0.09062200  0.34132600  1
  Mg  Mg21  1  0.91148700  0.11818400  0.34438800  1
  Mg  Mg22  1  0.71148700  0.06818400  0.39438800  1
  Mg  Mg23  1  0.22373700  0.04062200  0.39132600  1
  Mg  Mg24  1  0.47779600  0.41327400  0.36666800  1
  Mg  Mg25  1  0.65742700  0.74553200  0.36904600  1
  Mg  Mg26  1  0.04394100  0.76444600  0.35013200  1
  Mg  Mg27  1  0.09128200  0.39435900  0.38558200  1
  Mg  Mg28  1  0.81761200  0.32940300  0.36785700  1
  Mg  Mg29  1  0.01761200  0.37940300  0.31785700  1
  Mg  Mg30  1  0.72373700  0.54062200  0.39132600  1
  Mg  Mg31  1  0.21148700  0.56818400  0.39438800  1
  Mg  Mg32  1  0.41148700  0.61818400  0.34438800  1
  Mg  Mg33  1  0.92373700  0.59062200  0.34132600  1
  Mg  Mg34  1  0.77779600  0.86327400  0.41666800  1
  Mg  Mg35  1  0.95742700  0.19553200  0.41904600  1
  Mg  Mg36  1  0.34394100  0.21444600  0.40013200  1
  Mg  Mg37  1  0.39128200  0.84435900  0.43558200  1
  Mg  Mg38  1  0.11761200  0.77940300  0.41785700  1
  Mg  Mg39  1  0.91761200  0.72940300  0.46785700  1
  Mg  Mg40  1  0.02373700  0.99062200  0.44132600  1
  Mg  Mg41  1  0.51148700  0.01818400  0.44438800  1
  Mg  Mg42  1  0.31148700  0.96818400  0.49438800  1
  Mg  Mg43  1  0.82373700  0.94062200  0.49132600  1
  Mg  Mg44  1  0.07779600  0.31327400  0.46666800  1
  Mg  Mg45  1  0.25742700  0.64553200  0.46904600  1
  Mg  Mg46  1  0.64394100  0.66444600  0.45013200  1
  Mg  Mg47  1  0.69128200  0.29435900  0.48558200  1
  Mg  Mg48  1  0.41761200  0.22940300  0.46785700  1
  Mg  Mg49  1  0.61761200  0.27940300  0.41785700  1
  Mg  Mg50  1  0.32373700  0.44062200  0.49132600  1
  Mg  Mg51  1  0.81148700  0.46818400  0.49438800  1
  Mg  Mg52  1  0.01148700  0.51818400  0.44438800  1
  Mg  Mg53  1  0.52373700  0.49062200  0.44132600  1
  Mg  Mg54  1  0.37779600  0.76327400  0.51666800  1
  Mg  Mg55  1  0.55742700  0.09553200  0.51904600  1
  Mg  Mg56  1  0.94394100  0.11444600  0.50013200  1
  Mg  Mg57  1  0.99128200  0.74435900  0.53558200  1
  Mg  Mg58  1  0.71761200  0.67940300  0.51785700  1
  Mg  Mg59  1  0.51761200  0.62940300  0.56785700  1
  Mg  Mg60  1  0.62373700  0.89062200  0.54132600  1
  Mg  Mg61  1  0.11148700  0.91818400  0.54438800  1
  Mg  Mg62  1  0.91148700  0.86818400  0.59438800  1
  Mg  Mg63  1  0.42373700  0.84062200  0.59132600  1
  Mg  Mg64  1  0.67779600  0.21327400  0.56666800  1
  Mg  Mg65  1  0.85742700  0.54553200  0.56904600  1
  Mg  Mg66  1  0.24394100  0.56444600  0.55013200  1
  Mg  Mg67  1  0.29128200  0.19435900  0.58558200  1
  Mg  Mg68  1  0.01761200  0.12940300  0.56785700  1
  Mg  Mg69  1  0.21761200  0.17940300  0.51785700  1
  Mg  Mg70  1  0.92373700  0.34062200  0.59132600  1
  Mg  Mg71  1  0.41148700  0.36818400  0.59438800  1
  Mg  Mg72  1  0.61148700  0.41818400  0.54438800  1
  Mg  Mg73  1  0.12373700  0.39062200  0.54132600  1
  Mg  Mg74  1  0.97779600  0.66327400  0.61666800  1
  Mg  Mg75  1  0.15742700  0.99553200  0.61904600  1
  Mg  Mg76  1  0.54394100  0.01444600  0.60013200  1
  Mg  Mg77  1  0.59128200  0.64435900  0.63558200  1
  Mg  Mg78  1  0.31761200  0.57940300  0.61785700  1
  Mg  Mg79  1  0.11761200  0.52940300  0.66785700  1
  Mg  Mg80  1  0.22373700  0.79062200  0.64132600  1
  Mg  Mg81  1  0.71148700  0.81818400  0.64438800  1
  Mg  Mg82  1  0.51148700  0.76818400  0.69438800  1
  Mg  Mg83  1  0.02373700  0.74062200  0.69132600  1
  Mg  Mg84  1  0.27779600  0.11327400  0.66666800  1
  Mg  Mg85  1  0.45742700  0.44553200  0.66904600  1
  Mg  Mg86  1  0.84394100  0.46444600  0.65013200  1
  Mg  Mg87  1  0.89128200  0.09435900  0.68558200  1
  Mg  Mg88  1  0.61761200  0.02940300  0.66785700  1
  Mg  Mg89  1  0.81761200  0.07940300  0.61785700  1
  Mg  Mg90  1  0.52373700  0.24062200  0.69132600  1
  Mg  Mg91  1  0.01148700  0.26818400  0.69438800  1
  Mg  Mg92  1  0.21148700  0.31818400  0.64438800  1
  Mg  Mg93  1  0.72373700  0.29062200  0.64132600  1
  Mg  Mg94  1  0.57779600  0.56327400  0.71666800  1
  Mg  Mg95  1  0.75742700  0.89553200  0.71904600  1
  Mg  Mg96  1  0.14394100  0.91444600  0.70013200  1
  Mg  Mg97  1  0.19128200  0.54435900  0.73558200  1
  Mg  Mg98  1  0.91761200  0.47940300  0.71785700  1
  Mg  Mg99  1  0.71761200  0.42940300  0.76785700  1
  Mg  Mg100  1  0.82373700  0.69062200  0.74132600  1
  Mg  Mg101  1  0.31148700  0.71818400  0.74438800  1
  Mg  Mg102  1  0.11148700  0.66818400  0.79438800  1
  Mg  Mg103  1  0.62373700  0.64062200  0.79132600  1
  Mg  Mg104  1  0.87779600  0.01327400  0.76666800  1
  Mg  Mg105  1  0.05742700  0.34553200  0.76904600  1
  Mg  Mg106  1  0.44394100  0.36444600  0.75013200  1
  Mg  Mg107  1  0.49128200  0.99435900  0.78558200  1
  Mg  Mg108  1  0.21761200  0.92940300  0.76785700  1
  Mg  Mg109  1  0.41761200  0.97940300  0.71785700  1
  Mg  Mg110  1  0.12373700  0.14062200  0.79132600  1
  Mg  Mg111  1  0.61148700  0.16818400  0.79438800  1
  Mg  Mg112  1  0.81148700  0.21818400  0.74438800  1
  Mg  Mg113  1  0.32373700  0.19062200  0.74132600  1
  Ga  Ga114  1  0.92430700  0.03863200  0.28104200  1
  Ga  Ga115  1  0.01091700  0.32017400  0.25467200  1
  Ga  Ga116  1  0.52223700  0.31828800  0.25655900  1
  Ga  Ga117  1  0.41298600  0.04051800  0.27915500  1
  Ga  Ga118  1  0.52430700  0.93863200  0.38104200  1
  Ga  Ga119  1  0.61091700  0.22017400  0.35467200  1
  Ga  Ga120  1  0.12223700  0.21828800  0.35655900  1
  Ga  Ga121  1  0.01298600  0.94051800  0.37915500  1
  Ga  Ga122  1  0.22430700  0.48863200  0.33104200  1
  Ga  Ga123  1  0.31091700  0.77017400  0.30467200  1
  Ga  Ga124  1  0.82223700  0.76828800  0.30655900  1
  Ga  Ga125  1  0.71298600  0.49051800  0.32915500  1
  Ga  Ga126  1  0.12430700  0.83863200  0.48104200  1
  Ga  Ga127  1  0.21091700  0.12017400  0.45467200  1
  Ga  Ga128  1  0.72223700  0.11828800  0.45655900  1
  Ga  Ga129  1  0.61298600  0.84051800  0.47915500  1
  Ga  Ga130  1  0.82430700  0.38863200  0.43104200  1
  Ga  Ga131  1  0.91091700  0.67017400  0.40467200  1
  Ga  Ga132  1  0.42223700  0.66828800  0.40655900  1
  Ga  Ga133  1  0.31298600  0.39051800  0.42915500  1
  Ga  Ga134  1  0.72430700  0.73863200  0.58104200  1
  Ga  Ga135  1  0.81091700  0.02017400  0.55467200  1
  Ga  Ga136  1  0.32223700  0.01828800  0.55655900  1
  Ga  Ga137  1  0.21298600  0.74051800  0.57915500  1
  Ga  Ga138  1  0.42430700  0.28863200  0.53104200  1
  Ga  Ga139  1  0.51091700  0.57017400  0.50467200  1
  Ga  Ga140  1  0.02223700  0.56828800  0.50655900  1
  Ga  Ga141  1  0.91298600  0.29051800  0.52915500  1
  Ga  Ga142  1  0.32430700  0.63863200  0.68104200  1
  Ga  Ga143  1  0.41091700  0.92017400  0.65467200  1
  Ga  Ga144  1  0.92223700  0.91828800  0.65655900  1
  Ga  Ga145  1  0.81298600  0.64051800  0.67915500  1
  Ga  Ga146  1  0.02430700  0.18863200  0.63104200  1
  Ga  Ga147  1  0.11091700  0.47017400  0.60467200  1
  Ga  Ga148  1  0.62223700  0.46828800  0.60655900  1
  Ga  Ga149  1  0.51298600  0.19051800  0.62915500  1
  Ga  Ga150  1  0.92430700  0.53863200  0.78104200  1
  Ga  Ga151  1  0.01091700  0.82017400  0.75467200  1
  Ga  Ga152  1  0.52223700  0.81828800  0.75655900  1
  Ga  Ga153  1  0.41298600  0.54051800  0.77915500  1
  Ga  Ga154  1  0.62430700  0.08863200  0.73104200  1
  Ga  Ga155  1  0.71091700  0.37017400  0.70467200  1
  Ga  Ga156  1  0.22223700  0.36828800  0.70655900  1
  Ga  Ga157  1  0.11298600  0.09051800  0.72915500  1
