# generated using pymatgen
data_Nd15Mg8
_symmetry_space_group_name_H-M   'P 1'
_cell_length_a   6.85398170
_cell_length_b   8.93304549
_cell_length_c   40.73336800
_cell_angle_alpha   87.90818910
_cell_angle_beta   89.35618046
_cell_angle_gamma   83.06678349
_symmetry_Int_Tables_number   1
_chemical_formula_structural   Nd15Mg8
_chemical_formula_sum   'Nd30 Mg16'
_cell_volume   2474.03350369
_cell_formula_units_Z   2
loop_
 _symmetry_equiv_pos_site_id
 _symmetry_equiv_pos_as_xyz
  1  'x, y, z'
loop_
 _atom_site_type_symbol
 _atom_site_label
 _atom_site_symmetry_multiplicity
 _atom_site_fract_x
 _atom_site_fract_y
 _atom_site_fract_z
 _atom_site_occupancy
  Nd  Nd0  1  0.00612400  0.43023700  0.74387600  1
  Nd  Nd1  1  0.40585100  0.05694300  0.76894400  1
  Nd  Nd2  1  0.31381600  0.50716000  0.66695300  1
  Nd  Nd3  1  0.10414400  0.81761200  0.71937100  1
  Nd  Nd4  1  0.71354300  0.13386600  0.69202100  1
  Nd  Nd5  1  0.61552300  0.74649100  0.71652600  1
  Nd  Nd6  1  0.62150900  0.58408300  0.59003000  1
  Nd  Nd7  1  0.41183600  0.89453500  0.64244800  1
  Nd  Nd8  1  0.02123600  0.21078900  0.61509800  1
  Nd  Nd9  1  0.92321600  0.82341400  0.63960300  1
  Nd  Nd10  1  0.92920100  0.66100600  0.51310700  1
  Nd  Nd11  1  0.71952900  0.97145800  0.56552500  1
  Nd  Nd12  1  0.32892800  0.28771200  0.53817500  1
  Nd  Nd13  1  0.23090800  0.90033700  0.56268000  1
  Nd  Nd14  1  0.23689300  0.73792900  0.43618400  1
  Nd  Nd15  1  0.02722100  0.04838100  0.48860200  1
  Nd  Nd16  1  0.63662000  0.36463500  0.46125200  1
  Nd  Nd17  1  0.53860000  0.97726000  0.48575700  1
  Nd  Nd18  1  0.54458600  0.81485200  0.35926100  1
  Nd  Nd19  1  0.33491300  0.12530400  0.41167900  1
  Nd  Nd20  1  0.94431300  0.44155800  0.38432900  1
  Nd  Nd21  1  0.84629300  0.05418300  0.40883400  1
  Nd  Nd22  1  0.85227800  0.89177500  0.28233800  1
  Nd  Nd23  1  0.64260600  0.20222700  0.33475600  1
  Nd  Nd24  1  0.25200500  0.51848100  0.30740600  1
  Nd  Nd25  1  0.15398500  0.13110600  0.33191100  1
  Nd  Nd26  1  0.15997000  0.96869800  0.20541500  1
  Nd  Nd27  1  0.95029800  0.27915000  0.25783300  1
  Nd  Nd28  1  0.55969700  0.59540400  0.23048300  1
  Nd  Nd29  1  0.46167700  0.20802900  0.25498800  1
  Mg  Mg30  1  0.90073500  0.08892000  0.77022300  1
  Mg  Mg31  1  0.51124000  0.39825900  0.74259700  1
  Mg  Mg32  1  0.20842700  0.16584300  0.69330000  1
  Mg  Mg33  1  0.81893300  0.47518200  0.66567400  1
  Mg  Mg34  1  0.51611900  0.24276600  0.61637700  1
  Mg  Mg35  1  0.12662500  0.55210600  0.58875100  1
  Mg  Mg36  1  0.82381200  0.31968900  0.53945400  1
  Mg  Mg37  1  0.43431700  0.62902900  0.51182800  1
  Mg  Mg38  1  0.13150400  0.39661200  0.46253100  1
  Mg  Mg39  1  0.74201000  0.70595200  0.43490500  1
  Mg  Mg40  1  0.43919600  0.47353600  0.38560800  1
  Mg  Mg41  1  0.04970200  0.78287500  0.35798200  1
  Mg  Mg42  1  0.74688900  0.55045900  0.30868500  1
  Mg  Mg43  1  0.35739400  0.85979800  0.28105900  1
  Mg  Mg44  1  0.05458100  0.62738200  0.23176200  1
  Mg  Mg45  1  0.66508700  0.93672100  0.20413600  1
