# generated using pymatgen
data_MgIn2
_symmetry_space_group_name_H-M   'P 1'
_cell_length_a   5.02728900
_cell_length_b   6.45255885
_cell_length_c   40.21830900
_cell_angle_alpha   90.00000000
_cell_angle_beta   90.00000000
_cell_angle_gamma   112.92698115
_symmetry_Int_Tables_number   1
_chemical_formula_structural   MgIn2
_chemical_formula_sum   'Mg10 In20'
_cell_volume   1201.57320402
_cell_formula_units_Z   10
loop_
 _symmetry_equiv_pos_site_id
 _symmetry_equiv_pos_as_xyz
  1  'x, y, z'
loop_
 _atom_site_type_symbol
 _atom_site_label
 _atom_site_symmetry_multiplicity
 _atom_site_fract_x
 _atom_site_fract_y
 _atom_site_fract_z
 _atom_site_occupancy
  Mg  Mg0  1  0.25000000  0.00000000  0.21875000  1
  Mg  Mg1  1  0.75000000  0.00000000  0.28125000  1
  Mg  Mg2  1  0.25000000  0.00000000  0.34375000  1
  Mg  Mg3  1  0.75000000  0.00000000  0.40625000  1
  Mg  Mg4  1  0.25000000  0.00000000  0.46875000  1
  Mg  Mg5  1  0.75000000  0.00000000  0.53125000  1
  Mg  Mg6  1  0.25000000  0.00000000  0.59375000  1
  Mg  Mg7  1  0.75000000  0.00000000  0.65625000  1
  Mg  Mg8  1  0.25000000  0.00000000  0.71875000  1
  Mg  Mg9  1  0.75000000  0.00000000  0.78125000  1
  In  In10  1  0.58830100  0.67660100  0.21875000  1
  In  In11  1  0.91169900  0.32339900  0.21875000  1
  In  In12  1  0.08830100  0.67660100  0.28125000  1
  In  In13  1  0.41169900  0.32339900  0.28125000  1
  In  In14  1  0.58830100  0.67660100  0.34375000  1
  In  In15  1  0.91169900  0.32339900  0.34375000  1
  In  In16  1  0.08830100  0.67660100  0.40625000  1
  In  In17  1  0.41169900  0.32339900  0.40625000  1
  In  In18  1  0.58830100  0.67660100  0.46875000  1
  In  In19  1  0.91169900  0.32339900  0.46875000  1
  In  In20  1  0.08830100  0.67660100  0.53125000  1
  In  In21  1  0.41169900  0.32339900  0.53125000  1
  In  In22  1  0.58830100  0.67660100  0.59375000  1
  In  In23  1  0.91169900  0.32339900  0.59375000  1
  In  In24  1  0.08830100  0.67660100  0.65625000  1
  In  In25  1  0.41169900  0.32339900  0.65625000  1
  In  In26  1  0.58830100  0.67660100  0.71875000  1
  In  In27  1  0.91169900  0.32339900  0.71875000  1
  In  In28  1  0.08830100  0.67660100  0.78125000  1
  In  In29  1  0.41169900  0.32339900  0.78125000  1
