# generated using pymatgen
data_Pm2Mg
_symmetry_space_group_name_H-M   'P 1'
_cell_length_a   5.62611600
_cell_length_b   8.90561749
_cell_length_c   44.75229100
_cell_angle_alpha   91.16740536
_cell_angle_beta   90.00000000
_cell_angle_gamma   90.00000000
_symmetry_Int_Tables_number   1
_chemical_formula_structural   Pm2Mg
_chemical_formula_sum   'Pm28 Mg14'
_cell_volume   2241.80503062
_cell_formula_units_Z   14
loop_
 _symmetry_equiv_pos_site_id
 _symmetry_equiv_pos_as_xyz
  1  'x, y, z'
loop_
 _atom_site_type_symbol
 _atom_site_label
 _atom_site_symmetry_multiplicity
 _atom_site_fract_x
 _atom_site_fract_y
 _atom_site_fract_z
 _atom_site_occupancy
  Pm  Pm0  1  0.75000000  0.62264400  0.78431800  1
  Pm  Pm1  1  0.75000000  0.31567500  0.72749300  1
  Pm  Pm2  1  0.25000000  0.04402300  0.71568200  1
  Pm  Pm3  1  0.25000000  0.35099200  0.77250700  1
  Pm  Pm4  1  0.75000000  0.70597700  0.70098500  1
  Pm  Pm5  1  0.75000000  0.39900800  0.64416000  1
  Pm  Pm6  1  0.25000000  0.12735600  0.63234900  1
  Pm  Pm7  1  0.25000000  0.43432500  0.68917400  1
  Pm  Pm8  1  0.75000000  0.78931000  0.61765100  1
  Pm  Pm9  1  0.75000000  0.48234200  0.56082600  1
  Pm  Pm10  1  0.25000000  0.21069000  0.54901500  1
  Pm  Pm11  1  0.25000000  0.51765800  0.60584000  1
  Pm  Pm12  1  0.75000000  0.87264400  0.53431800  1
  Pm  Pm13  1  0.75000000  0.56567500  0.47749300  1
  Pm  Pm14  1  0.25000000  0.29402300  0.46568200  1
  Pm  Pm15  1  0.25000000  0.60099200  0.52250700  1
  Pm  Pm16  1  0.75000000  0.95597700  0.45098500  1
  Pm  Pm17  1  0.75000000  0.64900800  0.39416000  1
  Pm  Pm18  1  0.25000000  0.37735600  0.38234900  1
  Pm  Pm19  1  0.25000000  0.68432500  0.43917400  1
  Pm  Pm20  1  0.75000000  0.03931000  0.36765100  1
  Pm  Pm21  1  0.75000000  0.73234200  0.31082600  1
  Pm  Pm22  1  0.25000000  0.46069000  0.29901500  1
  Pm  Pm23  1  0.25000000  0.76765800  0.35584000  1
  Pm  Pm24  1  0.75000000  0.12264400  0.28431800  1
  Pm  Pm25  1  0.75000000  0.81567500  0.22749300  1
  Pm  Pm26  1  0.25000000  0.54402300  0.21568200  1
  Pm  Pm27  1  0.25000000  0.85099200  0.27250700  1
  Mg  Mg28  1  0.75000000  0.96596100  0.75576600  1
  Mg  Mg29  1  0.25000000  0.70070500  0.74423400  1
  Mg  Mg30  1  0.75000000  0.04929500  0.67243300  1
  Mg  Mg31  1  0.25000000  0.78403900  0.66090000  1
  Mg  Mg32  1  0.75000000  0.13262800  0.58910000  1
  Mg  Mg33  1  0.25000000  0.86737200  0.57756700  1
  Mg  Mg34  1  0.75000000  0.21596100  0.50576600  1
  Mg  Mg35  1  0.25000000  0.95070500  0.49423400  1
  Mg  Mg36  1  0.75000000  0.29929500  0.42243300  1
  Mg  Mg37  1  0.25000000  0.03403900  0.41090000  1
  Mg  Mg38  1  0.75000000  0.38262800  0.33910000  1
  Mg  Mg39  1  0.25000000  0.11737200  0.32756700  1
  Mg  Mg40  1  0.75000000  0.46596100  0.25576600  1
  Mg  Mg41  1  0.25000000  0.20070500  0.24423400  1
