# generated using pymatgen
data_Mg28Hg13
_symmetry_space_group_name_H-M   'P 1'
_cell_length_a   8.61312000
_cell_length_b   7.97718687
_cell_length_c   42.00342800
_cell_angle_alpha   89.00209837
_cell_angle_beta   90.00000000
_cell_angle_gamma   90.00000000
_symmetry_Int_Tables_number   1
_chemical_formula_structural   Mg28Hg13
_chemical_formula_sum   'Mg56 Hg26'
_cell_volume   2885.55347167
_cell_formula_units_Z   2
loop_
 _symmetry_equiv_pos_site_id
 _symmetry_equiv_pos_as_xyz
  1  'x, y, z'
loop_
 _atom_site_type_symbol
 _atom_site_label
 _atom_site_symmetry_multiplicity
 _atom_site_fract_x
 _atom_site_fract_y
 _atom_site_fract_z
 _atom_site_occupancy
  Mg  Mg0  1  0.78854300  0.44842800  0.19993400  1
  Mg  Mg1  1  0.21145700  0.22511400  0.23946000  1
  Mg  Mg2  1  0.71145700  0.76661000  0.24538800  1
  Mg  Mg3  1  0.28854300  0.90693200  0.19400600  1
  Mg  Mg4  1  0.56198000  0.13290900  0.22628800  1
  Mg  Mg5  1  0.43802000  0.54063300  0.21310600  1
  Mg  Mg6  1  0.93802000  0.81472700  0.18083400  1
  Mg  Mg7  1  0.06198000  0.85881500  0.25856000  1
  Mg  Mg8  1  0.78854300  0.08479200  0.29084300  1
  Mg  Mg9  1  0.21145700  0.86147700  0.33036900  1
  Mg  Mg10  1  0.71145700  0.40297400  0.33629700  1
  Mg  Mg11  1  0.28854300  0.54329500  0.28491500  1
  Mg  Mg12  1  0.56198000  0.76927200  0.31719700  1
  Mg  Mg13  1  0.43802000  0.17699700  0.30401500  1
  Mg  Mg14  1  0.93802000  0.45109100  0.27174300  1
  Mg  Mg15  1  0.06198000  0.49517900  0.34946900  1
  Mg  Mg16  1  0.78854300  0.72115600  0.38175200  1
  Mg  Mg17  1  0.21145700  0.49784100  0.42127800  1
  Mg  Mg18  1  0.71145700  0.03933700  0.42720600  1
  Mg  Mg19  1  0.28854300  0.17965900  0.37582400  1
  Mg  Mg20  1  0.56198000  0.40563600  0.40810600  1
  Mg  Mg21  1  0.43802000  0.81336000  0.39492400  1
  Mg  Mg22  1  0.93802000  0.08745400  0.36265200  1
  Mg  Mg23  1  0.06198000  0.13154200  0.44037900  1
  Mg  Mg24  1  0.78854300  0.35751900  0.47266100  1
  Mg  Mg25  1  0.21145700  0.13420400  0.51218700  1
  Mg  Mg26  1  0.71145700  0.67570100  0.51811600  1
  Mg  Mg27  1  0.28854300  0.81602300  0.46673300  1
  Mg  Mg28  1  0.56198000  0.04200000  0.49901500  1
  Mg  Mg29  1  0.43802000  0.44972400  0.48583300  1
  Mg  Mg30  1  0.93802000  0.72381800  0.45356100  1
  Mg  Mg31  1  0.06198000  0.76790600  0.53128800  1
  Mg  Mg32  1  0.78854300  0.99388300  0.56357000  1
  Mg  Mg33  1  0.21145700  0.77056800  0.60309700  1
  Mg  Mg34  1  0.71145700  0.31206500  0.60902500  1
  Mg  Mg35  1  0.28854300  0.45238600  0.55764200  1
  Mg  Mg36  1  0.56198000  0.67836300  0.58992400  1
  Mg  Mg37  1  0.43802000  0.08608800  0.57674200  1
  Mg  Mg38  1  0.93802000  0.36018200  0.54447000  1
  Mg  Mg39  1  0.06198000  0.40426900  0.62219700  1
  Mg  Mg40  1  0.78854300  0.63024700  0.65447900  1
  Mg  Mg41  1  0.21145700  0.40693200  0.69400600  1
  Mg  Mg42  1  0.71145700  0.94842800  0.69993400  1
  Mg  Mg43  1  0.28854300  0.08875000  0.64855100  1
  Mg  Mg44  1  0.56198000  0.31472700  0.68083400  1
  Mg  Mg45  1  0.43802000  0.72245100  0.66765100  1
  Mg  Mg46  1  0.93802000  0.99654500  0.63537900  1
  Mg  Mg47  1  0.06198000  0.04063300  0.71310600  1
  Mg  Mg48  1  0.78854300  0.26661000  0.74538800  1
  Mg  Mg49  1  0.21145700  0.04329500  0.78491500  1
  Mg  Mg50  1  0.71145700  0.58479200  0.79084300  1
  Mg  Mg51  1  0.28854300  0.72511400  0.73946000  1
  Mg  Mg52  1  0.56198000  0.95109100  0.77174300  1
  Mg  Mg53  1  0.43802000  0.35881500  0.75856000  1
  Mg  Mg54  1  0.93802000  0.63290900  0.72628800  1
  Mg  Mg55  1  0.06198000  0.67699700  0.80401500  1
  Hg  Hg56  1  0.10846200  0.56784700  0.21699400  1
  Hg  Hg57  1  0.89153800  0.10569500  0.22240000  1
  Hg  Hg58  1  0.39153800  0.88602900  0.26244800  1
  Hg  Hg59  1  0.60846200  0.42387700  0.26785500  1
  Hg  Hg60  1  0.10846200  0.20421000  0.30790300  1
  Hg  Hg61  1  0.89153800  0.74205900  0.31331000  1
  Hg  Hg62  1  0.39153800  0.52239200  0.35335700  1
  Hg  Hg63  1  0.60846200  0.06024100  0.35876400  1
  Hg  Hg64  1  0.10846200  0.84057400  0.39881200  1
  Hg  Hg65  1  0.89153800  0.37842200  0.40421900  1
  Hg  Hg66  1  0.39153800  0.15875600  0.44426600  1
  Hg  Hg67  1  0.60846200  0.69660400  0.44967300  1
  Hg  Hg68  1  0.10846200  0.47693800  0.48972100  1
  Hg  Hg69  1  0.89153800  0.01478600  0.49512800  1
  Hg  Hg70  1  0.39153800  0.79512000  0.53517500  1
  Hg  Hg71  1  0.60846200  0.33296800  0.54058200  1
  Hg  Hg72  1  0.10846200  0.11330100  0.58063000  1
  Hg  Hg73  1  0.89153800  0.65115000  0.58603700  1
  Hg  Hg74  1  0.39153800  0.43148300  0.62608400  1
  Hg  Hg75  1  0.60846200  0.96933100  0.63149100  1
  Hg  Hg76  1  0.10846200  0.74966500  0.67153900  1
  Hg  Hg77  1  0.89153800  0.28751300  0.67694600  1
  Hg  Hg78  1  0.39153800  0.06784700  0.71699400  1
  Hg  Hg79  1  0.60846200  0.60569500  0.72240000  1
  Hg  Hg80  1  0.10846200  0.38602900  0.76244800  1
  Hg  Hg81  1  0.89153800  0.92387700  0.76785500  1
