# generated using pymatgen
data_Ba9Mg10
_symmetry_space_group_name_H-M   'P 1'
_cell_length_a   6.23489400
_cell_length_b   6.15629968
_cell_length_c   40.45390000
_cell_angle_alpha   86.87107233
_cell_angle_beta   90.00000000
_cell_angle_gamma   59.57678173
_symmetry_Int_Tables_number   1
_chemical_formula_structural   Ba9Mg10
_chemical_formula_sum   'Ba9 Mg10'
_cell_volume   1336.28813828
_cell_formula_units_Z   1
loop_
 _symmetry_equiv_pos_site_id
 _symmetry_equiv_pos_as_xyz
  1  'x, y, z'
loop_
 _atom_site_type_symbol
 _atom_site_label
 _atom_site_symmetry_multiplicity
 _atom_site_fract_x
 _atom_site_fract_y
 _atom_site_fract_z
 _atom_site_occupancy
  Ba  Ba0  1  0.26562500  0.46875000  0.23437500  1
  Ba  Ba1  1  0.95312500  0.09375000  0.29687500  1
  Ba  Ba2  1  0.64062500  0.71875000  0.35937500  1
  Ba  Ba3  1  0.32812500  0.34375000  0.42187500  1
  Ba  Ba4  1  0.01562500  0.96875000  0.48437500  1
  Ba  Ba5  1  0.70312500  0.59375000  0.54687500  1
  Ba  Ba6  1  0.39062500  0.21875000  0.60937500  1
  Ba  Ba7  1  0.07812500  0.84375000  0.67187500  1
  Ba  Ba8  1  0.76562500  0.46875000  0.73437500  1
  Mg  Mg9  1  0.92187500  0.15625000  0.20312500  1
  Mg  Mg10  1  0.60937500  0.78125000  0.26562500  1
  Mg  Mg11  1  0.29687500  0.40625000  0.32812500  1
  Mg  Mg12  1  0.98437500  0.03125000  0.39062500  1
  Mg  Mg13  1  0.67187500  0.65625000  0.45312500  1
  Mg  Mg14  1  0.35937500  0.28125000  0.51562500  1
  Mg  Mg15  1  0.04687500  0.90625000  0.57812500  1
  Mg  Mg16  1  0.73437500  0.53125000  0.64062500  1
  Mg  Mg17  1  0.42187500  0.15625000  0.70312500  1
  Mg  Mg18  1  0.10937500  0.78125000  0.76562500  1
