# generated using pymatgen
data_Y20Mg9
_symmetry_space_group_name_H-M   'P 1'
_cell_length_a   3.72656800
_cell_length_b   18.03005265
_cell_length_c   42.13259500
_cell_angle_alpha   96.30333968
_cell_angle_beta   90.00000000
_cell_angle_gamma   90.00000000
_symmetry_Int_Tables_number   1
_chemical_formula_structural   Y20Mg9
_chemical_formula_sum   'Y40 Mg18'
_cell_volume   2813.78417820
_cell_formula_units_Z   2
loop_
 _symmetry_equiv_pos_site_id
 _symmetry_equiv_pos_as_xyz
  1  'x, y, z'
loop_
 _atom_site_type_symbol
 _atom_site_label
 _atom_site_symmetry_multiplicity
 _atom_site_fract_x
 _atom_site_fract_y
 _atom_site_fract_z
 _atom_site_occupancy
  Y  Y0  1  0.50000000  0.93064400  0.20923600  1
  Y  Y1  1  0.00000000  0.77117900  0.23201700  1
  Y  Y2  1  0.00000000  0.71411700  0.31159700  1
  Y  Y3  1  0.50000000  0.87358200  0.28881600  1
  Y  Y4  1  0.00000000  0.49314400  0.27173600  1
  Y  Y5  1  0.50000000  0.33367900  0.29451700  1
  Y  Y6  1  0.50000000  0.15161700  0.24909700  1
  Y  Y7  1  0.00000000  0.31108200  0.22631600  1
  Y  Y8  1  0.50000000  0.05564400  0.33423600  1
  Y  Y9  1  0.00000000  0.89617900  0.35701700  1
  Y  Y10  1  0.00000000  0.83911700  0.43659700  1
  Y  Y11  1  0.50000000  0.99858200  0.41381600  1
  Y  Y12  1  0.00000000  0.61814400  0.39673600  1
  Y  Y13  1  0.50000000  0.45867900  0.41951700  1
  Y  Y14  1  0.50000000  0.27661700  0.37409700  1
  Y  Y15  1  0.00000000  0.43608200  0.35131600  1
  Y  Y16  1  0.50000000  0.18064400  0.45923600  1
  Y  Y17  1  0.00000000  0.02117900  0.48201700  1
  Y  Y18  1  0.00000000  0.96411700  0.56159700  1
  Y  Y19  1  0.50000000  0.12358200  0.53881600  1
  Y  Y20  1  1.00000000  0.74314400  0.52173600  1
  Y  Y21  1  0.50000000  0.58367900  0.54451700  1
  Y  Y22  1  0.50000000  0.40161700  0.49909700  1
  Y  Y23  1  0.00000000  0.56108200  0.47631600  1
  Y  Y24  1  0.50000000  0.30564400  0.58423600  1
  Y  Y25  1  0.00000000  0.14617900  0.60701700  1
  Y  Y26  1  0.00000000  0.08911700  0.68659700  1
  Y  Y27  1  0.50000000  0.24858200  0.66381600  1
  Y  Y28  1  1.00000000  0.86814400  0.64673600  1
  Y  Y29  1  0.50000000  0.70867900  0.66951700  1
  Y  Y30  1  0.50000000  0.52661700  0.62409700  1
  Y  Y31  1  0.00000000  0.68608200  0.60131600  1
  Y  Y32  1  0.50000000  0.43064400  0.70923600  1
  Y  Y33  1  0.00000000  0.27117900  0.73201700  1
  Y  Y34  1  0.00000000  0.21411700  0.81159700  1
  Y  Y35  1  0.50000000  0.37358200  0.78881600  1
  Y  Y36  1  0.00000000  0.99314400  0.77173600  1
  Y  Y37  1  0.50000000  0.83367900  0.79451700  1
  Y  Y38  1  0.50000000  0.65161700  0.74909700  1
  Y  Y39  1  0.00000000  0.81108200  0.72631600  1
  Mg  Mg40  1  0.50000000  0.63146900  0.25197500  1
  Mg  Mg41  1  0.00000000  0.01329100  0.26885800  1
  Mg  Mg42  1  0.50000000  0.75646900  0.37697500  1
  Mg  Mg43  1  0.00000000  0.13829100  0.39385800  1
  Mg  Mg44  1  0.00000000  0.19396900  0.31447500  1
  Mg  Mg45  1  0.50000000  0.57579100  0.33135800  1
  Mg  Mg46  1  0.50000000  0.88146900  0.50197500  1
  Mg  Mg47  1  0.00000000  0.26329100  0.51885800  1
  Mg  Mg48  1  0.00000000  0.31896900  0.43947500  1
  Mg  Mg49  1  0.50000000  0.70079100  0.45635800  1
  Mg  Mg50  1  0.50000000  0.00646900  0.62697500  1
  Mg  Mg51  1  0.00000000  0.38829100  0.64385800  1
  Mg  Mg52  1  0.00000000  0.44396900  0.56447500  1
  Mg  Mg53  1  0.50000000  0.82579100  0.58135800  1
  Mg  Mg54  1  0.50000000  0.13146900  0.75197500  1
  Mg  Mg55  1  0.00000000  0.51329100  0.76885800  1
  Mg  Mg56  1  0.00000000  0.56896900  0.68947500  1
  Mg  Mg57  1  0.50000000  0.95079100  0.70635800  1
