# generated using pymatgen
data_Yb2Mg
_symmetry_space_group_name_H-M   'P 1'
_cell_length_a   3.76282700
_cell_length_b   9.47017998
_cell_length_c   46.98129700
_cell_angle_alpha   90.00000000
_cell_angle_beta   90.00000000
_cell_angle_gamma   101.45903047
_symmetry_Int_Tables_number   1
_chemical_formula_structural   Yb2Mg
_chemical_formula_sum   'Yb20 Mg10'
_cell_volume   1640.79097371
_cell_formula_units_Z   10
loop_
 _symmetry_equiv_pos_site_id
 _symmetry_equiv_pos_as_xyz
  1  'x, y, z'
loop_
 _atom_site_type_symbol
 _atom_site_label
 _atom_site_symmetry_multiplicity
 _atom_site_fract_x
 _atom_site_fract_y
 _atom_site_fract_z
 _atom_site_occupancy
  Yb  Yb0  1  0.40769400  0.81538800  0.28125000  1
  Yb  Yb1  1  0.71665000  0.43330100  0.28125000  1
  Yb  Yb2  1  0.59230600  0.18461200  0.21875000  1
  Yb  Yb3  1  0.28335000  0.56669900  0.21875000  1
  Yb  Yb4  1  0.40769400  0.81538800  0.40625000  1
  Yb  Yb5  1  0.71665000  0.43330100  0.40625000  1
  Yb  Yb6  1  0.59230600  0.18461200  0.34375000  1
  Yb  Yb7  1  0.28335000  0.56669900  0.34375000  1
  Yb  Yb8  1  0.40769400  0.81538800  0.53125000  1
  Yb  Yb9  1  0.71665000  0.43330100  0.53125000  1
  Yb  Yb10  1  0.59230600  0.18461200  0.46875000  1
  Yb  Yb11  1  0.28335000  0.56669900  0.46875000  1
  Yb  Yb12  1  0.40769400  0.81538800  0.65625000  1
  Yb  Yb13  1  0.71665000  0.43330100  0.65625000  1
  Yb  Yb14  1  0.59230600  0.18461200  0.59375000  1
  Yb  Yb15  1  0.28335000  0.56669900  0.59375000  1
  Yb  Yb16  1  0.40769400  0.81538800  0.78125000  1
  Yb  Yb17  1  0.71665000  0.43330100  0.78125000  1
  Yb  Yb18  1  0.59230600  0.18461200  0.71875000  1
  Yb  Yb19  1  0.28335000  0.56669900  0.71875000  1
  Mg  Mg20  1  0.05949300  0.11898500  0.28125000  1
  Mg  Mg21  1  0.94050700  0.88101500  0.21875000  1
  Mg  Mg22  1  0.05949300  0.11898500  0.40625000  1
  Mg  Mg23  1  0.94050700  0.88101500  0.34375000  1
  Mg  Mg24  1  0.05949300  0.11898500  0.53125000  1
  Mg  Mg25  1  0.94050700  0.88101500  0.46875000  1
  Mg  Mg26  1  0.05949300  0.11898500  0.65625000  1
  Mg  Mg27  1  0.94050700  0.88101500  0.59375000  1
  Mg  Mg28  1  0.05949300  0.11898500  0.78125000  1
  Mg  Mg29  1  0.94050700  0.88101500  0.71875000  1
