# generated using pymatgen
data_Ho12Mg7
_symmetry_space_group_name_H-M   'P 1'
_cell_length_a   5.45155000
_cell_length_b   8.73039247
_cell_length_c   43.10006900
_cell_angle_alpha   90.72372495
_cell_angle_beta   90.00000000
_cell_angle_gamma   90.00000000
_symmetry_Int_Tables_number   1
_chemical_formula_structural   Ho12Mg7
_chemical_formula_sum   'Ho24 Mg14'
_cell_volume   2051.14841300
_cell_formula_units_Z   2
loop_
 _symmetry_equiv_pos_site_id
 _symmetry_equiv_pos_as_xyz
  1  'x, y, z'
loop_
 _atom_site_type_symbol
 _atom_site_label
 _atom_site_symmetry_multiplicity
 _atom_site_fract_x
 _atom_site_fract_y
 _atom_site_fract_z
 _atom_site_occupancy
  Ho  Ho0  1  0.75000000  0.66947400  0.72836300  1
  Ho  Ho1  1  0.75000000  0.28339900  0.75505500  1
  Ho  Ho2  1  0.25000000  0.02589000  0.74385900  1
  Ho  Ho3  1  0.25000000  0.41196500  0.71716700  1
  Ho  Ho4  1  0.75000000  0.75280800  0.64503000  1
  Ho  Ho5  1  0.75000000  0.36673200  0.67172200  1
  Ho  Ho6  1  0.25000000  0.10922300  0.66052600  1
  Ho  Ho7  1  0.25000000  0.49529800  0.63383400  1
  Ho  Ho8  1  0.75000000  0.83614100  0.56169600  1
  Ho  Ho9  1  0.75000000  0.45006600  0.58838900  1
  Ho  Ho10  1  0.25000000  0.19255600  0.57719300  1
  Ho  Ho11  1  0.25000000  0.57863200  0.55050000  1
  Ho  Ho12  1  0.75000000  0.91947400  0.47836300  1
  Ho  Ho13  1  0.75000000  0.53339900  0.50505500  1
  Ho  Ho14  1  0.25000000  0.27589000  0.49385900  1
  Ho  Ho15  1  0.25000000  0.66196500  0.46716700  1
  Ho  Ho16  1  0.75000000  0.00280800  0.39503000  1
  Ho  Ho17  1  0.75000000  0.61673200  0.42172200  1
  Ho  Ho18  1  0.25000000  0.35922300  0.41052600  1
  Ho  Ho19  1  0.25000000  0.74529800  0.38383400  1
  Ho  Ho20  1  0.75000000  0.08614100  0.31169600  1
  Ho  Ho21  1  0.75000000  0.70006600  0.33838900  1
  Ho  Ho22  1  0.25000000  0.44255600  0.32719300  1
  Ho  Ho23  1  0.25000000  0.82863200  0.30050000  1
  Mg  Mg24  1  0.75000000  0.93286300  0.78329300  1
  Mg  Mg25  1  0.25000000  0.67916800  0.77226300  1
  Mg  Mg26  1  0.75000000  0.01619600  0.69996000  1
  Mg  Mg27  1  0.25000000  0.76250100  0.68892900  1
  Mg  Mg28  1  0.75000000  0.09953000  0.61662600  1
  Mg  Mg29  1  0.25000000  0.84583400  0.60559600  1
  Mg  Mg30  1  0.75000000  0.18286300  0.53329300  1
  Mg  Mg31  1  0.25000000  0.92916800  0.52226300  1
  Mg  Mg32  1  0.75000000  0.26619600  0.44996000  1
  Mg  Mg33  1  0.25000000  0.01250100  0.43892900  1
  Mg  Mg34  1  0.75000000  0.34953000  0.36662600  1
  Mg  Mg35  1  0.25000000  0.09583400  0.35559600  1
  Mg  Mg36  1  0.75000000  0.43286300  0.28329300  1
  Mg  Mg37  1  0.25000000  0.17916800  0.27226300  1
