# generated using pymatgen
data_Mg6Zn31
_symmetry_space_group_name_H-M   'P 1'
_cell_length_a   4.98183600
_cell_length_b   9.38239070
_cell_length_c   50.43080200
_cell_angle_alpha   88.98550828
_cell_angle_beta   90.00000000
_cell_angle_gamma   90.00000000
_symmetry_Int_Tables_number   1
_chemical_formula_structural   Mg6Zn31
_chemical_formula_sum   'Mg12 Zn62'
_cell_volume   2356.84343743
_cell_formula_units_Z   2
loop_
 _symmetry_equiv_pos_site_id
 _symmetry_equiv_pos_as_xyz
  1  'x, y, z'
loop_
 _atom_site_type_symbol
 _atom_site_label
 _atom_site_symmetry_multiplicity
 _atom_site_fract_x
 _atom_site_fract_y
 _atom_site_fract_z
 _atom_site_occupancy
  Mg  Mg0  1  1.00000000  0.67066500  0.39964300  1
  Mg  Mg1  1  0.50000000  0.86258900  0.41980100  1
  Mg  Mg2  1  0.00000000  0.68376700  0.33594600  1
  Mg  Mg3  1  0.50000000  0.84948700  0.48349800  1
  Mg  Mg4  1  0.50000000  0.17066500  0.56631000  1
  Mg  Mg5  1  0.00000000  0.36258900  0.58646800  1
  Mg  Mg6  1  0.50000000  0.18376700  0.50261300  1
  Mg  Mg7  1  0.00000000  0.34948700  0.65016500  1
  Mg  Mg8  1  1.00000000  0.67066500  0.73297700  1
  Mg  Mg9  1  0.50000000  0.86258900  0.75313500  1
  Mg  Mg10  1  0.00000000  0.68376700  0.66928000  1
  Mg  Mg11  1  0.50000000  0.84948700  0.81683200  1
  Zn  Zn12  1  0.50000000  0.51662700  0.49305600  1
  Zn  Zn13  1  0.00000000  0.01662700  0.49305600  1
  Zn  Zn14  1  0.00000000  0.01662700  0.32638900  1
  Zn  Zn15  1  0.00000000  0.36299300  0.48197100  1
  Zn  Zn16  1  1.00000000  0.35993400  0.42309600  1
  Zn  Zn17  1  0.00000000  0.85977100  0.45064900  1
  Zn  Zn18  1  0.50000000  0.67348300  0.36879600  1
  Zn  Zn19  1  0.75265100  0.41311000  0.36912100  1
  Zn  Zn20  1  0.74714400  0.91547800  0.36766900  1
  Zn  Zn21  1  0.50000000  0.17026100  0.33747300  1
  Zn  Zn22  1  0.50000000  0.50584700  0.41049000  1
  Zn  Zn23  1  0.24714400  0.61777600  0.45177500  1
  Zn  Zn24  1  0.25285600  0.91547800  0.36766900  1
  Zn  Zn25  1  0.75285600  0.61777600  0.45177500  1
  Zn  Zn26  1  0.25265100  0.12014300  0.45032400  1
  Zn  Zn27  1  0.50000000  0.17332000  0.39634800  1
  Zn  Zn28  1  0.24734900  0.41311000  0.36912100  1
  Zn  Zn29  1  0.74734900  0.12014300  0.45032400  1
  Zn  Zn30  1  0.50000000  0.51662700  0.32638900  1
  Zn  Zn31  1  0.00000000  0.17630300  0.36625900  1
  Zn  Zn32  1  0.50000000  0.35695000  0.45318600  1
  Zn  Zn33  1  1.00000000  0.02740700  0.40895400  1
  Zn  Zn34  1  0.50000000  0.51662700  0.82638900  1
  Zn  Zn35  1  0.50000000  0.86299300  0.64863800  1
  Zn  Zn36  1  0.50000000  0.85993400  0.58976300  1
  Zn  Zn37  1  0.50000000  0.35977100  0.61731500  1
  Zn  Zn38  1  0.00000000  0.17348300  0.53546300  1
  Zn  Zn39  1  0.25265100  0.91311000  0.53578700  1
  Zn  Zn40  1  0.24714400  0.41547800  0.53433600  1
  Zn  Zn41  1  1.00000000  0.67026100  0.50414000  1
  Zn  Zn42  1  1.00000000  0.00584700  0.57715700  1
  Zn  Zn43  1  0.74714400  0.11777600  0.61844200  1
  Zn  Zn44  1  0.75285600  0.41547800  0.53433600  1
  Zn  Zn45  1  0.25285600  0.11777600  0.61844200  1
  Zn  Zn46  1  0.75265100  0.62014300  0.61699000  1
  Zn  Zn47  1  1.00000000  0.67332000  0.56301500  1
  Zn  Zn48  1  0.74734900  0.91311000  0.53578700  1
  Zn  Zn49  1  0.24734900  0.62014300  0.61699000  1
  Zn  Zn50  1  1.00000000  0.01662700  0.82638900  1
  Zn  Zn51  1  0.50000000  0.67630300  0.53292500  1
  Zn  Zn52  1  1.00000000  0.85695000  0.61985300  1
  Zn  Zn53  1  0.50000000  0.52740700  0.57562100  1
  Zn  Zn54  1  0.00000000  0.01662700  0.65972200  1
  Zn  Zn55  1  1.00000000  0.36299300  0.81530400  1
  Zn  Zn56  1  0.00000000  0.35993400  0.75642900  1
  Zn  Zn57  1  0.00000000  0.85977100  0.78398200  1
  Zn  Zn58  1  0.50000000  0.67348300  0.70212900  1
  Zn  Zn59  1  0.75265100  0.41311000  0.70245400  1
  Zn  Zn60  1  0.74714400  0.91547800  0.70100300  1
  Zn  Zn61  1  0.50000000  0.17026100  0.67080700  1
  Zn  Zn62  1  0.50000000  0.50584700  0.74382300  1
  Zn  Zn63  1  0.24714400  0.61777600  0.78510900  1
  Zn  Zn64  1  0.25285600  0.91547800  0.70100300  1
  Zn  Zn65  1  0.75285600  0.61777600  0.78510900  1
  Zn  Zn66  1  0.25265100  0.12014300  0.78365700  1
  Zn  Zn67  1  0.50000000  0.17332000  0.72968200  1
  Zn  Zn68  1  0.24734900  0.41311000  0.70245400  1
  Zn  Zn69  1  0.74734900  0.12014300  0.78365700  1
  Zn  Zn70  1  0.50000000  0.51662700  0.65972200  1
  Zn  Zn71  1  1.00000000  0.17630300  0.69959200  1
  Zn  Zn72  1  0.50000000  0.35695000  0.78651900  1
  Zn  Zn73  1  0.00000000  0.02740700  0.74228800  1
