# generated using pymatgen
data_Ce6Mg11
_symmetry_space_group_name_H-M   'P 1'
_cell_length_a   3.18877500
_cell_length_b   18.55768369
_cell_length_c   50.11430100
_cell_angle_alpha   94.53326837
_cell_angle_beta   90.00000000
_cell_angle_gamma   90.00000000
_symmetry_Int_Tables_number   1
_chemical_formula_structural   Ce6Mg11
_chemical_formula_sum   'Ce24 Mg44'
_cell_volume   2956.30031137
_cell_formula_units_Z   4
loop_
 _symmetry_equiv_pos_site_id
 _symmetry_equiv_pos_as_xyz
  1  'x, y, z'
loop_
 _atom_site_type_symbol
 _atom_site_label
 _atom_site_symmetry_multiplicity
 _atom_site_fract_x
 _atom_site_fract_y
 _atom_site_fract_z
 _atom_site_occupancy
  Ce  Ce0  1  0.00000000  0.54310500  0.20445700  1
  Ce  Ce1  1  0.50000000  0.97333100  0.21221000  1
  Ce  Ce2  1  0.50000000  0.09310500  0.25445700  1
  Ce  Ce3  1  0.00000000  0.52333100  0.26221000  1
  Ce  Ce4  1  0.00000000  0.64310500  0.30445700  1
  Ce  Ce5  1  0.50000000  0.07333100  0.31221000  1
  Ce  Ce6  1  0.50000000  0.19310500  0.35445700  1
  Ce  Ce7  1  0.00000000  0.62333100  0.36221000  1
  Ce  Ce8  1  0.00000000  0.74310500  0.40445700  1
  Ce  Ce9  1  0.50000000  0.17333100  0.41221000  1
  Ce  Ce10  1  0.50000000  0.29310500  0.45445700  1
  Ce  Ce11  1  0.00000000  0.72333100  0.46221000  1
  Ce  Ce12  1  0.00000000  0.84310500  0.50445700  1
  Ce  Ce13  1  0.50000000  0.27333100  0.51221000  1
  Ce  Ce14  1  0.50000000  0.39310500  0.55445700  1
  Ce  Ce15  1  0.00000000  0.82333100  0.56221000  1
  Ce  Ce16  1  0.00000000  0.94310500  0.60445700  1
  Ce  Ce17  1  0.50000000  0.37333100  0.61221000  1
  Ce  Ce18  1  0.50000000  0.49310500  0.65445700  1
  Ce  Ce19  1  0.00000000  0.92333100  0.66221000  1
  Ce  Ce20  1  0.00000000  0.04310500  0.70445700  1
  Ce  Ce21  1  0.50000000  0.47333100  0.71221000  1
  Ce  Ce22  1  0.50000000  0.59310500  0.75445700  1
  Ce  Ce23  1  0.00000000  0.02333100  0.76221000  1
  Mg  Mg24  1  0.00000000  0.94518400  0.27089300  1
  Mg  Mg25  1  0.50000000  0.80424900  0.28655200  1
  Mg  Mg26  1  0.00000000  0.81218600  0.23011500  1
  Mg  Mg27  1  0.50000000  0.67125100  0.24577400  1
  Mg  Mg28  1  0.50000000  0.39518400  0.22089300  1
  Mg  Mg29  1  0.00000000  0.25424900  0.23655200  1
  Mg  Mg30  1  0.50000000  0.36218600  0.28011500  1
  Mg  Mg31  1  0.00000000  0.22125100  0.29577400  1
  Mg  Mg32  1  0.00000000  0.04518400  0.37089300  1
  Mg  Mg33  1  0.50000000  0.90424900  0.38655200  1
  Mg  Mg34  1  0.00000000  0.91218600  0.33011500  1
  Mg  Mg35  1  0.50000000  0.77125100  0.34577400  1
  Mg  Mg36  1  0.50000000  0.49518400  0.32089300  1
  Mg  Mg37  1  0.00000000  0.35424900  0.33655200  1
  Mg  Mg38  1  0.50000000  0.46218600  0.38011500  1
  Mg  Mg39  1  0.00000000  0.32125100  0.39577400  1
  Mg  Mg40  1  0.00000000  0.14518400  0.47089300  1
  Mg  Mg41  1  0.50000000  0.00424900  0.48655200  1
  Mg  Mg42  1  0.00000000  0.01218600  0.43011500  1
  Mg  Mg43  1  0.50000000  0.87125100  0.44577400  1
  Mg  Mg44  1  0.50000000  0.59518400  0.42089300  1
  Mg  Mg45  1  1.00000000  0.45424900  0.43655200  1
  Mg  Mg46  1  0.50000000  0.56218600  0.48011500  1
  Mg  Mg47  1  0.00000000  0.42125100  0.49577400  1
  Mg  Mg48  1  0.00000000  0.24518400  0.57089300  1
  Mg  Mg49  1  0.50000000  0.10424900  0.58655200  1
  Mg  Mg50  1  0.00000000  0.11218600  0.53011500  1
  Mg  Mg51  1  0.50000000  0.97125100  0.54577400  1
  Mg  Mg52  1  0.50000000  0.69518400  0.52089300  1
  Mg  Mg53  1  0.00000000  0.55424900  0.53655200  1
  Mg  Mg54  1  0.50000000  0.66218600  0.58011500  1
  Mg  Mg55  1  0.00000000  0.52125100  0.59577400  1
  Mg  Mg56  1  0.00000000  0.34518400  0.67089300  1
  Mg  Mg57  1  0.50000000  0.20424900  0.68655200  1
  Mg  Mg58  1  0.00000000  0.21218600  0.63011500  1
  Mg  Mg59  1  0.50000000  0.07125100  0.64577400  1
  Mg  Mg60  1  0.50000000  0.79518400  0.62089300  1
  Mg  Mg61  1  0.00000000  0.65424900  0.63655200  1
  Mg  Mg62  1  0.50000000  0.76218600  0.68011500  1
  Mg  Mg63  1  0.00000000  0.62125100  0.69577400  1
  Mg  Mg64  1  0.00000000  0.31218600  0.73011500  1
  Mg  Mg65  1  0.50000000  0.17125100  0.74577400  1
  Mg  Mg66  1  0.50000000  0.89518400  0.72089300  1
  Mg  Mg67  1  0.00000000  0.75424900  0.73655200  1
