# generated using pymatgen
data_Mg28Zn47
_symmetry_space_group_name_H-M   'P 1'
_cell_length_a   5.07402260
_cell_length_b   13.26606241
_cell_length_c   57.00757700
_cell_angle_alpha   92.18610401
_cell_angle_beta   87.66012493
_cell_angle_gamma   100.62858194
_symmetry_Int_Tables_number   1
_chemical_formula_structural   Mg28Zn47
_chemical_formula_sum   'Mg28 Zn47'
_cell_volume   3766.49990850
_cell_formula_units_Z   1
loop_
 _symmetry_equiv_pos_site_id
 _symmetry_equiv_pos_as_xyz
  1  'x, y, z'
loop_
 _atom_site_type_symbol
 _atom_site_label
 _atom_site_symmetry_multiplicity
 _atom_site_fract_x
 _atom_site_fract_y
 _atom_site_fract_z
 _atom_site_occupancy
  Mg  Mg0  1  0.19561300  0.56881800  0.42950100  1
  Mg  Mg1  1  0.74550700  0.68953600  0.44365000  1
  Mg  Mg2  1  0.07102400  0.35950500  0.46155900  1
  Mg  Mg3  1  0.84402700  0.89999900  0.46544100  1
  Mg  Mg4  1  0.32674500  0.83214800  0.43077300  1
  Mg  Mg5  1  0.39392100  0.02071700  0.47959000  1
  Mg  Mg6  1  0.51851000  0.23002900  0.44753200  1
  Mg  Mg7  1  0.26278900  0.75738600  0.47831800  1
  Mg  Mg8  1  0.94561300  0.31881800  0.67950100  1
  Mg  Mg9  1  0.15511400  0.68564500  0.63290200  1
  Mg  Mg10  1  0.50703700  0.31646700  0.54262500  1
  Mg  Mg11  1  0.49550700  0.43953600  0.69365000  1
  Mg  Mg12  1  0.62814500  0.61354700  0.60508400  1
  Mg  Mg13  1  0.82102400  0.10950500  0.71155900  1
  Mg  Mg14  1  0.51153300  0.36916600  0.59868200  1
  Mg  Mg15  1  0.59402700  0.64999900  0.71544100  1
  Mg  Mg16  1  0.94822300  0.26908400  0.62359200  1
  Mg  Mg17  1  0.71138900  0.72598700  0.55400700  1
  Mg  Mg18  1  0.83249700  0.02306700  0.61646600  1
  Mg  Mg19  1  0.39131100  0.07045000  0.53549900  1
  Mg  Mg20  1  0.07674500  0.58214800  0.68077300  1
  Mg  Mg21  1  0.07307600  0.41357100  0.51733800  1
  Mg  Mg22  1  0.26645800  0.92596300  0.64175300  1
  Mg  Mg23  1  0.82800100  0.97036800  0.56040900  1
  Mg  Mg24  1  0.14392100  0.77071700  0.72959000  1
  Mg  Mg25  1  0.26851000  0.98002900  0.69753200  1
  Mg  Mg26  1  0.18442100  0.65388900  0.52618900  1
  Mg  Mg27  1  0.01278900  0.50738600  0.72831800  1
  Zn  Zn28  1  0.01571800  0.20400800  0.42027200  1
  Zn  Zn29  1  0.85749300  0.36952100  0.41066500  1
  Zn  Zn30  1  0.63424900  0.46278000  0.44534500  1
  Zn  Zn31  1  0.57381600  0.38552600  0.48881900  1
  Zn  Zn32  1  0.40484800  0.55814900  0.47946000  1
  Zn  Zn33  1  0.18468600  0.03138500  0.42963100  1
  Zn  Zn34  1  0.35254700  0.36788500  0.41079600  1
  Zn  Zn35  1  0.92002300  0.56124500  0.47900500  1
  Zn  Zn36  1  0.66951100  0.02828900  0.43008600  1
  Zn  Zn37  1  0.23698700  0.22164900  0.49829500  1
  Zn  Zn38  1  0.73204100  0.22001300  0.49842600  1
  Zn  Zn39  1  0.95528500  0.12675400  0.46374600  1
  Zn  Zn40  1  0.07539900  0.49590000  0.60261800  1
  Zn  Zn41  1  0.60902900  0.62617800  0.65889200  1
  Zn  Zn42  1  0.38233600  0.14264300  0.62025900  1
  Zn  Zn43  1  0.05566300  0.87742100  0.51662300  1
  Zn  Zn44  1  0.49470100  0.82914100  0.59873600  1
  Zn  Zn45  1  0.78978300  0.46651100  0.64216300  1
  Zn  Zn46  1  0.66976700  0.16976700  0.57954500  1
  Zn  Zn47  1  0.26413500  0.84363400  0.55647300  1
  Zn  Zn48  1  0.76571800  0.95400800  0.67027200  1
  Zn  Zn49  1  0.35108200  0.51004400  0.56032600  1
  Zn  Zn50  1  0.60749300  0.11952100  0.66066500  1
  Zn  Zn51  1  0.38424900  0.21278000  0.69534500  1
  Zn  Zn52  1  0.00922200  0.34110900  0.57114500  1
  Zn  Zn53  1  0.62676200  0.53668000  0.52145100  1
  Zn  Zn54  1  0.73050500  0.71335600  0.50019900  1
  Zn  Zn55  1  0.32381600  0.13552600  0.73881900  1
  Zn  Zn56  1  0.15484800  0.30814900  0.72946000  1
  Zn  Zn57  1  0.98845200  0.82949000  0.59876500  1
  Zn  Zn58  1  0.54975100  0.87302300  0.51692800  1
  Zn  Zn59  1  0.33031200  0.99842500  0.58794600  1
  Zn  Zn60  1  0.93468600  0.78138500  0.67963100  1
  Zn  Zn61  1  0.84483300  0.51039300  0.56035400  1
  Zn  Zn62  1  0.16976700  0.16976700  0.57954500  1
  Zn  Zn63  1  0.45274600  0.29575800  0.65068000  1
  Zn  Zn64  1  0.10254700  0.11788500  0.66079600  1
  Zn  Zn65  1  0.67002300  0.31124500  0.72900500  1
  Zn  Zn66  1  0.88678800  0.04377600  0.50841100  1
  Zn  Zn67  1  0.41951100  0.77828900  0.68008600  1
  Zn  Zn68  1  0.71277200  0.80285400  0.63764000  1
  Zn  Zn69  1  0.98698700  0.97164900  0.74829500  1
  Zn  Zn70  1  0.28387100  0.46211300  0.64246800  1
  Zn  Zn71  1  0.16976700  0.66976700  0.57954500  1
  Zn  Zn72  1  0.48204100  0.97001300  0.74842600  1
  Zn  Zn73  1  0.70528500  0.87675400  0.71374600  1
  Zn  Zn74  1  0.95719800  0.19689100  0.53883200  1
