# generated using pymatgen
data_Mg25Hg13
_symmetry_space_group_name_H-M   'P 1'
_cell_length_a   8.61312000
_cell_length_b   7.97718687
_cell_length_c   42.00342800
_cell_angle_alpha   89.00209837
_cell_angle_beta   90.00000000
_cell_angle_gamma   90.00000000
_symmetry_Int_Tables_number   1
_chemical_formula_structural   Mg25Hg13
_chemical_formula_sum   'Mg50 Hg26'
_cell_volume   2885.55347167
_cell_formula_units_Z   2
loop_
 _symmetry_equiv_pos_site_id
 _symmetry_equiv_pos_as_xyz
  1  'x, y, z'
loop_
 _atom_site_type_symbol
 _atom_site_label
 _atom_site_symmetry_multiplicity
 _atom_site_fract_x
 _atom_site_fract_y
 _atom_site_fract_z
 _atom_site_occupancy
  Mg  Mg0  1  0.93802000  0.48521000  0.26416700  1
  Mg  Mg1  1  0.06198000  0.89293400  0.25098500  1
  Mg  Mg2  1  0.78854300  0.11891200  0.28326700  1
  Mg  Mg3  1  0.21145700  0.89559700  0.32279400  1
  Mg  Mg4  1  0.71145700  0.43709300  0.32872200  1
  Mg  Mg5  1  0.28854300  0.57741500  0.27733900  1
  Mg  Mg6  1  0.56198000  0.80339200  0.30962100  1
  Mg  Mg7  1  0.43802000  0.21111600  0.29643900  1
  Mg  Mg8  1  0.93802000  0.12157400  0.35507600  1
  Mg  Mg9  1  0.06198000  0.52929800  0.34189400  1
  Mg  Mg10  1  0.78854300  0.75527500  0.37417600  1
  Mg  Mg11  1  0.21145700  0.53196000  0.41370300  1
  Mg  Mg12  1  0.71145700  0.07345700  0.41963100  1
  Mg  Mg13  1  0.28854300  0.21377900  0.36824800  1
  Mg  Mg14  1  0.56198000  0.43975600  0.40053100  1
  Mg  Mg15  1  0.43802000  0.84748000  0.38734800  1
  Mg  Mg16  1  0.93802000  0.75793700  0.44598500  1
  Mg  Mg17  1  0.06198000  0.16566200  0.43280300  1
  Mg  Mg18  1  0.78854300  0.39163900  0.46508500  1
  Mg  Mg19  1  0.21145700  0.16832400  0.50461200  1
  Mg  Mg20  1  0.71145700  0.70982100  0.51054000  1
  Mg  Mg21  1  0.28854300  0.85014200  0.45915700  1
  Mg  Mg22  1  0.56198000  0.07611900  0.49144000  1
  Mg  Mg23  1  0.43802000  0.48384400  0.47825700  1
  Mg  Mg24  1  0.93802000  0.39430100  0.53689400  1
  Mg  Mg25  1  0.06198000  0.80202500  0.52371200  1
  Mg  Mg26  1  0.78854300  0.02800200  0.55599400  1
  Mg  Mg27  1  0.21145700  0.80468800  0.59552100  1
  Mg  Mg28  1  0.71145700  0.34618400  0.60144900  1
  Mg  Mg29  1  0.28854300  0.48650600  0.55006600  1
  Mg  Mg30  1  0.56198000  0.71248300  0.58234900  1
  Mg  Mg31  1  0.43802000  0.12020700  0.56916600  1
  Mg  Mg32  1  0.93802000  0.03066500  0.62780300  1
  Mg  Mg33  1  0.06198000  0.43838900  0.61462100  1
  Mg  Mg34  1  0.78854300  0.66436600  0.64690300  1
  Mg  Mg35  1  0.21145700  0.44105100  0.68643000  1
  Mg  Mg36  1  0.71145700  0.98254800  0.69235800  1
  Mg  Mg37  1  0.28854300  0.12286900  0.64097500  1
  Mg  Mg38  1  0.56198000  0.34884700  0.67325800  1
  Mg  Mg39  1  0.43802000  0.75657100  0.66007600  1
  Mg  Mg40  1  0.93802000  0.66702800  0.71871200  1
  Mg  Mg41  1  0.06198000  0.07475300  0.70553000  1
  Mg  Mg42  1  0.78854300  0.30073000  0.73781300  1
  Mg  Mg43  1  0.21145700  0.07741500  0.77733900  1
  Mg  Mg44  1  0.71145700  0.61891200  0.78326700  1
  Mg  Mg45  1  0.28854300  0.75923300  0.73188400  1
  Mg  Mg46  1  0.56198000  0.98521000  0.76416700  1
  Mg  Mg47  1  0.43802000  0.39293400  0.75098500  1
  Mg  Mg48  1  0.93802000  0.30339200  0.80962100  1
  Mg  Mg49  1  0.06198000  0.71111600  0.79643900  1
  Hg  Hg50  1  0.39153800  0.92014800  0.25487200  1
  Hg  Hg51  1  0.60846200  0.45799600  0.26027900  1
  Hg  Hg52  1  0.10846200  0.23833000  0.30032700  1
  Hg  Hg53  1  0.89153800  0.77617800  0.30573400  1
  Hg  Hg54  1  0.39153800  0.55651200  0.34578100  1
  Hg  Hg55  1  0.60846200  0.09436000  0.35118800  1
  Hg  Hg56  1  0.10846200  0.87469400  0.39123600  1
  Hg  Hg57  1  0.89153800  0.41254200  0.39664300  1
  Hg  Hg58  1  0.39153800  0.19287500  0.43669000  1
  Hg  Hg59  1  0.60846200  0.73072400  0.44209700  1
  Hg  Hg60  1  0.10846200  0.51105700  0.48214500  1
  Hg  Hg61  1  0.89153800  0.04890600  0.48755200  1
  Hg  Hg62  1  0.39153800  0.82923900  0.52760000  1
  Hg  Hg63  1  0.60846200  0.36708700  0.53300600  1
  Hg  Hg64  1  0.10846200  0.14742100  0.57305400  1
  Hg  Hg65  1  0.89153800  0.68526900  0.57846100  1
  Hg  Hg66  1  0.39153800  0.46560300  0.61850900  1
  Hg  Hg67  1  0.60846200  0.00345100  0.62391600  1
  Hg  Hg68  1  0.10846200  0.78378500  0.66396300  1
  Hg  Hg69  1  0.89153800  0.32163300  0.66937000  1
  Hg  Hg70  1  0.39153800  0.10196600  0.70941800  1
  Hg  Hg71  1  0.60846200  0.63981500  0.71482500  1
  Hg  Hg72  1  0.10846200  0.42014800  0.75487200  1
  Hg  Hg73  1  0.89153800  0.95799600  0.76027900  1
  Hg  Hg74  1  0.39153800  0.73833000  0.80032700  1
  Hg  Hg75  1  0.60846200  0.27617800  0.80573400  1
