# generated using pymatgen
data_SmMg
_symmetry_space_group_name_H-M   'P 1'
_cell_length_a   3.83724700
_cell_length_b   5.42668700
_cell_length_c   43.41349400
_cell_angle_alpha   90.00000000
_cell_angle_beta   90.00000000
_cell_angle_gamma   90.00000000
_symmetry_Int_Tables_number   1
_chemical_formula_structural   SmMg
_chemical_formula_sum   'Sm10 Mg10'
_cell_volume   904.02255985
_cell_formula_units_Z   10
loop_
 _symmetry_equiv_pos_site_id
 _symmetry_equiv_pos_as_xyz
  1  'x, y, z'
loop_
 _atom_site_type_symbol
 _atom_site_label
 _atom_site_symmetry_multiplicity
 _atom_site_fract_x
 _atom_site_fract_y
 _atom_site_fract_z
 _atom_site_occupancy
  Sm  Sm0  1  0.50000000  0.25000000  0.21875000  1
  Sm  Sm1  1  0.50000000  0.75000000  0.28125000  1
  Sm  Sm2  1  0.50000000  0.25000000  0.34375000  1
  Sm  Sm3  1  0.50000000  0.75000000  0.40625000  1
  Sm  Sm4  1  0.50000000  0.25000000  0.46875000  1
  Sm  Sm5  1  0.50000000  0.75000000  0.53125000  1
  Sm  Sm6  1  0.50000000  0.25000000  0.59375000  1
  Sm  Sm7  1  0.50000000  0.75000000  0.65625000  1
  Sm  Sm8  1  0.50000000  0.25000000  0.71875000  1
  Sm  Sm9  1  0.50000000  0.75000000  0.78125000  1
  Mg  Mg10  1  0.00000000  0.75000000  0.21875000  1
  Mg  Mg11  1  0.00000000  0.25000000  0.28125000  1
  Mg  Mg12  1  1.00000000  0.75000000  0.34375000  1
  Mg  Mg13  1  1.00000000  0.25000000  0.40625000  1
  Mg  Mg14  1  1.00000000  0.75000000  0.46875000  1
  Mg  Mg15  1  1.00000000  0.25000000  0.53125000  1
  Mg  Mg16  1  1.00000000  0.75000000  0.59375000  1
  Mg  Mg17  1  1.00000000  0.25000000  0.65625000  1
  Mg  Mg18  1  1.00000000  0.75000000  0.71875000  1
  Mg  Mg19  1  1.00000000  0.25000000  0.78125000  1
