# generated using pymatgen
data_Pm2Mg
_symmetry_space_group_name_H-M   'P 1'
_cell_length_a   6.79888396
_cell_length_b   8.90561694
_cell_length_c   43.55696400
_cell_angle_alpha   90.95301810
_cell_angle_beta   92.28710105
_cell_angle_gamma   96.91119972
_symmetry_Int_Tables_number   1
_chemical_formula_structural   Pm2Mg
_chemical_formula_sum   'Pm36 Mg18'
_cell_volume   2615.43875584
_cell_formula_units_Z   18
loop_
 _symmetry_equiv_pos_site_id
 _symmetry_equiv_pos_as_xyz
  1  'x, y, z'
loop_
 _atom_site_type_symbol
 _atom_site_label
 _atom_site_symmetry_multiplicity
 _atom_site_fract_x
 _atom_site_fract_y
 _atom_site_fract_z
 _atom_site_occupancy
  Pm  Pm0  1  0.06091000  0.40221600  0.22584400  1
  Pm  Pm1  1  0.97002400  0.78873100  0.24856600  1
  Pm  Pm2  1  0.65337500  0.02635600  0.20272800  1
  Pm  Pm3  1  0.74426200  0.63984100  0.18000600  1
  Pm  Pm4  1  0.77519600  0.47364400  0.29727200  1
  Pm  Pm5  1  0.68430900  0.86015900  0.31999400  1
  Pm  Pm6  1  0.36766100  0.09778400  0.27415600  1
  Pm  Pm7  1  0.45854800  0.71126900  0.25143400  1
  Pm  Pm8  1  0.48948200  0.54507300  0.36870100  1
  Pm  Pm9  1  0.39859500  0.93158800  0.39142300  1
  Pm  Pm10  1  0.08194700  0.16921300  0.34558500  1
  Pm  Pm11  1  0.17283400  0.78269800  0.32286300  1
  Pm  Pm12  1  0.20376700  0.61650100  0.44013000  1
  Pm  Pm13  1  0.11288100  0.00301600  0.46285100  1
  Pm  Pm14  1  0.79623300  0.24064100  0.41701300  1
  Pm  Pm15  1  0.88711900  0.85412600  0.39429200  1
  Pm  Pm16  1  0.91805300  0.68793000  0.51155800  1
  Pm  Pm17  1  0.82716600  0.07444500  0.53428000  1
  Pm  Pm18  1  0.51051800  0.31207000  0.48844200  1
  Pm  Pm19  1  0.60140500  0.92555500  0.46572000  1
  Pm  Pm20  1  0.63233900  0.75935900  0.58298700  1
  Pm  Pm21  1  0.54145200  0.14587400  0.60570800  1
  Pm  Pm22  1  0.22480400  0.38349900  0.55987000  1
  Pm  Pm23  1  0.31569100  0.99698400  0.53714900  1
  Pm  Pm24  1  0.34662500  0.83078700  0.65441500  1
  Pm  Pm25  1  0.25573800  0.21730200  0.67713700  1
  Pm  Pm26  1  0.93909000  0.45492700  0.63129900  1
  Pm  Pm27  1  0.02997600  0.06841200  0.60857700  1
  Pm  Pm28  1  0.06091000  0.90221600  0.72584400  1
  Pm  Pm29  1  0.97002400  0.28873100  0.74856600  1
  Pm  Pm30  1  0.65337500  0.52635600  0.70272800  1
  Pm  Pm31  1  0.74426200  0.13984100  0.68000600  1
  Pm  Pm32  1  0.77519600  0.97364400  0.79727200  1
  Pm  Pm33  1  0.68430900  0.36015900  0.81999400  1
  Pm  Pm34  1  0.36766100  0.59778400  0.77415600  1
  Pm  Pm35  1  0.45854800  0.21126900  0.75143400  1
  Mg  Mg36  1  0.15880100  0.06297700  0.20137100  1
  Mg  Mg37  1  0.55548500  0.36559400  0.22720000  1
  Mg  Mg38  1  0.87308700  0.13440600  0.27280000  1
  Mg  Mg39  1  0.26977100  0.43702300  0.29862900  1
  Mg  Mg40  1  0.58737200  0.20583400  0.34422800  1
  Mg  Mg41  1  0.98405600  0.50845200  0.37005700  1
  Mg  Mg42  1  0.30165800  0.27726300  0.41565700  1
  Mg  Mg43  1  0.69834200  0.57988000  0.44148600  1
  Mg  Mg44  1  0.01594400  0.34869100  0.48708600  1
  Mg  Mg45  1  0.41262800  0.65130900  0.51291400  1
  Mg  Mg46  1  0.73022900  0.42012000  0.55851400  1
  Mg  Mg47  1  0.12691300  0.72273700  0.58434300  1
  Mg  Mg48  1  0.44451500  0.49154800  0.62994300  1
  Mg  Mg49  1  0.84119900  0.79416600  0.65577200  1
  Mg  Mg50  1  0.15880100  0.56297700  0.70137100  1
  Mg  Mg51  1  0.55548500  0.86559400  0.72720000  1
  Mg  Mg52  1  0.87308700  0.63440600  0.77280000  1
  Mg  Mg53  1  0.26977100  0.93702300  0.79862900  1
