# generated using pymatgen
data_Mg45Ir11
_symmetry_space_group_name_H-M   'P 1'
_cell_length_a   8.24582600
_cell_length_b   9.82944229
_cell_length_c   49.03777500
_cell_angle_alpha   90.00000000
_cell_angle_beta   90.00000000
_cell_angle_gamma   106.23813566
_symmetry_Int_Tables_number   1
_chemical_formula_structural   Mg45Ir11
_chemical_formula_sum   'Mg90 Ir22'
_cell_volume   3816.04764390
_cell_formula_units_Z   2
loop_
 _symmetry_equiv_pos_site_id
 _symmetry_equiv_pos_as_xyz
  1  'x, y, z'
loop_
 _atom_site_type_symbol
 _atom_site_label
 _atom_site_symmetry_multiplicity
 _atom_site_fract_x
 _atom_site_fract_y
 _atom_site_fract_z
 _atom_site_occupancy
  Mg  Mg0  1  0.61784800  0.35354300  0.70833300  1
  Mg  Mg1  1  0.11784800  0.35354300  0.70833300  1
  Mg  Mg2  1  0.86784800  0.85354300  0.70833300  1
  Mg  Mg3  1  0.36784800  0.85354300  0.70833300  1
  Mg  Mg4  1  0.28393400  0.11577900  0.68969000  1
  Mg  Mg5  1  0.12485100  0.63853200  0.67394900  1
  Mg  Mg6  1  0.61084400  0.06855400  0.67394900  1
  Mg  Mg7  1  0.45176200  0.59130700  0.68969000  1
  Mg  Mg8  1  0.95176200  0.59130700  0.72697600  1
  Mg  Mg9  1  0.11084400  0.06855400  0.74271800  1
  Mg  Mg10  1  0.62485100  0.63853200  0.74271800  1
  Mg  Mg11  1  0.78393400  0.11577900  0.72697600  1
  Mg  Mg12  1  0.36784800  0.60354300  0.62500000  1
  Mg  Mg13  1  0.11784800  0.85354300  0.54166700  1
  Mg  Mg14  1  0.86784800  0.10354300  0.62500000  1
  Mg  Mg15  1  0.86784800  0.60354300  0.62500000  1
  Mg  Mg16  1  0.61784800  0.85354300  0.54166700  1
  Mg  Mg17  1  0.36784800  0.10354300  0.62500000  1
  Mg  Mg18  1  0.55157700  0.90473000  0.60291000  1
  Mg  Mg19  1  0.86784800  0.85354300  0.58584700  1
  Mg  Mg20  1  0.18411900  0.80235600  0.60291000  1
  Mg  Mg21  1  0.18411900  0.30235600  0.64709000  1
  Mg  Mg22  1  0.86784800  0.35354300  0.66415300  1
  Mg  Mg23  1  0.55157700  0.40473000  0.64709000  1
  Mg  Mg24  1  0.36784800  0.35354300  0.54166700  1
  Mg  Mg25  1  0.86784800  0.35354300  0.54166700  1
  Mg  Mg26  1  0.78393400  0.61577900  0.52302400  1
  Mg  Mg27  1  0.62485100  0.13853200  0.50728200  1
  Mg  Mg28  1  0.68078000  0.30631800  0.59469400  1
  Mg  Mg29  1  0.05491500  0.40076800  0.59469400  1
  Mg  Mg30  1  0.11084400  0.56855400  0.50728200  1
  Mg  Mg31  1  0.95176200  0.09130700  0.52302400  1
  Mg  Mg32  1  0.45176200  0.09130700  0.56031000  1
  Mg  Mg33  1  0.61084400  0.56855400  0.57605100  1
  Mg  Mg34  1  0.05491500  0.90076800  0.65530600  1
  Mg  Mg35  1  0.68078000  0.80631800  0.65530600  1
  Mg  Mg36  1  0.12485100  0.13853200  0.57605100  1
  Mg  Mg37  1  0.28393400  0.61577900  0.56031000  1
  Mg  Mg38  1  0.86784800  0.10354300  0.45833300  1
  Mg  Mg39  1  0.61784800  0.35354300  0.37500000  1
  Mg  Mg40  1  0.36784800  0.60354300  0.45833300  1
  Mg  Mg41  1  0.36784800  0.10354300  0.45833300  1
  Mg  Mg42  1  0.11784800  0.35354300  0.37500000  1
  Mg  Mg43  1  0.86784800  0.60354300  0.45833300  1
  Mg  Mg44  1  0.05157700  0.40473000  0.43624300  1
  Mg  Mg45  1  0.36784800  0.35354300  0.41918100  1
  Mg  Mg46  1  0.68411900  0.30235600  0.43624300  1
  Mg  Mg47  1  0.68411900  0.80235600  0.48042400  1
  Mg  Mg48  1  0.36784800  0.85354300  0.49748600  1
  Mg  Mg49  1  0.05157700  0.90473000  0.48042400  1
  Mg  Mg50  1  0.86784800  0.85354300  0.37500000  1
  Mg  Mg51  1  0.36784800  0.85354300  0.37500000  1
  Mg  Mg52  1  0.28393400  0.11577900  0.35635700  1
  Mg  Mg53  1  0.12485100  0.63853200  0.34061500  1
  Mg  Mg54  1  0.18078000  0.80631800  0.42802700  1
  Mg  Mg55  1  0.55491500  0.90076800  0.42802700  1
  Mg  Mg56  1  0.61084400  0.06855400  0.34061500  1
  Mg  Mg57  1  0.45176200  0.59130700  0.35635700  1
  Mg  Mg58  1  0.95176200  0.59130700  0.39364300  1
  Mg  Mg59  1  0.11084400  0.06855400  0.40938500  1
  Mg  Mg60  1  0.55491500  0.40076800  0.48863900  1
  Mg  Mg61  1  0.18078000  0.30631800  0.48863900  1
  Mg  Mg62  1  0.62485100  0.63853200  0.40938500  1
  Mg  Mg63  1  0.78393400  0.11577900  0.39364300  1
  Mg  Mg64  1  0.36784800  0.60354300  0.29166700  1
  Mg  Mg65  1  0.11784800  0.85354300  0.20833300  1
  Mg  Mg66  1  0.86784800  0.10354300  0.29166700  1
  Mg  Mg67  1  0.86784800  0.60354300  0.29166700  1
  Mg  Mg68  1  0.61784800  0.85354300  0.20833300  1
  Mg  Mg69  1  0.36784800  0.10354300  0.29166700  1
  Mg  Mg70  1  0.55157700  0.90473000  0.26957600  1
  Mg  Mg71  1  0.86784800  0.85354300  0.25251400  1
  Mg  Mg72  1  0.18411900  0.80235600  0.26957600  1
  Mg  Mg73  1  0.18411900  0.30235600  0.31375700  1
  Mg  Mg74  1  0.86784800  0.35354300  0.33081900  1
  Mg  Mg75  1  0.55157700  0.40473000  0.31375700  1
  Mg  Mg76  1  0.36784800  0.35354300  0.20833300  1
  Mg  Mg77  1  0.86784800  0.35354300  0.20833300  1
  Mg  Mg78  1  0.78393400  0.61577900  0.18969000  1
  Mg  Mg79  1  0.62485100  0.13853200  0.17394900  1
  Mg  Mg80  1  0.68078000  0.30631800  0.26136100  1
  Mg  Mg81  1  0.05491500  0.40076800  0.26136100  1
  Mg  Mg82  1  0.11084400  0.56855400  0.17394900  1
  Mg  Mg83  1  0.95176200  0.09130700  0.18969000  1
  Mg  Mg84  1  0.45176200  0.09130700  0.22697600  1
  Mg  Mg85  1  0.61084400  0.56855400  0.24271800  1
  Mg  Mg86  1  0.05491500  0.90076800  0.32197300  1
  Mg  Mg87  1  0.68078000  0.80631800  0.32197300  1
  Mg  Mg88  1  0.12485100  0.13853200  0.24271800  1
  Mg  Mg89  1  0.28393400  0.61577900  0.22697600  1
  Ir  Ir90  1  0.28152200  0.59456700  0.73710800  1
  Ir  Ir91  1  0.45417300  0.11251900  0.73710800  1
  Ir  Ir92  1  0.95417300  0.11251900  0.67955800  1
  Ir  Ir93  1  0.78152200  0.59456700  0.67955800  1
  Ir  Ir94  1  0.78152200  0.09456700  0.57044200  1
  Ir  Ir95  1  0.36784800  0.85354300  0.65078300  1
  Ir  Ir96  1  0.95417300  0.61251900  0.57044200  1
  Ir  Ir97  1  0.45417300  0.61251900  0.51289200  1
  Ir  Ir98  1  0.36784800  0.35354300  0.59921700  1
  Ir  Ir99  1  0.28152200  0.09456700  0.51289200  1
  Ir  Ir100  1  0.28152200  0.59456700  0.40377500  1
  Ir  Ir101  1  0.86784800  0.35354300  0.48411600  1
  Ir  Ir102  1  0.45417300  0.11251900  0.40377500  1
  Ir  Ir103  1  0.95417300  0.11251900  0.34622500  1
  Ir  Ir104  1  0.86784800  0.85354300  0.43255000  1
  Ir  Ir105  1  0.78152200  0.59456700  0.34622500  1
  Ir  Ir106  1  0.78152200  0.09456700  0.23710800  1
  Ir  Ir107  1  0.36784800  0.85354300  0.31745000  1
  Ir  Ir108  1  0.95417300  0.61251900  0.23710800  1
  Ir  Ir109  1  0.45417300  0.61251900  0.17955800  1
  Ir  Ir110  1  0.36784800  0.35354300  0.26588400  1
  Ir  Ir111  1  0.28152200  0.09456700  0.17955800  1
