# generated using pymatgen
data_MgPd2
_symmetry_space_group_name_H-M   'P 1'
_cell_length_a   6.94548400
_cell_length_b   8.17953600
_cell_length_c   43.48413300
_cell_angle_alpha   90.00000000
_cell_angle_beta   87.55073761
_cell_angle_gamma   90.00000000
_symmetry_Int_Tables_number   1
_chemical_formula_structural   MgPd2
_chemical_formula_sum   'Mg32 Pd64'
_cell_volume   2468.11317673
_cell_formula_units_Z   32
loop_
 _symmetry_equiv_pos_site_id
 _symmetry_equiv_pos_as_xyz
  1  'x, y, z'
loop_
 _atom_site_type_symbol
 _atom_site_label
 _atom_site_symmetry_multiplicity
 _atom_site_fract_x
 _atom_site_fract_y
 _atom_site_fract_z
 _atom_site_occupancy
  Mg  Mg0  1  0.80008700  0.59827400  0.19856900  1
  Mg  Mg1  1  0.81529800  0.40172600  0.26297000  1
  Mg  Mg2  1  0.10777900  0.90172600  0.23703000  1
  Mg  Mg3  1  0.50760600  0.09827400  0.22450800  1
  Mg  Mg4  1  0.41547100  0.59827400  0.27549200  1
  Mg  Mg5  1  0.43068300  0.40172600  0.33989300  1
  Mg  Mg6  1  0.72316400  0.90172600  0.31395300  1
  Mg  Mg7  1  0.12299000  0.09827400  0.30143100  1
  Mg  Mg8  1  0.03085600  0.59827400  0.35241500  1
  Mg  Mg9  1  0.04606700  0.40172600  0.41681600  1
  Mg  Mg10  1  0.33854800  0.90172600  0.39087600  1
  Mg  Mg11  1  0.73837500  0.09827400  0.37835500  1
  Mg  Mg12  1  0.64624100  0.59827400  0.42933800  1
  Mg  Mg13  1  0.66145200  0.40172600  0.49373900  1
  Mg  Mg14  1  0.95393300  0.90172600  0.46779900  1
  Mg  Mg15  1  0.35375900  0.09827400  0.45527800  1
  Mg  Mg16  1  0.26162500  0.59827400  0.50626100  1
  Mg  Mg17  1  0.27683600  0.40172600  0.57066200  1
  Mg  Mg18  1  0.56931700  0.90172600  0.54472200  1
  Mg  Mg19  1  0.96914400  0.09827400  0.53220100  1
  Mg  Mg20  1  0.87701000  0.59827400  0.58318400  1
  Mg  Mg21  1  0.89222100  0.40172600  0.64758500  1
  Mg  Mg22  1  0.18470200  0.90172600  0.62164500  1
  Mg  Mg23  1  0.58452900  0.09827400  0.60912400  1
  Mg  Mg24  1  0.49239400  0.59827400  0.66010700  1
  Mg  Mg25  1  0.50760600  0.40172600  0.72450800  1
  Mg  Mg26  1  0.80008700  0.90172600  0.69856900  1
  Mg  Mg27  1  0.19991300  0.09827400  0.68604700  1
  Mg  Mg28  1  0.10777900  0.59827400  0.73703000  1
  Mg  Mg29  1  0.12299000  0.40172600  0.80143100  1
  Mg  Mg30  1  0.41547100  0.90172600  0.77549200  1
  Mg  Mg31  1  0.81529800  0.09827400  0.76297000  1
  Pd  Pd32  1  0.80606200  0.92737900  0.19931500  1
  Pd  Pd33  1  0.80932300  0.07262100  0.26222300  1
  Pd  Pd34  1  0.11375400  0.57262100  0.23777700  1
  Pd  Pd35  1  0.50163000  0.42737900  0.22376100  1
  Pd  Pd36  1  0.86195400  0.26411300  0.20630200  1
  Pd  Pd37  1  0.75343000  0.73588700  0.25523600  1
  Pd  Pd38  1  0.16964700  0.23588700  0.24476400  1
  Pd  Pd39  1  0.44573800  0.76411300  0.21677500  1
  Pd  Pd40  1  0.42144600  0.92737900  0.27623900  1
  Pd  Pd41  1  0.42470700  0.07262100  0.33914600  1
  Pd  Pd42  1  0.72913900  0.57262100  0.31470000  1
  Pd  Pd43  1  0.11701500  0.42737900  0.30068500  1
  Pd  Pd44  1  0.47733900  0.26411300  0.28322500  1
  Pd  Pd45  1  0.36881500  0.73588700  0.33216000  1
  Pd  Pd46  1  0.78503100  0.23588700  0.32168700  1
  Pd  Pd47  1  0.06112300  0.76411300  0.29369800  1
  Pd  Pd48  1  0.03683100  0.92737900  0.35316200  1
  Pd  Pd49  1  0.04009200  0.07262100  0.41606900  1
  Pd  Pd50  1  0.34452300  0.57262100  0.39162300  1
  Pd  Pd51  1  0.73240000  0.42737900  0.37760800  1
  Pd  Pd52  1  0.09272400  0.26411300  0.36014800  1
  Pd  Pd53  1  0.98420000  0.73588700  0.40908300  1
  Pd  Pd54  1  0.40041600  0.23588700  0.39861000  1
  Pd  Pd55  1  0.67650700  0.76411300  0.37062100  1
  Pd  Pd56  1  0.65221600  0.92737900  0.43008500  1
  Pd  Pd57  1  0.65547700  0.07262100  0.49299200  1
  Pd  Pd58  1  0.95990800  0.57262100  0.46854600  1
  Pd  Pd59  1  0.34778400  0.42737900  0.45453100  1
  Pd  Pd60  1  0.70810800  0.26411300  0.43707100  1
  Pd  Pd61  1  0.59958400  0.73588700  0.48600600  1
  Pd  Pd62  1  0.01580000  0.23588700  0.47553300  1
  Pd  Pd63  1  0.29189200  0.76411300  0.44754400  1
  Pd  Pd64  1  0.26760000  0.92737900  0.50700800  1
  Pd  Pd65  1  0.27086100  0.07262100  0.56991500  1
  Pd  Pd66  1  0.57529300  0.57262100  0.54546900  1
  Pd  Pd67  1  0.96316900  0.42737900  0.53145400  1
  Pd  Pd68  1  0.32349300  0.26411300  0.51399400  1
  Pd  Pd69  1  0.21496900  0.73588700  0.56292900  1
  Pd  Pd70  1  0.63118500  0.23588700  0.55245600  1
  Pd  Pd71  1  0.90727600  0.76411300  0.52446700  1
  Pd  Pd72  1  0.88298500  0.92737900  0.58393100  1
  Pd  Pd73  1  0.88624600  0.07262100  0.64683800  1
  Pd  Pd74  1  0.19067700  0.57262100  0.62239200  1
  Pd  Pd75  1  0.57855400  0.42737900  0.60837700  1
  Pd  Pd76  1  0.93887700  0.26411300  0.59091700  1
  Pd  Pd77  1  0.83035300  0.73588700  0.63985200  1
  Pd  Pd78  1  0.24657000  0.23588700  0.62937900  1
  Pd  Pd79  1  0.52266100  0.76411300  0.60139000  1
  Pd  Pd80  1  0.49837000  0.92737900  0.66085400  1
  Pd  Pd81  1  0.50163000  0.07262100  0.72376100  1
  Pd  Pd82  1  0.80606200  0.57262100  0.69931500  1
  Pd  Pd83  1  0.19393800  0.42737900  0.68530000  1
  Pd  Pd84  1  0.55426200  0.26411300  0.66784000  1
  Pd  Pd85  1  0.44573800  0.73588700  0.71677500  1
  Pd  Pd86  1  0.86195400  0.23588700  0.70630200  1
  Pd  Pd87  1  0.13804600  0.76411300  0.67831300  1
  Pd  Pd88  1  0.11375400  0.92737900  0.73777700  1
  Pd  Pd89  1  0.11701500  0.07262100  0.80068500  1
  Pd  Pd90  1  0.42144600  0.57262100  0.77623900  1
  Pd  Pd91  1  0.80932300  0.42737900  0.76222300  1
  Pd  Pd92  1  0.16964700  0.26411300  0.74476400  1
  Pd  Pd93  1  0.06112300  0.73588700  0.79369800  1
  Pd  Pd94  1  0.47733900  0.23588700  0.78322500  1
  Pd  Pd95  1  0.75343000  0.76411300  0.75523600  1
