# generated using pymatgen
data_Nd2Mg27
_symmetry_space_group_name_H-M   'P 1'
_cell_length_a   7.85671621
_cell_length_b   7.85671567
_cell_length_c   41.09948400
_cell_angle_alpha   89.92797840
_cell_angle_beta   89.92797840
_cell_angle_gamma   81.81397999
_symmetry_Int_Tables_number   1
_chemical_formula_structural   Nd2Mg27
_chemical_formula_sum   'Nd4 Mg54'
_cell_volume   2511.13550420
_cell_formula_units_Z   2
loop_
 _symmetry_equiv_pos_site_id
 _symmetry_equiv_pos_as_xyz
  1  'x, y, z'
loop_
 _atom_site_type_symbol
 _atom_site_label
 _atom_site_symmetry_multiplicity
 _atom_site_fract_x
 _atom_site_fract_y
 _atom_site_fract_z
 _atom_site_occupancy
  Nd  Nd0  1  0.17010200  0.17010200  0.72115400  1
  Nd  Nd1  1  0.42010200  0.42010200  0.59615400  1
  Nd  Nd2  1  0.67010200  0.67010200  0.47115400  1
  Nd  Nd3  1  0.92010200  0.92010200  0.34615400  1
  Mg  Mg4  1  0.88553100  0.88553100  0.75705900  1
  Mg  Mg5  1  0.52204600  0.81815900  0.72115400  1
  Mg  Mg6  1  0.43406000  0.43406000  0.76514700  1
  Mg  Mg7  1  0.65614500  0.65614500  0.80216100  1
  Mg  Mg8  1  0.25786400  0.83234000  0.78365400  1
  Mg  Mg9  1  0.17010200  0.67010200  0.72115400  1
  Mg  Mg10  1  0.45467400  0.45467400  0.68524900  1
  Mg  Mg11  1  0.67010200  0.17010200  0.72115400  1
  Mg  Mg12  1  0.81815900  0.52204600  0.72115400  1
  Mg  Mg13  1  0.83234000  0.25786400  0.78365400  1
  Mg  Mg14  1  0.54510200  0.04510200  0.78365400  1
  Mg  Mg15  1  0.04510200  0.54510200  0.78365400  1
  Mg  Mg16  1  0.13553100  0.13553100  0.63205900  1
  Mg  Mg17  1  0.77204600  0.06815900  0.59615400  1
  Mg  Mg18  1  0.68406000  0.68406000  0.64014700  1
  Mg  Mg19  1  0.90614500  0.90614500  0.67716100  1
  Mg  Mg20  1  0.50786400  0.08234000  0.65865400  1
  Mg  Mg21  1  0.42010200  0.92010200  0.59615400  1
  Mg  Mg22  1  0.70467400  0.70467400  0.56024900  1
  Mg  Mg23  1  0.92010200  0.42010200  0.59615400  1
  Mg  Mg24  1  0.06815900  0.77204600  0.59615400  1
  Mg  Mg25  1  0.08234000  0.50786400  0.65865400  1
  Mg  Mg26  1  0.79510200  0.29510200  0.65865400  1
  Mg  Mg27  1  0.29510200  0.79510200  0.65865400  1
  Mg  Mg28  1  0.38553100  0.38553100  0.50705900  1
  Mg  Mg29  1  0.02204600  0.31815900  0.47115400  1
  Mg  Mg30  1  0.93406000  0.93406000  0.51514700  1
  Mg  Mg31  1  0.15614500  0.15614500  0.55216100  1
  Mg  Mg32  1  0.75786400  0.33234000  0.53365400  1
  Mg  Mg33  1  0.67010200  0.17010200  0.47115400  1
  Mg  Mg34  1  0.95467400  0.95467400  0.43524900  1
  Mg  Mg35  1  0.17010200  0.67010200  0.47115400  1
  Mg  Mg36  1  0.31815900  0.02204600  0.47115400  1
  Mg  Mg37  1  0.33234000  0.75786400  0.53365400  1
  Mg  Mg38  1  0.04510200  0.54510200  0.53365400  1
  Mg  Mg39  1  0.54510200  0.04510200  0.53365400  1
  Mg  Mg40  1  0.63553100  0.63553100  0.38205900  1
  Mg  Mg41  1  0.27204600  0.56815900  0.34615400  1
  Mg  Mg42  1  0.18406000  0.18406000  0.39014700  1
  Mg  Mg43  1  0.40614500  0.40614500  0.42716100  1
  Mg  Mg44  1  0.00786400  0.58234000  0.40865400  1
  Mg  Mg45  1  0.92010200  0.42010200  0.34615400  1
  Mg  Mg46  1  0.20467400  0.20467400  0.31024900  1
  Mg  Mg47  1  0.42010200  0.92010200  0.34615400  1
  Mg  Mg48  1  0.56815900  0.27204600  0.34615400  1
  Mg  Mg49  1  0.58234000  0.00786400  0.40865400  1
  Mg  Mg50  1  0.29510200  0.79510200  0.40865400  1
  Mg  Mg51  1  0.79510200  0.29510200  0.40865400  1
  Mg  Mg52  1  0.43406000  0.43406000  0.26514700  1
  Mg  Mg53  1  0.65614500  0.65614500  0.30216100  1
  Mg  Mg54  1  0.25786400  0.83234000  0.28365400  1
  Mg  Mg55  1  0.83234000  0.25786400  0.28365400  1
  Mg  Mg56  1  0.54510200  0.04510200  0.28365400  1
  Mg  Mg57  1  0.04510200  0.54510200  0.28365400  1
