# generated using pymatgen
data_Mg32Pt15
_symmetry_space_group_name_H-M   'P 1'
_cell_length_a   9.03101700
_cell_length_b   8.54150059
_cell_length_c   45.92807400
_cell_angle_alpha   90.32578574
_cell_angle_beta   90.00000000
_cell_angle_gamma   58.08536058
_symmetry_Int_Tables_number   1
_chemical_formula_structural   Mg32Pt15
_chemical_formula_sum   'Mg64 Pt30'
_cell_volume   3007.20782456
_cell_formula_units_Z   2
loop_
 _symmetry_equiv_pos_site_id
 _symmetry_equiv_pos_as_xyz
  1  'x, y, z'
loop_
 _atom_site_type_symbol
 _atom_site_label
 _atom_site_symmetry_multiplicity
 _atom_site_fract_x
 _atom_site_fract_y
 _atom_site_fract_z
 _atom_site_occupancy
  Mg  Mg0  1  0.08842500  0.68971100  0.21794900  1
  Mg  Mg1  1  0.47563700  0.54872600  0.24614600  1
  Mg  Mg2  1  0.06801800  0.99740300  0.25641000  1
  Mg  Mg3  1  0.68080600  0.13838800  0.22821300  1
  Mg  Mg4  1  0.43457900  0.99740300  0.25641000  1
  Mg  Mg5  1  0.12948300  0.24103400  0.20768400  1
  Mg  Mg6  1  0.72186400  0.68971100  0.21794900  1
  Mg  Mg7  1  0.02696000  0.44608000  0.26667500  1
  Mg  Mg8  1  0.78073200  0.30509500  0.29487200  1
  Mg  Mg9  1  0.16794500  0.16411100  0.32306900  1
  Mg  Mg10  1  0.76032600  0.61278800  0.33333300  1
  Mg  Mg11  1  0.37311400  0.75377300  0.30513600  1
  Mg  Mg12  1  0.12688600  0.61278800  0.33333300  1
  Mg  Mg13  1  0.82179100  0.85641800  0.28460700  1
  Mg  Mg14  1  0.41417200  0.30509500  0.29487200  1
  Mg  Mg15  1  0.71926800  0.06146500  0.34359800  1
  Mg  Mg16  1  0.47304000  0.92048000  0.37179500  1
  Mg  Mg17  1  0.86025200  0.77949500  0.39999200  1
  Mg  Mg18  1  0.45263400  0.22817200  0.41025600  1
  Mg  Mg19  1  0.06542100  0.36915700  0.38205900  1
  Mg  Mg20  1  0.81919400  0.22817200  0.41025600  1
  Mg  Mg21  1  0.51409800  0.47180300  0.36153000  1
  Mg  Mg22  1  0.10648000  0.92048000  0.37179500  1
  Mg  Mg23  1  0.41157500  0.67684900  0.42052100  1
  Mg  Mg24  1  0.16534800  0.53586500  0.44871800  1
  Mg  Mg25  1  0.55256000  0.39488000  0.47691500  1
  Mg  Mg26  1  0.14494100  0.84355700  0.48717900  1
  Mg  Mg27  1  0.75772900  0.98454200  0.45898300  1
  Mg  Mg28  1  0.51150200  0.84355700  0.48717900  1
  Mg  Mg29  1  0.20640600  0.08718800  0.43845300  1
  Mg  Mg30  1  0.79878700  0.53586500  0.44871800  1
  Mg  Mg31  1  0.10388300  0.29223400  0.49744400  1
  Mg  Mg32  1  0.85765600  0.15124900  0.52564100  1
  Mg  Mg33  1  0.24486800  0.01026500  0.55383800  1
  Mg  Mg34  1  0.83724900  0.45894200  0.56410300  1
  Mg  Mg35  1  0.45003700  0.59992600  0.53590600  1
  Mg  Mg36  1  0.20380900  0.45894200  0.56410300  1
  Mg  Mg37  1  0.89871400  0.70257200  0.51537600  1
  Mg  Mg38  1  0.49109500  0.15124900  0.52564100  1
  Mg  Mg39  1  0.79619100  0.90761900  0.57436700  1
  Mg  Mg40  1  0.54996300  0.76663400  0.60256400  1
  Mg  Mg41  1  0.93717500  0.62564900  0.63076100  1
  Mg  Mg42  1  0.52955700  0.07432600  0.64102600  1
  Mg  Mg43  1  0.14234400  0.21531100  0.61282900  1
  Mg  Mg44  1  0.89611700  0.07432600  0.64102600  1
  Mg  Mg45  1  0.59102200  0.31795700  0.59230000  1
  Mg  Mg46  1  0.18340300  0.76663400  0.60256400  1
  Mg  Mg47  1  0.48849800  0.52300300  0.65129000  1
  Mg  Mg48  1  0.24227100  0.38201900  0.67948700  1
  Mg  Mg49  1  0.62948300  0.24103400  0.70768400  1
  Mg  Mg50  1  0.22186400  0.68971100  0.71794900  1
  Mg  Mg51  1  0.83465200  0.83069600  0.68975200  1
  Mg  Mg52  1  0.58842500  0.68971100  0.71794900  1
  Mg  Mg53  1  0.28332900  0.93334200  0.66922300  1
  Mg  Mg54  1  0.87571100  0.38201900  0.67948700  1
  Mg  Mg55  1  0.18080600  0.13838800  0.72821300  1
  Mg  Mg56  1  0.93457900  0.99740300  0.75641000  1
  Mg  Mg57  1  0.32179100  0.85641800  0.78460700  1
  Mg  Mg58  1  0.91417200  0.30509500  0.79487200  1
  Mg  Mg59  1  0.52696000  0.44608000  0.76667500  1
  Mg  Mg60  1  0.28073200  0.30509500  0.79487200  1
  Mg  Mg61  1  0.97563700  0.54872600  0.74614600  1
  Mg  Mg62  1  0.56801800  0.99740300  0.75641000  1
  Mg  Mg63  1  0.87311400  0.75377300  0.80513600  1
  Pt  Pt64  1  0.82822100  0.34355700  0.23717900  1
  Pt  Pt65  1  0.32822100  0.34355700  0.23717900  1
  Pt  Pt66  1  0.67437500  0.65124900  0.27564100  1
  Pt  Pt67  1  0.52052900  0.95894200  0.31410300  1
  Pt  Pt68  1  0.02052900  0.95894200  0.31410300  1
  Pt  Pt69  1  0.17437500  0.65124900  0.27564100  1
  Pt  Pt70  1  0.36668300  0.26663400  0.35256400  1
  Pt  Pt71  1  0.21283700  0.57432600  0.39102600  1
  Pt  Pt72  1  0.71283700  0.57432600  0.39102600  1
  Pt  Pt73  1  0.86668300  0.26663400  0.35256400  1
  Pt  Pt74  1  0.05899100  0.88201900  0.42948700  1
  Pt  Pt75  1  0.90514500  0.18971100  0.46794900  1
  Pt  Pt76  1  0.40514500  0.18971100  0.46794900  1
  Pt  Pt77  1  0.55899100  0.88201900  0.42948700  1
  Pt  Pt78  1  0.75129800  0.49740300  0.50641000  1
  Pt  Pt79  1  0.59745200  0.80509500  0.54487200  1
  Pt  Pt80  1  0.09745200  0.80509500  0.54487200  1
  Pt  Pt81  1  0.25129800  0.49740300  0.50641000  1
  Pt  Pt82  1  0.44360600  0.11278800  0.58333300  1
  Pt  Pt83  1  0.28976000  0.42048000  0.62179500  1
  Pt  Pt84  1  0.78976000  0.42048000  0.62179500  1
  Pt  Pt85  1  0.94360600  0.11278800  0.58333300  1
  Pt  Pt86  1  0.13591400  0.72817200  0.66025600  1
  Pt  Pt87  1  0.98206800  0.03586500  0.69871800  1
  Pt  Pt88  1  0.48206800  0.03586500  0.69871800  1
  Pt  Pt89  1  0.63591400  0.72817200  0.66025600  1
  Pt  Pt90  1  0.82822100  0.34355700  0.73717900  1
  Pt  Pt91  1  0.67437500  0.65124900  0.77564100  1
  Pt  Pt92  1  0.17437500  0.65124900  0.77564100  1
  Pt  Pt93  1  0.32822100  0.34355700  0.73717900  1
