# generated using pymatgen
data_Mg7Pd15
_symmetry_space_group_name_H-M   'P 1'
_cell_length_a   4.19057600
_cell_length_b   5.53884600
_cell_length_c   49.07721500
_cell_angle_alpha   90.00000000
_cell_angle_beta   90.00000000
_cell_angle_gamma   90.00000000
_symmetry_Int_Tables_number   1
_chemical_formula_structural   Mg7Pd15
_chemical_formula_sum   'Mg14 Pd30'
_cell_volume   1139.12903455
_cell_formula_units_Z   2
loop_
 _symmetry_equiv_pos_site_id
 _symmetry_equiv_pos_as_xyz
  1  'x, y, z'
loop_
 _atom_site_type_symbol
 _atom_site_label
 _atom_site_symmetry_multiplicity
 _atom_site_fract_x
 _atom_site_fract_y
 _atom_site_fract_z
 _atom_site_occupancy
  Mg  Mg0  1  0.75000000  0.16860900  0.20584300  1
  Mg  Mg1  1  0.25000000  0.83139100  0.23860100  1
  Mg  Mg2  1  0.75000000  0.66860900  0.32193400  1
  Mg  Mg3  1  0.25000000  0.33139100  0.28917700  1
  Mg  Mg4  1  0.75000000  0.16860900  0.37251000  1
  Mg  Mg5  1  0.25000000  0.83139100  0.40526800  1
  Mg  Mg6  1  0.75000000  0.66860900  0.48860100  1
  Mg  Mg7  1  0.25000000  0.33139100  0.45584300  1
  Mg  Mg8  1  0.75000000  0.16860900  0.53917700  1
  Mg  Mg9  1  0.25000000  0.83139100  0.57193400  1
  Mg  Mg10  1  0.75000000  0.66860900  0.65526800  1
  Mg  Mg11  1  0.25000000  0.33139100  0.62251000  1
  Mg  Mg12  1  0.75000000  0.16860900  0.70584300  1
  Mg  Mg13  1  0.25000000  0.83139100  0.73860100  1
  Pd  Pd14  1  0.75000000  0.15889900  0.31765900  1
  Pd  Pd15  1  0.25000000  0.84110100  0.29345200  1
  Pd  Pd16  1  0.75000000  0.65889900  0.21011900  1
  Pd  Pd17  1  0.25000000  0.34110100  0.23432600  1
  Pd  Pd18  1  0.75000000  0.06807400  0.26153700  1
  Pd  Pd19  1  0.25000000  0.93192600  0.18290800  1
  Pd  Pd20  1  0.75000000  0.56807400  0.26624100  1
  Pd  Pd21  1  0.25000000  0.43192600  0.17820300  1
  Pd  Pd22  1  0.75000000  0.15889900  0.48432600  1
  Pd  Pd23  1  0.25000000  0.84110100  0.46011900  1
  Pd  Pd24  1  0.75000000  0.65889900  0.37678500  1
  Pd  Pd25  1  0.25000000  0.34110100  0.40099200  1
  Pd  Pd26  1  0.75000000  0.06807400  0.42820300  1
  Pd  Pd27  1  0.25000000  0.93192600  0.34957400  1
  Pd  Pd28  1  0.75000000  0.56807400  0.43290800  1
  Pd  Pd29  1  0.25000000  0.43192600  0.34487000  1
  Pd  Pd30  1  0.75000000  0.15889900  0.65099200  1
  Pd  Pd31  1  0.25000000  0.84110100  0.62678500  1
  Pd  Pd32  1  0.75000000  0.65889900  0.54345200  1
  Pd  Pd33  1  0.25000000  0.34110100  0.56765900  1
  Pd  Pd34  1  0.75000000  0.06807400  0.59487000  1
  Pd  Pd35  1  0.25000000  0.93192600  0.51624100  1
  Pd  Pd36  1  0.75000000  0.56807400  0.59957400  1
  Pd  Pd37  1  0.25000000  0.43192600  0.51153700  1
  Pd  Pd38  1  0.75000000  0.65889900  0.71011900  1
  Pd  Pd39  1  0.25000000  0.34110100  0.73432600  1
  Pd  Pd40  1  0.75000000  0.06807400  0.76153700  1
  Pd  Pd41  1  0.25000000  0.93192600  0.68290800  1
  Pd  Pd42  1  0.75000000  0.56807400  0.76624100  1
  Pd  Pd43  1  0.25000000  0.43192600  0.67820300  1
