# generated using pymatgen
data_Mg2Ir3
_symmetry_space_group_name_H-M   'P 1'
_cell_length_a   5.24707500
_cell_length_b   8.54477426
_cell_length_c   55.75889500
_cell_angle_alpha   88.31672616
_cell_angle_beta   90.00000000
_cell_angle_gamma   90.00000000
_symmetry_Int_Tables_number   1
_chemical_formula_structural   Mg2Ir3
_chemical_formula_sum   'Mg40 Ir60'
_cell_volume   2498.87525280
_cell_formula_units_Z   20
loop_
 _symmetry_equiv_pos_site_id
 _symmetry_equiv_pos_as_xyz
  1  'x, y, z'
loop_
 _atom_site_type_symbol
 _atom_site_label
 _atom_site_symmetry_multiplicity
 _atom_site_fract_x
 _atom_site_fract_y
 _atom_site_fract_z
 _atom_site_occupancy
  Mg  Mg0  1  0.50000000  0.59205000  0.48995500  1
  Mg  Mg1  1  0.00000000  0.07461700  0.17671200  1
  Mg  Mg2  1  0.00000000  0.55155200  0.23181100  1
  Mg  Mg3  1  0.50000000  0.11511500  0.43485600  1
  Mg  Mg4  1  0.50000000  0.23574500  0.48641300  1
  Mg  Mg5  1  1.00000000  0.43092100  0.18025300  1
  Mg  Mg6  1  0.50000000  0.72198700  0.44256700  1
  Mg  Mg7  1  0.00000000  0.94468000  0.22410000  1
  Mg  Mg8  1  0.50000000  0.74223500  0.24298900  1
  Mg  Mg9  1  1.00000000  0.92443200  0.42367700  1
  Mg  Mg10  1  0.00000000  0.75871600  0.32328800  1
  Mg  Mg11  1  0.50000000  0.90795000  0.34337900  1
  Mg  Mg12  1  0.50000000  0.38488500  0.39847800  1
  Mg  Mg13  1  0.00000000  0.28178200  0.26818900  1
  Mg  Mg14  1  0.00000000  0.40241200  0.31974700  1
  Mg  Mg15  1  0.50000000  0.26425500  0.34692000  1
  Mg  Mg16  1  1.00000000  0.88865400  0.27590000  1
  Mg  Mg17  1  0.50000000  0.77801300  0.39076700  1
  Mg  Mg18  1  0.00000000  0.57556800  0.40965600  1
  Mg  Mg19  1  0.50000000  0.09109800  0.25701100  1
  Mg  Mg20  1  0.50000000  0.25871600  0.82328800  1
  Mg  Mg21  1  1.00000000  0.74128400  0.51004500  1
  Mg  Mg22  1  0.00000000  0.21821800  0.56514400  1
  Mg  Mg23  1  0.50000000  0.78178200  0.76818900  1
  Mg  Mg24  1  0.50000000  0.90241200  0.81974700  1
  Mg  Mg25  1  0.00000000  0.09758800  0.51358700  1
  Mg  Mg26  1  0.50000000  0.38865400  0.77590000  1
  Mg  Mg27  1  0.00000000  0.61134600  0.55743300  1
  Mg  Mg28  1  0.50000000  0.40890200  0.57632300  1
  Mg  Mg29  1  0.00000000  0.59109800  0.75701100  1
  Mg  Mg30  1  0.00000000  0.42538300  0.65662100  1
  Mg  Mg31  1  0.50000000  0.57461700  0.67671200  1
  Mg  Mg32  1  0.50000000  0.05155200  0.73181100  1
  Mg  Mg33  1  0.00000000  0.94844800  0.60152200  1
  Mg  Mg34  1  0.00000000  0.06907900  0.65308000  1
  Mg  Mg35  1  0.50000000  0.93092100  0.68025300  1
  Mg  Mg36  1  0.00000000  0.55532000  0.60923300  1
  Mg  Mg37  1  0.50000000  0.44468000  0.72410000  1
  Mg  Mg38  1  0.00000000  0.24223500  0.74298900  1
  Mg  Mg39  1  0.50000000  0.75776500  0.59034400  1
  Ir  Ir40  1  1.00000000  0.67797200  0.46037400  1
  Ir  Ir41  1  0.50000000  0.98869500  0.20629300  1
  Ir  Ir42  1  0.24951300  0.74312000  0.19401900  1
  Ir  Ir43  1  0.25048700  0.92354700  0.47264800  1
  Ir  Ir44  1  0.74951300  0.92354700  0.47264800  1
  Ir  Ir45  1  0.75048700  0.74312000  0.19401900  1
  Ir  Ir46  1  0.00000000  0.25000000  0.41666700  1
  Ir  Ir47  1  0.50000000  0.24563200  0.17801200  1
  Ir  Ir48  1  0.00000000  0.42103500  0.48865500  1
  Ir  Ir49  1  0.50000000  0.49505800  0.20472400  1
  Ir  Ir50  1  0.00000000  0.17160900  0.46194300  1
  Ir  Ir51  1  0.26606200  0.42383700  0.44692300  1
  Ir  Ir52  1  0.23393800  0.24283000  0.21974400  1
  Ir  Ir53  1  0.76606200  0.24283000  0.21974400  1
  Ir  Ir54  1  0.73393800  0.42383700  0.44692300  1
  Ir  Ir55  1  0.50000000  0.84463900  0.29370700  1
  Ir  Ir56  1  0.00000000  0.82202800  0.37295900  1
  Ir  Ir57  1  0.74951300  0.57645300  0.36068500  1
  Ir  Ir58  1  0.75048700  0.09021300  0.30598100  1
  Ir  Ir59  1  0.24951300  0.09021300  0.30598100  1
  Ir  Ir60  1  0.25048700  0.57645300  0.36068500  1
  Ir  Ir61  1  0.50000000  0.41666700  0.25000000  1
  Ir  Ir62  1  0.00000000  0.07896500  0.34467900  1
  Ir  Ir63  1  0.50000000  0.58770200  0.32198800  1
  Ir  Ir64  1  0.00000000  0.32839100  0.37139100  1
  Ir  Ir65  1  0.50000000  0.33827500  0.29527600  1
  Ir  Ir66  1  0.76606200  0.59050400  0.28025600  1
  Ir  Ir67  1  0.73393800  0.07616300  0.38641100  1
  Ir  Ir68  1  0.26606200  0.07616300  0.38641100  1
  Ir  Ir69  1  0.23393800  0.59050400  0.28025600  1
  Ir  Ir70  1  0.00000000  0.34463900  0.79370700  1
  Ir  Ir71  1  0.50000000  0.65536100  0.53962600  1
  Ir  Ir72  1  0.24951300  0.40978700  0.52735200  1
  Ir  Ir73  1  0.25048700  0.59021300  0.80598100  1
  Ir  Ir74  1  0.74951300  0.59021300  0.80598100  1
  Ir  Ir75  1  0.75048700  0.40978700  0.52735200  1
  Ir  Ir76  1  1.00000000  0.91666700  0.75000000  1
  Ir  Ir77  1  0.50000000  0.91229800  0.51134500  1
  Ir  Ir78  1  0.00000000  0.08770200  0.82198800  1
  Ir  Ir79  1  0.50000000  0.16172500  0.53805700  1
  Ir  Ir80  1  0.00000000  0.83827500  0.79527600  1
  Ir  Ir81  1  0.26606200  0.09050400  0.78025600  1
  Ir  Ir82  1  0.23393800  0.90949600  0.55307700  1
  Ir  Ir83  1  0.76606200  0.90949600  0.55307700  1
  Ir  Ir84  1  0.73393800  0.09050400  0.78025600  1
  Ir  Ir85  1  0.50000000  0.51130500  0.62704100  1
  Ir  Ir86  1  0.00000000  0.48869500  0.70629300  1
  Ir  Ir87  1  0.74951300  0.24312000  0.69401900  1
  Ir  Ir88  1  0.75048700  0.75688000  0.63931500  1
  Ir  Ir89  1  0.24951300  0.75688000  0.63931500  1
  Ir  Ir90  1  0.25048700  0.24312000  0.69401900  1
  Ir  Ir91  1  0.50000000  0.08333300  0.58333300  1
  Ir  Ir92  1  0.00000000  0.74563200  0.67801200  1
  Ir  Ir93  1  0.50000000  0.25436800  0.65532100  1
  Ir  Ir94  1  0.00000000  0.99505800  0.70472400  1
  Ir  Ir95  1  0.50000000  0.00494200  0.62860900  1
  Ir  Ir96  1  0.76606200  0.25717000  0.61358900  1
  Ir  Ir97  1  0.73393800  0.74283000  0.71974400  1
  Ir  Ir98  1  0.26606200  0.74283000  0.71974400  1
  Ir  Ir99  1  0.23393800  0.25717000  0.61358900  1
