# generated using pymatgen
data_MgGa
_symmetry_space_group_name_H-M   'P 1'
_cell_length_a   12.02268053
_cell_length_b   12.02268044
_cell_length_c   44.88106400
_cell_angle_alpha   85.32689429
_cell_angle_beta   94.67310567
_cell_angle_gamma   102.23861087
_symmetry_Int_Tables_number   1
_chemical_formula_structural   MgGa
_chemical_formula_sum   'Mg92 Ga92'
_cell_volume   6305.07448137
_cell_formula_units_Z   92
loop_
 _symmetry_equiv_pos_site_id
 _symmetry_equiv_pos_as_xyz
  1  'x, y, z'
loop_
 _atom_site_type_symbol
 _atom_site_label
 _atom_site_symmetry_multiplicity
 _atom_site_fract_x
 _atom_site_fract_y
 _atom_site_fract_z
 _atom_site_occupancy
  Mg  Mg0  1  0.66550900  0.53933000  0.21727300  1
  Mg  Mg1  1  0.62066400  0.43874500  0.29727000  1
  Mg  Mg2  1  0.68415800  0.25643300  0.25630200  1
  Mg  Mg3  1  0.42502500  0.37013600  0.22915500  1
  Mg  Mg4  1  0.22265300  0.48218600  0.24584500  1
  Mg  Mg5  1  0.56352000  0.99588900  0.26869800  1
  Mg  Mg6  1  0.62701400  0.81357700  0.22773000  1
  Mg  Mg7  1  0.98216900  0.31299200  0.25772700  1
  Mg  Mg8  1  0.26550900  0.93933000  0.26727300  1
  Mg  Mg9  1  0.02066400  0.03874500  0.24727000  1
  Mg  Mg10  1  0.08415800  0.85643300  0.20630200  1
  Mg  Mg11  1  0.02502500  0.77013600  0.27915500  1
  Mg  Mg12  1  0.82265300  0.88218600  0.29584500  1
  Mg  Mg13  1  0.96352000  0.59588900  0.21869800  1
  Mg  Mg14  1  0.22701400  0.21357700  0.27773000  1
  Mg  Mg15  1  0.38216900  0.91299200  0.20772700  1
  Mg  Mg16  1  0.86550900  0.33933000  0.31727300  1
  Mg  Mg17  1  0.82066400  0.23874500  0.39727000  1
  Mg  Mg18  1  0.88415800  0.05643300  0.35630200  1
  Mg  Mg19  1  0.62502500  0.17013600  0.32915500  1
  Mg  Mg20  1  0.42265300  0.28218600  0.34584500  1
  Mg  Mg21  1  0.76352000  0.79588900  0.36869800  1
  Mg  Mg22  1  0.82701400  0.61357700  0.32773000  1
  Mg  Mg23  1  0.18216900  0.11299200  0.35772700  1
  Mg  Mg24  1  0.46550900  0.73933000  0.36727300  1
  Mg  Mg25  1  0.22066400  0.83874500  0.34727000  1
  Mg  Mg26  1  0.28415800  0.65643300  0.30630200  1
  Mg  Mg27  1  0.22502500  0.57013600  0.37915500  1
  Mg  Mg28  1  0.02265300  0.68218600  0.39584500  1
  Mg  Mg29  1  0.16352000  0.39588900  0.31869800  1
  Mg  Mg30  1  0.42701400  0.01357700  0.37773000  1
  Mg  Mg31  1  0.58216900  0.71299200  0.30772700  1
  Mg  Mg32  1  0.06550900  0.13933000  0.41727300  1
  Mg  Mg33  1  0.02066400  0.03874500  0.49727000  1
  Mg  Mg34  1  0.08415800  0.85643300  0.45630200  1
  Mg  Mg35  1  0.82502500  0.97013600  0.42915500  1
  Mg  Mg36  1  0.62265300  0.08218600  0.44584500  1
  Mg  Mg37  1  0.96352000  0.59588900  0.46869800  1
  Mg  Mg38  1  0.02701400  0.41357700  0.42773000  1
  Mg  Mg39  1  0.38216900  0.91299200  0.45772700  1
  Mg  Mg40  1  0.66550900  0.53933000  0.46727300  1
  Mg  Mg41  1  0.42066400  0.63874500  0.44727000  1
  Mg  Mg42  1  0.48415800  0.45643300  0.40630200  1
  Mg  Mg43  1  0.42502500  0.37013600  0.47915500  1
  Mg  Mg44  1  0.22265300  0.48218600  0.49584500  1
  Mg  Mg45  1  0.36352000  0.19588900  0.41869800  1
  Mg  Mg46  1  0.62701400  0.81357700  0.47773000  1
  Mg  Mg47  1  0.78216900  0.51299200  0.40772700  1
  Mg  Mg48  1  0.26550900  0.93933000  0.51727300  1
  Mg  Mg49  1  0.22066400  0.83874500  0.59727000  1
  Mg  Mg50  1  0.28415800  0.65643300  0.55630200  1
  Mg  Mg51  1  0.02502500  0.77013600  0.52915500  1
  Mg  Mg52  1  0.82265300  0.88218600  0.54584500  1
  Mg  Mg53  1  0.16352000  0.39588900  0.56869800  1
  Mg  Mg54  1  0.22701400  0.21357700  0.52773000  1
  Mg  Mg55  1  0.58216900  0.71299200  0.55772700  1
  Mg  Mg56  1  0.86550900  0.33933000  0.56727300  1
  Mg  Mg57  1  0.62066400  0.43874500  0.54727000  1
  Mg  Mg58  1  0.68415800  0.25643300  0.50630200  1
  Mg  Mg59  1  0.62502500  0.17013600  0.57915500  1
  Mg  Mg60  1  0.42265300  0.28218600  0.59584500  1
  Mg  Mg61  1  0.56352000  0.99588900  0.51869800  1
  Mg  Mg62  1  0.82701400  0.61357700  0.57773000  1
  Mg  Mg63  1  0.98216900  0.31299200  0.50772700  1
  Mg  Mg64  1  0.46550900  0.73933000  0.61727300  1
  Mg  Mg65  1  0.42066400  0.63874500  0.69727000  1
  Mg  Mg66  1  0.48415800  0.45643300  0.65630200  1
  Mg  Mg67  1  0.22502500  0.57013600  0.62915500  1
  Mg  Mg68  1  0.02265300  0.68218600  0.64584500  1
  Mg  Mg69  1  0.36352000  0.19588900  0.66869800  1
  Mg  Mg70  1  0.42701400  0.01357700  0.62773000  1
  Mg  Mg71  1  0.78216900  0.51299200  0.65772700  1
  Mg  Mg72  1  0.06550900  0.13933000  0.66727300  1
  Mg  Mg73  1  0.82066400  0.23874500  0.64727000  1
  Mg  Mg74  1  0.88415800  0.05643300  0.60630200  1
  Mg  Mg75  1  0.82502500  0.97013600  0.67915500  1
  Mg  Mg76  1  0.62265300  0.08218600  0.69584500  1
  Mg  Mg77  1  0.76352000  0.79588900  0.61869800  1
  Mg  Mg78  1  0.02701400  0.41357700  0.67773000  1
  Mg  Mg79  1  0.18216900  0.11299200  0.60772700  1
  Mg  Mg80  1  0.66550900  0.53933000  0.71727300  1
  Mg  Mg81  1  0.68415800  0.25643300  0.75630200  1
  Mg  Mg82  1  0.42502500  0.37013600  0.72915500  1
  Mg  Mg83  1  0.22265300  0.48218600  0.74584500  1
  Mg  Mg84  1  0.56352000  0.99588900  0.76869800  1
  Mg  Mg85  1  0.62701400  0.81357700  0.72773000  1
  Mg  Mg86  1  0.98216900  0.31299200  0.75772700  1
  Mg  Mg87  1  0.26550900  0.93933000  0.76727300  1
  Mg  Mg88  1  0.02066400  0.03874500  0.74727000  1
  Mg  Mg89  1  0.08415800  0.85643300  0.70630200  1
  Mg  Mg90  1  0.96352000  0.59588900  0.71869800  1
  Mg  Mg91  1  0.38216900  0.91299200  0.70772700  1
  Ga  Ga92  1  0.81960700  0.37464900  0.20975400  1
  Ga  Ga93  1  0.50414500  0.58759200  0.25615500  1
  Ga  Ga94  1  0.79585500  0.11240800  0.29500600  1
  Ga  Ga95  1  0.38039300  0.42535100  0.29140700  1
  Ga  Ga96  1  0.46728500  0.22697100  0.28359300  1
  Ga  Ga97  1  0.45182300  0.13991400  0.22999400  1
  Ga  Ga98  1  0.74353300  0.66473000  0.26884500  1
  Ga  Ga99  1  0.82807200  0.47767300  0.26524600  1
  Ga  Ga100  1  0.41960700  0.77464900  0.25975400  1
  Ga  Ga101  1  0.90414500  0.18759200  0.20615500  1
  Ga  Ga102  1  0.19585500  0.71240800  0.24500600  1
  Ga  Ga103  1  0.78039300  0.02535100  0.24140700  1
  Ga  Ga104  1  0.86728500  0.82697100  0.23359300  1
  Ga  Ga105  1  0.05182300  0.53991400  0.27999400  1
  Ga  Ga106  1  0.14353300  0.26473000  0.21884500  1
  Ga  Ga107  1  0.22807200  0.07767300  0.21524600  1
  Ga  Ga108  1  0.01960700  0.17464900  0.30975400  1
  Ga  Ga109  1  0.70414500  0.38759200  0.35615500  1
  Ga  Ga110  1  0.99585500  0.91240800  0.39500600  1
  Ga  Ga111  1  0.58039300  0.22535100  0.39140700  1
  Ga  Ga112  1  0.66728500  0.02697100  0.38359300  1
  Ga  Ga113  1  0.65182300  0.93991400  0.32999400  1
  Ga  Ga114  1  0.94353300  0.46473000  0.36884500  1
  Ga  Ga115  1  0.02807200  0.27767300  0.36524600  1
  Ga  Ga116  1  0.61960700  0.57464900  0.35975400  1
  Ga  Ga117  1  0.10414500  0.98759200  0.30615500  1
  Ga  Ga118  1  0.39585500  0.51240800  0.34500600  1
  Ga  Ga119  1  0.98039300  0.82535100  0.34140700  1
  Ga  Ga120  1  0.06728500  0.62697100  0.33359300  1
  Ga  Ga121  1  0.25182300  0.33991400  0.37999400  1
  Ga  Ga122  1  0.34353300  0.06473000  0.31884500  1
  Ga  Ga123  1  0.42807200  0.87767300  0.31524600  1
  Ga  Ga124  1  0.21960700  0.97464900  0.40975400  1
  Ga  Ga125  1  0.90414500  0.18759200  0.45615500  1
  Ga  Ga126  1  0.19585500  0.71240800  0.49500600  1
  Ga  Ga127  1  0.78039300  0.02535100  0.49140700  1
  Ga  Ga128  1  0.86728500  0.82697100  0.48359300  1
  Ga  Ga129  1  0.85182300  0.73991400  0.42999400  1
  Ga  Ga130  1  0.14353300  0.26473000  0.46884500  1
  Ga  Ga131  1  0.22807200  0.07767300  0.46524600  1
  Ga  Ga132  1  0.81960700  0.37464900  0.45975400  1
  Ga  Ga133  1  0.30414500  0.78759200  0.40615500  1
  Ga  Ga134  1  0.59585500  0.31240800  0.44500600  1
  Ga  Ga135  1  0.18039300  0.62535100  0.44140700  1
  Ga  Ga136  1  0.26728500  0.42697100  0.43359300  1
  Ga  Ga137  1  0.45182300  0.13991400  0.47999400  1
  Ga  Ga138  1  0.54353300  0.86473000  0.41884500  1
  Ga  Ga139  1  0.62807200  0.67767300  0.41524600  1
  Ga  Ga140  1  0.41960700  0.77464900  0.50975400  1
  Ga  Ga141  1  0.10414500  0.98759200  0.55615500  1
  Ga  Ga142  1  0.39585500  0.51240800  0.59500600  1
  Ga  Ga143  1  0.98039300  0.82535100  0.59140700  1
  Ga  Ga144  1  0.06728500  0.62697100  0.58359300  1
  Ga  Ga145  1  0.05182300  0.53991400  0.52999400  1
  Ga  Ga146  1  0.34353300  0.06473000  0.56884500  1
  Ga  Ga147  1  0.42807200  0.87767300  0.56524600  1
  Ga  Ga148  1  0.01960700  0.17464900  0.55975400  1
  Ga  Ga149  1  0.50414500  0.58759200  0.50615500  1
  Ga  Ga150  1  0.79585500  0.11240800  0.54500600  1
  Ga  Ga151  1  0.38039300  0.42535100  0.54140700  1
  Ga  Ga152  1  0.46728500  0.22697100  0.53359300  1
  Ga  Ga153  1  0.65182300  0.93991400  0.57999400  1
  Ga  Ga154  1  0.74353300  0.66473000  0.51884500  1
  Ga  Ga155  1  0.82807200  0.47767300  0.51524600  1
  Ga  Ga156  1  0.61960700  0.57464900  0.60975400  1
  Ga  Ga157  1  0.30414500  0.78759200  0.65615500  1
  Ga  Ga158  1  0.59585500  0.31240800  0.69500600  1
  Ga  Ga159  1  0.18039300  0.62535100  0.69140700  1
  Ga  Ga160  1  0.26728500  0.42697100  0.68359300  1
  Ga  Ga161  1  0.25182300  0.33991400  0.62999400  1
  Ga  Ga162  1  0.54353300  0.86473000  0.66884500  1
  Ga  Ga163  1  0.62807200  0.67767300  0.66524600  1
  Ga  Ga164  1  0.21960700  0.97464900  0.65975400  1
  Ga  Ga165  1  0.70414500  0.38759200  0.60615500  1
  Ga  Ga166  1  0.99585500  0.91240800  0.64500600  1
  Ga  Ga167  1  0.58039300  0.22535100  0.64140700  1
  Ga  Ga168  1  0.66728500  0.02697100  0.63359300  1
  Ga  Ga169  1  0.85182300  0.73991400  0.67999400  1
  Ga  Ga170  1  0.94353300  0.46473000  0.61884500  1
  Ga  Ga171  1  0.02807200  0.27767300  0.61524600  1
  Ga  Ga172  1  0.81960700  0.37464900  0.70975400  1
  Ga  Ga173  1  0.50414500  0.58759200  0.75615500  1
  Ga  Ga174  1  0.45182300  0.13991400  0.72999400  1
  Ga  Ga175  1  0.74353300  0.66473000  0.76884500  1
  Ga  Ga176  1  0.82807200  0.47767300  0.76524600  1
  Ga  Ga177  1  0.41960700  0.77464900  0.75975400  1
  Ga  Ga178  1  0.90414500  0.18759200  0.70615500  1
  Ga  Ga179  1  0.19585500  0.71240800  0.74500600  1
  Ga  Ga180  1  0.78039300  0.02535100  0.74140700  1
  Ga  Ga181  1  0.86728500  0.82697100  0.73359300  1
  Ga  Ga182  1  0.14353300  0.26473000  0.71884500  1
  Ga  Ga183  1  0.22807200  0.07767300  0.71524600  1
