# generated using pymatgen
data_Mg12Au35
_symmetry_space_group_name_H-M   'P 1'
_cell_length_a   5.98733200
_cell_length_b   22.16206628
_cell_length_c   43.22761900
_cell_angle_alpha   91.91421088
_cell_angle_beta   90.00000000
_cell_angle_gamma   90.00000000
_symmetry_Int_Tables_number   1
_chemical_formula_structural   Mg12Au35
_chemical_formula_sum   'Mg48 Au140'
_cell_volume   5732.74315522
_cell_formula_units_Z   4
loop_
 _symmetry_equiv_pos_site_id
 _symmetry_equiv_pos_as_xyz
  1  'x, y, z'
loop_
 _atom_site_type_symbol
 _atom_site_label
 _atom_site_symmetry_multiplicity
 _atom_site_fract_x
 _atom_site_fract_y
 _atom_site_fract_z
 _atom_site_occupancy
  Mg  Mg0  1  0.50000000  0.75299000  0.33131800  1
  Mg  Mg1  1  0.00000000  0.95512700  0.28118200  1
  Mg  Mg2  1  0.00000000  0.05480800  0.38086300  1
  Mg  Mg3  1  0.50000000  0.65330900  0.23163700  1
  Mg  Mg4  1  0.50000000  0.97425000  0.21370200  1
  Mg  Mg5  1  0.00000000  0.73386700  0.39879800  1
  Mg  Mg6  1  0.00000000  0.77225100  0.26420200  1
  Mg  Mg7  1  0.50000000  0.93586600  0.34829800  1
  Mg  Mg8  1  0.00000000  0.15299000  0.23131800  1
  Mg  Mg9  1  0.50000000  0.55512700  0.38118200  1
  Mg  Mg10  1  0.50000000  0.45480800  0.28086300  1
  Mg  Mg11  1  1.00000000  0.25330900  0.33163700  1
  Mg  Mg12  1  0.00000000  0.57425000  0.31370200  1
  Mg  Mg13  1  0.50000000  0.13386700  0.29879800  1
  Mg  Mg14  1  0.50000000  0.37225100  0.36420200  1
  Mg  Mg15  1  0.00000000  0.33586600  0.24829800  1
  Mg  Mg16  1  0.50000000  0.95299000  0.53131800  1
  Mg  Mg17  1  0.00000000  0.15512700  0.48118200  1
  Mg  Mg18  1  0.00000000  0.25480800  0.58086300  1
  Mg  Mg19  1  0.50000000  0.85330900  0.43163700  1
  Mg  Mg20  1  0.50000000  0.17425000  0.41370200  1
  Mg  Mg21  1  0.00000000  0.93386700  0.59879800  1
  Mg  Mg22  1  0.00000000  0.97225100  0.46420200  1
  Mg  Mg23  1  0.50000000  0.13586600  0.54829800  1
  Mg  Mg24  1  0.00000000  0.35299000  0.43131800  1
  Mg  Mg25  1  0.50000000  0.75512700  0.58118200  1
  Mg  Mg26  1  0.50000000  0.65480800  0.48086300  1
  Mg  Mg27  1  0.00000000  0.45330900  0.53163700  1
  Mg  Mg28  1  0.00000000  0.77425000  0.51370200  1
  Mg  Mg29  1  0.50000000  0.33386700  0.49879800  1
  Mg  Mg30  1  0.50000000  0.57225100  0.56420200  1
  Mg  Mg31  1  0.00000000  0.53586600  0.44829800  1
  Mg  Mg32  1  0.50000000  0.15299000  0.73131800  1
  Mg  Mg33  1  0.00000000  0.35512700  0.68118200  1
  Mg  Mg34  1  0.00000000  0.45480800  0.78086300  1
  Mg  Mg35  1  0.50000000  0.05330900  0.63163700  1
  Mg  Mg36  1  0.50000000  0.37425000  0.61370200  1
  Mg  Mg37  1  0.00000000  0.13386700  0.79879800  1
  Mg  Mg38  1  0.00000000  0.17225100  0.66420200  1
  Mg  Mg39  1  0.50000000  0.33586600  0.74829800  1
  Mg  Mg40  1  0.00000000  0.55299000  0.63131800  1
  Mg  Mg41  1  0.50000000  0.95512700  0.78118200  1
  Mg  Mg42  1  0.50000000  0.85480800  0.68086300  1
  Mg  Mg43  1  0.00000000  0.65330900  0.73163700  1
  Mg  Mg44  1  0.00000000  0.97425000  0.71370200  1
  Mg  Mg45  1  0.50000000  0.53386700  0.69879800  1
  Mg  Mg46  1  0.50000000  0.77225100  0.76420200  1
  Mg  Mg47  1  0.00000000  0.73586600  0.64829800  1
  Au  Au48  1  0.74887800  0.15405800  0.35625000  1
  Au  Au49  1  0.25112200  0.05405800  0.25625000  1
  Au  Au50  1  0.25112200  0.15405800  0.35625000  1
  Au  Au51  1  0.74887800  0.05405800  0.25625000  1
  Au  Au52  1  0.50000000  0.05333800  0.38156700  1
  Au  Au53  1  0.00000000  0.65477900  0.23093300  1
  Au  Au54  1  0.00000000  0.75499900  0.33115200  1
  Au  Au55  1  0.50000000  0.95311800  0.28134800  1
  Au  Au56  1  0.25204300  0.83466400  0.37359900  1
  Au  Au57  1  0.75204300  0.87345300  0.23890100  1
  Au  Au58  1  0.24795700  0.87345300  0.23890100  1
  Au  Au59  1  0.74795700  0.83466400  0.37359900  1
  Au  Au60  1  0.74955100  0.03445200  0.32365200  1
  Au  Au61  1  0.24955100  0.67366500  0.28884800  1
  Au  Au62  1  0.75044900  0.67366500  0.28884800  1
  Au  Au63  1  0.25044900  0.03445200  0.32365200  1
  Au  Au64  1  0.75000000  0.85405800  0.30625000  1
  Au  Au65  1  0.25000000  0.85405800  0.30625000  1
  Au  Au66  1  0.50000000  0.77347900  0.26389500  1
  Au  Au67  1  0.00000000  0.93463800  0.34860500  1
  Au  Au68  1  0.00000000  0.97159100  0.21436700  1
  Au  Au69  1  0.50000000  0.73652600  0.39813300  1
  Au  Au70  1  0.24887800  0.55405800  0.25625000  1
  Au  Au71  1  0.75112200  0.65405800  0.35625000  1
  Au  Au72  1  0.75112200  0.55405800  0.25625000  1
  Au  Au73  1  0.24887800  0.65405800  0.35625000  1
  Au  Au74  1  0.00000000  0.45333800  0.28156700  1
  Au  Au75  1  0.50000000  0.25477900  0.33093300  1
  Au  Au76  1  0.50000000  0.15499900  0.23115200  1
  Au  Au77  1  0.00000000  0.55311800  0.38134800  1
  Au  Au78  1  0.75204300  0.23466400  0.27359900  1
  Au  Au79  1  0.25204300  0.47345300  0.33890100  1
  Au  Au80  1  0.74795700  0.47345300  0.33890100  1
  Au  Au81  1  0.24795700  0.23466400  0.27359900  1
  Au  Au82  1  0.24955100  0.43445200  0.22365200  1
  Au  Au83  1  0.74955100  0.27366500  0.38884800  1
  Au  Au84  1  0.25044900  0.27366500  0.38884800  1
  Au  Au85  1  0.75044900  0.43445200  0.22365200  1
  Au  Au86  1  0.25000000  0.35405800  0.30625000  1
  Au  Au87  1  0.75000000  0.35405800  0.30625000  1
  Au  Au88  1  0.00000000  0.37347900  0.36389500  1
  Au  Au89  1  0.50000000  0.33463800  0.24860500  1
  Au  Au90  1  0.50000000  0.57159100  0.31436700  1
  Au  Au91  1  0.00000000  0.13652600  0.29813300  1
  Au  Au92  1  0.74887800  0.35405800  0.55625000  1
  Au  Au93  1  0.25112200  0.25405800  0.45625000  1
  Au  Au94  1  0.25112200  0.35405800  0.55625000  1
  Au  Au95  1  0.74887800  0.25405800  0.45625000  1
  Au  Au96  1  0.50000000  0.25333800  0.58156700  1
  Au  Au97  1  0.00000000  0.85477900  0.43093300  1
  Au  Au98  1  0.00000000  0.95499900  0.53115200  1
  Au  Au99  1  0.50000000  0.15311800  0.48134800  1
  Au  Au100  1  0.25204300  0.03466400  0.57359900  1
  Au  Au101  1  0.75204300  0.07345300  0.43890100  1
  Au  Au102  1  0.24795700  0.07345300  0.43890100  1
  Au  Au103  1  0.74795700  0.03466400  0.57359900  1
  Au  Au104  1  0.74955100  0.23445200  0.52365200  1
  Au  Au105  1  0.24955100  0.87366500  0.48884800  1
  Au  Au106  1  0.75044900  0.87366500  0.48884800  1
  Au  Au107  1  0.25044900  0.23445200  0.52365200  1
  Au  Au108  1  0.75000000  0.05405800  0.50625000  1
  Au  Au109  1  0.25000000  0.05405800  0.50625000  1
  Au  Au110  1  0.75000000  0.95405800  0.40625000  1
  Au  Au111  1  0.25000000  0.95405800  0.40625000  1
  Au  Au112  1  0.50000000  0.97347900  0.46389500  1
  Au  Au113  1  0.00000000  0.13463800  0.54860500  1
  Au  Au114  1  0.00000000  0.17159100  0.41436700  1
  Au  Au115  1  0.50000000  0.93652600  0.59813300  1
  Au  Au116  1  0.24887800  0.75405800  0.45625000  1
  Au  Au117  1  0.75112200  0.85405800  0.55625000  1
  Au  Au118  1  0.75112200  0.75405800  0.45625000  1
  Au  Au119  1  0.24887800  0.85405800  0.55625000  1
  Au  Au120  1  0.00000000  0.65333800  0.48156700  1
  Au  Au121  1  0.50000000  0.45477900  0.53093300  1
  Au  Au122  1  0.50000000  0.35499900  0.43115200  1
  Au  Au123  1  0.00000000  0.75311800  0.58134800  1
  Au  Au124  1  0.75204300  0.43466400  0.47359900  1
  Au  Au125  1  0.25204300  0.67345300  0.53890100  1
  Au  Au126  1  0.74795700  0.67345300  0.53890100  1
  Au  Au127  1  0.24795700  0.43466400  0.47359900  1
  Au  Au128  1  0.24955100  0.63445200  0.42365200  1
  Au  Au129  1  0.74955100  0.47366500  0.58884800  1
  Au  Au130  1  0.25044900  0.47366500  0.58884800  1
  Au  Au131  1  0.75044900  0.63445200  0.42365200  1
  Au  Au132  1  0.25000000  0.45405800  0.40625000  1
  Au  Au133  1  0.75000000  0.45405800  0.40625000  1
  Au  Au134  1  0.25000000  0.55405800  0.50625000  1
  Au  Au135  1  0.75000000  0.55405800  0.50625000  1
  Au  Au136  1  0.00000000  0.57347900  0.56389500  1
  Au  Au137  1  0.50000000  0.53463800  0.44860500  1
  Au  Au138  1  0.50000000  0.77159100  0.51436700  1
  Au  Au139  1  0.00000000  0.33652600  0.49813300  1
  Au  Au140  1  0.74887800  0.55405800  0.75625000  1
  Au  Au141  1  0.25112200  0.45405800  0.65625000  1
  Au  Au142  1  0.25112200  0.55405800  0.75625000  1
  Au  Au143  1  0.74887800  0.45405800  0.65625000  1
  Au  Au144  1  0.50000000  0.45333800  0.78156700  1
  Au  Au145  1  0.00000000  0.05477900  0.63093300  1
  Au  Au146  1  0.00000000  0.15499900  0.73115200  1
  Au  Au147  1  0.50000000  0.35311800  0.68134800  1
  Au  Au148  1  0.25204300  0.23466400  0.77359900  1
  Au  Au149  1  0.75204300  0.27345300  0.63890100  1
  Au  Au150  1  0.24795700  0.27345300  0.63890100  1
  Au  Au151  1  0.74795700  0.23466400  0.77359900  1
  Au  Au152  1  0.74955100  0.43445200  0.72365200  1
  Au  Au153  1  0.24955100  0.07366500  0.68884800  1
  Au  Au154  1  0.75044900  0.07366500  0.68884800  1
  Au  Au155  1  0.25044900  0.43445200  0.72365200  1
  Au  Au156  1  0.75000000  0.25405800  0.70625000  1
  Au  Au157  1  0.25000000  0.25405800  0.70625000  1
  Au  Au158  1  0.75000000  0.15405800  0.60625000  1
  Au  Au159  1  0.25000000  0.15405800  0.60625000  1
  Au  Au160  1  0.50000000  0.17347900  0.66389500  1
  Au  Au161  1  0.00000000  0.33463800  0.74860500  1
  Au  Au162  1  0.00000000  0.37159100  0.61436700  1
  Au  Au163  1  0.50000000  0.13652600  0.79813300  1
  Au  Au164  1  0.24887800  0.95405800  0.65625000  1
  Au  Au165  1  0.75112200  0.05405800  0.75625000  1
  Au  Au166  1  0.75112200  0.95405800  0.65625000  1
  Au  Au167  1  0.24887800  0.05405800  0.75625000  1
  Au  Au168  1  0.00000000  0.85333800  0.68156700  1
  Au  Au169  1  0.50000000  0.65477900  0.73093300  1
  Au  Au170  1  0.50000000  0.55499900  0.63115200  1
  Au  Au171  1  0.00000000  0.95311800  0.78134800  1
  Au  Au172  1  0.75204300  0.63466400  0.67359900  1
  Au  Au173  1  0.25204300  0.87345300  0.73890100  1
  Au  Au174  1  0.74795700  0.87345300  0.73890100  1
  Au  Au175  1  0.24795700  0.63466400  0.67359900  1
  Au  Au176  1  0.24955100  0.83445200  0.62365200  1
  Au  Au177  1  0.74955100  0.67366500  0.78884800  1
  Au  Au178  1  0.25044900  0.67366500  0.78884800  1
  Au  Au179  1  0.75044900  0.83445200  0.62365200  1
  Au  Au180  1  0.25000000  0.65405800  0.60625000  1
  Au  Au181  1  0.75000000  0.65405800  0.60625000  1
  Au  Au182  1  0.25000000  0.75405800  0.70625000  1
  Au  Au183  1  0.75000000  0.75405800  0.70625000  1
  Au  Au184  1  0.00000000  0.77347900  0.76389500  1
  Au  Au185  1  0.50000000  0.73463800  0.64860500  1
  Au  Au186  1  0.50000000  0.97159100  0.71436700  1
  Au  Au187  1  0.00000000  0.53652600  0.69813300  1
