# generated using pymatgen
data_Mg11Co21
_symmetry_space_group_name_H-M   'P 1'
_cell_length_a   7.88793400
_cell_length_b   8.36279800
_cell_length_c   43.45437600
_cell_angle_alpha   90.00000000
_cell_angle_beta   90.00000000
_cell_angle_gamma   90.00000000
_symmetry_Int_Tables_number   1
_chemical_formula_structural   Mg11Co21
_chemical_formula_sum   'Mg44 Co84'
_cell_volume   2866.47654633
_cell_formula_units_Z   4
loop_
 _symmetry_equiv_pos_site_id
 _symmetry_equiv_pos_as_xyz
  1  'x, y, z'
loop_
 _atom_site_type_symbol
 _atom_site_label
 _atom_site_symmetry_multiplicity
 _atom_site_fract_x
 _atom_site_fract_y
 _atom_site_fract_z
 _atom_site_occupancy
  Mg  Mg0  1  0.43675100  0.29462200  0.23148100  1
  Mg  Mg1  1  0.06324900  0.29462200  0.23148100  1
  Mg  Mg2  1  0.93675100  0.96128900  0.23148100  1
  Mg  Mg3  1  0.56324900  0.96128900  0.23148100  1
  Mg  Mg4  1  0.43675100  0.79462200  0.28703700  1
  Mg  Mg5  1  0.06324900  0.79462200  0.28703700  1
  Mg  Mg6  1  0.93675100  0.46128900  0.28703700  1
  Mg  Mg7  1  0.56324900  0.46128900  0.28703700  1
  Mg  Mg8  1  0.43675100  0.29462200  0.34259300  1
  Mg  Mg9  1  0.06324900  0.29462200  0.34259300  1
  Mg  Mg10  1  0.93675100  0.96128900  0.34259300  1
  Mg  Mg11  1  0.56324900  0.96128900  0.34259300  1
  Mg  Mg12  1  0.43675100  0.79462200  0.39814800  1
  Mg  Mg13  1  0.06324900  0.79462200  0.39814800  1
  Mg  Mg14  1  0.93675100  0.46128900  0.39814800  1
  Mg  Mg15  1  0.56324900  0.46128900  0.39814800  1
  Mg  Mg16  1  0.43675100  0.29462200  0.45370400  1
  Mg  Mg17  1  0.06324900  0.29462200  0.45370400  1
  Mg  Mg18  1  0.93675100  0.96128900  0.45370400  1
  Mg  Mg19  1  0.56324900  0.96128900  0.45370400  1
  Mg  Mg20  1  0.43675100  0.79462200  0.50925900  1
  Mg  Mg21  1  0.06324900  0.79462200  0.50925900  1
  Mg  Mg22  1  0.93675100  0.46128900  0.50925900  1
  Mg  Mg23  1  0.56324900  0.46128900  0.50925900  1
  Mg  Mg24  1  0.43675100  0.29462200  0.56481500  1
  Mg  Mg25  1  0.06324900  0.29462200  0.56481500  1
  Mg  Mg26  1  0.93675100  0.96128900  0.56481500  1
  Mg  Mg27  1  0.56324900  0.96128900  0.56481500  1
  Mg  Mg28  1  0.43675100  0.79462200  0.62037000  1
  Mg  Mg29  1  0.06324900  0.79462200  0.62037000  1
  Mg  Mg30  1  0.93675100  0.46128900  0.62037000  1
  Mg  Mg31  1  0.56324900  0.46128900  0.62037000  1
  Mg  Mg32  1  0.43675100  0.29462200  0.67592600  1
  Mg  Mg33  1  0.06324900  0.29462200  0.67592600  1
  Mg  Mg34  1  0.93675100  0.96128900  0.67592600  1
  Mg  Mg35  1  0.56324900  0.96128900  0.67592600  1
  Mg  Mg36  1  0.43675100  0.79462200  0.73148100  1
  Mg  Mg37  1  0.06324900  0.79462200  0.73148100  1
  Mg  Mg38  1  0.93675100  0.46128900  0.73148100  1
  Mg  Mg39  1  0.56324900  0.46128900  0.73148100  1
  Mg  Mg40  1  0.43675100  0.29462200  0.78703700  1
  Mg  Mg41  1  0.06324900  0.29462200  0.78703700  1
  Mg  Mg42  1  0.93675100  0.96128900  0.78703700  1
  Mg  Mg43  1  0.56324900  0.96128900  0.78703700  1
  Co  Co44  1  0.50000000  0.62795600  0.23148100  1
  Co  Co45  1  0.25000000  0.79856300  0.23148100  1
  Co  Co46  1  0.00000000  0.62795600  0.23148100  1
  Co  Co47  1  0.75000000  0.45734800  0.23148100  1
  Co  Co48  1  0.50000000  0.12795600  0.28703700  1
  Co  Co49  1  0.25000000  0.29856300  0.28703700  1
  Co  Co50  1  0.25000000  0.04265200  0.25860200  1
  Co  Co51  1  0.25000000  0.54265200  0.25991600  1
  Co  Co52  1  0.00000000  0.12795600  0.28703700  1
  Co  Co53  1  0.75000000  0.21326000  0.25860200  1
  Co  Co54  1  0.75000000  0.71326000  0.25991600  1
  Co  Co55  1  0.75000000  0.95734800  0.28703700  1
  Co  Co56  1  0.50000000  0.62795600  0.34259300  1
  Co  Co57  1  0.25000000  0.79856300  0.34259300  1
  Co  Co58  1  0.25000000  0.54265200  0.31415800  1
  Co  Co59  1  0.25000000  0.04265200  0.31547200  1
  Co  Co60  1  0.00000000  0.62795600  0.34259300  1
  Co  Co61  1  0.75000000  0.71326000  0.31415800  1
  Co  Co62  1  0.75000000  0.21326000  0.31547200  1
  Co  Co63  1  0.75000000  0.45734800  0.34259300  1
  Co  Co64  1  0.50000000  0.12795600  0.39814800  1
  Co  Co65  1  0.25000000  0.29856300  0.39814800  1
  Co  Co66  1  0.25000000  0.04265200  0.36971400  1
  Co  Co67  1  0.25000000  0.54265200  0.37102700  1
  Co  Co68  1  0.00000000  0.12795600  0.39814800  1
  Co  Co69  1  0.75000000  0.21326000  0.36971400  1
  Co  Co70  1  0.75000000  0.71326000  0.37102700  1
  Co  Co71  1  0.75000000  0.95734800  0.39814800  1
  Co  Co72  1  0.50000000  0.62795600  0.45370400  1
  Co  Co73  1  0.25000000  0.79856300  0.45370400  1
  Co  Co74  1  0.25000000  0.54265200  0.42526900  1
  Co  Co75  1  0.25000000  0.04265200  0.42658300  1
  Co  Co76  1  0.00000000  0.62795600  0.45370400  1
  Co  Co77  1  0.75000000  0.71326000  0.42526900  1
  Co  Co78  1  0.75000000  0.21326000  0.42658300  1
  Co  Co79  1  0.75000000  0.45734800  0.45370400  1
  Co  Co80  1  0.50000000  0.12795600  0.50925900  1
  Co  Co81  1  0.25000000  0.29856300  0.50925900  1
  Co  Co82  1  0.25000000  0.04265200  0.48082500  1
  Co  Co83  1  0.25000000  0.54265200  0.48213800  1
  Co  Co84  1  0.00000000  0.12795600  0.50925900  1
  Co  Co85  1  0.75000000  0.21326000  0.48082500  1
  Co  Co86  1  0.75000000  0.71326000  0.48213800  1
  Co  Co87  1  0.75000000  0.95734800  0.50925900  1
  Co  Co88  1  0.50000000  0.62795600  0.56481500  1
  Co  Co89  1  0.25000000  0.79856300  0.56481500  1
  Co  Co90  1  0.25000000  0.54265200  0.53638000  1
  Co  Co91  1  0.25000000  0.04265200  0.53769400  1
  Co  Co92  1  1.00000000  0.62795600  0.56481500  1
  Co  Co93  1  0.75000000  0.71326000  0.53638000  1
  Co  Co94  1  0.75000000  0.21326000  0.53769400  1
  Co  Co95  1  0.75000000  0.45734800  0.56481500  1
  Co  Co96  1  0.50000000  0.12795600  0.62037000  1
  Co  Co97  1  0.25000000  0.29856300  0.62037000  1
  Co  Co98  1  0.25000000  0.04265200  0.59193600  1
  Co  Co99  1  0.25000000  0.54265200  0.59324900  1
  Co  Co100  1  0.00000000  0.12795600  0.62037000  1
  Co  Co101  1  0.75000000  0.21326000  0.59193600  1
  Co  Co102  1  0.75000000  0.71326000  0.59324900  1
  Co  Co103  1  0.75000000  0.95734800  0.62037000  1
  Co  Co104  1  0.50000000  0.62795600  0.67592600  1
  Co  Co105  1  0.25000000  0.79856300  0.67592600  1
  Co  Co106  1  0.25000000  0.54265200  0.64749100  1
  Co  Co107  1  0.25000000  0.04265200  0.64880500  1
  Co  Co108  1  1.00000000  0.62795600  0.67592600  1
  Co  Co109  1  0.75000000  0.71326000  0.64749100  1
  Co  Co110  1  0.75000000  0.21326000  0.64880500  1
  Co  Co111  1  0.75000000  0.45734800  0.67592600  1
  Co  Co112  1  0.50000000  0.12795600  0.73148100  1
  Co  Co113  1  0.25000000  0.29856300  0.73148100  1
  Co  Co114  1  0.25000000  0.04265200  0.70304700  1
  Co  Co115  1  0.25000000  0.54265200  0.70436100  1
  Co  Co116  1  0.00000000  0.12795600  0.73148100  1
  Co  Co117  1  0.75000000  0.21326000  0.70304700  1
  Co  Co118  1  0.75000000  0.71326000  0.70436100  1
  Co  Co119  1  0.75000000  0.95734800  0.73148100  1
  Co  Co120  1  0.50000000  0.62795600  0.78703700  1
  Co  Co121  1  0.25000000  0.79856300  0.78703700  1
  Co  Co122  1  0.25000000  0.54265200  0.75860200  1
  Co  Co123  1  0.25000000  0.04265200  0.75991600  1
  Co  Co124  1  0.00000000  0.62795600  0.78703700  1
  Co  Co125  1  0.75000000  0.71326000  0.75860200  1
  Co  Co126  1  0.75000000  0.21326000  0.75991600  1
  Co  Co127  1  0.75000000  0.45734800  0.78703700  1
