# generated using pymatgen
data_Mg12Zn65
_symmetry_space_group_name_H-M   'P 1'
_cell_length_a   4.98183571
_cell_length_b   9.87228479
_cell_length_c   49.62169200
_cell_angle_alpha   87.16066620
_cell_angle_beta   87.12264785
_cell_angle_gamma   75.38550100
_symmetry_Int_Tables_number   1
_chemical_formula_structural   Mg12Zn65
_chemical_formula_sum   'Mg12 Zn65'
_cell_volume   2356.84330036
_cell_formula_units_Z   1
loop_
 _symmetry_equiv_pos_site_id
 _symmetry_equiv_pos_as_xyz
  1  'x, y, z'
loop_
 _atom_site_type_symbol
 _atom_site_label
 _atom_site_symmetry_multiplicity
 _atom_site_fract_x
 _atom_site_fract_y
 _atom_site_fract_z
 _atom_site_occupancy
  Mg  Mg0  1  0.56172200  0.20621700  0.67033900  1
  Mg  Mg1  1  0.24679600  0.71146800  0.79493900  1
  Mg  Mg2  1  0.40029600  0.49940500  0.70000400  1
  Mg  Mg3  1  0.40822300  0.41828100  0.76527400  1
  Mg  Mg4  1  0.39505500  0.70621700  0.50367200  1
  Mg  Mg5  1  0.08013000  0.21146800  0.62827200  1
  Mg  Mg6  1  0.23362900  0.99940500  0.53333700  1
  Mg  Mg7  1  0.24155600  0.91828100  0.59860800  1
  Mg  Mg8  1  0.22838900  0.20621700  0.33700500  1
  Mg  Mg9  1  0.91346300  0.71146800  0.46160600  1
  Mg  Mg10  1  0.06696200  0.49940500  0.36667000  1
  Mg  Mg11  1  0.07488900  0.41828100  0.43194100  1
  Zn  Zn12  1  0.48759200  0.20884300  0.81597200  1
  Zn  Zn13  1  0.81882000  0.68190600  0.68045400  1
  Zn  Zn14  1  0.67214300  0.94531400  0.71040100  1
  Zn  Zn15  1  0.82438400  0.57124600  0.77998500  1
  Zn  Zn16  1  0.98413400  0.34643900  0.68529300  1
  Zn  Zn17  1  0.77569100  0.21479100  0.72852600  1
  Zn  Zn18  1  0.86050700  0.97250700  0.81219000  1
  Zn  Zn19  1  0.98969800  0.23577900  0.78482400  1
  Zn  Zn20  1  0.11630900  0.07499700  0.69238500  1
  Zn  Zn21  1  0.62038900  0.44517900  0.81975400  1
  Zn  Zn22  1  0.35479600  0.97250700  0.81219000  1
  Zn  Zn23  1  0.11467800  0.44517900  0.81975400  1
  Zn  Zn24  1  0.52752600  0.70289500  0.73675200  1
  Zn  Zn25  1  0.13637500  0.97237200  0.75487700  1
  Zn  Zn26  1  0.28099200  0.21479100  0.72852600  1
  Zn  Zn27  1  0.03282700  0.70289500  0.73675200  1
  Zn  Zn28  1  0.90425900  0.45884300  0.73263900  1
  Zn  Zn29  1  0.56065400  0.10926800  0.76942500  1
  Zn  Zn30  1  0.24786400  0.80841800  0.69585300  1
  Zn  Zn31  1  0.69220900  0.84268800  0.77289300  1
  Zn  Zn32  1  0.32092600  0.70884300  0.64930600  1
  Zn  Zn33  1  0.65215300  0.18190600  0.51378700  1
  Zn  Zn34  1  0.50547600  0.44531400  0.54373400  1
  Zn  Zn35  1  0.65771800  0.07124600  0.61331800  1
  Zn  Zn36  1  0.81746700  0.84643900  0.51862600  1
  Zn  Zn37  1  0.60902400  0.71479100  0.56185900  1
  Zn  Zn38  1  0.69384100  0.47250700  0.64552400  1
  Zn  Zn39  1  0.82303100  0.73577900  0.61815800  1
  Zn  Zn40  1  0.94964200  0.57499700  0.52571800  1
  Zn  Zn41  1  0.45372300  0.94517900  0.65308700  1
  Zn  Zn42  1  0.18812900  0.47250700  0.64552400  1
  Zn  Zn43  1  0.94801100  0.94517900  0.65308700  1
  Zn  Zn44  1  0.36085900  0.20289500  0.57008500  1
  Zn  Zn45  1  0.96970900  0.47237200  0.58821000  1
  Zn  Zn46  1  0.11432600  0.71479100  0.56185900  1
  Zn  Zn47  1  0.86616000  0.20289500  0.57008500  1
  Zn  Zn48  1  0.73759200  0.95884300  0.56597200  1
  Zn  Zn49  1  0.39398700  0.60926800  0.60275800  1
  Zn  Zn50  1  0.08119800  0.30841800  0.52918600  1
  Zn  Zn51  1  0.52554300  0.34268800  0.60622600  1
  Zn  Zn52  1  0.15425900  0.20884300  0.48263900  1
  Zn  Zn53  1  0.48548700  0.68190600  0.34712000  1
  Zn  Zn54  1  0.33880900  0.94531400  0.37706700  1
  Zn  Zn55  1  0.49105100  0.57124600  0.44665200  1
  Zn  Zn56  1  0.65080100  0.34643900  0.35195900  1
  Zn  Zn57  1  0.44235800  0.21479100  0.39519200  1
  Zn  Zn58  1  0.52717400  0.97250700  0.47885700  1
  Zn  Zn59  1  0.65636500  0.23577900  0.45149100  1
  Zn  Zn60  1  0.78297500  0.07499700  0.35905200  1
  Zn  Zn61  1  0.28705600  0.44517900  0.48642100  1
  Zn  Zn62  1  0.02146200  0.97250700  0.47885700  1
  Zn  Zn63  1  0.78134400  0.44517900  0.48642100  1
  Zn  Zn64  1  0.19419300  0.70289500  0.40341900  1
  Zn  Zn65  1  0.80304200  0.97237200  0.42154400  1
  Zn  Zn66  1  0.94765900  0.21479100  0.39519200  1
  Zn  Zn67  1  0.69949400  0.70289500  0.40341900  1
  Zn  Zn68  1  0.57092600  0.45884300  0.39930600  1
  Zn  Zn69  1  0.22732000  0.10926800  0.43609100  1
  Zn  Zn70  1  0.91453100  0.80841800  0.36252000  1
  Zn  Zn71  1  0.35887600  0.84268800  0.43956000  1
  Zn  Zn72  1  0.98759200  0.70884300  0.31597200  1
  Zn  Zn73  1  0.36050700  0.47250700  0.31219000  1
  Zn  Zn74  1  0.12038900  0.94517900  0.31975400  1
  Zn  Zn75  1  0.85479600  0.47250700  0.31219000  1
  Zn  Zn76  1  0.61467800  0.94517900  0.31975400  1
