# generated using pymatgen
data_Mg2Ir3
_symmetry_space_group_name_H-M   'P 1'
_cell_length_a   5.24707521
_cell_length_b   9.72091511
_cell_length_c   42.67859400
_cell_angle_alpha   83.72935757
_cell_angle_beta   86.47569412
_cell_angle_gamma   74.34252486
_symmetry_Int_Tables_number   1
_chemical_formula_structural   Mg2Ir3
_chemical_formula_sum   'Mg28 Ir42'
_cell_volume   2082.39608329
_cell_formula_units_Z   14
loop_
 _symmetry_equiv_pos_site_id
 _symmetry_equiv_pos_as_xyz
  1  'x, y, z'
loop_
 _atom_site_type_symbol
 _atom_site_label
 _atom_site_symmetry_multiplicity
 _atom_site_fract_x
 _atom_site_fract_y
 _atom_site_fract_z
 _atom_site_occupancy
  Mg  Mg0  1  0.71986400  0.86333900  0.69693200  1
  Mg  Mg1  1  0.28013600  0.77666100  0.66306800  1
  Mg  Mg2  1  0.44543300  0.35247400  0.75666100  1
  Mg  Mg3  1  0.55456700  0.28752600  0.60333900  1
  Mg  Mg4  1  0.57770000  0.16417700  0.68042300  1
  Mg  Mg5  1  0.42230000  0.47582300  0.67957700  1
  Mg  Mg6  1  0.97896800  0.32577500  0.71628800  1
  Mg  Mg7  1  0.02103200  0.31422500  0.64371200  1
  Mg  Mg8  1  0.71986400  0.06333900  0.49693200  1
  Mg  Mg9  1  0.28013600  0.97666100  0.46306800  1
  Mg  Mg10  1  0.44543300  0.55247400  0.55666100  1
  Mg  Mg11  1  0.55456700  0.48752600  0.40333900  1
  Mg  Mg12  1  0.70924000  0.01261800  0.56890200  1
  Mg  Mg13  1  0.29076000  0.82738200  0.59109800  1
  Mg  Mg14  1  0.57770000  0.36417700  0.48042300  1
  Mg  Mg15  1  0.42230000  0.67582300  0.47957700  1
  Mg  Mg16  1  0.97896800  0.52577500  0.51628800  1
  Mg  Mg17  1  0.02103200  0.51422500  0.44371200  1
  Mg  Mg18  1  0.71986400  0.26333900  0.29693200  1
  Mg  Mg19  1  0.28013600  0.17666100  0.26306800  1
  Mg  Mg20  1  0.44543300  0.75247400  0.35666100  1
  Mg  Mg21  1  0.55456700  0.68752600  0.20333900  1
  Mg  Mg22  1  0.70924000  0.21261800  0.36890200  1
  Mg  Mg23  1  0.29076000  0.02738200  0.39109800  1
  Mg  Mg24  1  0.57770000  0.56417700  0.28042300  1
  Mg  Mg25  1  0.42230000  0.87582300  0.27957700  1
  Mg  Mg26  1  0.97896800  0.72577500  0.31628800  1
  Mg  Mg27  1  0.02103200  0.71422500  0.24371200  1
  Ir  Ir28  1  0.13112200  0.05209300  0.68566400  1
  Ir  Ir29  1  0.86887800  0.58790700  0.67433600  1
  Ir  Ir30  1  0.08254400  0.60998200  0.72590600  1
  Ir  Ir31  1  0.91745600  0.03001800  0.63409400  1
  Ir  Ir32  1  0.41843100  0.03001800  0.63409400  1
  Ir  Ir33  1  0.58156900  0.60998200  0.72590600  1
  Ir  Ir34  1  0.78403600  0.80332300  0.62860500  1
  Ir  Ir35  1  0.21596400  0.83667700  0.73139500  1
  Ir  Ir36  1  0.82470600  0.07928300  0.73918100  1
  Ir  Ir37  1  0.17529400  0.56071700  0.62081900  1
  Ir  Ir38  1  0.64317100  0.56071700  0.62081900  1
  Ir  Ir39  1  0.35682900  0.07928300  0.73918100  1
  Ir  Ir40  1  0.13112200  0.25209300  0.48566400  1
  Ir  Ir41  1  0.86887800  0.78790700  0.47433600  1
  Ir  Ir42  1  0.08254400  0.80998200  0.52590600  1
  Ir  Ir43  1  0.91745600  0.23001800  0.43409400  1
  Ir  Ir44  1  0.41843100  0.23001800  0.43409400  1
  Ir  Ir45  1  0.58156900  0.80998200  0.52590600  1
  Ir  Ir46  1  1.00000000  0.42000000  0.58000000  1
  Ir  Ir47  1  0.78403600  0.00332300  0.42860500  1
  Ir  Ir48  1  0.21596400  0.03667700  0.53139500  1
  Ir  Ir49  1  0.86417200  0.69828000  0.57337700  1
  Ir  Ir50  1  0.13582800  0.14172000  0.58662300  1
  Ir  Ir51  1  0.82470600  0.27928300  0.53918100  1
  Ir  Ir52  1  0.17529400  0.76071700  0.42081900  1
  Ir  Ir53  1  0.64317100  0.76071700  0.42081900  1
  Ir  Ir54  1  0.35682900  0.27928300  0.53918100  1
  Ir  Ir55  1  0.13112200  0.45209300  0.28566400  1
  Ir  Ir56  1  0.86887800  0.98790700  0.27433600  1
  Ir  Ir57  1  0.08254400  0.00998200  0.32590600  1
  Ir  Ir58  1  0.91745600  0.43001800  0.23409400  1
  Ir  Ir59  1  0.41843100  0.43001800  0.23409400  1
  Ir  Ir60  1  0.58156900  0.00998200  0.32590600  1
  Ir  Ir61  1  0.00000000  0.62000000  0.38000000  1
  Ir  Ir62  1  0.78403600  0.20332300  0.22860500  1
  Ir  Ir63  1  0.21596400  0.23667700  0.33139500  1
  Ir  Ir64  1  0.86417200  0.89828000  0.37337700  1
  Ir  Ir65  1  0.13582800  0.34172000  0.38662300  1
  Ir  Ir66  1  0.82470600  0.47928300  0.33918100  1
  Ir  Ir67  1  0.17529400  0.96071700  0.22081900  1
  Ir  Ir68  1  0.64317100  0.96071700  0.22081900  1
  Ir  Ir69  1  0.35682900  0.47928300  0.33918100  1
