# generated using pymatgen
data_MgTe2
_symmetry_space_group_name_H-M   'P 1'
_cell_length_a   7.10958600
_cell_length_b   10.05447200
_cell_length_c   40.21788900
_cell_angle_alpha   90.00000000
_cell_angle_beta   90.00000000
_cell_angle_gamma   90.00000000
_symmetry_Int_Tables_number   1
_chemical_formula_structural   MgTe2
_chemical_formula_sum   'Mg18 Te36'
_cell_volume   2874.90072319
_cell_formula_units_Z   18
loop_
 _symmetry_equiv_pos_site_id
 _symmetry_equiv_pos_as_xyz
  1  'x, y, z'
loop_
 _atom_site_type_symbol
 _atom_site_label
 _atom_site_symmetry_multiplicity
 _atom_site_fract_x
 _atom_site_fract_y
 _atom_site_fract_z
 _atom_site_occupancy
  Mg  Mg0  1  0.00000000  0.62500000  0.28125000  1
  Mg  Mg1  1  0.50000000  0.87500000  0.21875000  1
  Mg  Mg2  1  0.00000000  0.12500000  0.28125000  1
  Mg  Mg3  1  0.50000000  0.37500000  0.21875000  1
  Mg  Mg4  1  0.00000000  0.12500000  0.40625000  1
  Mg  Mg5  1  0.50000000  0.37500000  0.34375000  1
  Mg  Mg6  1  0.00000000  0.62500000  0.40625000  1
  Mg  Mg7  1  0.50000000  0.87500000  0.34375000  1
  Mg  Mg8  1  0.00000000  0.62500000  0.53125000  1
  Mg  Mg9  1  0.50000000  0.87500000  0.46875000  1
  Mg  Mg10  1  0.00000000  0.12500000  0.53125000  1
  Mg  Mg11  1  0.50000000  0.37500000  0.46875000  1
  Mg  Mg12  1  0.00000000  0.12500000  0.65625000  1
  Mg  Mg13  1  0.50000000  0.37500000  0.59375000  1
  Mg  Mg14  1  0.00000000  0.62500000  0.65625000  1
  Mg  Mg15  1  0.50000000  0.87500000  0.59375000  1
  Mg  Mg16  1  0.50000000  0.87500000  0.71875000  1
  Mg  Mg17  1  0.50000000  0.37500000  0.71875000  1
  Te  Te18  1  0.61334000  0.12500000  0.30958500  1
  Te  Te19  1  0.11334000  0.37500000  0.19041500  1
  Te  Te20  1  0.38666000  0.51166000  0.28125000  1
  Te  Te21  1  0.88666000  0.98834000  0.21875000  1
  Te  Te22  1  0.38666000  0.12500000  0.25291500  1
  Te  Te23  1  0.88666000  0.37500000  0.24708500  1
  Te  Te24  1  0.61334000  0.73834000  0.28125000  1
  Te  Te25  1  0.11334000  0.76166000  0.21875000  1
  Te  Te26  1  0.61334000  0.62500000  0.43458500  1
  Te  Te27  1  0.11334000  0.87500000  0.31541500  1
  Te  Te28  1  0.38666000  0.01166000  0.40625000  1
  Te  Te29  1  0.88666000  0.48834000  0.34375000  1
  Te  Te30  1  0.38666000  0.62500000  0.37791500  1
  Te  Te31  1  0.88666000  0.87500000  0.37208500  1
  Te  Te32  1  0.61334000  0.23834000  0.40625000  1
  Te  Te33  1  0.11334000  0.26166000  0.34375000  1
  Te  Te34  1  0.61334000  0.12500000  0.55958500  1
  Te  Te35  1  0.11334000  0.37500000  0.44041500  1
  Te  Te36  1  0.38666000  0.51166000  0.53125000  1
  Te  Te37  1  0.88666000  0.98834000  0.46875000  1
  Te  Te38  1  0.38666000  0.12500000  0.50291500  1
  Te  Te39  1  0.88666000  0.37500000  0.49708500  1
  Te  Te40  1  0.61334000  0.73834000  0.53125000  1
  Te  Te41  1  0.11334000  0.76166000  0.46875000  1
  Te  Te42  1  0.61334000  0.62500000  0.68458500  1
  Te  Te43  1  0.11334000  0.87500000  0.56541500  1
  Te  Te44  1  0.38666000  0.01166000  0.65625000  1
  Te  Te45  1  0.88666000  0.48834000  0.59375000  1
  Te  Te46  1  0.38666000  0.62500000  0.62791500  1
  Te  Te47  1  0.88666000  0.87500000  0.62208500  1
  Te  Te48  1  0.61334000  0.23834000  0.65625000  1
  Te  Te49  1  0.11334000  0.26166000  0.59375000  1
  Te  Te50  1  0.11334000  0.37500000  0.69041500  1
  Te  Te51  1  0.88666000  0.98834000  0.71875000  1
  Te  Te52  1  0.88666000  0.37500000  0.74708500  1
  Te  Te53  1  0.11334000  0.76166000  0.71875000  1
