# generated using pymatgen
data_La3Mg34
_symmetry_space_group_name_H-M   'P 1'
_cell_length_a   11.92732881
_cell_length_b   11.92732880
_cell_length_c   46.09632100
_cell_angle_alpha   89.73063412
_cell_angle_beta   90.26936588
_cell_angle_gamma   104.34315546
_symmetry_Int_Tables_number   1
_chemical_formula_structural   La3Mg34
_chemical_formula_sum   'La12 Mg136'
_cell_volume   6353.19626827
_cell_formula_units_Z   4
loop_
 _symmetry_equiv_pos_site_id
 _symmetry_equiv_pos_as_xyz
  1  'x, y, z'
loop_
 _atom_site_type_symbol
 _atom_site_label
 _atom_site_symmetry_multiplicity
 _atom_site_fract_x
 _atom_site_fract_y
 _atom_site_fract_z
 _atom_site_occupancy
  La  La0  1  0.16389100  0.83610900  0.29038500  1
  La  La1  1  0.56389100  0.43610900  0.24038500  1
  La  La2  1  0.36389100  0.63610900  0.39038500  1
  La  La3  1  0.76389100  0.23610900  0.34038500  1
  La  La4  1  0.56389100  0.43610900  0.49038500  1
  La  La5  1  0.96389100  0.03610900  0.44038500  1
  La  La6  1  0.76389100  0.23610900  0.59038500  1
  La  La7  1  0.16389100  0.83610900  0.54038500  1
  La  La8  1  0.96389100  0.03610900  0.69038500  1
  La  La9  1  0.36389100  0.63610900  0.64038500  1
  La  La10  1  0.16389100  0.83610900  0.79038500  1
  La  La11  1  0.56389100  0.43610900  0.74038500  1
  Mg  Mg12  1  0.86389100  0.13610900  0.26538500  1
  Mg  Mg13  1  0.36389100  0.13610900  0.26538500  1
  Mg  Mg14  1  0.03447200  0.31843600  0.22567500  1
  Mg  Mg15  1  0.09330900  0.55378300  0.25509400  1
  Mg  Mg16  1  0.04621700  0.30669100  0.30509400  1
  Mg  Mg17  1  0.28156400  0.36552800  0.27567500  1
  Mg  Mg18  1  0.10669100  0.10731000  0.26178500  1
  Mg  Mg19  1  0.83509200  0.37891000  0.26898500  1
  Mg  Mg20  1  0.36389100  0.63610900  0.26538500  1
  Mg  Mg21  1  0.86389100  0.63610900  0.26538500  1
  Mg  Mg22  1  0.63447200  0.71843600  0.27567500  1
  Mg  Mg23  1  0.69330900  0.95378300  0.30509400  1
  Mg  Mg24  1  0.44621700  0.90669100  0.25509400  1
  Mg  Mg25  1  0.68156400  0.96552800  0.22567500  1
  Mg  Mg26  1  0.62109000  0.16490800  0.26898500  1
  Mg  Mg27  1  0.89269000  0.89330900  0.26178500  1
  Mg  Mg28  1  0.06389100  0.93610900  0.36538500  1
  Mg  Mg29  1  0.96389100  0.03610900  0.31538500  1
  Mg  Mg30  1  0.46389100  0.03610900  0.31538500  1
  Mg  Mg31  1  0.56389100  0.93610900  0.36538500  1
  Mg  Mg32  1  0.23447200  0.11843600  0.32567500  1
  Mg  Mg33  1  0.29330900  0.35378300  0.35509400  1
  Mg  Mg34  1  0.24621700  0.10669100  0.40509400  1
  Mg  Mg35  1  0.48156400  0.16552800  0.37567500  1
  Mg  Mg36  1  0.22109000  0.56490800  0.31898500  1
  Mg  Mg37  1  0.30669100  0.90731000  0.36178500  1
  Mg  Mg38  1  0.49269000  0.29330900  0.31178500  1
  Mg  Mg39  1  0.03509200  0.17891000  0.36898500  1
  Mg  Mg40  1  0.46389100  0.53610900  0.31538500  1
  Mg  Mg41  1  0.56389100  0.43610900  0.36538500  1
  Mg  Mg42  1  0.06389100  0.43610900  0.36538500  1
  Mg  Mg43  1  0.96389100  0.53610900  0.31538500  1
  Mg  Mg44  1  0.83447200  0.51843600  0.37567500  1
  Mg  Mg45  1  0.89330900  0.75378300  0.40509400  1
  Mg  Mg46  1  0.64621700  0.70669100  0.35509400  1
  Mg  Mg47  1  0.88156400  0.76552800  0.32567500  1
  Mg  Mg48  1  0.82109000  0.96490800  0.36898500  1
  Mg  Mg49  1  0.70669100  0.50731000  0.31178500  1
  Mg  Mg50  1  0.09269000  0.69330900  0.36178500  1
  Mg  Mg51  1  0.43509200  0.77891000  0.31898500  1
  Mg  Mg52  1  0.26389100  0.73610900  0.46538500  1
  Mg  Mg53  1  0.16389100  0.83610900  0.41538500  1
  Mg  Mg54  1  0.66389100  0.83610900  0.41538500  1
  Mg  Mg55  1  0.76389100  0.73610900  0.46538500  1
  Mg  Mg56  1  0.43447200  0.91843600  0.42567500  1
  Mg  Mg57  1  0.49330900  0.15378300  0.45509400  1
  Mg  Mg58  1  0.44621700  0.90669100  0.50509400  1
  Mg  Mg59  1  0.68156400  0.96552800  0.47567500  1
  Mg  Mg60  1  0.42109000  0.36490800  0.41898500  1
  Mg  Mg61  1  0.50669100  0.70731000  0.46178500  1
  Mg  Mg62  1  0.69269000  0.09330900  0.41178500  1
  Mg  Mg63  1  0.23509200  0.97891000  0.46898500  1
  Mg  Mg64  1  0.66389100  0.33610900  0.41538500  1
  Mg  Mg65  1  0.76389100  0.23610900  0.46538500  1
  Mg  Mg66  1  0.26389100  0.23610900  0.46538500  1
  Mg  Mg67  1  0.16389100  0.33610900  0.41538500  1
  Mg  Mg68  1  0.03447200  0.31843600  0.47567500  1
  Mg  Mg69  1  0.09330900  0.55378300  0.50509400  1
  Mg  Mg70  1  0.84621700  0.50669100  0.45509400  1
  Mg  Mg71  1  0.08156400  0.56552800  0.42567500  1
  Mg  Mg72  1  0.02109000  0.76490800  0.46898500  1
  Mg  Mg73  1  0.90669100  0.30731000  0.41178500  1
  Mg  Mg74  1  0.29269000  0.49330900  0.46178500  1
  Mg  Mg75  1  0.63509200  0.57891000  0.41898500  1
  Mg  Mg76  1  0.46389100  0.53610900  0.56538500  1
  Mg  Mg77  1  0.36389100  0.63610900  0.51538500  1
  Mg  Mg78  1  0.86389100  0.63610900  0.51538500  1
  Mg  Mg79  1  0.96389100  0.53610900  0.56538500  1
  Mg  Mg80  1  0.63447200  0.71843600  0.52567500  1
  Mg  Mg81  1  0.69330900  0.95378300  0.55509400  1
  Mg  Mg82  1  0.64621700  0.70669100  0.60509400  1
  Mg  Mg83  1  0.88156400  0.76552800  0.57567500  1
  Mg  Mg84  1  0.62109000  0.16490800  0.51898500  1
  Mg  Mg85  1  0.70669100  0.50731000  0.56178500  1
  Mg  Mg86  1  0.89269000  0.89330900  0.51178500  1
  Mg  Mg87  1  0.43509200  0.77891000  0.56898500  1
  Mg  Mg88  1  0.86389100  0.13610900  0.51538500  1
  Mg  Mg89  1  0.96389100  0.03610900  0.56538500  1
  Mg  Mg90  1  0.46389100  0.03610900  0.56538500  1
  Mg  Mg91  1  0.36389100  0.13610900  0.51538500  1
  Mg  Mg92  1  0.23447200  0.11843600  0.57567500  1
  Mg  Mg93  1  0.29330900  0.35378300  0.60509400  1
  Mg  Mg94  1  0.04621700  0.30669100  0.55509400  1
  Mg  Mg95  1  0.28156400  0.36552800  0.52567500  1
  Mg  Mg96  1  0.22109000  0.56490800  0.56898500  1
  Mg  Mg97  1  0.10669100  0.10731000  0.51178500  1
  Mg  Mg98  1  0.49269000  0.29330900  0.56178500  1
  Mg  Mg99  1  0.83509200  0.37891000  0.51898500  1
  Mg  Mg100  1  0.66389100  0.33610900  0.66538500  1
  Mg  Mg101  1  0.56389100  0.43610900  0.61538500  1
  Mg  Mg102  1  0.06389100  0.43610900  0.61538500  1
  Mg  Mg103  1  0.16389100  0.33610900  0.66538500  1
  Mg  Mg104  1  0.83447200  0.51843600  0.62567500  1
  Mg  Mg105  1  0.89330900  0.75378300  0.65509400  1
  Mg  Mg106  1  0.84621700  0.50669100  0.70509400  1
  Mg  Mg107  1  0.08156400  0.56552800  0.67567500  1
  Mg  Mg108  1  0.82109000  0.96490800  0.61898500  1
  Mg  Mg109  1  0.90669100  0.30731000  0.66178500  1
  Mg  Mg110  1  0.09269000  0.69330900  0.61178500  1
  Mg  Mg111  1  0.63509200  0.57891000  0.66898500  1
  Mg  Mg112  1  0.06389100  0.93610900  0.61538500  1
  Mg  Mg113  1  0.16389100  0.83610900  0.66538500  1
  Mg  Mg114  1  0.66389100  0.83610900  0.66538500  1
  Mg  Mg115  1  0.56389100  0.93610900  0.61538500  1
  Mg  Mg116  1  0.43447200  0.91843600  0.67567500  1
  Mg  Mg117  1  0.49330900  0.15378300  0.70509400  1
  Mg  Mg118  1  0.24621700  0.10669100  0.65509400  1
  Mg  Mg119  1  0.48156400  0.16552800  0.62567500  1
  Mg  Mg120  1  0.42109000  0.36490800  0.66898500  1
  Mg  Mg121  1  0.30669100  0.90731000  0.61178500  1
  Mg  Mg122  1  0.69269000  0.09330900  0.66178500  1
  Mg  Mg123  1  0.03509200  0.17891000  0.61898500  1
  Mg  Mg124  1  0.86389100  0.13610900  0.76538500  1
  Mg  Mg125  1  0.76389100  0.23610900  0.71538500  1
  Mg  Mg126  1  0.26389100  0.23610900  0.71538500  1
  Mg  Mg127  1  0.36389100  0.13610900  0.76538500  1
  Mg  Mg128  1  0.03447200  0.31843600  0.72567500  1
  Mg  Mg129  1  0.09330900  0.55378300  0.75509400  1
  Mg  Mg130  1  0.04621700  0.30669100  0.80509400  1
  Mg  Mg131  1  0.28156400  0.36552800  0.77567500  1
  Mg  Mg132  1  0.02109000  0.76490800  0.71898500  1
  Mg  Mg133  1  0.10669100  0.10731000  0.76178500  1
  Mg  Mg134  1  0.29269000  0.49330900  0.71178500  1
  Mg  Mg135  1  0.83509200  0.37891000  0.76898500  1
  Mg  Mg136  1  0.26389100  0.73610900  0.71538500  1
  Mg  Mg137  1  0.36389100  0.63610900  0.76538500  1
  Mg  Mg138  1  0.86389100  0.63610900  0.76538500  1
  Mg  Mg139  1  0.76389100  0.73610900  0.71538500  1
  Mg  Mg140  1  0.63447200  0.71843600  0.77567500  1
  Mg  Mg141  1  0.69330900  0.95378300  0.80509400  1
  Mg  Mg142  1  0.44621700  0.90669100  0.75509400  1
  Mg  Mg143  1  0.68156400  0.96552800  0.72567500  1
  Mg  Mg144  1  0.62109000  0.16490800  0.76898500  1
  Mg  Mg145  1  0.50669100  0.70731000  0.71178500  1
  Mg  Mg146  1  0.89269000  0.89330900  0.76178500  1
  Mg  Mg147  1  0.23509200  0.97891000  0.71898500  1
