# generated using pymatgen
data_Mg17In6
_symmetry_space_group_name_H-M   'P 1'
_cell_length_a   6.31272300
_cell_length_b   7.10486100
_cell_length_c   58.65194500
_cell_angle_alpha   90.00000000
_cell_angle_beta   90.00000000
_cell_angle_gamma   90.00000000
_symmetry_Int_Tables_number   1
_chemical_formula_structural   Mg17In6
_chemical_formula_sum   'Mg34 In12'
_cell_volume   2630.59952577
_cell_formula_units_Z   2
loop_
 _symmetry_equiv_pos_site_id
 _symmetry_equiv_pos_as_xyz
  1  'x, y, z'
loop_
 _atom_site_type_symbol
 _atom_site_label
 _atom_site_symmetry_multiplicity
 _atom_site_fract_x
 _atom_site_fract_y
 _atom_site_fract_z
 _atom_site_occupancy
  Mg  Mg0  1  1.00000000  0.16542200  0.47662600  1
  Mg  Mg1  1  0.50000000  0.33457800  0.30908800  1
  Mg  Mg2  1  1.00000000  0.66542200  0.30908800  1
  Mg  Mg3  1  0.50000000  0.83457800  0.47662600  1
  Mg  Mg4  1  0.25000000  0.50000000  0.45535700  1
  Mg  Mg5  1  0.75000000  0.50000000  0.45535700  1
  Mg  Mg6  1  0.75000000  0.00000000  0.27121500  1
  Mg  Mg7  1  0.25000000  0.50000000  0.26449900  1
  Mg  Mg8  1  0.75000000  0.50000000  0.26449900  1
  Mg  Mg9  1  0.25000000  0.00000000  0.27121500  1
  Mg  Mg10  1  0.50000000  0.66542200  0.35162600  1
  Mg  Mg11  1  1.00000000  0.83457800  0.43408800  1
  Mg  Mg12  1  0.50000000  0.16542200  0.43408800  1
  Mg  Mg13  1  0.00000000  0.33457800  0.35162600  1
  Mg  Mg14  1  0.75000000  0.00000000  0.33035700  1
  Mg  Mg15  1  0.25000000  0.00000000  0.33035700  1
  Mg  Mg16  1  0.25000000  0.50000000  0.39621500  1
  Mg  Mg17  1  0.75000000  0.00000000  0.38949900  1
  Mg  Mg18  1  0.25000000  0.00000000  0.38949900  1
  Mg  Mg19  1  0.75000000  0.50000000  0.39621500  1
  Mg  Mg20  1  0.50000000  0.33457800  0.55908800  1
  Mg  Mg21  1  1.00000000  0.66542200  0.55908800  1
  Mg  Mg22  1  0.75000000  0.00000000  0.52121500  1
  Mg  Mg23  1  0.25000000  0.50000000  0.51449900  1
  Mg  Mg24  1  0.75000000  0.50000000  0.51449900  1
  Mg  Mg25  1  0.25000000  0.00000000  0.52121500  1
  Mg  Mg26  1  0.50000000  0.66542200  0.60162600  1
  Mg  Mg27  1  0.00000000  0.33457800  0.60162600  1
  Mg  Mg28  1  0.75000000  0.00000000  0.58035700  1
  Mg  Mg29  1  0.25000000  0.00000000  0.58035700  1
  Mg  Mg30  1  0.25000000  0.50000000  0.64621500  1
  Mg  Mg31  1  0.75000000  0.00000000  0.63949900  1
  Mg  Mg32  1  0.25000000  0.00000000  0.63949900  1
  Mg  Mg33  1  0.75000000  0.50000000  0.64621500  1
  In  In34  1  1.00000000  0.76117200  0.48586600  1
  In  In35  1  0.50000000  0.73882800  0.29984800  1
  In  In36  1  0.00000000  0.26117200  0.29984800  1
  In  In37  1  0.50000000  0.23882800  0.48586600  1
  In  In38  1  0.50000000  0.26117200  0.36086600  1
  In  In39  1  1.00000000  0.23882800  0.42484800  1
  In  In40  1  0.50000000  0.76117200  0.42484800  1
  In  In41  1  0.00000000  0.73882800  0.36086600  1
  In  In42  1  0.50000000  0.73882800  0.54984800  1
  In  In43  1  0.00000000  0.26117200  0.54984800  1
  In  In44  1  0.50000000  0.26117200  0.61086600  1
  In  In45  1  0.00000000  0.73882800  0.61086600  1
