# generated using pymatgen
data_Sr4Mg37
_symmetry_space_group_name_H-M   'P 1'
_cell_length_a   10.12691700
_cell_length_b   18.36478400
_cell_length_c   42.41165300
_cell_angle_alpha   90.00000000
_cell_angle_beta   90.00000000
_cell_angle_gamma   90.00000000
_symmetry_Int_Tables_number   1
_chemical_formula_structural   Sr4Mg37
_chemical_formula_sum   'Sr16 Mg148'
_cell_volume   7887.66168467
_cell_formula_units_Z   4
loop_
 _symmetry_equiv_pos_site_id
 _symmetry_equiv_pos_as_xyz
  1  'x, y, z'
loop_
 _atom_site_type_symbol
 _atom_site_label
 _atom_site_symmetry_multiplicity
 _atom_site_fract_x
 _atom_site_fract_y
 _atom_site_fract_z
 _atom_site_occupancy
  Sr  Sr0  1  0.25000000  0.06048600  0.26973700  1
  Sr  Sr1  1  0.75000000  0.39382000  0.26973700  1
  Sr  Sr2  1  0.75000000  0.72715300  0.26973700  1
  Sr  Sr3  1  0.25000000  0.72715300  0.26973700  1
  Sr  Sr4  1  0.25000000  0.56048600  0.39473700  1
  Sr  Sr5  1  0.75000000  0.89382000  0.39473700  1
  Sr  Sr6  1  0.75000000  0.22715300  0.39473700  1
  Sr  Sr7  1  0.25000000  0.22715300  0.39473700  1
  Sr  Sr8  1  0.25000000  0.06048600  0.51973700  1
  Sr  Sr9  1  0.75000000  0.39382000  0.51973700  1
  Sr  Sr10  1  0.75000000  0.72715300  0.51973700  1
  Sr  Sr11  1  0.25000000  0.72715300  0.51973700  1
  Sr  Sr12  1  0.25000000  0.56048600  0.64473700  1
  Sr  Sr13  1  0.75000000  0.89382000  0.64473700  1
  Sr  Sr14  1  0.75000000  0.22715300  0.64473700  1
  Sr  Sr15  1  0.25000000  0.22715300  0.64473700  1
  Mg  Mg16  1  0.97844400  0.80948000  0.20799200  1
  Mg  Mg17  1  0.97844400  0.56250000  0.26973700  1
  Mg  Mg18  1  0.97844400  0.30948000  0.20648200  1
  Mg  Mg19  1  0.47844400  0.64482600  0.20799200  1
  Mg  Mg20  1  0.40189800  0.39382000  0.26973700  1
  Mg  Mg21  1  0.90189800  0.06048600  0.26973700  1
  Mg  Mg22  1  0.59810200  0.06048600  0.26973700  1
  Mg  Mg23  1  0.09810200  0.39382000  0.26973700  1
  Mg  Mg24  1  0.50000000  0.47715300  0.20723700  1
  Mg  Mg25  1  0.00000000  0.97715300  0.20723700  1
  Mg  Mg26  1  1.00000000  0.22715300  0.26973700  1
  Mg  Mg27  1  0.50000000  0.22715300  0.26973700  1
  Mg  Mg28  1  0.50000000  0.97715300  0.20723700  1
  Mg  Mg29  1  1.00000000  0.47715300  0.20723700  1
  Mg  Mg30  1  0.25000000  0.89140400  0.32005800  1
  Mg  Mg31  1  0.75000000  0.90992200  0.23330300  1
  Mg  Mg32  1  0.75000000  0.20863600  0.23149200  1
  Mg  Mg33  1  0.25000000  0.24567000  0.30798200  1
  Mg  Mg34  1  0.25000000  0.54438400  0.30617000  1
  Mg  Mg35  1  0.75000000  0.90992200  0.30617000  1
  Mg  Mg36  1  0.75000000  0.56290200  0.32005800  1
  Mg  Mg37  1  0.75000000  0.56290200  0.21941500  1
  Mg  Mg38  1  0.75000000  0.20863600  0.30798200  1
  Mg  Mg39  1  0.25000000  0.24567000  0.23149200  1
  Mg  Mg40  1  0.25000000  0.54438400  0.23330300  1
  Mg  Mg41  1  0.25000000  0.89140400  0.21941500  1
  Mg  Mg42  1  0.52155600  0.30948000  0.20648200  1
  Mg  Mg43  1  0.02155600  0.89180600  0.26973700  1
  Mg  Mg44  1  0.02155600  0.14482600  0.20648200  1
  Mg  Mg45  1  0.52155600  0.80948000  0.20799200  1
  Mg  Mg46  1  0.52155600  0.56250000  0.26973700  1
  Mg  Mg47  1  0.47844400  0.89180600  0.26973700  1
  Mg  Mg48  1  0.47844400  0.14482600  0.20648200  1
  Mg  Mg49  1  0.02155600  0.64482600  0.20799200  1
  Mg  Mg50  1  0.97844400  0.30948000  0.33299200  1
  Mg  Mg51  1  0.97844400  0.06250000  0.39473700  1
  Mg  Mg52  1  0.97844400  0.80948000  0.33148200  1
  Mg  Mg53  1  0.47844400  0.14482600  0.33299200  1
  Mg  Mg54  1  0.40189800  0.89382000  0.39473700  1
  Mg  Mg55  1  0.90189800  0.56048600  0.39473700  1
  Mg  Mg56  1  0.59810200  0.56048600  0.39473700  1
  Mg  Mg57  1  0.09810200  0.89382000  0.39473700  1
  Mg  Mg58  1  0.50000000  0.97715300  0.33223700  1
  Mg  Mg59  1  1.00000000  0.47715300  0.33223700  1
  Mg  Mg60  1  1.00000000  0.72715300  0.39473700  1
  Mg  Mg61  1  0.50000000  0.72715300  0.39473700  1
  Mg  Mg62  1  0.50000000  0.47715300  0.33223700  1
  Mg  Mg63  1  0.00000000  0.97715300  0.33223700  1
  Mg  Mg64  1  0.25000000  0.39140400  0.44505800  1
  Mg  Mg65  1  0.75000000  0.40992200  0.35830300  1
  Mg  Mg66  1  0.75000000  0.70863600  0.35649200  1
  Mg  Mg67  1  0.25000000  0.74567000  0.43298200  1
  Mg  Mg68  1  0.25000000  0.04438400  0.43117000  1
  Mg  Mg69  1  0.75000000  0.40992200  0.43117000  1
  Mg  Mg70  1  0.75000000  0.06290200  0.44505800  1
  Mg  Mg71  1  0.75000000  0.06290200  0.34441500  1
  Mg  Mg72  1  0.75000000  0.70863600  0.43298200  1
  Mg  Mg73  1  0.25000000  0.74567000  0.35649200  1
  Mg  Mg74  1  0.25000000  0.04438400  0.35830300  1
  Mg  Mg75  1  0.25000000  0.39140400  0.34441500  1
  Mg  Mg76  1  0.52155600  0.80948000  0.33148200  1
  Mg  Mg77  1  0.02155600  0.39180600  0.39473700  1
  Mg  Mg78  1  0.02155600  0.64482600  0.33148200  1
  Mg  Mg79  1  0.52155600  0.30948000  0.33299200  1
  Mg  Mg80  1  0.52155600  0.06250000  0.39473700  1
  Mg  Mg81  1  0.47844400  0.39180600  0.39473700  1
  Mg  Mg82  1  0.47844400  0.64482600  0.33148200  1
  Mg  Mg83  1  0.02155600  0.14482600  0.33299200  1
  Mg  Mg84  1  0.97844400  0.80948000  0.45799200  1
  Mg  Mg85  1  0.97844400  0.56250000  0.51973700  1
  Mg  Mg86  1  0.97844400  0.30948000  0.45648200  1
  Mg  Mg87  1  0.47844400  0.64482600  0.45799200  1
  Mg  Mg88  1  0.40189800  0.39382000  0.51973700  1
  Mg  Mg89  1  0.90189800  0.06048600  0.51973700  1
  Mg  Mg90  1  0.59810200  0.06048600  0.51973700  1
  Mg  Mg91  1  0.09810200  0.39382000  0.51973700  1
  Mg  Mg92  1  0.50000000  0.47715300  0.45723700  1
  Mg  Mg93  1  1.00000000  0.97715300  0.45723700  1
  Mg  Mg94  1  1.00000000  0.22715300  0.51973700  1
  Mg  Mg95  1  0.50000000  0.22715300  0.51973700  1
  Mg  Mg96  1  0.50000000  0.97715300  0.45723700  1
  Mg  Mg97  1  1.00000000  0.47715300  0.45723700  1
  Mg  Mg98  1  0.25000000  0.89140400  0.57005800  1
  Mg  Mg99  1  0.75000000  0.90992200  0.48330300  1
  Mg  Mg100  1  0.75000000  0.20863600  0.48149200  1
  Mg  Mg101  1  0.25000000  0.24567000  0.55798200  1
  Mg  Mg102  1  0.25000000  0.54438400  0.55617000  1
  Mg  Mg103  1  0.75000000  0.90992200  0.55617000  1
  Mg  Mg104  1  0.75000000  0.56290200  0.57005800  1
  Mg  Mg105  1  0.75000000  0.56290200  0.46941500  1
  Mg  Mg106  1  0.75000000  0.20863600  0.55798200  1
  Mg  Mg107  1  0.25000000  0.24567000  0.48149200  1
  Mg  Mg108  1  0.25000000  0.54438400  0.48330300  1
  Mg  Mg109  1  0.25000000  0.89140400  0.46941500  1
  Mg  Mg110  1  0.52155600  0.30948000  0.45648200  1
  Mg  Mg111  1  0.02155600  0.89180600  0.51973700  1
  Mg  Mg112  1  0.02155600  0.14482600  0.45648200  1
  Mg  Mg113  1  0.52155600  0.80948000  0.45799200  1
  Mg  Mg114  1  0.52155600  0.56250000  0.51973700  1
  Mg  Mg115  1  0.47844400  0.89180600  0.51973700  1
  Mg  Mg116  1  0.47844400  0.14482600  0.45648200  1
  Mg  Mg117  1  0.02155600  0.64482600  0.45799200  1
  Mg  Mg118  1  0.97844400  0.30948000  0.58299200  1
  Mg  Mg119  1  0.97844400  0.06250000  0.64473700  1
  Mg  Mg120  1  0.97844400  0.80948000  0.58148200  1
  Mg  Mg121  1  0.47844400  0.14482600  0.58299200  1
  Mg  Mg122  1  0.40189800  0.89382000  0.64473700  1
  Mg  Mg123  1  0.90189800  0.56048600  0.64473700  1
  Mg  Mg124  1  0.59810200  0.56048600  0.64473700  1
  Mg  Mg125  1  0.09810200  0.89382000  0.64473700  1
  Mg  Mg126  1  0.50000000  0.97715300  0.58223700  1
  Mg  Mg127  1  1.00000000  0.47715300  0.58223700  1
  Mg  Mg128  1  1.00000000  0.72715300  0.64473700  1
  Mg  Mg129  1  0.50000000  0.72715300  0.64473700  1
  Mg  Mg130  1  0.50000000  0.47715300  0.58223700  1
  Mg  Mg131  1  1.00000000  0.97715300  0.58223700  1
  Mg  Mg132  1  0.25000000  0.39140400  0.69505800  1
  Mg  Mg133  1  0.75000000  0.40992200  0.60830300  1
  Mg  Mg134  1  0.75000000  0.70863600  0.60649200  1
  Mg  Mg135  1  0.25000000  0.74567000  0.68298200  1
  Mg  Mg136  1  0.25000000  0.04438400  0.68117000  1
  Mg  Mg137  1  0.75000000  0.40992200  0.68117000  1
  Mg  Mg138  1  0.75000000  0.06290200  0.69505800  1
  Mg  Mg139  1  0.75000000  0.06290200  0.59441500  1
  Mg  Mg140  1  0.75000000  0.70863600  0.68298200  1
  Mg  Mg141  1  0.25000000  0.74567000  0.60649200  1
  Mg  Mg142  1  0.25000000  0.04438400  0.60830300  1
  Mg  Mg143  1  0.25000000  0.39140400  0.59441500  1
  Mg  Mg144  1  0.52155600  0.80948000  0.58148200  1
  Mg  Mg145  1  0.02155600  0.39180600  0.64473700  1
  Mg  Mg146  1  0.02155600  0.64482600  0.58148200  1
  Mg  Mg147  1  0.52155600  0.30948000  0.58299200  1
  Mg  Mg148  1  0.52155600  0.06250000  0.64473700  1
  Mg  Mg149  1  0.47844400  0.39180600  0.64473700  1
  Mg  Mg150  1  0.47844400  0.64482600  0.58148200  1
  Mg  Mg151  1  0.02155600  0.14482600  0.58299200  1
  Mg  Mg152  1  0.97844400  0.80948000  0.70799200  1
  Mg  Mg153  1  0.97844400  0.30948000  0.70648200  1
  Mg  Mg154  1  0.47844400  0.64482600  0.70799200  1
  Mg  Mg155  1  0.50000000  0.47715300  0.70723700  1
  Mg  Mg156  1  1.00000000  0.97715300  0.70723700  1
  Mg  Mg157  1  0.50000000  0.97715300  0.70723700  1
  Mg  Mg158  1  1.00000000  0.47715300  0.70723700  1
  Mg  Mg159  1  0.52155600  0.30948000  0.70648200  1
  Mg  Mg160  1  0.02155600  0.14482600  0.70648200  1
  Mg  Mg161  1  0.52155600  0.80948000  0.70799200  1
  Mg  Mg162  1  0.47844400  0.14482600  0.70648200  1
  Mg  Mg163  1  0.02155600  0.64482600  0.70799200  1
