# generated using pymatgen
data_Li11Mg23
_symmetry_space_group_name_H-M   'P 1'
_cell_length_a   3.05132800
_cell_length_b   17.58176747
_cell_length_c   48.62272600
_cell_angle_alpha   93.50325111
_cell_angle_beta   90.00000000
_cell_angle_gamma   90.00000000
_symmetry_Int_Tables_number   1
_chemical_formula_structural   Li11Mg23
_chemical_formula_sum   'Li22 Mg46'
_cell_volume   2603.62491512
_cell_formula_units_Z   2
loop_
 _symmetry_equiv_pos_site_id
 _symmetry_equiv_pos_as_xyz
  1  'x, y, z'
loop_
 _atom_site_type_symbol
 _atom_site_label
 _atom_site_symmetry_multiplicity
 _atom_site_fract_x
 _atom_site_fract_y
 _atom_site_fract_z
 _atom_site_occupancy
  Li  Li0  1  0.50000000  0.96399700  0.27806700  1
  Li  Li1  1  0.00000000  0.66920000  0.25526700  1
  Li  Li2  1  0.50000000  0.06399700  0.37806700  1
  Li  Li3  1  0.00000000  0.76920000  0.35526700  1
  Li  Li4  1  0.00000000  0.51399700  0.32806700  1
  Li  Li5  1  0.50000000  0.21920000  0.30526700  1
  Li  Li6  1  0.50000000  0.16399700  0.47806700  1
  Li  Li7  1  0.00000000  0.86920000  0.45526700  1
  Li  Li8  1  0.00000000  0.61399700  0.42806700  1
  Li  Li9  1  0.50000000  0.31920000  0.40526700  1
  Li  Li10  1  0.50000000  0.26399700  0.57806700  1
  Li  Li11  1  0.00000000  0.96920000  0.55526700  1
  Li  Li12  1  0.00000000  0.71399700  0.52806700  1
  Li  Li13  1  0.50000000  0.41920000  0.50526700  1
  Li  Li14  1  0.50000000  0.36399700  0.67806700  1
  Li  Li15  1  0.00000000  0.06920000  0.65526700  1
  Li  Li16  1  0.00000000  0.81399700  0.62806700  1
  Li  Li17  1  0.50000000  0.51920000  0.60526700  1
  Li  Li18  1  0.50000000  0.46399700  0.77806700  1
  Li  Li19  1  0.00000000  0.16920000  0.75526700  1
  Li  Li20  1  0.00000000  0.91399700  0.72806700  1
  Li  Li21  1  0.50000000  0.61920000  0.70526700  1
  Mg  Mg22  1  0.00000000  0.81277600  0.29486900  1
  Mg  Mg23  1  0.50000000  0.82042200  0.23846400  1
  Mg  Mg24  1  0.50000000  0.26277600  0.24486900  1
  Mg  Mg25  1  0.00000000  0.11261700  0.26155400  1
  Mg  Mg26  1  0.00000000  0.37042200  0.28846400  1
  Mg  Mg27  1  0.50000000  0.52058000  0.27178000  1
  Mg  Mg28  1  1.00000000  0.91277600  0.39486900  1
  Mg  Mg29  1  0.50000000  0.66261700  0.31155400  1
  Mg  Mg30  1  0.50000000  0.92042200  0.33846400  1
  Mg  Mg31  1  1.00000000  0.07058000  0.32178000  1
  Mg  Mg32  1  0.50000000  0.36277600  0.34486900  1
  Mg  Mg33  1  0.00000000  0.21261700  0.36155400  1
  Mg  Mg34  1  1.00000000  0.47042200  0.38846400  1
  Mg  Mg35  1  0.50000000  0.62058000  0.37178000  1
  Mg  Mg36  1  0.00000000  0.01277600  0.49486900  1
  Mg  Mg37  1  0.50000000  0.76261700  0.41155400  1
  Mg  Mg38  1  0.50000000  0.02042200  0.43846400  1
  Mg  Mg39  1  0.00000000  0.17058000  0.42178000  1
  Mg  Mg40  1  0.50000000  0.46277600  0.44486900  1
  Mg  Mg41  1  0.00000000  0.31261700  0.46155400  1
  Mg  Mg42  1  0.00000000  0.57042200  0.48846400  1
  Mg  Mg43  1  0.50000000  0.72058000  0.47178000  1
  Mg  Mg44  1  0.00000000  0.11277600  0.59486900  1
  Mg  Mg45  1  0.50000000  0.86261700  0.51155400  1
  Mg  Mg46  1  0.50000000  0.12042200  0.53846400  1
  Mg  Mg47  1  0.00000000  0.27058000  0.52178000  1
  Mg  Mg48  1  0.50000000  0.56277600  0.54486900  1
  Mg  Mg49  1  0.00000000  0.41261700  0.56155400  1
  Mg  Mg50  1  0.00000000  0.67042200  0.58846400  1
  Mg  Mg51  1  0.50000000  0.82058000  0.57178000  1
  Mg  Mg52  1  0.00000000  0.21277600  0.69486900  1
  Mg  Mg53  1  0.50000000  0.96261700  0.61155400  1
  Mg  Mg54  1  0.50000000  0.22042200  0.63846400  1
  Mg  Mg55  1  0.00000000  0.37058000  0.62178000  1
  Mg  Mg56  1  0.50000000  0.66277600  0.64486900  1
  Mg  Mg57  1  0.00000000  0.51261700  0.66155400  1
  Mg  Mg58  1  0.00000000  0.77042200  0.68846400  1
  Mg  Mg59  1  0.50000000  0.92058000  0.67178000  1
  Mg  Mg60  1  0.00000000  0.31277600  0.79486900  1
  Mg  Mg61  1  0.50000000  0.06261700  0.71155400  1
  Mg  Mg62  1  0.50000000  0.32042200  0.73846400  1
  Mg  Mg63  1  0.00000000  0.47058000  0.72178000  1
  Mg  Mg64  1  0.50000000  0.76277600  0.74486900  1
  Mg  Mg65  1  0.00000000  0.61261700  0.76155400  1
  Mg  Mg66  1  0.00000000  0.87042200  0.78846400  1
  Mg  Mg67  1  0.50000000  0.02058000  0.77178000  1
