# generated using pymatgen
data_Mg19Tl8
_symmetry_space_group_name_H-M   'P 1'
_cell_length_a   9.54566444
_cell_length_b   16.02918063
_cell_length_c   45.11443000
_cell_angle_alpha   88.68557816
_cell_angle_beta   89.47322622
_cell_angle_gamma   74.82313579
_symmetry_Int_Tables_number   1
_chemical_formula_structural   Mg19Tl8
_chemical_formula_sum   'Mg114 Tl48'
_cell_volume   6660.37438527
_cell_formula_units_Z   6
loop_
 _symmetry_equiv_pos_site_id
 _symmetry_equiv_pos_as_xyz
  1  'x, y, z'
loop_
 _atom_site_type_symbol
 _atom_site_label
 _atom_site_symmetry_multiplicity
 _atom_site_fract_x
 _atom_site_fract_y
 _atom_site_fract_z
 _atom_site_occupancy
  Mg  Mg0  1  0.10385200  0.06970700  0.21426300  1
  Mg  Mg1  1  0.63308400  0.17291100  0.29075000  1
  Mg  Mg2  1  0.23894000  0.93473500  0.26428600  1
  Mg  Mg3  1  0.27181100  0.31679900  0.29727300  1
  Mg  Mg4  1  0.27402900  0.39976300  0.21430900  1
  Mg  Mg5  1  0.34479600  0.19655900  0.23782200  1
  Mg  Mg6  1  0.14479600  0.14655900  0.28782200  1
  Mg  Mg7  1  0.83308400  0.22291100  0.24075000  1
  Mg  Mg8  1  0.70606900  0.05267100  0.23129900  1
  Mg  Mg9  1  0.43894000  0.98473500  0.21428600  1
  Mg  Mg10  1  0.40385200  0.51970700  0.26426300  1
  Mg  Mg11  1  0.33308400  0.72291100  0.24075000  1
  Mg  Mg12  1  0.93894000  0.48473500  0.21428600  1
  Mg  Mg13  1  0.97181100  0.86679900  0.24727300  1
  Mg  Mg14  1  0.57402900  0.84976300  0.26430900  1
  Mg  Mg15  1  0.64479600  0.64655900  0.28782200  1
  Mg  Mg16  1  0.84479600  0.69655900  0.23782200  1
  Mg  Mg17  1  0.13308400  0.67291100  0.29075000  1
  Mg  Mg18  1  0.00606900  0.50267100  0.28129900  1
  Mg  Mg19  1  0.73894000  0.43473500  0.26428600  1
  Mg  Mg20  1  0.70385200  0.96970700  0.31426300  1
  Mg  Mg21  1  0.23308400  0.07291100  0.39075000  1
  Mg  Mg22  1  0.83894000  0.83473500  0.36428600  1
  Mg  Mg23  1  0.87181100  0.21679900  0.39727300  1
  Mg  Mg24  1  0.87402900  0.29976300  0.31430900  1
  Mg  Mg25  1  0.94479600  0.09655900  0.33782200  1
  Mg  Mg26  1  0.74479600  0.04655900  0.38782200  1
  Mg  Mg27  1  0.43308400  0.12291100  0.34075000  1
  Mg  Mg28  1  0.30606900  0.95267100  0.33129900  1
  Mg  Mg29  1  0.03894000  0.88473500  0.31428600  1
  Mg  Mg30  1  0.00385200  0.41970700  0.36426300  1
  Mg  Mg31  1  0.93308400  0.62291100  0.34075000  1
  Mg  Mg32  1  0.53894000  0.38473500  0.31428600  1
  Mg  Mg33  1  0.57181100  0.76679900  0.34727300  1
  Mg  Mg34  1  0.17402900  0.74976300  0.36430900  1
  Mg  Mg35  1  0.24479600  0.54655900  0.38782200  1
  Mg  Mg36  1  0.44479600  0.59655900  0.33782200  1
  Mg  Mg37  1  0.73308400  0.57291100  0.39075000  1
  Mg  Mg38  1  0.60606900  0.40267100  0.38129900  1
  Mg  Mg39  1  0.33894000  0.33473500  0.36428600  1
  Mg  Mg40  1  0.30385200  0.86970700  0.41426300  1
  Mg  Mg41  1  0.83308400  0.97291100  0.49075000  1
  Mg  Mg42  1  0.43894000  0.73473500  0.46428600  1
  Mg  Mg43  1  0.47181100  0.11679900  0.49727300  1
  Mg  Mg44  1  0.47402900  0.19976300  0.41430900  1
  Mg  Mg45  1  0.54479600  0.99655900  0.43782200  1
  Mg  Mg46  1  0.34479600  0.94655900  0.48782200  1
  Mg  Mg47  1  0.03308400  0.02291100  0.44075000  1
  Mg  Mg48  1  0.90606900  0.85267100  0.43129900  1
  Mg  Mg49  1  0.63894000  0.78473500  0.41428600  1
  Mg  Mg50  1  0.60385200  0.31970700  0.46426300  1
  Mg  Mg51  1  0.53308400  0.52291100  0.44075000  1
  Mg  Mg52  1  0.13894000  0.28473500  0.41428600  1
  Mg  Mg53  1  0.17181100  0.66679900  0.44727300  1
  Mg  Mg54  1  0.77402900  0.64976300  0.46430900  1
  Mg  Mg55  1  0.84479600  0.44655900  0.48782200  1
  Mg  Mg56  1  0.04479600  0.49655900  0.43782200  1
  Mg  Mg57  1  0.33308400  0.47291100  0.49075000  1
  Mg  Mg58  1  0.20606900  0.30267100  0.48129900  1
  Mg  Mg59  1  0.93894000  0.23473500  0.46428600  1
  Mg  Mg60  1  0.90385200  0.76970700  0.51426300  1
  Mg  Mg61  1  0.43308400  0.87291100  0.59075000  1
  Mg  Mg62  1  0.03894000  0.63473500  0.56428600  1
  Mg  Mg63  1  0.07181100  0.01679900  0.59727300  1
  Mg  Mg64  1  0.07402900  0.09976300  0.51430900  1
  Mg  Mg65  1  0.14479600  0.89655900  0.53782200  1
  Mg  Mg66  1  0.94479600  0.84655900  0.58782200  1
  Mg  Mg67  1  0.63308400  0.92291100  0.54075000  1
  Mg  Mg68  1  0.50606900  0.75267100  0.53129900  1
  Mg  Mg69  1  0.23894000  0.68473500  0.51428600  1
  Mg  Mg70  1  0.20385200  0.21970700  0.56426300  1
  Mg  Mg71  1  0.13308400  0.42291100  0.54075000  1
  Mg  Mg72  1  0.73894000  0.18473500  0.51428600  1
  Mg  Mg73  1  0.77181100  0.56679900  0.54727300  1
  Mg  Mg74  1  0.37402900  0.54976300  0.56430900  1
  Mg  Mg75  1  0.44479600  0.34655900  0.58782200  1
  Mg  Mg76  1  0.64479600  0.39655900  0.53782200  1
  Mg  Mg77  1  0.93308400  0.37291100  0.59075000  1
  Mg  Mg78  1  0.80606900  0.20267100  0.58129900  1
  Mg  Mg79  1  0.53894000  0.13473500  0.56428600  1
  Mg  Mg80  1  0.50385200  0.66970700  0.61426300  1
  Mg  Mg81  1  0.03308400  0.77291100  0.69075000  1
  Mg  Mg82  1  0.63894000  0.53473500  0.66428600  1
  Mg  Mg83  1  0.67181100  0.91679900  0.69727300  1
  Mg  Mg84  1  0.67402900  0.99976300  0.61430900  1
  Mg  Mg85  1  0.74479600  0.79655900  0.63782200  1
  Mg  Mg86  1  0.54479600  0.74655900  0.68782200  1
  Mg  Mg87  1  0.23308400  0.82291100  0.64075000  1
  Mg  Mg88  1  0.10606900  0.65267100  0.63129900  1
  Mg  Mg89  1  0.83894000  0.58473500  0.61428600  1
  Mg  Mg90  1  0.80385200  0.11970700  0.66426300  1
  Mg  Mg91  1  0.73308400  0.32291100  0.64075000  1
  Mg  Mg92  1  0.33894000  0.08473500  0.61428600  1
  Mg  Mg93  1  0.37181100  0.46679900  0.64727300  1
  Mg  Mg94  1  0.97402900  0.44976300  0.66430900  1
  Mg  Mg95  1  0.04479600  0.24655900  0.68782200  1
  Mg  Mg96  1  0.24479600  0.29655900  0.63782200  1
  Mg  Mg97  1  0.53308400  0.27291100  0.69075000  1
  Mg  Mg98  1  0.40606900  0.10267100  0.68129900  1
  Mg  Mg99  1  0.13894000  0.03473500  0.66428600  1
  Mg  Mg100  1  0.10385200  0.56970700  0.71426300  1
  Mg  Mg101  1  0.23894000  0.43473500  0.76428600  1
  Mg  Mg102  1  0.27402900  0.89976300  0.71430900  1
  Mg  Mg103  1  0.34479600  0.69655900  0.73782200  1
  Mg  Mg104  1  0.83308400  0.72291100  0.74075000  1
  Mg  Mg105  1  0.70606900  0.55267100  0.73129900  1
  Mg  Mg106  1  0.43894000  0.48473500  0.71428600  1
  Mg  Mg107  1  0.40385200  0.01970700  0.76426300  1
  Mg  Mg108  1  0.33308400  0.22291100  0.74075000  1
  Mg  Mg109  1  0.93894000  0.98473500  0.71428600  1
  Mg  Mg110  1  0.97181100  0.36679900  0.74727300  1
  Mg  Mg111  1  0.57402900  0.34976300  0.76430900  1
  Mg  Mg112  1  0.84479600  0.19655900  0.73782200  1
  Mg  Mg113  1  0.73894000  0.93473500  0.76428600  1
  Tl  Tl114  1  0.52967000  0.32642200  0.25076900  1
  Tl  Tl115  1  0.93220600  0.04571600  0.27513500  1
  Tl  Tl116  1  0.04567500  0.32375400  0.25343600  1
  Tl  Tl117  1  0.44821100  0.04304900  0.27780300  1
  Tl  Tl118  1  0.22967000  0.87642200  0.20076900  1
  Tl  Tl119  1  0.63220600  0.59571600  0.22513500  1
  Tl  Tl120  1  0.74567500  0.87375400  0.20343600  1
  Tl  Tl121  1  0.14821100  0.59304900  0.22780300  1
  Tl  Tl122  1  0.12967000  0.22642200  0.35076900  1
  Tl  Tl123  1  0.53220600  0.94571600  0.37513500  1
  Tl  Tl124  1  0.64567500  0.22375400  0.35343600  1
  Tl  Tl125  1  0.04821100  0.94304900  0.37780300  1
  Tl  Tl126  1  0.82967000  0.77642200  0.30076900  1
  Tl  Tl127  1  0.23220600  0.49571600  0.32513500  1
  Tl  Tl128  1  0.34567500  0.77375400  0.30343600  1
  Tl  Tl129  1  0.74821100  0.49304900  0.32780300  1
  Tl  Tl130  1  0.72967000  0.12642200  0.45076900  1
  Tl  Tl131  1  0.13220600  0.84571600  0.47513500  1
  Tl  Tl132  1  0.24567500  0.12375400  0.45343600  1
  Tl  Tl133  1  0.64821100  0.84304900  0.47780300  1
  Tl  Tl134  1  0.42967000  0.67642200  0.40076900  1
  Tl  Tl135  1  0.83220600  0.39571600  0.42513500  1
  Tl  Tl136  1  0.94567500  0.67375400  0.40343600  1
  Tl  Tl137  1  0.34821100  0.39304900  0.42780300  1
  Tl  Tl138  1  0.32967000  0.02642200  0.55076900  1
  Tl  Tl139  1  0.73220600  0.74571600  0.57513500  1
  Tl  Tl140  1  0.84567500  0.02375400  0.55343600  1
  Tl  Tl141  1  0.24821100  0.74304900  0.57780300  1
  Tl  Tl142  1  0.02967000  0.57642200  0.50076900  1
  Tl  Tl143  1  0.43220600  0.29571600  0.52513500  1
  Tl  Tl144  1  0.54567500  0.57375400  0.50343600  1
  Tl  Tl145  1  0.94821100  0.29304900  0.52780300  1
  Tl  Tl146  1  0.92967000  0.92642200  0.65076900  1
  Tl  Tl147  1  0.33220600  0.64571600  0.67513500  1
  Tl  Tl148  1  0.44567500  0.92375400  0.65343600  1
  Tl  Tl149  1  0.84821100  0.64304900  0.67780300  1
  Tl  Tl150  1  0.62967000  0.47642200  0.60076900  1
  Tl  Tl151  1  0.03220600  0.19571600  0.62513500  1
  Tl  Tl152  1  0.14567500  0.47375400  0.60343600  1
  Tl  Tl153  1  0.54821100  0.19304900  0.62780300  1
  Tl  Tl154  1  0.52967000  0.82642200  0.75076900  1
  Tl  Tl155  1  0.93220600  0.54571600  0.77513500  1
  Tl  Tl156  1  0.04567500  0.82375400  0.75343600  1
  Tl  Tl157  1  0.44821100  0.54304900  0.77780300  1
  Tl  Tl158  1  0.22967000  0.37642200  0.70076900  1
  Tl  Tl159  1  0.63220600  0.09571600  0.72513500  1
  Tl  Tl160  1  0.74567500  0.37375400  0.70343600  1
  Tl  Tl161  1  0.14821100  0.09304900  0.72780300  1
