# generated using pymatgen
data_MgPd2
_symmetry_space_group_name_H-M   'P 1'
_cell_length_a   5.53884600
_cell_length_b   9.19052430
_cell_length_c   44.98568600
_cell_angle_alpha   95.80261083
_cell_angle_beta   90.00000000
_cell_angle_gamma   90.00000000
_symmetry_Int_Tables_number   1
_chemical_formula_structural   MgPd2
_chemical_formula_sum   'Mg28 Pd56'
_cell_volume   2278.25810925
_cell_formula_units_Z   28
loop_
 _symmetry_equiv_pos_site_id
 _symmetry_equiv_pos_as_xyz
  1  'x, y, z'
loop_
 _atom_site_type_symbol
 _atom_site_label
 _atom_site_symmetry_multiplicity
 _atom_site_fract_x
 _atom_site_fract_y
 _atom_site_fract_z
 _atom_site_occupancy
  Mg  Mg0  1  0.16860900  0.37643900  0.22097700  1
  Mg  Mg1  1  0.83139100  0.45689500  0.27902300  1
  Mg  Mg2  1  0.66860900  0.95689500  0.27902300  1
  Mg  Mg3  1  0.33139100  0.87643900  0.22097700  1
  Mg  Mg4  1  0.16860900  0.20977200  0.30431100  1
  Mg  Mg5  1  0.83139100  0.29022800  0.36235600  1
  Mg  Mg6  1  0.66860900  0.79022800  0.36235600  1
  Mg  Mg7  1  0.33139100  0.70977200  0.30431100  1
  Mg  Mg8  1  0.16860900  0.04310500  0.38764400  1
  Mg  Mg9  1  0.83139100  0.12356100  0.44568900  1
  Mg  Mg10  1  0.66860900  0.62356100  0.44568900  1
  Mg  Mg11  1  0.33139100  0.54310500  0.38764400  1
  Mg  Mg12  1  0.16860900  0.87643900  0.47097700  1
  Mg  Mg13  1  0.83139100  0.95689500  0.52902300  1
  Mg  Mg14  1  0.66860900  0.45689500  0.52902300  1
  Mg  Mg15  1  0.33139100  0.37643900  0.47097700  1
  Mg  Mg16  1  0.16860900  0.70977200  0.55431100  1
  Mg  Mg17  1  0.83139100  0.79022800  0.61235600  1
  Mg  Mg18  1  0.66860900  0.29022800  0.61235600  1
  Mg  Mg19  1  0.33139100  0.20977200  0.55431100  1
  Mg  Mg20  1  0.16860900  0.54310500  0.63764400  1
  Mg  Mg21  1  0.83139100  0.62356100  0.69568900  1
  Mg  Mg22  1  0.66860900  0.12356100  0.69568900  1
  Mg  Mg23  1  0.33139100  0.04310500  0.63764400  1
  Mg  Mg24  1  0.16860900  0.37643900  0.72097700  1
  Mg  Mg25  1  0.83139100  0.45689500  0.77902300  1
  Mg  Mg26  1  0.66860900  0.95689500  0.77902300  1
  Mg  Mg27  1  0.33139100  0.87643900  0.72097700  1
  Pd  Pd28  1  0.15889900  0.93551800  0.27688500  1
  Pd  Pd29  1  0.84110100  0.89781600  0.22311500  1
  Pd  Pd30  1  0.65889900  0.39781600  0.22311500  1
  Pd  Pd31  1  0.34110100  0.43551800  0.27688500  1
  Pd  Pd32  1  0.06807400  0.65490600  0.24882400  1
  Pd  Pd33  1  0.93192600  0.17842800  0.25117600  1
  Pd  Pd34  1  0.56807400  0.67842800  0.25117600  1
  Pd  Pd35  1  0.43192600  0.15490600  0.24882400  1
  Pd  Pd36  1  0.15889900  0.76885100  0.36021800  1
  Pd  Pd37  1  0.84110100  0.73114900  0.30644800  1
  Pd  Pd38  1  0.65889900  0.23114900  0.30644800  1
  Pd  Pd39  1  0.34110100  0.26885100  0.36021800  1
  Pd  Pd40  1  0.06807400  0.48823900  0.33215700  1
  Pd  Pd41  1  0.93192600  0.01176100  0.33450900  1
  Pd  Pd42  1  0.56807400  0.51176100  0.33450900  1
  Pd  Pd43  1  0.43192600  0.98823900  0.33215700  1
  Pd  Pd44  1  0.15889900  0.60218400  0.44355200  1
  Pd  Pd45  1  0.84110100  0.56448200  0.38978200  1
  Pd  Pd46  1  0.65889900  0.06448200  0.38978200  1
  Pd  Pd47  1  0.34110100  0.10218400  0.44355200  1
  Pd  Pd48  1  0.06807400  0.32157200  0.41549100  1
  Pd  Pd49  1  0.93192600  0.84509400  0.41784300  1
  Pd  Pd50  1  0.56807400  0.34509400  0.41784300  1
  Pd  Pd51  1  0.43192600  0.82157200  0.41549100  1
  Pd  Pd52  1  0.15889900  0.43551800  0.52688500  1
  Pd  Pd53  1  0.84110100  0.39781600  0.47311500  1
  Pd  Pd54  1  0.65889900  0.89781600  0.47311500  1
  Pd  Pd55  1  0.34110100  0.93551800  0.52688500  1
  Pd  Pd56  1  0.06807400  0.15490600  0.49882400  1
  Pd  Pd57  1  0.93192600  0.67842800  0.50117600  1
  Pd  Pd58  1  0.56807400  0.17842800  0.50117600  1
  Pd  Pd59  1  0.43192600  0.65490600  0.49882400  1
  Pd  Pd60  1  0.15889900  0.26885100  0.61021800  1
  Pd  Pd61  1  0.84110100  0.23114900  0.55644800  1
  Pd  Pd62  1  0.65889900  0.73114900  0.55644800  1
  Pd  Pd63  1  0.34110100  0.76885100  0.61021800  1
  Pd  Pd64  1  0.06807400  0.98823900  0.58215700  1
  Pd  Pd65  1  0.93192600  0.51176100  0.58450900  1
  Pd  Pd66  1  0.56807400  0.01176100  0.58450900  1
  Pd  Pd67  1  0.43192600  0.48823900  0.58215700  1
  Pd  Pd68  1  0.15889900  0.10218400  0.69355200  1
  Pd  Pd69  1  0.84110100  0.06448200  0.63978200  1
  Pd  Pd70  1  0.65889900  0.56448200  0.63978200  1
  Pd  Pd71  1  0.34110100  0.60218400  0.69355200  1
  Pd  Pd72  1  0.06807400  0.82157200  0.66549100  1
  Pd  Pd73  1  0.93192600  0.34509400  0.66784300  1
  Pd  Pd74  1  0.56807400  0.84509400  0.66784300  1
  Pd  Pd75  1  0.43192600  0.32157200  0.66549100  1
  Pd  Pd76  1  0.15889900  0.93551800  0.77688500  1
  Pd  Pd77  1  0.84110100  0.89781600  0.72311500  1
  Pd  Pd78  1  0.65889900  0.39781600  0.72311500  1
  Pd  Pd79  1  0.34110100  0.43551800  0.77688500  1
  Pd  Pd80  1  0.06807400  0.65490600  0.74882400  1
  Pd  Pd81  1  0.93192600  0.17842800  0.75117600  1
  Pd  Pd82  1  0.56807400  0.67842800  0.75117600  1
  Pd  Pd83  1  0.43192600  0.15490600  0.74882400  1
