# generated using pymatgen
data_Mg116Zn205
_symmetry_space_group_name_H-M   'P 1'
_cell_length_a   13.26606221
_cell_length_b   15.53344873
_cell_length_c   48.04736100
_cell_angle_alpha   89.05057746
_cell_angle_beta   95.72936823
_cell_angle_gamma   107.07914806
_symmetry_Int_Tables_number   1
_chemical_formula_structural   Mg116Zn205
_chemical_formula_sum   'Mg116 Zn205'
_cell_volume   9416.24909417
_cell_formula_units_Z   1
loop_
 _symmetry_equiv_pos_site_id
 _symmetry_equiv_pos_as_xyz
  1  'x, y, z'
loop_
 _atom_site_type_symbol
 _atom_site_label
 _atom_site_symmetry_multiplicity
 _atom_site_fract_x
 _atom_site_fract_y
 _atom_site_fract_z
 _atom_site_occupancy
  Mg  Mg0  1  0.06923400  0.75428400  0.24071000  1
  Mg  Mg1  1  0.88387300  0.01309200  0.25652400  1
  Mg  Mg2  1  0.96931900  0.69866200  0.29635800  1
  Mg  Mg3  1  0.57175100  0.11190600  0.28370400  1
  Mg  Mg4  1  0.71853500  0.66331100  0.28661800  1
  Mg  Mg5  1  0.11612700  0.10357000  0.25983900  1
  Mg  Mg6  1  0.64336400  0.69914700  0.22281400  1
  Mg  Mg7  1  0.03068100  0.41800000  0.22000600  1
  Mg  Mg8  1  0.35663600  0.41751500  0.29355000  1
  Mg  Mg9  1  0.01360900  0.92357200  0.21851100  1
  Mg  Mg10  1  0.68159700  0.31849500  0.26717500  1
  Mg  Mg11  1  0.31840300  0.79816700  0.24918900  1
  Mg  Mg12  1  0.28146500  0.45335100  0.22974600  1
  Mg  Mg13  1  0.42824900  0.00475600  0.23266000  1
  Mg  Mg14  1  0.93076600  0.36237800  0.27565400  1
  Mg  Mg15  1  0.98639100  0.19309000  0.29785200  1
  Mg  Mg16  1  0.74900600  0.00574900  0.30578000  1
  Mg  Mg17  1  0.06923400  0.85428400  0.34071000  1
  Mg  Mg18  1  0.60977900  0.45545100  0.30298500  1
  Mg  Mg19  1  0.88387300  0.11309200  0.35652400  1
  Mg  Mg20  1  0.96931900  0.79866200  0.39635800  1
  Mg  Mg21  1  0.57175100  0.21190600  0.38370400  1
  Mg  Mg22  1  0.71853500  0.76331100  0.38661800  1
  Mg  Mg23  1  0.11612700  0.20357000  0.35983900  1
  Mg  Mg24  1  0.64336400  0.79914700  0.32281400  1
  Mg  Mg25  1  0.03068100  0.51800000  0.32000600  1
  Mg  Mg26  1  0.39022100  0.76121000  0.31337900  1
  Mg  Mg27  1  0.35663600  0.51751500  0.39355000  1
  Mg  Mg28  1  0.01360900  0.02357200  0.31851100  1
  Mg  Mg29  1  0.68159700  0.41849500  0.36717500  1
  Mg  Mg30  1  0.31840300  0.89816700  0.34918900  1
  Mg  Mg31  1  0.28146500  0.55335100  0.32974600  1
  Mg  Mg32  1  0.25099400  0.21091200  0.31058400  1
  Mg  Mg33  1  0.42824900  0.10475600  0.33266000  1
  Mg  Mg34  1  0.93076600  0.46237800  0.37565400  1
  Mg  Mg35  1  0.98639100  0.29309000  0.39785200  1
  Mg  Mg36  1  0.74900600  0.10574900  0.40578000  1
  Mg  Mg37  1  0.06923400  0.95428400  0.44071000  1
  Mg  Mg38  1  0.60977900  0.55545100  0.40298500  1
  Mg  Mg39  1  0.88387300  0.21309200  0.45652400  1
  Mg  Mg40  1  0.96931900  0.89866200  0.49635800  1
  Mg  Mg41  1  0.57175100  0.31190600  0.48370400  1
  Mg  Mg42  1  0.71853500  0.86331100  0.48661800  1
  Mg  Mg43  1  0.11612700  0.30357000  0.45983900  1
  Mg  Mg44  1  0.64336400  0.89914700  0.42281400  1
  Mg  Mg45  1  0.03068100  0.61800000  0.42000600  1
  Mg  Mg46  1  0.39022100  0.86121000  0.41337900  1
  Mg  Mg47  1  0.35663600  0.61751500  0.49355000  1
  Mg  Mg48  1  0.01360900  0.12357200  0.41851100  1
  Mg  Mg49  1  0.68159700  0.51849500  0.46717500  1
  Mg  Mg50  1  0.31840300  0.99816700  0.44918900  1
  Mg  Mg51  1  0.28146500  0.65335100  0.42974600  1
  Mg  Mg52  1  0.25099400  0.31091200  0.41058400  1
  Mg  Mg53  1  0.42824900  0.20475600  0.43266000  1
  Mg  Mg54  1  0.93076600  0.56237800  0.47565400  1
  Mg  Mg55  1  0.98639100  0.39309000  0.49785200  1
  Mg  Mg56  1  0.74900600  0.20574900  0.50578000  1
  Mg  Mg57  1  0.06923400  0.05428400  0.54071000  1
  Mg  Mg58  1  0.60977900  0.65545100  0.50298500  1
  Mg  Mg59  1  0.88387300  0.31309200  0.55652400  1
  Mg  Mg60  1  0.96931900  0.99866200  0.59635800  1
  Mg  Mg61  1  0.57175100  0.41190600  0.58370400  1
  Mg  Mg62  1  0.71853500  0.96331100  0.58661800  1
  Mg  Mg63  1  0.11612700  0.40357000  0.55983900  1
  Mg  Mg64  1  0.64336400  0.99914700  0.52281400  1
  Mg  Mg65  1  0.03068100  0.71800000  0.52000600  1
  Mg  Mg66  1  0.39022100  0.96121000  0.51337900  1
  Mg  Mg67  1  0.35663600  0.71751500  0.59355000  1
  Mg  Mg68  1  0.01360900  0.22357200  0.51851100  1
  Mg  Mg69  1  0.68159700  0.61849500  0.56717500  1
  Mg  Mg70  1  0.31840300  0.09816700  0.54918900  1
  Mg  Mg71  1  0.28146500  0.75335100  0.52974600  1
  Mg  Mg72  1  0.25099400  0.41091200  0.51058400  1
  Mg  Mg73  1  0.42824900  0.30475600  0.53266000  1
  Mg  Mg74  1  0.93076600  0.66237800  0.57565400  1
  Mg  Mg75  1  0.98639100  0.49309000  0.59785200  1
  Mg  Mg76  1  0.74900600  0.30574900  0.60578000  1
  Mg  Mg77  1  0.06923400  0.15428400  0.64071000  1
  Mg  Mg78  1  0.60977900  0.75545100  0.60298500  1
  Mg  Mg79  1  0.88387300  0.41309200  0.65652400  1
  Mg  Mg80  1  0.96931900  0.09866200  0.69635800  1
  Mg  Mg81  1  0.57175100  0.51190600  0.68370400  1
  Mg  Mg82  1  0.71853500  0.06331100  0.68661800  1
  Mg  Mg83  1  0.11612700  0.50357000  0.65983900  1
  Mg  Mg84  1  0.64336400  0.09914700  0.62281400  1
  Mg  Mg85  1  0.03068100  0.81800000  0.62000600  1
  Mg  Mg86  1  0.39022100  0.06121000  0.61337900  1
  Mg  Mg87  1  0.35663600  0.81751500  0.69355000  1
  Mg  Mg88  1  0.01360900  0.32357200  0.61851100  1
  Mg  Mg89  1  0.68159700  0.71849500  0.66717500  1
  Mg  Mg90  1  0.31840300  0.19816700  0.64918900  1
  Mg  Mg91  1  0.28146500  0.85335100  0.62974600  1
  Mg  Mg92  1  0.25099400  0.51091200  0.61058400  1
  Mg  Mg93  1  0.42824900  0.40475600  0.63266000  1
  Mg  Mg94  1  0.93076600  0.76237800  0.67565400  1
  Mg  Mg95  1  0.98639100  0.59309000  0.69785200  1
  Mg  Mg96  1  0.74900600  0.40574900  0.70578000  1
  Mg  Mg97  1  0.06923400  0.25428400  0.74071000  1
  Mg  Mg98  1  0.60977900  0.85545100  0.70298500  1
  Mg  Mg99  1  0.88387300  0.51309200  0.75652400  1
  Mg  Mg100  1  0.96931900  0.19866200  0.79635800  1
  Mg  Mg101  1  0.57175100  0.61190600  0.78370400  1
  Mg  Mg102  1  0.71853500  0.16331100  0.78661800  1
  Mg  Mg103  1  0.11612700  0.60357000  0.75983900  1
  Mg  Mg104  1  0.64336400  0.19914700  0.72281400  1
  Mg  Mg105  1  0.03068100  0.91800000  0.72000600  1
  Mg  Mg106  1  0.39022100  0.16121000  0.71337900  1
  Mg  Mg107  1  0.35663600  0.91751500  0.79355000  1
  Mg  Mg108  1  0.01360900  0.42357200  0.71851100  1
  Mg  Mg109  1  0.68159700  0.81849500  0.76717500  1
  Mg  Mg110  1  0.31840300  0.29816700  0.74918900  1
  Mg  Mg111  1  0.28146500  0.95335100  0.72974600  1
  Mg  Mg112  1  0.25099400  0.61091200  0.71058400  1
  Mg  Mg113  1  0.42824900  0.50475600  0.73266000  1
  Mg  Mg114  1  0.93076600  0.86237800  0.77565400  1
  Mg  Mg115  1  0.98639100  0.69309000  0.79785200  1
  Zn  Zn116  1  0.84920500  0.63426200  0.24182300  1
  Zn  Zn117  1  0.03575800  0.89584000  0.27830400  1
  Zn  Zn118  1  0.51358900  0.73022600  0.26722500  1
  Zn  Zn119  1  0.14473200  0.31410800  0.26564800  1
  Zn  Zn120  1  0.17856500  0.66183100  0.28491800  1
  Zn  Zn121  1  0.15079500  0.48240000  0.27454000  1
  Zn  Zn122  1  0.37496700  0.95361400  0.29055900  1
  Zn  Zn123  1  0.82105800  0.50535100  0.28207900  1
  Zn  Zn124  1  0.53087400  0.90224400  0.27761900  1
  Zn  Zn125  1  0.65881200  0.00823600  0.24489000  1
  Zn  Zn126  1  0.66294100  0.51119500  0.24464700  1
  Zn  Zn127  1  0.80881900  0.28908100  0.22131000  1
  Zn  Zn128  1  0.96424200  0.22082100  0.23806000  1
  Zn  Zn129  1  0.62503300  0.16304700  0.22580500  1
  Zn  Zn130  1  0.17894200  0.61131100  0.23428400  1
  Zn  Zn131  1  0.33705900  0.60546600  0.27171600  1
  Zn  Zn132  1  0.82143500  0.45483100  0.23144600  1
  Zn  Zn133  1  0.50000000  0.55833100  0.25818200  1
  Zn  Zn134  1  0.69712500  0.84982600  0.26513900  1
  Zn  Zn135  1  0.52936800  0.85223600  0.22708500  1
  Zn  Zn136  1  0.79093800  0.16135700  0.26337000  1
  Zn  Zn137  1  0.30287500  0.26683600  0.25122400  1
  Zn  Zn138  1  0.20906200  0.95530500  0.25299400  1
  Zn  Zn139  1  0.19118100  0.82758000  0.29505400  1
  Zn  Zn140  1  0.47063200  0.26442600  0.28927900  1
  Zn  Zn141  1  0.85526800  0.80255400  0.25071600  1
  Zn  Zn142  1  0.00000000  0.55833100  0.25818200  1
  Zn  Zn143  1  0.46912600  0.21441800  0.23874500  1
  Zn  Zn144  1  0.34118800  0.10842600  0.27147300  1
  Zn  Zn145  1  0.48641100  0.38643600  0.24913900  1
  Zn  Zn146  1  0.84920500  0.73426200  0.34182300  1
  Zn  Zn147  1  0.03575800  0.99584000  0.37830400  1
  Zn  Zn148  1  0.51358900  0.83022600  0.36722500  1
  Zn  Zn149  1  0.14473200  0.41410800  0.36564800  1
  Zn  Zn150  1  0.17856500  0.76183100  0.38491800  1
  Zn  Zn151  1  0.85936100  0.85201600  0.30139800  1
  Zn  Zn152  1  0.50000000  0.60833100  0.30818200  1
  Zn  Zn153  1  0.15079500  0.58240000  0.37454000  1
  Zn  Zn154  1  0.37496700  0.05361400  0.39055900  1
  Zn  Zn155  1  0.82105800  0.60535100  0.38207900  1
  Zn  Zn156  1  0.53087400  0.00224400  0.37761900  1
  Zn  Zn157  1  0.65881200  0.10823600  0.34489000  1
  Zn  Zn158  1  0.66294100  0.61119500  0.34464700  1
  Zn  Zn159  1  0.80881900  0.38908100  0.32131000  1
  Zn  Zn160  1  0.96424200  0.32082100  0.33806000  1
  Zn  Zn161  1  0.62503300  0.26304700  0.32580500  1
  Zn  Zn162  1  0.78829600  0.21152200  0.31171600  1
  Zn  Zn163  1  0.17894200  0.71131100  0.33428400  1
  Zn  Zn164  1  0.14063900  0.36464600  0.31496500  1
  Zn  Zn165  1  0.33705900  0.70546600  0.37171600  1
  Zn  Zn166  1  0.21170400  0.00514000  0.30464800  1
  Zn  Zn167  1  0.82143500  0.55483100  0.33144600  1
  Zn  Zn168  1  0.50000000  0.65833100  0.35818200  1
  Zn  Zn169  1  0.69712500  0.94982600  0.36513900  1
  Zn  Zn170  1  0.52936800  0.95223600  0.32708500  1
  Zn  Zn171  1  0.79093800  0.26135700  0.36337000  1
  Zn  Zn172  1  0.30287500  0.36683600  0.35122400  1
  Zn  Zn173  1  0.20906200  0.05530500  0.35299400  1
  Zn  Zn174  1  0.19118100  0.92758000  0.39505400  1
  Zn  Zn175  1  0.47063200  0.36442600  0.38927900  1
  Zn  Zn176  1  0.85526800  0.90255400  0.35071600  1
  Zn  Zn177  1  0.00000000  0.65833100  0.35818200  1
  Zn  Zn178  1  0.46912600  0.31441800  0.33874500  1
  Zn  Zn179  1  0.34118800  0.20842600  0.37147300  1
  Zn  Zn180  1  0.48641100  0.48643600  0.34913900  1
  Zn  Zn181  1  0.84920500  0.83426200  0.44182300  1
  Zn  Zn182  1  0.03575800  0.09584000  0.47830400  1
  Zn  Zn183  1  0.51358900  0.93022600  0.46722500  1
  Zn  Zn184  1  0.14473200  0.51410800  0.46564800  1
  Zn  Zn185  1  0.17856500  0.86183100  0.48491800  1
  Zn  Zn186  1  0.85936100  0.95201600  0.40139800  1
  Zn  Zn187  1  0.50000000  0.70833100  0.40818200  1
  Zn  Zn188  1  0.15079500  0.68240000  0.47454000  1
  Zn  Zn189  1  0.37496700  0.15361400  0.49055900  1
  Zn  Zn190  1  0.82105800  0.70535100  0.48207900  1
  Zn  Zn191  1  0.53087400  0.10224400  0.47761900  1
  Zn  Zn192  1  0.65881200  0.20823600  0.44489000  1
  Zn  Zn193  1  0.66294100  0.71119500  0.44464700  1
  Zn  Zn194  1  0.80881900  0.48908100  0.42131000  1
  Zn  Zn195  1  0.96424200  0.42082100  0.43806000  1
  Zn  Zn196  1  0.62503300  0.36304700  0.42580500  1
  Zn  Zn197  1  0.78829600  0.31152200  0.41171600  1
  Zn  Zn198  1  0.17894200  0.81131100  0.43428400  1
  Zn  Zn199  1  0.14063900  0.46464600  0.41496500  1
  Zn  Zn200  1  0.33705900  0.80546600  0.47171600  1
  Zn  Zn201  1  0.21170400  0.10514000  0.40464800  1
  Zn  Zn202  1  0.82143500  0.65483100  0.43144600  1
  Zn  Zn203  1  0.50000000  0.75833100  0.45818200  1
  Zn  Zn204  1  0.69712500  0.04982600  0.46513900  1
  Zn  Zn205  1  0.52936800  0.05223600  0.42708500  1
  Zn  Zn206  1  0.79093800  0.36135700  0.46337000  1
  Zn  Zn207  1  0.30287500  0.46683600  0.45122400  1
  Zn  Zn208  1  0.20906200  0.15530500  0.45299400  1
  Zn  Zn209  1  0.19118100  0.02758000  0.49505400  1
  Zn  Zn210  1  0.47063200  0.46442600  0.48927900  1
  Zn  Zn211  1  0.85526800  0.00255400  0.45071600  1
  Zn  Zn212  1  0.00000000  0.75833100  0.45818200  1
  Zn  Zn213  1  0.46912600  0.41441800  0.43874500  1
  Zn  Zn214  1  0.34118800  0.30842600  0.47147300  1
  Zn  Zn215  1  0.48641100  0.58643600  0.44913900  1
  Zn  Zn216  1  0.84920500  0.93426200  0.54182300  1
  Zn  Zn217  1  0.03575800  0.19584000  0.57830400  1
  Zn  Zn218  1  0.51358900  0.03022600  0.56722500  1
  Zn  Zn219  1  0.14473200  0.61410800  0.56564800  1
  Zn  Zn220  1  0.17856500  0.96183100  0.58491800  1
  Zn  Zn221  1  0.85936100  0.05201600  0.50139800  1
  Zn  Zn222  1  0.50000000  0.80833100  0.50818200  1
  Zn  Zn223  1  0.15079500  0.78240000  0.57454000  1
  Zn  Zn224  1  0.37496700  0.25361400  0.59055900  1
  Zn  Zn225  1  0.82105800  0.80535100  0.58207900  1
  Zn  Zn226  1  0.53087400  0.20224400  0.57761900  1
  Zn  Zn227  1  0.65881200  0.30823600  0.54489000  1
  Zn  Zn228  1  0.66294100  0.81119500  0.54464700  1
  Zn  Zn229  1  0.80881900  0.58908100  0.52131000  1
  Zn  Zn230  1  0.96424200  0.52082100  0.53806000  1
  Zn  Zn231  1  0.62503300  0.46304700  0.52580500  1
  Zn  Zn232  1  0.78829600  0.41152200  0.51171600  1
  Zn  Zn233  1  0.17894200  0.91131100  0.53428400  1
  Zn  Zn234  1  0.14063900  0.56464600  0.51496500  1
  Zn  Zn235  1  0.33705900  0.90546600  0.57171600  1
  Zn  Zn236  1  0.21170400  0.20514000  0.50464800  1
  Zn  Zn237  1  0.82143500  0.75483100  0.53144600  1
  Zn  Zn238  1  0.50000000  0.85833100  0.55818200  1
  Zn  Zn239  1  0.69712500  0.14982600  0.56513900  1
  Zn  Zn240  1  0.52936800  0.15223600  0.52708500  1
  Zn  Zn241  1  0.79093800  0.46135700  0.56337000  1
  Zn  Zn242  1  0.30287500  0.56683600  0.55122400  1
  Zn  Zn243  1  0.20906200  0.25530500  0.55299400  1
  Zn  Zn244  1  0.19118100  0.12758000  0.59505400  1
  Zn  Zn245  1  0.47063200  0.56442600  0.58927900  1
  Zn  Zn246  1  0.85526800  0.10255400  0.55071600  1
  Zn  Zn247  1  0.00000000  0.85833100  0.55818200  1
  Zn  Zn248  1  0.46912600  0.51441800  0.53874500  1
  Zn  Zn249  1  0.34118800  0.40842600  0.57147300  1
  Zn  Zn250  1  0.48641100  0.68643600  0.54913900  1
  Zn  Zn251  1  0.84920500  0.03426200  0.64182300  1
  Zn  Zn252  1  0.03575800  0.29584000  0.67830400  1
  Zn  Zn253  1  0.51358900  0.13022600  0.66722500  1
  Zn  Zn254  1  0.14473200  0.71410800  0.66564800  1
  Zn  Zn255  1  0.17856500  0.06183100  0.68491800  1
  Zn  Zn256  1  0.85936100  0.15201600  0.60139800  1
  Zn  Zn257  1  0.50000000  0.90833100  0.60818200  1
  Zn  Zn258  1  0.15079500  0.88240000  0.67454000  1
  Zn  Zn259  1  0.37496700  0.35361400  0.69055900  1
  Zn  Zn260  1  0.82105800  0.90535100  0.68207900  1
  Zn  Zn261  1  0.53087400  0.30224400  0.67761900  1
  Zn  Zn262  1  0.65881200  0.40823600  0.64489000  1
  Zn  Zn263  1  0.66294100  0.91119500  0.64464700  1
  Zn  Zn264  1  0.80881900  0.68908100  0.62131000  1
  Zn  Zn265  1  0.96424200  0.62082100  0.63806000  1
  Zn  Zn266  1  0.62503300  0.56304700  0.62580500  1
  Zn  Zn267  1  0.78829600  0.51152200  0.61171600  1
  Zn  Zn268  1  0.17894200  0.01131100  0.63428400  1
  Zn  Zn269  1  0.14063900  0.66464600  0.61496500  1
  Zn  Zn270  1  0.33705900  0.00546600  0.67171600  1
  Zn  Zn271  1  0.21170400  0.30514000  0.60464800  1
  Zn  Zn272  1  0.82143500  0.85483100  0.63144600  1
  Zn  Zn273  1  0.50000000  0.95833100  0.65818200  1
  Zn  Zn274  1  0.69712500  0.24982600  0.66513900  1
  Zn  Zn275  1  0.52936800  0.25223600  0.62708500  1
  Zn  Zn276  1  0.79093800  0.56135700  0.66337000  1
  Zn  Zn277  1  0.30287500  0.66683600  0.65122400  1
  Zn  Zn278  1  0.20906200  0.35530500  0.65299400  1
  Zn  Zn279  1  0.19118100  0.22758000  0.69505400  1
  Zn  Zn280  1  0.47063200  0.66442600  0.68927900  1
  Zn  Zn281  1  0.85526800  0.20255400  0.65071600  1
  Zn  Zn282  1  0.00000000  0.95833100  0.65818200  1
  Zn  Zn283  1  0.46912600  0.61441800  0.63874500  1
  Zn  Zn284  1  0.34118800  0.50842600  0.67147300  1
  Zn  Zn285  1  0.48641100  0.78643600  0.64913900  1
  Zn  Zn286  1  0.84920500  0.13426200  0.74182300  1
  Zn  Zn287  1  0.03575800  0.39584000  0.77830400  1
  Zn  Zn288  1  0.51358900  0.23022600  0.76722500  1
  Zn  Zn289  1  0.14473200  0.81410800  0.76564800  1
  Zn  Zn290  1  0.17856500  0.16183100  0.78491800  1
  Zn  Zn291  1  0.85936100  0.25201600  0.70139800  1
  Zn  Zn292  1  0.50000000  0.00833100  0.70818200  1
  Zn  Zn293  1  0.15079500  0.98240000  0.77454000  1
  Zn  Zn294  1  0.37496700  0.45361400  0.79055900  1
  Zn  Zn295  1  0.82105800  0.00535100  0.78207900  1
  Zn  Zn296  1  0.53087400  0.40224400  0.77761900  1
  Zn  Zn297  1  0.65881200  0.50823600  0.74489000  1
  Zn  Zn298  1  0.66294100  0.01119500  0.74464700  1
  Zn  Zn299  1  0.80881900  0.78908100  0.72131000  1
  Zn  Zn300  1  0.96424200  0.72082100  0.73806000  1
  Zn  Zn301  1  0.62503300  0.66304700  0.72580500  1
  Zn  Zn302  1  0.78829600  0.61152200  0.71171600  1
  Zn  Zn303  1  0.17894200  0.11131100  0.73428400  1
  Zn  Zn304  1  0.14063900  0.76464600  0.71496500  1
  Zn  Zn305  1  0.33705900  0.10546600  0.77171600  1
  Zn  Zn306  1  0.21170400  0.40514000  0.70464800  1
  Zn  Zn307  1  0.82143500  0.95483100  0.73144600  1
  Zn  Zn308  1  0.50000000  0.05833100  0.75818200  1
  Zn  Zn309  1  0.69712500  0.34982600  0.76513900  1
  Zn  Zn310  1  0.52936800  0.35223600  0.72708500  1
  Zn  Zn311  1  0.79093800  0.66135700  0.76337000  1
  Zn  Zn312  1  0.30287500  0.76683600  0.75122400  1
  Zn  Zn313  1  0.20906200  0.45530500  0.75299400  1
  Zn  Zn314  1  0.19118100  0.32758000  0.79505400  1
  Zn  Zn315  1  0.47063200  0.76442600  0.78927900  1
  Zn  Zn316  1  0.85526800  0.30255400  0.75071600  1
  Zn  Zn317  1  0.00000000  0.05833100  0.75818200  1
  Zn  Zn318  1  0.46912600  0.71441800  0.73874500  1
  Zn  Zn319  1  0.34118800  0.60842600  0.77147300  1
  Zn  Zn320  1  0.48641100  0.88643600  0.74913900  1
