# generated using pymatgen
data_Y20Mg7
_symmetry_space_group_name_H-M   'P 1'
_cell_length_a   5.49911400
_cell_length_b   6.65141548
_cell_length_c   43.68111800
_cell_angle_alpha   92.90076190
_cell_angle_beta   90.00000000
_cell_angle_gamma   114.41729017
_symmetry_Int_Tables_number   1
_chemical_formula_structural   Y20Mg7
_chemical_formula_sum   'Y20 Mg7'
_cell_volume   1452.56926529
_cell_formula_units_Z   1
loop_
 _symmetry_equiv_pos_site_id
 _symmetry_equiv_pos_as_xyz
  1  'x, y, z'
loop_
 _atom_site_type_symbol
 _atom_site_label
 _atom_site_symmetry_multiplicity
 _atom_site_fract_x
 _atom_site_fract_y
 _atom_site_fract_z
 _atom_site_occupancy
  Y  Y0  1  0.80216700  0.60433500  0.76240900  1
  Y  Y1  1  0.30000700  0.60001400  0.71675800  1
  Y  Y2  1  0.59275400  0.18550800  0.69791700  1
  Y  Y3  1  0.88550100  0.77100200  0.67907500  1
  Y  Y4  1  0.38334000  0.76668100  0.63342500  1
  Y  Y5  1  0.67608700  0.35217500  0.61458300  1
  Y  Y6  1  0.96883400  0.93766800  0.59574200  1
  Y  Y7  1  0.46667400  0.93334800  0.55009100  1
  Y  Y8  1  0.75942100  0.51884100  0.53125000  1
  Y  Y9  1  0.05216700  0.10433500  0.51240900  1
  Y  Y10  1  0.55000700  0.10001400  0.46675800  1
  Y  Y11  1  0.84275400  0.68550800  0.44791700  1
  Y  Y12  1  0.13550100  0.27100200  0.42907500  1
  Y  Y13  1  0.63334000  0.26668100  0.38342500  1
  Y  Y14  1  0.92608700  0.85217500  0.36458300  1
  Y  Y15  1  0.21883400  0.43766800  0.34574200  1
  Y  Y16  1  0.71667400  0.43334800  0.30009100  1
  Y  Y17  1  0.00942100  0.01884100  0.28125000  1
  Y  Y18  1  0.30216700  0.60433500  0.26240900  1
  Y  Y19  1  0.80000700  0.60001400  0.21675800  1
  Mg  Mg20  1  0.05108700  0.10217500  0.73958300  1
  Mg  Mg21  1  0.13442100  0.26884100  0.65625000  1
  Mg  Mg22  1  0.21775400  0.43550800  0.57291700  1
  Mg  Mg23  1  0.30108700  0.60217500  0.48958300  1
  Mg  Mg24  1  0.38442100  0.76884100  0.40625000  1
  Mg  Mg25  1  0.46775400  0.93550800  0.32291700  1
  Mg  Mg26  1  0.55108700  0.10217500  0.23958300  1
