# generated using pymatgen
data_Ce2Mg19
_symmetry_space_group_name_H-M   'P 1'
_cell_length_a   10.33012900
_cell_length_b   14.43775486
_cell_length_c   46.86335100
_cell_angle_alpha   91.26380978
_cell_angle_beta   90.00000000
_cell_angle_gamma   69.03810193
_symmetry_Int_Tables_number   1
_chemical_formula_structural   Ce2Mg19
_chemical_formula_sum   'Ce14 Mg133'
_cell_volume   6524.99326643
_cell_formula_units_Z   7
loop_
 _symmetry_equiv_pos_site_id
 _symmetry_equiv_pos_as_xyz
  1  'x, y, z'
loop_
 _atom_site_type_symbol
 _atom_site_label
 _atom_site_symmetry_multiplicity
 _atom_site_fract_x
 _atom_site_fract_y
 _atom_site_fract_z
 _atom_site_occupancy
  Ce  Ce0  1  0.81351300  0.37297400  0.31203000  1
  Ce  Ce1  1  0.95637000  0.08726000  0.24060200  1
  Ce  Ce2  1  0.38494100  0.23011700  0.35964900  1
  Ce  Ce3  1  0.09922700  0.80154600  0.33584000  1
  Ce  Ce4  1  0.52779900  0.94440300  0.45488700  1
  Ce  Ce5  1  0.67065600  0.65868900  0.38345900  1
  Ce  Ce6  1  0.09922700  0.80154600  0.50250600  1
  Ce  Ce7  1  0.81351300  0.37297400  0.47869700  1
  Ce  Ce8  1  0.24208400  0.51583100  0.59774400  1
  Ce  Ce9  1  0.38494100  0.23011700  0.52631600  1
  Ce  Ce10  1  0.81351300  0.37297400  0.64536300  1
  Ce  Ce11  1  0.52779900  0.94440300  0.62155400  1
  Ce  Ce12  1  0.95637000  0.08726000  0.74060200  1
  Ce  Ce13  1  0.09922700  0.80154600  0.66917300  1
  Mg  Mg14  1  0.24208400  0.51583100  0.34774400  1
  Mg  Mg15  1  0.88494100  0.73011700  0.27631600  1
  Mg  Mg16  1  0.31205800  0.86254300  0.22497700  1
  Mg  Mg17  1  0.67020500  0.17293100  0.30257400  1
  Mg  Mg18  1  0.09115300  0.81769400  0.25432000  1
  Mg  Mg19  1  0.74070200  0.81351300  0.33185100  1
  Mg  Mg20  1  0.48428100  0.03143800  0.30997900  1
  Mg  Mg21  1  0.19856700  0.60286700  0.28617000  1
  Mg  Mg22  1  0.09967800  0.28730300  0.25005700  1
  Mg  Mg23  1  0.82946100  0.94665100  0.28747100  1
  Mg  Mg24  1  0.32409800  0.64672200  0.22078100  1
  Mg  Mg25  1  0.15686400  0.17293100  0.30257400  1
  Mg  Mg26  1  0.15107700  0.38719000  0.30729200  1
  Mg  Mg27  1  0.44578500  0.81351300  0.33185100  1
  Mg  Mg28  1  0.82539900  0.86254300  0.22497700  1
  Mg  Mg29  1  0.67873000  0.64254000  0.29831200  1
  Mg  Mg30  1  0.96063300  0.07873500  0.31958000  1
  Mg  Mg31  1  0.80925000  0.38150000  0.23305200  1
  Mg  Mg32  1  0.57131600  0.85736800  0.26646200  1
  Mg  Mg33  1  0.94448400  0.59769100  0.32765400  1
  Mg  Mg34  1  0.24208400  0.01583100  0.34774400  1
  Mg  Mg35  1  0.46173300  0.38719000  0.30729200  1
  Mg  Mg36  1  0.02918100  0.64672200  0.22078100  1
  Mg  Mg37  1  0.28560200  0.42879600  0.24265200  1
  Mg  Mg38  1  0.45782500  0.59769100  0.32765400  1
  Mg  Mg39  1  0.54599500  0.51358300  0.26516100  1
  Mg  Mg40  1  0.30814900  0.07304400  0.24534000  1
  Mg  Mg41  1  0.61301900  0.28730300  0.25005700  1
  Mg  Mg42  1  0.94042200  0.51358300  0.26516100  1
  Mg  Mg43  1  0.74208400  0.01583100  0.34774400  1
  Mg  Mg44  1  0.22388700  0.94665100  0.28747100  1
  Mg  Mg45  1  0.61880600  0.07304400  0.24534000  1
  Mg  Mg46  1  0.38494100  0.73011700  0.27631600  1
  Mg  Mg47  1  0.38494100  0.23011700  0.27631600  1
  Mg  Mg48  1  0.95637000  0.08726000  0.49060200  1
  Mg  Mg49  1  0.59922700  0.30154600  0.41917300  1
  Mg  Mg50  1  0.02634400  0.43397200  0.36783400  1
  Mg  Mg51  1  0.38449000  0.74436000  0.44543100  1
  Mg  Mg52  1  0.80543900  0.38912300  0.39717700  1
  Mg  Mg53  1  0.45498800  0.38494100  0.47470800  1
  Mg  Mg54  1  0.19856700  0.60286700  0.45283600  1
  Mg  Mg55  1  0.91285200  0.17429500  0.42902700  1
  Mg  Mg56  1  0.81396400  0.85873200  0.39291400  1
  Mg  Mg57  1  0.54374700  0.51808000  0.43032800  1
  Mg  Mg58  1  0.03838300  0.21815000  0.36363800  1
  Mg  Mg59  1  0.87115000  0.74436000  0.44543100  1
  Mg  Mg60  1  0.86536200  0.95861900  0.45014900  1
  Mg  Mg61  1  0.16007100  0.38494100  0.47470800  1
  Mg  Mg62  1  0.53968400  0.43397200  0.36783400  1
  Mg  Mg63  1  0.39301600  0.21396900  0.44116900  1
  Mg  Mg64  1  0.67491800  0.65016300  0.46243700  1
  Mg  Mg65  1  0.52353600  0.95292800  0.37590900  1
  Mg  Mg66  1  0.28560200  0.42879600  0.40931900  1
  Mg  Mg67  1  0.65877000  0.16912000  0.47051100  1
  Mg  Mg68  1  0.95637000  0.58726000  0.49060200  1
  Mg  Mg69  1  0.17601900  0.95861900  0.45014900  1
  Mg  Mg70  1  0.74346600  0.21815000  0.36363800  1
  Mg  Mg71  1  0.99988800  0.00022500  0.38550900  1
  Mg  Mg72  1  0.17211000  0.16912000  0.47051100  1
  Mg  Mg73  1  0.26028100  0.08501200  0.40801800  1
  Mg  Mg74  1  0.02243500  0.64447300  0.38819700  1
  Mg  Mg75  1  0.32730400  0.85873200  0.39291400  1
  Mg  Mg76  1  0.65470700  0.08501200  0.40801800  1
  Mg  Mg77  1  0.45637000  0.58726000  0.49060200  1
  Mg  Mg78  1  0.93817300  0.51808000  0.43032800  1
  Mg  Mg79  1  0.33309200  0.64447300  0.38819700  1
  Mg  Mg80  1  0.09922700  0.30154600  0.41917300  1
  Mg  Mg81  1  0.09922700  0.80154600  0.41917300  1
  Mg  Mg82  1  0.67065600  0.65868900  0.63345900  1
  Mg  Mg83  1  0.31351300  0.87297400  0.56203000  1
  Mg  Mg84  1  0.74063000  0.00540000  0.51069200  1
  Mg  Mg85  1  0.09877600  0.31578900  0.58828900  1
  Mg  Mg86  1  0.51972400  0.96055100  0.54003400  1
  Mg  Mg87  1  0.16927300  0.95637000  0.61756500  1
  Mg  Mg88  1  0.91285200  0.17429500  0.59569400  1
  Mg  Mg89  1  0.62713800  0.74572400  0.57188400  1
  Mg  Mg90  1  0.52825000  0.43016000  0.53577200  1
  Mg  Mg91  1  0.25803300  0.08950900  0.57318500  1
  Mg  Mg92  1  0.75266900  0.78957900  0.50649500  1
  Mg  Mg93  1  0.58543500  0.31578900  0.58828900  1
  Mg  Mg94  1  0.57964800  0.53004700  0.59300600  1
  Mg  Mg95  1  0.87435700  0.95637000  0.61756500  1
  Mg  Mg96  1  0.25397000  0.00540000  0.51069200  1
  Mg  Mg97  1  0.10730100  0.78539700  0.58402600  1
  Mg  Mg98  1  0.38920400  0.22159200  0.60529400  1
  Mg  Mg99  1  0.23782200  0.52435700  0.51876600  1
  Mg  Mg100  1  0.99988800  0.00022500  0.55217600  1
  Mg  Mg101  1  0.37305600  0.74054800  0.61336900  1
  Mg  Mg102  1  0.67065600  0.15868900  0.63345900  1
  Mg  Mg103  1  0.89030500  0.53004700  0.59300600  1
  Mg  Mg104  1  0.45775200  0.78957900  0.50649500  1
  Mg  Mg105  1  0.71417300  0.57165400  0.52836700  1
  Mg  Mg106  1  0.88639600  0.74054800  0.61336900  1
  Mg  Mg107  1  0.97456700  0.65644000  0.55087500  1
  Mg  Mg108  1  0.73672100  0.21590200  0.53105400  1
  Mg  Mg109  1  0.04159000  0.43016000  0.53577200  1
  Mg  Mg110  1  0.36899300  0.65644000  0.55087500  1
  Mg  Mg111  1  0.17065600  0.15868900  0.63345900  1
  Mg  Mg112  1  0.65245900  0.08950900  0.57318500  1
  Mg  Mg113  1  0.04737800  0.21590200  0.53105400  1
  Mg  Mg114  1  0.81351300  0.87297400  0.56203000  1
  Mg  Mg115  1  0.81351300  0.37297400  0.56203000  1
  Mg  Mg116  1  0.02779900  0.44440300  0.70488700  1
  Mg  Mg117  1  0.45491500  0.57682900  0.65354900  1
  Mg  Mg118  1  0.81306200  0.88721700  0.73114600  1
  Mg  Mg119  1  0.23401000  0.53198000  0.68289100  1
  Mg  Mg120  1  0.88355900  0.52779900  0.76042200  1
  Mg  Mg121  1  0.62713800  0.74572400  0.73855100  1
  Mg  Mg122  1  0.34142400  0.31715200  0.71474100  1
  Mg  Mg123  1  0.24253500  0.00158900  0.67862900  1
  Mg  Mg124  1  0.97231800  0.66093700  0.71604200  1
  Mg  Mg125  1  0.46695500  0.36100700  0.64935200  1
  Mg  Mg126  1  0.29972100  0.88721700  0.73114600  1
  Mg  Mg127  1  0.29393400  0.10147600  0.73586300  1
  Mg  Mg128  1  0.58864200  0.52779900  0.76042200  1
  Mg  Mg129  1  0.96825600  0.57682900  0.65354900  1
  Mg  Mg130  1  0.82158700  0.35682600  0.72688300  1
  Mg  Mg131  1  0.10349000  0.79302000  0.74815100  1
  Mg  Mg132  1  0.95210700  0.09578600  0.66162300  1
  Mg  Mg133  1  0.71417300  0.57165400  0.69503300  1
  Mg  Mg134  1  0.08734100  0.31197700  0.75622600  1
  Mg  Mg135  1  0.60459100  0.10147600  0.73586300  1
  Mg  Mg136  1  0.17203800  0.36100700  0.64935200  1
  Mg  Mg137  1  0.42845900  0.14308200  0.67122400  1
  Mg  Mg138  1  0.60068200  0.31197700  0.75622600  1
  Mg  Mg139  1  0.68885300  0.22786900  0.69373200  1
  Mg  Mg140  1  0.45100700  0.78733000  0.67391100  1
  Mg  Mg141  1  0.75587600  0.00158900  0.67862900  1
  Mg  Mg142  1  0.08327900  0.22786900  0.69373200  1
  Mg  Mg143  1  0.36674500  0.66093700  0.71604200  1
  Mg  Mg144  1  0.76166300  0.78733000  0.67391100  1
  Mg  Mg145  1  0.52779900  0.44440300  0.70488700  1
  Mg  Mg146  1  0.52779900  0.94440300  0.70488700  1
