# generated using pymatgen
data_Dy30Mg11
_symmetry_space_group_name_H-M   'P 1'
_cell_length_a   5.03327494
_cell_length_b   10.01189431
_cell_length_c   43.86656900
_cell_angle_alpha   93.45027196
_cell_angle_beta   93.28887627
_cell_angle_gamma   75.44171047
_symmetry_Int_Tables_number   1
_chemical_formula_structural   Dy30Mg11
_chemical_formula_sum   'Dy30 Mg11'
_cell_volume   2133.65517289
_cell_formula_units_Z   1
loop_
 _symmetry_equiv_pos_site_id
 _symmetry_equiv_pos_as_xyz
  1  'x, y, z'
loop_
 _atom_site_type_symbol
 _atom_site_label
 _atom_site_symmetry_multiplicity
 _atom_site_fract_x
 _atom_site_fract_y
 _atom_site_fract_z
 _atom_site_occupancy
  Dy  Dy0  1  0.77003500  0.67036800  0.28536700  1
  Dy  Dy1  1  0.38630800  0.42328900  0.27083300  1
  Dy  Dy2  1  0.00258100  0.17620900  0.25629900  1
  Dy  Dy3  1  0.32559100  0.61481200  0.34092300  1
  Dy  Dy4  1  0.94186400  0.36773300  0.32638900  1
  Dy  Dy5  1  0.55813600  0.12065400  0.31185500  1
  Dy  Dy6  1  0.88114700  0.55925700  0.39647900  1
  Dy  Dy7  1  0.49741900  0.31217700  0.38194400  1
  Dy  Dy8  1  0.11369200  0.06509800  0.36741000  1
  Dy  Dy9  1  0.43670200  0.50370100  0.45203400  1
  Dy  Dy10  1  0.05297500  0.25662200  0.43750000  1
  Dy  Dy11  1  0.66924700  0.00954200  0.42296600  1
  Dy  Dy12  1  0.99225800  0.44814600  0.50759000  1
  Dy  Dy13  1  0.60853000  0.20106600  0.49305600  1
  Dy  Dy14  1  0.22480300  0.95398700  0.47852100  1
  Dy  Dy15  1  0.54781300  0.39259000  0.56314500  1
  Dy  Dy16  1  0.16408600  0.14551100  0.54861100  1
  Dy  Dy17  1  0.78035900  0.89843100  0.53407700  1
  Dy  Dy18  1  0.10336900  0.33703500  0.61870100  1
  Dy  Dy19  1  0.71964100  0.08995500  0.60416700  1
  Dy  Dy20  1  0.33591400  0.84287600  0.58963300  1
  Dy  Dy21  1  0.65892400  0.28147900  0.67425600  1
  Dy  Dy22  1  0.27519700  0.03440000  0.65972200  1
  Dy  Dy23  1  0.89147000  0.78732000  0.64518800  1
  Dy  Dy24  1  0.21448000  0.22592300  0.72981200  1
  Dy  Dy25  1  0.83075300  0.97884400  0.71527800  1
  Dy  Dy26  1  0.44702500  0.73176500  0.70074400  1
  Dy  Dy27  1  0.77003500  0.17036800  0.78536700  1
  Dy  Dy28  1  0.38630800  0.92328900  0.77083300  1
  Dy  Dy29  1  0.00258100  0.67620900  0.75629900  1
  Mg  Mg30  1  0.60853000  0.95106600  0.24305600  1
  Mg  Mg31  1  0.16408600  0.89551100  0.29861100  1
  Mg  Mg32  1  0.71964100  0.83995500  0.35416700  1
  Mg  Mg33  1  0.27519700  0.78440000  0.40972200  1
  Mg  Mg34  1  0.83075300  0.72884400  0.46527800  1
  Mg  Mg35  1  0.38630800  0.67328900  0.52083300  1
  Mg  Mg36  1  0.94186400  0.61773300  0.57638900  1
  Mg  Mg37  1  0.49741900  0.56217700  0.63194400  1
  Mg  Mg38  1  0.05297500  0.50662200  0.68750000  1
  Mg  Mg39  1  0.60853000  0.45106600  0.74305600  1
  Mg  Mg40  1  0.16408600  0.39551100  0.79861100  1
