# generated using pymatgen
data_Mg41Si23
_symmetry_space_group_name_H-M   'P 1'
_cell_length_a   7.16868100
_cell_length_b   14.27249566
_cell_length_c   44.68541400
_cell_angle_alpha   83.39369965
_cell_angle_beta   90.00000000
_cell_angle_gamma   75.45524452
_symmetry_Int_Tables_number   1
_chemical_formula_structural   Mg41Si23
_chemical_formula_sum   'Mg82 Si46'
_cell_volume   4394.09300978
_cell_formula_units_Z   2
loop_
 _symmetry_equiv_pos_site_id
 _symmetry_equiv_pos_as_xyz
  1  'x, y, z'
loop_
 _atom_site_type_symbol
 _atom_site_label
 _atom_site_symmetry_multiplicity
 _atom_site_fract_x
 _atom_site_fract_y
 _atom_site_fract_z
 _atom_site_occupancy
  Mg  Mg0  1  0.87959500  0.94642100  0.25596700  1
  Mg  Mg1  1  0.31841200  0.34252100  0.30791700  1
  Mg  Mg2  1  0.23602900  0.47008800  0.24413400  1
  Mg  Mg3  1  0.30116100  0.88728800  0.28553400  1
  Mg  Mg4  1  0.21877800  0.01485400  0.22175100  1
  Mg  Mg5  1  0.65759500  0.41095400  0.27370100  1
  Mg  Mg6  1  0.90731300  0.91151800  0.19046100  1
  Mg  Mg7  1  0.09349700  0.26541800  0.26351100  1
  Mg  Mg8  1  0.55087900  0.38785100  0.20229500  1
  Mg  Mg9  1  0.11074700  0.72065100  0.28589500  1
  Mg  Mg10  1  0.56813000  0.84308500  0.22467800  1
  Mg  Mg11  1  0.75431400  0.19698500  0.29772800  1
  Mg  Mg12  1  0.97459000  0.68491800  0.22024000  1
  Mg  Mg13  1  0.46816200  0.07797100  0.27371300  1
  Mg  Mg14  1  0.30613200  0.22341600  0.20099100  1
  Mg  Mg15  1  0.48077600  0.63452300  0.24543800  1
  Mg  Mg16  1  0.94374600  0.52996800  0.29771500  1
  Mg  Mg17  1  0.81231800  0.17302100  0.22618900  1
  Mg  Mg18  1  0.50459500  0.69642100  0.38096700  1
  Mg  Mg19  1  0.94341200  0.09252100  0.43291700  1
  Mg  Mg20  1  0.86102900  0.22008800  0.36913400  1
  Mg  Mg21  1  0.92616100  0.63728800  0.41053400  1
  Mg  Mg22  1  0.84377800  0.76485400  0.34675100  1
  Mg  Mg23  1  0.28259500  0.16095400  0.39870100  1
  Mg  Mg24  1  0.53231300  0.66151800  0.31546100  1
  Mg  Mg25  1  0.71849700  0.01541800  0.38851100  1
  Mg  Mg26  1  0.17587900  0.13785100  0.32729500  1
  Mg  Mg27  1  0.73574700  0.47065100  0.41089500  1
  Mg  Mg28  1  0.19313000  0.59308500  0.34967800  1
  Mg  Mg29  1  0.37931400  0.94698500  0.42272800  1
  Mg  Mg30  1  0.59959000  0.43491800  0.34524000  1
  Mg  Mg31  1  0.09316200  0.82797100  0.39871300  1
  Mg  Mg32  1  0.93113200  0.97341600  0.32599100  1
  Mg  Mg33  1  0.10577600  0.38452300  0.37043800  1
  Mg  Mg34  1  0.56874600  0.27996800  0.42271500  1
  Mg  Mg35  1  0.43731800  0.92302100  0.35118900  1
  Mg  Mg36  1  0.12959500  0.44642100  0.50596700  1
  Mg  Mg37  1  0.56841200  0.84252100  0.55791700  1
  Mg  Mg38  1  0.48602900  0.97008800  0.49413400  1
  Mg  Mg39  1  0.55116100  0.38728800  0.53553400  1
  Mg  Mg40  1  0.46877800  0.51485400  0.47175100  1
  Mg  Mg41  1  0.90759500  0.91095400  0.52370100  1
  Mg  Mg42  1  0.15731300  0.41151800  0.44046100  1
  Mg  Mg43  1  0.34349700  0.76541800  0.51351100  1
  Mg  Mg44  1  0.80087900  0.88785100  0.45229500  1
  Mg  Mg45  1  0.36074700  0.22065100  0.53589500  1
  Mg  Mg46  1  0.81813000  0.34308500  0.47467800  1
  Mg  Mg47  1  0.00431400  0.69698500  0.54772800  1
  Mg  Mg48  1  0.22459000  0.18491800  0.47024000  1
  Mg  Mg49  1  0.71816200  0.57797100  0.52371300  1
  Mg  Mg50  1  0.55613200  0.72341600  0.45099100  1
  Mg  Mg51  1  0.73077600  0.13452300  0.49543800  1
  Mg  Mg52  1  0.19374600  0.02996800  0.54771500  1
  Mg  Mg53  1  0.06231800  0.67302100  0.47618900  1
  Mg  Mg54  1  0.75459500  0.19642100  0.63096700  1
  Mg  Mg55  1  0.19341200  0.59252100  0.68291700  1
  Mg  Mg56  1  0.11102900  0.72008800  0.61913400  1
  Mg  Mg57  1  0.17616100  0.13728800  0.66053400  1
  Mg  Mg58  1  0.09377800  0.26485400  0.59675100  1
  Mg  Mg59  1  0.53259500  0.66095400  0.64870100  1
  Mg  Mg60  1  0.78231300  0.16151800  0.56546100  1
  Mg  Mg61  1  0.96849700  0.51541800  0.63851100  1
  Mg  Mg62  1  0.42587900  0.63785100  0.57729500  1
  Mg  Mg63  1  0.98574700  0.97065100  0.66089500  1
  Mg  Mg64  1  0.44313000  0.09308500  0.59967800  1
  Mg  Mg65  1  0.62931400  0.44698500  0.67272800  1
  Mg  Mg66  1  0.84959000  0.93491800  0.59524000  1
  Mg  Mg67  1  0.34316200  0.32797100  0.64871300  1
  Mg  Mg68  1  0.18113200  0.47341600  0.57599100  1
  Mg  Mg69  1  0.35577600  0.88452300  0.62043800  1
  Mg  Mg70  1  0.81874600  0.77996800  0.67271500  1
  Mg  Mg71  1  0.68731800  0.42302100  0.60118900  1
  Mg  Mg72  1  0.37959500  0.94642100  0.75596700  1
  Mg  Mg73  1  0.73602900  0.47008800  0.74413400  1
  Mg  Mg74  1  0.71877800  0.01485400  0.72175100  1
  Mg  Mg75  1  0.40731300  0.91151800  0.69046100  1
  Mg  Mg76  1  0.05087900  0.38785100  0.70229500  1
  Mg  Mg77  1  0.06813000  0.84308500  0.72467800  1
  Mg  Mg78  1  0.47459000  0.68491800  0.72024000  1
  Mg  Mg79  1  0.80613200  0.22341600  0.70099100  1
  Mg  Mg80  1  0.98077600  0.63452300  0.74543800  1
  Mg  Mg81  1  0.31231800  0.17302100  0.72618900  1
  Si  Si82  1  0.74355100  0.72877600  0.27318200  1
  Si  Si83  1  0.93105100  0.35377600  0.21068200  1
  Si  Si84  1  0.66835700  0.87916300  0.29824700  1
  Si  Si85  1  0.85585700  0.50416300  0.23574700  1
  Si  Si86  1  0.34137100  0.53313600  0.29613100  1
  Si  Si87  1  0.07053700  0.07480300  0.27529800  1
  Si  Si88  1  0.31898800  0.57790100  0.19248100  1
  Si  Si89  1  0.58982100  0.03623500  0.21331400  1
  Si  Si90  1  0.46792000  0.28003700  0.25394800  1
  Si  Si91  1  0.19708700  0.82170400  0.23311400  1
  Si  Si92  1  0.36855100  0.47877600  0.39818200  1
  Si  Si93  1  0.55605100  0.10377600  0.33568200  1
  Si  Si94  1  0.29335700  0.62916300  0.42324700  1
  Si  Si95  1  0.48085700  0.25416300  0.36074700  1
  Si  Si96  1  0.96637100  0.28313600  0.42113100  1
  Si  Si97  1  0.69553700  0.82480300  0.40029800  1
  Si  Si98  1  0.94398800  0.32790100  0.31748100  1
  Si  Si99  1  0.21482100  0.78623500  0.33831400  1
  Si  Si100  1  0.09292000  0.03003700  0.37894800  1
  Si  Si101  1  0.82208700  0.57170400  0.35811400  1
  Si  Si102  1  0.99355100  0.22877600  0.52318200  1
  Si  Si103  1  0.18105100  0.85377600  0.46068200  1
  Si  Si104  1  0.91835700  0.37916300  0.54824700  1
  Si  Si105  1  0.10585700  0.00416300  0.48574700  1
  Si  Si106  1  0.59137100  0.03313600  0.54613100  1
  Si  Si107  1  0.32053700  0.57480300  0.52529800  1
  Si  Si108  1  0.56898800  0.07790100  0.44248100  1
  Si  Si109  1  0.83982100  0.53623500  0.46331400  1
  Si  Si110  1  0.71792000  0.78003700  0.50394800  1
  Si  Si111  1  0.44708700  0.32170400  0.48311400  1
  Si  Si112  1  0.61855100  0.97877600  0.64818200  1
  Si  Si113  1  0.80605100  0.60377600  0.58568200  1
  Si  Si114  1  0.54335700  0.12916300  0.67324700  1
  Si  Si115  1  0.73085700  0.75416300  0.61074700  1
  Si  Si116  1  0.21637100  0.78313600  0.67113100  1
  Si  Si117  1  0.94553700  0.32480300  0.65029800  1
  Si  Si118  1  0.19398800  0.82790100  0.56748100  1
  Si  Si119  1  0.46482100  0.28623500  0.58831400  1
  Si  Si120  1  0.34292000  0.53003700  0.62894800  1
  Si  Si121  1  0.07208700  0.07170400  0.60811400  1
  Si  Si122  1  0.43105100  0.35377600  0.71068200  1
  Si  Si123  1  0.35585700  0.50416300  0.73574700  1
  Si  Si124  1  0.81898800  0.57790100  0.69248100  1
  Si  Si125  1  0.08982100  0.03623500  0.71331400  1
  Si  Si126  1  0.96792000  0.28003700  0.75394800  1
  Si  Si127  1  0.69708700  0.82170400  0.73311400  1
