# generated using pymatgen
data_Mg5Zn9
_symmetry_space_group_name_H-M   'P 1'
_cell_length_a   5.07402209
_cell_length_b   22.10207791
_cell_length_c   42.67993100
_cell_angle_alpha   98.00895109
_cell_angle_beta   93.24549340
_cell_angle_gamma   83.83945518
_symmetry_Int_Tables_number   1
_chemical_formula_structural   Mg5Zn9
_chemical_formula_sum   'Mg40 Zn72'
_cell_volume   4708.12433190
_cell_formula_units_Z   8
loop_
 _symmetry_equiv_pos_site_id
 _symmetry_equiv_pos_as_xyz
  1  'x, y, z'
loop_
 _atom_site_type_symbol
 _atom_site_label
 _atom_site_symmetry_multiplicity
 _atom_site_fract_x
 _atom_site_fract_y
 _atom_site_fract_z
 _atom_site_occupancy
  Mg  Mg0  1  0.35775400  0.56729100  0.46659800  1
  Mg  Mg1  1  0.22161900  0.80721900  0.43983200  1
  Mg  Mg2  1  0.99586000  0.24010200  0.40394400  1
  Mg  Mg3  1  0.83200400  0.58727900  0.42830500  1
  Mg  Mg4  1  0.73416900  0.83401500  0.48206900  1
  Mg  Mg5  1  0.44048100  0.41944900  0.47640300  1
  Mg  Mg6  1  0.80190400  0.74906800  0.53734800  1
  Mg  Mg7  1  0.57557600  0.22788200  0.56442200  1
  Mg  Mg8  1  0.34519800  0.65921500  0.53245400  1
  Mg  Mg9  1  0.67341200  0.98114600  0.51065800  1
  Mg  Mg10  1  0.41172100  0.57505900  0.58878300  1
  Mg  Mg11  1  0.06238300  0.15594600  0.46027300  1
  Mg  Mg12  1  0.27928900  0.67007700  0.41266000  1
  Mg  Mg13  1  0.44924300  0.32951700  0.40981000  1
  Mg  Mg14  1  0.95833800  0.48564500  0.58291700  1
  Mg  Mg15  1  0.60567600  0.06609300  0.45538000  1
  Mg  Mg16  1  0.04982600  0.24787100  0.52612900  1
  Mg  Mg17  1  0.96710000  0.39571200  0.51632500  1
  Mg  Mg18  1  0.18596100  0.00794200  0.55289500  1
  Mg  Mg19  1  0.12829200  0.14508400  0.58006800  1
  Mg  Mg20  1  0.15775400  0.16729100  0.66659800  1
  Mg  Mg21  1  0.02161900  0.40721900  0.63983200  1
  Mg  Mg22  1  0.79586000  0.84010200  0.60394400  1
  Mg  Mg23  1  0.63200400  0.18727900  0.62830500  1
  Mg  Mg24  1  0.53416900  0.43401500  0.68206900  1
  Mg  Mg25  1  0.24048100  0.01944900  0.67640300  1
  Mg  Mg26  1  0.60190400  0.34906800  0.73734800  1
  Mg  Mg27  1  0.37557600  0.82788200  0.76442200  1
  Mg  Mg28  1  0.14519800  0.25921500  0.73245400  1
  Mg  Mg29  1  0.47341200  0.58114600  0.71065800  1
  Mg  Mg30  1  0.21172100  0.17505900  0.78878300  1
  Mg  Mg31  1  0.86238300  0.75594600  0.66027300  1
  Mg  Mg32  1  0.07928900  0.27007700  0.61266000  1
  Mg  Mg33  1  0.24924300  0.92951700  0.60981000  1
  Mg  Mg34  1  0.75833800  0.08564500  0.78291700  1
  Mg  Mg35  1  0.40567600  0.66609300  0.65538000  1
  Mg  Mg36  1  0.84982600  0.84787100  0.72612900  1
  Mg  Mg37  1  0.76710000  0.99571200  0.71632500  1
  Mg  Mg38  1  0.98596100  0.60794200  0.75289500  1
  Mg  Mg39  1  0.92829200  0.74508400  0.78006800  1
  Zn  Zn40  1  0.80379000  0.10758100  0.39636400  1
  Zn  Zn41  1  0.30379000  0.10758100  0.39636400  1
  Zn  Zn42  1  0.26338500  0.79188900  0.50806500  1
  Zn  Zn43  1  0.75581100  0.73145100  0.42573500  1
  Zn  Zn44  1  0.88579700  0.61530500  0.56107500  1
  Zn  Zn45  1  0.35942500  0.11648700  0.51775500  1
  Zn  Zn46  1  0.91073100  0.93294800  0.44529800  1
  Zn  Zn47  1  0.54312300  0.70104400  0.47439800  1
  Zn  Zn48  1  0.60379000  0.70758100  0.59636400  1
  Zn  Zn49  1  0.14419500  0.02327200  0.48466300  1
  Zn  Zn50  1  0.46468800  0.43982400  0.54878900  1
  Zn  Zn51  1  0.99053000  0.88213000  0.54752800  1
  Zn  Zn52  1  0.65601500  0.52524400  0.52529400  1
  Zn  Zn53  1  0.89791100  0.49318800  0.47196200  1
  Zn  Zn54  1  0.29860300  0.79291800  0.57049600  1
  Zn  Zn55  1  0.72017800  0.97053500  0.58107500  1
  Zn  Zn56  1  0.65177000  0.08371000  0.56699300  1
  Zn  Zn57  1  0.94289300  0.37533700  0.44393800  1
  Zn  Zn58  1  0.14638600  0.46310500  0.41877300  1
  Zn  Zn59  1  0.41705000  0.93303100  0.44520000  1
  Zn  Zn60  1  0.86445700  0.11411800  0.51833000  1
  Zn  Zn61  1  0.10897700  0.02224300  0.42223200  1
  Zn  Zn62  1  0.26119500  0.35205600  0.57395400  1
  Zn  Zn63  1  0.49685000  0.88221300  0.54742900  1
  Zn  Zn64  1  0.10379000  0.70758100  0.59636400  1
  Zn  Zn65  1  0.84601000  0.61570800  0.50003100  1
  Zn  Zn66  1  0.16063400  0.52432700  0.52549000  1
  Zn  Zn67  1  0.63183000  0.46525300  0.41860800  1
  Zn  Zn68  1  0.56157100  0.19945300  0.49269600  1
  Zn  Zn69  1  0.77575100  0.34990900  0.57411900  1
  Zn  Zn70  1  0.68740300  0.84462700  0.41165200  1
  Zn  Zn71  1  0.24694700  0.29083500  0.46723800  1
  Zn  Zn72  1  0.04815500  0.69867400  0.47497200  1
  Zn  Zn73  1  0.20379000  0.90758100  0.49636400  1
  Zn  Zn74  1  0.75156600  0.28991700  0.46743400  1
  Zn  Zn75  1  0.50967000  0.32197300  0.52076500  1
  Zn  Zn76  1  0.52178400  0.19985700  0.43165200  1
  Zn  Zn77  1  0.06338500  0.39188900  0.70806500  1
  Zn  Zn78  1  0.55581100  0.33145100  0.62573500  1
  Zn  Zn79  1  0.68579700  0.21530500  0.76107500  1
  Zn  Zn80  1  0.15942500  0.71648700  0.71775500  1
  Zn  Zn81  1  0.71073100  0.53294800  0.64529800  1
  Zn  Zn82  1  0.34312300  0.30104400  0.67439800  1
  Zn  Zn83  1  0.40379000  0.30758100  0.79636400  1
  Zn  Zn84  1  0.94419500  0.62327200  0.68466300  1
  Zn  Zn85  1  0.26468800  0.03982400  0.74878900  1
  Zn  Zn86  1  0.79053000  0.48213000  0.74752800  1
  Zn  Zn87  1  0.45601500  0.12524400  0.72529400  1
  Zn  Zn88  1  0.69791100  0.09318800  0.67196200  1
  Zn  Zn89  1  0.09860300  0.39291800  0.77049600  1
  Zn  Zn90  1  0.52017800  0.57053500  0.78107500  1
  Zn  Zn91  1  0.45177000  0.68371000  0.76699300  1
  Zn  Zn92  1  0.74289300  0.97533700  0.64393800  1
  Zn  Zn93  1  0.94638600  0.06310500  0.61877300  1
  Zn  Zn94  1  0.21705000  0.53303100  0.64520000  1
  Zn  Zn95  1  0.66445700  0.71411800  0.71833000  1
  Zn  Zn96  1  0.90897700  0.62224300  0.62223200  1
  Zn  Zn97  1  0.06119500  0.95205600  0.77395400  1
  Zn  Zn98  1  0.29685000  0.48221300  0.74742900  1
  Zn  Zn99  1  0.90379000  0.30758100  0.79636400  1
  Zn  Zn100  1  0.64601000  0.21570800  0.70003100  1
  Zn  Zn101  1  0.96063400  0.12432700  0.72549000  1
  Zn  Zn102  1  0.43183000  0.06525300  0.61860800  1
  Zn  Zn103  1  0.36157100  0.79945300  0.69269600  1
  Zn  Zn104  1  0.57575100  0.94990900  0.77411900  1
  Zn  Zn105  1  0.48740300  0.44462700  0.61165200  1
  Zn  Zn106  1  0.04694700  0.89083500  0.66723800  1
  Zn  Zn107  1  0.84815500  0.29867400  0.67497200  1
  Zn  Zn108  1  0.00379000  0.50758100  0.69636400  1
  Zn  Zn109  1  0.55156600  0.88991700  0.66743400  1
  Zn  Zn110  1  0.30967000  0.92197300  0.72076500  1
  Zn  Zn111  1  0.32178400  0.79985700  0.63165200  1
