# generated using pymatgen
data_Mg2Au
_symmetry_space_group_name_H-M   'P 1'
_cell_length_a   9.63509784
_cell_length_b   19.42687858
_cell_length_c   43.05516600
_cell_angle_alpha   101.95555315
_cell_angle_beta   93.60749084
_cell_angle_gamma   84.09650850
_symmetry_Int_Tables_number   1
_chemical_formula_structural   Mg2Au
_chemical_formula_sum   'Mg168 Au84'
_cell_volume   7835.26025205
_cell_formula_units_Z   84
loop_
 _symmetry_equiv_pos_site_id
 _symmetry_equiv_pos_as_xyz
  1  'x, y, z'
loop_
 _atom_site_type_symbol
 _atom_site_label
 _atom_site_symmetry_multiplicity
 _atom_site_fract_x
 _atom_site_fract_y
 _atom_site_fract_z
 _atom_site_occupancy
  Mg  Mg0  1  0.92227700  0.94424700  0.19476500  1
  Mg  Mg1  1  0.50708700  0.44424700  0.20418900  1
  Mg  Mg2  1  0.89590500  0.05575300  0.25978000  1
  Mg  Mg3  1  0.31109400  0.55575300  0.25035700  1
  Mg  Mg4  1  0.80065600  0.61223800  0.25547300  1
  Mg  Mg5  1  0.38580300  0.11223800  0.26493400  1
  Mg  Mg6  1  0.01752600  0.38776200  0.19907200  1
  Mg  Mg7  1  0.43237900  0.88776200  0.18961200  1
  Mg  Mg8  1  0.85760800  0.27669700  0.22451900  1
  Mg  Mg9  1  0.45086600  0.77669700  0.23488100  1
  Mg  Mg10  1  0.96057400  0.72330300  0.23002700  1
  Mg  Mg11  1  0.36731600  0.22330300  0.21966500  1
  Mg  Mg12  1  0.14901900  0.82132500  0.20630100  1
  Mg  Mg13  1  0.14322600  0.32132500  0.26121300  1
  Mg  Mg14  1  0.66916200  0.17867500  0.24824500  1
  Mg  Mg15  1  0.67495600  0.67867500  0.19333300  1
  Mg  Mg16  1  0.02200600  0.48719800  0.26617400  1
  Mg  Mg17  1  0.20992200  0.98719800  0.23149800  1
  Mg  Mg18  1  0.79617500  0.51280200  0.18837100  1
  Mg  Mg19  1  0.60826000  0.01280200  0.22304700  1
  Mg  Mg20  1  0.08369500  0.15308100  0.23590400  1
  Mg  Mg21  1  0.26973000  0.65308100  0.20101900  1
  Mg  Mg22  1  0.73448700  0.84691900  0.21864100  1
  Mg  Mg23  1  0.54845200  0.34691900  0.25352600  1
  Mg  Mg24  1  0.74045900  0.94424700  0.28567400  1
  Mg  Mg25  1  0.32526900  0.44424700  0.29509800  1
  Mg  Mg26  1  0.71408600  0.05575300  0.35068900  1
  Mg  Mg27  1  0.12927600  0.55575300  0.34126600  1
  Mg  Mg28  1  0.61883700  0.61223800  0.34638200  1
  Mg  Mg29  1  0.20398500  0.11223800  0.35584300  1
  Mg  Mg30  1  0.83570800  0.38776200  0.28998100  1
  Mg  Mg31  1  0.25056000  0.88776200  0.28052100  1
  Mg  Mg32  1  0.67579000  0.27669700  0.31542800  1
  Mg  Mg33  1  0.26904800  0.77669700  0.32579000  1
  Mg  Mg34  1  0.77875600  0.72330300  0.32093600  1
  Mg  Mg35  1  0.18549800  0.22330300  0.31057400  1
  Mg  Mg36  1  0.96720100  0.82132500  0.29721000  1
  Mg  Mg37  1  0.96140800  0.32132500  0.35212200  1
  Mg  Mg38  1  0.48734400  0.17867500  0.33915400  1
  Mg  Mg39  1  0.49313800  0.67867500  0.28424200  1
  Mg  Mg40  1  0.84018800  0.48719800  0.35708300  1
  Mg  Mg41  1  0.02810400  0.98719800  0.32240700  1
  Mg  Mg42  1  0.61435700  0.51280200  0.27928000  1
  Mg  Mg43  1  0.42644200  0.01280200  0.31395600  1
  Mg  Mg44  1  0.90187700  0.15308100  0.32681400  1
  Mg  Mg45  1  0.08791200  0.65308100  0.29192900  1
  Mg  Mg46  1  0.55266900  0.84691900  0.30955000  1
  Mg  Mg47  1  0.36663300  0.34691900  0.34443500  1
  Mg  Mg48  1  0.55864100  0.94424700  0.37658400  1
  Mg  Mg49  1  0.14345100  0.44424700  0.38600700  1
  Mg  Mg50  1  0.53226800  0.05575300  0.44159800  1
  Mg  Mg51  1  0.94745800  0.55575300  0.43217500  1
  Mg  Mg52  1  0.43701900  0.61223800  0.43729100  1
  Mg  Mg53  1  0.02216700  0.11223800  0.44675200  1
  Mg  Mg54  1  0.65389000  0.38776200  0.38089100  1
  Mg  Mg55  1  0.06874200  0.88776200  0.37143000  1
  Mg  Mg56  1  0.49397200  0.27669700  0.40633700  1
  Mg  Mg57  1  0.08722900  0.77669700  0.41669900  1
  Mg  Mg58  1  0.59693700  0.72330300  0.41184500  1
  Mg  Mg59  1  0.00368000  0.22330300  0.40148300  1
  Mg  Mg60  1  0.78538300  0.82132500  0.38811900  1
  Mg  Mg61  1  0.77958900  0.32132500  0.44303100  1
  Mg  Mg62  1  0.30552600  0.17867500  0.43006300  1
  Mg  Mg63  1  0.31132000  0.67867500  0.37515100  1
  Mg  Mg64  1  0.65837000  0.48719800  0.44799200  1
  Mg  Mg65  1  0.84628500  0.98719800  0.41331600  1
  Mg  Mg66  1  0.43253900  0.51280200  0.37018900  1
  Mg  Mg67  1  0.24462400  0.01280200  0.40486600  1
  Mg  Mg68  1  0.72005800  0.15308100  0.41772300  1
  Mg  Mg69  1  0.90609400  0.65308100  0.38283800  1
  Mg  Mg70  1  0.37085100  0.84691900  0.40045900  1
  Mg  Mg71  1  0.18481500  0.34691900  0.43534400  1
  Mg  Mg72  1  0.37682300  0.94424700  0.46749300  1
  Mg  Mg73  1  0.96163300  0.44424700  0.47691600  1
  Mg  Mg74  1  0.35045000  0.05575300  0.53250700  1
  Mg  Mg75  1  0.76564000  0.55575300  0.52308400  1
  Mg  Mg76  1  0.25520100  0.61223800  0.52820000  1
  Mg  Mg77  1  0.84034900  0.11223800  0.53766100  1
  Mg  Mg78  1  0.47207200  0.38776200  0.47180000  1
  Mg  Mg79  1  0.88692400  0.88776200  0.46233900  1
  Mg  Mg80  1  0.31215400  0.27669700  0.49724600  1
  Mg  Mg81  1  0.90541100  0.77669700  0.50760800  1
  Mg  Mg82  1  0.41511900  0.72330300  0.50275400  1
  Mg  Mg83  1  0.82186100  0.22330300  0.49239200  1
  Mg  Mg84  1  0.60356500  0.82132500  0.47902800  1
  Mg  Mg85  1  0.59777100  0.32132500  0.53394000  1
  Mg  Mg86  1  0.12370800  0.17867500  0.52097200  1
  Mg  Mg87  1  0.12950100  0.67867500  0.46606000  1
  Mg  Mg88  1  0.47655200  0.48719800  0.53890100  1
  Mg  Mg89  1  0.66446700  0.98719800  0.50422500  1
  Mg  Mg90  1  0.25072100  0.51280200  0.46109900  1
  Mg  Mg91  1  0.06280500  0.01280200  0.49577500  1
  Mg  Mg92  1  0.53824000  0.15308100  0.50863200  1
  Mg  Mg93  1  0.72427600  0.65308100  0.47374700  1
  Mg  Mg94  1  0.18903300  0.84691900  0.49136800  1
  Mg  Mg95  1  0.00299700  0.34691900  0.52625300  1
  Mg  Mg96  1  0.19500400  0.94424700  0.55840200  1
  Mg  Mg97  1  0.77981500  0.44424700  0.56782500  1
  Mg  Mg98  1  0.16863200  0.05575300  0.62341600  1
  Mg  Mg99  1  0.58382200  0.55575300  0.61399300  1
  Mg  Mg100  1  0.07338300  0.61223800  0.61910900  1
  Mg  Mg101  1  0.65853000  0.11223800  0.62857000  1
  Mg  Mg102  1  0.29025300  0.38776200  0.56270900  1
  Mg  Mg103  1  0.70510600  0.88776200  0.55324800  1
  Mg  Mg104  1  0.13033500  0.27669700  0.58815500  1
  Mg  Mg105  1  0.72359300  0.77669700  0.59851700  1
  Mg  Mg106  1  0.23330100  0.72330300  0.59366300  1
  Mg  Mg107  1  0.64004300  0.22330300  0.58330100  1
  Mg  Mg108  1  0.42174700  0.82132500  0.56993700  1
  Mg  Mg109  1  0.41595300  0.32132500  0.62484900  1
  Mg  Mg110  1  0.94189000  0.17867500  0.61188100  1
  Mg  Mg111  1  0.94768300  0.67867500  0.55696900  1
  Mg  Mg112  1  0.29473400  0.48719800  0.62981100  1
  Mg  Mg113  1  0.48264900  0.98719800  0.59513400  1
  Mg  Mg114  1  0.06890300  0.51280200  0.55200800  1
  Mg  Mg115  1  0.88098700  0.01280200  0.58668400  1
  Mg  Mg116  1  0.35642200  0.15308100  0.59954100  1
  Mg  Mg117  1  0.54245800  0.65308100  0.56465600  1
  Mg  Mg118  1  0.00721400  0.84691900  0.58227700  1
  Mg  Mg119  1  0.82117900  0.34691900  0.61716200  1
  Mg  Mg120  1  0.01318600  0.94424700  0.64931100  1
  Mg  Mg121  1  0.59799700  0.44424700  0.65873400  1
  Mg  Mg122  1  0.98681400  0.05575300  0.71432600  1
  Mg  Mg123  1  0.40200300  0.55575300  0.70490200  1
  Mg  Mg124  1  0.89156500  0.61223800  0.71001900  1
  Mg  Mg125  1  0.47671200  0.11223800  0.71947900  1
  Mg  Mg126  1  0.10843500  0.38776200  0.65361800  1
  Mg  Mg127  1  0.52328800  0.88776200  0.64415700  1
  Mg  Mg128  1  0.94851700  0.27669700  0.67906400  1
  Mg  Mg129  1  0.54177500  0.77669700  0.68942600  1
  Mg  Mg130  1  0.05148300  0.72330300  0.68457200  1
  Mg  Mg131  1  0.45822500  0.22330300  0.67421000  1
  Mg  Mg132  1  0.23992900  0.82132500  0.66084600  1
  Mg  Mg133  1  0.23413500  0.32132500  0.71575800  1
  Mg  Mg134  1  0.76007100  0.17867500  0.70279000  1
  Mg  Mg135  1  0.76586500  0.67867500  0.64787800  1
  Mg  Mg136  1  0.11291500  0.48719800  0.72072000  1
  Mg  Mg137  1  0.30083100  0.98719800  0.68604400  1
  Mg  Mg138  1  0.88708500  0.51280200  0.64291700  1
  Mg  Mg139  1  0.69916900  0.01280200  0.67759300  1
  Mg  Mg140  1  0.17460400  0.15308100  0.69045000  1
  Mg  Mg141  1  0.36063900  0.65308100  0.65556500  1
  Mg  Mg142  1  0.82539600  0.84691900  0.67318600  1
  Mg  Mg143  1  0.63936100  0.34691900  0.70807100  1
  Mg  Mg144  1  0.83136800  0.94424700  0.74022000  1
  Mg  Mg145  1  0.41617800  0.44424700  0.74964300  1
  Mg  Mg146  1  0.80499600  0.05575300  0.80523500  1
  Mg  Mg147  1  0.22018500  0.55575300  0.79581100  1
  Mg  Mg148  1  0.70974700  0.61223800  0.80092800  1
  Mg  Mg149  1  0.29489400  0.11223800  0.81038800  1
  Mg  Mg150  1  0.92661700  0.38776200  0.74452700  1
  Mg  Mg151  1  0.34147000  0.88776200  0.73506600  1
  Mg  Mg152  1  0.76669900  0.27669700  0.76997300  1
  Mg  Mg153  1  0.35995700  0.77669700  0.78033500  1
  Mg  Mg154  1  0.86966500  0.72330300  0.77548100  1
  Mg  Mg155  1  0.27640700  0.22330300  0.76511900  1
  Mg  Mg156  1  0.05811000  0.82132500  0.75175500  1
  Mg  Mg157  1  0.05231700  0.32132500  0.80666700  1
  Mg  Mg158  1  0.57825300  0.17867500  0.79369900  1
  Mg  Mg159  1  0.58404700  0.67867500  0.73878700  1
  Mg  Mg160  1  0.93109700  0.48719800  0.81162900  1
  Mg  Mg161  1  0.11901300  0.98719800  0.77695300  1
  Mg  Mg162  1  0.70526600  0.51280200  0.73382600  1
  Mg  Mg163  1  0.51735100  0.01280200  0.76850200  1
  Mg  Mg164  1  0.99278600  0.15308100  0.78135900  1
  Mg  Mg165  1  0.17882100  0.65308100  0.74647400  1
  Mg  Mg166  1  0.64357800  0.84691900  0.76409600  1
  Mg  Mg167  1  0.45754200  0.34691900  0.79898100  1
  Au  Au168  1  0.83101400  0.08760800  0.20055400  1
  Au  Au169  1  0.54621900  0.58760800  0.22446600  1
  Au  Au170  1  0.98716800  0.91239200  0.25399100  1
  Au  Au171  1  0.27196300  0.41239200  0.23008000  1
  Au  Au172  1  0.77109300  0.42008800  0.23083800  1
  Au  Au173  1  0.48523800  0.92008800  0.25463200  1
  Au  Au174  1  0.04708900  0.57991200  0.22370700  1
  Au  Au175  1  0.33294300  0.07991200  0.19991300  1
  Au  Au176  1  0.71447400  0.75574700  0.26184300  1
  Au  Au177  1  0.60161800  0.25574700  0.19374800  1
  Au  Au178  1  0.10370800  0.24425300  0.19270300  1
  Au  Au179  1  0.21656400  0.74425300  0.26079800  1
  Au  Au180  1  0.64919600  0.08760800  0.29146300  1
  Au  Au181  1  0.36440100  0.58760800  0.31537500  1
  Au  Au182  1  0.80534900  0.91239200  0.34490100  1
  Au  Au183  1  0.09014500  0.41239200  0.32098900  1
  Au  Au184  1  0.58927500  0.42008800  0.32174700  1
  Au  Au185  1  0.30342000  0.92008800  0.34554100  1
  Au  Au186  1  0.86527100  0.57991200  0.31461600  1
  Au  Au187  1  0.15112500  0.07991200  0.29082200  1
  Au  Au188  1  0.53265500  0.75574700  0.35275200  1
  Au  Au189  1  0.41980000  0.25574700  0.28465700  1
  Au  Au190  1  0.92189000  0.24425300  0.28361200  1
  Au  Au191  1  0.03474500  0.74425300  0.35170700  1
  Au  Au192  1  0.46737800  0.08760800  0.38237200  1
  Au  Au193  1  0.18258300  0.58760800  0.40628400  1
  Au  Au194  1  0.62353100  0.91239200  0.43581000  1
  Au  Au195  1  0.90832600  0.41239200  0.41189800  1
  Au  Au196  1  0.40745700  0.42008800  0.41265700  1
  Au  Au197  1  0.12160200  0.92008800  0.43645000  1
  Au  Au198  1  0.68345200  0.57991200  0.40552500  1
  Au  Au199  1  0.96930700  0.07991200  0.38173100  1
  Au  Au200  1  0.35083700  0.75574700  0.44366100  1
  Au  Au201  1  0.23798200  0.25574700  0.37556600  1
  Au  Au202  1  0.74007200  0.24425300  0.37452100  1
  Au  Au203  1  0.85292700  0.74425300  0.44261600  1
  Au  Au204  1  0.28556000  0.08760800  0.47328100  1
  Au  Au205  1  0.00076500  0.58760800  0.49719300  1
  Au  Au206  1  0.44171300  0.91239200  0.52671900  1
  Au  Au207  1  0.72650800  0.41239200  0.50280700  1
  Au  Au208  1  0.22563900  0.42008800  0.50356600  1
  Au  Au209  1  0.93978400  0.92008800  0.52736000  1
  Au  Au210  1  0.50163400  0.57991200  0.49643400  1
  Au  Au211  1  0.78748900  0.07991200  0.47264000  1
  Au  Au212  1  0.16901900  0.75574700  0.53457000  1
  Au  Au213  1  0.05616400  0.25574700  0.46647500  1
  Au  Au214  1  0.55825400  0.24425300  0.46543000  1
  Au  Au215  1  0.67110900  0.74425300  0.53352500  1
  Au  Au216  1  0.10374100  0.08760800  0.56419000  1
  Au  Au217  1  0.81894600  0.58760800  0.58810200  1
  Au  Au218  1  0.25989500  0.91239200  0.61762800  1
  Au  Au219  1  0.54469000  0.41239200  0.59371600  1
  Au  Au220  1  0.04382000  0.42008800  0.59447500  1
  Au  Au221  1  0.75796600  0.92008800  0.61826900  1
  Au  Au222  1  0.31981600  0.57991200  0.58734300  1
  Au  Au223  1  0.60567100  0.07991200  0.56355000  1
  Au  Au224  1  0.98720100  0.75574700  0.62547900  1
  Au  Au225  1  0.87434500  0.25574700  0.55738400  1
  Au  Au226  1  0.37643500  0.24425300  0.55633900  1
  Au  Au227  1  0.48929100  0.74425300  0.62443400  1
  Au  Au228  1  0.92192300  0.08760800  0.65509900  1
  Au  Au229  1  0.63712800  0.58760800  0.67901100  1
  Au  Au230  1  0.07807700  0.91239200  0.70853700  1
  Au  Au231  1  0.36287200  0.41239200  0.68462500  1
  Au  Au232  1  0.86200200  0.42008800  0.68538400  1
  Au  Au233  1  0.57614700  0.92008800  0.70917800  1
  Au  Au234  1  0.13799800  0.57991200  0.67825300  1
  Au  Au235  1  0.42385300  0.07991200  0.65445900  1
  Au  Au236  1  0.80538300  0.75574700  0.71638800  1
  Au  Au237  1  0.69252700  0.25574700  0.64829300  1
  Au  Au238  1  0.19461700  0.24425300  0.64724800  1
  Au  Au239  1  0.30747300  0.74425300  0.71534300  1
  Au  Au240  1  0.74010500  0.08760800  0.74600900  1
  Au  Au241  1  0.45531000  0.58760800  0.76992000  1
  Au  Au242  1  0.89625900  0.91239200  0.79944600  1
  Au  Au243  1  0.18105400  0.41239200  0.77553400  1
  Au  Au244  1  0.68018400  0.42008800  0.77629300  1
  Au  Au245  1  0.39432900  0.92008800  0.80008700  1
  Au  Au246  1  0.95618000  0.57991200  0.76916200  1
  Au  Au247  1  0.24203400  0.07991200  0.74536800  1
  Au  Au248  1  0.62356500  0.75574700  0.80729700  1
  Au  Au249  1  0.51070900  0.25574700  0.73920200  1
  Au  Au250  1  0.01279900  0.24425300  0.73815700  1
  Au  Au251  1  0.12565500  0.74425300  0.80625200  1
