# generated using pymatgen
data_Mg15Sc8
_symmetry_space_group_name_H-M   'P 1'
_cell_length_a   5.20787600
_cell_length_b   8.45453137
_cell_length_c   41.48543700
_cell_angle_alpha   90.44880010
_cell_angle_beta   90.00000000
_cell_angle_gamma   90.00000000
_symmetry_Int_Tables_number   1
_chemical_formula_structural   Mg15Sc8
_chemical_formula_sum   'Mg30 Sc16'
_cell_volume   1826.55401880
_cell_formula_units_Z   2
loop_
 _symmetry_equiv_pos_site_id
 _symmetry_equiv_pos_as_xyz
  1  'x, y, z'
loop_
 _atom_site_type_symbol
 _atom_site_label
 _atom_site_symmetry_multiplicity
 _atom_site_fract_x
 _atom_site_fract_y
 _atom_site_fract_z
 _atom_site_occupancy
  Mg  Mg0  1  0.25000000  0.95485100  0.73513900  1
  Mg  Mg1  1  0.25000000  0.31381800  0.76078100  1
  Mg  Mg2  1  0.75000000  0.53232900  0.75204000  1
  Mg  Mg3  1  0.75000000  0.25028500  0.80332200  1
  Mg  Mg4  1  0.25000000  0.87792800  0.65821600  1
  Mg  Mg5  1  0.25000000  0.23689500  0.68385800  1
  Mg  Mg6  1  0.75000000  0.45540500  0.67511700  1
  Mg  Mg7  1  0.75000000  0.17336200  0.72639900  1
  Mg  Mg8  1  0.25000000  0.80100500  0.58129300  1
  Mg  Mg9  1  0.25000000  0.15997100  0.60693400  1
  Mg  Mg10  1  0.75000000  0.37848200  0.59819400  1
  Mg  Mg11  1  0.75000000  0.09643900  0.64947600  1
  Mg  Mg12  1  0.25000000  0.72408200  0.50437000  1
  Mg  Mg13  1  0.25000000  0.08304800  0.53001100  1
  Mg  Mg14  1  0.75000000  0.30155900  0.52127100  1
  Mg  Mg15  1  0.75000000  0.01951600  0.57255300  1
  Mg  Mg16  1  0.25000000  0.64715900  0.42744700  1
  Mg  Mg17  1  0.25000000  0.00612500  0.45308800  1
  Mg  Mg18  1  0.75000000  0.22463600  0.44434800  1
  Mg  Mg19  1  0.75000000  0.94259300  0.49563000  1
  Mg  Mg20  1  0.25000000  0.57023600  0.35052400  1
  Mg  Mg21  1  0.25000000  0.92920200  0.37616500  1
  Mg  Mg22  1  0.75000000  0.14771300  0.36742500  1
  Mg  Mg23  1  0.75000000  0.86567000  0.41870700  1
  Mg  Mg24  1  0.25000000  0.49331200  0.27360100  1
  Mg  Mg25  1  0.25000000  0.85227900  0.29924200  1
  Mg  Mg26  1  0.75000000  0.07079000  0.29050200  1
  Mg  Mg27  1  0.75000000  0.78874700  0.34178300  1
  Mg  Mg28  1  0.25000000  0.77535600  0.22231900  1
  Mg  Mg29  1  0.75000000  0.71182300  0.26486000  1
  Sc  Sc30  1  0.25000000  0.67305400  0.78641100  1
  Sc  Sc31  1  0.75000000  0.89104800  0.77769100  1
  Sc  Sc32  1  0.25000000  0.59613100  0.70948800  1
  Sc  Sc33  1  0.75000000  0.81412500  0.70076800  1
  Sc  Sc34  1  0.25000000  0.51920800  0.63256500  1
  Sc  Sc35  1  0.75000000  0.73720200  0.62384500  1
  Sc  Sc36  1  0.25000000  0.44228500  0.55564200  1
  Sc  Sc37  1  0.75000000  0.66027900  0.54692200  1
  Sc  Sc38  1  0.25000000  0.36536200  0.47871900  1
  Sc  Sc39  1  0.75000000  0.58335600  0.46999900  1
  Sc  Sc40  1  0.25000000  0.28843900  0.40179600  1
  Sc  Sc41  1  0.75000000  0.50643300  0.39307600  1
  Sc  Sc42  1  0.25000000  0.21151600  0.32487300  1
  Sc  Sc43  1  0.75000000  0.42951000  0.31615300  1
  Sc  Sc44  1  0.25000000  0.13459300  0.24795000  1
  Sc  Sc45  1  0.75000000  0.35258700  0.23923000  1
