# generated using pymatgen
data_CaMg3
_symmetry_space_group_name_H-M   'P 1'
_cell_length_a   5.29835000
_cell_length_b   6.85063100
_cell_length_c   47.46256700
_cell_angle_alpha   90.00000000
_cell_angle_beta   90.00000000
_cell_angle_gamma   90.00000000
_symmetry_Int_Tables_number   1
_chemical_formula_structural   CaMg3
_chemical_formula_sum   'Ca10 Mg30'
_cell_volume   1722.75072892
_cell_formula_units_Z   10
loop_
 _symmetry_equiv_pos_site_id
 _symmetry_equiv_pos_as_xyz
  1  'x, y, z'
loop_
 _atom_site_type_symbol
 _atom_site_label
 _atom_site_symmetry_multiplicity
 _atom_site_fract_x
 _atom_site_fract_y
 _atom_site_fract_z
 _atom_site_occupancy
  Ca  Ca0  1  0.75000000  0.00000000  0.27083300  1
  Ca  Ca1  1  0.25000000  0.50000000  0.22916700  1
  Ca  Ca2  1  0.75000000  0.50000000  0.39583300  1
  Ca  Ca3  1  0.25000000  0.00000000  0.35416700  1
  Ca  Ca4  1  0.75000000  0.00000000  0.52083300  1
  Ca  Ca5  1  0.25000000  0.50000000  0.47916700  1
  Ca  Ca6  1  0.75000000  0.50000000  0.64583300  1
  Ca  Ca7  1  0.25000000  0.00000000  0.60416700  1
  Ca  Ca8  1  0.75000000  0.00000000  0.77083300  1
  Ca  Ca9  1  0.25000000  0.50000000  0.72916700  1
  Mg  Mg10  1  0.75000000  0.24096000  0.20758000  1
  Mg  Mg11  1  0.75000000  0.50000000  0.27234000  1
  Mg  Mg12  1  0.75000000  0.75904000  0.20758000  1
  Mg  Mg13  1  0.25000000  0.74096000  0.29242000  1
  Mg  Mg14  1  0.25000000  0.25904000  0.29242000  1
  Mg  Mg15  1  0.25000000  0.00000000  0.22766000  1
  Mg  Mg16  1  0.75000000  0.74096000  0.33258000  1
  Mg  Mg17  1  0.75000000  0.00000000  0.39734000  1
  Mg  Mg18  1  0.75000000  0.25904000  0.33258000  1
  Mg  Mg19  1  0.25000000  0.24096000  0.41742000  1
  Mg  Mg20  1  0.25000000  0.75904000  0.41742000  1
  Mg  Mg21  1  0.25000000  0.50000000  0.35266000  1
  Mg  Mg22  1  0.75000000  0.24096000  0.45758000  1
  Mg  Mg23  1  0.75000000  0.50000000  0.52234000  1
  Mg  Mg24  1  0.75000000  0.75904000  0.45758000  1
  Mg  Mg25  1  0.25000000  0.74096000  0.54242000  1
  Mg  Mg26  1  0.25000000  0.25904000  0.54242000  1
  Mg  Mg27  1  0.25000000  0.00000000  0.47766000  1
  Mg  Mg28  1  0.75000000  0.74096000  0.58258000  1
  Mg  Mg29  1  0.75000000  1.00000000  0.64734000  1
  Mg  Mg30  1  0.75000000  0.25904000  0.58258000  1
  Mg  Mg31  1  0.25000000  0.24096000  0.66742000  1
  Mg  Mg32  1  0.25000000  0.75904000  0.66742000  1
  Mg  Mg33  1  0.25000000  0.50000000  0.60266000  1
  Mg  Mg34  1  0.75000000  0.24096000  0.70758000  1
  Mg  Mg35  1  0.75000000  0.50000000  0.77234000  1
  Mg  Mg36  1  0.75000000  0.75904000  0.70758000  1
  Mg  Mg37  1  0.25000000  0.74096000  0.79242000  1
  Mg  Mg38  1  0.25000000  0.25904000  0.79242000  1
  Mg  Mg39  1  0.25000000  0.00000000  0.72766000  1
