# generated using pymatgen
data_Mg19Au9
_symmetry_space_group_name_H-M   'P 1'
_cell_length_a   4.38771400
_cell_length_b   20.77822484
_cell_length_c   46.87993600
_cell_angle_alpha   90.57431790
_cell_angle_beta   90.00000000
_cell_angle_gamma   90.00000000
_symmetry_Int_Tables_number   1
_chemical_formula_structural   Mg19Au9
_chemical_formula_sum   'Mg76 Au36'
_cell_volume   4273.77785998
_cell_formula_units_Z   4
loop_
 _symmetry_equiv_pos_site_id
 _symmetry_equiv_pos_as_xyz
  1  'x, y, z'
loop_
 _atom_site_type_symbol
 _atom_site_label
 _atom_site_symmetry_multiplicity
 _atom_site_fract_x
 _atom_site_fract_y
 _atom_site_fract_z
 _atom_site_occupancy
  Mg  Mg0  1  0.75000000  0.39370000  0.32472800  1
  Mg  Mg1  1  0.25000000  0.28350300  0.32342000  1
  Mg  Mg2  1  0.75000000  0.02049400  0.32085600  1
  Mg  Mg3  1  0.25000000  0.65670800  0.32729200  1
  Mg  Mg4  1  0.75000000  0.87642400  0.34200400  1
  Mg  Mg5  1  0.75000000  0.22703300  0.49139500  1
  Mg  Mg6  1  0.25000000  0.63411200  0.47281100  1
  Mg  Mg7  1  0.25000000  0.11683600  0.49008700  1
  Mg  Mg8  1  0.75000000  0.15306400  0.39737300  1
  Mg  Mg9  1  0.75000000  0.67040900  0.38002900  1
  Mg  Mg10  1  0.25000000  0.35747200  0.41744100  1
  Mg  Mg11  1  0.25000000  0.84012700  0.43478600  1
  Mg  Mg12  1  0.75000000  0.43185600  0.45412300  1
  Mg  Mg13  1  0.75000000  0.95085300  0.43512600  1
  Mg  Mg14  1  0.25000000  0.07868000  0.36069200  1
  Mg  Mg15  1  0.25000000  0.55968300  0.37968900  1
  Mg  Mg16  1  0.75000000  0.85382800  0.48752200  1
  Mg  Mg17  1  0.75000000  0.45449900  0.38685100  1
  Mg  Mg18  1  0.25000000  0.49004200  0.49395900  1
  Mg  Mg19  1  0.25000000  0.05603700  0.42796400  1
  Mg  Mg20  1  0.75000000  0.29772300  0.37775500  1
  Mg  Mg21  1  0.75000000  0.73415000  0.44132800  1
  Mg  Mg22  1  0.25000000  0.21281300  0.43706000  1
  Mg  Mg23  1  0.25000000  0.77638600  0.37348700  1
  Mg  Mg24  1  0.75000000  0.57634500  0.43324900  1
  Mg  Mg25  1  0.75000000  0.17905600  0.33053800  1
  Mg  Mg26  1  0.25000000  0.93419100  0.38156600  1
  Mg  Mg27  1  0.25000000  0.33148000  0.48427600  1
  Mg  Mg28  1  0.75000000  0.70975700  0.50867100  1
  Mg  Mg29  1  0.75000000  0.06036700  0.65806100  1
  Mg  Mg30  1  0.25000000  0.46744500  0.63947700  1
  Mg  Mg31  1  0.25000000  0.95016900  0.65675300  1
  Mg  Mg32  1  0.75000000  0.98639700  0.56404000  1
  Mg  Mg33  1  0.75000000  0.50374200  0.54669500  1
  Mg  Mg34  1  0.25000000  0.19080600  0.58410800  1
  Mg  Mg35  1  0.25000000  0.67346100  0.60145300  1
  Mg  Mg36  1  0.75000000  0.26518900  0.62079000  1
  Mg  Mg37  1  0.75000000  0.78418600  0.60179300  1
  Mg  Mg38  1  0.25000000  0.91201400  0.52735800  1
  Mg  Mg39  1  0.25000000  0.39301700  0.54635500  1
  Mg  Mg40  1  0.75000000  0.68716100  0.65418900  1
  Mg  Mg41  1  0.75000000  0.28783300  0.55351700  1
  Mg  Mg42  1  0.25000000  0.32337500  0.66062600  1
  Mg  Mg43  1  0.25000000  0.88937000  0.59463100  1
  Mg  Mg44  1  0.75000000  0.13105600  0.54442100  1
  Mg  Mg45  1  0.75000000  0.56748400  0.60799400  1
  Mg  Mg46  1  0.25000000  0.04614600  0.60372700  1
  Mg  Mg47  1  0.25000000  0.60971900  0.54015400  1
  Mg  Mg48  1  0.75000000  0.40967800  0.59991600  1
  Mg  Mg49  1  0.75000000  0.01238900  0.49720500  1
  Mg  Mg50  1  0.25000000  0.76752500  0.54823200  1
  Mg  Mg51  1  0.25000000  0.16481400  0.65094300  1
  Mg  Mg52  1  0.75000000  0.54309100  0.67533800  1
  Mg  Mg53  1  0.75000000  0.89370000  0.82472800  1
  Mg  Mg54  1  0.25000000  0.30077900  0.80614400  1
  Mg  Mg55  1  0.25000000  0.78350300  0.82342000  1
  Mg  Mg56  1  0.75000000  0.81973000  0.73070700  1
  Mg  Mg57  1  0.75000000  0.33707500  0.71336200  1
  Mg  Mg58  1  0.25000000  0.02413900  0.75077500  1
  Mg  Mg59  1  0.25000000  0.50679400  0.76812000  1
  Mg  Mg60  1  0.75000000  0.09852200  0.78745600  1
  Mg  Mg61  1  0.75000000  0.61751900  0.76846000  1
  Mg  Mg62  1  0.25000000  0.74534700  0.69402500  1
  Mg  Mg63  1  0.25000000  0.22635000  0.71302200  1
  Mg  Mg64  1  0.75000000  0.52049400  0.82085600  1
  Mg  Mg65  1  0.75000000  0.12116600  0.72018400  1
  Mg  Mg66  1  0.25000000  0.15670800  0.82729200  1
  Mg  Mg67  1  0.25000000  0.72270300  0.76129700  1
  Mg  Mg68  1  0.75000000  0.96439000  0.71108800  1
  Mg  Mg69  1  0.75000000  0.40081700  0.77466100  1
  Mg  Mg70  1  0.25000000  0.87948000  0.77039300  1
  Mg  Mg71  1  0.25000000  0.44305200  0.70682100  1
  Mg  Mg72  1  0.75000000  0.24301100  0.76658300  1
  Mg  Mg73  1  0.75000000  0.84572200  0.66387200  1
  Mg  Mg74  1  0.25000000  0.60085800  0.71489900  1
  Mg  Mg75  1  0.25000000  0.99814700  0.81761000  1
  Au  Au76  1  0.75000000  0.74367500  0.33139200  1
  Au  Au77  1  0.75000000  0.12084700  0.45422000  1
  Au  Au78  1  0.25000000  0.76686100  0.48342300  1
  Au  Au79  1  0.25000000  0.38968900  0.36059400  1
  Au  Au80  1  0.75000000  0.30005000  0.44253700  1
  Au  Au81  1  0.75000000  0.84367200  0.39891500  1
  Au  Au82  1  0.25000000  0.21048600  0.37227800  1
  Au  Au83  1  0.25000000  0.66686400  0.41590000  1
  Au  Au84  1  0.75000000  0.02123200  0.38569600  1
  Au  Au85  1  0.75000000  0.56305800  0.34387000  1
  Au  Au86  1  0.25000000  0.48930400  0.42911900  1
  Au  Au87  1  0.25000000  0.94747800  0.47094500  1
  Au  Au88  1  0.75000000  0.57700900  0.49805800  1
  Au  Au89  1  0.75000000  0.95418000  0.62088700  1
  Au  Au90  1  0.25000000  0.60019400  0.65009000  1
  Au  Au91  1  0.25000000  0.22302300  0.52726100  1
  Au  Au92  1  0.75000000  0.13338300  0.60920400  1
  Au  Au93  1  0.75000000  0.67700500  0.56558200  1
  Au  Au94  1  0.25000000  0.04382000  0.53894400  1
  Au  Au95  1  0.25000000  0.50019700  0.58256700  1
  Au  Au96  1  0.75000000  0.85456600  0.55236200  1
  Au  Au97  1  0.75000000  0.39639100  0.51053700  1
  Au  Au98  1  0.25000000  0.32263700  0.59578600  1
  Au  Au99  1  0.25000000  0.78081100  0.63761200  1
  Au  Au100  1  0.75000000  0.41034200  0.66472500  1
  Au  Au101  1  0.75000000  0.78751300  0.78755400  1
  Au  Au102  1  0.25000000  0.43352700  0.81675600  1
  Au  Au103  1  0.25000000  0.05635600  0.69392800  1
  Au  Au104  1  0.75000000  0.96671700  0.77587000  1
  Au  Au105  1  0.75000000  0.51033900  0.73224800  1
  Au  Au106  1  0.25000000  0.87715300  0.70561100  1
  Au  Au107  1  0.25000000  0.33353100  0.74923300  1
  Au  Au108  1  0.75000000  0.68789900  0.71902900  1
  Au  Au109  1  0.75000000  0.22972500  0.67720300  1
  Au  Au110  1  0.25000000  0.15597000  0.76245200  1
  Au  Au111  1  0.25000000  0.61414500  0.80427800  1
