# generated using pymatgen
data_Mg19Hg9
_symmetry_space_group_name_H-M   'P 1'
_cell_length_a   4.75496500
_cell_length_b   10.73367025
_cell_length_c   41.14994800
_cell_angle_alpha   87.73861022
_cell_angle_beta   90.00000000
_cell_angle_gamma   90.00000000
_symmetry_Int_Tables_number   1
_chemical_formula_structural   Mg19Hg9
_chemical_formula_sum   'Mg38 Hg18'
_cell_volume   2098.58473503
_cell_formula_units_Z   2
loop_
 _symmetry_equiv_pos_site_id
 _symmetry_equiv_pos_as_xyz
  1  'x, y, z'
loop_
 _atom_site_type_symbol
 _atom_site_label
 _atom_site_symmetry_multiplicity
 _atom_site_fract_x
 _atom_site_fract_y
 _atom_site_fract_z
 _atom_site_occupancy
  Mg  Mg0  1  0.75000000  0.53755100  0.23884100  1
  Mg  Mg1  1  0.25000000  0.92268300  0.30282600  1
  Mg  Mg2  1  0.25000000  0.33541600  0.25639400  1
  Mg  Mg3  1  0.75000000  0.12481800  0.28527300  1
  Mg  Mg4  1  0.25000000  0.75794100  0.24089900  1
  Mg  Mg5  1  0.75000000  0.70229300  0.30076800  1
  Mg  Mg6  1  0.75000000  0.39823000  0.31097700  1
  Mg  Mg7  1  0.25000000  0.68700400  0.35569000  1
  Mg  Mg8  1  0.75000000  0.16255100  0.36384100  1
  Mg  Mg9  1  0.25000000  0.54768300  0.42782600  1
  Mg  Mg10  1  0.25000000  0.96041600  0.38139400  1
  Mg  Mg11  1  0.75000000  0.74981800  0.41027300  1
  Mg  Mg12  1  0.25000000  0.38294100  0.36589900  1
  Mg  Mg13  1  0.75000000  0.32729300  0.42576800  1
  Mg  Mg14  1  0.75000000  0.02323000  0.43597700  1
  Mg  Mg15  1  0.25000000  0.31200400  0.48069000  1
  Mg  Mg16  1  0.75000000  0.78755100  0.48884100  1
  Mg  Mg17  1  0.25000000  0.17268300  0.55282600  1
  Mg  Mg18  1  0.25000000  0.58541600  0.50639400  1
  Mg  Mg19  1  0.75000000  0.37481800  0.53527300  1
  Mg  Mg20  1  0.25000000  0.00794100  0.49089900  1
  Mg  Mg21  1  0.75000000  0.95229300  0.55076800  1
  Mg  Mg22  1  0.75000000  0.64823000  0.56097700  1
  Mg  Mg23  1  0.25000000  0.93700400  0.60569000  1
  Mg  Mg24  1  0.75000000  0.41255100  0.61384100  1
  Mg  Mg25  1  0.25000000  0.79768300  0.67782600  1
  Mg  Mg26  1  0.25000000  0.21041600  0.63139400  1
  Mg  Mg27  1  0.75000000  0.99981800  0.66027300  1
  Mg  Mg28  1  0.25000000  0.63294100  0.61589900  1
  Mg  Mg29  1  0.75000000  0.57729300  0.67576800  1
  Mg  Mg30  1  0.75000000  0.27323000  0.68597700  1
  Mg  Mg31  1  0.25000000  0.56200400  0.73069000  1
  Mg  Mg32  1  0.75000000  0.03755100  0.73884100  1
  Mg  Mg33  1  0.25000000  0.42268300  0.80282600  1
  Mg  Mg34  1  0.25000000  0.83541600  0.75639400  1
  Mg  Mg35  1  0.75000000  0.62481800  0.78527300  1
  Mg  Mg36  1  0.25000000  0.25794100  0.74089900  1
  Mg  Mg37  1  0.75000000  0.20229300  0.80076800  1
  Hg  Hg38  1  0.75000000  0.90280800  0.24942400  1
  Hg  Hg39  1  0.25000000  0.55742700  0.29224300  1
  Hg  Hg40  1  0.75000000  0.52780800  0.37442400  1
  Hg  Hg41  1  0.25000000  0.18242700  0.41724300  1
  Hg  Hg42  1  0.75000000  0.89223000  0.34730800  1
  Hg  Hg43  1  0.25000000  0.19300400  0.31935800  1
  Hg  Hg44  1  0.75000000  0.15280800  0.49942400  1
  Hg  Hg45  1  0.25000000  0.80742700  0.54224300  1
  Hg  Hg46  1  0.75000000  0.51723000  0.47230800  1
  Hg  Hg47  1  0.25000000  0.81800400  0.44435800  1
  Hg  Hg48  1  0.75000000  0.77780800  0.62442400  1
  Hg  Hg49  1  0.25000000  0.43242700  0.66724300  1
  Hg  Hg50  1  0.75000000  0.14223000  0.59730800  1
  Hg  Hg51  1  0.25000000  0.44300400  0.56935800  1
  Hg  Hg52  1  0.75000000  0.40280800  0.74942400  1
  Hg  Hg53  1  0.25000000  0.05742700  0.79224300  1
  Hg  Hg54  1  0.75000000  0.76723000  0.72230800  1
  Hg  Hg55  1  0.25000000  0.06800400  0.69435800  1
