# generated using pymatgen
data_MgB7
_symmetry_space_group_name_H-M   'P 1'
_cell_length_a   10.07244113
_cell_length_b   12.05234828
_cell_length_c   43.84258900
_cell_angle_alpha   85.56912893
_cell_angle_beta   87.53461614
_cell_angle_gamma   72.91219278
_symmetry_Int_Tables_number   1
_chemical_formula_structural   MgB7
_chemical_formula_sum   'Mg48 B336'
_cell_volume   5071.03078932
_cell_formula_units_Z   48
loop_
 _symmetry_equiv_pos_site_id
 _symmetry_equiv_pos_as_xyz
  1  'x, y, z'
loop_
 _atom_site_type_symbol
 _atom_site_label
 _atom_site_symmetry_multiplicity
 _atom_site_fract_x
 _atom_site_fract_y
 _atom_site_fract_z
 _atom_site_occupancy
  Mg  Mg0  1  0.17500000  0.70000000  0.22500000  1
  Mg  Mg1  1  0.02500000  0.60000000  0.27500000  1
  Mg  Mg2  1  0.33025700  0.22706900  0.21146500  1
  Mg  Mg3  1  0.36974300  0.57293100  0.28853500  1
  Mg  Mg4  1  0.52500000  0.10000000  0.27500000  1
  Mg  Mg5  1  0.67500000  0.20000000  0.22500000  1
  Mg  Mg6  1  0.68025700  0.62706900  0.26146500  1
  Mg  Mg7  1  0.01974300  0.17293100  0.23853500  1
  Mg  Mg8  1  0.87500000  0.50000000  0.32500000  1
  Mg  Mg9  1  0.72500000  0.40000000  0.37500000  1
  Mg  Mg10  1  0.03025700  0.02706900  0.31146500  1
  Mg  Mg11  1  0.06974300  0.37293100  0.38853500  1
  Mg  Mg12  1  0.22500000  0.90000000  0.37500000  1
  Mg  Mg13  1  0.37500000  0.00000000  0.32500000  1
  Mg  Mg14  1  0.38025700  0.42706900  0.36146500  1
  Mg  Mg15  1  0.71974300  0.97293100  0.33853500  1
  Mg  Mg16  1  0.57500000  0.30000000  0.42500000  1
  Mg  Mg17  1  0.42500000  0.20000000  0.47500000  1
  Mg  Mg18  1  0.73025700  0.82706900  0.41146500  1
  Mg  Mg19  1  0.76974300  0.17293100  0.48853500  1
  Mg  Mg20  1  0.92500000  0.70000000  0.47500000  1
  Mg  Mg21  1  0.07500000  0.80000000  0.42500000  1
  Mg  Mg22  1  0.08025700  0.22706900  0.46146500  1
  Mg  Mg23  1  0.41974300  0.77293100  0.43853500  1
  Mg  Mg24  1  0.27500000  0.10000000  0.52500000  1
  Mg  Mg25  1  0.12500000  0.00000000  0.57500000  1
  Mg  Mg26  1  0.43025700  0.62706900  0.51146500  1
  Mg  Mg27  1  0.46974300  0.97293100  0.58853500  1
  Mg  Mg28  1  0.62500000  0.50000000  0.57500000  1
  Mg  Mg29  1  0.77500000  0.60000000  0.52500000  1
  Mg  Mg30  1  0.78025700  0.02706900  0.56146500  1
  Mg  Mg31  1  0.11974300  0.57293100  0.53853500  1
  Mg  Mg32  1  0.97500000  0.90000000  0.62500000  1
  Mg  Mg33  1  0.82500000  0.80000000  0.67500000  1
  Mg  Mg34  1  0.13025700  0.42706900  0.61146500  1
  Mg  Mg35  1  0.16974300  0.77293100  0.68853500  1
  Mg  Mg36  1  0.32500000  0.30000000  0.67500000  1
  Mg  Mg37  1  0.47500000  0.40000000  0.62500000  1
  Mg  Mg38  1  0.48025700  0.82706900  0.66146500  1
  Mg  Mg39  1  0.81974300  0.37293100  0.63853500  1
  Mg  Mg40  1  0.67500000  0.70000000  0.72500000  1
  Mg  Mg41  1  0.52500000  0.60000000  0.77500000  1
  Mg  Mg42  1  0.83025700  0.22706900  0.71146500  1
  Mg  Mg43  1  0.86974300  0.57293100  0.78853500  1
  Mg  Mg44  1  0.02500000  0.10000000  0.77500000  1
  Mg  Mg45  1  0.17500000  0.20000000  0.72500000  1
  Mg  Mg46  1  0.18025700  0.62706900  0.76146500  1
  Mg  Mg47  1  0.51974300  0.17293100  0.73853500  1
  B  B48  1  0.53853200  0.08934900  0.22557600  1
  B  B49  1  0.43193800  0.00264500  0.23759400  1
  B  B50  1  0.28397200  0.90400100  0.28691700  1
  B  B51  1  0.25125000  0.86943100  0.22413600  1
  B  B52  1  0.28309000  0.03778300  0.26417500  1
  B  B53  1  0.26318200  0.01471100  0.22446700  1
  B  B54  1  0.16984700  0.95248800  0.25557900  1
  B  B55  1  0.99812800  0.79889400  0.25940400  1
  B  B56  1  0.47283300  0.26454700  0.24747600  1
  B  B57  1  0.23277000  0.17197100  0.28094800  1
  B  B58  1  0.32863900  0.27811100  0.27202800  1
  B  B59  1  0.48067200  0.37946600  0.22135000  1
  B  B60  1  0.99196600  0.94934400  0.25715000  1
  B  B61  1  0.89863100  0.88712100  0.28826200  1
  B  B62  1  0.80136900  0.91287900  0.21173800  1
  B  B63  1  0.70803400  0.85065600  0.24285000  1
  B  B64  1  0.21932800  0.42053400  0.27865000  1
  B  B65  1  0.37136100  0.52188900  0.22797200  1
  B  B66  1  0.46723000  0.62802900  0.21905200  1
  B  B67  1  0.22716700  0.53545300  0.25252400  1
  B  B68  1  0.70187200  0.00110600  0.24059600  1
  B  B69  1  0.53015300  0.84751200  0.24442100  1
  B  B70  1  0.43681800  0.78528900  0.27553300  1
  B  B71  1  0.41691000  0.76221700  0.23582500  1
  B  B72  1  0.44875000  0.93056900  0.27586400  1
  B  B73  1  0.41602800  0.89599900  0.21308300  1
  B  B74  1  0.26806200  0.79735500  0.26240600  1
  B  B75  1  0.16146800  0.71065100  0.27442400  1
  B  B76  1  0.88853200  0.48934900  0.27557600  1
  B  B77  1  0.78193800  0.40264500  0.28759400  1
  B  B78  1  0.93397200  0.50400100  0.23691700  1
  B  B79  1  0.60125000  0.26943100  0.27413600  1
  B  B80  1  0.93309000  0.63778300  0.21417500  1
  B  B81  1  0.61318200  0.41471100  0.27446700  1
  B  B82  1  0.81984700  0.55248800  0.20557900  1
  B  B83  1  0.64812800  0.39889400  0.20940400  1
  B  B84  1  0.82283300  0.66454700  0.29747600  1
  B  B85  1  0.88277000  0.77197100  0.23094800  1
  B  B86  1  0.97863900  0.87811100  0.22202800  1
  B  B87  1  0.83067200  0.77946600  0.27135000  1
  B  B88  1  0.64196600  0.54934400  0.20715000  1
  B  B89  1  0.54863100  0.48712100  0.23826200  1
  B  B90  1  0.15136900  0.31287900  0.26173800  1
  B  B91  1  0.05803400  0.25065600  0.29285000  1
  B  B92  1  0.86932800  0.02053400  0.22865000  1
  B  B93  1  0.72136100  0.92188900  0.27797200  1
  B  B94  1  0.81723000  0.02802900  0.26905200  1
  B  B95  1  0.87716700  0.13545300  0.20252400  1
  B  B96  1  0.05187200  0.40110600  0.29059600  1
  B  B97  1  0.88015300  0.24751200  0.29442100  1
  B  B98  1  0.08681800  0.38528900  0.22553300  1
  B  B99  1  0.76691000  0.16221700  0.28582500  1
  B  B100  1  0.09875000  0.53056900  0.22586400  1
  B  B101  1  0.76602800  0.29599900  0.26308300  1
  B  B102  1  0.91806200  0.39735500  0.21240600  1
  B  B103  1  0.81146800  0.31065100  0.22442400  1
  B  B104  1  0.23853200  0.88934900  0.32557600  1
  B  B105  1  0.13193800  0.80264500  0.33759400  1
  B  B106  1  0.98397200  0.70400100  0.38691700  1
  B  B107  1  0.95125000  0.66943100  0.32413600  1
  B  B108  1  0.98309000  0.83778300  0.36417500  1
  B  B109  1  0.96318200  0.81471100  0.32446700  1
  B  B110  1  0.86984700  0.75248800  0.35557900  1
  B  B111  1  0.69812800  0.59889400  0.35940400  1
  B  B112  1  0.17283300  0.06454700  0.34747600  1
  B  B113  1  0.93277000  0.97197100  0.38094800  1
  B  B114  1  0.02863900  0.07811100  0.37202800  1
  B  B115  1  0.18067200  0.17946600  0.32135000  1
  B  B116  1  0.69196600  0.74934400  0.35715000  1
  B  B117  1  0.59863100  0.68712100  0.38826200  1
  B  B118  1  0.50136900  0.71287900  0.31173800  1
  B  B119  1  0.40803400  0.65065600  0.34285000  1
  B  B120  1  0.91932800  0.22053400  0.37865000  1
  B  B121  1  0.07136100  0.32188900  0.32797200  1
  B  B122  1  0.16723000  0.42802900  0.31905200  1
  B  B123  1  0.92716700  0.33545300  0.35252400  1
  B  B124  1  0.40187200  0.80110600  0.34059600  1
  B  B125  1  0.23015300  0.64751200  0.34442100  1
  B  B126  1  0.13681800  0.58528900  0.37553300  1
  B  B127  1  0.11691000  0.56221700  0.33582500  1
  B  B128  1  0.14875000  0.73056900  0.37586400  1
  B  B129  1  0.11602800  0.69599900  0.31308300  1
  B  B130  1  0.96806200  0.59735500  0.36240600  1
  B  B131  1  0.86146800  0.51065100  0.37442400  1
  B  B132  1  0.58853200  0.28934900  0.37557600  1
  B  B133  1  0.48193800  0.20264500  0.38759400  1
  B  B134  1  0.63397200  0.30400100  0.33691700  1
  B  B135  1  0.30125000  0.06943100  0.37413600  1
  B  B136  1  0.63309000  0.43778300  0.31417500  1
  B  B137  1  0.31318200  0.21471100  0.37446700  1
  B  B138  1  0.51984700  0.35248800  0.30557900  1
  B  B139  1  0.34812800  0.19889400  0.30940400  1
  B  B140  1  0.52283300  0.46454700  0.39747600  1
  B  B141  1  0.58277000  0.57197100  0.33094800  1
  B  B142  1  0.67863900  0.67811100  0.32202800  1
  B  B143  1  0.53067200  0.57946600  0.37135000  1
  B  B144  1  0.34196600  0.34934400  0.30715000  1
  B  B145  1  0.24863100  0.28712100  0.33826200  1
  B  B146  1  0.85136900  0.11287900  0.36173800  1
  B  B147  1  0.75803400  0.05065600  0.39285000  1
  B  B148  1  0.56932800  0.82053400  0.32865000  1
  B  B149  1  0.42136100  0.72188900  0.37797200  1
  B  B150  1  0.51723000  0.82802900  0.36905200  1
  B  B151  1  0.57716700  0.93545300  0.30252400  1
  B  B152  1  0.75187200  0.20110600  0.39059600  1
  B  B153  1  0.58015300  0.04751200  0.39442100  1
  B  B154  1  0.78681800  0.18528900  0.32553300  1
  B  B155  1  0.46691000  0.96221700  0.38582500  1
  B  B156  1  0.79875000  0.33056900  0.32586400  1
  B  B157  1  0.46602800  0.09599900  0.36308300  1
  B  B158  1  0.61806200  0.19735500  0.31240600  1
  B  B159  1  0.51146800  0.11065100  0.32442400  1
  B  B160  1  0.93853200  0.68934900  0.42557600  1
  B  B161  1  0.83193800  0.60264500  0.43759400  1
  B  B162  1  0.68397200  0.50400100  0.48691700  1
  B  B163  1  0.65125000  0.46943100  0.42413600  1
  B  B164  1  0.68309000  0.63778300  0.46417500  1
  B  B165  1  0.66318200  0.61471100  0.42446700  1
  B  B166  1  0.56984700  0.55248800  0.45557900  1
  B  B167  1  0.39812800  0.39889400  0.45940400  1
  B  B168  1  0.87283300  0.86454700  0.44747600  1
  B  B169  1  0.63277000  0.77197100  0.48094800  1
  B  B170  1  0.72863900  0.87811100  0.47202800  1
  B  B171  1  0.88067200  0.97946600  0.42135000  1
  B  B172  1  0.39196600  0.54934400  0.45715000  1
  B  B173  1  0.29863100  0.48712100  0.48826200  1
  B  B174  1  0.20136900  0.51287900  0.41173800  1
  B  B175  1  0.10803400  0.45065600  0.44285000  1
  B  B176  1  0.61932800  0.02053400  0.47865000  1
  B  B177  1  0.77136100  0.12188900  0.42797200  1
  B  B178  1  0.86723000  0.22802900  0.41905200  1
  B  B179  1  0.62716700  0.13545300  0.45252400  1
  B  B180  1  0.10187200  0.60110600  0.44059600  1
  B  B181  1  0.93015300  0.44751200  0.44442100  1
  B  B182  1  0.83681800  0.38528900  0.47553300  1
  B  B183  1  0.81691000  0.36221700  0.43582500  1
  B  B184  1  0.84875000  0.53056900  0.47586400  1
  B  B185  1  0.81602800  0.49599900  0.41308300  1
  B  B186  1  0.66806200  0.39735500  0.46240600  1
  B  B187  1  0.56146800  0.31065100  0.47442400  1
  B  B188  1  0.28853200  0.08934900  0.47557600  1
  B  B189  1  0.18193800  0.00264500  0.48759400  1
  B  B190  1  0.33397200  0.10400100  0.43691700  1
  B  B191  1  0.00125000  0.86943100  0.47413600  1
  B  B192  1  0.33309000  0.23778300  0.41417500  1
  B  B193  1  0.01318200  0.01471100  0.47446700  1
  B  B194  1  0.21984700  0.15248800  0.40557900  1
  B  B195  1  0.04812800  0.99889400  0.40940400  1
  B  B196  1  0.22283300  0.26454700  0.49747600  1
  B  B197  1  0.28277000  0.37197100  0.43094800  1
  B  B198  1  0.37863900  0.47811100  0.42202800  1
  B  B199  1  0.23067200  0.37946600  0.47135000  1
  B  B200  1  0.04196600  0.14934400  0.40715000  1
  B  B201  1  0.94863100  0.08712100  0.43826200  1
  B  B202  1  0.55136900  0.91287900  0.46173800  1
  B  B203  1  0.45803400  0.85065600  0.49285000  1
  B  B204  1  0.26932800  0.62053400  0.42865000  1
  B  B205  1  0.12136100  0.52188900  0.47797200  1
  B  B206  1  0.21723000  0.62802900  0.46905200  1
  B  B207  1  0.27716700  0.73545300  0.40252400  1
  B  B208  1  0.45187200  0.00110600  0.49059600  1
  B  B209  1  0.28015300  0.84751200  0.49442100  1
  B  B210  1  0.48681800  0.98528900  0.42553300  1
  B  B211  1  0.16691000  0.76221700  0.48582500  1
  B  B212  1  0.49875000  0.13056900  0.42586400  1
  B  B213  1  0.16602800  0.89599900  0.46308300  1
  B  B214  1  0.31806200  0.99735500  0.41240600  1
  B  B215  1  0.21146800  0.91065100  0.42442400  1
  B  B216  1  0.63853200  0.48934900  0.52557600  1
  B  B217  1  0.53193800  0.40264500  0.53759400  1
  B  B218  1  0.38397200  0.30400100  0.58691700  1
  B  B219  1  0.35125000  0.26943100  0.52413600  1
  B  B220  1  0.38309000  0.43778300  0.56417500  1
  B  B221  1  0.36318200  0.41471100  0.52446700  1
  B  B222  1  0.26984700  0.35248800  0.55557900  1
  B  B223  1  0.09812800  0.19889400  0.55940400  1
  B  B224  1  0.57283300  0.66454700  0.54747600  1
  B  B225  1  0.33277000  0.57197100  0.58094800  1
  B  B226  1  0.42863900  0.67811100  0.57202800  1
  B  B227  1  0.58067200  0.77946600  0.52135000  1
  B  B228  1  0.09196600  0.34934400  0.55715000  1
  B  B229  1  0.99863100  0.28712100  0.58826200  1
  B  B230  1  0.90136900  0.31287900  0.51173800  1
  B  B231  1  0.80803400  0.25065600  0.54285000  1
  B  B232  1  0.31932800  0.82053400  0.57865000  1
  B  B233  1  0.47136100  0.92188900  0.52797200  1
  B  B234  1  0.56723000  0.02802900  0.51905200  1
  B  B235  1  0.32716700  0.93545300  0.55252400  1
  B  B236  1  0.80187200  0.40110600  0.54059600  1
  B  B237  1  0.63015300  0.24751200  0.54442100  1
  B  B238  1  0.53681800  0.18528900  0.57553300  1
  B  B239  1  0.51691000  0.16221700  0.53582500  1
  B  B240  1  0.54875000  0.33056900  0.57586400  1
  B  B241  1  0.51602800  0.29599900  0.51308300  1
  B  B242  1  0.36806200  0.19735500  0.56240600  1
  B  B243  1  0.26146800  0.11065100  0.57442400  1
  B  B244  1  0.98853200  0.88934900  0.57557600  1
  B  B245  1  0.88193800  0.80264500  0.58759400  1
  B  B246  1  0.03397200  0.90400100  0.53691700  1
  B  B247  1  0.70125000  0.66943100  0.57413600  1
  B  B248  1  0.03309000  0.03778300  0.51417500  1
  B  B249  1  0.71318200  0.81471100  0.57446700  1
  B  B250  1  0.91984700  0.95248800  0.50557900  1
  B  B251  1  0.74812800  0.79889400  0.50940400  1
  B  B252  1  0.92283300  0.06454700  0.59747600  1
  B  B253  1  0.98277000  0.17197100  0.53094800  1
  B  B254  1  0.07863900  0.27811100  0.52202800  1
  B  B255  1  0.93067200  0.17946600  0.57135000  1
  B  B256  1  0.74196600  0.94934400  0.50715000  1
  B  B257  1  0.64863100  0.88712100  0.53826200  1
  B  B258  1  0.25136900  0.71287900  0.56173800  1
  B  B259  1  0.15803400  0.65065600  0.59285000  1
  B  B260  1  0.96932800  0.42053400  0.52865000  1
  B  B261  1  0.82136100  0.32188900  0.57797200  1
  B  B262  1  0.91723000  0.42802900  0.56905200  1
  B  B263  1  0.97716700  0.53545300  0.50252400  1
  B  B264  1  0.15187200  0.80110600  0.59059600  1
  B  B265  1  0.98015300  0.64751200  0.59442100  1
  B  B266  1  0.18681800  0.78528900  0.52553300  1
  B  B267  1  0.86691000  0.56221700  0.58582500  1
  B  B268  1  0.19875000  0.93056900  0.52586400  1
  B  B269  1  0.86602800  0.69599900  0.56308300  1
  B  B270  1  0.01806200  0.79735500  0.51240600  1
  B  B271  1  0.91146800  0.71065100  0.52442400  1
  B  B272  1  0.33853200  0.28934900  0.62557600  1
  B  B273  1  0.23193800  0.20264500  0.63759400  1
  B  B274  1  0.08397200  0.10400100  0.68691700  1
  B  B275  1  0.05125000  0.06943100  0.62413600  1
  B  B276  1  0.08309000  0.23778300  0.66417500  1
  B  B277  1  0.06318200  0.21471100  0.62446700  1
  B  B278  1  0.96984700  0.15248800  0.65557900  1
  B  B279  1  0.79812800  0.99889400  0.65940400  1
  B  B280  1  0.27283300  0.46454700  0.64747600  1
  B  B281  1  0.03277000  0.37197100  0.68094800  1
  B  B282  1  0.12863900  0.47811100  0.67202800  1
  B  B283  1  0.28067200  0.57946600  0.62135000  1
  B  B284  1  0.79196600  0.14934400  0.65715000  1
  B  B285  1  0.69863100  0.08712100  0.68826200  1
  B  B286  1  0.60136900  0.11287900  0.61173800  1
  B  B287  1  0.50803400  0.05065600  0.64285000  1
  B  B288  1  0.01932800  0.62053400  0.67865000  1
  B  B289  1  0.17136100  0.72188900  0.62797200  1
  B  B290  1  0.26723000  0.82802900  0.61905200  1
  B  B291  1  0.02716700  0.73545300  0.65252400  1
  B  B292  1  0.50187200  0.20110600  0.64059600  1
  B  B293  1  0.33015300  0.04751200  0.64442100  1
  B  B294  1  0.23681800  0.98528900  0.67553300  1
  B  B295  1  0.21691000  0.96221700  0.63582500  1
  B  B296  1  0.24875000  0.13056900  0.67586400  1
  B  B297  1  0.21602800  0.09599900  0.61308300  1
  B  B298  1  0.06806200  0.99735500  0.66240600  1
  B  B299  1  0.96146800  0.91065100  0.67442400  1
  B  B300  1  0.68853200  0.68934900  0.67557600  1
  B  B301  1  0.58193800  0.60264500  0.68759400  1
  B  B302  1  0.73397200  0.70400100  0.63691700  1
  B  B303  1  0.40125000  0.46943100  0.67413600  1
  B  B304  1  0.73309000  0.83778300  0.61417500  1
  B  B305  1  0.41318200  0.61471100  0.67446700  1
  B  B306  1  0.61984700  0.75248800  0.60557900  1
  B  B307  1  0.44812800  0.59889400  0.60940400  1
  B  B308  1  0.62283300  0.86454700  0.69747600  1
  B  B309  1  0.68277000  0.97197100  0.63094800  1
  B  B310  1  0.77863900  0.07811100  0.62202800  1
  B  B311  1  0.63067200  0.97946600  0.67135000  1
  B  B312  1  0.44196600  0.74934400  0.60715000  1
  B  B313  1  0.34863100  0.68712100  0.63826200  1
  B  B314  1  0.95136900  0.51287900  0.66173800  1
  B  B315  1  0.85803400  0.45065600  0.69285000  1
  B  B316  1  0.66932800  0.22053400  0.62865000  1
  B  B317  1  0.52136100  0.12188900  0.67797200  1
  B  B318  1  0.61723000  0.22802900  0.66905200  1
  B  B319  1  0.67716700  0.33545300  0.60252400  1
  B  B320  1  0.85187200  0.60110600  0.69059600  1
  B  B321  1  0.68015300  0.44751200  0.69442100  1
  B  B322  1  0.88681800  0.58528900  0.62553300  1
  B  B323  1  0.56691000  0.36221700  0.68582500  1
  B  B324  1  0.89875000  0.73056900  0.62586400  1
  B  B325  1  0.56602800  0.49599900  0.66308300  1
  B  B326  1  0.71806200  0.59735500  0.61240600  1
  B  B327  1  0.61146800  0.51065100  0.62442400  1
  B  B328  1  0.03853200  0.08934900  0.72557600  1
  B  B329  1  0.93193800  0.00264500  0.73759400  1
  B  B330  1  0.78397200  0.90400100  0.78691700  1
  B  B331  1  0.75125000  0.86943100  0.72413600  1
  B  B332  1  0.78309000  0.03778300  0.76417500  1
  B  B333  1  0.76318200  0.01471100  0.72446700  1
  B  B334  1  0.66984700  0.95248800  0.75557900  1
  B  B335  1  0.49812800  0.79889400  0.75940400  1
  B  B336  1  0.97283300  0.26454700  0.74747600  1
  B  B337  1  0.73277000  0.17197100  0.78094800  1
  B  B338  1  0.82863900  0.27811100  0.77202800  1
  B  B339  1  0.98067200  0.37946600  0.72135000  1
  B  B340  1  0.49196600  0.94934400  0.75715000  1
  B  B341  1  0.39863100  0.88712100  0.78826200  1
  B  B342  1  0.30136900  0.91287900  0.71173800  1
  B  B343  1  0.20803400  0.85065600  0.74285000  1
  B  B344  1  0.71932800  0.42053400  0.77865000  1
  B  B345  1  0.87136100  0.52188900  0.72797200  1
  B  B346  1  0.96723000  0.62802900  0.71905200  1
  B  B347  1  0.72716700  0.53545300  0.75252400  1
  B  B348  1  0.20187200  0.00110600  0.74059600  1
  B  B349  1  0.03015300  0.84751200  0.74442100  1
  B  B350  1  0.93681800  0.78528900  0.77553300  1
  B  B351  1  0.91691000  0.76221700  0.73582500  1
  B  B352  1  0.94875000  0.93056900  0.77586400  1
  B  B353  1  0.91602800  0.89599900  0.71308300  1
  B  B354  1  0.76806200  0.79735500  0.76240600  1
  B  B355  1  0.66146800  0.71065100  0.77442400  1
  B  B356  1  0.38853200  0.48934900  0.77557600  1
  B  B357  1  0.28193800  0.40264500  0.78759400  1
  B  B358  1  0.43397200  0.50400100  0.73691700  1
  B  B359  1  0.10125000  0.26943100  0.77413600  1
  B  B360  1  0.43309000  0.63778300  0.71417500  1
  B  B361  1  0.11318200  0.41471100  0.77446700  1
  B  B362  1  0.31984700  0.55248800  0.70557900  1
  B  B363  1  0.14812800  0.39889400  0.70940400  1
  B  B364  1  0.32283300  0.66454700  0.79747600  1
  B  B365  1  0.38277000  0.77197100  0.73094800  1
  B  B366  1  0.47863900  0.87811100  0.72202800  1
  B  B367  1  0.33067200  0.77946600  0.77135000  1
  B  B368  1  0.14196600  0.54934400  0.70715000  1
  B  B369  1  0.04863100  0.48712100  0.73826200  1
  B  B370  1  0.65136900  0.31287900  0.76173800  1
  B  B371  1  0.55803400  0.25065600  0.79285000  1
  B  B372  1  0.36932800  0.02053400  0.72865000  1
  B  B373  1  0.22136100  0.92188900  0.77797200  1
  B  B374  1  0.31723000  0.02802900  0.76905200  1
  B  B375  1  0.37716700  0.13545300  0.70252400  1
  B  B376  1  0.55187200  0.40110600  0.79059600  1
  B  B377  1  0.38015300  0.24751200  0.79442100  1
  B  B378  1  0.58681800  0.38528900  0.72553300  1
  B  B379  1  0.26691000  0.16221700  0.78582500  1
  B  B380  1  0.59875000  0.53056900  0.72586400  1
  B  B381  1  0.26602800  0.29599900  0.76308300  1
  B  B382  1  0.41806200  0.39735500  0.71240600  1
  B  B383  1  0.31146800  0.31065100  0.72442400  1
