# generated using pymatgen
data_Mg3Ga
_symmetry_space_group_name_H-M   'P 1'
_cell_length_a   6.11035700
_cell_length_b   6.82567400
_cell_length_c   55.65914500
_cell_angle_alpha   90.00000000
_cell_angle_beta   90.00000000
_cell_angle_gamma   90.00000000
_symmetry_Int_Tables_number   1
_chemical_formula_structural   Mg3Ga
_chemical_formula_sum   'Mg36 Ga12'
_cell_volume   2321.39293130
_cell_formula_units_Z   12
loop_
 _symmetry_equiv_pos_site_id
 _symmetry_equiv_pos_as_xyz
  1  'x, y, z'
loop_
 _atom_site_type_symbol
 _atom_site_label
 _atom_site_symmetry_multiplicity
 _atom_site_fract_x
 _atom_site_fract_y
 _atom_site_fract_z
 _atom_site_occupancy
  Mg  Mg0  1  0.50000000  0.65542800  0.49388500  1
  Mg  Mg1  1  0.00000000  0.84457200  0.32754400  1
  Mg  Mg2  1  0.50000000  0.15542800  0.32754400  1
  Mg  Mg3  1  0.00000000  0.34457200  0.49388500  1
  Mg  Mg4  1  0.25000000  0.00000000  0.47321400  1
  Mg  Mg5  1  0.75000000  0.00000000  0.47321400  1
  Mg  Mg6  1  0.00000000  0.15542800  0.36888500  1
  Mg  Mg7  1  0.50000000  0.34457200  0.45254400  1
  Mg  Mg8  1  0.00000000  0.65542800  0.45254400  1
  Mg  Mg9  1  0.50000000  0.84457200  0.36888500  1
  Mg  Mg10  1  0.75000000  0.50000000  0.34821400  1
  Mg  Mg11  1  0.25000000  0.50000000  0.34821400  1
  Mg  Mg12  1  0.75000000  0.50000000  0.40688600  1
  Mg  Mg13  1  0.25000000  0.00000000  0.41454200  1
  Mg  Mg14  1  0.75000000  0.00000000  0.41454200  1
  Mg  Mg15  1  0.25000000  0.50000000  0.40688600  1
  Mg  Mg16  1  0.50000000  0.65542800  0.74388500  1
  Mg  Mg17  1  0.00000000  0.84457200  0.57754400  1
  Mg  Mg18  1  0.50000000  0.15542800  0.57754400  1
  Mg  Mg19  1  0.00000000  0.34457200  0.74388500  1
  Mg  Mg20  1  0.25000000  0.00000000  0.72321400  1
  Mg  Mg21  1  0.75000000  0.00000000  0.72321400  1
  Mg  Mg22  1  0.25000000  0.00000000  0.53188600  1
  Mg  Mg23  1  0.75000000  0.50000000  0.53954200  1
  Mg  Mg24  1  0.25000000  0.50000000  0.53954200  1
  Mg  Mg25  1  0.75000000  0.00000000  0.53188600  1
  Mg  Mg26  1  0.00000000  0.15542800  0.61888500  1
  Mg  Mg27  1  0.50000000  0.34457200  0.70254400  1
  Mg  Mg28  1  0.00000000  0.65542800  0.70254400  1
  Mg  Mg29  1  0.50000000  0.84457200  0.61888500  1
  Mg  Mg30  1  0.75000000  0.50000000  0.59821400  1
  Mg  Mg31  1  0.25000000  0.50000000  0.59821400  1
  Mg  Mg32  1  0.75000000  0.50000000  0.65688600  1
  Mg  Mg33  1  0.25000000  0.00000000  0.66454200  1
  Mg  Mg34  1  0.75000000  0.00000000  0.66454200  1
  Mg  Mg35  1  0.25000000  0.50000000  0.65688600  1
  Ga  Ga36  1  0.00000000  0.75943400  0.37881800  1
  Ga  Ga37  1  0.50000000  0.74056600  0.44261100  1
  Ga  Ga38  1  0.00000000  0.25943400  0.44261100  1
  Ga  Ga39  1  0.50000000  0.24056600  0.37881800  1
  Ga  Ga40  1  0.50000000  0.25943400  0.50381800  1
  Ga  Ga41  1  0.00000000  0.24056600  0.56761100  1
  Ga  Ga42  1  0.50000000  0.75943400  0.56761100  1
  Ga  Ga43  1  1.00000000  0.74056600  0.50381800  1
  Ga  Ga44  1  0.00000000  0.75943400  0.62881800  1
  Ga  Ga45  1  0.50000000  0.74056600  0.69261100  1
  Ga  Ga46  1  0.00000000  0.25943400  0.69261100  1
  Ga  Ga47  1  0.50000000  0.24056600  0.62881800  1
