# generated using pymatgen
data_MgPd2
_symmetry_space_group_name_H-M   'P 1'
_cell_length_a   4.19057600
_cell_length_b   8.17953600
_cell_length_c   44.31077100
_cell_angle_alpha   90.00000000
_cell_angle_beta   90.00000000
_cell_angle_gamma   90.00000000
_symmetry_Int_Tables_number   1
_chemical_formula_structural   MgPd2
_chemical_formula_sum   'Mg20 Pd40'
_cell_volume   1518.83884651
_cell_formula_units_Z   20
loop_
 _symmetry_equiv_pos_site_id
 _symmetry_equiv_pos_as_xyz
  1  'x, y, z'
loop_
 _atom_site_type_symbol
 _atom_site_label
 _atom_site_symmetry_multiplicity
 _atom_site_fract_x
 _atom_site_fract_y
 _atom_site_fract_z
 _atom_site_occupancy
  Mg  Mg0  1  0.25000000  0.59827400  0.29142400  1
  Mg  Mg1  1  0.75000000  0.40172600  0.20857600  1
  Mg  Mg2  1  0.25000000  0.90172600  0.22892400  1
  Mg  Mg3  1  0.75000000  0.09827400  0.27107600  1
  Mg  Mg4  1  0.25000000  0.59827400  0.41642400  1
  Mg  Mg5  1  0.75000000  0.40172600  0.33357600  1
  Mg  Mg6  1  0.25000000  0.90172600  0.35392400  1
  Mg  Mg7  1  0.75000000  0.09827400  0.39607600  1
  Mg  Mg8  1  0.25000000  0.59827400  0.54142400  1
  Mg  Mg9  1  0.75000000  0.40172600  0.45857600  1
  Mg  Mg10  1  0.25000000  0.90172600  0.47892400  1
  Mg  Mg11  1  0.75000000  0.09827400  0.52107600  1
  Mg  Mg12  1  0.25000000  0.59827400  0.66642400  1
  Mg  Mg13  1  0.75000000  0.40172600  0.58357600  1
  Mg  Mg14  1  0.25000000  0.90172600  0.60392400  1
  Mg  Mg15  1  0.75000000  0.09827400  0.64607600  1
  Mg  Mg16  1  0.25000000  0.59827400  0.79142400  1
  Mg  Mg17  1  0.75000000  0.40172600  0.70857600  1
  Mg  Mg18  1  0.25000000  0.90172600  0.72892400  1
  Mg  Mg19  1  0.75000000  0.09827400  0.77107600  1
  Pd  Pd20  1  0.25000000  0.92737900  0.29263800  1
  Pd  Pd21  1  0.75000000  0.07262100  0.20736200  1
  Pd  Pd22  1  0.25000000  0.57262100  0.23013800  1
  Pd  Pd23  1  0.75000000  0.42737900  0.26986200  1
  Pd  Pd24  1  0.25000000  0.26411300  0.30399100  1
  Pd  Pd25  1  0.75000000  0.73588700  0.19600900  1
  Pd  Pd26  1  0.25000000  0.23588700  0.24149100  1
  Pd  Pd27  1  0.75000000  0.76411300  0.25850900  1
  Pd  Pd28  1  0.25000000  0.92737900  0.41763800  1
  Pd  Pd29  1  0.75000000  0.07262100  0.33236200  1
  Pd  Pd30  1  0.25000000  0.57262100  0.35513800  1
  Pd  Pd31  1  0.75000000  0.42737900  0.39486200  1
  Pd  Pd32  1  0.25000000  0.26411300  0.42899100  1
  Pd  Pd33  1  0.75000000  0.73588700  0.32100900  1
  Pd  Pd34  1  0.25000000  0.23588700  0.36649100  1
  Pd  Pd35  1  0.75000000  0.76411300  0.38350900  1
  Pd  Pd36  1  0.25000000  0.92737900  0.54263800  1
  Pd  Pd37  1  0.75000000  0.07262100  0.45736200  1
  Pd  Pd38  1  0.25000000  0.57262100  0.48013800  1
  Pd  Pd39  1  0.75000000  0.42737900  0.51986200  1
  Pd  Pd40  1  0.25000000  0.26411300  0.55399100  1
  Pd  Pd41  1  0.75000000  0.73588700  0.44600900  1
  Pd  Pd42  1  0.25000000  0.23588700  0.49149100  1
  Pd  Pd43  1  0.75000000  0.76411300  0.50850900  1
  Pd  Pd44  1  0.25000000  0.92737900  0.66763800  1
  Pd  Pd45  1  0.75000000  0.07262100  0.58236200  1
  Pd  Pd46  1  0.25000000  0.57262100  0.60513800  1
  Pd  Pd47  1  0.75000000  0.42737900  0.64486200  1
  Pd  Pd48  1  0.25000000  0.26411300  0.67899100  1
  Pd  Pd49  1  0.75000000  0.73588700  0.57100900  1
  Pd  Pd50  1  0.25000000  0.23588700  0.61649100  1
  Pd  Pd51  1  0.75000000  0.76411300  0.63350900  1
  Pd  Pd52  1  0.25000000  0.92737900  0.79263800  1
  Pd  Pd53  1  0.75000000  0.07262100  0.70736200  1
  Pd  Pd54  1  0.25000000  0.57262100  0.73013800  1
  Pd  Pd55  1  0.75000000  0.42737900  0.76986200  1
  Pd  Pd56  1  0.25000000  0.26411300  0.80399100  1
  Pd  Pd57  1  0.75000000  0.73588700  0.69600900  1
  Pd  Pd58  1  0.25000000  0.23588700  0.74149100  1
  Pd  Pd59  1  0.75000000  0.76411300  0.75850900  1
