# generated using pymatgen
data_Mg32Zn51
_symmetry_space_group_name_H-M   'P 1'
_cell_length_a   5.07402229
_cell_length_b   14.70723601
_cell_length_c   50.49845100
_cell_angle_alpha   88.21601723
_cell_angle_beta   89.67566990
_cell_angle_gamma   90.29193359
_symmetry_Int_Tables_number   1
_chemical_formula_structural   Mg32Zn51
_chemical_formula_sum   'Mg32 Zn51'
_cell_volume   3766.49971225
_cell_formula_units_Z   1
loop_
 _symmetry_equiv_pos_site_id
 _symmetry_equiv_pos_as_xyz
  1  'x, y, z'
loop_
 _atom_site_type_symbol
 _atom_site_label
 _atom_site_symmetry_multiplicity
 _atom_site_fract_x
 _atom_site_fract_y
 _atom_site_fract_z
 _atom_site_occupancy
  Mg  Mg0  1  0.61371600  0.09493800  0.25138500  1
  Mg  Mg1  1  0.11092900  0.11139100  0.42132800  1
  Mg  Mg2  1  0.11955400  0.60763500  0.28619200  1
  Mg  Mg3  1  0.61710600  0.82205700  0.46766800  1
  Mg  Mg4  1  0.61575700  0.19768200  0.44630700  1
  Mg  Mg5  1  0.61762000  0.92239200  0.29569900  1
  Mg  Mg6  1  0.11338000  0.41059600  0.25900300  1
  Mg  Mg7  1  0.61292200  0.79295700  0.40960500  1
  Mg  Mg8  1  0.61419400  0.29216400  0.27779500  1
  Mg  Mg9  1  0.61427100  0.41733200  0.43096600  1
  Mg  Mg10  1  0.61047400  0.25738000  0.34108100  1
  Mg  Mg11  1  0.11583400  0.57285100  0.34947700  1
  Mg  Mg12  1  0.11361300  0.90599800  0.43523400  1
  Mg  Mg13  1  0.61471100  0.72673500  0.26823700  1
  Mg  Mg14  1  0.11531700  0.13827900  0.35903600  1
  Mg  Mg15  1  0.61664800  0.45441800  0.36827000  1
  Mg  Mg16  1  0.11631300  0.77007600  0.37588800  1
  Mg  Mg17  1  0.11240900  0.94262300  0.33157400  1
  Mg  Mg18  1  0.11910000  0.50362400  0.45594500  1
  Mg  Mg19  1  0.11641500  0.70901700  0.44203900  1
  Mg  Mg20  1  0.11371600  0.84493800  0.50138500  1
  Mg  Mg21  1  0.61955400  0.35763500  0.53619200  1
  Mg  Mg22  1  0.11762000  0.67239200  0.54569900  1
  Mg  Mg23  1  0.61338000  0.16059600  0.50900300  1
  Mg  Mg24  1  0.11419400  0.04216400  0.52779500  1
  Mg  Mg25  1  0.11047400  0.00738000  0.59108100  1
  Mg  Mg26  1  0.61583400  0.32285100  0.59947700  1
  Mg  Mg27  1  0.11471100  0.47673500  0.51823700  1
  Mg  Mg28  1  0.61531700  0.88827900  0.60903600  1
  Mg  Mg29  1  0.11664800  0.20441800  0.61827000  1
  Mg  Mg30  1  0.61631300  0.52007600  0.62588800  1
  Mg  Mg31  1  0.61240900  0.69262300  0.58157400  1
  Zn  Zn32  1  0.11091300  0.17751900  0.47633500  1
  Zn  Zn33  1  0.61428500  0.99905900  0.42969700  1
  Zn  Zn34  1  0.11852700  0.27305200  0.31023900  1
  Zn  Zn35  1  0.36440700  0.59537900  0.40245300  1
  Zn  Zn36  1  0.86017100  0.27538400  0.39399500  1
  Zn  Zn37  1  0.36206200  0.02187900  0.47379600  1
  Zn  Zn38  1  0.86501400  0.43250700  0.31363600  1
  Zn  Zn39  1  0.11911500  0.43749500  0.40093800  1
  Zn  Zn40  1  0.61582000  0.03834300  0.34489500  1
  Zn  Zn41  1  0.86344700  0.33964900  0.48337200  1
  Zn  Zn42  1  0.86160500  0.11574900  0.30591800  1
  Zn  Zn43  1  0.11413900  0.00901400  0.27393300  1
  Zn  Zn44  1  0.61543000  0.50684400  0.27290100  1
  Zn  Zn45  1  0.62052300  0.49208900  0.48643200  1
  Zn  Zn46  1  0.61574400  0.61595500  0.44757600  1
  Zn  Zn47  1  0.11420800  0.82667100  0.28237800  1
  Zn  Zn48  1  0.87416700  0.65492400  0.49156200  1
  Zn  Zn49  1  0.36658100  0.27536500  0.39390100  1
  Zn  Zn50  1  0.86796700  0.59313600  0.40347700  1
  Zn  Zn51  1  0.11459800  0.35817100  0.35437200  1
  Zn  Zn52  1  0.35586100  0.96009000  0.38571000  1
  Zn  Zn53  1  0.36985700  0.33963000  0.48327800  1
  Zn  Zn54  1  0.36501400  0.43250700  0.31363600  1
  Zn  Zn55  1  0.10946400  0.19725100  0.26435500  1
  Zn  Zn56  1  0.36566800  0.11484700  0.30629400  1
  Zn  Zn57  1  0.36076700  0.65740300  0.49090200  1
  Zn  Zn58  1  0.62056500  0.66776300  0.36291800  1
  Zn  Zn59  1  0.86926100  0.95761100  0.38637100  1
  Zn  Zn60  1  0.60950500  0.12292500  0.39084100  1
  Zn  Zn61  1  0.36436000  0.75016700  0.32097800  1
  Zn  Zn62  1  0.86562200  0.01963500  0.47481900  1
  Zn  Zn63  1  0.11501400  0.30750700  0.43863600  1
  Zn  Zn64  1  0.86842300  0.74926500  0.32135500  1
  Zn  Zn65  1  0.61588900  0.85600000  0.35333900  1
  Zn  Zn66  1  0.61150100  0.59196200  0.31703400  1
  Zn  Zn67  1  0.61852700  0.02305200  0.56023900  1
  Zn  Zn68  1  0.36501400  0.18250700  0.56363600  1
  Zn  Zn69  1  0.11582000  0.78834300  0.59489500  1
  Zn  Zn70  1  0.36160500  0.86574900  0.55591800  1
  Zn  Zn71  1  0.61413900  0.75901400  0.52393300  1
  Zn  Zn72  1  0.11543000  0.25684400  0.52290100  1
  Zn  Zn73  1  0.61420800  0.57667100  0.53237800  1
  Zn  Zn74  1  0.61459800  0.10817100  0.60437200  1
  Zn  Zn75  1  0.86501400  0.18250700  0.56363600  1
  Zn  Zn76  1  0.60946400  0.94725100  0.51435500  1
  Zn  Zn77  1  0.86566800  0.86484700  0.55629400  1
  Zn  Zn78  1  0.12056500  0.41776300  0.61291800  1
  Zn  Zn79  1  0.86436000  0.50016700  0.57097800  1
  Zn  Zn80  1  0.36842300  0.49926500  0.57135500  1
  Zn  Zn81  1  0.11588900  0.60600000  0.60333900  1
  Zn  Zn82  1  0.11150100  0.34196200  0.56703400  1
