# generated using pymatgen
data_Mg5In2
_symmetry_space_group_name_H-M   'P 1'
_cell_length_a   7.10486100
_cell_length_b   8.73688538
_cell_length_c   46.55831200
_cell_angle_alpha   94.50846536
_cell_angle_beta   90.00000000
_cell_angle_gamma   113.99151935
_symmetry_Int_Tables_number   1
_chemical_formula_structural   Mg5In2
_chemical_formula_sum   'Mg50 In20'
_cell_volume   2630.59955503
_cell_formula_units_Z   10
loop_
 _symmetry_equiv_pos_site_id
 _symmetry_equiv_pos_as_xyz
  1  'x, y, z'
loop_
 _atom_site_type_symbol
 _atom_site_label
 _atom_site_symmetry_multiplicity
 _atom_site_fract_x
 _atom_site_fract_y
 _atom_site_fract_z
 _atom_site_occupancy
  Mg  Mg0  1  0.09098000  0.85111600  0.80186500  1
  Mg  Mg1  1  0.03402000  0.39888400  0.69813500  1
  Mg  Mg2  1  0.30236400  0.27388400  0.76063500  1
  Mg  Mg3  1  0.82263600  0.97611600  0.73936500  1
  Mg  Mg4  1  0.53125000  0.06250000  0.78125000  1
  Mg  Mg5  1  0.59375000  0.18750000  0.71875000  1
  Mg  Mg6  1  0.73824700  0.47649400  0.81082100  1
  Mg  Mg7  1  0.32425300  0.64850600  0.75167900  1
  Mg  Mg8  1  0.38675300  0.77350600  0.68917900  1
  Mg  Mg9  1  0.80074700  0.60149400  0.74832100  1
  Mg  Mg10  1  0.21598000  0.10111600  0.67686500  1
  Mg  Mg11  1  0.15902000  0.64888400  0.57313500  1
  Mg  Mg12  1  0.42736400  0.52388400  0.63563500  1
  Mg  Mg13  1  0.94763600  0.22611600  0.61436500  1
  Mg  Mg14  1  0.65625000  0.31250000  0.65625000  1
  Mg  Mg15  1  0.71875000  0.43750000  0.59375000  1
  Mg  Mg16  1  0.86324700  0.72649400  0.68582100  1
  Mg  Mg17  1  0.44925300  0.89850600  0.62667900  1
  Mg  Mg18  1  0.51175300  0.02350600  0.56417900  1
  Mg  Mg19  1  0.92574700  0.85149400  0.62332100  1
  Mg  Mg20  1  0.34098000  0.35111600  0.55186500  1
  Mg  Mg21  1  0.28402000  0.89888400  0.44813500  1
  Mg  Mg22  1  0.55236400  0.77388400  0.51063500  1
  Mg  Mg23  1  0.07263600  0.47611600  0.48936500  1
  Mg  Mg24  1  0.78125000  0.56250000  0.53125000  1
  Mg  Mg25  1  0.84375000  0.68750000  0.46875000  1
  Mg  Mg26  1  0.98824700  0.97649400  0.56082100  1
  Mg  Mg27  1  0.57425300  0.14850600  0.50167900  1
  Mg  Mg28  1  0.63675300  0.27350600  0.43917900  1
  Mg  Mg29  1  0.05074700  0.10149400  0.49832100  1
  Mg  Mg30  1  0.46598000  0.60111600  0.42686500  1
  Mg  Mg31  1  0.40902000  0.14888400  0.32313500  1
  Mg  Mg32  1  0.67736400  0.02388400  0.38563500  1
  Mg  Mg33  1  0.19763600  0.72611600  0.36436500  1
  Mg  Mg34  1  0.90625000  0.81250000  0.40625000  1
  Mg  Mg35  1  0.96875000  0.93750000  0.34375000  1
  Mg  Mg36  1  0.11324700  0.22649400  0.43582100  1
  Mg  Mg37  1  0.69925300  0.39850600  0.37667900  1
  Mg  Mg38  1  0.76175300  0.52350600  0.31417900  1
  Mg  Mg39  1  0.17574700  0.35149400  0.37332100  1
  Mg  Mg40  1  0.59098000  0.85111600  0.30186500  1
  Mg  Mg41  1  0.53402000  0.39888400  0.19813500  1
  Mg  Mg42  1  0.80236400  0.27388400  0.26063500  1
  Mg  Mg43  1  0.32263600  0.97611600  0.23936500  1
  Mg  Mg44  1  0.03125000  0.06250000  0.28125000  1
  Mg  Mg45  1  0.09375000  0.18750000  0.21875000  1
  Mg  Mg46  1  0.23824700  0.47649400  0.31082100  1
  Mg  Mg47  1  0.82425300  0.64850600  0.25167900  1
  Mg  Mg48  1  0.88675300  0.77350600  0.18917900  1
  Mg  Mg49  1  0.30074700  0.60149400  0.24832100  1
  In  In50  1  0.65439000  0.78643500  0.79724500  1
  In  In51  1  0.47061000  0.46356500  0.70275500  1
  In  In52  1  0.93045500  0.33856500  0.76525500  1
  In  In53  1  0.19454500  0.91143500  0.73474500  1
  In  In54  1  0.77939000  0.03643500  0.67224500  1
  In  In55  1  0.59561000  0.71356500  0.57775500  1
  In  In56  1  0.05545500  0.58856500  0.64025500  1
  In  In57  1  0.31954500  0.16143500  0.60974500  1
  In  In58  1  0.90439000  0.28643500  0.54724500  1
  In  In59  1  0.72061000  0.96356500  0.45275500  1
  In  In60  1  0.18045500  0.83856500  0.51525500  1
  In  In61  1  0.44454500  0.41143500  0.48474500  1
  In  In62  1  0.02939000  0.53643500  0.42224500  1
  In  In63  1  0.84561000  0.21356500  0.32775500  1
  In  In64  1  0.30545500  0.08856500  0.39025500  1
  In  In65  1  0.56954500  0.66143500  0.35974500  1
  In  In66  1  0.15439000  0.78643500  0.29724500  1
  In  In67  1  0.97061000  0.46356500  0.20275500  1
  In  In68  1  0.43045500  0.33856500  0.26525500  1
  In  In69  1  0.69454500  0.91143500  0.23474500  1
