# generated using pymatgen
data_Mg9Si5
_symmetry_space_group_name_H-M   'P 1'
_cell_length_a   7.16868100
_cell_length_b   12.34156200
_cell_length_c   49.66607700
_cell_angle_alpha   90.00000000
_cell_angle_beta   90.00000000
_cell_angle_gamma   90.00000000
_symmetry_Int_Tables_number   1
_chemical_formula_structural   Mg9Si5
_chemical_formula_sum   'Mg90 Si50'
_cell_volume   4394.09297457
_cell_formula_units_Z   10
loop_
 _symmetry_equiv_pos_site_id
 _symmetry_equiv_pos_as_xyz
  1  'x, y, z'
loop_
 _atom_site_type_symbol
 _atom_site_label
 _atom_site_symmetry_multiplicity
 _atom_site_fract_x
 _atom_site_fract_y
 _atom_site_fract_z
 _atom_site_occupancy
  Mg  Mg0  1  0.99486700  0.08295800  0.20988300  1
  Mg  Mg1  1  0.63173300  0.58295800  0.19933300  1
  Mg  Mg2  1  0.11313400  0.58295800  0.26055000  1
  Mg  Mg3  1  0.38686600  0.08295800  0.23945000  1
  Mg  Mg4  1  0.86826700  0.08295800  0.30066700  1
  Mg  Mg5  1  0.50513300  0.58295800  0.29011700  1
  Mg  Mg6  1  0.50513300  0.91704200  0.29011700  1
  Mg  Mg7  1  0.86826700  0.41704200  0.30066700  1
  Mg  Mg8  1  0.38686600  0.41704200  0.23945000  1
  Mg  Mg9  1  0.11313400  0.91704200  0.26055000  1
  Mg  Mg10  1  0.63173300  0.91704200  0.19933300  1
  Mg  Mg11  1  0.99486700  0.41704200  0.20988300  1
  Mg  Mg12  1  0.95911000  0.75000000  0.21577600  1
  Mg  Mg13  1  0.64920900  0.25000000  0.20674900  1
  Mg  Mg14  1  0.05990100  0.25000000  0.25902700  1
  Mg  Mg15  1  0.44009900  0.75000000  0.24097300  1
  Mg  Mg16  1  0.85079100  0.75000000  0.29325100  1
  Mg  Mg17  1  0.54089000  0.25000000  0.28422400  1
  Mg  Mg18  1  0.49486700  0.08295800  0.33488300  1
  Mg  Mg19  1  0.13173300  0.58295800  0.32433300  1
  Mg  Mg20  1  0.61313400  0.58295800  0.38555000  1
  Mg  Mg21  1  0.88686600  0.08295800  0.36445000  1
  Mg  Mg22  1  0.36826700  0.08295800  0.42566700  1
  Mg  Mg23  1  0.00513300  0.58295800  0.41511700  1
  Mg  Mg24  1  0.00513300  0.91704200  0.41511700  1
  Mg  Mg25  1  0.36826700  0.41704200  0.42566700  1
  Mg  Mg26  1  0.88686600  0.41704200  0.36445000  1
  Mg  Mg27  1  0.61313400  0.91704200  0.38555000  1
  Mg  Mg28  1  0.13173300  0.91704200  0.32433300  1
  Mg  Mg29  1  0.49486700  0.41704200  0.33488300  1
  Mg  Mg30  1  0.45911000  0.75000000  0.34077600  1
  Mg  Mg31  1  0.14920900  0.25000000  0.33174900  1
  Mg  Mg32  1  0.55990100  0.25000000  0.38402700  1
  Mg  Mg33  1  0.94009900  0.75000000  0.36597300  1
  Mg  Mg34  1  0.35079100  0.75000000  0.41825100  1
  Mg  Mg35  1  0.04089000  0.25000000  0.40922400  1
  Mg  Mg36  1  0.99486700  0.08295800  0.45988300  1
  Mg  Mg37  1  0.63173300  0.58295800  0.44933300  1
  Mg  Mg38  1  0.11313400  0.58295800  0.51055000  1
  Mg  Mg39  1  0.38686600  0.08295800  0.48945000  1
  Mg  Mg40  1  0.86826700  0.08295800  0.55066700  1
  Mg  Mg41  1  0.50513300  0.58295800  0.54011700  1
  Mg  Mg42  1  0.50513300  0.91704200  0.54011700  1
  Mg  Mg43  1  0.86826700  0.41704200  0.55066700  1
  Mg  Mg44  1  0.38686600  0.41704200  0.48945000  1
  Mg  Mg45  1  0.11313400  0.91704200  0.51055000  1
  Mg  Mg46  1  0.63173300  0.91704200  0.44933300  1
  Mg  Mg47  1  0.99486700  0.41704200  0.45988300  1
  Mg  Mg48  1  0.95911000  0.75000000  0.46577600  1
  Mg  Mg49  1  0.64920900  0.25000000  0.45674900  1
  Mg  Mg50  1  0.05990100  0.25000000  0.50902700  1
  Mg  Mg51  1  0.44009900  0.75000000  0.49097300  1
  Mg  Mg52  1  0.85079100  0.75000000  0.54325100  1
  Mg  Mg53  1  0.54089000  0.25000000  0.53422400  1
  Mg  Mg54  1  0.49486700  0.08295800  0.58488300  1
  Mg  Mg55  1  0.13173300  0.58295800  0.57433300  1
  Mg  Mg56  1  0.61313400  0.58295800  0.63555000  1
  Mg  Mg57  1  0.88686600  0.08295800  0.61445000  1
  Mg  Mg58  1  0.36826700  0.08295800  0.67566700  1
  Mg  Mg59  1  0.00513300  0.58295800  0.66511700  1
  Mg  Mg60  1  0.00513300  0.91704200  0.66511700  1
  Mg  Mg61  1  0.36826700  0.41704200  0.67566700  1
  Mg  Mg62  1  0.88686600  0.41704200  0.61445000  1
  Mg  Mg63  1  0.61313400  0.91704200  0.63555000  1
  Mg  Mg64  1  0.13173300  0.91704200  0.57433300  1
  Mg  Mg65  1  0.49486700  0.41704200  0.58488300  1
  Mg  Mg66  1  0.45911000  0.75000000  0.59077600  1
  Mg  Mg67  1  0.14920900  0.25000000  0.58174900  1
  Mg  Mg68  1  0.55990100  0.25000000  0.63402700  1
  Mg  Mg69  1  0.94009900  0.75000000  0.61597300  1
  Mg  Mg70  1  0.35079100  0.75000000  0.66825100  1
  Mg  Mg71  1  0.04089000  0.25000000  0.65922400  1
  Mg  Mg72  1  0.99486700  0.08295800  0.70988300  1
  Mg  Mg73  1  0.63173300  0.58295800  0.69933300  1
  Mg  Mg74  1  0.11313400  0.58295800  0.76055000  1
  Mg  Mg75  1  0.38686600  0.08295800  0.73945000  1
  Mg  Mg76  1  0.86826700  0.08295800  0.80066700  1
  Mg  Mg77  1  0.50513300  0.58295800  0.79011700  1
  Mg  Mg78  1  0.50513300  0.91704200  0.79011700  1
  Mg  Mg79  1  0.86826700  0.41704200  0.80066700  1
  Mg  Mg80  1  0.38686600  0.41704200  0.73945000  1
  Mg  Mg81  1  0.11313400  0.91704200  0.76055000  1
  Mg  Mg82  1  0.63173300  0.91704200  0.69933300  1
  Mg  Mg83  1  0.99486700  0.41704200  0.70988300  1
  Mg  Mg84  1  0.95911000  0.75000000  0.71577600  1
  Mg  Mg85  1  0.64920900  0.25000000  0.70674900  1
  Mg  Mg86  1  0.05990100  0.25000000  0.75902700  1
  Mg  Mg87  1  0.44009900  0.75000000  0.74097300  1
  Mg  Mg88  1  0.85079100  0.75000000  0.79325100  1
  Mg  Mg89  1  0.54089000  0.25000000  0.78422400  1
  Si  Si90  1  0.75000000  0.89974100  0.25000000  1
  Si  Si91  1  0.75000000  0.39974100  0.25000000  1
  Si  Si92  1  0.75000000  0.10025900  0.25000000  1
  Si  Si93  1  0.75000000  0.60025900  0.25000000  1
  Si  Si94  1  0.25000000  0.75000000  0.29166700  1
  Si  Si95  1  0.25000000  0.25000000  0.20833300  1
  Si  Si96  1  0.25000000  0.58746500  0.20833300  1
  Si  Si97  1  0.25000000  0.08746500  0.29166700  1
  Si  Si98  1  0.25000000  0.41253500  0.29166700  1
  Si  Si99  1  0.25000000  0.91253500  0.20833300  1
  Si  Si100  1  0.25000000  0.89974100  0.37500000  1
  Si  Si101  1  0.25000000  0.39974100  0.37500000  1
  Si  Si102  1  0.25000000  0.10025900  0.37500000  1
  Si  Si103  1  0.25000000  0.60025900  0.37500000  1
  Si  Si104  1  0.75000000  0.75000000  0.41666700  1
  Si  Si105  1  0.75000000  0.25000000  0.33333300  1
  Si  Si106  1  0.75000000  0.58746500  0.33333300  1
  Si  Si107  1  0.75000000  0.08746500  0.41666700  1
  Si  Si108  1  0.75000000  0.41253500  0.41666700  1
  Si  Si109  1  0.75000000  0.91253500  0.33333300  1
  Si  Si110  1  0.75000000  0.89974100  0.50000000  1
  Si  Si111  1  0.75000000  0.39974100  0.50000000  1
  Si  Si112  1  0.75000000  0.10025900  0.50000000  1
  Si  Si113  1  0.75000000  0.60025900  0.50000000  1
  Si  Si114  1  0.25000000  0.75000000  0.54166700  1
  Si  Si115  1  0.25000000  0.25000000  0.45833300  1
  Si  Si116  1  0.25000000  0.58746500  0.45833300  1
  Si  Si117  1  0.25000000  0.08746500  0.54166700  1
  Si  Si118  1  0.25000000  0.41253500  0.54166700  1
  Si  Si119  1  0.25000000  0.91253500  0.45833300  1
  Si  Si120  1  0.25000000  0.89974100  0.62500000  1
  Si  Si121  1  0.25000000  0.39974100  0.62500000  1
  Si  Si122  1  0.25000000  0.10025900  0.62500000  1
  Si  Si123  1  0.25000000  0.60025900  0.62500000  1
  Si  Si124  1  0.75000000  0.75000000  0.66666700  1
  Si  Si125  1  0.75000000  0.25000000  0.58333300  1
  Si  Si126  1  0.75000000  0.58746500  0.58333300  1
  Si  Si127  1  0.75000000  0.08746500  0.66666700  1
  Si  Si128  1  0.75000000  0.41253500  0.66666700  1
  Si  Si129  1  0.75000000  0.91253500  0.58333300  1
  Si  Si130  1  0.75000000  0.89974100  0.75000000  1
  Si  Si131  1  0.75000000  0.39974100  0.75000000  1
  Si  Si132  1  0.75000000  0.10025900  0.75000000  1
  Si  Si133  1  0.75000000  0.60025900  0.75000000  1
  Si  Si134  1  0.25000000  0.75000000  0.79166700  1
  Si  Si135  1  0.25000000  0.25000000  0.70833300  1
  Si  Si136  1  0.25000000  0.58746500  0.70833300  1
  Si  Si137  1  0.25000000  0.08746500  0.79166700  1
  Si  Si138  1  0.25000000  0.41253500  0.79166700  1
  Si  Si139  1  0.25000000  0.91253500  0.70833300  1
