# generated using pymatgen
data_MgPd2
_symmetry_space_group_name_H-M   'P 1'
_cell_length_a   5.53884600
_cell_length_b   8.17953600
_cell_length_c   41.90576000
_cell_angle_alpha   90.00000000
_cell_angle_beta   90.00000000
_cell_angle_gamma   90.00000000
_symmetry_Int_Tables_number   1
_chemical_formula_structural   MgPd2
_chemical_formula_sum   'Mg24 Pd48'
_cell_volume   1898.54842960
_cell_formula_units_Z   24
loop_
 _symmetry_equiv_pos_site_id
 _symmetry_equiv_pos_as_xyz
  1  'x, y, z'
loop_
 _atom_site_type_symbol
 _atom_site_label
 _atom_site_symmetry_multiplicity
 _atom_site_fract_x
 _atom_site_fract_y
 _atom_site_fract_z
 _atom_site_occupancy
  Mg  Mg0  1  0.16860900  0.40172600  0.27500000  1
  Mg  Mg1  1  0.83139100  0.59827400  0.22500000  1
  Mg  Mg2  1  0.66860900  0.09827400  0.27500000  1
  Mg  Mg3  1  0.33139100  0.90172600  0.22500000  1
  Mg  Mg4  1  0.16860900  0.40172600  0.37500000  1
  Mg  Mg5  1  0.83139100  0.59827400  0.32500000  1
  Mg  Mg6  1  0.66860900  0.09827400  0.37500000  1
  Mg  Mg7  1  0.33139100  0.90172600  0.32500000  1
  Mg  Mg8  1  0.16860900  0.40172600  0.47500000  1
  Mg  Mg9  1  0.83139100  0.59827400  0.42500000  1
  Mg  Mg10  1  0.66860900  0.09827400  0.47500000  1
  Mg  Mg11  1  0.33139100  0.90172600  0.42500000  1
  Mg  Mg12  1  0.16860900  0.40172600  0.57500000  1
  Mg  Mg13  1  0.83139100  0.59827400  0.52500000  1
  Mg  Mg14  1  0.66860900  0.09827400  0.57500000  1
  Mg  Mg15  1  0.33139100  0.90172600  0.52500000  1
  Mg  Mg16  1  0.16860900  0.40172600  0.67500000  1
  Mg  Mg17  1  0.83139100  0.59827400  0.62500000  1
  Mg  Mg18  1  0.66860900  0.09827400  0.67500000  1
  Mg  Mg19  1  0.33139100  0.90172600  0.62500000  1
  Mg  Mg20  1  0.16860900  0.40172600  0.77500000  1
  Mg  Mg21  1  0.83139100  0.59827400  0.72500000  1
  Mg  Mg22  1  0.66860900  0.09827400  0.77500000  1
  Mg  Mg23  1  0.33139100  0.90172600  0.72500000  1
  Pd  Pd24  1  0.15889900  0.07262100  0.27500000  1
  Pd  Pd25  1  0.84110100  0.92737900  0.22500000  1
  Pd  Pd26  1  0.65889900  0.42737900  0.27500000  1
  Pd  Pd27  1  0.34110100  0.57262100  0.22500000  1
  Pd  Pd28  1  0.06807400  0.73588700  0.27500000  1
  Pd  Pd29  1  0.93192600  0.26411300  0.22500000  1
  Pd  Pd30  1  0.56807400  0.76411300  0.27500000  1
  Pd  Pd31  1  0.43192600  0.23588700  0.22500000  1
  Pd  Pd32  1  0.15889900  0.07262100  0.37500000  1
  Pd  Pd33  1  0.84110100  0.92737900  0.32500000  1
  Pd  Pd34  1  0.65889900  0.42737900  0.37500000  1
  Pd  Pd35  1  0.34110100  0.57262100  0.32500000  1
  Pd  Pd36  1  0.06807400  0.73588700  0.37500000  1
  Pd  Pd37  1  0.93192600  0.26411300  0.32500000  1
  Pd  Pd38  1  0.56807400  0.76411300  0.37500000  1
  Pd  Pd39  1  0.43192600  0.23588700  0.32500000  1
  Pd  Pd40  1  0.15889900  0.07262100  0.47500000  1
  Pd  Pd41  1  0.84110100  0.92737900  0.42500000  1
  Pd  Pd42  1  0.65889900  0.42737900  0.47500000  1
  Pd  Pd43  1  0.34110100  0.57262100  0.42500000  1
  Pd  Pd44  1  0.06807400  0.73588700  0.47500000  1
  Pd  Pd45  1  0.93192600  0.26411300  0.42500000  1
  Pd  Pd46  1  0.56807400  0.76411300  0.47500000  1
  Pd  Pd47  1  0.43192600  0.23588700  0.42500000  1
  Pd  Pd48  1  0.15889900  0.07262100  0.57500000  1
  Pd  Pd49  1  0.84110100  0.92737900  0.52500000  1
  Pd  Pd50  1  0.65889900  0.42737900  0.57500000  1
  Pd  Pd51  1  0.34110100  0.57262100  0.52500000  1
  Pd  Pd52  1  0.06807400  0.73588700  0.57500000  1
  Pd  Pd53  1  0.93192600  0.26411300  0.52500000  1
  Pd  Pd54  1  0.56807400  0.76411300  0.57500000  1
  Pd  Pd55  1  0.43192600  0.23588700  0.52500000  1
  Pd  Pd56  1  0.15889900  0.07262100  0.67500000  1
  Pd  Pd57  1  0.84110100  0.92737900  0.62500000  1
  Pd  Pd58  1  0.65889900  0.42737900  0.67500000  1
  Pd  Pd59  1  0.34110100  0.57262100  0.62500000  1
  Pd  Pd60  1  0.06807400  0.73588700  0.67500000  1
  Pd  Pd61  1  0.93192600  0.26411300  0.62500000  1
  Pd  Pd62  1  0.56807400  0.76411300  0.67500000  1
  Pd  Pd63  1  0.43192600  0.23588700  0.62500000  1
  Pd  Pd64  1  0.15889900  0.07262100  0.77500000  1
  Pd  Pd65  1  0.84110100  0.92737900  0.72500000  1
  Pd  Pd66  1  0.65889900  0.42737900  0.77500000  1
  Pd  Pd67  1  0.34110100  0.57262100  0.72500000  1
  Pd  Pd68  1  0.06807400  0.73588700  0.77500000  1
  Pd  Pd69  1  0.93192600  0.26411300  0.72500000  1
  Pd  Pd70  1  0.56807400  0.76411300  0.77500000  1
  Pd  Pd71  1  0.43192600  0.23588700  0.72500000  1
