# generated using pymatgen
data_Mg5B9
_symmetry_space_group_name_H-M   'P 1'
_cell_length_a   3.08673700
_cell_length_b   3.49509400
_cell_length_c   42.77108400
_cell_angle_alpha   90.00000000
_cell_angle_beta   90.00000000
_cell_angle_gamma   90.00000000
_symmetry_Int_Tables_number   1
_chemical_formula_structural   Mg5B9
_chemical_formula_sum   'Mg10 B18'
_cell_volume   461.43310103
_cell_formula_units_Z   2
loop_
 _symmetry_equiv_pos_site_id
 _symmetry_equiv_pos_as_xyz
  1  'x, y, z'
loop_
 _atom_site_type_symbol
 _atom_site_label
 _atom_site_symmetry_multiplicity
 _atom_site_fract_x
 _atom_site_fract_y
 _atom_site_fract_z
 _atom_site_occupancy
  Mg  Mg0  1  0.58333300  0.00000000  0.23958300  1
  Mg  Mg1  1  0.08333300  0.00000000  0.30208300  1
  Mg  Mg2  1  0.58333300  0.00000000  0.36458300  1
  Mg  Mg3  1  0.08333300  0.00000000  0.42708300  1
  Mg  Mg4  1  0.58333300  0.00000000  0.48958300  1
  Mg  Mg5  1  0.08333300  0.00000000  0.55208300  1
  Mg  Mg6  1  0.58333300  0.00000000  0.61458300  1
  Mg  Mg7  1  0.08333300  0.00000000  0.67708300  1
  Mg  Mg8  1  0.58333300  0.00000000  0.73958300  1
  Mg  Mg9  1  0.08333300  0.00000000  0.80208300  1
  B  B10  1  0.08333300  0.50000000  0.26041700  1
  B  B11  1  0.58333300  0.50000000  0.28125000  1
  B  B12  1  0.58333300  0.50000000  0.32291700  1
  B  B13  1  0.08333300  0.50000000  0.34375000  1
  B  B14  1  0.08333300  0.50000000  0.38541700  1
  B  B15  1  0.58333300  0.50000000  0.40625000  1
  B  B16  1  0.58333300  0.50000000  0.44791700  1
  B  B17  1  0.08333300  0.50000000  0.46875000  1
  B  B18  1  0.08333300  0.50000000  0.51041700  1
  B  B19  1  0.58333300  0.50000000  0.53125000  1
  B  B20  1  0.58333300  0.50000000  0.57291700  1
  B  B21  1  0.08333300  0.50000000  0.59375000  1
  B  B22  1  0.08333300  0.50000000  0.63541700  1
  B  B23  1  0.58333300  0.50000000  0.65625000  1
  B  B24  1  0.58333300  0.50000000  0.69791700  1
  B  B25  1  0.08333300  0.50000000  0.71875000  1
  B  B26  1  0.08333300  0.50000000  0.76041700  1
  B  B27  1  0.58333300  0.50000000  0.78125000  1
