# generated using pymatgen
data_Mg19B128
_symmetry_space_group_name_H-M   'P 1'
_cell_length_a   7.26364917
_cell_length_b   7.26364924
_cell_length_c   41.50303500
_cell_angle_alpha   90.48958354
_cell_angle_beta   90.48958355
_cell_angle_gamma   67.87756161
_symmetry_Int_Tables_number   1
_chemical_formula_structural   Mg19B128
_chemical_formula_sum   'Mg19 B128'
_cell_volume   2028.41254556
_cell_formula_units_Z   1
loop_
 _symmetry_equiv_pos_site_id
 _symmetry_equiv_pos_as_xyz
  1  'x, y, z'
loop_
 _atom_site_type_symbol
 _atom_site_label
 _atom_site_symmetry_multiplicity
 _atom_site_fract_x
 _atom_site_fract_y
 _atom_site_fract_z
 _atom_site_occupancy
  Mg  Mg0  1  0.29849800  0.79849800  0.71289100  1
  Mg  Mg1  1  0.42349800  0.92349800  0.77539100  1
  Mg  Mg2  1  0.74634400  0.47565100  0.74414100  1
  Mg  Mg3  1  0.10065100  0.37134400  0.80664100  1
  Mg  Mg4  1  0.04849800  0.54849800  0.58789100  1
  Mg  Mg5  1  0.17349800  0.67349800  0.65039100  1
  Mg  Mg6  1  0.49634400  0.22565100  0.61914100  1
  Mg  Mg7  1  0.85065100  0.12134400  0.68164100  1
  Mg  Mg8  1  0.79849800  0.29849800  0.46289100  1
  Mg  Mg9  1  0.92349800  0.42349800  0.52539100  1
  Mg  Mg10  1  0.24634400  0.97565100  0.49414100  1
  Mg  Mg11  1  0.60065100  0.87134400  0.55664100  1
  Mg  Mg12  1  0.54849800  0.04849800  0.33789100  1
  Mg  Mg13  1  0.67349800  0.17349800  0.40039100  1
  Mg  Mg14  1  0.99634400  0.72565100  0.36914100  1
  Mg  Mg15  1  0.35065100  0.62134400  0.43164100  1
  Mg  Mg16  1  0.42349800  0.92349800  0.27539100  1
  Mg  Mg17  1  0.74634400  0.47565100  0.24414100  1
  Mg  Mg18  1  0.10065100  0.37134400  0.30664100  1
  B  B19  1  0.41361400  0.64413400  0.75782800  1
  B  B20  1  0.37380400  0.46324700  0.73398800  1
  B  B21  1  0.50049900  0.58994200  0.79733500  1
  B  B22  1  0.41311600  0.06043400  0.72317800  1
  B  B23  1  0.44748200  0.39871100  0.69212400  1
  B  B24  1  0.54853800  0.22170400  0.72438000  1
  B  B25  1  0.72075900  0.39392500  0.81049000  1
  B  B26  1  0.68543400  0.03811600  0.78567800  1
  B  B27  1  0.57786100  0.80838100  0.73045300  1
  B  B28  1  0.82328400  0.77451300  0.79615700  1
  B  B29  1  0.63205300  0.72149600  0.69094600  1
  B  B30  1  0.75874800  0.84819100  0.75429400  1
  B  B31  1  0.84670400  0.17353800  0.78688000  1
  B  B32  1  0.76892500  0.09575900  0.74799000  1
  B  B33  1  0.07807000  0.75123600  0.80279100  1
  B  B34  1  0.00029100  0.67345700  0.76390100  1
  B  B35  1  0.08824700  0.99880400  0.79648800  1
  B  B36  1  0.96494200  0.87549900  0.73483500  1
  B  B37  1  0.02371100  0.07248200  0.75462400  1
  B  B38  1  0.01913400  0.78861400  0.69532800  1
  B  B39  1  0.16156200  0.80887900  0.76510400  1
  B  B40  1  0.12623600  0.45307000  0.74029100  1
  B  B41  1  0.04845700  0.37529100  0.70140100  1
  B  B42  1  0.14951300  0.19828400  0.73365700  1
  B  B43  1  0.18387900  0.53656200  0.70260400  1
  B  B44  1  0.34649600  0.25705300  0.75344600  1
  B  B45  1  0.22319100  0.13374800  0.69179400  1
  B  B46  1  0.43338100  0.20286100  0.79295300  1
  B  B47  1  0.16361400  0.39413400  0.63282800  1
  B  B48  1  0.12380400  0.21324700  0.60898800  1
  B  B49  1  0.25049900  0.33994200  0.67233500  1
  B  B50  1  0.16311600  0.81043400  0.59817800  1
  B  B51  1  0.19748200  0.14871100  0.56712400  1
  B  B52  1  0.29853800  0.97170400  0.59938000  1
  B  B53  1  0.47075900  0.14392500  0.68549000  1
  B  B54  1  0.43543400  0.78811600  0.66067800  1
  B  B55  1  0.32786100  0.55838100  0.60545300  1
  B  B56  1  0.57328400  0.52451300  0.67115700  1
  B  B57  1  0.38205300  0.47149600  0.56594600  1
  B  B58  1  0.50874800  0.59819100  0.62929400  1
  B  B59  1  0.59670400  0.92353800  0.66188000  1
  B  B60  1  0.51892500  0.84575900  0.62299000  1
  B  B61  1  0.82807000  0.50123600  0.67779100  1
  B  B62  1  0.75029100  0.42345700  0.63890100  1
  B  B63  1  0.83824700  0.74880400  0.67148800  1
  B  B64  1  0.71494200  0.62549900  0.60983500  1
  B  B65  1  0.77371100  0.82248200  0.62962400  1
  B  B66  1  0.76913400  0.53861400  0.57032800  1
  B  B67  1  0.91156200  0.55887900  0.64010400  1
  B  B68  1  0.87623600  0.20307000  0.61529100  1
  B  B69  1  0.79845700  0.12529100  0.57640100  1
  B  B70  1  0.89951300  0.94828400  0.60865700  1
  B  B71  1  0.93387900  0.28656200  0.57760400  1
  B  B72  1  0.09649600  0.00705300  0.62844600  1
  B  B73  1  0.97319100  0.88374800  0.56679400  1
  B  B74  1  0.18338100  0.95286100  0.66795300  1
  B  B75  1  0.91361400  0.14413400  0.50782800  1
  B  B76  1  0.87380400  0.96324700  0.48398800  1
  B  B77  1  0.00049900  0.08994200  0.54733500  1
  B  B78  1  0.91311600  0.56043400  0.47317800  1
  B  B79  1  0.94748200  0.89871100  0.44212400  1
  B  B80  1  0.04853800  0.72170400  0.47438000  1
  B  B81  1  0.22075900  0.89392500  0.56049000  1
  B  B82  1  0.18543400  0.53811600  0.53567800  1
  B  B83  1  0.07786100  0.30838100  0.48045300  1
  B  B84  1  0.32328400  0.27451300  0.54615700  1
  B  B85  1  0.13205300  0.22149600  0.44094600  1
  B  B86  1  0.25874800  0.34819100  0.50429400  1
  B  B87  1  0.34670400  0.67353800  0.53688000  1
  B  B88  1  0.26892500  0.59575900  0.49799000  1
  B  B89  1  0.57807000  0.25123600  0.55279100  1
  B  B90  1  0.50029100  0.17345700  0.51390100  1
  B  B91  1  0.58824700  0.49880400  0.54648800  1
  B  B92  1  0.46494200  0.37549900  0.48483500  1
  B  B93  1  0.52371100  0.57248200  0.50462400  1
  B  B94  1  0.51913400  0.28861400  0.44532800  1
  B  B95  1  0.66156200  0.30887900  0.51510400  1
  B  B96  1  0.62623600  0.95307000  0.49029100  1
  B  B97  1  0.54845700  0.87529100  0.45140100  1
  B  B98  1  0.64951300  0.69828400  0.48365700  1
  B  B99  1  0.68387900  0.03656200  0.45260400  1
  B  B100  1  0.84649600  0.75705300  0.50344600  1
  B  B101  1  0.72319100  0.63374800  0.44179400  1
  B  B102  1  0.93338100  0.70286100  0.54295300  1
  B  B103  1  0.66361400  0.89413400  0.38282800  1
  B  B104  1  0.62380400  0.71324700  0.35898800  1
  B  B105  1  0.75049900  0.83994200  0.42233500  1
  B  B106  1  0.66311600  0.31043400  0.34817800  1
  B  B107  1  0.69748200  0.64871100  0.31712400  1
  B  B108  1  0.79853800  0.47170400  0.34938000  1
  B  B109  1  0.97075900  0.64392500  0.43549000  1
  B  B110  1  0.93543400  0.28811600  0.41067800  1
  B  B111  1  0.82786100  0.05838100  0.35545300  1
  B  B112  1  0.07328400  0.02451300  0.42115700  1
  B  B113  1  0.88205300  0.97149600  0.31594600  1
  B  B114  1  0.00874800  0.09819100  0.37929400  1
  B  B115  1  0.09670400  0.42353800  0.41188000  1
  B  B116  1  0.01892500  0.34575900  0.37299000  1
  B  B117  1  0.32807000  0.00123600  0.42779100  1
  B  B118  1  0.25029100  0.92345700  0.38890100  1
  B  B119  1  0.33824700  0.24880400  0.42148800  1
  B  B120  1  0.21494200  0.12549900  0.35983500  1
  B  B121  1  0.27371100  0.32248200  0.37962400  1
  B  B122  1  0.26913400  0.03861400  0.32032800  1
  B  B123  1  0.41156200  0.05887900  0.39010400  1
  B  B124  1  0.37623600  0.70307000  0.36529100  1
  B  B125  1  0.29845700  0.62529100  0.32640100  1
  B  B126  1  0.39951300  0.44828400  0.35865700  1
  B  B127  1  0.43387900  0.78656200  0.32760400  1
  B  B128  1  0.59649600  0.50705300  0.37844600  1
  B  B129  1  0.47319100  0.38374800  0.31679400  1
  B  B130  1  0.68338100  0.45286100  0.41795300  1
  B  B131  1  0.41361400  0.64413400  0.25782800  1
  B  B132  1  0.50049900  0.58994200  0.29733500  1
  B  B133  1  0.72075900  0.39392500  0.31049000  1
  B  B134  1  0.68543400  0.03811600  0.28567800  1
  B  B135  1  0.82328400  0.77451300  0.29615700  1
  B  B136  1  0.75874800  0.84819100  0.25429400  1
  B  B137  1  0.84670400  0.17353800  0.28688000  1
  B  B138  1  0.76892500  0.09575900  0.24799000  1
  B  B139  1  0.07807000  0.75123600  0.30279100  1
  B  B140  1  0.00029100  0.67345700  0.26390100  1
  B  B141  1  0.08824700  0.99880400  0.29648800  1
  B  B142  1  0.02371100  0.07248200  0.25462400  1
  B  B143  1  0.16156200  0.80887900  0.26510400  1
  B  B144  1  0.12623600  0.45307000  0.24029100  1
  B  B145  1  0.34649600  0.25705300  0.25344600  1
  B  B146  1  0.43338100  0.20286100  0.29295300  1
