# generated using pymatgen
data_Mg5Ir7
_symmetry_space_group_name_H-M   'P 1'
_cell_length_a   5.24707521
_cell_length_b   9.72091511
_cell_length_c   42.67859400
_cell_angle_alpha   83.72935757
_cell_angle_beta   86.47569412
_cell_angle_gamma   74.34252486
_symmetry_Int_Tables_number   1
_chemical_formula_structural   Mg5Ir7
_chemical_formula_sum   'Mg30 Ir42'
_cell_volume   2082.39608329
_cell_formula_units_Z   6
loop_
 _symmetry_equiv_pos_site_id
 _symmetry_equiv_pos_as_xyz
  1  'x, y, z'
loop_
 _atom_site_type_symbol
 _atom_site_label
 _atom_site_symmetry_multiplicity
 _atom_site_fract_x
 _atom_site_fract_y
 _atom_site_fract_z
 _atom_site_occupancy
  Mg  Mg0  1  0.71986400  0.85533900  0.70493200  1
  Mg  Mg1  1  0.28013600  0.76866100  0.67106800  1
  Mg  Mg2  1  0.44543300  0.34447400  0.76466100  1
  Mg  Mg3  1  0.55456700  0.27952600  0.61133900  1
  Mg  Mg4  1  0.70924000  0.80461800  0.77690200  1
  Mg  Mg5  1  0.29076000  0.81938200  0.59909800  1
  Mg  Mg6  1  0.57770000  0.15617700  0.68842300  1
  Mg  Mg7  1  0.42230000  0.46782300  0.68757700  1
  Mg  Mg8  1  0.97896800  0.31777500  0.72428800  1
  Mg  Mg9  1  0.02103200  0.30622500  0.65171200  1
  Mg  Mg10  1  0.71986400  0.05533900  0.50493200  1
  Mg  Mg11  1  0.28013600  0.96866100  0.47106800  1
  Mg  Mg12  1  0.44543300  0.54447400  0.56466100  1
  Mg  Mg13  1  0.55456700  0.47952600  0.41133900  1
  Mg  Mg14  1  0.70924000  0.00461800  0.57690200  1
  Mg  Mg15  1  0.29076000  0.01938200  0.39909800  1
  Mg  Mg16  1  0.57770000  0.35617700  0.48842300  1
  Mg  Mg17  1  0.42230000  0.66782300  0.48757700  1
  Mg  Mg18  1  0.97896800  0.51777500  0.52428800  1
  Mg  Mg19  1  0.02103200  0.50622500  0.45171200  1
  Mg  Mg20  1  0.71986400  0.25533900  0.30493200  1
  Mg  Mg21  1  0.28013600  0.16866100  0.27106800  1
  Mg  Mg22  1  0.44543300  0.74447400  0.36466100  1
  Mg  Mg23  1  0.55456700  0.67952600  0.21133900  1
  Mg  Mg24  1  0.70924000  0.20461800  0.37690200  1
  Mg  Mg25  1  0.29076000  0.21938200  0.19909800  1
  Mg  Mg26  1  0.57770000  0.55617700  0.28842300  1
  Mg  Mg27  1  0.42230000  0.86782300  0.28757700  1
  Mg  Mg28  1  0.97896800  0.71777500  0.32428800  1
  Mg  Mg29  1  0.02103200  0.70622500  0.25171200  1
  Ir  Ir30  1  0.13112200  0.04409300  0.69366400  1
  Ir  Ir31  1  0.86887800  0.57990700  0.68233600  1
  Ir  Ir32  1  0.08254400  0.60198200  0.73390600  1
  Ir  Ir33  1  0.91745600  0.02201800  0.64209400  1
  Ir  Ir34  1  0.41843100  0.02201800  0.64209400  1
  Ir  Ir35  1  0.58156900  0.60198200  0.73390600  1
  Ir  Ir36  1  0.78403600  0.79532300  0.63660500  1
  Ir  Ir37  1  0.21596400  0.82867700  0.73939500  1
  Ir  Ir38  1  0.82470600  0.07128300  0.74718100  1
  Ir  Ir39  1  0.17529400  0.55271700  0.62881900  1
  Ir  Ir40  1  0.64317100  0.55271700  0.62881900  1
  Ir  Ir41  1  0.35682900  0.07128300  0.74718100  1
  Ir  Ir42  1  0.13112200  0.24409300  0.49366400  1
  Ir  Ir43  1  0.86887800  0.77990700  0.48233600  1
  Ir  Ir44  1  0.08254400  0.80198200  0.53390600  1
  Ir  Ir45  1  0.91745600  0.22201800  0.44209400  1
  Ir  Ir46  1  0.41843100  0.22201800  0.44209400  1
  Ir  Ir47  1  0.58156900  0.80198200  0.53390600  1
  Ir  Ir48  1  0.00000000  0.41200000  0.58800000  1
  Ir  Ir49  1  0.78403600  0.99532300  0.43660500  1
  Ir  Ir50  1  0.21596400  0.02867700  0.53939500  1
  Ir  Ir51  1  0.86417200  0.69028000  0.58137700  1
  Ir  Ir52  1  0.13582800  0.13372000  0.59462300  1
  Ir  Ir53  1  0.82470600  0.27128300  0.54718100  1
  Ir  Ir54  1  0.17529400  0.75271700  0.42881900  1
  Ir  Ir55  1  0.64317100  0.75271700  0.42881900  1
  Ir  Ir56  1  0.35682900  0.27128300  0.54718100  1
  Ir  Ir57  1  0.13112200  0.44409300  0.29366400  1
  Ir  Ir58  1  0.86887800  0.97990700  0.28233600  1
  Ir  Ir59  1  0.08254400  0.00198200  0.33390600  1
  Ir  Ir60  1  0.91745600  0.42201800  0.24209400  1
  Ir  Ir61  1  0.41843100  0.42201800  0.24209400  1
  Ir  Ir62  1  0.58156900  0.00198200  0.33390600  1
  Ir  Ir63  1  0.00000000  0.61200000  0.38800000  1
  Ir  Ir64  1  0.78403600  0.19532300  0.23660500  1
  Ir  Ir65  1  0.21596400  0.22867700  0.33939500  1
  Ir  Ir66  1  0.86417200  0.89028000  0.38137700  1
  Ir  Ir67  1  0.13582800  0.33372000  0.39462300  1
  Ir  Ir68  1  0.82470600  0.47128300  0.34718100  1
  Ir  Ir69  1  0.17529400  0.95271700  0.22881900  1
  Ir  Ir70  1  0.64317100  0.95271700  0.22881900  1
  Ir  Ir71  1  0.35682900  0.47128300  0.34718100  1
