# generated using pymatgen
data_MgZr2
_symmetry_space_group_name_H-M   'P 1'
_cell_length_a   5.60261400
_cell_length_b   8.02975544
_cell_length_c   42.05072000
_cell_angle_alpha   90.00000000
_cell_angle_beta   90.00000000
_cell_angle_gamma   103.44884965
_symmetry_Int_Tables_number   1
_chemical_formula_structural   MgZr2
_chemical_formula_sum   'Mg16 Zr32'
_cell_volume   1839.88581511
_cell_formula_units_Z   16
loop_
 _symmetry_equiv_pos_site_id
 _symmetry_equiv_pos_as_xyz
  1  'x, y, z'
loop_
 _atom_site_type_symbol
 _atom_site_label
 _atom_site_symmetry_multiplicity
 _atom_site_fract_x
 _atom_site_fract_y
 _atom_site_fract_z
 _atom_site_occupancy
  Mg  Mg0  1  0.75000000  1.00000000  0.21153800  1
  Mg  Mg1  1  0.25000000  1.00000000  0.25000000  1
  Mg  Mg2  1  0.75000000  1.00000000  0.28846200  1
  Mg  Mg3  1  0.25000000  1.00000000  0.32692300  1
  Mg  Mg4  1  0.75000000  0.00000000  0.36538500  1
  Mg  Mg5  1  0.25000000  1.00000000  0.40384600  1
  Mg  Mg6  1  0.75000000  0.00000000  0.44230800  1
  Mg  Mg7  1  0.25000000  1.00000000  0.48076900  1
  Mg  Mg8  1  0.75000000  0.00000000  0.51923100  1
  Mg  Mg9  1  0.25000000  1.00000000  0.55769200  1
  Mg  Mg10  1  0.75000000  1.00000000  0.59615400  1
  Mg  Mg11  1  0.25000000  1.00000000  0.63461500  1
  Mg  Mg12  1  0.75000000  1.00000000  0.67307700  1
  Mg  Mg13  1  0.25000000  1.00000000  0.71153800  1
  Mg  Mg14  1  0.75000000  1.00000000  0.75000000  1
  Mg  Mg15  1  0.25000000  1.00000000  0.78846200  1
  Zr  Zr16  1  0.96930900  0.65792700  0.21153800  1
  Zr  Zr17  1  0.53069100  0.34207300  0.21153800  1
  Zr  Zr18  1  0.46930900  0.65792700  0.25000000  1
  Zr  Zr19  1  0.03069100  0.34207300  0.25000000  1
  Zr  Zr20  1  0.96930900  0.65792700  0.28846200  1
  Zr  Zr21  1  0.53069100  0.34207300  0.28846200  1
  Zr  Zr22  1  0.46930900  0.65792700  0.32692300  1
  Zr  Zr23  1  0.03069100  0.34207300  0.32692300  1
  Zr  Zr24  1  0.96930900  0.65792700  0.36538500  1
  Zr  Zr25  1  0.53069100  0.34207300  0.36538500  1
  Zr  Zr26  1  0.46930900  0.65792700  0.40384600  1
  Zr  Zr27  1  0.03069100  0.34207300  0.40384600  1
  Zr  Zr28  1  0.96930900  0.65792700  0.44230800  1
  Zr  Zr29  1  0.53069100  0.34207300  0.44230800  1
  Zr  Zr30  1  0.46930900  0.65792700  0.48076900  1
  Zr  Zr31  1  0.03069100  0.34207300  0.48076900  1
  Zr  Zr32  1  0.96930900  0.65792700  0.51923100  1
  Zr  Zr33  1  0.53069100  0.34207300  0.51923100  1
  Zr  Zr34  1  0.46930900  0.65792700  0.55769200  1
  Zr  Zr35  1  0.03069100  0.34207300  0.55769200  1
  Zr  Zr36  1  0.96930900  0.65792700  0.59615400  1
  Zr  Zr37  1  0.53069100  0.34207300  0.59615400  1
  Zr  Zr38  1  0.46930900  0.65792700  0.63461500  1
  Zr  Zr39  1  0.03069100  0.34207300  0.63461500  1
  Zr  Zr40  1  0.96930900  0.65792700  0.67307700  1
  Zr  Zr41  1  0.53069100  0.34207300  0.67307700  1
  Zr  Zr42  1  0.46930900  0.65792700  0.71153800  1
  Zr  Zr43  1  0.03069100  0.34207300  0.71153800  1
  Zr  Zr44  1  0.96930900  0.65792700  0.75000000  1
  Zr  Zr45  1  0.53069100  0.34207300  0.75000000  1
  Zr  Zr46  1  0.46930900  0.65792700  0.78846200  1
  Zr  Zr47  1  0.03069100  0.34207300  0.78846200  1
