# generated using pymatgen
data_Mg9Ga4
_symmetry_space_group_name_H-M   'P 1'
_cell_length_a   6.11035700
_cell_length_b   6.82567400
_cell_length_c   55.65914500
_cell_angle_alpha   90.00000000
_cell_angle_beta   90.00000000
_cell_angle_gamma   90.00000000
_symmetry_Int_Tables_number   1
_chemical_formula_structural   Mg9Ga4
_chemical_formula_sum   'Mg36 Ga16'
_cell_volume   2321.39293130
_cell_formula_units_Z   4
loop_
 _symmetry_equiv_pos_site_id
 _symmetry_equiv_pos_as_xyz
  1  'x, y, z'
loop_
 _atom_site_type_symbol
 _atom_site_label
 _atom_site_symmetry_multiplicity
 _atom_site_fract_x
 _atom_site_fract_y
 _atom_site_fract_z
 _atom_site_occupancy
  Mg  Mg0  1  0.50000000  0.65542800  0.47602800  1
  Mg  Mg1  1  0.00000000  0.84457200  0.30968700  1
  Mg  Mg2  1  0.50000000  0.15542800  0.30968700  1
  Mg  Mg3  1  0.00000000  0.34457200  0.47602800  1
  Mg  Mg4  1  0.25000000  0.00000000  0.45535700  1
  Mg  Mg5  1  0.75000000  0.00000000  0.45535700  1
  Mg  Mg6  1  0.00000000  0.15542800  0.35102800  1
  Mg  Mg7  1  0.50000000  0.34457200  0.43468700  1
  Mg  Mg8  1  0.00000000  0.65542800  0.43468700  1
  Mg  Mg9  1  0.50000000  0.84457200  0.35102800  1
  Mg  Mg10  1  0.75000000  0.50000000  0.33035700  1
  Mg  Mg11  1  0.25000000  0.50000000  0.33035700  1
  Mg  Mg12  1  0.75000000  0.50000000  0.38902900  1
  Mg  Mg13  1  0.25000000  0.00000000  0.39668500  1
  Mg  Mg14  1  0.75000000  0.00000000  0.39668500  1
  Mg  Mg15  1  0.25000000  0.50000000  0.38902900  1
  Mg  Mg16  1  0.50000000  0.65542800  0.72602800  1
  Mg  Mg17  1  0.00000000  0.84457200  0.55968700  1
  Mg  Mg18  1  0.50000000  0.15542800  0.55968700  1
  Mg  Mg19  1  0.00000000  0.34457200  0.72602800  1
  Mg  Mg20  1  0.25000000  0.00000000  0.70535700  1
  Mg  Mg21  1  0.75000000  0.00000000  0.70535700  1
  Mg  Mg22  1  0.25000000  0.00000000  0.51402900  1
  Mg  Mg23  1  0.75000000  0.50000000  0.52168500  1
  Mg  Mg24  1  0.25000000  0.50000000  0.52168500  1
  Mg  Mg25  1  0.75000000  0.00000000  0.51402900  1
  Mg  Mg26  1  0.00000000  0.15542800  0.60102800  1
  Mg  Mg27  1  0.50000000  0.34457200  0.68468700  1
  Mg  Mg28  1  0.00000000  0.65542800  0.68468700  1
  Mg  Mg29  1  0.50000000  0.84457200  0.60102800  1
  Mg  Mg30  1  0.75000000  0.50000000  0.58035700  1
  Mg  Mg31  1  0.25000000  0.50000000  0.58035700  1
  Mg  Mg32  1  0.75000000  0.50000000  0.63902900  1
  Mg  Mg33  1  0.25000000  0.00000000  0.64668500  1
  Mg  Mg34  1  0.75000000  0.00000000  0.64668500  1
  Mg  Mg35  1  0.25000000  0.50000000  0.63902900  1
  Ga  Ga36  1  0.50000000  0.25943400  0.48596000  1
  Ga  Ga37  1  0.00000000  0.24056600  0.29975400  1
  Ga  Ga38  1  0.50000000  0.75943400  0.29975400  1
  Ga  Ga39  1  1.00000000  0.74056600  0.48596000  1
  Ga  Ga40  1  0.00000000  0.75943400  0.36096000  1
  Ga  Ga41  1  0.50000000  0.74056600  0.42475400  1
  Ga  Ga42  1  0.00000000  0.25943400  0.42475400  1
  Ga  Ga43  1  0.50000000  0.24056600  0.36096000  1
  Ga  Ga44  1  0.50000000  0.25943400  0.73596000  1
  Ga  Ga45  1  0.00000000  0.24056600  0.54975400  1
  Ga  Ga46  1  0.50000000  0.75943400  0.54975400  1
  Ga  Ga47  1  1.00000000  0.74056600  0.73596000  1
  Ga  Ga48  1  0.00000000  0.75943400  0.61096000  1
  Ga  Ga49  1  0.50000000  0.74056600  0.67475400  1
  Ga  Ga50  1  0.00000000  0.25943400  0.67475400  1
  Ga  Ga51  1  0.50000000  0.24056600  0.61096000  1
