# generated using pymatgen
data_Mg13Hg8
_symmetry_space_group_name_H-M   'P 1'
_cell_length_a   8.30244900
_cell_length_b   10.23075567
_cell_length_c   45.97526500
_cell_angle_alpha   89.07002719
_cell_angle_beta   90.00000000
_cell_angle_gamma   66.06127792
_symmetry_Int_Tables_number   1
_chemical_formula_structural   Mg13Hg8
_chemical_formula_sum   'Mg52 Hg32'
_cell_volume   3568.66965593
_cell_formula_units_Z   4
loop_
 _symmetry_equiv_pos_site_id
 _symmetry_equiv_pos_as_xyz
  1  'x, y, z'
loop_
 _atom_site_type_symbol
 _atom_site_label
 _atom_site_symmetry_multiplicity
 _atom_site_fract_x
 _atom_site_fract_y
 _atom_site_fract_z
 _atom_site_occupancy
  Mg  Mg0  1  0.07897400  0.08998400  0.28729300  1
  Mg  Mg1  1  0.58228400  0.58750100  0.28770700  1
  Mg  Mg2  1  0.02856000  0.43874200  0.31250000  1
  Mg  Mg3  1  0.73021500  0.78750100  0.33770700  1
  Mg  Mg4  1  0.87897400  0.48998400  0.38729300  1
  Mg  Mg5  1  0.38228400  0.98750100  0.38770700  1
  Mg  Mg6  1  0.73104300  0.28998400  0.33729300  1
  Mg  Mg7  1  0.43269800  0.63874200  0.36250000  1
  Mg  Mg8  1  0.13062900  0.73874200  0.30416700  1
  Mg  Mg9  1  0.43062900  0.13874200  0.32083300  1
  Mg  Mg10  1  0.33062900  0.33874200  0.37083300  1
  Mg  Mg11  1  0.03062900  0.93874200  0.35416700  1
  Mg  Mg12  1  0.82856000  0.83874200  0.41250000  1
  Mg  Mg13  1  0.53021500  0.18750100  0.43770700  1
  Mg  Mg14  1  0.67897400  0.88998400  0.48729300  1
  Mg  Mg15  1  0.18228400  0.38750100  0.48770700  1
  Mg  Mg16  1  0.53104300  0.68998400  0.43729300  1
  Mg  Mg17  1  0.23269800  0.03874200  0.46250000  1
  Mg  Mg18  1  0.93062900  0.13874200  0.40416700  1
  Mg  Mg19  1  0.23062900  0.53874200  0.42083300  1
  Mg  Mg20  1  0.13062900  0.73874200  0.47083300  1
  Mg  Mg21  1  0.83062900  0.33874200  0.45416700  1
  Mg  Mg22  1  0.62856000  0.23874200  0.51250000  1
  Mg  Mg23  1  0.33021500  0.58750100  0.53770700  1
  Mg  Mg24  1  0.47897400  0.28998400  0.58729300  1
  Mg  Mg25  1  0.98228400  0.78750100  0.58770700  1
  Mg  Mg26  1  0.33104300  0.08998400  0.53729300  1
  Mg  Mg27  1  0.03269800  0.43874200  0.56250000  1
  Mg  Mg28  1  0.73062900  0.53874200  0.50416700  1
  Mg  Mg29  1  0.03062900  0.93874200  0.52083300  1
  Mg  Mg30  1  0.93062900  0.13874200  0.57083300  1
  Mg  Mg31  1  0.63062900  0.73874200  0.55416700  1
  Mg  Mg32  1  0.42856000  0.63874200  0.61250000  1
  Mg  Mg33  1  0.13021500  0.98750100  0.63770700  1
  Mg  Mg34  1  0.27897400  0.68998400  0.68729300  1
  Mg  Mg35  1  0.78228400  0.18750100  0.68770700  1
  Mg  Mg36  1  0.13104300  0.48998400  0.63729300  1
  Mg  Mg37  1  0.83269800  0.83874200  0.66250000  1
  Mg  Mg38  1  0.53062900  0.93874200  0.60416700  1
  Mg  Mg39  1  0.83062900  0.33874200  0.62083300  1
  Mg  Mg40  1  0.73062900  0.53874200  0.67083300  1
  Mg  Mg41  1  0.43062900  0.13874200  0.65416700  1
  Mg  Mg42  1  0.22856000  0.03874200  0.71250000  1
  Mg  Mg43  1  0.93021500  0.38750100  0.73770700  1
  Mg  Mg44  1  0.07897400  0.08998400  0.78729300  1
  Mg  Mg45  1  0.58228400  0.58750100  0.78770700  1
  Mg  Mg46  1  0.93104300  0.88998400  0.73729300  1
  Mg  Mg47  1  0.63269800  0.23874200  0.76250000  1
  Mg  Mg48  1  0.33062900  0.33874200  0.70416700  1
  Mg  Mg49  1  0.63062900  0.73874200  0.72083300  1
  Mg  Mg50  1  0.53062900  0.93874200  0.77083300  1
  Mg  Mg51  1  0.23062900  0.53874200  0.75416700  1
  Hg  Hg52  1  0.80270500  0.00497000  0.30146200  1
  Hg  Hg53  1  0.85855300  0.67251500  0.27353800  1
  Hg  Hg54  1  0.39100700  0.43874200  0.31250000  1
  Hg  Hg55  1  0.60270500  0.40497000  0.40146200  1
  Hg  Hg56  1  0.36893200  0.87251500  0.32353800  1
  Hg  Hg57  1  0.09232600  0.20497000  0.35146200  1
  Hg  Hg58  1  0.65855300  0.07251500  0.37353800  1
  Hg  Hg59  1  0.07025000  0.63874200  0.36250000  1
  Hg  Hg60  1  0.19100700  0.83874200  0.41250000  1
  Hg  Hg61  1  0.40270500  0.80497000  0.50146200  1
  Hg  Hg62  1  0.16893200  0.27251500  0.42353800  1
  Hg  Hg63  1  0.89232600  0.60497000  0.45146200  1
  Hg  Hg64  1  0.45855300  0.47251500  0.47353800  1
  Hg  Hg65  1  0.87025000  0.03874200  0.46250000  1
  Hg  Hg66  1  0.99100700  0.23874200  0.51250000  1
  Hg  Hg67  1  0.20270500  0.20497000  0.60146200  1
  Hg  Hg68  1  0.96893200  0.67251500  0.52353800  1
  Hg  Hg69  1  0.69232600  0.00497000  0.55146200  1
  Hg  Hg70  1  0.25855300  0.87251500  0.57353800  1
  Hg  Hg71  1  0.67025000  0.43874200  0.56250000  1
  Hg  Hg72  1  0.79100700  0.63874200  0.61250000  1
  Hg  Hg73  1  0.00270500  0.60497000  0.70146200  1
  Hg  Hg74  1  0.76893200  0.07251500  0.62353800  1
  Hg  Hg75  1  0.49232600  0.40497000  0.65146200  1
  Hg  Hg76  1  0.05855300  0.27251500  0.67353800  1
  Hg  Hg77  1  0.47025000  0.83874200  0.66250000  1
  Hg  Hg78  1  0.59100700  0.03874200  0.71250000  1
  Hg  Hg79  1  0.80270500  0.00497000  0.80146200  1
  Hg  Hg80  1  0.56893200  0.47251500  0.72353800  1
  Hg  Hg81  1  0.29232600  0.80497000  0.75146200  1
  Hg  Hg82  1  0.85855300  0.67251500  0.77353800  1
  Hg  Hg83  1  0.27025000  0.23874200  0.76250000  1
