# generated using pymatgen
data_La4Mg37
_symmetry_space_group_name_H-M   'P 1'
_cell_length_a   10.38875200
_cell_length_b   14.48655120
_cell_length_c   47.03743100
_cell_angle_alpha   91.51171628
_cell_angle_beta   90.00000000
_cell_angle_gamma   68.98788168
_symmetry_Int_Tables_number   1
_chemical_formula_structural   La4Mg37
_chemical_formula_sum   'La12 Mg111'
_cell_volume   6605.64073251
_cell_formula_units_Z   3
loop_
 _symmetry_equiv_pos_site_id
 _symmetry_equiv_pos_as_xyz
  1  'x, y, z'
loop_
 _atom_site_type_symbol
 _atom_site_label
 _atom_site_symmetry_multiplicity
 _atom_site_fract_x
 _atom_site_fract_y
 _atom_site_fract_z
 _atom_site_occupancy
  La  La0  1  0.46669600  0.06660800  0.31453600  1
  La  La1  1  0.18098200  0.63803700  0.29072700  1
  La  La2  1  0.75241000  0.49518000  0.33834600  1
  La  La3  1  0.89526700  0.20946500  0.26691700  1
  La  La4  1  0.18098200  0.63803700  0.45739300  1
  La  La5  1  0.89526700  0.20946500  0.43358400  1
  La  La6  1  0.46669600  0.06660800  0.48120300  1
  La  La7  1  0.60955300  0.78089400  0.40977400  1
  La  La8  1  0.89526700  0.20946500  0.60025100  1
  La  La9  1  0.60955300  0.78089400  0.57644100  1
  La  La10  1  0.18098200  0.63803700  0.62406000  1
  La  La11  1  0.32383900  0.35232200  0.55263200  1
  Mg  Mg12  1  0.53977200  0.43378600  0.28244200  1
  Mg  Mg13  1  0.88739300  0.22521400  0.35196600  1
  Mg  Mg14  1  0.02644100  0.43378600  0.28244200  1
  Mg  Mg15  1  0.75215400  0.00902400  0.25736300  1
  Mg  Mg16  1  0.08145800  0.83708500  0.34048900  1
  Mg  Mg17  1  0.65288600  0.69422800  0.22144100  1
  Mg  Mg18  1  0.56622000  0.86756000  0.26477400  1
  Mg  Mg19  1  0.28050600  0.43898900  0.24096500  1
  Mg  Mg20  1  0.46669600  0.06660800  0.23120300  1
  Mg  Mg21  1  0.96669600  0.56660800  0.23120300  1
  Mg  Mg22  1  0.46669600  0.56660800  0.23120300  1
  Mg  Mg23  1  0.32383900  0.85232200  0.30263200  1
  Mg  Mg24  1  0.82383900  0.85232200  0.30263200  1
  Mg  Mg25  1  0.32383900  0.35232200  0.30263200  1
  Mg  Mg26  1  0.54216000  0.22424800  0.26199000  1
  Mg  Mg27  1  0.90978300  0.78297900  0.24241300  1
  Mg  Mg28  1  0.52764500  0.65073500  0.28649400  1
  Mg  Mg29  1  0.12003300  0.05391000  0.31876900  1
  Mg  Mg30  1  0.02360900  0.35023800  0.21999300  1
  Mg  Mg31  1  0.41408600  0.48039700  0.34327300  1
  Mg  Mg32  1  0.82162000  0.65073500  0.28649400  1
  Mg  Mg33  1  0.10551700  0.48039700  0.34327300  1
  Mg  Mg34  1  0.30723800  0.78297900  0.24241300  1
  Mg  Mg35  1  0.62615300  0.35023800  0.21999300  1
  Mg  Mg36  1  0.23359200  0.22424800  0.26199000  1
  Mg  Mg37  1  0.82605700  0.05391000  0.31876900  1
  Mg  Mg38  1  0.04219000  0.91562000  0.27456700  1
  Mg  Mg39  1  0.10790500  0.27085900  0.32282100  1
  Mg  Mg40  1  0.62123600  0.27085900  0.32282100  1
  Mg  Mg41  1  0.89552400  0.69562100  0.34790100  1
  Mg  Mg42  1  0.40885500  0.69562100  0.34790100  1
  Mg  Mg43  1  0.60548800  0.78902500  0.33069600  1
  Mg  Mg44  1  0.23882300  0.00902400  0.25736300  1
  Mg  Mg45  1  0.76028500  0.47943100  0.25329700  1
  Mg  Mg46  1  0.25405800  0.00521500  0.42529900  1
  Mg  Mg47  1  0.60167900  0.79664300  0.49482300  1
  Mg  Mg48  1  0.74072700  0.00521500  0.42529900  1
  Mg  Mg49  1  0.46643900  0.58045200  0.40022000  1
  Mg  Mg50  1  0.79574300  0.40851300  0.48334600  1
  Mg  Mg51  1  0.36717200  0.26565600  0.36429800  1
  Mg  Mg52  1  0.28050600  0.43898900  0.40763100  1
  Mg  Mg53  1  0.99479100  0.01041700  0.38382200  1
  Mg  Mg54  1  0.18098200  0.63803700  0.37406000  1
  Mg  Mg55  1  0.68098200  0.13803700  0.37406000  1
  Mg  Mg56  1  0.18098200  0.13803700  0.37406000  1
  Mg  Mg57  1  0.03812400  0.42375100  0.44548900  1
  Mg  Mg58  1  0.53812400  0.42375100  0.44548900  1
  Mg  Mg59  1  0.03812400  0.92375100  0.44548900  1
  Mg  Mg60  1  0.25644600  0.79567700  0.40484700  1
  Mg  Mg61  1  0.62406900  0.35440700  0.38527000  1
  Mg  Mg62  1  0.24193000  0.22216300  0.42935100  1
  Mg  Mg63  1  0.83431900  0.62533900  0.46162600  1
  Mg  Mg64  1  0.73789500  0.92166600  0.36285000  1
  Mg  Mg65  1  0.12837200  0.05182500  0.48613100  1
  Mg  Mg66  1  0.53590600  0.22216300  0.42935100  1
  Mg  Mg67  1  0.81980300  0.05182500  0.48613100  1
  Mg  Mg68  1  0.02152400  0.35440700  0.38527000  1
  Mg  Mg69  1  0.34043900  0.92166600  0.36285000  1
  Mg  Mg70  1  0.94787700  0.79567700  0.40484700  1
  Mg  Mg71  1  0.54034300  0.62533900  0.46162600  1
  Mg  Mg72  1  0.75647600  0.48704900  0.41742500  1
  Mg  Mg73  1  0.82219100  0.84228700  0.46567800  1
  Mg  Mg74  1  0.33552200  0.84228700  0.46567800  1
  Mg  Mg75  1  0.60981000  0.26705000  0.49075800  1
  Mg  Mg76  1  0.12314100  0.26705000  0.49075800  1
  Mg  Mg77  1  0.31977300  0.36045300  0.47355300  1
  Mg  Mg78  1  0.95310800  0.58045200  0.40022000  1
  Mg  Mg79  1  0.47457000  0.05086000  0.39615400  1
  Mg  Mg80  1  0.96834400  0.57664300  0.56815600  1
  Mg  Mg81  1  0.31596400  0.36807100  0.63768000  1
  Mg  Mg82  1  0.45501300  0.57664300  0.56815600  1
  Mg  Mg83  1  0.18072500  0.15188100  0.54307700  1
  Mg  Mg84  1  0.51002900  0.97994200  0.62620300  1
  Mg  Mg85  1  0.08145800  0.83708500  0.50715600  1
  Mg  Mg86  1  0.99479100  0.01041700  0.55048900  1
  Mg  Mg87  1  0.70907700  0.58184600  0.52667900  1
  Mg  Mg88  1  0.89526700  0.20946500  0.51691700  1
  Mg  Mg89  1  0.39526700  0.70946500  0.51691700  1
  Mg  Mg90  1  0.89526700  0.70946500  0.51691700  1
  Mg  Mg91  1  0.75241000  0.99518000  0.58834600  1
  Mg  Mg92  1  0.25241000  0.99518000  0.58834600  1
  Mg  Mg93  1  0.75241000  0.49518000  0.58834600  1
  Mg  Mg94  1  0.97073200  0.36710500  0.54770400  1
  Mg  Mg95  1  0.33835400  0.92583600  0.52812700  1
  Mg  Mg96  1  0.95621600  0.79359200  0.57220800  1
  Mg  Mg97  1  0.54860400  0.19676700  0.60448300  1
  Mg  Mg98  1  0.45218000  0.49309500  0.50570700  1
  Mg  Mg99  1  0.84265700  0.62325400  0.62898800  1
  Mg  Mg100  1  0.25019200  0.79359200  0.57220800  1
  Mg  Mg101  1  0.53408900  0.62325400  0.62898800  1
  Mg  Mg102  1  0.73581000  0.92583600  0.52812700  1
  Mg  Mg103  1  0.05472500  0.49309500  0.50570700  1
  Mg  Mg104  1  0.66216300  0.36710500  0.54770400  1
  Mg  Mg105  1  0.25462800  0.19676700  0.60448300  1
  Mg  Mg106  1  0.47076100  0.05847700  0.56028200  1
  Mg  Mg107  1  0.53647700  0.41371600  0.60853600  1
  Mg  Mg108  1  0.04980800  0.41371600  0.60853600  1
  Mg  Mg109  1  0.32409500  0.83847800  0.63361500  1
  Mg  Mg110  1  0.83742600  0.83847800  0.63361500  1
  Mg  Mg111  1  0.03405900  0.93188200  0.61641000  1
  Mg  Mg112  1  0.66739400  0.15188100  0.54307700  1
  Mg  Mg113  1  0.18885600  0.62228800  0.53901200  1
  Mg  Mg114  1  0.79574300  0.40851300  0.65001300  1
  Mg  Mg115  1  0.42336300  0.15327400  0.66953600  1
  Mg  Mg116  1  0.60955300  0.78089400  0.65977400  1
  Mg  Mg117  1  0.10955300  0.28089400  0.65977400  1
  Mg  Mg118  1  0.60955300  0.28089400  0.65977400  1
  Mg  Mg119  1  0.05264000  0.49726400  0.67098400  1
  Mg  Mg120  1  0.16646600  0.06452300  0.64856500  1
  Mg  Mg121  1  0.45009600  0.49726400  0.67098400  1
  Mg  Mg122  1  0.76901100  0.06452300  0.64856500  1
