# generated using pymatgen
data_Nd19Mg9
_symmetry_space_group_name_H-M   'P 1'
_cell_length_a   3.84469700
_cell_length_b   18.34695764
_cell_length_c   43.38189500
_cell_angle_alpha   95.69976072
_cell_angle_beta   90.00000000
_cell_angle_gamma   90.00000000
_symmetry_Int_Tables_number   1
_chemical_formula_structural   Nd19Mg9
_chemical_formula_sum   'Nd38 Mg18'
_cell_volume   3044.96434749
_cell_formula_units_Z   2
loop_
 _symmetry_equiv_pos_site_id
 _symmetry_equiv_pos_as_xyz
  1  'x, y, z'
loop_
 _atom_site_type_symbol
 _atom_site_label
 _atom_site_symmetry_multiplicity
 _atom_site_fract_x
 _atom_site_fract_y
 _atom_site_fract_z
 _atom_site_occupancy
  Nd  Nd0  1  0.00000000  0.00519700  0.28171500  1
  Nd  Nd1  1  0.50000000  0.84644100  0.30439500  1
  Nd  Nd2  1  0.50000000  0.65754500  0.25995100  1
  Nd  Nd3  1  0.00000000  0.81630100  0.23727200  1
  Nd  Nd4  1  0.00000000  0.28394100  0.24189500  1
  Nd  Nd5  1  0.50000000  0.37880100  0.29977200  1
  Nd  Nd6  1  0.00000000  0.13019700  0.40671500  1
  Nd  Nd7  1  0.50000000  0.97144100  0.42939500  1
  Nd  Nd8  1  0.50000000  0.78254500  0.38495100  1
  Nd  Nd9  1  1.00000000  0.94130100  0.36227200  1
  Nd  Nd10  1  0.50000000  0.56769700  0.34421500  1
  Nd  Nd11  1  0.00000000  0.40894100  0.36689500  1
  Nd  Nd12  1  0.00000000  0.22004500  0.32245100  1
  Nd  Nd13  1  0.50000000  0.50380100  0.42477200  1
  Nd  Nd14  1  1.00000000  0.25519700  0.53171500  1
  Nd  Nd15  1  0.50000000  0.09644100  0.55439500  1
  Nd  Nd16  1  0.50000000  0.90754500  0.50995100  1
  Nd  Nd17  1  0.00000000  0.06630100  0.48727200  1
  Nd  Nd18  1  0.50000000  0.69269700  0.46921500  1
  Nd  Nd19  1  1.00000000  0.53394100  0.49189500  1
  Nd  Nd20  1  0.00000000  0.34504500  0.44745100  1
  Nd  Nd21  1  0.50000000  0.62880100  0.54977200  1
  Nd  Nd22  1  1.00000000  0.38019700  0.65671500  1
  Nd  Nd23  1  0.50000000  0.22144100  0.67939500  1
  Nd  Nd24  1  0.50000000  0.03254500  0.63495100  1
  Nd  Nd25  1  1.00000000  0.19130100  0.61227200  1
  Nd  Nd26  1  0.50000000  0.81769700  0.59421500  1
  Nd  Nd27  1  1.00000000  0.65894100  0.61689500  1
  Nd  Nd28  1  1.00000000  0.47004500  0.57245100  1
  Nd  Nd29  1  0.50000000  0.75380100  0.67477200  1
  Nd  Nd30  1  1.00000000  0.50519700  0.78171500  1
  Nd  Nd31  1  0.50000000  0.34644100  0.80439500  1
  Nd  Nd32  1  0.50000000  0.15754500  0.75995100  1
  Nd  Nd33  1  1.00000000  0.31630100  0.73727200  1
  Nd  Nd34  1  0.50000000  0.94269700  0.71921500  1
  Nd  Nd35  1  0.00000000  0.78394100  0.74189500  1
  Nd  Nd36  1  0.00000000  0.59504500  0.69745100  1
  Nd  Nd37  1  0.50000000  0.87880100  0.79977200  1
  Mg  Mg38  1  0.50000000  0.14299600  0.26203000  1
  Mg  Mg39  1  0.00000000  0.51974600  0.27963700  1
  Mg  Mg40  1  0.00000000  0.70549600  0.32453000  1
  Mg  Mg41  1  0.50000000  0.08224600  0.34213700  1
  Mg  Mg42  1  0.50000000  0.26799600  0.38703000  1
  Mg  Mg43  1  0.00000000  0.64474600  0.40463700  1
  Mg  Mg44  1  0.00000000  0.83049600  0.44953000  1
  Mg  Mg45  1  0.50000000  0.20724600  0.46713700  1
  Mg  Mg46  1  0.50000000  0.39299600  0.51203000  1
  Mg  Mg47  1  1.00000000  0.76974600  0.52963700  1
  Mg  Mg48  1  0.00000000  0.95549600  0.57453000  1
  Mg  Mg49  1  0.50000000  0.33224600  0.59213700  1
  Mg  Mg50  1  0.50000000  0.51799600  0.63703000  1
  Mg  Mg51  1  0.00000000  0.89474600  0.65463700  1
  Mg  Mg52  1  0.00000000  0.08049600  0.69953000  1
  Mg  Mg53  1  0.50000000  0.45724600  0.71713700  1
  Mg  Mg54  1  0.50000000  0.64299600  0.76203000  1
  Mg  Mg55  1  1.00000000  0.01974600  0.77963700  1
