# generated using pymatgen
data_MgB2
_symmetry_space_group_name_H-M   'P 1'
_cell_length_a   3.08673731
_cell_length_b   4.66300647
_cell_length_c   42.52784500
_cell_angle_alpha   92.82383175
_cell_angle_beta   87.92023673
_cell_angle_gamma   109.32834826
_symmetry_Int_Tables_number   1
_chemical_formula_structural   MgB2
_chemical_formula_sum   'Mg12 B24'
_cell_volume   576.79148824
_cell_formula_units_Z   12
loop_
 _symmetry_equiv_pos_site_id
 _symmetry_equiv_pos_as_xyz
  1  'x, y, z'
loop_
 _atom_site_type_symbol
 _atom_site_label
 _atom_site_symmetry_multiplicity
 _atom_site_fract_x
 _atom_site_fract_y
 _atom_site_fract_z
 _atom_site_occupancy
  Mg  Mg0  1  0.65000000  0.82500000  0.22500000  1
  Mg  Mg1  1  0.95000000  0.47500000  0.27500000  1
  Mg  Mg2  1  0.25000000  0.12500000  0.32500000  1
  Mg  Mg3  1  0.55000000  0.77500000  0.37500000  1
  Mg  Mg4  1  0.85000000  0.42500000  0.42500000  1
  Mg  Mg5  1  0.15000000  0.07500000  0.47500000  1
  Mg  Mg6  1  0.45000000  0.72500000  0.52500000  1
  Mg  Mg7  1  0.75000000  0.37500000  0.57500000  1
  Mg  Mg8  1  0.05000000  0.02500000  0.62500000  1
  Mg  Mg9  1  0.35000000  0.67500000  0.67500000  1
  Mg  Mg10  1  0.65000000  0.32500000  0.72500000  1
  Mg  Mg11  1  0.95000000  0.97500000  0.77500000  1
  B  B12  1  0.93333300  0.38333300  0.21666700  1
  B  B13  1  0.36666700  0.26666700  0.23333300  1
  B  B14  1  0.23333300  0.03333300  0.26666700  1
  B  B15  1  0.66666700  0.91666700  0.28333300  1
  B  B16  1  0.53333300  0.68333300  0.31666700  1
  B  B17  1  0.96666700  0.56666700  0.33333300  1
  B  B18  1  0.83333300  0.33333300  0.36666700  1
  B  B19  1  0.26666700  0.21666700  0.38333300  1
  B  B20  1  0.13333300  0.98333300  0.41666700  1
  B  B21  1  0.56666700  0.86666700  0.43333300  1
  B  B22  1  0.43333300  0.63333300  0.46666700  1
  B  B23  1  0.86666700  0.51666700  0.48333300  1
  B  B24  1  0.73333300  0.28333300  0.51666700  1
  B  B25  1  0.16666700  0.16666700  0.53333300  1
  B  B26  1  0.03333300  0.93333300  0.56666700  1
  B  B27  1  0.46666700  0.81666700  0.58333300  1
  B  B28  1  0.33333300  0.58333300  0.61666700  1
  B  B29  1  0.76666700  0.46666700  0.63333300  1
  B  B30  1  0.63333300  0.23333300  0.66666700  1
  B  B31  1  0.06666700  0.11666700  0.68333300  1
  B  B32  1  0.93333300  0.88333300  0.71666700  1
  B  B33  1  0.36666700  0.76666700  0.73333300  1
  B  B34  1  0.23333300  0.53333300  0.76666700  1
  B  B35  1  0.66666700  0.41666700  0.78333300  1
