# generated using pymatgen
data_Sr2Mg15
_symmetry_space_group_name_H-M   'P 1'
_cell_length_a   10.60291300
_cell_length_b   14.66206680
_cell_length_c   47.66603800
_cell_angle_alpha   92.42755603
_cell_angle_beta   90.00000000
_cell_angle_gamma   68.80296164
_symmetry_Int_Tables_number   1
_chemical_formula_structural   Sr2Mg15
_chemical_formula_sum   'Sr14 Mg105'
_cell_volume   6901.70350145
_cell_formula_units_Z   7
loop_
 _symmetry_equiv_pos_site_id
 _symmetry_equiv_pos_as_xyz
  1  'x, y, z'
loop_
 _atom_site_type_symbol
 _atom_site_label
 _atom_site_symmetry_multiplicity
 _atom_site_fract_x
 _atom_site_fract_y
 _atom_site_fract_z
 _atom_site_occupancy
  Sr  Sr0  1  0.38555300  0.22889400  0.35964900  1
  Sr  Sr1  1  0.09983900  0.80032300  0.33584000  1
  Sr  Sr2  1  0.09983900  0.80032300  0.50250600  1
  Sr  Sr3  1  0.81412400  0.37175100  0.47869700  1
  Sr  Sr4  1  0.67126700  0.65746600  0.38345900  1
  Sr  Sr5  1  0.52841000  0.94318000  0.45488700  1
  Sr  Sr6  1  0.81412400  0.37175100  0.64536300  1
  Sr  Sr7  1  0.52841000  0.94318000  0.62155400  1
  Sr  Sr8  1  0.38555300  0.22889400  0.52631600  1
  Sr  Sr9  1  0.24269600  0.51460800  0.59774400  1
  Sr  Sr10  1  0.52841000  0.94318000  0.78822100  1
  Sr  Sr11  1  0.24269600  0.51460800  0.76441100  1
  Sr  Sr12  1  0.09983900  0.80032300  0.66917300  1
  Sr  Sr13  1  0.95698100  0.08603700  0.74060200  1
  Mg  Mg14  1  0.24269600  0.01460800  0.34774400  1
  Mg  Mg15  1  0.74269600  0.01460800  0.34774400  1
  Mg  Mg16  1  0.24269600  0.51460800  0.34774400  1
  Mg  Mg17  1  0.80710300  0.38579500  0.39786800  1
  Mg  Mg18  1  0.66252000  0.16892100  0.47015900  1
  Mg  Mg19  1  0.16856000  0.16892100  0.47015900  1
  Mg  Mg20  1  0.87594300  0.74207500  0.44577400  1
  Mg  Mg21  1  0.00038100  0.99923800  0.38556900  1
  Mg  Mg22  1  0.28609500  0.42781000  0.40937800  1
  Mg  Mg23  1  0.19929600  0.60140700  0.45277700  1
  Mg  Mg24  1  0.91358200  0.17283600  0.42896800  1
  Mg  Mg25  1  0.09983900  0.80032300  0.41917300  1
  Mg  Mg26  1  0.59983900  0.30032300  0.41917300  1
  Mg  Mg27  1  0.09983900  0.30032300  0.41917300  1
  Mg  Mg28  1  0.95698100  0.58603700  0.49060200  1
  Mg  Mg29  1  0.45698100  0.58603700  0.49060200  1
  Mg  Mg30  1  0.95698100  0.08603700  0.49060200  1
  Mg  Mg31  1  0.17345400  0.95905200  0.44959700  1
  Mg  Mg32  1  0.54037500  0.51667900  0.43038800  1
  Mg  Mg33  1  0.16149000  0.38555300  0.47409600  1
  Mg  Mg34  1  0.03818800  0.21509300  0.36425000  1
  Mg  Mg35  1  0.65930300  0.08396700  0.40795800  1
  Mg  Mg36  1  0.33218300  0.64159400  0.38874900  1
  Mg  Mg37  1  0.45295700  0.38555300  0.47409600  1
  Mg  Mg38  1  0.02622300  0.64159400  0.38874900  1
  Mg  Mg39  1  0.94294600  0.51667900  0.43038800  1
  Mg  Mg40  1  0.25673100  0.08396700  0.40795800  1
  Mg  Mg41  1  0.86749400  0.95905200  0.44959700  1
  Mg  Mg42  1  0.74672000  0.21509300  0.36425000  1
  Mg  Mg43  1  0.32373500  0.85857100  0.39257200  1
  Mg  Mg44  1  0.53715800  0.43172500  0.36818700  1
  Mg  Mg45  1  0.39257500  0.21485100  0.44047800  1
  Mg  Mg46  1  0.67656300  0.64687400  0.46313700  1
  Mg  Mg47  1  0.81769500  0.85857100  0.39257200  1
  Mg  Mg48  1  0.38198300  0.74207500  0.44577400  1
  Mg  Mg49  1  0.52311400  0.95377200  0.37520900  1
  Mg  Mg50  1  0.03111800  0.43172500  0.36818700  1
  Mg  Mg51  1  0.52138800  0.95722300  0.54072500  1
  Mg  Mg52  1  0.37680500  0.74034900  0.61301600  1
  Mg  Mg53  1  0.88284500  0.74034900  0.61301600  1
  Mg  Mg54  1  0.59022800  0.31350300  0.58863100  1
  Mg  Mg55  1  0.71466700  0.57066700  0.52842600  1
  Mg  Mg56  1  0.00038100  0.99923800  0.55223500  1
  Mg  Mg57  1  0.91358200  0.17283600  0.59563400  1
  Mg  Mg58  1  0.62786800  0.74426400  0.57182500  1
  Mg  Mg59  1  0.81412400  0.37175100  0.56203000  1
  Mg  Mg60  1  0.31412400  0.87175100  0.56203000  1
  Mg  Mg61  1  0.81412400  0.87175100  0.56203000  1
  Mg  Mg62  1  0.67126700  0.15746600  0.63345900  1
  Mg  Mg63  1  0.17126700  0.15746600  0.63345900  1
  Mg  Mg64  1  0.67126700  0.65746600  0.63345900  1
  Mg  Mg65  1  0.88774000  0.53048000  0.59245400  1
  Mg  Mg66  1  0.25466000  0.08810700  0.57324500  1
  Mg  Mg67  1  0.87577500  0.95698100  0.61695300  1
  Mg  Mg68  1  0.75247300  0.78652100  0.50710700  1
  Mg  Mg69  1  0.37358800  0.65539500  0.55081500  1
  Mg  Mg70  1  0.04646900  0.21302200  0.53160600  1
  Mg  Mg71  1  0.16724300  0.95698100  0.61695300  1
  Mg  Mg72  1  0.74050900  0.21302200  0.53160600  1
  Mg  Mg73  1  0.65723200  0.08810700  0.57324500  1
  Mg  Mg74  1  0.97101700  0.65539500  0.55081500  1
  Mg  Mg75  1  0.58178000  0.53048000  0.59245400  1
  Mg  Mg76  1  0.46100600  0.78652100  0.50710700  1
  Mg  Mg77  1  0.03802000  0.42999900  0.53542900  1
  Mg  Mg78  1  0.25144300  0.00315400  0.51104400  1
  Mg  Mg79  1  0.10686000  0.78627900  0.58333500  1
  Mg  Mg80  1  0.39084900  0.21830200  0.60599400  1
  Mg  Mg81  1  0.53198000  0.42999900  0.53542900  1
  Mg  Mg82  1  0.09626800  0.31350300  0.58863100  1
  Mg  Mg83  1  0.23740000  0.52520000  0.51806600  1
  Mg  Mg84  1  0.74540300  0.00315400  0.51104400  1
  Mg  Mg85  1  0.23567400  0.52865200  0.68358200  1
  Mg  Mg86  1  0.09109100  0.31177800  0.75587300  1
  Mg  Mg87  1  0.59713100  0.31177800  0.75587300  1
  Mg  Mg88  1  0.30451400  0.88493200  0.73148900  1
  Mg  Mg89  1  0.42895200  0.14209600  0.67128300  1
  Mg  Mg90  1  0.71466700  0.57066700  0.69509200  1
  Mg  Mg91  1  0.62786800  0.74426400  0.73849200  1
  Mg  Mg92  1  0.34215400  0.31569300  0.71468200  1
  Mg  Mg93  1  0.52841000  0.94318000  0.70488700  1
  Mg  Mg94  1  0.02841000  0.44318000  0.70488700  1
  Mg  Mg95  1  0.52841000  0.44318000  0.70488700  1
  Mg  Mg96  1  0.38555300  0.72889400  0.77631600  1
  Mg  Mg97  1  0.88555300  0.72889400  0.77631600  1
  Mg  Mg98  1  0.38555300  0.22889400  0.77631600  1
  Mg  Mg99  1  0.60202600  0.10190900  0.73531100  1
  Mg  Mg100  1  0.96894600  0.65953600  0.71610200  1
  Mg  Mg101  1  0.59006100  0.52841000  0.75981000  1
  Mg  Mg102  1  0.46675900  0.35795000  0.64996400  1
  Mg  Mg103  1  0.08787400  0.22682400  0.69367300  1
  Mg  Mg104  1  0.76075500  0.78445100  0.67446400  1
  Mg  Mg105  1  0.88152900  0.52841000  0.75981000  1
  Mg  Mg106  1  0.45479400  0.78445100  0.67446400  1
  Mg  Mg107  1  0.37151800  0.65953600  0.71610200  1
  Mg  Mg108  1  0.68530200  0.22682400  0.69367300  1
  Mg  Mg109  1  0.29606500  0.10190900  0.73531100  1
  Mg  Mg110  1  0.17529100  0.35795000  0.64996400  1
  Mg  Mg111  1  0.75230600  0.00142800  0.67828600  1
  Mg  Mg112  1  0.96572900  0.57458200  0.65390100  1
  Mg  Mg113  1  0.82114600  0.35770800  0.72619300  1
  Mg  Mg114  1  0.10513500  0.78973100  0.74885200  1
  Mg  Mg115  1  0.24626600  0.00142800  0.67828600  1
  Mg  Mg116  1  0.81055400  0.88493200  0.73148900  1
  Mg  Mg117  1  0.95168500  0.09662900  0.66092300  1
  Mg  Mg118  1  0.45968900  0.57458200  0.65390100  1
