# generated using pymatgen
data_La5Mg37
_symmetry_space_group_name_H-M   'P 1'
_cell_length_a   10.38875242
_cell_length_b   10.09623600
_cell_length_c   45.28352000
_cell_angle_alpha   90.00000000
_cell_angle_beta   96.58677761
_cell_angle_gamma   90.00000000
_symmetry_Int_Tables_number   1
_chemical_formula_structural   La5Mg37
_chemical_formula_sum   'La10 Mg74'
_cell_volume   4718.31467942
_cell_formula_units_Z   2
loop_
 _symmetry_equiv_pos_site_id
 _symmetry_equiv_pos_as_xyz
  1  'x, y, z'
loop_
 _atom_site_type_symbol
 _atom_site_label
 _atom_site_symmetry_multiplicity
 _atom_site_fract_x
 _atom_site_fract_y
 _atom_site_fract_z
 _atom_site_occupancy
  La  La0  1  0.63934300  0.25000000  0.37894700  1
  La  La1  1  0.63934300  0.75000000  0.37894700  1
  La  La2  1  0.17267700  0.75000000  0.44561400  1
  La  La3  1  0.70601000  0.25000000  0.51228100  1
  La  La4  1  0.23934300  0.25000000  0.57894700  1
  La  La5  1  0.23934300  0.75000000  0.57894700  1
  La  La6  1  0.77267700  0.75000000  0.64561400  1
  La  La7  1  0.30601000  0.25000000  0.71228100  1
  La  La8  1  0.83934300  0.25000000  0.77894700  1
  La  La9  1  0.83934300  0.75000000  0.77894700  1
  Mg  Mg10  1  0.13934300  0.50000000  0.37894700  1
  Mg  Mg11  1  0.13934300  0.00000000  0.37894700  1
  Mg  Mg12  1  0.29017800  0.75000000  0.37204900  1
  Mg  Mg13  1  0.29707700  0.25000000  0.38584600  1
  Mg  Mg14  1  0.98850800  0.25000000  0.38584600  1
  Mg  Mg15  1  0.98161000  0.75000000  0.37204900  1
  Mg  Mg16  1  0.97978700  0.02089500  0.54650300  1
  Mg  Mg17  1  0.67178800  0.02089500  0.44383700  1
  Mg  Mg18  1  0.46645500  0.02089500  0.54650300  1
  Mg  Mg19  1  0.41223100  0.52089500  0.41139200  1
  Mg  Mg20  1  0.70601000  0.59833400  0.51228100  1
  Mg  Mg21  1  0.17267700  0.09833400  0.44561400  1
  Mg  Mg22  1  0.17267700  0.40166600  0.44561400  1
  Mg  Mg23  1  0.70601000  0.90166600  0.51228100  1
  Mg  Mg24  1  0.73934300  0.50000000  0.57894700  1
  Mg  Mg25  1  0.43934300  0.00000000  0.47894700  1
  Mg  Mg26  1  0.93934300  0.00000000  0.47894700  1
  Mg  Mg27  1  0.93934300  0.50000000  0.47894700  1
  Mg  Mg28  1  0.43934300  0.50000000  0.47894700  1
  Mg  Mg29  1  0.73934300  0.00000000  0.57894700  1
  Mg  Mg30  1  0.89017800  0.75000000  0.57204900  1
  Mg  Mg31  1  0.47346200  0.25000000  0.44464100  1
  Mg  Mg32  1  0.05605900  0.25000000  0.50635500  1
  Mg  Mg33  1  0.82262700  0.75000000  0.45154000  1
  Mg  Mg34  1  0.40522400  0.75000000  0.51325400  1
  Mg  Mg35  1  0.89707700  0.25000000  0.58584600  1
  Mg  Mg36  1  0.35003500  0.25000000  0.50635500  1
  Mg  Mg37  1  0.58850800  0.25000000  0.58584600  1
  Mg  Mg38  1  0.87091800  0.25000000  0.44464100  1
  Mg  Mg39  1  0.00776900  0.75000000  0.51325400  1
  Mg  Mg40  1  0.58161000  0.75000000  0.57204900  1
  Mg  Mg41  1  0.52865200  0.75000000  0.45154000  1
  Mg  Mg42  1  0.67178800  0.47910500  0.44383700  1
  Mg  Mg43  1  0.89890000  0.97910500  0.41139200  1
  Mg  Mg44  1  0.41223100  0.97910500  0.41139200  1
  Mg  Mg45  1  0.46645500  0.47910500  0.54650300  1
  Mg  Mg46  1  0.97978700  0.47910500  0.54650300  1
  Mg  Mg47  1  0.20689900  0.52089500  0.51405800  1
  Mg  Mg48  1  0.89890000  0.52089500  0.41139200  1
  Mg  Mg49  1  0.20689900  0.97910500  0.51405800  1
  Mg  Mg50  1  0.57978700  0.02089500  0.74650300  1
  Mg  Mg51  1  0.27178800  0.02089500  0.64383700  1
  Mg  Mg52  1  0.06645500  0.02089500  0.74650300  1
  Mg  Mg53  1  0.01223100  0.52089500  0.61139200  1
  Mg  Mg54  1  0.30601000  0.59833400  0.71228100  1
  Mg  Mg55  1  0.77267700  0.09833400  0.64561400  1
  Mg  Mg56  1  0.77267700  0.40166600  0.64561400  1
  Mg  Mg57  1  0.30601000  0.90166600  0.71228100  1
  Mg  Mg58  1  0.33934300  0.50000000  0.77894700  1
  Mg  Mg59  1  0.03934300  0.00000000  0.67894700  1
  Mg  Mg60  1  0.53934300  0.00000000  0.67894700  1
  Mg  Mg61  1  0.53934300  0.50000000  0.67894700  1
  Mg  Mg62  1  0.03934300  0.50000000  0.67894700  1
  Mg  Mg63  1  0.33934300  0.00000000  0.77894700  1
  Mg  Mg64  1  0.49017800  0.75000000  0.77204900  1
  Mg  Mg65  1  0.07346200  0.25000000  0.64464100  1
  Mg  Mg66  1  0.65605900  0.25000000  0.70635500  1
  Mg  Mg67  1  0.42262700  0.75000000  0.65154000  1
  Mg  Mg68  1  0.00522400  0.75000000  0.71325400  1
  Mg  Mg69  1  0.49707700  0.25000000  0.78584600  1
  Mg  Mg70  1  0.95003500  0.25000000  0.70635500  1
  Mg  Mg71  1  0.18850800  0.25000000  0.78584600  1
  Mg  Mg72  1  0.47091800  0.25000000  0.64464100  1
  Mg  Mg73  1  0.60776900  0.75000000  0.71325400  1
  Mg  Mg74  1  0.18161000  0.75000000  0.77204900  1
  Mg  Mg75  1  0.12865200  0.75000000  0.65154000  1
  Mg  Mg76  1  0.27178800  0.47910500  0.64383700  1
  Mg  Mg77  1  0.49890000  0.97910500  0.61139200  1
  Mg  Mg78  1  0.01223100  0.97910500  0.61139200  1
  Mg  Mg79  1  0.06645500  0.47910500  0.74650300  1
  Mg  Mg80  1  0.57978700  0.47910500  0.74650300  1
  Mg  Mg81  1  0.80689900  0.52089500  0.71405800  1
  Mg  Mg82  1  0.49890000  0.52089500  0.61139200  1
  Mg  Mg83  1  0.80689900  0.97910500  0.71405800  1
