# generated using pymatgen
data_CeMg
_symmetry_space_group_name_H-M   'P 1'
_cell_length_a   3.48032000
_cell_length_b   14.23446182
_cell_length_c   42.27697200
_cell_angle_alpha   93.36093517
_cell_angle_beta   90.00000000
_cell_angle_gamma   90.00000000
_symmetry_Int_Tables_number   1
_chemical_formula_structural   CeMg
_chemical_formula_sum   'Ce24 Mg24'
_cell_volume   2090.81923894
_cell_formula_units_Z   24
loop_
 _symmetry_equiv_pos_site_id
 _symmetry_equiv_pos_as_xyz
  1  'x, y, z'
loop_
 _atom_site_type_symbol
 _atom_site_label
 _atom_site_symmetry_multiplicity
 _atom_site_fract_x
 _atom_site_fract_y
 _atom_site_fract_z
 _atom_site_occupancy
  Ce  Ce0  1  0.50000000  0.53000700  0.25835400  1
  Ce  Ce1  1  0.00000000  0.41999300  0.29164600  1
  Ce  Ce2  1  1.00000000  0.88000700  0.20835400  1
  Ce  Ce3  1  0.50000000  0.76999300  0.24164600  1
  Ce  Ce4  1  0.50000000  0.83000700  0.35835400  1
  Ce  Ce5  1  0.00000000  0.71999300  0.39164600  1
  Ce  Ce6  1  0.00000000  0.18000700  0.30835400  1
  Ce  Ce7  1  0.50000000  0.06999300  0.34164600  1
  Ce  Ce8  1  0.50000000  0.13000700  0.45835400  1
  Ce  Ce9  1  0.00000000  0.01999300  0.49164600  1
  Ce  Ce10  1  0.00000000  0.48000700  0.40835400  1
  Ce  Ce11  1  0.50000000  0.36999300  0.44164600  1
  Ce  Ce12  1  0.50000000  0.43000700  0.55835400  1
  Ce  Ce13  1  0.00000000  0.31999300  0.59164600  1
  Ce  Ce14  1  1.00000000  0.78000700  0.50835400  1
  Ce  Ce15  1  0.50000000  0.66999300  0.54164600  1
  Ce  Ce16  1  0.50000000  0.73000700  0.65835400  1
  Ce  Ce17  1  1.00000000  0.61999300  0.69164600  1
  Ce  Ce18  1  0.00000000  0.08000700  0.60835400  1
  Ce  Ce19  1  0.50000000  0.96999300  0.64164600  1
  Ce  Ce20  1  0.50000000  0.03000700  0.75835400  1
  Ce  Ce21  1  0.00000000  0.91999300  0.79164600  1
  Ce  Ce22  1  0.00000000  0.38000700  0.70835400  1
  Ce  Ce23  1  0.50000000  0.26999300  0.74164600  1
  Mg  Mg24  1  0.50000000  0.26196700  0.24450900  1
  Mg  Mg25  1  0.00000000  0.38803300  0.20549100  1
  Mg  Mg26  1  0.00000000  0.91196700  0.29450900  1
  Mg  Mg27  1  0.50000000  0.03803300  0.25549100  1
  Mg  Mg28  1  0.50000000  0.56196700  0.34450900  1
  Mg  Mg29  1  0.00000000  0.68803300  0.30549100  1
  Mg  Mg30  1  0.00000000  0.21196700  0.39450900  1
  Mg  Mg31  1  0.50000000  0.33803300  0.35549100  1
  Mg  Mg32  1  0.50000000  0.86196700  0.44450900  1
  Mg  Mg33  1  0.00000000  0.98803300  0.40549100  1
  Mg  Mg34  1  0.00000000  0.51196700  0.49450900  1
  Mg  Mg35  1  0.50000000  0.63803300  0.45549100  1
  Mg  Mg36  1  0.50000000  0.16196700  0.54450900  1
  Mg  Mg37  1  0.00000000  0.28803300  0.50549100  1
  Mg  Mg38  1  1.00000000  0.81196700  0.59450900  1
  Mg  Mg39  1  0.50000000  0.93803300  0.55549100  1
  Mg  Mg40  1  0.50000000  0.46196700  0.64450900  1
  Mg  Mg41  1  0.00000000  0.58803300  0.60549100  1
  Mg  Mg42  1  0.00000000  0.11196700  0.69450900  1
  Mg  Mg43  1  0.50000000  0.23803300  0.65549100  1
  Mg  Mg44  1  0.50000000  0.76196700  0.74450900  1
  Mg  Mg45  1  1.00000000  0.88803300  0.70549100  1
  Mg  Mg46  1  1.00000000  0.41196700  0.79450900  1
  Mg  Mg47  1  0.50000000  0.53803300  0.75549100  1
