# generated using pymatgen
data_SrMg
_symmetry_space_group_name_H-M   'P 1'
_cell_length_a   4.17414100
_cell_length_b   5.90312748
_cell_length_c   44.37172900
_cell_angle_alpha   93.81407290
_cell_angle_beta   90.00000000
_cell_angle_gamma   90.00000000
_symmetry_Int_Tables_number   1
_chemical_formula_structural   SrMg
_chemical_formula_sum   'Sr9 Mg9'
_cell_volume   1090.91941203
_cell_formula_units_Z   9
loop_
 _symmetry_equiv_pos_site_id
 _symmetry_equiv_pos_as_xyz
  1  'x, y, z'
loop_
 _atom_site_type_symbol
 _atom_site_label
 _atom_site_symmetry_multiplicity
 _atom_site_fract_x
 _atom_site_fract_y
 _atom_site_fract_z
 _atom_site_occupancy
  Sr  Sr0  1  0.50000000  0.76666700  0.23333300  1
  Sr  Sr1  1  0.50000000  0.30000000  0.30000000  1
  Sr  Sr2  1  0.50000000  0.83333300  0.36666700  1
  Sr  Sr3  1  0.50000000  0.36666700  0.43333300  1
  Sr  Sr4  1  0.50000000  0.90000000  0.50000000  1
  Sr  Sr5  1  0.50000000  0.43333300  0.56666700  1
  Sr  Sr6  1  0.50000000  0.96666700  0.63333300  1
  Sr  Sr7  1  0.50000000  0.50000000  0.70000000  1
  Sr  Sr8  1  0.50000000  0.03333300  0.76666700  1
  Mg  Mg9  1  0.00000000  0.26666700  0.23333300  1
  Mg  Mg10  1  1.00000000  0.80000000  0.30000000  1
  Mg  Mg11  1  0.00000000  0.33333300  0.36666700  1
  Mg  Mg12  1  0.00000000  0.86666700  0.43333300  1
  Mg  Mg13  1  0.00000000  0.40000000  0.50000000  1
  Mg  Mg14  1  0.00000000  0.93333300  0.56666700  1
  Mg  Mg15  1  0.00000000  0.46666700  0.63333300  1
  Mg  Mg16  1  0.00000000  1.00000000  0.70000000  1
  Mg  Mg17  1  1.00000000  0.53333300  0.76666700  1
