# generated using pymatgen
data_Mg6Ag11
_symmetry_space_group_name_H-M   'P 1'
_cell_length_a   4.87780300
_cell_length_b   5.11669493
_cell_length_c   44.09373700
_cell_angle_alpha   90.48976460
_cell_angle_beta   90.00000000
_cell_angle_gamma   90.00000000
_symmetry_Int_Tables_number   1
_chemical_formula_structural   Mg6Ag11
_chemical_formula_sum   'Mg12 Ag22'
_cell_volume   1100.46141929
_cell_formula_units_Z   2
loop_
 _symmetry_equiv_pos_site_id
 _symmetry_equiv_pos_as_xyz
  1  'x, y, z'
loop_
 _atom_site_type_symbol
 _atom_site_label
 _atom_site_symmetry_multiplicity
 _atom_site_fract_x
 _atom_site_fract_y
 _atom_site_fract_z
 _atom_site_occupancy
  Mg  Mg0  1  0.75000000  0.78731100  0.79699700  1
  Mg  Mg1  1  0.25000000  0.48401200  0.73633700  1
  Mg  Mg2  1  0.75000000  0.28731100  0.69699700  1
  Mg  Mg3  1  0.25000000  0.98401200  0.63633700  1
  Mg  Mg4  1  0.75000000  0.78731100  0.59699700  1
  Mg  Mg5  1  0.25000000  0.48401200  0.53633700  1
  Mg  Mg6  1  0.75000000  0.28731100  0.49699700  1
  Mg  Mg7  1  0.25000000  0.98401200  0.43633700  1
  Mg  Mg8  1  0.75000000  0.78731100  0.39699700  1
  Mg  Mg9  1  0.25000000  0.48401200  0.33633700  1
  Mg  Mg10  1  0.75000000  0.28731100  0.29699700  1
  Mg  Mg11  1  0.25000000  0.98401200  0.23633700  1
  Ag  Ag12  1  0.25000000  0.97799000  0.76854700  1
  Ag  Ag13  1  0.75000000  0.79272500  0.73149400  1
  Ag  Ag14  1  0.75000000  0.29333200  0.76478700  1
  Ag  Ag15  1  0.25000000  0.97859700  0.70184000  1
  Ag  Ag16  1  0.25000000  0.47799000  0.66854700  1
  Ag  Ag17  1  0.75000000  0.29272500  0.63149400  1
  Ag  Ag18  1  0.75000000  0.79333200  0.66478700  1
  Ag  Ag19  1  0.25000000  0.47859700  0.60184000  1
  Ag  Ag20  1  0.25000000  0.97799000  0.56854700  1
  Ag  Ag21  1  0.75000000  0.79272500  0.53149400  1
  Ag  Ag22  1  0.75000000  0.29333200  0.56478700  1
  Ag  Ag23  1  0.25000000  0.97859700  0.50184000  1
  Ag  Ag24  1  0.25000000  0.47799000  0.46854700  1
  Ag  Ag25  1  0.75000000  0.29272500  0.43149400  1
  Ag  Ag26  1  0.75000000  0.79333200  0.46478700  1
  Ag  Ag27  1  0.25000000  0.47859700  0.40184000  1
  Ag  Ag28  1  0.25000000  0.97799000  0.36854700  1
  Ag  Ag29  1  0.75000000  0.79272500  0.33149400  1
  Ag  Ag30  1  0.75000000  0.29333200  0.36478700  1
  Ag  Ag31  1  0.25000000  0.97859700  0.30184000  1
  Ag  Ag32  1  0.25000000  0.47799000  0.26854700  1
  Ag  Ag33  1  0.75000000  0.79333200  0.26478700  1
