# generated using pymatgen
data_MgAg3
_symmetry_space_group_name_H-M   'P 1'
_cell_length_a   5.90771900
_cell_length_b   7.61306272
_cell_length_c   45.52089700
_cell_angle_alpha   89.28114441
_cell_angle_beta   90.00000000
_cell_angle_gamma   67.16995739
_symmetry_Int_Tables_number   1
_chemical_formula_structural   MgAg3
_chemical_formula_sum   'Mg16 Ag48'
_cell_volume   1886.77654712
_cell_formula_units_Z   16
loop_
 _symmetry_equiv_pos_site_id
 _symmetry_equiv_pos_as_xyz
  1  'x, y, z'
loop_
 _atom_site_type_symbol
 _atom_site_label
 _atom_site_symmetry_multiplicity
 _atom_site_fract_x
 _atom_site_fract_y
 _atom_site_fract_z
 _atom_site_occupancy
  Mg  Mg0  1  0.64743600  0.70512800  0.19871800  1
  Mg  Mg1  1  0.12179500  0.75641000  0.26282100  1
  Mg  Mg2  1  0.41666700  0.16666700  0.27564100  1
  Mg  Mg3  1  0.89102600  0.21794900  0.33974400  1
  Mg  Mg4  1  0.18589700  0.62820500  0.35256400  1
  Mg  Mg5  1  0.66025600  0.67948700  0.41666700  1
  Mg  Mg6  1  0.95512800  0.08974400  0.42948700  1
  Mg  Mg7  1  0.42948700  0.14102600  0.49359000  1
  Mg  Mg8  1  0.72435900  0.55128200  0.50641000  1
  Mg  Mg9  1  0.19871800  0.60256400  0.57051300  1
  Mg  Mg10  1  0.49359000  0.01282100  0.58333300  1
  Mg  Mg11  1  0.96794900  0.06410300  0.64743600  1
  Mg  Mg12  1  0.26282100  0.47435900  0.66025600  1
  Mg  Mg13  1  0.73717900  0.52564100  0.72435900  1
  Mg  Mg14  1  0.03205100  0.93589700  0.73717900  1
  Mg  Mg15  1  0.50641000  0.98717900  0.80128200  1
  Ag  Ag16  1  0.14742100  0.70515800  0.19871400  1
  Ag  Ag17  1  0.03201700  0.43588300  0.23718200  1
  Ag  Ag18  1  0.53210000  0.43588300  0.23718200  1
  Ag  Ag19  1  0.23713100  0.02565600  0.22435700  1
  Ag  Ag20  1  0.73721300  0.02565600  0.22435700  1
  Ag  Ag21  1  0.62181000  0.75638100  0.26282500  1
  Ag  Ag22  1  0.91665200  0.16669600  0.27563700  1
  Ag  Ag23  1  0.80124800  0.89742100  0.31410500  1
  Ag  Ag24  1  0.30133100  0.89742100  0.31410500  1
  Ag  Ag25  1  0.00636100  0.48719400  0.30128000  1
  Ag  Ag26  1  0.50644400  0.48719400  0.30128000  1
  Ag  Ag27  1  0.39104000  0.21791900  0.33974800  1
  Ag  Ag28  1  0.68588300  0.62823500  0.35256000  1
  Ag  Ag29  1  0.57047900  0.35896000  0.39102800  1
  Ag  Ag30  1  0.07056200  0.35896000  0.39102800  1
  Ag  Ag31  1  0.77559200  0.94873300  0.37820300  1
  Ag  Ag32  1  0.27567500  0.94873300  0.37820300  1
  Ag  Ag33  1  0.16027100  0.67945700  0.41667100  1
  Ag  Ag34  1  0.45511300  0.08977300  0.42948300  1
  Ag  Ag35  1  0.33971000  0.82049800  0.46795100  1
  Ag  Ag36  1  0.83979200  0.82049800  0.46795100  1
  Ag  Ag37  1  0.54482300  0.41027100  0.45512600  1
  Ag  Ag38  1  0.04490600  0.41027100  0.45512600  1
  Ag  Ag39  1  0.92950200  0.14099600  0.49359400  1
  Ag  Ag40  1  0.22434400  0.55131200  0.50640600  1
  Ag  Ag41  1  0.10894000  0.28203600  0.54487400  1
  Ag  Ag42  1  0.60902300  0.28203600  0.54487400  1
  Ag  Ag43  1  0.31405400  0.87181000  0.53204900  1
  Ag  Ag44  1  0.81413600  0.87181000  0.53204900  1
  Ag  Ag45  1  0.69873300  0.60253400  0.57051700  1
  Ag  Ag46  1  0.99357500  0.01285000  0.58332900  1
  Ag  Ag47  1  0.87817100  0.74357500  0.62179700  1
  Ag  Ag48  1  0.37825400  0.74357500  0.62179700  1
  Ag  Ag49  1  0.08328500  0.33334800  0.60897200  1
  Ag  Ag50  1  0.58336700  0.33334800  0.60897200  1
  Ag  Ag51  1  0.46796400  0.06407300  0.64744000  1
  Ag  Ag52  1  0.76280600  0.47438900  0.66025200  1
  Ag  Ag53  1  0.64740200  0.20511300  0.69872000  1
  Ag  Ag54  1  0.14748500  0.20511300  0.69872000  1
  Ag  Ag55  1  0.85251500  0.79488700  0.68589500  1
  Ag  Ag56  1  0.35259800  0.79488700  0.68589500  1
  Ag  Ag57  1  0.23719400  0.52561100  0.72436300  1
  Ag  Ag58  1  0.53203600  0.93592700  0.73717500  1
  Ag  Ag59  1  0.41663300  0.66665200  0.77564300  1
  Ag  Ag60  1  0.91671500  0.66665200  0.77564300  1
  Ag  Ag61  1  0.62174600  0.25642500  0.76281800  1
  Ag  Ag62  1  0.12182900  0.25642500  0.76281800  1
  Ag  Ag63  1  0.00642500  0.98715000  0.80128600  1
