# generated using pymatgen
data_Ce20Mg177
_symmetry_space_group_name_H-M   'P 1'
_cell_length_a   14.43775526
_cell_length_b   14.43775501
_cell_length_c   45.98188600
_cell_angle_alpha   89.14134599
_cell_angle_beta   90.85865399
_cell_angle_gamma   103.42087140
_symmetry_Int_Tables_number   1
_chemical_formula_structural   Ce20Mg177
_chemical_formula_sum   'Ce20 Mg177'
_cell_volume   9321.41888714
_cell_formula_units_Z   1
loop_
 _symmetry_equiv_pos_site_id
 _symmetry_equiv_pos_as_xyz
  1  'x, y, z'
loop_
 _atom_site_type_symbol
 _atom_site_label
 _atom_site_symmetry_multiplicity
 _atom_site_fract_x
 _atom_site_fract_y
 _atom_site_fract_z
 _atom_site_occupancy
  Ce  Ce0  1  0.48944600  0.51055400  0.31578900  1
  Ce  Ce1  1  0.68944600  0.31055400  0.36578900  1
  Ce  Ce2  1  0.15611200  0.17722100  0.31578900  1
  Ce  Ce3  1  0.02277900  0.64388800  0.36578900  1
  Ce  Ce4  1  0.88944600  0.11055400  0.41578900  1
  Ce  Ce5  1  0.08944600  0.91055400  0.46578900  1
  Ce  Ce6  1  0.55611200  0.77722100  0.41578900  1
  Ce  Ce7  1  0.42277900  0.24388800  0.46578900  1
  Ce  Ce8  1  0.28944600  0.71055400  0.51578900  1
  Ce  Ce9  1  0.48944600  0.51055400  0.56578900  1
  Ce  Ce10  1  0.95611200  0.37722100  0.51578900  1
  Ce  Ce11  1  0.82277900  0.84388800  0.56578900  1
  Ce  Ce12  1  0.68944600  0.31055400  0.61578900  1
  Ce  Ce13  1  0.88944600  0.11055400  0.66578900  1
  Ce  Ce14  1  0.35611200  0.97722100  0.61578900  1
  Ce  Ce15  1  0.22277900  0.44388800  0.66578900  1
  Ce  Ce16  1  0.08944600  0.91055400  0.71578900  1
  Ce  Ce17  1  0.28944600  0.71055400  0.76578900  1
  Ce  Ce18  1  0.75611200  0.57722100  0.71578900  1
  Ce  Ce19  1  0.62277900  0.04388800  0.76578900  1
  Mg  Mg20  1  0.38944600  0.11055400  0.29078900  1
  Mg  Mg21  1  0.88944600  0.61055400  0.29078900  1
  Mg  Mg22  1  0.23586200  0.43969900  0.29294800  1
  Mg  Mg23  1  0.06830600  0.76947400  0.29161400  1
  Mg  Mg24  1  0.54303000  0.78141000  0.28863000  1
  Mg  Mg25  1  0.71058600  0.45163400  0.28996500  1
  Mg  Mg26  1  0.88944600  0.11055400  0.29078900  1
  Mg  Mg27  1  0.78944600  0.71055400  0.39078900  1
  Mg  Mg28  1  0.28944600  0.21055400  0.39078900  1
  Mg  Mg29  1  0.61325400  0.54896600  0.38729600  1
  Mg  Mg30  1  0.63586200  0.03969900  0.39294800  1
  Mg  Mg31  1  0.46830600  0.36947400  0.39161400  1
  Mg  Mg32  1  0.89293200  0.43515500  0.32634700  1
  Mg  Mg33  1  0.41703700  0.91629600  0.38102100  1
  Mg  Mg34  1  0.88370400  0.78296300  0.33102100  1
  Mg  Mg35  1  0.94303000  0.38141000  0.38863000  1
  Mg  Mg36  1  0.07932600  0.55941800  0.29528100  1
  Mg  Mg37  1  0.40392600  0.56290400  0.38472400  1
  Mg  Mg38  1  0.43052600  0.73169400  0.34161400  1
  Mg  Mg39  1  0.64058200  0.72067400  0.34528100  1
  Mg  Mg40  1  0.77496500  0.25820500  0.29685500  1
  Mg  Mg41  1  0.41859000  0.25697000  0.33863000  1
  Mg  Mg42  1  0.11058600  0.05163400  0.38996500  1
  Mg  Mg43  1  0.25103400  0.58674600  0.33729600  1
  Mg  Mg44  1  0.92785700  0.23436200  0.34428300  1
  Mg  Mg45  1  0.29518800  0.03814600  0.35055800  1
  Mg  Mg46  1  0.76030100  0.56413800  0.34294800  1
  Mg  Mg47  1  0.28944600  0.71055400  0.39078900  1
  Mg  Mg48  1  0.76484500  0.90706800  0.37634700  1
  Mg  Mg49  1  0.28596000  0.38595400  0.35523200  1
  Mg  Mg50  1  0.76185400  0.90481200  0.30055800  1
  Mg  Mg51  1  0.56563800  0.27214300  0.29428300  1
  Mg  Mg52  1  0.94179500  0.02503500  0.34685500  1
  Mg  Mg53  1  0.41404600  0.91404000  0.30523200  1
  Mg  Mg54  1  0.74836600  0.08941400  0.33996500  1
  Mg  Mg55  1  0.09956600  0.26169100  0.38629800  1
  Mg  Mg56  1  0.08944600  0.41055400  0.34078900  1
  Mg  Mg57  1  0.23709600  0.79607400  0.33472400  1
  Mg  Mg58  1  0.53830900  0.10043400  0.33629800  1
  Mg  Mg59  1  0.08944600  0.91055400  0.34078900  1
  Mg  Mg60  1  0.58944600  0.91055400  0.34078900  1
  Mg  Mg61  1  0.18944600  0.31055400  0.49078900  1
  Mg  Mg62  1  0.68944600  0.81055400  0.49078900  1
  Mg  Mg63  1  0.01325400  0.14896600  0.48729600  1
  Mg  Mg64  1  0.03586200  0.63969900  0.49294800  1
  Mg  Mg65  1  0.86830600  0.96947400  0.49161400  1
  Mg  Mg66  1  0.29293200  0.03515500  0.42634700  1
  Mg  Mg67  1  0.81703700  0.51629600  0.48102100  1
  Mg  Mg68  1  0.28370400  0.38296300  0.43102100  1
  Mg  Mg69  1  0.34303000  0.98141000  0.48863000  1
  Mg  Mg70  1  0.47932600  0.15941800  0.39528100  1
  Mg  Mg71  1  0.80392600  0.16290400  0.48472400  1
  Mg  Mg72  1  0.83052600  0.33169400  0.44161400  1
  Mg  Mg73  1  0.04058200  0.32067400  0.44528100  1
  Mg  Mg74  1  0.17496500  0.85820500  0.39685500  1
  Mg  Mg75  1  0.81859000  0.85697000  0.43863000  1
  Mg  Mg76  1  0.51058600  0.65163400  0.48996500  1
  Mg  Mg77  1  0.65103400  0.18674600  0.43729600  1
  Mg  Mg78  1  0.32785700  0.83436200  0.44428300  1
  Mg  Mg79  1  0.69518800  0.63814600  0.45055800  1
  Mg  Mg80  1  0.16030100  0.16413800  0.44294800  1
  Mg  Mg81  1  0.68944600  0.31055400  0.49078900  1
  Mg  Mg82  1  0.16484500  0.50706800  0.47634700  1
  Mg  Mg83  1  0.68596000  0.98595400  0.45523200  1
  Mg  Mg84  1  0.16185400  0.50481200  0.40055800  1
  Mg  Mg85  1  0.96563800  0.87214300  0.39428300  1
  Mg  Mg86  1  0.34179500  0.62503500  0.44685500  1
  Mg  Mg87  1  0.81404600  0.51404000  0.40523200  1
  Mg  Mg88  1  0.14836600  0.68941400  0.43996500  1
  Mg  Mg89  1  0.49956600  0.86169100  0.48629800  1
  Mg  Mg90  1  0.48944600  0.01055400  0.44078900  1
  Mg  Mg91  1  0.63709600  0.39607400  0.43472400  1
  Mg  Mg92  1  0.93830900  0.70043400  0.43629800  1
  Mg  Mg93  1  0.48944600  0.51055400  0.44078900  1
  Mg  Mg94  1  0.98944600  0.51055400  0.44078900  1
  Mg  Mg95  1  0.58944600  0.91055400  0.59078900  1
  Mg  Mg96  1  0.08944600  0.41055400  0.59078900  1
  Mg  Mg97  1  0.41325400  0.74896600  0.58729600  1
  Mg  Mg98  1  0.43586200  0.23969900  0.59294800  1
  Mg  Mg99  1  0.26830600  0.56947400  0.59161400  1
  Mg  Mg100  1  0.69293200  0.63515500  0.52634700  1
  Mg  Mg101  1  0.21703700  0.11629600  0.58102100  1
  Mg  Mg102  1  0.68370400  0.98296300  0.53102100  1
  Mg  Mg103  1  0.74303000  0.58141000  0.58863000  1
  Mg  Mg104  1  0.87932600  0.75941800  0.49528100  1
  Mg  Mg105  1  0.20392600  0.76290400  0.58472400  1
  Mg  Mg106  1  0.23052600  0.93169400  0.54161400  1
  Mg  Mg107  1  0.44058200  0.92067400  0.54528100  1
  Mg  Mg108  1  0.57496500  0.45820500  0.49685500  1
  Mg  Mg109  1  0.21859000  0.45697000  0.53863000  1
  Mg  Mg110  1  0.91058600  0.25163400  0.58996500  1
  Mg  Mg111  1  0.05103400  0.78674600  0.53729600  1
  Mg  Mg112  1  0.72785700  0.43436200  0.54428300  1
  Mg  Mg113  1  0.09518800  0.23814600  0.55055800  1
  Mg  Mg114  1  0.56030100  0.76413800  0.54294800  1
  Mg  Mg115  1  0.08944600  0.91055400  0.59078900  1
  Mg  Mg116  1  0.56484500  0.10706800  0.57634700  1
  Mg  Mg117  1  0.08596000  0.58595400  0.55523200  1
  Mg  Mg118  1  0.56185400  0.10481200  0.50055800  1
  Mg  Mg119  1  0.36563800  0.47214300  0.49428300  1
  Mg  Mg120  1  0.74179500  0.22503500  0.54685500  1
  Mg  Mg121  1  0.21404600  0.11404000  0.50523200  1
  Mg  Mg122  1  0.54836600  0.28941400  0.53996500  1
  Mg  Mg123  1  0.89956600  0.46169100  0.58629800  1
  Mg  Mg124  1  0.88944600  0.61055400  0.54078900  1
  Mg  Mg125  1  0.03709600  0.99607400  0.53472400  1
  Mg  Mg126  1  0.33830900  0.30043400  0.53629800  1
  Mg  Mg127  1  0.88944600  0.11055400  0.54078900  1
  Mg  Mg128  1  0.38944600  0.11055400  0.54078900  1
  Mg  Mg129  1  0.98944600  0.51055400  0.69078900  1
  Mg  Mg130  1  0.48944600  0.01055400  0.69078900  1
  Mg  Mg131  1  0.81325400  0.34896600  0.68729600  1
  Mg  Mg132  1  0.83586200  0.83969900  0.69294800  1
  Mg  Mg133  1  0.66830600  0.16947400  0.69161400  1
  Mg  Mg134  1  0.09293200  0.23515500  0.62634700  1
  Mg  Mg135  1  0.61703700  0.71629600  0.68102100  1
  Mg  Mg136  1  0.08370400  0.58296300  0.63102100  1
  Mg  Mg137  1  0.14303000  0.18141000  0.68863000  1
  Mg  Mg138  1  0.27932600  0.35941800  0.59528100  1
  Mg  Mg139  1  0.60392600  0.36290400  0.68472400  1
  Mg  Mg140  1  0.63052600  0.53169400  0.64161400  1
  Mg  Mg141  1  0.84058200  0.52067400  0.64528100  1
  Mg  Mg142  1  0.97496500  0.05820500  0.59685500  1
  Mg  Mg143  1  0.61859000  0.05697000  0.63863000  1
  Mg  Mg144  1  0.31058600  0.85163400  0.68996500  1
  Mg  Mg145  1  0.45103400  0.38674600  0.63729600  1
  Mg  Mg146  1  0.12785700  0.03436200  0.64428300  1
  Mg  Mg147  1  0.49518800  0.83814600  0.65055800  1
  Mg  Mg148  1  0.96030100  0.36413800  0.64294800  1
  Mg  Mg149  1  0.48944600  0.51055400  0.69078900  1
  Mg  Mg150  1  0.96484500  0.70706800  0.67634700  1
  Mg  Mg151  1  0.48596000  0.18595400  0.65523200  1
  Mg  Mg152  1  0.96185400  0.70481200  0.60055800  1
  Mg  Mg153  1  0.76563800  0.07214300  0.59428300  1
  Mg  Mg154  1  0.14179500  0.82503500  0.64685500  1
  Mg  Mg155  1  0.61404600  0.71404000  0.60523200  1
  Mg  Mg156  1  0.94836600  0.88941400  0.63996500  1
  Mg  Mg157  1  0.29956600  0.06169100  0.68629800  1
  Mg  Mg158  1  0.28944600  0.21055400  0.64078900  1
  Mg  Mg159  1  0.43709600  0.59607400  0.63472400  1
  Mg  Mg160  1  0.73830900  0.90043400  0.63629800  1
  Mg  Mg161  1  0.28944600  0.71055400  0.64078900  1
  Mg  Mg162  1  0.78944600  0.71055400  0.64078900  1
  Mg  Mg163  1  0.38944600  0.11055400  0.79078900  1
  Mg  Mg164  1  0.88944600  0.61055400  0.79078900  1
  Mg  Mg165  1  0.21325400  0.94896600  0.78729600  1
  Mg  Mg166  1  0.23586200  0.43969900  0.79294800  1
  Mg  Mg167  1  0.06830600  0.76947400  0.79161400  1
  Mg  Mg168  1  0.49293200  0.83515500  0.72634700  1
  Mg  Mg169  1  0.01703700  0.31629600  0.78102100  1
  Mg  Mg170  1  0.48370400  0.18296300  0.73102100  1
  Mg  Mg171  1  0.54303000  0.78141000  0.78863000  1
  Mg  Mg172  1  0.67932600  0.95941800  0.69528100  1
  Mg  Mg173  1  0.00392600  0.96290400  0.78472400  1
  Mg  Mg174  1  0.03052600  0.13169400  0.74161400  1
  Mg  Mg175  1  0.24058200  0.12067400  0.74528100  1
  Mg  Mg176  1  0.37496500  0.65820500  0.69685500  1
  Mg  Mg177  1  0.01859000  0.65697000  0.73863000  1
  Mg  Mg178  1  0.71058600  0.45163400  0.78996500  1
  Mg  Mg179  1  0.85103400  0.98674600  0.73729600  1
  Mg  Mg180  1  0.52785700  0.63436200  0.74428300  1
  Mg  Mg181  1  0.89518800  0.43814600  0.75055800  1
  Mg  Mg182  1  0.36030100  0.96413800  0.74294800  1
  Mg  Mg183  1  0.88944600  0.11055400  0.79078900  1
  Mg  Mg184  1  0.36484500  0.30706800  0.77634700  1
  Mg  Mg185  1  0.88596000  0.78595400  0.75523200  1
  Mg  Mg186  1  0.36185400  0.30481200  0.70055800  1
  Mg  Mg187  1  0.16563800  0.67214300  0.69428300  1
  Mg  Mg188  1  0.54179500  0.42503500  0.74685500  1
  Mg  Mg189  1  0.01404600  0.31404000  0.70523200  1
  Mg  Mg190  1  0.34836600  0.48941400  0.73996500  1
  Mg  Mg191  1  0.69956600  0.66169100  0.78629800  1
  Mg  Mg192  1  0.68944600  0.81055400  0.74078900  1
  Mg  Mg193  1  0.83709600  0.19607400  0.73472400  1
  Mg  Mg194  1  0.13830900  0.50043400  0.73629800  1
  Mg  Mg195  1  0.68944600  0.31055400  0.74078900  1
  Mg  Mg196  1  0.18944600  0.31055400  0.74078900  1
