# generated using pymatgen
data_Mg12B47
_symmetry_space_group_name_H-M   'P 1'
_cell_length_a   4.39738600
_cell_length_b   9.23299237
_cell_length_c   44.33566700
_cell_angle_alpha   84.37095004
_cell_angle_beta   90.00000000
_cell_angle_gamma   90.00000000
_symmetry_Int_Tables_number   1
_chemical_formula_structural   Mg12B47
_chemical_formula_sum   'Mg24 B94'
_cell_volume   1791.39348480
_cell_formula_units_Z   2
loop_
 _symmetry_equiv_pos_site_id
 _symmetry_equiv_pos_as_xyz
  1  'x, y, z'
loop_
 _atom_site_type_symbol
 _atom_site_label
 _atom_site_symmetry_multiplicity
 _atom_site_fract_x
 _atom_site_fract_y
 _atom_site_fract_z
 _atom_site_occupancy
  Mg  Mg0  1  0.25000000  0.03121900  0.28578900  1
  Mg  Mg1  1  0.75000000  0.63310300  0.20421100  1
  Mg  Mg2  1  0.25000000  0.09656100  0.21334600  1
  Mg  Mg3  1  0.75000000  0.56776000  0.27665400  1
  Mg  Mg4  1  0.25000000  0.63121900  0.38578900  1
  Mg  Mg5  1  0.75000000  0.23310300  0.30421100  1
  Mg  Mg6  1  0.25000000  0.69656100  0.31334600  1
  Mg  Mg7  1  0.75000000  0.16776000  0.37665400  1
  Mg  Mg8  1  0.25000000  0.23121900  0.48578900  1
  Mg  Mg9  1  0.75000000  0.83310300  0.40421100  1
  Mg  Mg10  1  0.25000000  0.29656100  0.41334600  1
  Mg  Mg11  1  0.75000000  0.76776000  0.47665400  1
  Mg  Mg12  1  0.25000000  0.83121900  0.58578900  1
  Mg  Mg13  1  0.75000000  0.43310300  0.50421100  1
  Mg  Mg14  1  0.25000000  0.89656100  0.51334600  1
  Mg  Mg15  1  0.75000000  0.36776000  0.57665400  1
  Mg  Mg16  1  0.25000000  0.43121900  0.68578900  1
  Mg  Mg17  1  0.75000000  0.03310300  0.60421100  1
  Mg  Mg18  1  0.25000000  0.49656100  0.61334600  1
  Mg  Mg19  1  0.75000000  0.96776000  0.67665400  1
  Mg  Mg20  1  0.25000000  0.03121900  0.78578900  1
  Mg  Mg21  1  0.75000000  0.63310300  0.70421100  1
  Mg  Mg22  1  0.25000000  0.09656100  0.71334600  1
  Mg  Mg23  1  0.75000000  0.56776000  0.77665400  1
  B  B24  1  0.25000000  0.45099400  0.30187000  1
  B  B25  1  0.75000000  0.81332800  0.28813000  1
  B  B26  1  0.25000000  0.53542000  0.23260700  1
  B  B27  1  0.75000000  0.12890100  0.25739300  1
  B  B28  1  0.25000000  0.39897600  0.26503100  1
  B  B29  1  0.75000000  0.26534500  0.22496900  1
  B  B30  1  0.25000000  0.72264700  0.23564300  1
  B  B31  1  0.75000000  0.94167500  0.25435700  1
  B  B32  1  0.05800500  0.81716100  0.26455500  1
  B  B33  1  0.55800500  0.84716000  0.22544500  1
  B  B34  1  0.44199500  0.24129700  0.25191100  1
  B  B35  1  0.94199500  0.42302400  0.23808900  1
  B  B36  1  0.94199500  0.84716000  0.22544500  1
  B  B37  1  0.44199500  0.81716100  0.26455500  1
  B  B38  1  0.55800500  0.42302400  0.23808900  1
  B  B39  1  0.05800500  0.24129700  0.25191100  1
  B  B40  1  0.25000000  0.05099400  0.40187000  1
  B  B41  1  0.75000000  0.41332800  0.38813000  1
  B  B42  1  0.25000000  0.13542000  0.33260700  1
  B  B43  1  0.75000000  0.72890100  0.35739300  1
  B  B44  1  0.25000000  0.99897600  0.36503100  1
  B  B45  1  0.75000000  0.86534500  0.32496900  1
  B  B46  1  0.25000000  0.32264700  0.33564300  1
  B  B47  1  0.75000000  0.54167500  0.35435700  1
  B  B48  1  0.05800500  0.41716100  0.36455500  1
  B  B49  1  0.55800500  0.44716000  0.32544500  1
  B  B50  1  0.44199500  0.84129700  0.35191100  1
  B  B51  1  0.94199500  0.02302400  0.33808900  1
  B  B52  1  0.94199500  0.44716000  0.32544500  1
  B  B53  1  0.44199500  0.41716100  0.36455500  1
  B  B54  1  0.55800500  0.02302400  0.33808900  1
  B  B55  1  0.05800500  0.84129700  0.35191100  1
  B  B56  1  0.25000000  0.65099400  0.50187000  1
  B  B57  1  0.75000000  0.01332800  0.48813000  1
  B  B58  1  0.25000000  0.73542000  0.43260700  1
  B  B59  1  0.75000000  0.32890100  0.45739300  1
  B  B60  1  0.25000000  0.59897600  0.46503100  1
  B  B61  1  0.75000000  0.46534500  0.42496900  1
  B  B62  1  0.25000000  0.92264700  0.43564300  1
  B  B63  1  0.75000000  0.14167500  0.45435700  1
  B  B64  1  0.05800500  0.01716100  0.46455500  1
  B  B65  1  0.55800500  0.04716000  0.42544500  1
  B  B66  1  0.44199500  0.44129700  0.45191100  1
  B  B67  1  0.94199500  0.62302400  0.43808900  1
  B  B68  1  0.94199500  0.04716000  0.42544500  1
  B  B69  1  0.44199500  0.01716100  0.46455500  1
  B  B70  1  0.55800500  0.62302400  0.43808900  1
  B  B71  1  0.05800500  0.44129700  0.45191100  1
  B  B72  1  0.25000000  0.25099400  0.60187000  1
  B  B73  1  0.75000000  0.61332800  0.58813000  1
  B  B74  1  0.25000000  0.33542000  0.53260700  1
  B  B75  1  0.75000000  0.92890100  0.55739300  1
  B  B76  1  0.25000000  0.19897600  0.56503100  1
  B  B77  1  0.75000000  0.06534500  0.52496900  1
  B  B78  1  0.25000000  0.52264700  0.53564300  1
  B  B79  1  0.75000000  0.74167500  0.55435700  1
  B  B80  1  0.05800500  0.61716100  0.56455500  1
  B  B81  1  0.55800500  0.64716000  0.52544500  1
  B  B82  1  0.44199500  0.04129700  0.55191100  1
  B  B83  1  0.94199500  0.22302400  0.53808900  1
  B  B84  1  0.94199500  0.64716000  0.52544500  1
  B  B85  1  0.44199500  0.61716100  0.56455500  1
  B  B86  1  0.55800500  0.22302400  0.53808900  1
  B  B87  1  0.05800500  0.04129700  0.55191100  1
  B  B88  1  0.25000000  0.85099400  0.70187000  1
  B  B89  1  0.75000000  0.21332800  0.68813000  1
  B  B90  1  0.25000000  0.93542000  0.63260700  1
  B  B91  1  0.75000000  0.52890100  0.65739300  1
  B  B92  1  0.25000000  0.79897600  0.66503100  1
  B  B93  1  0.75000000  0.66534500  0.62496900  1
  B  B94  1  0.25000000  0.12264700  0.63564300  1
  B  B95  1  0.75000000  0.34167500  0.65435700  1
  B  B96  1  0.05800500  0.21716100  0.66455500  1
  B  B97  1  0.55800500  0.24716000  0.62544500  1
  B  B98  1  0.44199500  0.64129700  0.65191100  1
  B  B99  1  0.94199500  0.82302400  0.63808900  1
  B  B100  1  0.94199500  0.24716000  0.62544500  1
  B  B101  1  0.44199500  0.21716100  0.66455500  1
  B  B102  1  0.55800500  0.82302400  0.63808900  1
  B  B103  1  0.05800500  0.64129700  0.65191100  1
  B  B104  1  0.25000000  0.53542000  0.73260700  1
  B  B105  1  0.75000000  0.12890100  0.75739300  1
  B  B106  1  0.25000000  0.39897600  0.76503100  1
  B  B107  1  0.75000000  0.26534500  0.72496900  1
  B  B108  1  0.25000000  0.72264700  0.73564300  1
  B  B109  1  0.75000000  0.94167500  0.75435700  1
  B  B110  1  0.05800500  0.81716100  0.76455500  1
  B  B111  1  0.55800500  0.84716000  0.72544500  1
  B  B112  1  0.44199500  0.24129700  0.75191100  1
  B  B113  1  0.94199500  0.42302400  0.73808900  1
  B  B114  1  0.94199500  0.84716000  0.72544500  1
  B  B115  1  0.44199500  0.81716100  0.76455500  1
  B  B116  1  0.55800500  0.42302400  0.73808900  1
  B  B117  1  0.05800500  0.24129700  0.75191100  1
