# generated using pymatgen
data_MgAg2
_symmetry_space_group_name_H-M   'P 1'
_cell_length_a   4.87780300
_cell_length_b   8.88411000
_cell_length_c   40.63091900
_cell_angle_alpha   90.00000000
_cell_angle_beta   90.00000000
_cell_angle_gamma   90.00000000
_symmetry_Int_Tables_number   1
_chemical_formula_structural   MgAg2
_chemical_formula_sum   'Mg20 Ag40'
_cell_volume   1760.73837242
_cell_formula_units_Z   20
loop_
 _symmetry_equiv_pos_site_id
 _symmetry_equiv_pos_as_xyz
  1  'x, y, z'
loop_
 _atom_site_type_symbol
 _atom_site_label
 _atom_site_symmetry_multiplicity
 _atom_site_fract_x
 _atom_site_fract_y
 _atom_site_fract_z
 _atom_site_occupancy
  Mg  Mg0  1  0.75000000  0.00000000  0.28791200  1
  Mg  Mg1  1  0.25000000  0.00000000  0.21208800  1
  Mg  Mg2  1  0.75000000  0.50000000  0.22541200  1
  Mg  Mg3  1  0.25000000  0.50000000  0.27458800  1
  Mg  Mg4  1  0.75000000  0.00000000  0.41291200  1
  Mg  Mg5  1  0.25000000  0.00000000  0.33708800  1
  Mg  Mg6  1  0.75000000  0.50000000  0.35041200  1
  Mg  Mg7  1  0.25000000  0.50000000  0.39958800  1
  Mg  Mg8  1  0.75000000  0.00000000  0.53791200  1
  Mg  Mg9  1  0.25000000  0.00000000  0.46208800  1
  Mg  Mg10  1  0.75000000  0.50000000  0.47541200  1
  Mg  Mg11  1  0.25000000  0.50000000  0.52458800  1
  Mg  Mg12  1  0.75000000  0.00000000  0.66291200  1
  Mg  Mg13  1  0.25000000  0.00000000  0.58708800  1
  Mg  Mg14  1  0.75000000  0.50000000  0.60041200  1
  Mg  Mg15  1  0.25000000  0.50000000  0.64958800  1
  Mg  Mg16  1  0.75000000  0.00000000  0.78791200  1
  Mg  Mg17  1  0.25000000  0.00000000  0.71208800  1
  Mg  Mg18  1  0.75000000  0.50000000  0.72541200  1
  Mg  Mg19  1  0.25000000  0.50000000  0.77458800  1
  Ag  Ag20  1  0.25000000  0.33353600  0.21065800  1
  Ag  Ag21  1  0.75000000  0.33353600  0.28934200  1
  Ag  Ag22  1  0.75000000  0.16646400  0.22684200  1
  Ag  Ag23  1  0.25000000  0.16646400  0.27315800  1
  Ag  Ag24  1  0.25000000  0.83353600  0.27315800  1
  Ag  Ag25  1  0.75000000  0.83353600  0.22684200  1
  Ag  Ag26  1  0.75000000  0.66646400  0.28934200  1
  Ag  Ag27  1  0.25000000  0.66646400  0.21065800  1
  Ag  Ag28  1  0.25000000  0.33353600  0.33565800  1
  Ag  Ag29  1  0.75000000  0.33353600  0.41434200  1
  Ag  Ag30  1  0.75000000  0.16646400  0.35184200  1
  Ag  Ag31  1  0.25000000  0.16646400  0.39815800  1
  Ag  Ag32  1  0.25000000  0.83353600  0.39815800  1
  Ag  Ag33  1  0.75000000  0.83353600  0.35184200  1
  Ag  Ag34  1  0.75000000  0.66646400  0.41434200  1
  Ag  Ag35  1  0.25000000  0.66646400  0.33565800  1
  Ag  Ag36  1  0.25000000  0.33353600  0.46065800  1
  Ag  Ag37  1  0.75000000  0.33353600  0.53934200  1
  Ag  Ag38  1  0.75000000  0.16646400  0.47684200  1
  Ag  Ag39  1  0.25000000  0.16646400  0.52315800  1
  Ag  Ag40  1  0.25000000  0.83353600  0.52315800  1
  Ag  Ag41  1  0.75000000  0.83353600  0.47684200  1
  Ag  Ag42  1  0.75000000  0.66646400  0.53934200  1
  Ag  Ag43  1  0.25000000  0.66646400  0.46065800  1
  Ag  Ag44  1  0.25000000  0.33353600  0.58565800  1
  Ag  Ag45  1  0.75000000  0.33353600  0.66434200  1
  Ag  Ag46  1  0.75000000  0.16646400  0.60184200  1
  Ag  Ag47  1  0.25000000  0.16646400  0.64815800  1
  Ag  Ag48  1  0.25000000  0.83353600  0.64815800  1
  Ag  Ag49  1  0.75000000  0.83353600  0.60184200  1
  Ag  Ag50  1  0.75000000  0.66646400  0.66434200  1
  Ag  Ag51  1  0.25000000  0.66646400  0.58565800  1
  Ag  Ag52  1  0.25000000  0.33353600  0.71065800  1
  Ag  Ag53  1  0.75000000  0.33353600  0.78934200  1
  Ag  Ag54  1  0.75000000  0.16646400  0.72684200  1
  Ag  Ag55  1  0.25000000  0.16646400  0.77315800  1
  Ag  Ag56  1  0.25000000  0.83353600  0.77315800  1
  Ag  Ag57  1  0.75000000  0.83353600  0.72684200  1
  Ag  Ag58  1  0.75000000  0.66646400  0.78934200  1
  Ag  Ag59  1  0.25000000  0.66646400  0.71065800  1
