# generated using pymatgen
data_Mg2B13
_symmetry_space_group_name_H-M   'P 1'
_cell_length_a   5.97250300
_cell_length_b   10.46844400
_cell_length_c   48.66413200
_cell_angle_alpha   90.00000000
_cell_angle_beta   90.00000000
_cell_angle_gamma   90.00000000
_symmetry_Int_Tables_number   1
_chemical_formula_structural   Mg2B13
_chemical_formula_sum   'Mg32 B208'
_cell_volume   3042.61843435
_cell_formula_units_Z   16
loop_
 _symmetry_equiv_pos_site_id
 _symmetry_equiv_pos_as_xyz
  1  'x, y, z'
loop_
 _atom_site_type_symbol
 _atom_site_label
 _atom_site_symmetry_multiplicity
 _atom_site_fract_x
 _atom_site_fract_y
 _atom_site_fract_z
 _atom_site_occupancy
  Mg  Mg0  1  0.75000000  0.25000000  0.27083300  1
  Mg  Mg1  1  0.25000000  0.25000000  0.27083300  1
  Mg  Mg2  1  0.50000000  0.75000000  0.25172400  1
  Mg  Mg3  1  0.50000000  0.25000000  0.20660900  1
  Mg  Mg4  1  0.25000000  0.75000000  0.18750000  1
  Mg  Mg5  1  0.75000000  0.75000000  0.18750000  1
  Mg  Mg6  1  0.00000000  0.25000000  0.16839100  1
  Mg  Mg7  1  0.00000000  0.75000000  0.28994200  1
  Mg  Mg8  1  0.75000000  0.25000000  0.43750000  1
  Mg  Mg9  1  0.25000000  0.25000000  0.43750000  1
  Mg  Mg10  1  0.50000000  0.75000000  0.41839100  1
  Mg  Mg11  1  0.50000000  0.25000000  0.37327600  1
  Mg  Mg12  1  0.25000000  0.75000000  0.35416700  1
  Mg  Mg13  1  0.75000000  0.75000000  0.35416700  1
  Mg  Mg14  1  0.00000000  0.25000000  0.33505800  1
  Mg  Mg15  1  0.00000000  0.75000000  0.45660900  1
  Mg  Mg16  1  0.75000000  0.25000000  0.60416700  1
  Mg  Mg17  1  0.25000000  0.25000000  0.60416700  1
  Mg  Mg18  1  0.50000000  0.75000000  0.58505800  1
  Mg  Mg19  1  0.50000000  0.25000000  0.53994200  1
  Mg  Mg20  1  0.25000000  0.75000000  0.52083300  1
  Mg  Mg21  1  0.75000000  0.75000000  0.52083300  1
  Mg  Mg22  1  0.00000000  0.25000000  0.50172400  1
  Mg  Mg23  1  0.00000000  0.75000000  0.62327600  1
  Mg  Mg24  1  0.75000000  0.25000000  0.77083300  1
  Mg  Mg25  1  0.25000000  0.25000000  0.77083300  1
  Mg  Mg26  1  0.50000000  0.75000000  0.75172400  1
  Mg  Mg27  1  0.50000000  0.25000000  0.70660900  1
  Mg  Mg28  1  0.25000000  0.75000000  0.68750000  1
  Mg  Mg29  1  0.75000000  0.75000000  0.68750000  1
  Mg  Mg30  1  0.00000000  0.25000000  0.66839100  1
  Mg  Mg31  1  0.00000000  0.75000000  0.78994200  1
  B  B32  1  0.50000000  0.85949800  0.20995700  1
  B  B33  1  0.24661100  0.92216600  0.22171300  1
  B  B34  1  0.75338900  0.92216600  0.22171300  1
  B  B35  1  1.00000000  0.08229700  0.25855700  1
  B  B36  1  0.00000000  0.83386800  0.23323100  1
  B  B37  1  0.15555800  0.93635500  0.25640300  1
  B  B38  1  0.84444200  0.93635500  0.25640300  1
  B  B39  1  0.50000000  0.08229700  0.28311000  1
  B  B40  1  0.50000000  0.64050200  0.20995700  1
  B  B41  1  0.00000000  0.66613200  0.23323100  1
  B  B42  1  0.24661100  0.57783400  0.22171300  1
  B  B43  1  0.75338900  0.57783400  0.22171300  1
  B  B44  1  0.65555800  0.93635500  0.28526400  1
  B  B45  1  0.34444200  0.93635500  0.28526400  1
  B  B46  1  0.65555800  0.06364500  0.17306900  1
  B  B47  1  0.34444200  0.06364500  0.17306900  1
  B  B48  1  0.24661100  0.42216600  0.23662000  1
  B  B49  1  0.75338900  0.42216600  0.23662000  1
  B  B50  1  0.00000000  0.33386800  0.22510200  1
  B  B51  1  0.50000000  0.35949800  0.24837700  1
  B  B52  1  0.50000000  0.91770300  0.17522400  1
  B  B53  1  0.15555800  0.06364500  0.20193100  1
  B  B54  1  0.84444200  0.06364500  0.20193100  1
  B  B55  1  0.00000000  0.16613200  0.22510200  1
  B  B56  1  0.00000000  0.91770300  0.19977600  1
  B  B57  1  0.24661100  0.07783400  0.23662000  1
  B  B58  1  0.75338900  0.07783400  0.23662000  1
  B  B59  1  0.50000000  0.14050200  0.24837700  1
  B  B60  1  0.00000000  0.35949800  0.29329000  1
  B  B61  1  0.74661100  0.42216600  0.30504600  1
  B  B62  1  0.25338900  0.42216600  0.30504600  1
  B  B63  1  0.50000000  0.58229700  0.17522400  1
  B  B64  1  0.50000000  0.33386800  0.31656400  1
  B  B65  1  0.65555800  0.43635500  0.17306900  1
  B  B66  1  0.34444200  0.43635500  0.17306900  1
  B  B67  1  0.00000000  0.58229700  0.19977600  1
  B  B68  1  0.00000000  0.14050200  0.29329000  1
  B  B69  1  0.50000000  0.16613200  0.31656400  1
  B  B70  1  0.74661100  0.07783400  0.30504600  1
  B  B71  1  0.25338900  0.07783400  0.30504600  1
  B  B72  1  0.15555800  0.43635500  0.20193100  1
  B  B73  1  0.84444200  0.43635500  0.20193100  1
  B  B74  1  0.15555800  0.56364500  0.25640300  1
  B  B75  1  0.84444200  0.56364500  0.25640300  1
  B  B76  1  0.74661100  0.92216600  0.31995400  1
  B  B77  1  0.25338900  0.92216600  0.31995400  1
  B  B78  1  0.50000000  0.83386800  0.30843600  1
  B  B79  1  0.00000000  0.85949800  0.33171000  1
  B  B80  1  1.00000000  0.41770300  0.25855700  1
  B  B81  1  0.65555800  0.56364500  0.28526400  1
  B  B82  1  0.34444200  0.56364500  0.28526400  1
  B  B83  1  0.50000000  0.66613200  0.30843600  1
  B  B84  1  0.50000000  0.41770300  0.28311000  1
  B  B85  1  0.74661100  0.57783400  0.31995400  1
  B  B86  1  0.25338900  0.57783400  0.31995400  1
  B  B87  1  0.00000000  0.64050200  0.33171000  1
  B  B88  1  0.50000000  0.85949800  0.37662300  1
  B  B89  1  0.24661100  0.92216600  0.38838000  1
  B  B90  1  0.75338900  0.92216600  0.38838000  1
  B  B91  1  0.00000000  0.08229700  0.42522400  1
  B  B92  1  0.00000000  0.83386800  0.39989800  1
  B  B93  1  0.15555800  0.93635500  0.42306900  1
  B  B94  1  0.84444200  0.93635500  0.42306900  1
  B  B95  1  0.50000000  0.08229700  0.44977600  1
  B  B96  1  0.50000000  0.64050200  0.37662300  1
  B  B97  1  0.00000000  0.66613200  0.39989800  1
  B  B98  1  0.24661100  0.57783400  0.38838000  1
  B  B99  1  0.75338900  0.57783400  0.38838000  1
  B  B100  1  0.65555800  0.93635500  0.45193100  1
  B  B101  1  0.34444200  0.93635500  0.45193100  1
  B  B102  1  0.65555800  0.06364500  0.33973600  1
  B  B103  1  0.34444200  0.06364500  0.33973600  1
  B  B104  1  0.24661100  0.42216600  0.40328700  1
  B  B105  1  0.75338900  0.42216600  0.40328700  1
  B  B106  1  0.00000000  0.33386800  0.39176900  1
  B  B107  1  0.50000000  0.35949800  0.41504300  1
  B  B108  1  0.50000000  0.91770300  0.34189000  1
  B  B109  1  0.15555800  0.06364500  0.36859700  1
  B  B110  1  0.84444200  0.06364500  0.36859700  1
  B  B111  1  0.00000000  0.16613200  0.39176900  1
  B  B112  1  0.00000000  0.91770300  0.36644300  1
  B  B113  1  0.24661100  0.07783400  0.40328700  1
  B  B114  1  0.75338900  0.07783400  0.40328700  1
  B  B115  1  0.50000000  0.14050200  0.41504300  1
  B  B116  1  0.00000000  0.35949800  0.45995700  1
  B  B117  1  0.74661100  0.42216600  0.47171300  1
  B  B118  1  0.25338900  0.42216600  0.47171300  1
  B  B119  1  0.50000000  0.58229700  0.34189000  1
  B  B120  1  0.50000000  0.33386800  0.48323100  1
  B  B121  1  0.65555800  0.43635500  0.33973600  1
  B  B122  1  0.34444200  0.43635500  0.33973600  1
  B  B123  1  0.00000000  0.58229700  0.36644300  1
  B  B124  1  0.00000000  0.14050200  0.45995700  1
  B  B125  1  0.50000000  0.16613200  0.48323100  1
  B  B126  1  0.74661100  0.07783400  0.47171300  1
  B  B127  1  0.25338900  0.07783400  0.47171300  1
  B  B128  1  0.15555800  0.43635500  0.36859700  1
  B  B129  1  0.84444200  0.43635500  0.36859700  1
  B  B130  1  0.15555800  0.56364500  0.42306900  1
  B  B131  1  0.84444200  0.56364500  0.42306900  1
  B  B132  1  0.74661100  0.92216600  0.48662000  1
  B  B133  1  0.25338900  0.92216600  0.48662000  1
  B  B134  1  0.50000000  0.83386800  0.47510200  1
  B  B135  1  0.00000000  0.85949800  0.49837700  1
  B  B136  1  1.00000000  0.41770300  0.42522400  1
  B  B137  1  0.65555800  0.56364500  0.45193100  1
  B  B138  1  0.34444200  0.56364500  0.45193100  1
  B  B139  1  0.50000000  0.66613200  0.47510200  1
  B  B140  1  0.50000000  0.41770300  0.44977600  1
  B  B141  1  0.74661100  0.57783400  0.48662000  1
  B  B142  1  0.25338900  0.57783400  0.48662000  1
  B  B143  1  0.00000000  0.64050200  0.49837700  1
  B  B144  1  0.50000000  0.85949800  0.54329000  1
  B  B145  1  0.24661100  0.92216600  0.55504600  1
  B  B146  1  0.75338900  0.92216600  0.55504600  1
  B  B147  1  1.00000000  0.08229700  0.59189000  1
  B  B148  1  0.00000000  0.83386800  0.56656400  1
  B  B149  1  0.15555800  0.93635500  0.58973600  1
  B  B150  1  0.84444200  0.93635500  0.58973600  1
  B  B151  1  0.50000000  0.08229700  0.61644300  1
  B  B152  1  0.50000000  0.64050200  0.54329000  1
  B  B153  1  0.00000000  0.66613200  0.56656400  1
  B  B154  1  0.24661100  0.57783400  0.55504600  1
  B  B155  1  0.75338900  0.57783400  0.55504600  1
  B  B156  1  0.65555800  0.93635500  0.61859700  1
  B  B157  1  0.34444200  0.93635500  0.61859700  1
  B  B158  1  0.65555800  0.06364500  0.50640300  1
  B  B159  1  0.34444200  0.06364500  0.50640300  1
  B  B160  1  0.24661100  0.42216600  0.56995400  1
  B  B161  1  0.75338900  0.42216600  0.56995400  1
  B  B162  1  0.00000000  0.33386800  0.55843600  1
  B  B163  1  0.50000000  0.35949800  0.58171000  1
  B  B164  1  0.50000000  0.91770300  0.50855700  1
  B  B165  1  0.15555800  0.06364500  0.53526400  1
  B  B166  1  0.84444200  0.06364500  0.53526400  1
  B  B167  1  0.00000000  0.16613200  0.55843600  1
  B  B168  1  0.00000000  0.91770300  0.53311000  1
  B  B169  1  0.24661100  0.07783400  0.56995400  1
  B  B170  1  0.75338900  0.07783400  0.56995400  1
  B  B171  1  0.50000000  0.14050200  0.58171000  1
  B  B172  1  0.00000000  0.35949800  0.62662300  1
  B  B173  1  0.74661100  0.42216600  0.63838000  1
  B  B174  1  0.25338900  0.42216600  0.63838000  1
  B  B175  1  0.50000000  0.58229700  0.50855700  1
  B  B176  1  0.50000000  0.33386800  0.64989800  1
  B  B177  1  0.65555800  0.43635500  0.50640300  1
  B  B178  1  0.34444200  0.43635500  0.50640300  1
  B  B179  1  0.00000000  0.58229700  0.53311000  1
  B  B180  1  0.00000000  0.14050200  0.62662300  1
  B  B181  1  0.50000000  0.16613200  0.64989800  1
  B  B182  1  0.74661100  0.07783400  0.63838000  1
  B  B183  1  0.25338900  0.07783400  0.63838000  1
  B  B184  1  0.15555800  0.43635500  0.53526400  1
  B  B185  1  0.84444200  0.43635500  0.53526400  1
  B  B186  1  0.15555800  0.56364500  0.58973600  1
  B  B187  1  0.84444200  0.56364500  0.58973600  1
  B  B188  1  0.74661100  0.92216600  0.65328700  1
  B  B189  1  0.25338900  0.92216600  0.65328700  1
  B  B190  1  0.50000000  0.83386800  0.64176900  1
  B  B191  1  0.00000000  0.85949800  0.66504300  1
  B  B192  1  1.00000000  0.41770300  0.59189000  1
  B  B193  1  0.65555800  0.56364500  0.61859700  1
  B  B194  1  0.34444200  0.56364500  0.61859700  1
  B  B195  1  0.50000000  0.66613200  0.64176900  1
  B  B196  1  0.50000000  0.41770300  0.61644300  1
  B  B197  1  0.74661100  0.57783400  0.65328700  1
  B  B198  1  0.25338900  0.57783400  0.65328700  1
  B  B199  1  0.00000000  0.64050200  0.66504300  1
  B  B200  1  0.50000000  0.85949800  0.70995700  1
  B  B201  1  0.24661100  0.92216600  0.72171300  1
  B  B202  1  0.75338900  0.92216600  0.72171300  1
  B  B203  1  0.00000000  0.08229700  0.75855700  1
  B  B204  1  0.00000000  0.83386800  0.73323100  1
  B  B205  1  0.15555800  0.93635500  0.75640300  1
  B  B206  1  0.84444200  0.93635500  0.75640300  1
  B  B207  1  0.50000000  0.08229700  0.78311000  1
  B  B208  1  0.50000000  0.64050200  0.70995700  1
  B  B209  1  0.00000000  0.66613200  0.73323100  1
  B  B210  1  0.24661100  0.57783400  0.72171300  1
  B  B211  1  0.75338900  0.57783400  0.72171300  1
  B  B212  1  0.65555800  0.93635500  0.78526400  1
  B  B213  1  0.34444200  0.93635500  0.78526400  1
  B  B214  1  0.65555800  0.06364500  0.67306900  1
  B  B215  1  0.34444200  0.06364500  0.67306900  1
  B  B216  1  0.24661100  0.42216600  0.73662000  1
  B  B217  1  0.75338900  0.42216600  0.73662000  1
  B  B218  1  0.00000000  0.33386800  0.72510200  1
  B  B219  1  0.50000000  0.35949800  0.74837700  1
  B  B220  1  0.50000000  0.91770300  0.67522400  1
  B  B221  1  0.15555800  0.06364500  0.70193100  1
  B  B222  1  0.84444200  0.06364500  0.70193100  1
  B  B223  1  0.00000000  0.16613200  0.72510200  1
  B  B224  1  0.00000000  0.91770300  0.69977600  1
  B  B225  1  0.24661100  0.07783400  0.73662000  1
  B  B226  1  0.75338900  0.07783400  0.73662000  1
  B  B227  1  0.50000000  0.14050200  0.74837700  1
  B  B228  1  0.50000000  0.58229700  0.67522400  1
  B  B229  1  0.65555800  0.43635500  0.67306900  1
  B  B230  1  0.34444200  0.43635500  0.67306900  1
  B  B231  1  0.00000000  0.58229700  0.69977600  1
  B  B232  1  0.15555800  0.43635500  0.70193100  1
  B  B233  1  0.84444200  0.43635500  0.70193100  1
  B  B234  1  0.15555800  0.56364500  0.75640300  1
  B  B235  1  0.84444200  0.56364500  0.75640300  1
  B  B236  1  1.00000000  0.41770300  0.75855700  1
  B  B237  1  0.65555800  0.56364500  0.78526400  1
  B  B238  1  0.34444200  0.56364500  0.78526400  1
  B  B239  1  0.50000000  0.41770300  0.78311000  1
