# generated using pymatgen
data_Mg5Ga2
_symmetry_space_group_name_H-M   'P 1'
_cell_length_a   6.11035700
_cell_length_b   6.82567400
_cell_length_c   55.65914500
_cell_angle_alpha   90.00000000
_cell_angle_beta   90.00000000
_cell_angle_gamma   90.00000000
_symmetry_Int_Tables_number   1
_chemical_formula_structural   Mg5Ga2
_chemical_formula_sum   'Mg40 Ga16'
_cell_volume   2321.39293130
_cell_formula_units_Z   8
loop_
 _symmetry_equiv_pos_site_id
 _symmetry_equiv_pos_as_xyz
  1  'x, y, z'
loop_
 _atom_site_type_symbol
 _atom_site_label
 _atom_site_symmetry_multiplicity
 _atom_site_fract_x
 _atom_site_fract_y
 _atom_site_fract_z
 _atom_site_occupancy
  Mg  Mg0  1  0.50000000  0.65542800  0.45817000  1
  Mg  Mg1  1  0.00000000  0.84457200  0.29183000  1
  Mg  Mg2  1  0.50000000  0.15542800  0.29183000  1
  Mg  Mg3  1  0.00000000  0.34457200  0.45817000  1
  Mg  Mg4  1  0.25000000  0.00000000  0.43750000  1
  Mg  Mg5  1  0.75000000  0.00000000  0.43750000  1
  Mg  Mg6  1  0.25000000  0.00000000  0.49617200  1
  Mg  Mg7  1  0.75000000  0.50000000  0.25382800  1
  Mg  Mg8  1  0.25000000  0.50000000  0.25382800  1
  Mg  Mg9  1  0.75000000  0.00000000  0.49617200  1
  Mg  Mg10  1  0.00000000  0.15542800  0.33317000  1
  Mg  Mg11  1  0.50000000  0.34457200  0.41683000  1
  Mg  Mg12  1  0.00000000  0.65542800  0.41683000  1
  Mg  Mg13  1  0.50000000  0.84457200  0.33317000  1
  Mg  Mg14  1  0.75000000  0.50000000  0.31250000  1
  Mg  Mg15  1  0.25000000  0.50000000  0.31250000  1
  Mg  Mg16  1  0.75000000  0.50000000  0.37117200  1
  Mg  Mg17  1  0.25000000  0.00000000  0.37882800  1
  Mg  Mg18  1  0.75000000  0.00000000  0.37882800  1
  Mg  Mg19  1  0.25000000  0.50000000  0.37117200  1
  Mg  Mg20  1  0.50000000  0.65542800  0.70817000  1
  Mg  Mg21  1  0.00000000  0.84457200  0.54183000  1
  Mg  Mg22  1  0.50000000  0.15542800  0.54183000  1
  Mg  Mg23  1  0.00000000  0.34457200  0.70817000  1
  Mg  Mg24  1  0.25000000  0.00000000  0.68750000  1
  Mg  Mg25  1  0.75000000  0.00000000  0.68750000  1
  Mg  Mg26  1  0.25000000  0.00000000  0.74617200  1
  Mg  Mg27  1  0.75000000  0.50000000  0.50382800  1
  Mg  Mg28  1  0.25000000  0.50000000  0.50382800  1
  Mg  Mg29  1  0.75000000  0.00000000  0.74617200  1
  Mg  Mg30  1  0.00000000  0.15542800  0.58317000  1
  Mg  Mg31  1  0.50000000  0.34457200  0.66683000  1
  Mg  Mg32  1  0.00000000  0.65542800  0.66683000  1
  Mg  Mg33  1  0.50000000  0.84457200  0.58317000  1
  Mg  Mg34  1  0.75000000  0.50000000  0.56250000  1
  Mg  Mg35  1  0.25000000  0.50000000  0.56250000  1
  Mg  Mg36  1  0.75000000  0.50000000  0.62117200  1
  Mg  Mg37  1  0.25000000  0.00000000  0.62882800  1
  Mg  Mg38  1  0.75000000  0.00000000  0.62882800  1
  Mg  Mg39  1  0.25000000  0.50000000  0.62117200  1
  Ga  Ga40  1  0.50000000  0.25943400  0.46810300  1
  Ga  Ga41  1  0.00000000  0.24056600  0.28189700  1
  Ga  Ga42  1  0.50000000  0.75943400  0.28189700  1
  Ga  Ga43  1  1.00000000  0.74056600  0.46810300  1
  Ga  Ga44  1  0.00000000  0.75943400  0.34310300  1
  Ga  Ga45  1  0.50000000  0.74056600  0.40689700  1
  Ga  Ga46  1  0.00000000  0.25943400  0.40689700  1
  Ga  Ga47  1  0.50000000  0.24056600  0.34310300  1
  Ga  Ga48  1  0.50000000  0.25943400  0.71810300  1
  Ga  Ga49  1  0.00000000  0.24056600  0.53189700  1
  Ga  Ga50  1  0.50000000  0.75943400  0.53189700  1
  Ga  Ga51  1  1.00000000  0.74056600  0.71810300  1
  Ga  Ga52  1  0.00000000  0.75943400  0.59310300  1
  Ga  Ga53  1  0.50000000  0.74056600  0.65689700  1
  Ga  Ga54  1  0.00000000  0.25943400  0.65689700  1
  Ga  Ga55  1  0.50000000  0.24056600  0.59310300  1
