# generated using pymatgen
data_Pr2Mg19
_symmetry_space_group_name_H-M   'P 1'
_cell_length_a   5.93281560
_cell_length_b   7.86707123
_cell_length_c   51.09080100
_cell_angle_alpha   88.74552175
_cell_angle_beta   86.67145082
_cell_angle_gamma   67.84791274
_symmetry_Int_Tables_number   1
_chemical_formula_structural   Pr2Mg19
_chemical_formula_sum   'Pr4 Mg38'
_cell_volume   2204.86341953
_cell_formula_units_Z   2
loop_
 _symmetry_equiv_pos_site_id
 _symmetry_equiv_pos_as_xyz
  1  'x, y, z'
loop_
 _atom_site_type_symbol
 _atom_site_label
 _atom_site_symmetry_multiplicity
 _atom_site_fract_x
 _atom_site_fract_y
 _atom_site_fract_z
 _atom_site_occupancy
  Pr  Pr0  1  0.51054300  0.31957400  0.65934100  1
  Pr  Pr1  1  0.08197100  0.31957400  0.51648400  1
  Pr  Pr2  1  0.65340000  0.31957400  0.37362600  1
  Pr  Pr3  1  0.22482900  0.31957400  0.23076900  1
  Mg  Mg4  1  0.01054300  0.81957400  0.65934100  1
  Mg  Mg5  1  0.51054300  0.81957400  0.65934100  1
  Mg  Mg6  1  0.58197100  0.81957400  0.51648400  1
  Mg  Mg7  1  0.29625700  0.31957400  0.58791200  1
  Mg  Mg8  1  0.79625700  0.31957400  0.58791200  1
  Mg  Mg9  1  0.08197100  0.81957400  0.51648400  1
  Mg  Mg10  1  0.71182800  0.96732400  0.60901900  1
  Mg  Mg11  1  0.23293500  0.96732400  0.56680500  1
  Mg  Mg12  1  0.35957900  0.67182300  0.60901900  1
  Mg  Mg13  1  0.88068600  0.67182300  0.56680500  1
  Mg  Mg14  1  0.46020000  0.53267400  0.54692600  1
  Mg  Mg15  1  0.91921400  0.53267400  0.62889800  1
  Mg  Mg16  1  0.67330000  0.10647400  0.54692600  1
  Mg  Mg17  1  0.13231400  0.10647400  0.62889800  1
  Mg  Mg18  1  0.15340000  0.81957400  0.37362600  1
  Mg  Mg19  1  0.86768600  0.31957400  0.44505500  1
  Mg  Mg20  1  0.36768600  0.31957400  0.44505500  1
  Mg  Mg21  1  0.65340000  0.81957400  0.37362600  1
  Mg  Mg22  1  0.28325700  0.96732400  0.46616200  1
  Mg  Mg23  1  0.80436400  0.96732400  0.42394800  1
  Mg  Mg24  1  0.93100700  0.67182300  0.46616200  1
  Mg  Mg25  1  0.45211500  0.67182300  0.42394800  1
  Mg  Mg26  1  0.03162900  0.53267400  0.40406900  1
  Mg  Mg27  1  0.49064300  0.53267400  0.48604100  1
  Mg  Mg28  1  0.24472900  0.10647400  0.40406900  1
  Mg  Mg29  1  0.70374300  0.10647400  0.48604100  1
  Mg  Mg30  1  0.72482900  0.81957400  0.23076900  1
  Mg  Mg31  1  0.43911400  0.31957400  0.30219800  1
  Mg  Mg32  1  0.93911400  0.31957400  0.30219800  1
  Mg  Mg33  1  0.22482900  0.81957400  0.23076900  1
  Mg  Mg34  1  0.85468500  0.96732400  0.32330500  1
  Mg  Mg35  1  0.37579300  0.96732400  0.28109100  1
  Mg  Mg36  1  0.50243600  0.67182300  0.32330500  1
  Mg  Mg37  1  0.02354300  0.67182300  0.28109100  1
  Mg  Mg38  1  0.60305700  0.53267400  0.26121200  1
  Mg  Mg39  1  0.06207100  0.53267400  0.34318400  1
  Mg  Mg40  1  0.81615700  0.10647400  0.26121200  1
  Mg  Mg41  1  0.27517100  0.10647400  0.34318400  1
