# generated using pymatgen
data_MgAg2
_symmetry_space_group_name_H-M   'P 1'
_cell_length_a   4.87780300
_cell_length_b   8.88411000
_cell_length_c   40.63091900
_cell_angle_alpha   90.00000000
_cell_angle_beta   90.00000000
_cell_angle_gamma   90.00000000
_symmetry_Int_Tables_number   1
_chemical_formula_structural   MgAg2
_chemical_formula_sum   'Mg20 Ag40'
_cell_volume   1760.73837242
_cell_formula_units_Z   20
loop_
 _symmetry_equiv_pos_site_id
 _symmetry_equiv_pos_as_xyz
  1  'x, y, z'
loop_
 _atom_site_type_symbol
 _atom_site_label
 _atom_site_symmetry_multiplicity
 _atom_site_fract_x
 _atom_site_fract_y
 _atom_site_fract_z
 _atom_site_occupancy
  Mg  Mg0  1  0.75000000  0.00000000  0.25666200  1
  Mg  Mg1  1  0.25000000  0.00000000  0.30583800  1
  Mg  Mg2  1  0.75000000  0.50000000  0.19416200  1
  Mg  Mg3  1  0.25000000  0.50000000  0.24333800  1
  Mg  Mg4  1  0.75000000  0.00000000  0.38166200  1
  Mg  Mg5  1  0.25000000  0.00000000  0.43083800  1
  Mg  Mg6  1  0.75000000  0.50000000  0.31916200  1
  Mg  Mg7  1  0.25000000  0.50000000  0.36833800  1
  Mg  Mg8  1  0.75000000  0.00000000  0.50666200  1
  Mg  Mg9  1  0.25000000  0.00000000  0.55583800  1
  Mg  Mg10  1  0.75000000  0.50000000  0.44416200  1
  Mg  Mg11  1  0.25000000  0.50000000  0.49333800  1
  Mg  Mg12  1  0.75000000  0.00000000  0.63166200  1
  Mg  Mg13  1  0.25000000  0.00000000  0.68083800  1
  Mg  Mg14  1  0.75000000  0.50000000  0.56916200  1
  Mg  Mg15  1  0.25000000  0.50000000  0.61833800  1
  Mg  Mg16  1  0.75000000  0.00000000  0.75666200  1
  Mg  Mg17  1  0.25000000  0.00000000  0.80583800  1
  Mg  Mg18  1  0.75000000  0.50000000  0.69416200  1
  Mg  Mg19  1  0.25000000  0.50000000  0.74333800  1
  Ag  Ag20  1  0.25000000  0.33353600  0.30440800  1
  Ag  Ag21  1  0.75000000  0.33353600  0.25809200  1
  Ag  Ag22  1  0.75000000  0.16646400  0.19559200  1
  Ag  Ag23  1  0.25000000  0.16646400  0.24190800  1
  Ag  Ag24  1  0.25000000  0.83353600  0.24190800  1
  Ag  Ag25  1  0.75000000  0.83353600  0.19559200  1
  Ag  Ag26  1  0.75000000  0.66646400  0.25809200  1
  Ag  Ag27  1  0.25000000  0.66646400  0.30440800  1
  Ag  Ag28  1  0.25000000  0.33353600  0.42940800  1
  Ag  Ag29  1  0.75000000  0.33353600  0.38309200  1
  Ag  Ag30  1  0.75000000  0.16646400  0.32059200  1
  Ag  Ag31  1  0.25000000  0.16646400  0.36690800  1
  Ag  Ag32  1  0.25000000  0.83353600  0.36690800  1
  Ag  Ag33  1  0.75000000  0.83353600  0.32059200  1
  Ag  Ag34  1  0.75000000  0.66646400  0.38309200  1
  Ag  Ag35  1  0.25000000  0.66646400  0.42940800  1
  Ag  Ag36  1  0.25000000  0.33353600  0.55440800  1
  Ag  Ag37  1  0.75000000  0.33353600  0.50809200  1
  Ag  Ag38  1  0.75000000  0.16646400  0.44559200  1
  Ag  Ag39  1  0.25000000  0.16646400  0.49190800  1
  Ag  Ag40  1  0.25000000  0.83353600  0.49190800  1
  Ag  Ag41  1  0.75000000  0.83353600  0.44559200  1
  Ag  Ag42  1  0.75000000  0.66646400  0.50809200  1
  Ag  Ag43  1  0.25000000  0.66646400  0.55440800  1
  Ag  Ag44  1  0.25000000  0.33353600  0.67940800  1
  Ag  Ag45  1  0.75000000  0.33353600  0.63309200  1
  Ag  Ag46  1  0.75000000  0.16646400  0.57059200  1
  Ag  Ag47  1  0.25000000  0.16646400  0.61690800  1
  Ag  Ag48  1  0.25000000  0.83353600  0.61690800  1
  Ag  Ag49  1  0.75000000  0.83353600  0.57059200  1
  Ag  Ag50  1  0.75000000  0.66646400  0.63309200  1
  Ag  Ag51  1  0.25000000  0.66646400  0.67940800  1
  Ag  Ag52  1  0.25000000  0.33353600  0.80440800  1
  Ag  Ag53  1  0.75000000  0.33353600  0.75809200  1
  Ag  Ag54  1  0.75000000  0.16646400  0.69559200  1
  Ag  Ag55  1  0.25000000  0.16646400  0.74190800  1
  Ag  Ag56  1  0.25000000  0.83353600  0.74190800  1
  Ag  Ag57  1  0.75000000  0.83353600  0.69559200  1
  Ag  Ag58  1  0.75000000  0.66646400  0.75809200  1
  Ag  Ag59  1  0.25000000  0.66646400  0.80440800  1
