# generated using pymatgen
data_Mg2Sc
_symmetry_space_group_name_H-M   'P 1'
_cell_length_a   6.13971348
_cell_length_b   8.45453099
_cell_length_c   43.60291500
_cell_angle_alpha   91.24883666
_cell_angle_beta   92.80791751
_cell_angle_gamma   95.84591880
_symmetry_Int_Tables_number   1
_chemical_formula_structural   Mg2Sc
_chemical_formula_sum   'Mg40 Sc20'
_cell_volume   2248.06610484
_cell_formula_units_Z   20
loop_
 _symmetry_equiv_pos_site_id
 _symmetry_equiv_pos_as_xyz
  1  'x, y, z'
loop_
 _atom_site_type_symbol
 _atom_site_label
 _atom_site_symmetry_multiplicity
 _atom_site_fract_x
 _atom_site_fract_y
 _atom_site_fract_z
 _atom_site_occupancy
  Mg  Mg0  1  0.21496400  0.41597100  0.19625900  1
  Mg  Mg1  1  0.13163000  0.77013000  0.21709300  1
  Mg  Mg2  1  0.53503600  0.02152900  0.24124100  1
  Mg  Mg3  1  0.61837000  0.66737000  0.22040700  1
  Mg  Mg4  1  0.96496400  0.47847100  0.25875900  1
  Mg  Mg5  1  0.88163000  0.83263000  0.27959300  1
  Mg  Mg6  1  0.28503600  0.08402900  0.30374100  1
  Mg  Mg7  1  0.36837000  0.72987000  0.28290700  1
  Mg  Mg8  1  0.71496400  0.54097100  0.32125900  1
  Mg  Mg9  1  0.63163000  0.89513000  0.34209300  1
  Mg  Mg10  1  0.03503600  0.14652900  0.36624100  1
  Mg  Mg11  1  0.11837000  0.79237000  0.34540700  1
  Mg  Mg12  1  0.46496400  0.60347100  0.38375900  1
  Mg  Mg13  1  0.38163000  0.95763000  0.40459300  1
  Mg  Mg14  1  0.78503600  0.20902900  0.42874100  1
  Mg  Mg15  1  0.86837000  0.85487000  0.40790700  1
  Mg  Mg16  1  0.21496400  0.66597100  0.44625900  1
  Mg  Mg17  1  0.13163000  0.02013000  0.46709300  1
  Mg  Mg18  1  0.53503600  0.27152900  0.49124100  1
  Mg  Mg19  1  0.61837000  0.91737000  0.47040700  1
  Mg  Mg20  1  0.96496400  0.72847100  0.50875900  1
  Mg  Mg21  1  0.88163000  0.08263000  0.52959300  1
  Mg  Mg22  1  0.28503600  0.33402900  0.55374100  1
  Mg  Mg23  1  0.36837000  0.97987000  0.53290700  1
  Mg  Mg24  1  0.71496400  0.79097100  0.57125900  1
  Mg  Mg25  1  0.63163000  0.14513000  0.59209300  1
  Mg  Mg26  1  0.03503600  0.39652900  0.61624100  1
  Mg  Mg27  1  0.11837000  0.04237000  0.59540700  1
  Mg  Mg28  1  0.46496400  0.85347100  0.63375900  1
  Mg  Mg29  1  0.38163000  0.20763000  0.65459300  1
  Mg  Mg30  1  0.78503600  0.45902900  0.67874100  1
  Mg  Mg31  1  0.86837000  0.10487000  0.65790700  1
  Mg  Mg32  1  0.21496400  0.91597100  0.69625900  1
  Mg  Mg33  1  0.13163000  0.27013000  0.71709300  1
  Mg  Mg34  1  0.53503600  0.52152900  0.74124100  1
  Mg  Mg35  1  0.61837000  0.16737000  0.72040700  1
  Mg  Mg36  1  0.96496400  0.97847100  0.75875900  1
  Mg  Mg37  1  0.88163000  0.33263000  0.77959300  1
  Mg  Mg38  1  0.28503600  0.58402900  0.80374100  1
  Mg  Mg39  1  0.36837000  0.22987000  0.78290700  1
  Sc  Sc40  1  0.04833000  0.12456100  0.23791700  1
  Sc  Sc41  1  0.70167000  0.31293900  0.19958300  1
  Sc  Sc42  1  0.79833000  0.18706100  0.30041700  1
  Sc  Sc43  1  0.45167000  0.37543900  0.26208300  1
  Sc  Sc44  1  0.54833000  0.24956100  0.36291700  1
  Sc  Sc45  1  0.20167000  0.43793900  0.32458300  1
  Sc  Sc46  1  0.29833000  0.31206100  0.42541700  1
  Sc  Sc47  1  0.95167000  0.50043900  0.38708300  1
  Sc  Sc48  1  0.04833000  0.37456100  0.48791700  1
  Sc  Sc49  1  0.70167000  0.56293900  0.44958300  1
  Sc  Sc50  1  0.79833000  0.43706100  0.55041700  1
  Sc  Sc51  1  0.45167000  0.62543900  0.51208300  1
  Sc  Sc52  1  0.54833000  0.49956100  0.61291700  1
  Sc  Sc53  1  0.20167000  0.68793900  0.57458300  1
  Sc  Sc54  1  0.29833000  0.56206100  0.67541700  1
  Sc  Sc55  1  0.95167000  0.75043900  0.63708300  1
  Sc  Sc56  1  0.04833000  0.62456100  0.73791700  1
  Sc  Sc57  1  0.70167000  0.81293900  0.69958300  1
  Sc  Sc58  1  0.79833000  0.68706100  0.80041700  1
  Sc  Sc59  1  0.45167000  0.87543900  0.76208300  1
