# generated using pymatgen
data_Yb3Mg
_symmetry_space_group_name_H-M   'P 1'
_cell_length_a   5.99982500
_cell_length_b   7.34873287
_cell_length_c   44.70059500
_cell_angle_alpha   94.71500301
_cell_angle_beta   90.00000000
_cell_angle_gamma   90.00000000
_symmetry_Int_Tables_number   1
_chemical_formula_structural   Yb3Mg
_chemical_formula_sum   'Yb24 Mg8'
_cell_volume   1964.22917931
_cell_formula_units_Z   8
loop_
 _symmetry_equiv_pos_site_id
 _symmetry_equiv_pos_as_xyz
  1  'x, y, z'
loop_
 _atom_site_type_symbol
 _atom_site_label
 _atom_site_symmetry_multiplicity
 _atom_site_fract_x
 _atom_site_fract_y
 _atom_site_fract_z
 _atom_site_occupancy
  Yb  Yb0  1  0.75000000  0.81002500  0.33433600  1
  Yb  Yb1  1  0.75000000  0.51829700  0.26140400  1
  Yb  Yb2  1  0.75000000  0.02882000  0.26140400  1
  Yb  Yb3  1  0.25000000  0.54260800  0.31002500  1
  Yb  Yb4  1  0.25000000  0.05313100  0.31002500  1
  Yb  Yb5  1  0.25000000  0.76140400  0.23709300  1
  Yb  Yb6  1  0.75000000  0.38145300  0.47719300  1
  Yb  Yb7  1  0.75000000  0.08972600  0.40426100  1
  Yb  Yb8  1  0.75000000  0.60024900  0.40426100  1
  Yb  Yb9  1  0.25000000  0.11403700  0.45288200  1
  Yb  Yb10  1  0.25000000  0.62456000  0.45288200  1
  Yb  Yb11  1  0.25000000  0.33283200  0.37995000  1
  Yb  Yb12  1  0.75000000  0.95288200  0.62005000  1
  Yb  Yb13  1  0.75000000  0.66115500  0.54711800  1
  Yb  Yb14  1  0.75000000  0.17167800  0.54711800  1
  Yb  Yb15  1  0.25000000  0.68546500  0.59573900  1
  Yb  Yb16  1  0.25000000  0.19598800  0.59573900  1
  Yb  Yb17  1  0.25000000  0.90426100  0.52280700  1
  Yb  Yb18  1  0.75000000  0.52431100  0.76290700  1
  Yb  Yb19  1  0.75000000  0.23258300  0.68997500  1
  Yb  Yb20  1  0.75000000  0.74310600  0.68997500  1
  Yb  Yb21  1  0.25000000  0.25689400  0.73859600  1
  Yb  Yb22  1  0.25000000  0.76741700  0.73859600  1
  Yb  Yb23  1  0.25000000  0.47568900  0.66566400  1
  Mg  Mg24  1  0.75000000  0.30952400  0.33333300  1
  Mg  Mg25  1  0.25000000  0.26190500  0.23809500  1
  Mg  Mg26  1  0.75000000  0.88095200  0.47619000  1
  Mg  Mg27  1  0.25000000  0.83333300  0.38095200  1
  Mg  Mg28  1  0.75000000  0.45238100  0.61904800  1
  Mg  Mg29  1  0.25000000  0.40476200  0.52381000  1
  Mg  Mg30  1  0.75000000  0.02381000  0.76190500  1
  Mg  Mg31  1  0.25000000  0.97619000  0.66666700  1
