# generated using pymatgen
data_Mg79Rh32
_symmetry_space_group_name_H-M   'P 1'
_cell_length_a   8.64031900
_cell_length_b   8.64031947
_cell_length_c   48.20804900
_cell_angle_alpha   90.00000000
_cell_angle_beta   90.00000000
_cell_angle_gamma   120.00000205
_symmetry_Int_Tables_number   1
_chemical_formula_structural   Mg79Rh32
_chemical_formula_sum   'Mg79 Rh32'
_cell_volume   3116.80588860
_cell_formula_units_Z   1
loop_
 _symmetry_equiv_pos_site_id
 _symmetry_equiv_pos_as_xyz
  1  'x, y, z'
loop_
 _atom_site_type_symbol
 _atom_site_label
 _atom_site_symmetry_multiplicity
 _atom_site_fract_x
 _atom_site_fract_y
 _atom_site_fract_z
 _atom_site_occupancy
  Mg  Mg0  1  0.00000000  0.00000000  0.24702400  1
  Mg  Mg1  1  0.00000000  0.00000000  0.33035700  1
  Mg  Mg2  1  0.91953400  0.45976700  0.28869000  1
  Mg  Mg3  1  0.45976700  0.91953400  0.20535700  1
  Mg  Mg4  1  0.45976700  0.54023300  0.20535700  1
  Mg  Mg5  1  0.54023300  0.45976700  0.28869000  1
  Mg  Mg6  1  0.54023300  0.08046600  0.28869000  1
  Mg  Mg7  1  0.08046600  0.54023300  0.20535700  1
  Mg  Mg8  1  0.38259800  0.19129900  0.23627100  1
  Mg  Mg9  1  0.19129900  0.38259800  0.31960400  1
  Mg  Mg10  1  0.19129900  0.80870100  0.31960400  1
  Mg  Mg11  1  0.80870100  0.19129900  0.23627100  1
  Mg  Mg12  1  0.80870100  0.61740200  0.23627100  1
  Mg  Mg13  1  0.61740200  0.80870100  0.25777600  1
  Mg  Mg14  1  0.19129900  0.38259800  0.25777600  1
  Mg  Mg15  1  0.61740200  0.80870100  0.31960400  1
  Mg  Mg16  1  0.19129900  0.80870100  0.25777600  1
  Mg  Mg17  1  0.80870100  0.19129900  0.17444300  1
  Mg  Mg18  1  0.38259800  0.19129900  0.17444300  1
  Mg  Mg19  1  0.80870100  0.61740200  0.17444300  1
  Mg  Mg20  1  0.00000000  0.00000000  0.41369000  1
  Mg  Mg21  1  0.00000000  0.00000000  0.49702400  1
  Mg  Mg22  1  0.91953400  0.45976700  0.45535700  1
  Mg  Mg23  1  0.45976700  0.91953400  0.37202400  1
  Mg  Mg24  1  0.45976700  0.54023300  0.37202400  1
  Mg  Mg25  1  0.54023300  0.45976700  0.45535700  1
  Mg  Mg26  1  0.54023300  0.08046600  0.45535700  1
  Mg  Mg27  1  0.08046600  0.54023300  0.37202400  1
  Mg  Mg28  1  0.38259800  0.19129900  0.40293800  1
  Mg  Mg29  1  0.19129900  0.38259800  0.48627100  1
  Mg  Mg30  1  0.19129900  0.80870100  0.48627100  1
  Mg  Mg31  1  0.80870100  0.19129900  0.40293800  1
  Mg  Mg32  1  0.80870100  0.61740200  0.40293800  1
  Mg  Mg33  1  0.61740200  0.80870100  0.42444300  1
  Mg  Mg34  1  0.19129900  0.38259800  0.42444300  1
  Mg  Mg35  1  0.61740200  0.80870100  0.48627100  1
  Mg  Mg36  1  0.19129900  0.80870100  0.42444300  1
  Mg  Mg37  1  0.80870100  0.19129900  0.34111000  1
  Mg  Mg38  1  0.38259800  0.19129900  0.34111000  1
  Mg  Mg39  1  0.80870100  0.61740200  0.34111000  1
  Mg  Mg40  1  0.00000000  0.00000000  0.58035700  1
  Mg  Mg41  1  0.00000000  0.00000000  0.66369000  1
  Mg  Mg42  1  0.91953400  0.45976700  0.62202400  1
  Mg  Mg43  1  0.45976700  0.91953400  0.53869000  1
  Mg  Mg44  1  0.45976700  0.54023300  0.53869000  1
  Mg  Mg45  1  0.54023300  0.45976700  0.62202400  1
  Mg  Mg46  1  0.54023300  0.08046600  0.62202400  1
  Mg  Mg47  1  0.08046600  0.54023300  0.53869000  1
  Mg  Mg48  1  0.38259800  0.19129900  0.56960400  1
  Mg  Mg49  1  0.19129900  0.38259800  0.65293800  1
  Mg  Mg50  1  0.19129900  0.80870100  0.65293800  1
  Mg  Mg51  1  0.80870100  0.19129900  0.56960400  1
  Mg  Mg52  1  0.80870100  0.61740200  0.56960400  1
  Mg  Mg53  1  0.61740200  0.80870100  0.59111000  1
  Mg  Mg54  1  0.19129900  0.38259800  0.59111000  1
  Mg  Mg55  1  0.61740200  0.80870100  0.65293800  1
  Mg  Mg56  1  0.19129900  0.80870100  0.59111000  1
  Mg  Mg57  1  0.80870100  0.19129900  0.50777600  1
  Mg  Mg58  1  0.38259800  0.19129900  0.50777600  1
  Mg  Mg59  1  0.80870100  0.61740200  0.50777600  1
  Mg  Mg60  1  0.00000000  0.00000000  0.74702400  1
  Mg  Mg61  1  0.91953400  0.45976700  0.78869000  1
  Mg  Mg62  1  0.45976700  0.91953400  0.70535700  1
  Mg  Mg63  1  0.45976700  0.54023300  0.70535700  1
  Mg  Mg64  1  0.54023300  0.45976700  0.78869000  1
  Mg  Mg65  1  0.54023300  0.08046600  0.78869000  1
  Mg  Mg66  1  0.08046600  0.54023300  0.70535700  1
  Mg  Mg67  1  0.38259800  0.19129900  0.73627100  1
  Mg  Mg68  1  0.19129900  0.38259800  0.81960400  1
  Mg  Mg69  1  0.19129900  0.80870100  0.81960400  1
  Mg  Mg70  1  0.80870100  0.19129900  0.73627100  1
  Mg  Mg71  1  0.80870100  0.61740200  0.73627100  1
  Mg  Mg72  1  0.61740200  0.80870100  0.75777600  1
  Mg  Mg73  1  0.19129900  0.38259800  0.75777600  1
  Mg  Mg74  1  0.61740200  0.80870100  0.81960400  1
  Mg  Mg75  1  0.19129900  0.80870100  0.75777600  1
  Mg  Mg76  1  0.80870100  0.19129900  0.67444300  1
  Mg  Mg77  1  0.38259800  0.19129900  0.67444300  1
  Mg  Mg78  1  0.80870100  0.61740200  0.67444300  1
  Rh  Rh79  1  0.66666700  0.33333300  0.20535700  1
  Rh  Rh80  1  0.33333300  0.66666700  0.28869000  1
  Rh  Rh81  1  0.24460700  0.12230300  0.28869000  1
  Rh  Rh82  1  0.12230300  0.24460700  0.20535700  1
  Rh  Rh83  1  0.12230300  0.87769700  0.20535700  1
  Rh  Rh84  1  0.87769700  0.12230300  0.28869000  1
  Rh  Rh85  1  0.87769700  0.75539300  0.28869000  1
  Rh  Rh86  1  0.75539300  0.87769700  0.20535700  1
  Rh  Rh87  1  0.66666700  0.33333300  0.37202400  1
  Rh  Rh88  1  0.33333300  0.66666700  0.45535700  1
  Rh  Rh89  1  0.24460700  0.12230300  0.45535700  1
  Rh  Rh90  1  0.12230300  0.24460700  0.37202400  1
  Rh  Rh91  1  0.12230300  0.87769700  0.37202400  1
  Rh  Rh92  1  0.87769700  0.12230300  0.45535700  1
  Rh  Rh93  1  0.87769700  0.75539300  0.45535700  1
  Rh  Rh94  1  0.75539300  0.87769700  0.37202400  1
  Rh  Rh95  1  0.66666700  0.33333300  0.53869000  1
  Rh  Rh96  1  0.33333300  0.66666700  0.62202400  1
  Rh  Rh97  1  0.24460700  0.12230300  0.62202400  1
  Rh  Rh98  1  0.12230300  0.24460700  0.53869000  1
  Rh  Rh99  1  0.12230300  0.87769700  0.53869000  1
  Rh  Rh100  1  0.87769700  0.12230300  0.62202400  1
  Rh  Rh101  1  0.87769700  0.75539300  0.62202400  1
  Rh  Rh102  1  0.75539300  0.87769700  0.53869000  1
  Rh  Rh103  1  0.66666700  0.33333300  0.70535700  1
  Rh  Rh104  1  0.33333300  0.66666700  0.78869000  1
  Rh  Rh105  1  0.24460700  0.12230300  0.78869000  1
  Rh  Rh106  1  0.12230300  0.24460700  0.70535700  1
  Rh  Rh107  1  0.12230300  0.87769700  0.70535700  1
  Rh  Rh108  1  0.87769700  0.12230300  0.78869000  1
  Rh  Rh109  1  0.87769700  0.75539300  0.78869000  1
  Rh  Rh110  1  0.75539300  0.87769700  0.70535700  1
