# generated using pymatgen
data_Mg2Ag
_symmetry_space_group_name_H-M   'P 1'
_cell_length_a   3.33664900
_cell_length_b   3.33664900
_cell_length_c   53.79061000
_cell_angle_alpha   90.00000000
_cell_angle_beta   90.00000000
_cell_angle_gamma   90.00000000
_symmetry_Int_Tables_number   1
_chemical_formula_structural   Mg2Ag
_chemical_formula_sum   'Mg12 Ag6'
_cell_volume   598.86304735
_cell_formula_units_Z   6
loop_
 _symmetry_equiv_pos_site_id
 _symmetry_equiv_pos_as_xyz
  1  'x, y, z'
loop_
 _atom_site_type_symbol
 _atom_site_label
 _atom_site_symmetry_multiplicity
 _atom_site_fract_x
 _atom_site_fract_y
 _atom_site_fract_z
 _atom_site_occupancy
  Mg  Mg0  1  0.50000000  0.50000000  0.21959500  1
  Mg  Mg1  1  0.00000000  0.00000000  0.38040500  1
  Mg  Mg2  1  0.00000000  0.00000000  0.31959500  1
  Mg  Mg3  1  0.50000000  0.50000000  0.28040500  1
  Mg  Mg4  1  0.50000000  0.50000000  0.41959500  1
  Mg  Mg5  1  0.00000000  0.00000000  0.58040500  1
  Mg  Mg6  1  0.00000000  0.00000000  0.51959500  1
  Mg  Mg7  1  0.50000000  0.50000000  0.48040500  1
  Mg  Mg8  1  0.50000000  0.50000000  0.61959500  1
  Mg  Mg9  1  0.00000000  0.00000000  0.78040500  1
  Mg  Mg10  1  0.00000000  0.00000000  0.71959500  1
  Mg  Mg11  1  0.50000000  0.50000000  0.68040500  1
  Ag  Ag12  1  0.50000000  0.50000000  0.35000000  1
  Ag  Ag13  1  0.00000000  0.00000000  0.25000000  1
  Ag  Ag14  1  0.50000000  0.50000000  0.55000000  1
  Ag  Ag15  1  0.00000000  0.00000000  0.45000000  1
  Ag  Ag16  1  0.50000000  0.50000000  0.75000000  1
  Ag  Ag17  1  0.00000000  0.00000000  0.65000000  1
