# generated using pymatgen
data_Dy3Mg
_symmetry_space_group_name_H-M   'P 1'
_cell_length_a   5.03327500
_cell_length_b   9.35794300
_cell_length_c   40.26620200
_cell_angle_alpha   90.00000000
_cell_angle_beta   90.00000000
_cell_angle_gamma   90.00000000
_symmetry_Int_Tables_number   1
_chemical_formula_structural   Dy3Mg
_chemical_formula_sum   'Dy30 Mg10'
_cell_volume   1896.58242930
_cell_formula_units_Z   10
loop_
 _symmetry_equiv_pos_site_id
 _symmetry_equiv_pos_as_xyz
  1  'x, y, z'
loop_
 _atom_site_type_symbol
 _atom_site_label
 _atom_site_symmetry_multiplicity
 _atom_site_fract_x
 _atom_site_fract_y
 _atom_site_fract_z
 _atom_site_occupancy
  Dy  Dy0  1  0.25000000  0.23838700  0.21875000  1
  Dy  Dy1  1  0.75000000  0.50000000  0.21875000  1
  Dy  Dy2  1  0.25000000  0.76161300  0.21875000  1
  Dy  Dy3  1  0.75000000  0.23838700  0.28125000  1
  Dy  Dy4  1  0.25000000  0.50000000  0.28125000  1
  Dy  Dy5  1  0.75000000  0.76161300  0.28125000  1
  Dy  Dy6  1  0.25000000  0.23838700  0.34375000  1
  Dy  Dy7  1  0.75000000  0.50000000  0.34375000  1
  Dy  Dy8  1  0.25000000  0.76161300  0.34375000  1
  Dy  Dy9  1  0.75000000  0.23838700  0.40625000  1
  Dy  Dy10  1  0.25000000  0.50000000  0.40625000  1
  Dy  Dy11  1  0.75000000  0.76161300  0.40625000  1
  Dy  Dy12  1  0.25000000  0.23838700  0.46875000  1
  Dy  Dy13  1  0.75000000  0.50000000  0.46875000  1
  Dy  Dy14  1  0.25000000  0.76161300  0.46875000  1
  Dy  Dy15  1  0.75000000  0.23838700  0.53125000  1
  Dy  Dy16  1  0.25000000  0.50000000  0.53125000  1
  Dy  Dy17  1  0.75000000  0.76161300  0.53125000  1
  Dy  Dy18  1  0.25000000  0.23838700  0.59375000  1
  Dy  Dy19  1  0.75000000  0.50000000  0.59375000  1
  Dy  Dy20  1  0.25000000  0.76161300  0.59375000  1
  Dy  Dy21  1  0.75000000  0.23838700  0.65625000  1
  Dy  Dy22  1  0.25000000  0.50000000  0.65625000  1
  Dy  Dy23  1  0.75000000  0.76161300  0.65625000  1
  Dy  Dy24  1  0.25000000  0.23838700  0.71875000  1
  Dy  Dy25  1  0.75000000  0.50000000  0.71875000  1
  Dy  Dy26  1  0.25000000  0.76161300  0.71875000  1
  Dy  Dy27  1  0.75000000  0.23838700  0.78125000  1
  Dy  Dy28  1  0.25000000  0.50000000  0.78125000  1
  Dy  Dy29  1  0.75000000  0.76161300  0.78125000  1
  Mg  Mg30  1  0.75000000  0.00000000  0.21875000  1
  Mg  Mg31  1  0.25000000  0.00000000  0.28125000  1
  Mg  Mg32  1  0.75000000  0.00000000  0.34375000  1
  Mg  Mg33  1  0.25000000  0.00000000  0.40625000  1
  Mg  Mg34  1  0.75000000  0.00000000  0.46875000  1
  Mg  Mg35  1  0.25000000  0.00000000  0.53125000  1
  Mg  Mg36  1  0.75000000  0.00000000  0.59375000  1
  Mg  Mg37  1  0.25000000  0.00000000  0.65625000  1
  Mg  Mg38  1  0.75000000  0.00000000  0.71875000  1
  Mg  Mg39  1  0.25000000  0.00000000  0.78125000  1
