# generated using pymatgen
data_MgGa2
_symmetry_space_group_name_H-M   'P 1'
_cell_length_a   7.53303863
_cell_length_b   8.34732543
_cell_length_c   43.86758100
_cell_angle_alpha   85.94994107
_cell_angle_beta   85.07445657
_cell_angle_gamma   63.17771197
_symmetry_Int_Tables_number   1
_chemical_formula_structural   MgGa2
_chemical_formula_sum   'Mg26 Ga52'
_cell_volume   2450.97913731
_cell_formula_units_Z   26
loop_
 _symmetry_equiv_pos_site_id
 _symmetry_equiv_pos_as_xyz
  1  'x, y, z'
loop_
 _atom_site_type_symbol
 _atom_site_label
 _atom_site_symmetry_multiplicity
 _atom_site_fract_x
 _atom_site_fract_y
 _atom_site_fract_z
 _atom_site_occupancy
  Mg  Mg0  1  0.88095200  0.22619000  0.20238100  1
  Mg  Mg1  1  0.64285700  0.67857100  0.22619000  1
  Mg  Mg2  1  0.40476200  0.13095200  0.25000000  1
  Mg  Mg3  1  0.16666700  0.58333300  0.27381000  1
  Mg  Mg4  1  0.92857100  0.03571400  0.29761900  1
  Mg  Mg5  1  0.69047600  0.48809500  0.32142900  1
  Mg  Mg6  1  0.45238100  0.94047600  0.34523800  1
  Mg  Mg7  1  0.21428600  0.39285700  0.36904800  1
  Mg  Mg8  1  0.97619000  0.84523800  0.39285700  1
  Mg  Mg9  1  0.73809500  0.29761900  0.41666700  1
  Mg  Mg10  1  0.50000000  0.75000000  0.44047600  1
  Mg  Mg11  1  0.26190500  0.20238100  0.46428600  1
  Mg  Mg12  1  0.02381000  0.65476200  0.48809500  1
  Mg  Mg13  1  0.78571400  0.10714300  0.51190500  1
  Mg  Mg14  1  0.54761900  0.55952400  0.53571400  1
  Mg  Mg15  1  0.30952400  0.01190500  0.55952400  1
  Mg  Mg16  1  0.07142900  0.46428600  0.58333300  1
  Mg  Mg17  1  0.83333300  0.91666700  0.60714300  1
  Mg  Mg18  1  0.59523800  0.36904800  0.63095200  1
  Mg  Mg19  1  0.35714300  0.82142900  0.65476200  1
  Mg  Mg20  1  0.11904800  0.27381000  0.67857100  1
  Mg  Mg21  1  0.88095200  0.72619000  0.70238100  1
  Mg  Mg22  1  0.64285700  0.17857100  0.72619000  1
  Mg  Mg23  1  0.40476200  0.63095200  0.75000000  1
  Mg  Mg24  1  0.16666700  0.08333300  0.77381000  1
  Mg  Mg25  1  0.92857100  0.53571400  0.79761900  1
  Ga  Ga26  1  0.64177700  0.04729000  0.19296500  1
  Ga  Ga27  1  0.07034800  0.49967100  0.21677500  1
  Ga  Ga28  1  0.45346100  0.40509100  0.21179700  1
  Ga  Ga29  1  0.88203200  0.85747200  0.23560600  1
  Ga  Ga30  1  0.16558700  0.95205200  0.24058400  1
  Ga  Ga31  1  0.59415800  0.40443300  0.26439400  1
  Ga  Ga32  1  0.97727100  0.30985300  0.25941600  1
  Ga  Ga33  1  0.40584200  0.76223400  0.28322500  1
  Ga  Ga34  1  0.68939600  0.85681400  0.28820300  1
  Ga  Ga35  1  0.11796800  0.30919500  0.31201300  1
  Ga  Ga36  1  0.50108000  0.21461400  0.30703500  1
  Ga  Ga37  1  0.92965200  0.66699500  0.33084400  1
  Ga  Ga38  1  0.21320600  0.76157600  0.33582200  1
  Ga  Ga39  1  0.64177700  0.21395700  0.35963200  1
  Ga  Ga40  1  0.02489000  0.11937600  0.35465400  1
  Ga  Ga41  1  0.45346100  0.57175700  0.37846300  1
  Ga  Ga42  1  0.73701500  0.66633800  0.38344100  1
  Ga  Ga43  1  0.16558700  0.11871900  0.40725100  1
  Ga  Ga44  1  0.54869900  0.02413800  0.40227300  1
  Ga  Ga45  1  0.97727100  0.47651900  0.42608200  1
  Ga  Ga46  1  0.26082500  0.57110000  0.43106000  1
  Ga  Ga47  1  0.68939600  0.02348100  0.45487000  1
  Ga  Ga48  1  0.07250900  0.92890000  0.44989200  1
  Ga  Ga49  1  0.50108000  0.38128100  0.47370200  1
  Ga  Ga50  1  0.78463400  0.47586200  0.47867900  1
  Ga  Ga51  1  0.21320600  0.92824300  0.50248900  1
  Ga  Ga52  1  0.59631800  0.83366200  0.49751100  1
  Ga  Ga53  1  0.02489000  0.28604300  0.52132100  1
  Ga  Ga54  1  0.30844400  0.38062400  0.52629800  1
  Ga  Ga55  1  0.73701500  0.83300500  0.55010800  1
  Ga  Ga56  1  0.12012800  0.73842400  0.54513000  1
  Ga  Ga57  1  0.54869900  0.19080500  0.56894000  1
  Ga  Ga58  1  0.83225300  0.28538600  0.57391800  1
  Ga  Ga59  1  0.26082500  0.73776600  0.59772700  1
  Ga  Ga60  1  0.64393700  0.64318600  0.59274900  1
  Ga  Ga61  1  0.07250900  0.09556700  0.61655900  1
  Ga  Ga62  1  0.35606300  0.19014700  0.62153700  1
  Ga  Ga63  1  0.78463400  0.64252800  0.64534600  1
  Ga  Ga64  1  0.16774700  0.54794800  0.64036800  1
  Ga  Ga65  1  0.59631800  0.00032900  0.66417800  1
  Ga  Ga66  1  0.87987200  0.09490900  0.66915600  1
  Ga  Ga67  1  0.30844400  0.54729000  0.69296500  1
  Ga  Ga68  1  0.69155600  0.45271000  0.68798700  1
  Ga  Ga69  1  0.12012800  0.90509100  0.71179700  1
  Ga  Ga70  1  0.40368200  0.99967100  0.71677500  1
  Ga  Ga71  1  0.83225300  0.45205200  0.74058400  1
  Ga  Ga72  1  0.21536600  0.35747200  0.73560600  1
  Ga  Ga73  1  0.64393700  0.80985300  0.75941600  1
  Ga  Ga74  1  0.92749100  0.90443300  0.76439400  1
  Ga  Ga75  1  0.35606300  0.35681400  0.78820300  1
  Ga  Ga76  1  0.73917500  0.26223400  0.78322500  1
  Ga  Ga77  1  0.16774700  0.71461400  0.80703500  1
