# generated using pymatgen
data_Mg56Ni107
_symmetry_space_group_name_H-M   'P 1'
_cell_length_a   4.81848500
_cell_length_b   16.44013798
_cell_length_c   44.59142500
_cell_angle_alpha   84.29083893
_cell_angle_beta   90.00000000
_cell_angle_gamma   81.57316207
_symmetry_Int_Tables_number   1
_chemical_formula_structural   Mg56Ni107
_chemical_formula_sum   'Mg56 Ni107'
_cell_volume   3476.52899218
_cell_formula_units_Z   1
loop_
 _symmetry_equiv_pos_site_id
 _symmetry_equiv_pos_as_xyz
  1  'x, y, z'
loop_
 _atom_site_type_symbol
 _atom_site_label
 _atom_site_symmetry_multiplicity
 _atom_site_fract_x
 _atom_site_fract_y
 _atom_site_fract_z
 _atom_site_occupancy
  Mg  Mg0  1  0.78609100  0.86424300  0.22829000  1
  Mg  Mg1  1  0.70156800  0.03328900  0.24519500  1
  Mg  Mg2  1  0.55881800  0.31878800  0.27374500  1
  Mg  Mg3  1  0.92884000  0.57874400  0.19974000  1
  Mg  Mg4  1  0.15779200  0.12084100  0.22061700  1
  Mg  Mg5  1  0.32986700  0.77669100  0.25286800  1
  Mg  Mg6  1  0.41536700  0.60568900  0.23576800  1
  Mg  Mg7  1  0.07229100  0.29184200  0.23771700  1
  Mg  Mg8  1  0.33154500  0.77333300  0.31919900  1
  Mg  Mg9  1  0.24702200  0.94238000  0.33610400  1
  Mg  Mg10  1  0.10427300  0.22787900  0.36465400  1
  Mg  Mg11  1  0.47429500  0.48783500  0.29064900  1
  Mg  Mg12  1  0.70324600  0.02993200  0.31152600  1
  Mg  Mg13  1  0.87532100  0.68578200  0.34377700  1
  Mg  Mg14  1  0.96082200  0.51478000  0.32667700  1
  Mg  Mg15  1  0.61774600  0.20093300  0.32862600  1
  Mg  Mg16  1  0.87700000  0.68242400  0.41010800  1
  Mg  Mg17  1  0.79247700  0.85147100  0.42701300  1
  Mg  Mg18  1  0.64972700  0.13697000  0.45556300  1
  Mg  Mg19  1  0.01974900  0.39692600  0.38155800  1
  Mg  Mg20  1  0.24870100  0.93902300  0.40243500  1
  Mg  Mg21  1  0.42077600  0.59487300  0.43468600  1
  Mg  Mg22  1  0.50627700  0.42387100  0.41758600  1
  Mg  Mg23  1  0.16320000  0.11002400  0.41953500  1
  Mg  Mg24  1  0.42245500  0.59151500  0.50101700  1
  Mg  Mg25  1  0.33793100  0.76056200  0.51792200  1
  Mg  Mg26  1  0.19518200  0.04606100  0.54647200  1
  Mg  Mg27  1  0.56520400  0.30601600  0.47246700  1
  Mg  Mg28  1  0.79415500  0.84811400  0.49334400  1
  Mg  Mg29  1  0.96623000  0.50396400  0.52559600  1
  Mg  Mg30  1  0.05173100  0.33296200  0.50849500  1
  Mg  Mg31  1  0.70865500  0.01911500  0.51044400  1
  Mg  Mg32  1  0.96790900  0.50060600  0.59192600  1
  Mg  Mg33  1  0.88338600  0.66965300  0.60883100  1
  Mg  Mg34  1  0.74063600  0.95515200  0.63738100  1
  Mg  Mg35  1  0.11065800  0.21510700  0.56337700  1
  Mg  Mg36  1  0.33961000  0.75720500  0.58425300  1
  Mg  Mg37  1  0.51168500  0.41305400  0.61650500  1
  Mg  Mg38  1  0.59718600  0.24205300  0.59940400  1
  Mg  Mg39  1  0.25410900  0.92820600  0.60135300  1
  Mg  Mg40  1  0.51336400  0.40969700  0.68283600  1
  Mg  Mg41  1  0.42884000  0.57874400  0.69974000  1
  Mg  Mg42  1  0.28609100  0.86424300  0.72829000  1
  Mg  Mg43  1  0.65611300  0.12419800  0.65428600  1
  Mg  Mg44  1  0.88506400  0.66629500  0.67516200  1
  Mg  Mg45  1  0.05713900  0.32214500  0.70741400  1
  Mg  Mg46  1  0.14264000  0.15114400  0.69031400  1
  Mg  Mg47  1  0.79956400  0.83729700  0.69226200  1
  Mg  Mg48  1  0.05881800  0.31878800  0.77374500  1
  Mg  Mg49  1  0.97429500  0.48783500  0.79064900  1
  Mg  Mg50  1  0.83154500  0.77333300  0.81919900  1
  Mg  Mg51  1  0.20156800  0.03328900  0.74519500  1
  Mg  Mg52  1  0.43051900  0.57538600  0.76607100  1
  Mg  Mg53  1  0.60259400  0.23123600  0.79832300  1
  Mg  Mg54  1  0.68809500  0.06023500  0.78122300  1
  Mg  Mg55  1  0.34501800  0.74638800  0.78317100  1
  Ni  Ni56  1  0.54308300  0.35025800  0.21022500  1
  Ni  Ni57  1  0.94457500  0.54727400  0.26326000  1
  Ni  Ni58  1  0.24382900  0.94876600  0.23674200  1
  Ni  Ni59  1  0.74382900  0.44876600  0.23674200  1
  Ni  Ni60  1  0.24382900  0.44876600  0.23674200  1
  Ni  Ni61  1  0.60325400  0.73644700  0.19906200  1
  Ni  Ni62  1  0.87241900  0.69158600  0.24392200  1
  Ni  Ni63  1  0.09672300  0.73644700  0.19906200  1
  Ni  Ni64  1  0.88440400  0.16108500  0.27442300  1
  Ni  Ni65  1  0.61523900  0.20594600  0.22956300  1
  Ni  Ni66  1  0.39093500  0.16108500  0.27442300  1
  Ni  Ni67  1  0.83096200  0.77450000  0.28598300  1
  Ni  Ni68  1  0.20215100  0.03212300  0.27841100  1
  Ni  Ni69  1  0.08853800  0.25934800  0.30113400  1
  Ni  Ni70  1  0.49003000  0.45636500  0.35416900  1
  Ni  Ni71  1  0.51655700  0.90331100  0.28219700  1
  Ni  Ni72  1  0.78928400  0.85785700  0.32765200  1
  Ni  Ni73  1  0.01655700  0.90331100  0.28219700  1
  Ni  Ni74  1  0.28928400  0.35785700  0.32765200  1
  Ni  Ni75  1  0.01655700  0.40331100  0.28219700  1
  Ni  Ni76  1  0.78928400  0.35785700  0.32765200  1
  Ni  Ni77  1  0.14870900  0.64553800  0.28997100  1
  Ni  Ni78  1  0.41787400  0.60067700  0.33483100  1
  Ni  Ni79  1  0.64217800  0.64553800  0.28997100  1
  Ni  Ni80  1  0.42985900  0.07017600  0.36533200  1
  Ni  Ni81  1  0.16069400  0.11503700  0.32047200  1
  Ni  Ni82  1  0.93639000  0.07017600  0.36533200  1
  Ni  Ni83  1  0.37641700  0.68359100  0.37689200  1
  Ni  Ni84  1  0.74760500  0.94121400  0.36932100  1
  Ni  Ni85  1  0.63399200  0.16843900  0.39204300  1
  Ni  Ni86  1  0.03548400  0.36545600  0.44507800  1
  Ni  Ni87  1  0.06201100  0.81240200  0.37310600  1
  Ni  Ni88  1  0.33473800  0.76694800  0.41856100  1
  Ni  Ni89  1  0.56201100  0.81240200  0.37310600  1
  Ni  Ni90  1  0.83473800  0.26694800  0.41856100  1
  Ni  Ni91  1  0.56201100  0.31240200  0.37310600  1
  Ni  Ni92  1  0.33473800  0.26694800  0.41856100  1
  Ni  Ni93  1  0.69416400  0.55462900  0.38088000  1
  Ni  Ni94  1  0.96332800  0.50976800  0.42574100  1
  Ni  Ni95  1  0.18763200  0.55462900  0.38088000  1
  Ni  Ni96  1  0.97531300  0.97926700  0.45624100  1
  Ni  Ni97  1  0.70614800  0.02412800  0.41138100  1
  Ni  Ni98  1  0.48184400  0.97926700  0.45624100  1
  Ni  Ni99  1  0.92187100  0.59268200  0.46780100  1
  Ni  Ni100  1  0.29306000  0.85030400  0.46023000  1
  Ni  Ni101  1  0.17944700  0.07753000  0.48295200  1
  Ni  Ni102  1  0.58093900  0.27454700  0.53598700  1
  Ni  Ni103  1  0.60746600  0.72149300  0.46401500  1
  Ni  Ni104  1  0.88019300  0.67603900  0.50947000  1
  Ni  Ni105  1  0.10746600  0.72149300  0.46401500  1
  Ni  Ni106  1  0.38019300  0.17603900  0.50947000  1
  Ni  Ni107  1  0.10746600  0.22149300  0.46401500  1
  Ni  Ni108  1  0.88019300  0.17603900  0.50947000  1
  Ni  Ni109  1  0.23961800  0.46371900  0.47178900  1
  Ni  Ni110  1  0.50878300  0.41885900  0.51665000  1
  Ni  Ni111  1  0.73308700  0.46371900  0.47178900  1
  Ni  Ni112  1  0.52076800  0.88835800  0.54715100  1
  Ni  Ni113  1  0.25160300  0.93321800  0.50229000  1
  Ni  Ni114  1  0.02729900  0.88835800  0.54715100  1
  Ni  Ni115  1  0.46732600  0.50177300  0.55871000  1
  Ni  Ni116  1  0.83851400  0.75939500  0.55113900  1
  Ni  Ni117  1  0.72490200  0.98662100  0.57386100  1
  Ni  Ni118  1  0.12639300  0.18363800  0.62689600  1
  Ni  Ni119  1  0.15292000  0.63058400  0.55492400  1
  Ni  Ni120  1  0.42564700  0.58512900  0.60037900  1
  Ni  Ni121  1  0.65292000  0.63058400  0.55492400  1
  Ni  Ni122  1  0.92564700  0.08512900  0.60037900  1
  Ni  Ni123  1  0.65292000  0.13058400  0.55492400  1
  Ni  Ni124  1  0.42564700  0.08512900  0.60037900  1
  Ni  Ni125  1  0.78507300  0.37281000  0.56269800  1
  Ni  Ni126  1  0.05423700  0.32795000  0.60755900  1
  Ni  Ni127  1  0.27854100  0.37281000  0.56269800  1
  Ni  Ni128  1  0.06622200  0.79744900  0.63806000  1
  Ni  Ni129  1  0.79705700  0.84230900  0.59319900  1
  Ni  Ni130  1  0.57275400  0.79744900  0.63806000  1
  Ni  Ni131  1  0.01278000  0.41086400  0.64961900  1
  Ni  Ni132  1  0.38396900  0.66848600  0.64204800  1
  Ni  Ni133  1  0.27035600  0.89571200  0.66477000  1
  Ni  Ni134  1  0.67184800  0.09272900  0.71780500  1
  Ni  Ni135  1  0.69837500  0.53967500  0.64583300  1
  Ni  Ni136  1  0.97110200  0.49422000  0.69128800  1
  Ni  Ni137  1  0.19837500  0.53967500  0.64583300  1
  Ni  Ni138  1  0.47110200  0.99422000  0.69128800  1
  Ni  Ni139  1  0.19837500  0.03967500  0.64583300  1
  Ni  Ni140  1  0.97110200  0.99422000  0.69128800  1
  Ni  Ni141  1  0.33052700  0.28190100  0.65360700  1
  Ni  Ni142  1  0.59969200  0.23704000  0.69846800  1
  Ni  Ni143  1  0.82399600  0.28190100  0.65360700  1
  Ni  Ni144  1  0.61167700  0.70654000  0.72896900  1
  Ni  Ni145  1  0.34251200  0.75140000  0.68410800  1
  Ni  Ni146  1  0.11820800  0.70654000  0.72896900  1
  Ni  Ni147  1  0.55823500  0.31995500  0.74052800  1
  Ni  Ni148  1  0.92942400  0.57757700  0.73295700  1
  Ni  Ni149  1  0.81581100  0.80480300  0.75567900  1
  Ni  Ni150  1  0.21730200  0.00182000  0.80871400  1
  Ni  Ni151  1  0.24382900  0.44876600  0.73674200  1
  Ni  Ni152  1  0.51655700  0.40331100  0.78219700  1
  Ni  Ni153  1  0.74382900  0.44876600  0.73674200  1
  Ni  Ni154  1  0.01655700  0.90331100  0.78219700  1
  Ni  Ni155  1  0.74382900  0.94876600  0.73674200  1
  Ni  Ni156  1  0.51655700  0.90331100  0.78219700  1
  Ni  Ni157  1  0.87598200  0.19099200  0.74451600  1
  Ni  Ni158  1  0.14514600  0.14613100  0.78937700  1
  Ni  Ni159  1  0.36945000  0.19099200  0.74451600  1
  Ni  Ni160  1  0.15713100  0.61563000  0.81987800  1
  Ni  Ni161  1  0.88796700  0.66049100  0.77501700  1
  Ni  Ni162  1  0.66366300  0.61563000  0.81987800  1
