# generated using pymatgen
data_Mg10Zn17
_symmetry_space_group_name_H-M   'P 1'
_cell_length_a   5.07402229
_cell_length_b   14.70723601
_cell_length_c   50.49845100
_cell_angle_alpha   88.21601723
_cell_angle_beta   89.67566990
_cell_angle_gamma   90.29193359
_symmetry_Int_Tables_number   1
_chemical_formula_structural   Mg10Zn17
_chemical_formula_sum   'Mg40 Zn68'
_cell_volume   3766.49971225
_cell_formula_units_Z   4
loop_
 _symmetry_equiv_pos_site_id
 _symmetry_equiv_pos_as_xyz
  1  'x, y, z'
loop_
 _atom_site_type_symbol
 _atom_site_label
 _atom_site_symmetry_multiplicity
 _atom_site_fract_x
 _atom_site_fract_y
 _atom_site_fract_z
 _atom_site_occupancy
  Mg  Mg0  1  0.24530400  0.91073300  0.44229400  1
  Mg  Mg1  1  0.24251700  0.17718500  0.36223700  1
  Mg  Mg2  1  0.75114300  0.42342900  0.47710100  1
  Mg  Mg3  1  0.74869500  0.88785200  0.40857700  1
  Mg  Mg4  1  0.74734600  0.26347600  0.38721600  1
  Mg  Mg5  1  0.24920800  0.73818600  0.48660800  1
  Mg  Mg6  1  0.74496900  0.22639100  0.44991200  1
  Mg  Mg7  1  0.74451100  0.85875100  0.35051400  1
  Mg  Mg8  1  0.24578300  0.10795800  0.46870500  1
  Mg  Mg9  1  0.74586000  0.48312700  0.37187500  1
  Mg  Mg10  1  0.74206300  0.32317400  0.28199000  1
  Mg  Mg11  1  0.24742300  0.63864500  0.29038600  1
  Mg  Mg12  1  0.24520200  0.97179200  0.37614300  1
  Mg  Mg13  1  0.24630000  0.54253000  0.45914600  1
  Mg  Mg14  1  0.24690600  0.20407300  0.29994500  1
  Mg  Mg15  1  0.74823700  0.52021200  0.30917900  1
  Mg  Mg16  1  0.24790100  0.83587000  0.31679700  1
  Mg  Mg17  1  0.24399700  0.00841700  0.27248300  1
  Mg  Mg18  1  0.25068800  0.56941800  0.39685400  1
  Mg  Mg19  1  0.24800400  0.77481100  0.38294800  1
  Mg  Mg20  1  0.74530400  0.66073300  0.69229400  1
  Mg  Mg21  1  0.74251700  0.92718500  0.61223700  1
  Mg  Mg22  1  0.25114300  0.17342900  0.72710100  1
  Mg  Mg23  1  0.24869500  0.63785200  0.65857700  1
  Mg  Mg24  1  0.24734600  0.01347600  0.63721600  1
  Mg  Mg25  1  0.74920800  0.48818600  0.73660800  1
  Mg  Mg26  1  0.24496900  0.97639100  0.69991200  1
  Mg  Mg27  1  0.24451100  0.60875100  0.60051400  1
  Mg  Mg28  1  0.74578300  0.85795800  0.71870500  1
  Mg  Mg29  1  0.24586000  0.23312700  0.62187500  1
  Mg  Mg30  1  0.24206300  0.07317400  0.53199000  1
  Mg  Mg31  1  0.74742300  0.38864500  0.54038600  1
  Mg  Mg32  1  0.74520200  0.72179200  0.62614300  1
  Mg  Mg33  1  0.74630000  0.29253000  0.70914600  1
  Mg  Mg34  1  0.74690600  0.95407300  0.54994500  1
  Mg  Mg35  1  0.24823700  0.27021200  0.55917900  1
  Mg  Mg36  1  0.74790100  0.58587000  0.56679700  1
  Mg  Mg37  1  0.74399700  0.75841700  0.52248300  1
  Mg  Mg38  1  0.75068800  0.31941800  0.64685400  1
  Mg  Mg39  1  0.74800400  0.52481100  0.63294800  1
  Zn  Zn40  1  0.24250100  0.24331300  0.41724400  1
  Zn  Zn41  1  0.74587300  0.06485300  0.37060600  1
  Zn  Zn42  1  0.75011600  0.08884600  0.50114800  1
  Zn  Zn43  1  0.49599500  0.66117400  0.34336300  1
  Zn  Zn44  1  0.99176000  0.34117900  0.33490400  1
  Zn  Zn45  1  0.49365000  0.08767300  0.41470500  1
  Zn  Zn46  1  0.25070400  0.50329000  0.34184700  1
  Zn  Zn47  1  0.74740900  0.10413700  0.28580400  1
  Zn  Zn48  1  0.99503600  0.40544300  0.42428100  1
  Zn  Zn49  1  0.49319400  0.93154300  0.49682700  1
  Zn  Zn50  1  0.74572800  0.82480800  0.46484200  1
  Zn  Zn51  1  0.24701900  0.32263800  0.46381000  1
  Zn  Zn52  1  0.75211200  0.55788300  0.42734100  1
  Zn  Zn53  1  0.74733200  0.68175000  0.38848500  1
  Zn  Zn54  1  0.74579700  0.64246600  0.47328700  1
  Zn  Zn55  1  0.00575600  0.72071900  0.43247100  1
  Zn  Zn56  1  0.49817000  0.34116000  0.33481000  1
  Zn  Zn57  1  0.99955500  0.65893000  0.34438600  1
  Zn  Zn58  1  0.24618700  0.42396500  0.29528100  1
  Zn  Zn59  1  0.48745000  0.02588400  0.32662000  1
  Zn  Zn60  1  0.50144600  0.40542400  0.42418700  1
  Zn  Zn61  1  0.74105200  0.01304500  0.45526400  1
  Zn  Zn62  1  0.99725700  0.93064100  0.49720300  1
  Zn  Zn63  1  0.49235600  0.72319700  0.43181100  1
  Zn  Zn64  1  0.75215300  0.73355800  0.30382700  1
  Zn  Zn65  1  0.00085000  0.02340600  0.32728000  1
  Zn  Zn66  1  0.74109400  0.18872000  0.33175000  1
  Zn  Zn67  1  0.49594900  0.81596200  0.26188800  1
  Zn  Zn68  1  0.99721000  0.08542900  0.41572800  1
  Zn  Zn69  1  0.24660300  0.37330100  0.37954500  1
  Zn  Zn70  1  0.00001200  0.81505900  0.26226400  1
  Zn  Zn71  1  0.74747800  0.92179500  0.29424900  1
  Zn  Zn72  1  0.74309000  0.65775600  0.25794300  1
  Zn  Zn73  1  0.74250100  0.99331300  0.66724400  1
  Zn  Zn74  1  0.24587300  0.81485300  0.62060600  1
  Zn  Zn75  1  0.25011600  0.83884600  0.75114800  1
  Zn  Zn76  1  0.99599500  0.41117400  0.59336300  1
  Zn  Zn77  1  0.49176000  0.09117900  0.58490400  1
  Zn  Zn78  1  0.99365000  0.83767300  0.66470500  1
  Zn  Zn79  1  0.49660300  0.24830100  0.50454500  1
  Zn  Zn80  1  0.75070400  0.25329000  0.59184700  1
  Zn  Zn81  1  0.24740900  0.85413700  0.53580400  1
  Zn  Zn82  1  0.49503600  0.15544300  0.67428100  1
  Zn  Zn83  1  0.99319400  0.68154300  0.74682700  1
  Zn  Zn84  1  0.24572800  0.57480800  0.71484200  1
  Zn  Zn85  1  0.74701900  0.07263800  0.71381000  1
  Zn  Zn86  1  0.25211200  0.30788300  0.67734100  1
  Zn  Zn87  1  0.24733200  0.43175000  0.63848500  1
  Zn  Zn88  1  0.24579700  0.39246600  0.72328700  1
  Zn  Zn89  1  0.50575600  0.47071900  0.68247100  1
  Zn  Zn90  1  0.99817000  0.09116000  0.58481000  1
  Zn  Zn91  1  0.49955500  0.40893000  0.59438600  1
  Zn  Zn92  1  0.74618700  0.17396500  0.54528100  1
  Zn  Zn93  1  0.98745000  0.77588400  0.57662000  1
  Zn  Zn94  1  0.00144600  0.15542400  0.67418700  1
  Zn  Zn95  1  0.99660300  0.24830100  0.50454500  1
  Zn  Zn96  1  0.24105200  0.76304500  0.70526400  1
  Zn  Zn97  1  0.49725700  0.68064100  0.74720300  1
  Zn  Zn98  1  0.99235600  0.47319700  0.68181100  1
  Zn  Zn99  1  0.25215300  0.48355800  0.55382700  1
  Zn  Zn100  1  0.50085000  0.77340600  0.57728000  1
  Zn  Zn101  1  0.24109400  0.93872000  0.58175000  1
  Zn  Zn102  1  0.99594900  0.56596200  0.51188800  1
  Zn  Zn103  1  0.49721000  0.83542900  0.66572800  1
  Zn  Zn104  1  0.74660300  0.12330100  0.62954500  1
  Zn  Zn105  1  0.50001200  0.56505900  0.51226400  1
  Zn  Zn106  1  0.24747800  0.67179500  0.54424900  1
  Zn  Zn107  1  0.24309000  0.40775600  0.50794300  1
