# generated using pymatgen
data_CaMg2
_symmetry_space_group_name_H-M   'P 1'
_cell_length_a   6.14690500
_cell_length_b   10.38483100
_cell_length_c   42.58700800
_cell_angle_alpha   90.00000000
_cell_angle_beta   90.00000000
_cell_angle_gamma   90.00000000
_symmetry_Int_Tables_number   1
_chemical_formula_structural   CaMg2
_chemical_formula_sum   'Ca20 Mg40'
_cell_volume   2718.52332615
_cell_formula_units_Z   20
loop_
 _symmetry_equiv_pos_site_id
 _symmetry_equiv_pos_as_xyz
  1  'x, y, z'
loop_
 _atom_site_type_symbol
 _atom_site_label
 _atom_site_symmetry_multiplicity
 _atom_site_fract_x
 _atom_site_fract_y
 _atom_site_fract_z
 _atom_site_occupancy
  Ca  Ca0  1  0.25000000  0.94020900  0.20833300  1
  Ca  Ca1  1  0.25000000  0.44020900  0.29166700  1
  Ca  Ca2  1  0.25000000  0.05979100  0.29166700  1
  Ca  Ca3  1  0.25000000  0.55979100  0.20833300  1
  Ca  Ca4  1  0.75000000  0.94020900  0.33333300  1
  Ca  Ca5  1  0.75000000  0.44020900  0.41666700  1
  Ca  Ca6  1  0.75000000  0.05979100  0.41666700  1
  Ca  Ca7  1  0.75000000  0.55979100  0.33333300  1
  Ca  Ca8  1  0.25000000  0.94020900  0.45833300  1
  Ca  Ca9  1  0.25000000  0.44020900  0.54166700  1
  Ca  Ca10  1  0.25000000  0.05979100  0.54166700  1
  Ca  Ca11  1  0.25000000  0.55979100  0.45833300  1
  Ca  Ca12  1  0.75000000  0.94020900  0.58333300  1
  Ca  Ca13  1  0.75000000  0.44020900  0.66666700  1
  Ca  Ca14  1  0.75000000  0.05979100  0.66666700  1
  Ca  Ca15  1  0.75000000  0.55979100  0.58333300  1
  Ca  Ca16  1  0.25000000  0.94020900  0.70833300  1
  Ca  Ca17  1  0.25000000  0.44020900  0.79166700  1
  Ca  Ca18  1  0.25000000  0.05979100  0.79166700  1
  Ca  Ca19  1  0.25000000  0.55979100  0.70833300  1
  Mg  Mg20  1  0.75000000  0.25000000  0.29216200  1
  Mg  Mg21  1  0.00297400  0.75000000  0.27108100  1
  Mg  Mg22  1  0.49702600  0.75000000  0.27108100  1
  Mg  Mg23  1  0.00297400  0.25000000  0.22891900  1
  Mg  Mg24  1  0.75000000  0.50000000  0.25000000  1
  Mg  Mg25  1  0.75000000  0.00000000  0.25000000  1
  Mg  Mg26  1  0.75000000  0.75000000  0.20783800  1
  Mg  Mg27  1  0.49702600  0.25000000  0.22891900  1
  Mg  Mg28  1  0.25000000  0.25000000  0.41716200  1
  Mg  Mg29  1  0.50297400  0.75000000  0.39608100  1
  Mg  Mg30  1  0.99702600  0.75000000  0.39608100  1
  Mg  Mg31  1  0.50297400  0.25000000  0.35391900  1
  Mg  Mg32  1  0.25000000  0.50000000  0.37500000  1
  Mg  Mg33  1  0.25000000  0.00000000  0.37500000  1
  Mg  Mg34  1  0.25000000  0.75000000  0.33283800  1
  Mg  Mg35  1  0.99702600  0.25000000  0.35391900  1
  Mg  Mg36  1  0.75000000  0.25000000  0.54216200  1
  Mg  Mg37  1  0.00297400  0.75000000  0.52108100  1
  Mg  Mg38  1  0.49702600  0.75000000  0.52108100  1
  Mg  Mg39  1  0.00297400  0.25000000  0.47891900  1
  Mg  Mg40  1  0.75000000  0.50000000  0.50000000  1
  Mg  Mg41  1  0.75000000  0.00000000  0.50000000  1
  Mg  Mg42  1  0.75000000  0.75000000  0.45783800  1
  Mg  Mg43  1  0.49702600  0.25000000  0.47891900  1
  Mg  Mg44  1  0.25000000  0.25000000  0.66716200  1
  Mg  Mg45  1  0.50297400  0.75000000  0.64608100  1
  Mg  Mg46  1  0.99702600  0.75000000  0.64608100  1
  Mg  Mg47  1  0.50297400  0.25000000  0.60391900  1
  Mg  Mg48  1  0.25000000  0.50000000  0.62500000  1
  Mg  Mg49  1  0.25000000  0.00000000  0.62500000  1
  Mg  Mg50  1  0.25000000  0.75000000  0.58283800  1
  Mg  Mg51  1  0.99702600  0.25000000  0.60391900  1
  Mg  Mg52  1  0.75000000  0.25000000  0.79216200  1
  Mg  Mg53  1  0.00297400  0.75000000  0.77108100  1
  Mg  Mg54  1  0.49702600  0.75000000  0.77108100  1
  Mg  Mg55  1  0.00297400  0.25000000  0.72891900  1
  Mg  Mg56  1  0.75000000  0.50000000  0.75000000  1
  Mg  Mg57  1  0.75000000  0.00000000  0.75000000  1
  Mg  Mg58  1  0.75000000  0.75000000  0.70783800  1
  Mg  Mg59  1  0.49702600  0.25000000  0.72891900  1
