# generated using pymatgen
data_Mg12Pd41
_symmetry_space_group_name_H-M   'P 1'
_cell_length_a   3.99223937
_cell_length_b   8.37818128
_cell_length_c   42.70095100
_cell_angle_alpha   85.92323921
_cell_angle_beta   87.32064953
_cell_angle_gamma   76.21659808
_symmetry_Int_Tables_number   1
_chemical_formula_structural   Mg12Pd41
_chemical_formula_sum   'Mg12 Pd41'
_cell_volume   1382.95503653
_cell_formula_units_Z   1
loop_
 _symmetry_equiv_pos_site_id
 _symmetry_equiv_pos_as_xyz
  1  'x, y, z'
loop_
 _atom_site_type_symbol
 _atom_site_label
 _atom_site_symmetry_multiplicity
 _atom_site_fract_x
 _atom_site_fract_y
 _atom_site_fract_z
 _atom_site_occupancy
  Mg  Mg0  1  0.18638500  0.87166500  0.75556400  1
  Mg  Mg1  1  0.96146000  0.34400900  0.73307200  1
  Mg  Mg2  1  0.27729400  0.78075600  0.66465500  1
  Mg  Mg3  1  0.05236900  0.25310000  0.64216300  1
  Mg  Mg4  1  0.36820300  0.68984700  0.57374600  1
  Mg  Mg5  1  0.14327800  0.16219100  0.55125400  1
  Mg  Mg6  1  0.45911200  0.59893800  0.48283700  1
  Mg  Mg7  1  0.23418700  0.07128200  0.46034500  1
  Mg  Mg8  1  0.55002100  0.50802900  0.39192800  1
  Mg  Mg9  1  0.32509600  0.98037300  0.36943600  1
  Mg  Mg10  1  0.64093100  0.41712000  0.30101900  1
  Mg  Mg11  1  0.41600500  0.88946300  0.27852600  1
  Pd  Pd12  1  0.57392200  0.10783700  0.74431800  1
  Pd  Pd13  1  0.02846800  0.15329200  0.78977300  1
  Pd  Pd14  1  0.80119500  0.63056400  0.76704500  1
  Pd  Pd15  1  0.25574000  0.67601900  0.81250000  1
  Pd  Pd16  1  0.41504700  0.39147600  0.77843100  1
  Pd  Pd17  1  0.64188900  0.91510800  0.80111500  1
  Pd  Pd18  1  0.66483100  0.01692800  0.65340900  1
  Pd  Pd19  1  0.11937700  0.06238300  0.69886400  1
  Pd  Pd20  1  0.89210400  0.53965500  0.67613600  1
  Pd  Pd21  1  0.34665000  0.58511000  0.72159100  1
  Pd  Pd22  1  0.50595600  0.30056700  0.68752200  1
  Pd  Pd23  1  0.73279800  0.82419900  0.71020600  1
  Pd  Pd24  1  0.75574000  0.92601900  0.56250000  1
  Pd  Pd25  1  0.21028600  0.97147400  0.60795500  1
  Pd  Pd26  1  0.98301300  0.44874600  0.58522700  1
  Pd  Pd27  1  0.43755900  0.49420100  0.63068200  1
  Pd  Pd28  1  0.59686500  0.20965700  0.59661200  1
  Pd  Pd29  1  0.82370700  0.73329000  0.61929700  1
  Pd  Pd30  1  0.84665000  0.83511000  0.47159100  1
  Pd  Pd31  1  0.30119500  0.88056400  0.51704500  1
  Pd  Pd32  1  0.07392200  0.35783700  0.49431800  1
  Pd  Pd33  1  0.52846800  0.40329200  0.53977300  1
  Pd  Pd34  1  0.68777400  0.11874800  0.50570300  1
  Pd  Pd35  1  0.91461600  0.64238100  0.52838800  1
  Pd  Pd36  1  0.93755900  0.74420100  0.38068200  1
  Pd  Pd37  1  0.39210400  0.78965500  0.42613600  1
  Pd  Pd38  1  0.16483100  0.26692800  0.40340900  1
  Pd  Pd39  1  0.61937700  0.31238300  0.44886400  1
  Pd  Pd40  1  0.77868300  0.02783900  0.41479400  1
  Pd  Pd41  1  0.00552500  0.55147100  0.43747800  1
  Pd  Pd42  1  0.02846800  0.65329200  0.28977300  1
  Pd  Pd43  1  0.48301300  0.69874600  0.33522700  1
  Pd  Pd44  1  0.25574000  0.17601900  0.31250000  1
  Pd  Pd45  1  0.71028600  0.22147400  0.35795500  1
  Pd  Pd46  1  0.86959200  0.93693000  0.32388500  1
  Pd  Pd47  1  0.09643400  0.46056200  0.34656900  1
  Pd  Pd48  1  0.57392200  0.60783700  0.24431800  1
  Pd  Pd49  1  0.34665000  0.08511000  0.22159100  1
  Pd  Pd50  1  0.80119500  0.13056400  0.26704500  1
  Pd  Pd51  1  0.96050100  0.84602100  0.23297600  1
  Pd  Pd52  1  0.18734300  0.36965300  0.25566000  1
