# generated using pymatgen
data_Ba2Mg19
_symmetry_space_group_name_H-M   'P 1'
_cell_length_a   8.04420318
_cell_length_b   8.04420367
_cell_length_c   47.60074400
_cell_angle_alpha   86.88333695
_cell_angle_beta   86.88333676
_cell_angle_gamma   82.20349510
_symmetry_Int_Tables_number   1
_chemical_formula_structural   Ba2Mg19
_chemical_formula_sum   'Ba6 Mg57'
_cell_volume   3043.77964963
_cell_formula_units_Z   3
loop_
 _symmetry_equiv_pos_site_id
 _symmetry_equiv_pos_as_xyz
  1  'x, y, z'
loop_
 _atom_site_type_symbol
 _atom_site_label
 _atom_site_symmetry_multiplicity
 _atom_site_fract_x
 _atom_site_fract_y
 _atom_site_fract_z
 _atom_site_occupancy
  Ba  Ba0  1  0.70014700  0.82331000  0.63682100  1
  Ba  Ba1  1  0.08055500  0.20371900  0.58247700  1
  Ba  Ba2  1  0.86681300  0.98997700  0.47015400  1
  Ba  Ba3  1  0.24722200  0.37038500  0.41581000  1
  Ba  Ba4  1  0.03348000  0.15664400  0.30348800  1
  Ba  Ba5  1  0.41388800  0.53705200  0.24914400  1
  Mg  Mg6  1  0.41993500  0.54309900  0.67685100  1
  Mg  Mg7  1  0.19410000  0.31726400  0.70911400  1
  Mg  Mg8  1  0.59954600  0.13765300  0.69298200  1
  Mg  Mg9  1  0.80701800  0.43018100  0.69298200  1
  Mg  Mg10  1  0.01448900  0.72270900  0.69298200  1
  Mg  Mg11  1  0.30701800  0.93018100  0.69298200  1
  Mg  Mg12  1  0.35577200  0.18640800  0.64422800  1
  Mg  Mg13  1  0.79351300  0.91667700  0.55123900  1
  Mg  Mg14  1  0.07147300  0.68893000  0.58377500  1
  Mg  Mg15  1  0.58660200  0.70976500  0.51018500  1
  Mg  Mg16  1  0.06324400  0.47893600  0.64422800  1
  Mg  Mg17  1  0.42493000  0.84062100  0.57507000  1
  Mg  Mg18  1  0.21493600  0.83239300  0.63552400  1
  Mg  Mg19  1  0.36076700  0.48393000  0.54244700  1
  Mg  Mg20  1  0.76621200  0.30432000  0.52631600  1
  Mg  Mg21  1  0.97368400  0.59684800  0.52631600  1
  Mg  Mg22  1  0.71745800  0.54809300  0.57507000  1
  Mg  Mg23  1  0.70922900  0.33809900  0.63552400  1
  Mg  Mg24  1  0.98718800  0.11035200  0.66805900  1
  Mg  Mg25  1  0.56576600  0.19463600  0.58377500  1
  Mg  Mg26  1  0.39035100  0.51351400  0.60964900  1
  Mg  Mg27  1  0.18115600  0.88937600  0.52631600  1
  Mg  Mg28  1  0.47368400  0.09684800  0.52631600  1
  Mg  Mg29  1  0.52243900  0.35307400  0.47756100  1
  Mg  Mg30  1  0.96018000  0.08334400  0.38457300  1
  Mg  Mg31  1  0.23813900  0.85559600  0.41710800  1
  Mg  Mg32  1  0.75326800  0.87643200  0.34351800  1
  Mg  Mg33  1  0.22991100  0.64560200  0.47756100  1
  Mg  Mg34  1  0.59159600  0.00728800  0.40840400  1
  Mg  Mg35  1  0.38160200  0.99905900  0.46885700  1
  Mg  Mg36  1  0.52743300  0.65059700  0.37578000  1
  Mg  Mg37  1  0.93287900  0.47098600  0.35964900  1
  Mg  Mg38  1  0.14035100  0.76351400  0.35964900  1
  Mg  Mg39  1  0.88412400  0.71476000  0.40840400  1
  Mg  Mg40  1  0.87589600  0.50476600  0.46885700  1
  Mg  Mg41  1  0.15385500  0.27701900  0.50139200  1
  Mg  Mg42  1  0.73243300  0.36130300  0.41710800  1
  Mg  Mg43  1  0.55701800  0.68018100  0.44298200  1
  Mg  Mg44  1  0.34782300  0.05604300  0.35964900  1
  Mg  Mg45  1  0.64035100  0.26351400  0.35964900  1
  Mg  Mg46  1  0.68910600  0.51974100  0.31089400  1
  Mg  Mg47  1  0.12684700  0.25001000  0.21790600  1
  Mg  Mg48  1  0.40480600  0.02226300  0.25044100  1
  Mg  Mg49  1  0.91993500  0.04309900  0.17685100  1
  Mg  Mg50  1  0.39657700  0.81226900  0.31089400  1
  Mg  Mg51  1  0.75826300  0.17395500  0.24173700  1
  Mg  Mg52  1  0.54826900  0.16572600  0.30219000  1
  Mg  Mg53  1  0.69410000  0.81726400  0.20911400  1
  Mg  Mg54  1  0.09954600  0.63765300  0.19298200  1
  Mg  Mg55  1  0.30701800  0.93018100  0.19298200  1
  Mg  Mg56  1  0.05079100  0.88142600  0.24173700  1
  Mg  Mg57  1  0.04256200  0.67143300  0.30219000  1
  Mg  Mg58  1  0.32052200  0.44368500  0.33472600  1
  Mg  Mg59  1  0.89910000  0.52797000  0.25044100  1
  Mg  Mg60  1  0.72368400  0.84684800  0.27631600  1
  Mg  Mg61  1  0.51448900  0.22270900  0.19298200  1
  Mg  Mg62  1  0.80701800  0.43018100  0.19298200  1
