# generated using pymatgen
data_Ba16Mg37
_symmetry_space_group_name_H-M   'P 1'
_cell_length_a   6.58888000
_cell_length_b   12.70238114
_cell_length_c   40.54514400
_cell_angle_alpha   85.48813798
_cell_angle_beta   90.00000000
_cell_angle_gamma   74.96814132
_symmetry_Int_Tables_number   1
_chemical_formula_structural   Ba16Mg37
_chemical_formula_sum   'Ba16 Mg37'
_cell_volume   3266.39809970
_cell_formula_units_Z   1
loop_
 _symmetry_equiv_pos_site_id
 _symmetry_equiv_pos_as_xyz
  1  'x, y, z'
loop_
 _atom_site_type_symbol
 _atom_site_label
 _atom_site_symmetry_multiplicity
 _atom_site_fract_x
 _atom_site_fract_y
 _atom_site_fract_z
 _atom_site_occupancy
  Ba  Ba0  1  0.78859800  0.57850600  0.36250000  1
  Ba  Ba1  1  0.05943100  0.03683900  0.38333300  1
  Ba  Ba2  1  0.20317800  0.74934500  0.33541700  1
  Ba  Ba3  1  0.93234500  0.29101200  0.31458400  1
  Ba  Ba4  1  0.41359800  0.32850600  0.48750000  1
  Ba  Ba5  1  0.68443100  0.78683900  0.50833300  1
  Ba  Ba6  1  0.82817800  0.49934500  0.46041700  1
  Ba  Ba7  1  0.55734500  0.04101200  0.43958400  1
  Ba  Ba8  1  0.03859800  0.07850600  0.61250000  1
  Ba  Ba9  1  0.30943100  0.53683900  0.63333300  1
  Ba  Ba10  1  0.45317800  0.24934500  0.58541700  1
  Ba  Ba11  1  0.18234500  0.79101200  0.56458400  1
  Ba  Ba12  1  0.66359800  0.82850600  0.73750000  1
  Ba  Ba13  1  0.93443100  0.28683900  0.75833300  1
  Ba  Ba14  1  0.07817800  0.99934500  0.71041700  1
  Ba  Ba15  1  0.80734500  0.54101200  0.68958400  1
  Mg  Mg16  1  0.04298800  0.56052600  0.27565800  1
  Mg  Mg17  1  0.55218800  0.56052600  0.27565800  1
  Mg  Mg18  1  0.81458800  0.01732500  0.29725800  1
  Mg  Mg19  1  0.68338800  0.78892600  0.28645800  1
  Mg  Mg20  1  0.32378900  0.01732500  0.29725800  1
  Mg  Mg21  1  0.63053800  0.89462600  0.35860800  1
  Mg  Mg22  1  0.66798800  0.31052600  0.40065800  1
  Mg  Mg23  1  0.17718800  0.31052600  0.40065800  1
  Mg  Mg24  1  0.43958800  0.76732500  0.42225800  1
  Mg  Mg25  1  0.49588800  0.16392600  0.34895800  1
  Mg  Mg26  1  0.30838800  0.53892600  0.41145800  1
  Mg  Mg27  1  0.36123800  0.43322500  0.33930800  1
  Mg  Mg28  1  0.94878900  0.76732500  0.42225800  1
  Mg  Mg29  1  0.25553800  0.64462600  0.48360800  1
  Mg  Mg30  1  0.29298800  0.06052600  0.52565800  1
  Mg  Mg31  1  0.80218800  0.06052600  0.52565800  1
  Mg  Mg32  1  0.06458800  0.51732500  0.54725800  1
  Mg  Mg33  1  0.12088800  0.91392600  0.47395800  1
  Mg  Mg34  1  0.93338800  0.28892600  0.53645800  1
  Mg  Mg35  1  0.98623800  0.18322500  0.46430800  1
  Mg  Mg36  1  0.57378900  0.51732500  0.54725800  1
  Mg  Mg37  1  0.88053800  0.39462600  0.60860800  1
  Mg  Mg38  1  0.91798800  0.81052600  0.65065800  1
  Mg  Mg39  1  0.42718800  0.81052600  0.65065800  1
  Mg  Mg40  1  0.68958800  0.26732500  0.67225800  1
  Mg  Mg41  1  0.74588800  0.66392600  0.59895800  1
  Mg  Mg42  1  0.55838800  0.03892600  0.66145800  1
  Mg  Mg43  1  0.61123800  0.93322500  0.58930800  1
  Mg  Mg44  1  0.19878900  0.26732500  0.67225800  1
  Mg  Mg45  1  0.50553800  0.14462600  0.73360800  1
  Mg  Mg46  1  0.54298800  0.56052600  0.77565800  1
  Mg  Mg47  1  0.05218800  0.56052600  0.77565800  1
  Mg  Mg48  1  0.31458800  0.01732500  0.79725800  1
  Mg  Mg49  1  0.37088800  0.41392600  0.72395800  1
  Mg  Mg50  1  0.18338800  0.78892600  0.78645800  1
  Mg  Mg51  1  0.23623800  0.68322500  0.71430800  1
  Mg  Mg52  1  0.82378900  0.01732500  0.79725800  1
