# generated using pymatgen
data_Yb2Mg
_symmetry_space_group_name_H-M   'P 1'
_cell_length_a   3.76282700
_cell_length_b   19.46963027
_cell_length_c   45.10541200
_cell_angle_alpha   96.74616046
_cell_angle_beta   90.00000000
_cell_angle_gamma   90.00000000
_symmetry_Int_Tables_number   1
_chemical_formula_structural   Yb2Mg
_chemical_formula_sum   'Yb40 Mg20'
_cell_volume   3281.58185130
_cell_formula_units_Z   20
loop_
 _symmetry_equiv_pos_site_id
 _symmetry_equiv_pos_as_xyz
  1  'x, y, z'
loop_
 _atom_site_type_symbol
 _atom_site_label
 _atom_site_symmetry_multiplicity
 _atom_site_fract_x
 _atom_site_fract_y
 _atom_site_fract_z
 _atom_site_occupancy
  Yb  Yb0  1  0.50000000  0.95048200  0.23028800  1
  Yb  Yb1  1  0.00000000  0.78331900  0.25416900  1
  Yb  Yb2  1  0.00000000  0.61201800  0.20721200  1
  Yb  Yb3  1  0.50000000  0.90418100  0.30833100  1
  Yb  Yb4  1  0.00000000  0.51298200  0.29278800  1
  Yb  Yb5  1  0.50000000  0.22081900  0.19166900  1
  Yb  Yb6  1  0.50000000  0.17451800  0.26971200  1
  Yb  Yb7  1  1.00000000  0.34168100  0.24583100  1
  Yb  Yb8  1  0.50000000  0.07548200  0.35528800  1
  Yb  Yb9  1  0.00000000  0.90831900  0.37916900  1
  Yb  Yb10  1  0.00000000  0.73701800  0.33221200  1
  Yb  Yb11  1  0.50000000  0.02918100  0.43333100  1
  Yb  Yb12  1  0.00000000  0.63798200  0.41778800  1
  Yb  Yb13  1  0.50000000  0.34581900  0.31666900  1
  Yb  Yb14  1  0.50000000  0.29951800  0.39471200  1
  Yb  Yb15  1  0.00000000  0.46668100  0.37083100  1
  Yb  Yb16  1  0.50000000  0.20048200  0.48028800  1
  Yb  Yb17  1  0.00000000  0.03331900  0.50416900  1
  Yb  Yb18  1  0.00000000  0.86201800  0.45721200  1
  Yb  Yb19  1  0.50000000  0.15418100  0.55833100  1
  Yb  Yb20  1  0.00000000  0.76298200  0.54278800  1
  Yb  Yb21  1  0.50000000  0.47081900  0.44166900  1
  Yb  Yb22  1  0.50000000  0.42451800  0.51971200  1
  Yb  Yb23  1  0.00000000  0.59168100  0.49583100  1
  Yb  Yb24  1  0.50000000  0.32548200  0.60528800  1
  Yb  Yb25  1  0.00000000  0.15831900  0.62916900  1
  Yb  Yb26  1  0.00000000  0.98701800  0.58221200  1
  Yb  Yb27  1  0.50000000  0.27918100  0.68333100  1
  Yb  Yb28  1  0.00000000  0.88798200  0.66778800  1
  Yb  Yb29  1  0.50000000  0.59581900  0.56666900  1
  Yb  Yb30  1  0.50000000  0.54951800  0.64471200  1
  Yb  Yb31  1  1.00000000  0.71668100  0.62083100  1
  Yb  Yb32  1  0.50000000  0.45048200  0.73028800  1
  Yb  Yb33  1  0.00000000  0.28331900  0.75416900  1
  Yb  Yb34  1  0.00000000  0.11201800  0.70721200  1
  Yb  Yb35  1  0.50000000  0.40418100  0.80833100  1
  Yb  Yb36  1  0.00000000  0.01298200  0.79278800  1
  Yb  Yb37  1  0.50000000  0.72081900  0.69166900  1
  Yb  Yb38  1  0.50000000  0.67451800  0.76971200  1
  Yb  Yb39  1  0.00000000  0.84168100  0.74583100  1
  Mg  Mg40  1  0.50000000  0.64580600  0.27381300  1
  Mg  Mg41  1  1.00000000  0.04169400  0.28868700  1
  Mg  Mg42  1  1.00000000  0.08330600  0.21131300  1
  Mg  Mg43  1  0.50000000  0.47919400  0.22618700  1
  Mg  Mg44  1  0.50000000  0.77080600  0.39881300  1
  Mg  Mg45  1  0.00000000  0.16669400  0.41368700  1
  Mg  Mg46  1  0.00000000  0.20830600  0.33631300  1
  Mg  Mg47  1  0.50000000  0.60419400  0.35118700  1
  Mg  Mg48  1  0.50000000  0.89580600  0.52381300  1
  Mg  Mg49  1  1.00000000  0.29169400  0.53868700  1
  Mg  Mg50  1  1.00000000  0.33330600  0.46131300  1
  Mg  Mg51  1  0.50000000  0.72919400  0.47618700  1
  Mg  Mg52  1  0.50000000  0.02080600  0.64881300  1
  Mg  Mg53  1  1.00000000  0.41669400  0.66368700  1
  Mg  Mg54  1  0.00000000  0.45830600  0.58631300  1
  Mg  Mg55  1  0.50000000  0.85419400  0.60118700  1
  Mg  Mg56  1  0.50000000  0.14580600  0.77381300  1
  Mg  Mg57  1  0.00000000  0.54169400  0.78868700  1
  Mg  Mg58  1  0.00000000  0.58330600  0.71131300  1
  Mg  Mg59  1  0.50000000  0.97919400  0.72618700  1
