# generated using pymatgen
data_Ho3Mg2
_symmetry_space_group_name_H-M   'P 1'
_cell_length_a   3.67361200
_cell_length_b   5.45155000
_cell_length_c   51.20988400
_cell_angle_alpha   90.00000000
_cell_angle_beta   90.00000000
_cell_angle_gamma   90.00000000
_symmetry_Int_Tables_number   1
_chemical_formula_structural   Ho3Mg2
_chemical_formula_sum   'Ho12 Mg8'
_cell_volume   1025.57417601
_cell_formula_units_Z   4
loop_
 _symmetry_equiv_pos_site_id
 _symmetry_equiv_pos_as_xyz
  1  'x, y, z'
loop_
 _atom_site_type_symbol
 _atom_site_label
 _atom_site_symmetry_multiplicity
 _atom_site_fract_x
 _atom_site_fract_y
 _atom_site_fract_z
 _atom_site_occupancy
  Ho  Ho0  1  0.50000000  0.75000000  0.33654800  1
  Ho  Ho1  1  1.00000000  0.75000000  0.39644500  1
  Ho  Ho2  1  0.00000000  0.25000000  0.44123000  1
  Ho  Ho3  1  0.50000000  0.25000000  0.38133200  1
  Ho  Ho4  1  0.00000000  0.75000000  0.50321500  1
  Ho  Ho5  1  0.50000000  0.75000000  0.56311200  1
  Ho  Ho6  1  0.50000000  0.25000000  0.60789600  1
  Ho  Ho7  1  0.00000000  0.25000000  0.54799900  1
  Ho  Ho8  1  0.50000000  0.75000000  0.66988200  1
  Ho  Ho9  1  0.00000000  0.75000000  0.72977900  1
  Ho  Ho10  1  1.00000000  0.25000000  0.77456300  1
  Ho  Ho11  1  0.50000000  0.25000000  0.71466600  1
  Mg  Mg12  1  0.00000000  0.75000000  0.28349500  1
  Mg  Mg13  1  0.50000000  0.25000000  0.49428300  1
  Mg  Mg14  1  0.50000000  0.75000000  0.45016200  1
  Mg  Mg15  1  0.00000000  0.25000000  0.32761600  1
  Mg  Mg16  1  1.00000000  0.75000000  0.61682800  1
  Mg  Mg17  1  0.50000000  0.25000000  0.82761600  1
  Mg  Mg18  1  0.50000000  0.75000000  0.78349500  1
  Mg  Mg19  1  0.00000000  0.25000000  0.66094900  1
