# generated using pymatgen
data_Mg12Cd23
_symmetry_space_group_name_H-M   'P 1'
_cell_length_a   3.10433600
_cell_length_b   17.22734645
_cell_length_c   49.77638600
_cell_angle_alpha   91.61502969
_cell_angle_beta   90.00000000
_cell_angle_gamma   90.00000000
_symmetry_Int_Tables_number   1
_chemical_formula_structural   Mg12Cd23
_chemical_formula_sum   'Mg24 Cd46'
_cell_volume   2660.95736199
_cell_formula_units_Z   2
loop_
 _symmetry_equiv_pos_site_id
 _symmetry_equiv_pos_as_xyz
  1  'x, y, z'
loop_
 _atom_site_type_symbol
 _atom_site_label
 _atom_site_symmetry_multiplicity
 _atom_site_fract_x
 _atom_site_fract_y
 _atom_site_fract_z
 _atom_site_occupancy
  Mg  Mg0  1  0.00000000  0.96805000  0.27762400  1
  Mg  Mg1  1  0.50000000  0.66527800  0.25571000  1
  Mg  Mg2  1  0.50000000  0.41805000  0.22762400  1
  Mg  Mg3  1  1.00000000  0.11527800  0.20571000  1
  Mg  Mg4  1  0.00000000  0.06805000  0.37762400  1
  Mg  Mg5  1  0.50000000  0.76527800  0.35571000  1
  Mg  Mg6  1  0.50000000  0.51805000  0.32762400  1
  Mg  Mg7  1  0.00000000  0.21527800  0.30571000  1
  Mg  Mg8  1  0.00000000  0.16805000  0.47762400  1
  Mg  Mg9  1  0.50000000  0.86527800  0.45571000  1
  Mg  Mg10  1  0.50000000  0.61805000  0.42762400  1
  Mg  Mg11  1  0.00000000  0.31527800  0.40571000  1
  Mg  Mg12  1  0.00000000  0.26805000  0.57762400  1
  Mg  Mg13  1  0.50000000  0.96527800  0.55571000  1
  Mg  Mg14  1  0.50000000  0.71805000  0.52762400  1
  Mg  Mg15  1  0.00000000  0.41527800  0.50571000  1
  Mg  Mg16  1  0.00000000  0.36805000  0.67762400  1
  Mg  Mg17  1  0.50000000  0.06527800  0.65571000  1
  Mg  Mg18  1  0.50000000  0.81805000  0.62762400  1
  Mg  Mg19  1  1.00000000  0.51527800  0.60571000  1
  Mg  Mg20  1  0.00000000  0.46805000  0.77762400  1
  Mg  Mg21  1  0.50000000  0.16527800  0.75571000  1
  Mg  Mg22  1  0.50000000  0.91805000  0.72762400  1
  Mg  Mg23  1  0.00000000  0.61527800  0.70571000  1
  Cd  Cd24  1  0.00000000  0.56753800  0.21101400  1
  Cd  Cd25  1  0.50000000  0.81800200  0.29429600  1
  Cd  Cd26  1  0.00000000  0.81532600  0.23903800  1
  Cd  Cd27  1  0.50000000  0.96579000  0.22231900  1
  Cd  Cd28  1  0.50000000  0.11753800  0.26101400  1
  Cd  Cd29  1  0.00000000  0.26800200  0.24429600  1
  Cd  Cd30  1  0.50000000  0.36532600  0.28903800  1
  Cd  Cd31  1  0.00000000  0.51579000  0.27231900  1
  Cd  Cd32  1  0.00000000  0.66753800  0.31101400  1
  Cd  Cd33  1  0.50000000  0.91800200  0.39429600  1
  Cd  Cd34  1  0.00000000  0.91532600  0.33903800  1
  Cd  Cd35  1  0.50000000  0.06579000  0.32231900  1
  Cd  Cd36  1  0.50000000  0.21753800  0.36101400  1
  Cd  Cd37  1  1.00000000  0.36800200  0.34429600  1
  Cd  Cd38  1  0.50000000  0.46532600  0.38903800  1
  Cd  Cd39  1  0.00000000  0.61579000  0.37231900  1
  Cd  Cd40  1  0.00000000  0.76753800  0.41101400  1
  Cd  Cd41  1  0.50000000  0.01800200  0.49429600  1
  Cd  Cd42  1  0.00000000  0.01532600  0.43903800  1
  Cd  Cd43  1  0.50000000  0.16579000  0.42231900  1
  Cd  Cd44  1  0.50000000  0.31753800  0.46101400  1
  Cd  Cd45  1  0.00000000  0.46800200  0.44429600  1
  Cd  Cd46  1  0.50000000  0.56532600  0.48903800  1
  Cd  Cd47  1  0.00000000  0.71579000  0.47231900  1
  Cd  Cd48  1  0.00000000  0.86753800  0.51101400  1
  Cd  Cd49  1  0.50000000  0.11800200  0.59429600  1
  Cd  Cd50  1  1.00000000  0.11532600  0.53903800  1
  Cd  Cd51  1  0.50000000  0.26579000  0.52231900  1
  Cd  Cd52  1  0.50000000  0.41753800  0.56101400  1
  Cd  Cd53  1  1.00000000  0.56800200  0.54429600  1
  Cd  Cd54  1  0.50000000  0.66532600  0.58903800  1
  Cd  Cd55  1  0.00000000  0.81579000  0.57231900  1
  Cd  Cd56  1  1.00000000  0.96753800  0.61101400  1
  Cd  Cd57  1  0.50000000  0.21800200  0.69429600  1
  Cd  Cd58  1  1.00000000  0.21532600  0.63903800  1
  Cd  Cd59  1  0.50000000  0.36579000  0.62231900  1
  Cd  Cd60  1  0.50000000  0.51753800  0.66101400  1
  Cd  Cd61  1  1.00000000  0.66800200  0.64429600  1
  Cd  Cd62  1  0.50000000  0.76532600  0.68903800  1
  Cd  Cd63  1  0.00000000  0.91579000  0.67231900  1
  Cd  Cd64  1  1.00000000  0.06753800  0.71101400  1
  Cd  Cd65  1  0.00000000  0.31532600  0.73903800  1
  Cd  Cd66  1  0.50000000  0.46579000  0.72231900  1
  Cd  Cd67  1  0.50000000  0.61753800  0.76101400  1
  Cd  Cd68  1  0.00000000  0.76800200  0.74429600  1
  Cd  Cd69  1  0.00000000  0.01579000  0.77231900  1
