# generated using pymatgen
data_Mg38Zn59
_symmetry_space_group_name_H-M   'P 1'
_cell_length_a   5.07402260
_cell_length_b   13.26606241
_cell_length_c   57.00757700
_cell_angle_alpha   92.18610401
_cell_angle_beta   87.66012493
_cell_angle_gamma   100.62858194
_symmetry_Int_Tables_number   1
_chemical_formula_structural   Mg38Zn59
_chemical_formula_sum   'Mg38 Zn59'
_cell_volume   3766.49990850
_cell_formula_units_Z   1
loop_
 _symmetry_equiv_pos_site_id
 _symmetry_equiv_pos_as_xyz
  1  'x, y, z'
loop_
 _atom_site_type_symbol
 _atom_site_label
 _atom_site_symmetry_multiplicity
 _atom_site_fract_x
 _atom_site_fract_y
 _atom_site_fract_z
 _atom_site_occupancy
  Mg  Mg0  1  0.25154100  0.62474500  0.37950100  1
  Mg  Mg1  1  0.46104100  0.99157200  0.33290200  1
  Mg  Mg2  1  0.56296500  0.37239400  0.49262500  1
  Mg  Mg3  1  0.80143400  0.74546300  0.39365000  1
  Mg  Mg4  1  0.93407200  0.91947500  0.30508400  1
  Mg  Mg5  1  0.12695100  0.41543300  0.41155900  1
  Mg  Mg6  1  0.89995500  0.95592600  0.41544100  1
  Mg  Mg7  1  0.25415000  0.57501200  0.32359200  1
  Mg  Mg8  1  0.76731700  0.78191400  0.50400700  1
  Mg  Mg9  1  0.13842400  0.32899400  0.31646600  1
  Mg  Mg10  1  0.44723900  0.12637700  0.48549900  1
  Mg  Mg11  1  0.38267200  0.88807500  0.38077300  1
  Mg  Mg12  1  0.12900300  0.46949800  0.46733800  1
  Mg  Mg13  1  0.57238600  0.23189000  0.34175300  1
  Mg  Mg14  1  0.44984800  0.07664400  0.42959000  1
  Mg  Mg15  1  0.57443800  0.28595600  0.39753200  1
  Mg  Mg16  1  0.24034800  0.70981600  0.47618900  1
  Mg  Mg17  1  0.31871700  0.81331300  0.42831800  1
  Mg  Mg18  1  0.00154100  0.37474500  0.62950100  1
  Mg  Mg19  1  0.21104100  0.74157200  0.58290200  1
  Mg  Mg20  1  0.31296500  0.12239400  0.74262500  1
  Mg  Mg21  1  0.55143400  0.49546300  0.64365000  1
  Mg  Mg22  1  0.68407200  0.66947500  0.55508400  1
  Mg  Mg23  1  0.87695100  0.16543300  0.66155900  1
  Mg  Mg24  1  0.56746000  0.42509400  0.54868200  1
  Mg  Mg25  1  0.64995500  0.70592600  0.66544100  1
  Mg  Mg26  1  0.00415000  0.32501200  0.57359200  1
  Mg  Mg27  1  0.51731700  0.53191400  0.75400700  1
  Mg  Mg28  1  0.88842400  0.07899400  0.56646600  1
  Mg  Mg29  1  0.19723900  0.87637700  0.73549900  1
  Mg  Mg30  1  0.13267200  0.63807500  0.63077300  1
  Mg  Mg31  1  0.87900300  0.21949800  0.71733800  1
  Mg  Mg32  1  0.32238600  0.98189000  0.59175300  1
  Mg  Mg33  1  0.88392900  0.02629500  0.51040900  1
  Mg  Mg34  1  0.19984800  0.82664400  0.67959000  1
  Mg  Mg35  1  0.32443800  0.03595600  0.64753200  1
  Mg  Mg36  1  0.99034800  0.45981600  0.72618900  1
  Mg  Mg37  1  0.06871700  0.56331300  0.67831800  1
  Zn  Zn38  1  0.91495600  0.93210500  0.35889200  1
  Zn  Zn39  1  0.68826300  0.44857000  0.32025900  1
  Zn  Zn40  1  0.11159000  0.93334800  0.46662300  1
  Zn  Zn41  1  0.09571000  0.77243800  0.34216300  1
  Zn  Zn42  1  0.07164500  0.25993500  0.37027200  1
  Zn  Zn43  1  0.91342100  0.42544900  0.36066500  1
  Zn  Zn44  1  0.69017700  0.51870800  0.39534500  1
  Zn  Zn45  1  0.68268900  0.59260700  0.47145100  1
  Zn  Zn46  1  0.78643300  0.76928400  0.45019900  1
  Zn  Zn47  1  0.62974300  0.44145400  0.43881900  1
  Zn  Zn48  1  0.46077600  0.61407700  0.42946000  1
  Zn  Zn49  1  0.60567900  0.92895100  0.46692800  1
  Zn  Zn50  1  0.24061300  0.08731200  0.37963100  1
  Zn  Zn51  1  0.75867300  0.60168500  0.35068000  1
  Zn  Zn52  1  0.40847400  0.42381200  0.36079600  1
  Zn  Zn53  1  0.97595000  0.61717300  0.42900500  1
  Zn  Zn54  1  0.94271600  0.09970400  0.45841100  1
  Zn  Zn55  1  0.72543800  0.08421600  0.38008600  1
  Zn  Zn56  1  0.01869900  0.10878100  0.33764000  1
  Zn  Zn57  1  0.29291500  0.27757700  0.44829500  1
  Zn  Zn58  1  0.58979900  0.76804000  0.34246800  1
  Zn  Zn59  1  0.78796800  0.27594000  0.44842600  1
  Zn  Zn60  1  0.01121200  0.18268100  0.41374600  1
  Zn  Zn61  1  0.01312600  0.25281900  0.48883200  1
  Zn  Zn62  1  0.13132600  0.55182700  0.55261800  1
  Zn  Zn63  1  0.66495600  0.68210500  0.60889200  1
  Zn  Zn64  1  0.43826300  0.19857000  0.57025900  1
  Zn  Zn65  1  0.86159000  0.68334800  0.71662300  1
  Zn  Zn66  1  0.55062900  0.88506900  0.54873600  1
  Zn  Zn67  1  0.84571000  0.52243800  0.59216300  1
  Zn  Zn68  1  0.72569400  0.22569400  0.52954500  1
  Zn  Zn69  1  0.32006300  0.89956200  0.50647300  1
  Zn  Zn70  1  0.82164500  0.00993500  0.62027200  1
  Zn  Zn71  1  0.40701000  0.56597200  0.51032600  1
  Zn  Zn72  1  0.66342100  0.17544900  0.61066500  1
  Zn  Zn73  1  0.44017700  0.26870800  0.64534500  1
  Zn  Zn74  1  0.06515000  0.39703600  0.52114500  1
  Zn  Zn75  1  0.43268900  0.34260700  0.72145100  1
  Zn  Zn76  1  0.53643300  0.51928400  0.70019900  1
  Zn  Zn77  1  0.37974300  0.19145400  0.68881900  1
  Zn  Zn78  1  0.21077600  0.36407700  0.67946000  1
  Zn  Zn79  1  0.04437900  0.88541700  0.54876500  1
  Zn  Zn80  1  0.35567900  0.67895100  0.71692800  1
  Zn  Zn81  1  0.38623900  0.05435300  0.53794600  1
  Zn  Zn82  1  0.99061300  0.83731200  0.62963100  1
  Zn  Zn83  1  0.90076000  0.56632000  0.51035400  1
  Zn  Zn84  1  0.22569400  0.22569400  0.52954500  1
  Zn  Zn85  1  0.50867300  0.35168500  0.60068000  1
  Zn  Zn86  1  0.15847400  0.17381200  0.61079600  1
  Zn  Zn87  1  0.72595000  0.36717300  0.67900500  1
  Zn  Zn88  1  0.69271600  0.84970400  0.70841100  1
  Zn  Zn89  1  0.47543800  0.83421600  0.63008600  1
  Zn  Zn90  1  0.76869900  0.85878100  0.58764000  1
  Zn  Zn91  1  0.04291500  0.02757700  0.69829500  1
  Zn  Zn92  1  0.33979900  0.51804000  0.59246800  1
  Zn  Zn93  1  0.22569400  0.72569400  0.52954500  1
  Zn  Zn94  1  0.53796800  0.02594000  0.69842600  1
  Zn  Zn95  1  0.76121200  0.93268100  0.66374600  1
  Zn  Zn96  1  0.76312600  0.00281900  0.73883200  1
