# generated using pymatgen
data_MgGa2
_symmetry_space_group_name_H-M   'P 1'
_cell_length_a   4.34920200
_cell_length_b   4.34920164
_cell_length_c   49.87336100
_cell_angle_alpha   90.00000000
_cell_angle_beta   90.00000000
_cell_angle_gamma   120.00000275
_symmetry_Int_Tables_number   1
_chemical_formula_structural   MgGa2
_chemical_formula_sum   'Mg8 Ga16'
_cell_volume   816.99308036
_cell_formula_units_Z   8
loop_
 _symmetry_equiv_pos_site_id
 _symmetry_equiv_pos_as_xyz
  1  'x, y, z'
loop_
 _atom_site_type_symbol
 _atom_site_label
 _atom_site_symmetry_multiplicity
 _atom_site_fract_x
 _atom_site_fract_y
 _atom_site_fract_z
 _atom_site_occupancy
  Mg  Mg0  1  0.00000000  0.00000000  0.25000000  1
  Mg  Mg1  1  0.00000000  0.00000000  0.32142900  1
  Mg  Mg2  1  0.00000000  0.00000000  0.39285700  1
  Mg  Mg3  1  0.00000000  0.00000000  0.46428600  1
  Mg  Mg4  1  0.00000000  0.00000000  0.53571400  1
  Mg  Mg5  1  0.00000000  0.00000000  0.60714300  1
  Mg  Mg6  1  0.00000000  0.00000000  0.67857100  1
  Mg  Mg7  1  0.00000000  0.00000000  0.75000000  1
  Ga  Ga8  1  0.33333300  0.66666700  0.22175300  1
  Ga  Ga9  1  0.66666700  0.33333300  0.29318100  1
  Ga  Ga10  1  0.33333300  0.66666700  0.27824700  1
  Ga  Ga11  1  0.66666700  0.33333300  0.34967600  1
  Ga  Ga12  1  0.33333300  0.66666700  0.36461000  1
  Ga  Ga13  1  0.66666700  0.33333300  0.43603800  1
  Ga  Ga14  1  0.33333300  0.66666700  0.42110500  1
  Ga  Ga15  1  0.66666700  0.33333300  0.49253300  1
  Ga  Ga16  1  0.33333300  0.66666700  0.50746700  1
  Ga  Ga17  1  0.66666700  0.33333300  0.57889500  1
  Ga  Ga18  1  0.33333300  0.66666700  0.56396200  1
  Ga  Ga19  1  0.66666700  0.33333300  0.63539000  1
  Ga  Ga20  1  0.33333300  0.66666700  0.65032400  1
  Ga  Ga21  1  0.66666700  0.33333300  0.72175300  1
  Ga  Ga22  1  0.33333300  0.66666700  0.70681900  1
  Ga  Ga23  1  0.66666700  0.33333300  0.77824700  1
