# generated using pymatgen
data_Mg2Zn11
_symmetry_space_group_name_H-M   'P 1'
_cell_length_a   8.56229400
_cell_length_b   8.56229400
_cell_length_c   42.81146900
_cell_angle_alpha   90.00000000
_cell_angle_beta   90.00000000
_cell_angle_gamma   90.00000000
_symmetry_Int_Tables_number   1
_chemical_formula_structural   Mg2Zn11
_chemical_formula_sum   'Mg16 Zn88'
_cell_volume   3138.63202702
_cell_formula_units_Z   8
loop_
 _symmetry_equiv_pos_site_id
 _symmetry_equiv_pos_as_xyz
  1  'x, y, z'
loop_
 _atom_site_type_symbol
 _atom_site_label
 _atom_site_symmetry_multiplicity
 _atom_site_fract_x
 _atom_site_fract_y
 _atom_site_fract_z
 _atom_site_occupancy
  Mg  Mg0  1  0.00000000  0.50000000  0.39384400  1
  Mg  Mg1  1  0.50000000  0.30255100  0.33333300  1
  Mg  Mg2  1  0.50000000  0.69744900  0.33333300  1
  Mg  Mg3  1  0.00000000  0.50000000  0.27282300  1
  Mg  Mg4  1  0.00000000  0.50000000  0.59384400  1
  Mg  Mg5  1  0.30255100  0.00000000  0.43333300  1
  Mg  Mg6  1  0.50000000  0.30255100  0.53333300  1
  Mg  Mg7  1  0.69744900  0.00000000  0.43333300  1
  Mg  Mg8  1  0.50000000  0.69744900  0.53333300  1
  Mg  Mg9  1  0.00000000  0.50000000  0.47282300  1
  Mg  Mg10  1  0.00000000  0.50000000  0.79384400  1
  Mg  Mg11  1  0.30255100  0.00000000  0.63333300  1
  Mg  Mg12  1  0.50000000  0.30255100  0.73333300  1
  Mg  Mg13  1  0.69744900  0.00000000  0.63333300  1
  Mg  Mg14  1  0.50000000  0.69744900  0.73333300  1
  Mg  Mg15  1  0.00000000  0.50000000  0.67282300  1
  Zn  Zn16  1  0.00000000  0.00000000  0.37860800  1
  Zn  Zn17  1  0.22637300  0.00000000  0.33333300  1
  Zn  Zn18  1  0.00000000  0.22637300  0.33333300  1
  Zn  Zn19  1  0.77362700  0.00000000  0.33333300  1
  Zn  Zn20  1  0.00000000  0.77362700  0.33333300  1
  Zn  Zn21  1  0.00000000  0.00000000  0.28805900  1
  Zn  Zn22  1  0.50000000  0.00000000  0.36485700  1
  Zn  Zn23  1  0.15762000  0.50000000  0.33333300  1
  Zn  Zn24  1  0.84238000  0.50000000  0.33333300  1
  Zn  Zn25  1  0.50000000  0.00000000  0.30180900  1
  Zn  Zn26  1  0.21905500  0.21905500  0.37714400  1
  Zn  Zn27  1  0.78094500  0.21905500  0.28952200  1
  Zn  Zn28  1  0.78094500  0.78094500  0.37714400  1
  Zn  Zn29  1  0.21905500  0.78094500  0.28952200  1
  Zn  Zn30  1  0.78094500  0.78094500  0.28952200  1
  Zn  Zn31  1  0.21905500  0.78094500  0.37714400  1
  Zn  Zn32  1  0.21905500  0.21905500  0.28952200  1
  Zn  Zn33  1  0.78094500  0.21905500  0.37714400  1
  Zn  Zn34  1  0.34184200  0.50000000  0.37981200  1
  Zn  Zn35  1  0.65815800  0.50000000  0.28685500  1
  Zn  Zn36  1  0.34184200  0.50000000  0.28685500  1
  Zn  Zn37  1  0.65815800  0.50000000  0.37981200  1
  Zn  Zn38  1  0.50000000  0.50000000  0.43333300  1
  Zn  Zn39  1  0.00000000  0.00000000  0.57860800  1
  Zn  Zn40  1  0.22637300  0.00000000  0.53333300  1
  Zn  Zn41  1  1.00000000  0.22637300  0.53333300  1
  Zn  Zn42  1  0.77362700  0.00000000  0.53333300  1
  Zn  Zn43  1  0.00000000  0.77362700  0.53333300  1
  Zn  Zn44  1  0.00000000  0.00000000  0.48805900  1
  Zn  Zn45  1  0.50000000  0.00000000  0.56485700  1
  Zn  Zn46  1  0.15762000  0.50000000  0.53333300  1
  Zn  Zn47  1  0.00000000  0.15762000  0.43333300  1
  Zn  Zn48  1  0.84238000  0.50000000  0.53333300  1
  Zn  Zn49  1  0.00000000  0.84238000  0.43333300  1
  Zn  Zn50  1  0.50000000  0.00000000  0.50180900  1
  Zn  Zn51  1  0.21905500  0.21905500  0.57714400  1
  Zn  Zn52  1  0.78094500  0.21905500  0.48952200  1
  Zn  Zn53  1  0.78094500  0.78094500  0.57714400  1
  Zn  Zn54  1  0.21905500  0.78094500  0.48952200  1
  Zn  Zn55  1  0.78094500  0.78094500  0.48952200  1
  Zn  Zn56  1  0.21905500  0.78094500  0.57714400  1
  Zn  Zn57  1  0.21905500  0.21905500  0.48952200  1
  Zn  Zn58  1  0.78094500  0.21905500  0.57714400  1
  Zn  Zn59  1  0.23239100  0.34184200  0.43333300  1
  Zn  Zn60  1  0.50000000  0.23239100  0.40170200  1
  Zn  Zn61  1  0.34184200  0.50000000  0.57981200  1
  Zn  Zn62  1  0.65815800  0.50000000  0.48685500  1
  Zn  Zn63  1  0.50000000  0.76760900  0.40170200  1
  Zn  Zn64  1  0.34184200  0.50000000  0.48685500  1
  Zn  Zn65  1  0.50000000  0.23239100  0.46496500  1
  Zn  Zn66  1  0.50000000  0.76760900  0.46496500  1
  Zn  Zn67  1  0.65815800  0.50000000  0.57981200  1
  Zn  Zn68  1  0.76760900  0.65815800  0.43333300  1
  Zn  Zn69  1  0.23239100  0.65815800  0.43333300  1
  Zn  Zn70  1  0.76760900  0.34184200  0.43333300  1
  Zn  Zn71  1  0.50000000  0.50000000  0.63333300  1
  Zn  Zn72  1  0.00000000  0.00000000  0.77860800  1
  Zn  Zn73  1  0.22637300  0.00000000  0.73333300  1
  Zn  Zn74  1  1.00000000  0.22637300  0.73333300  1
  Zn  Zn75  1  0.77362700  0.00000000  0.73333300  1
  Zn  Zn76  1  0.00000000  0.77362700  0.73333300  1
  Zn  Zn77  1  0.00000000  0.00000000  0.68805900  1
  Zn  Zn78  1  0.50000000  0.00000000  0.76485700  1
  Zn  Zn79  1  0.15762000  0.50000000  0.73333300  1
  Zn  Zn80  1  0.00000000  0.15762000  0.63333300  1
  Zn  Zn81  1  0.84238000  0.50000000  0.73333300  1
  Zn  Zn82  1  0.00000000  0.84238000  0.63333300  1
  Zn  Zn83  1  0.50000000  0.00000000  0.70180900  1
  Zn  Zn84  1  0.21905500  0.21905500  0.77714400  1
  Zn  Zn85  1  0.78094500  0.21905500  0.68952200  1
  Zn  Zn86  1  0.78094500  0.78094500  0.77714400  1
  Zn  Zn87  1  0.21905500  0.78094500  0.68952200  1
  Zn  Zn88  1  0.78094500  0.78094500  0.68952200  1
  Zn  Zn89  1  0.21905500  0.78094500  0.77714400  1
  Zn  Zn90  1  0.21905500  0.21905500  0.68952200  1
  Zn  Zn91  1  0.78094500  0.21905500  0.77714400  1
  Zn  Zn92  1  0.23239100  0.34184200  0.63333300  1
  Zn  Zn93  1  0.50000000  0.23239100  0.60170200  1
  Zn  Zn94  1  0.34184200  0.50000000  0.77981200  1
  Zn  Zn95  1  0.65815800  0.50000000  0.68685500  1
  Zn  Zn96  1  0.50000000  0.76760900  0.60170200  1
  Zn  Zn97  1  0.34184200  0.50000000  0.68685500  1
  Zn  Zn98  1  0.50000000  0.23239100  0.66496500  1
  Zn  Zn99  1  0.50000000  0.76760900  0.66496500  1
  Zn  Zn100  1  0.65815800  0.50000000  0.77981200  1
  Zn  Zn101  1  0.76760900  0.65815800  0.63333300  1
  Zn  Zn102  1  0.23239100  0.65815800  0.63333300  1
  Zn  Zn103  1  0.76760900  0.34184200  0.63333300  1
