# generated using pymatgen
data_Y7Mg2
_symmetry_space_group_name_H-M   'P 1'
_cell_length_a   5.49911400
_cell_length_b   6.65141548
_cell_length_c   43.68111800
_cell_angle_alpha   92.90076190
_cell_angle_beta   90.00000000
_cell_angle_gamma   114.41729017
_symmetry_Int_Tables_number   1
_chemical_formula_structural   Y7Mg2
_chemical_formula_sum   'Y21 Mg6'
_cell_volume   1452.56926529
_cell_formula_units_Z   3
loop_
 _symmetry_equiv_pos_site_id
 _symmetry_equiv_pos_as_xyz
  1  'x, y, z'
loop_
 _atom_site_type_symbol
 _atom_site_label
 _atom_site_symmetry_multiplicity
 _atom_site_fract_x
 _atom_site_fract_y
 _atom_site_fract_z
 _atom_site_occupancy
  Y  Y0  1  0.53025400  0.06050800  0.76041700  1
  Y  Y1  1  0.82300100  0.64600200  0.74157500  1
  Y  Y2  1  0.23750700  0.47501400  0.77925800  1
  Y  Y3  1  0.61358700  0.22717500  0.67708300  1
  Y  Y4  1  0.90633400  0.81266800  0.65824200  1
  Y  Y5  1  0.32084000  0.64168100  0.69592500  1
  Y  Y6  1  0.69692100  0.39384100  0.59375000  1
  Y  Y7  1  0.98966700  0.97933500  0.57490900  1
  Y  Y8  1  0.40417400  0.80834800  0.61259100  1
  Y  Y9  1  0.78025400  0.56050800  0.51041700  1
  Y  Y10  1  0.07300100  0.14600200  0.49157500  1
  Y  Y11  1  0.48750700  0.97501400  0.52925800  1
  Y  Y12  1  0.86358700  0.72717500  0.42708300  1
  Y  Y13  1  0.15633400  0.31266800  0.40824200  1
  Y  Y14  1  0.57084000  0.14168100  0.44592500  1
  Y  Y15  1  0.94692100  0.89384100  0.34375000  1
  Y  Y16  1  0.23966700  0.47933500  0.32490900  1
  Y  Y17  1  0.65417400  0.30834800  0.36259100  1
  Y  Y18  1  0.03025400  0.06050800  0.26041700  1
  Y  Y19  1  0.32300100  0.64600200  0.24157500  1
  Y  Y20  1  0.73750700  0.47501400  0.27925800  1
  Mg  Mg21  1  0.07192100  0.14384100  0.71875000  1
  Mg  Mg22  1  0.15525400  0.31050800  0.63541700  1
  Mg  Mg23  1  0.23858700  0.47717500  0.55208300  1
  Mg  Mg24  1  0.32192100  0.64384100  0.46875000  1
  Mg  Mg25  1  0.40525400  0.81050800  0.38541700  1
  Mg  Mg26  1  0.48858700  0.97717500  0.30208300  1
