# generated using pymatgen
data_Mg7P32
_symmetry_space_group_name_H-M   'P 1'
_cell_length_a   7.29415427
_cell_length_b   8.53570463
_cell_length_c   44.35763700
_cell_angle_alpha   89.74177658
_cell_angle_beta   91.92332681
_cell_angle_gamma   70.22900655
_symmetry_Int_Tables_number   1
_chemical_formula_structural   Mg7P32
_chemical_formula_sum   'Mg14 P64'
_cell_volume   2597.10747389
_cell_formula_units_Z   2
loop_
 _symmetry_equiv_pos_site_id
 _symmetry_equiv_pos_as_xyz
  1  'x, y, z'
loop_
 _atom_site_type_symbol
 _atom_site_label
 _atom_site_symmetry_multiplicity
 _atom_site_fract_x
 _atom_site_fract_y
 _atom_site_fract_z
 _atom_site_occupancy
  Mg  Mg0  1  0.48691200  0.14659700  0.26153800  1
  Mg  Mg1  1  0.98691200  0.64659700  0.26153800  1
  Mg  Mg2  1  0.94845100  0.30044300  0.33846200  1
  Mg  Mg3  1  0.44845100  0.80044300  0.33846200  1
  Mg  Mg4  1  0.40998900  0.45428900  0.41538500  1
  Mg  Mg5  1  0.90998900  0.95428900  0.41538500  1
  Mg  Mg6  1  0.87152800  0.60813500  0.49230800  1
  Mg  Mg7  1  0.37152800  0.10813500  0.49230800  1
  Mg  Mg8  1  0.33306600  0.76198100  0.56923100  1
  Mg  Mg9  1  0.83306600  0.26198100  0.56923100  1
  Mg  Mg10  1  0.79460400  0.91582700  0.64615400  1
  Mg  Mg11  1  0.29460400  0.41582700  0.64615400  1
  Mg  Mg12  1  0.25614300  0.06967300  0.72307700  1
  Mg  Mg13  1  0.75614300  0.56967300  0.72307700  1
  P  P14  1  0.64460200  0.84807100  0.23911500  1
  P  P15  1  0.14393300  0.85520500  0.23900300  1
  P  P16  1  0.86768400  0.29127600  0.20703900  1
  P  P17  1  0.36835300  0.28414200  0.20715100  1
  P  P18  1  0.06053200  0.44106600  0.20854300  1
  P  P19  1  0.83500800  0.23163700  0.25428900  1
  P  P20  1  0.45175300  0.69828100  0.23761100  1
  P  P21  1  0.67727700  0.90771000  0.19186500  1
  P  P22  1  0.10614100  0.00191700  0.31603800  1
  P  P23  1  0.60547200  0.00905100  0.31592600  1
  P  P24  1  0.32922200  0.44512200  0.28396200  1
  P  P25  1  0.82989100  0.43798800  0.28407400  1
  P  P26  1  0.52207100  0.59491200  0.28546600  1
  P  P27  1  0.29654700  0.38548300  0.33121200  1
  P  P28  1  0.91329200  0.85212700  0.31453400  1
  P  P29  1  0.13881600  0.06155600  0.26878800  1
  P  P30  1  0.56767900  0.15576300  0.39296100  1
  P  P31  1  0.06701000  0.16289700  0.39284900  1
  P  P32  1  0.79076000  0.59896900  0.36088500  1
  P  P33  1  0.29142900  0.59183400  0.36099700  1
  P  P34  1  0.98360900  0.74875800  0.36238900  1
  P  P35  1  0.75808500  0.53932900  0.40813500  1
  P  P36  1  0.37483000  0.00597300  0.39145700  1
  P  P37  1  0.60035400  0.21540200  0.34571100  1
  P  P38  1  0.02921800  0.30960900  0.46988400  1
  P  P39  1  0.52854900  0.31674300  0.46977300  1
  P  P40  1  0.25229900  0.75281500  0.43780800  1
  P  P41  1  0.75296800  0.74568000  0.43792000  1
  P  P42  1  0.44514800  0.90260400  0.43931200  1
  P  P43  1  0.21962400  0.69317500  0.48505800  1
  P  P44  1  0.83636900  0.15982000  0.46838000  1
  P  P45  1  0.06189300  0.36924800  0.42263400  1
  P  P46  1  0.49075600  0.46345500  0.54680700  1
  P  P47  1  0.99008700  0.47059000  0.54669600  1
  P  P48  1  0.71383700  0.90666100  0.51473100  1
  P  P49  1  0.21450600  0.89952700  0.51484300  1
  P  P50  1  0.90668600  0.05645000  0.51623500  1
  P  P51  1  0.68116200  0.84702100  0.56198100  1
  P  P52  1  0.29790700  0.31366600  0.54530300  1
  P  P53  1  0.52343100  0.52309500  0.49955700  1
  P  P54  1  0.95229500  0.61730100  0.62373000  1
  P  P55  1  0.45162600  0.62443600  0.62361900  1
  P  P56  1  0.17537600  0.06050700  0.59165400  1
  P  P57  1  0.67604500  0.05337300  0.59176600  1
  P  P58  1  0.36822500  0.21029700  0.59315800  1
  P  P59  1  0.14270100  0.00086800  0.63890400  1
  P  P60  1  0.75944600  0.46751200  0.62222600  1
  P  P61  1  0.98497000  0.67694100  0.57648000  1
  P  P62  1  0.41383300  0.77114800  0.70065300  1
  P  P63  1  0.91316400  0.77828200  0.70054200  1
  P  P64  1  0.63691400  0.21435300  0.66857700  1
  P  P65  1  0.13758300  0.20721900  0.66868900  1
  P  P66  1  0.82976300  0.36414300  0.67008100  1
  P  P67  1  0.60423900  0.15471400  0.71582700  1
  P  P68  1  0.22098400  0.62135800  0.69914900  1
  P  P69  1  0.44650800  0.83078700  0.65340300  1
  P  P70  1  0.87537100  0.92499400  0.77757600  1
  P  P71  1  0.37470300  0.93212800  0.77746500  1
  P  P72  1  0.09845300  0.36819900  0.74550100  1
  P  P73  1  0.59912200  0.36106500  0.74561200  1
  P  P74  1  0.29130200  0.51798900  0.74700400  1
  P  P75  1  0.06577800  0.30856000  0.79275000  1
  P  P76  1  0.68252300  0.77520400  0.77607300  1
  P  P77  1  0.90804700  0.98463300  0.73032700  1
