# generated using pymatgen
data_Y2Mg
_symmetry_space_group_name_H-M   'P 1'
_cell_length_a   3.72656800
_cell_length_b   5.49634900
_cell_length_c   51.51559500
_cell_angle_alpha   90.00000000
_cell_angle_beta   90.00000000
_cell_angle_gamma   90.00000000
_symmetry_Int_Tables_number   1
_chemical_formula_structural   Y2Mg
_chemical_formula_sum   'Y16 Mg8'
_cell_volume   1055.16911733
_cell_formula_units_Z   8
loop_
 _symmetry_equiv_pos_site_id
 _symmetry_equiv_pos_as_xyz
  1  'x, y, z'
loop_
 _atom_site_type_symbol
 _atom_site_label
 _atom_site_symmetry_multiplicity
 _atom_site_fract_x
 _atom_site_fract_y
 _atom_site_fract_z
 _atom_site_occupancy
  Y  Y0  1  0.50000000  0.25000000  0.19685200  1
  Y  Y1  1  0.00000000  0.25000000  0.25760100  1
  Y  Y2  1  0.00000000  0.75000000  0.30314800  1
  Y  Y3  1  0.50000000  0.75000000  0.24239900  1
  Y  Y4  1  0.00000000  0.25000000  0.36351900  1
  Y  Y5  1  0.50000000  0.25000000  0.42426700  1
  Y  Y6  1  0.50000000  0.75000000  0.46981500  1
  Y  Y7  1  0.00000000  0.75000000  0.40906600  1
  Y  Y8  1  0.50000000  0.25000000  0.53018500  1
  Y  Y9  1  0.00000000  0.25000000  0.59093400  1
  Y  Y10  1  0.00000000  0.75000000  0.63648100  1
  Y  Y11  1  0.50000000  0.75000000  0.57573300  1
  Y  Y12  1  0.00000000  0.25000000  0.69685200  1
  Y  Y13  1  0.50000000  0.25000000  0.75760100  1
  Y  Y14  1  0.50000000  0.75000000  0.80314800  1
  Y  Y15  1  0.00000000  0.75000000  0.74239900  1
  Mg  Mg16  1  0.50000000  0.25000000  0.31082300  1
  Mg  Mg17  1  0.00000000  0.75000000  0.18917700  1
  Mg  Mg18  1  0.00000000  0.25000000  0.47749000  1
  Mg  Mg19  1  0.50000000  0.75000000  0.35584300  1
  Mg  Mg20  1  0.50000000  0.25000000  0.64415700  1
  Mg  Mg21  1  0.00000000  0.75000000  0.52251000  1
  Mg  Mg22  1  0.00000000  0.25000000  0.81082300  1
  Mg  Mg23  1  0.50000000  0.75000000  0.68917700  1
