# generated using pymatgen
data_Mg4Ni7
_symmetry_space_group_name_H-M   'P 1'
_cell_length_a   4.81848500
_cell_length_b   4.81848489
_cell_length_c   47.15446000
_cell_angle_alpha   90.00000000
_cell_angle_beta   90.00000000
_cell_angle_gamma   120.00000763
_symmetry_Int_Tables_number   1
_chemical_formula_structural   Mg4Ni7
_chemical_formula_sum   'Mg12 Ni21'
_cell_volume   948.14418693
_cell_formula_units_Z   3
loop_
 _symmetry_equiv_pos_site_id
 _symmetry_equiv_pos_as_xyz
  1  'x, y, z'
loop_
 _atom_site_type_symbol
 _atom_site_label
 _atom_site_symmetry_multiplicity
 _atom_site_fract_x
 _atom_site_fract_y
 _atom_site_fract_z
 _atom_site_occupancy
  Mg  Mg0  1  0.00000000  0.00000000  0.40650800  1
  Mg  Mg1  1  0.00000000  0.00000000  0.46849200  1
  Mg  Mg2  1  0.66666700  0.33333300  0.48948300  1
  Mg  Mg3  1  0.33333300  0.66666700  0.38551700  1
  Mg  Mg4  1  0.00000000  0.00000000  0.73984100  1
  Mg  Mg5  1  0.00000000  0.00000000  0.80182500  1
  Mg  Mg6  1  0.00000000  0.00000000  0.57317500  1
  Mg  Mg7  1  0.00000000  0.00000000  0.63515900  1
  Mg  Mg8  1  0.66666700  0.33333300  0.82281600  1
  Mg  Mg9  1  0.33333300  0.66666700  0.71885000  1
  Mg  Mg10  1  0.33333300  0.66666700  0.65615000  1
  Mg  Mg11  1  0.66666700  0.33333300  0.55218400  1
  Ni  Ni12  1  0.66666700  0.33333300  0.39582500  1
  Ni  Ni13  1  0.33333300  0.66666700  0.47917500  1
  Ni  Ni14  1  0.50000000  0.00000000  0.43750000  1
  Ni  Ni15  1  0.00000000  0.50000000  0.43750000  1
  Ni  Ni16  1  0.50000000  0.50000000  0.43750000  1
  Ni  Ni17  1  0.66666700  0.33333300  0.72915800  1
  Ni  Ni18  1  0.33333300  0.66666700  0.81250900  1
  Ni  Ni19  1  0.33333300  0.66666700  0.56249100  1
  Ni  Ni20  1  0.66666700  0.33333300  0.64584200  1
  Ni  Ni21  1  0.50000000  0.00000000  0.77083300  1
  Ni  Ni22  1  0.00000000  0.50000000  0.77083300  1
  Ni  Ni23  1  0.50000000  0.50000000  0.77083300  1
  Ni  Ni24  1  0.50000000  0.00000000  0.60416700  1
  Ni  Ni25  1  0.00000000  0.50000000  0.60416700  1
  Ni  Ni26  1  0.50000000  0.50000000  0.60416700  1
  Ni  Ni27  1  0.83551000  0.67102100  0.68750000  1
  Ni  Ni28  1  0.32897900  0.16449000  0.68750000  1
  Ni  Ni29  1  0.83551000  0.16449000  0.68750000  1
  Ni  Ni30  1  0.16449000  0.32897900  0.52083300  1
  Ni  Ni31  1  0.67102100  0.83551000  0.52083300  1
  Ni  Ni32  1  0.16449000  0.83551000  0.52083300  1
