# generated using pymatgen
data_Mg21Ga8
_symmetry_space_group_name_H-M   'P 1'
_cell_length_a   6.11035770
_cell_length_b   8.32987912
_cell_length_c   49.12638700
_cell_angle_alpha   87.82435891
_cell_angle_beta   86.43446658
_cell_angle_gamma   68.48323149
_symmetry_Int_Tables_number   1
_chemical_formula_structural   Mg21Ga8
_chemical_formula_sum   'Mg42 Ga16'
_cell_volume   2321.39293914
_cell_formula_units_Z   2
loop_
 _symmetry_equiv_pos_site_id
 _symmetry_equiv_pos_as_xyz
  1  'x, y, z'
loop_
 _atom_site_type_symbol
 _atom_site_label
 _atom_site_symmetry_multiplicity
 _atom_site_fract_x
 _atom_site_fract_y
 _atom_site_fract_z
 _atom_site_occupancy
  Mg  Mg0  1  0.79701700  0.69763100  0.70833500  1
  Mg  Mg1  1  0.50070800  0.22477600  0.77380800  1
  Mg  Mg2  1  0.92299400  0.34134700  0.81266500  1
  Mg  Mg3  1  0.12473100  0.95606000  0.79447800  1
  Mg  Mg4  1  0.39886200  0.96120400  0.74107100  1
  Mg  Mg5  1  0.89886200  0.96120400  0.74107100  1
  Mg  Mg6  1  0.57487800  0.57983600  0.77040700  1
  Mg  Mg7  1  0.22284700  0.34257100  0.71173500  1
  Mg  Mg8  1  0.72284700  0.34257100  0.71173500  1
  Mg  Mg9  1  0.07487800  0.57983600  0.77040700  1
  Mg  Mg10  1  0.04701700  0.32263100  0.58333500  1
  Mg  Mg11  1  0.75070800  0.84977600  0.64880800  1
  Mg  Mg12  1  0.17299400  0.96634700  0.68766500  1
  Mg  Mg13  1  0.37473100  0.58106000  0.66947800  1
  Mg  Mg14  1  0.64886200  0.58620400  0.61607100  1
  Mg  Mg15  1  0.14886200  0.58620400  0.61607100  1
  Mg  Mg16  1  0.82487800  0.20483600  0.64540700  1
  Mg  Mg17  1  0.47284700  0.96757100  0.58673500  1
  Mg  Mg18  1  0.97284700  0.96757100  0.58673500  1
  Mg  Mg19  1  0.32487800  0.20483600  0.64540700  1
  Mg  Mg20  1  0.29701700  0.94763100  0.45833500  1
  Mg  Mg21  1  0.00070800  0.47477600  0.52380800  1
  Mg  Mg22  1  0.42299400  0.59134700  0.56266500  1
  Mg  Mg23  1  0.62473100  0.20606000  0.54447800  1
  Mg  Mg24  1  0.89886200  0.21120400  0.49107100  1
  Mg  Mg25  1  0.39886200  0.21120400  0.49107100  1
  Mg  Mg26  1  0.07487800  0.82983600  0.52040700  1
  Mg  Mg27  1  0.72284700  0.59257100  0.46173500  1
  Mg  Mg28  1  0.22284700  0.59257100  0.46173500  1
  Mg  Mg29  1  0.57487800  0.82983600  0.52040700  1
  Mg  Mg30  1  0.54701700  0.57263100  0.33333500  1
  Mg  Mg31  1  0.25070800  0.09977600  0.39880800  1
  Mg  Mg32  1  0.67299400  0.21634700  0.43766500  1
  Mg  Mg33  1  0.87473100  0.83106000  0.41947800  1
  Mg  Mg34  1  0.14886200  0.83620400  0.36607100  1
  Mg  Mg35  1  0.64886200  0.83620400  0.36607100  1
  Mg  Mg36  1  0.32487800  0.45483600  0.39540700  1
  Mg  Mg37  1  0.97284700  0.21757100  0.33673500  1
  Mg  Mg38  1  0.47284700  0.21757100  0.33673500  1
  Mg  Mg39  1  0.82487800  0.45483600  0.39540700  1
  Mg  Mg40  1  0.92299400  0.84134700  0.31266500  1
  Mg  Mg41  1  0.12473100  0.45606000  0.29447800  1
  Ga  Ga42  1  0.67581400  0.85957000  0.78880200  1
  Ga  Ga43  1  0.62191100  0.06283800  0.69334100  1
  Ga  Ga44  1  0.99219400  0.25741300  0.75819900  1
  Ga  Ga45  1  0.30553100  0.66499400  0.72394400  1
  Ga  Ga46  1  0.92581400  0.48457000  0.66380200  1
  Ga  Ga47  1  0.87191100  0.68783800  0.56834100  1
  Ga  Ga48  1  0.24219400  0.88241300  0.63319900  1
  Ga  Ga49  1  0.55553100  0.28999400  0.59894400  1
  Ga  Ga50  1  0.17581400  0.10957000  0.53880200  1
  Ga  Ga51  1  0.12191100  0.31283800  0.44334100  1
  Ga  Ga52  1  0.49219400  0.50741300  0.50819900  1
  Ga  Ga53  1  0.80553100  0.91499400  0.47394400  1
  Ga  Ga54  1  0.42581400  0.73457000  0.41380200  1
  Ga  Ga55  1  0.37191100  0.93783800  0.31834100  1
  Ga  Ga56  1  0.74219400  0.13241300  0.38319900  1
  Ga  Ga57  1  0.05553100  0.53999400  0.34894400  1
