# generated using pymatgen
data_MgCd3
_symmetry_space_group_name_H-M   'P 1'
_cell_length_a   6.29994100
_cell_length_b   6.29994129
_cell_length_c   40.97165900
_cell_angle_alpha   90.00000000
_cell_angle_beta   90.00000000
_cell_angle_gamma   120.00000370
_symmetry_Int_Tables_number   1
_chemical_formula_structural   MgCd3
_chemical_formula_sum   'Mg10 Cd30'
_cell_volume   1408.27396270
_cell_formula_units_Z   10
loop_
 _symmetry_equiv_pos_site_id
 _symmetry_equiv_pos_as_xyz
  1  'x, y, z'
loop_
 _atom_site_type_symbol
 _atom_site_label
 _atom_site_symmetry_multiplicity
 _atom_site_fract_x
 _atom_site_fract_y
 _atom_site_fract_z
 _atom_site_occupancy
  Mg  Mg0  1  0.33333300  0.66666700  0.21875000  1
  Mg  Mg1  1  0.66666700  0.33333300  0.28125000  1
  Mg  Mg2  1  0.33333300  0.66666700  0.34375000  1
  Mg  Mg3  1  0.66666700  0.33333300  0.40625000  1
  Mg  Mg4  1  0.33333300  0.66666700  0.46875000  1
  Mg  Mg5  1  0.66666700  0.33333300  0.53125000  1
  Mg  Mg6  1  0.33333300  0.66666700  0.59375000  1
  Mg  Mg7  1  0.66666700  0.33333300  0.65625000  1
  Mg  Mg8  1  0.33333300  0.66666700  0.71875000  1
  Mg  Mg9  1  0.66666700  0.33333300  0.78125000  1
  Cd  Cd10  1  0.83311900  0.16688100  0.21875000  1
  Cd  Cd11  1  0.16688100  0.83311900  0.28125000  1
  Cd  Cd12  1  0.16688100  0.33376200  0.28125000  1
  Cd  Cd13  1  0.33376200  0.16688100  0.21875000  1
  Cd  Cd14  1  0.83311900  0.66623800  0.21875000  1
  Cd  Cd15  1  0.66623800  0.83311900  0.28125000  1
  Cd  Cd16  1  0.83311900  0.16688100  0.34375000  1
  Cd  Cd17  1  0.16688100  0.83311900  0.40625000  1
  Cd  Cd18  1  0.16688100  0.33376200  0.40625000  1
  Cd  Cd19  1  0.33376200  0.16688100  0.34375000  1
  Cd  Cd20  1  0.83311900  0.66623800  0.34375000  1
  Cd  Cd21  1  0.66623800  0.83311900  0.40625000  1
  Cd  Cd22  1  0.83311900  0.16688100  0.46875000  1
  Cd  Cd23  1  0.16688100  0.83311900  0.53125000  1
  Cd  Cd24  1  0.16688100  0.33376200  0.53125000  1
  Cd  Cd25  1  0.33376200  0.16688100  0.46875000  1
  Cd  Cd26  1  0.83311900  0.66623800  0.46875000  1
  Cd  Cd27  1  0.66623800  0.83311900  0.53125000  1
  Cd  Cd28  1  0.83311900  0.16688100  0.59375000  1
  Cd  Cd29  1  0.16688100  0.83311900  0.65625000  1
  Cd  Cd30  1  0.16688100  0.33376200  0.65625000  1
  Cd  Cd31  1  0.33376200  0.16688100  0.59375000  1
  Cd  Cd32  1  0.83311900  0.66623800  0.59375000  1
  Cd  Cd33  1  0.66623800  0.83311900  0.65625000  1
  Cd  Cd34  1  0.83311900  0.16688100  0.71875000  1
  Cd  Cd35  1  0.16688100  0.83311900  0.78125000  1
  Cd  Cd36  1  0.16688100  0.33376200  0.78125000  1
  Cd  Cd37  1  0.33376200  0.16688100  0.71875000  1
  Cd  Cd38  1  0.83311900  0.66623800  0.71875000  1
  Cd  Cd39  1  0.66623800  0.83311900  0.78125000  1
