# generated using pymatgen
data_Mg7Cd3
_symmetry_space_group_name_H-M   'P 1'
_cell_length_a   3.17171500
_cell_length_b   5.19055600
_cell_length_c   48.34822400
_cell_angle_alpha   90.00000000
_cell_angle_beta   90.00000000
_cell_angle_gamma   90.00000000
_symmetry_Int_Tables_number   1
_chemical_formula_structural   Mg7Cd3
_chemical_formula_sum   'Mg14 Cd6'
_cell_volume   795.95508682
_cell_formula_units_Z   2
loop_
 _symmetry_equiv_pos_site_id
 _symmetry_equiv_pos_as_xyz
  1  'x, y, z'
loop_
 _atom_site_type_symbol
 _atom_site_label
 _atom_site_symmetry_multiplicity
 _atom_site_fract_x
 _atom_site_fract_y
 _atom_site_fract_z
 _atom_site_occupancy
  Mg  Mg0  1  0.00000000  0.75000000  0.28695500  1
  Mg  Mg1  1  0.50000000  0.25000000  0.49082300  1
  Mg  Mg2  1  0.50000000  0.75000000  0.45362100  1
  Mg  Mg3  1  0.00000000  0.75000000  0.39718100  1
  Mg  Mg4  1  0.50000000  0.25000000  0.38059700  1
  Mg  Mg5  1  0.00000000  0.25000000  0.32415600  1
  Mg  Mg6  1  0.00000000  0.75000000  0.62028800  1
  Mg  Mg7  1  0.50000000  0.75000000  0.56384700  1
  Mg  Mg8  1  0.00000000  0.25000000  0.54726400  1
  Mg  Mg9  1  0.50000000  0.25000000  0.82415600  1
  Mg  Mg10  1  0.50000000  0.75000000  0.78695500  1
  Mg  Mg11  1  0.00000000  0.75000000  0.73051400  1
  Mg  Mg12  1  0.50000000  0.25000000  0.71393100  1
  Mg  Mg13  1  0.00000000  0.25000000  0.65749000  1
  Cd  Cd14  1  0.50000000  0.75000000  0.34282300  1
  Cd  Cd15  1  0.00000000  0.25000000  0.43495400  1
  Cd  Cd16  1  0.00000000  0.75000000  0.50949000  1
  Cd  Cd17  1  0.50000000  0.25000000  0.60162100  1
  Cd  Cd18  1  0.50000000  0.75000000  0.67615700  1
  Cd  Cd19  1  0.00000000  0.25000000  0.76828800  1
