# generated using pymatgen
data_Mg5Zn9
_symmetry_space_group_name_H-M   'P 1'
_cell_length_a   5.07402237
_cell_length_b   17.20699092
_cell_length_c   54.58155700
_cell_angle_alpha   87.89733091
_cell_angle_beta   92.22235669
_cell_angle_gamma   98.42726965
_symmetry_Int_Tables_number   1
_chemical_formula_structural   Mg5Zn9
_chemical_formula_sum   'Mg40 Zn72'
_cell_volume   4708.12472958
_cell_formula_units_Z   8
loop_
 _symmetry_equiv_pos_site_id
 _symmetry_equiv_pos_as_xyz
  1  'x, y, z'
loop_
 _atom_site_type_symbol
 _atom_site_label
 _atom_site_symmetry_multiplicity
 _atom_site_fract_x
 _atom_site_fract_y
 _atom_site_fract_z
 _atom_site_occupancy
  Mg  Mg0  1  0.39731800  0.55394100  0.42652700  1
  Mg  Mg1  1  0.13574100  0.93768700  0.52520200  1
  Mg  Mg2  1  0.85442500  0.33813400  0.54487100  1
  Mg  Mg3  1  0.84892900  0.46603600  0.41087300  1
  Mg  Mg4  1  0.69279900  0.04441500  0.52293100  1
  Mg  Mg5  1  0.42875100  0.54790300  0.48762400  1
  Mg  Mg6  1  0.77077800  0.16009500  0.56796500  1
  Mg  Mg7  1  0.55763500  0.72083600  0.58185500  1
  Mg  Mg8  1  0.47421600  0.73038000  0.40292800  1
  Mg  Mg9  1  0.71376600  0.14245600  0.46979600  1
  Mg  Mg10  1  0.55213900  0.84873800  0.44785600  1
  Mg  Mg11  1  0.93234800  0.45649200  0.58979900  1
  Mg  Mg12  1  0.11681600  0.84504500  0.57462400  1
  Mg  Mg13  1  0.34826600  0.37009500  0.51027800  1
  Mg  Mg14  1  0.05829800  0.81677700  0.48244900  1
  Mg  Mg15  1  0.63578600  0.02677700  0.42476200  1
  Mg  Mg16  1  0.00924600  0.63293000  0.56620100  1
  Mg  Mg17  1  0.97781300  0.63896800  0.50510300  1
  Mg  Mg18  1  0.27082300  0.24918500  0.46752500  1
  Mg  Mg19  1  0.28974800  0.34182600  0.41810300  1
  Mg  Mg20  1  0.19731800  0.95394100  0.62652700  1
  Mg  Mg21  1  0.93574100  0.33768700  0.72520200  1
  Mg  Mg22  1  0.65442500  0.73813400  0.74487100  1
  Mg  Mg23  1  0.64892900  0.86603600  0.61087300  1
  Mg  Mg24  1  0.49279900  0.44441500  0.72293100  1
  Mg  Mg25  1  0.22875100  0.94790300  0.68762400  1
  Mg  Mg26  1  0.57077800  0.56009500  0.76796500  1
  Mg  Mg27  1  0.35763500  0.12083600  0.78185500  1
  Mg  Mg28  1  0.27421600  0.13038000  0.60292800  1
  Mg  Mg29  1  0.51376600  0.54245600  0.66979600  1
  Mg  Mg30  1  0.35213900  0.24873800  0.64785600  1
  Mg  Mg31  1  0.73234800  0.85649200  0.78979900  1
  Mg  Mg32  1  0.91681600  0.24504500  0.77462400  1
  Mg  Mg33  1  0.14826600  0.77009500  0.71027800  1
  Mg  Mg34  1  0.85829800  0.21677700  0.68244900  1
  Mg  Mg35  1  0.43578600  0.42677700  0.62476200  1
  Mg  Mg36  1  0.80924600  0.03293000  0.76620100  1
  Mg  Mg37  1  0.77781300  0.03896800  0.70510300  1
  Mg  Mg38  1  0.07082300  0.64918500  0.66752500  1
  Mg  Mg39  1  0.08974800  0.74182600  0.61810300  1
  Zn  Zn40  1  0.80328200  0.89343600  0.39636400  1
  Zn  Zn41  1  0.30328200  0.89343600  0.39636400  1
  Zn  Zn42  1  0.22596100  0.09838000  0.54498100  1
  Zn  Zn43  1  0.62834800  0.88870000  0.55269000  1
  Zn  Zn44  1  0.02014800  0.79028900  0.42621600  1
  Zn  Zn45  1  0.45959300  0.18655700  0.41707900  1
  Zn  Zn46  1  0.87951700  0.97595100  0.47600300  1
  Zn  Zn47  1  0.44242800  0.99941000  0.57458500  1
  Zn  Zn48  1  0.60328200  0.29343600  0.59636400  1
  Zn  Zn49  1  0.18060300  0.08849200  0.44774700  1
  Zn  Zn50  1  0.51901700  0.72570500  0.49395100  1
  Zn  Zn51  1  0.02077300  0.21113900  0.51677700  1
  Zn  Zn52  1  0.72571600  0.68640100  0.45508400  1
  Zn  Zn53  1  0.91212400  0.55199300  0.45724000  1
  Zn  Zn54  1  0.31153600  0.24842000  0.55705500  1
  Zn  Zn55  1  0.81262100  0.30933500  0.48812400  1
  Zn  Zn56  1  0.77821600  0.29817100  0.44003800  1
  Zn  Zn57  1  0.88754700  0.46116700  0.49877600  1
  Zn  Zn58  1  0.10601500  0.41832300  0.45863600  1
  Zn  Zn59  1  0.38579100  0.97573300  0.47595100  1
  Zn  Zn60  1  0.96413600  0.18746100  0.41814200  1
  Zn  Zn61  1  0.09502900  0.93845200  0.43567200  1
  Zn  Zn62  1  0.30055000  0.76854900  0.53409200  1
  Zn  Zn63  1  0.52704700  0.21092000  0.51672400  1
  Zn  Zn64  1  0.10328200  0.29343600  0.59636400  1
  Zn  Zn65  1  0.93168700  0.64386300  0.41384600  1
  Zn  Zn66  1  0.23012500  0.68668700  0.45549000  1
  Zn  Zn67  1  0.59218600  0.41835800  0.45774400  1
  Zn  Zn68  1  0.47487800  0.54300800  0.57888100  1
  Zn  Zn69  1  0.81437800  0.76851400  0.53498300  1
  Zn  Zn70  1  0.59394400  0.87753700  0.50460300  1
  Zn  Zn71  1  0.17643900  0.50018500  0.53723700  1
  Zn  Zn72  1  0.94697100  0.00031500  0.57564800  1
  Zn  Zn73  1  0.20328200  0.09343600  0.49636400  1
  Zn  Zn74  1  0.68084800  0.50047100  0.53764300  1
  Zn  Zn75  1  0.49444000  0.63487900  0.53548700  1
  Zn  Zn76  1  0.38641600  0.39658300  0.56651100  1
  Zn  Zn77  1  0.02596100  0.49838000  0.74498100  1
  Zn  Zn78  1  0.42834800  0.28870000  0.75269000  1
  Zn  Zn79  1  0.82014800  0.19028900  0.62621600  1
  Zn  Zn80  1  0.25959300  0.58655700  0.61707900  1
  Zn  Zn81  1  0.67951700  0.37595100  0.67600300  1
  Zn  Zn82  1  0.24242800  0.39941000  0.77458500  1
  Zn  Zn83  1  0.40328200  0.69343600  0.79636400  1
  Zn  Zn84  1  0.98060300  0.48849200  0.64774700  1
  Zn  Zn85  1  0.31901700  0.12570500  0.69395100  1
  Zn  Zn86  1  0.82077300  0.61113900  0.71677700  1
  Zn  Zn87  1  0.52571600  0.08640100  0.65508400  1
  Zn  Zn88  1  0.71212400  0.95199300  0.65724000  1
  Zn  Zn89  1  0.11153600  0.64842000  0.75705500  1
  Zn  Zn90  1  0.61262100  0.70933500  0.68812400  1
  Zn  Zn91  1  0.57821600  0.69817100  0.64003800  1
  Zn  Zn92  1  0.68754700  0.86116700  0.69877600  1
  Zn  Zn93  1  0.90601500  0.81832300  0.65863600  1
  Zn  Zn94  1  0.18579100  0.37573300  0.67595100  1
  Zn  Zn95  1  0.76413600  0.58746100  0.61814200  1
  Zn  Zn96  1  0.89502900  0.33845200  0.63567200  1
  Zn  Zn97  1  0.10055000  0.16854900  0.73409200  1
  Zn  Zn98  1  0.32704700  0.61092000  0.71672400  1
  Zn  Zn99  1  0.90328200  0.69343600  0.79636400  1
  Zn  Zn100  1  0.73168700  0.04386300  0.61384600  1
  Zn  Zn101  1  0.03012500  0.08668700  0.65549000  1
  Zn  Zn102  1  0.39218600  0.81835800  0.65774400  1
  Zn  Zn103  1  0.27487800  0.94300800  0.77888100  1
  Zn  Zn104  1  0.61437800  0.16851400  0.73498300  1
  Zn  Zn105  1  0.39394400  0.27753700  0.70460300  1
  Zn  Zn106  1  0.97643900  0.90018500  0.73723700  1
  Zn  Zn107  1  0.74697100  0.40031500  0.77564800  1
  Zn  Zn108  1  0.00328200  0.49343600  0.69636400  1
  Zn  Zn109  1  0.48084800  0.90047100  0.73764300  1
  Zn  Zn110  1  0.29444000  0.03487900  0.73548700  1
  Zn  Zn111  1  0.18641600  0.79658300  0.76651100  1
