# generated using pymatgen
data_HoMg5
_symmetry_space_group_name_H-M   'P 1'
_cell_length_a   7.17151100
_cell_length_b   11.78231599
_cell_length_c   43.79997600
_cell_angle_alpha   90.00000000
_cell_angle_beta   90.00000000
_cell_angle_gamma   72.54276797
_symmetry_Int_Tables_number   1
_chemical_formula_structural   HoMg5
_chemical_formula_sum   'Ho14 Mg70'
_cell_volume   3530.50465207
_cell_formula_units_Z   14
loop_
 _symmetry_equiv_pos_site_id
 _symmetry_equiv_pos_as_xyz
  1  'x, y, z'
loop_
 _atom_site_type_symbol
 _atom_site_label
 _atom_site_symmetry_multiplicity
 _atom_site_fract_x
 _atom_site_fract_y
 _atom_site_fract_z
 _atom_site_occupancy
  Ho  Ho0  1  0.50000000  0.00000000  0.22916700  1
  Ho  Ho1  1  0.00000000  0.50000000  0.27083300  1
  Ho  Ho2  1  0.50000000  0.00000000  0.31250000  1
  Ho  Ho3  1  0.00000000  0.50000000  0.35416700  1
  Ho  Ho4  1  0.50000000  0.00000000  0.39583300  1
  Ho  Ho5  1  0.00000000  0.50000000  0.43750000  1
  Ho  Ho6  1  0.50000000  0.00000000  0.47916700  1
  Ho  Ho7  1  0.00000000  0.50000000  0.52083300  1
  Ho  Ho8  1  0.50000000  0.00000000  0.56250000  1
  Ho  Ho9  1  0.00000000  0.50000000  0.60416700  1
  Ho  Ho10  1  0.50000000  0.00000000  0.64583300  1
  Ho  Ho11  1  0.00000000  0.50000000  0.68750000  1
  Ho  Ho12  1  0.50000000  0.00000000  0.72916700  1
  Ho  Ho13  1  0.00000000  0.50000000  0.77083300  1
  Mg  Mg14  1  0.34816800  0.32298500  0.22916700  1
  Mg  Mg15  1  0.67456700  0.17207800  0.27083300  1
  Mg  Mg16  1  0.00000000  0.00000000  0.22916700  1
  Mg  Mg17  1  0.82543300  0.32792200  0.22916700  1
  Mg  Mg18  1  0.15183200  0.17701500  0.27083300  1
  Mg  Mg19  1  0.84816800  0.82298500  0.27083300  1
  Mg  Mg20  1  0.17456700  0.67207800  0.22916700  1
  Mg  Mg21  1  0.50000000  0.50000000  0.27083300  1
  Mg  Mg22  1  0.32543300  0.82792200  0.27083300  1
  Mg  Mg23  1  0.65183200  0.67701500  0.22916700  1
  Mg  Mg24  1  0.34816800  0.32298500  0.31250000  1
  Mg  Mg25  1  0.67456700  0.17207800  0.35416700  1
  Mg  Mg26  1  0.00000000  0.00000000  0.31250000  1
  Mg  Mg27  1  0.82543300  0.32792200  0.31250000  1
  Mg  Mg28  1  0.15183200  0.17701500  0.35416700  1
  Mg  Mg29  1  0.84816800  0.82298500  0.35416700  1
  Mg  Mg30  1  0.17456700  0.67207800  0.31250000  1
  Mg  Mg31  1  0.50000000  0.50000000  0.35416700  1
  Mg  Mg32  1  0.32543300  0.82792200  0.35416700  1
  Mg  Mg33  1  0.65183200  0.67701500  0.31250000  1
  Mg  Mg34  1  0.34816800  0.32298500  0.39583300  1
  Mg  Mg35  1  0.67456700  0.17207800  0.43750000  1
  Mg  Mg36  1  0.00000000  0.00000000  0.39583300  1
  Mg  Mg37  1  0.82543300  0.32792200  0.39583300  1
  Mg  Mg38  1  0.15183200  0.17701500  0.43750000  1
  Mg  Mg39  1  0.84816800  0.82298500  0.43750000  1
  Mg  Mg40  1  0.17456700  0.67207800  0.39583300  1
  Mg  Mg41  1  0.50000000  0.50000000  0.43750000  1
  Mg  Mg42  1  0.32543300  0.82792200  0.43750000  1
  Mg  Mg43  1  0.65183200  0.67701500  0.39583300  1
  Mg  Mg44  1  0.34816800  0.32298500  0.47916700  1
  Mg  Mg45  1  0.67456700  0.17207800  0.52083300  1
  Mg  Mg46  1  0.00000000  0.00000000  0.47916700  1
  Mg  Mg47  1  0.82543300  0.32792200  0.47916700  1
  Mg  Mg48  1  0.15183200  0.17701500  0.52083300  1
  Mg  Mg49  1  0.84816800  0.82298500  0.52083300  1
  Mg  Mg50  1  0.17456700  0.67207800  0.47916700  1
  Mg  Mg51  1  0.50000000  0.50000000  0.52083300  1
  Mg  Mg52  1  0.32543300  0.82792200  0.52083300  1
  Mg  Mg53  1  0.65183200  0.67701500  0.47916700  1
  Mg  Mg54  1  0.34816800  0.32298500  0.56250000  1
  Mg  Mg55  1  0.67456700  0.17207800  0.60416700  1
  Mg  Mg56  1  0.00000000  0.00000000  0.56250000  1
  Mg  Mg57  1  0.82543300  0.32792200  0.56250000  1
  Mg  Mg58  1  0.15183200  0.17701500  0.60416700  1
  Mg  Mg59  1  0.84816800  0.82298500  0.60416700  1
  Mg  Mg60  1  0.17456700  0.67207800  0.56250000  1
  Mg  Mg61  1  0.50000000  0.50000000  0.60416700  1
  Mg  Mg62  1  0.32543300  0.82792200  0.60416700  1
  Mg  Mg63  1  0.65183200  0.67701500  0.56250000  1
  Mg  Mg64  1  0.34816800  0.32298500  0.64583300  1
  Mg  Mg65  1  0.67456700  0.17207800  0.68750000  1
  Mg  Mg66  1  0.00000000  0.00000000  0.64583300  1
  Mg  Mg67  1  0.82543300  0.32792200  0.64583300  1
  Mg  Mg68  1  0.15183200  0.17701500  0.68750000  1
  Mg  Mg69  1  0.84816800  0.82298500  0.68750000  1
  Mg  Mg70  1  0.17456700  0.67207800  0.64583300  1
  Mg  Mg71  1  0.50000000  0.50000000  0.68750000  1
  Mg  Mg72  1  0.32543300  0.82792200  0.68750000  1
  Mg  Mg73  1  0.65183200  0.67701500  0.64583300  1
  Mg  Mg74  1  0.34816800  0.32298500  0.72916700  1
  Mg  Mg75  1  0.67456700  0.17207800  0.77083300  1
  Mg  Mg76  1  0.00000000  0.00000000  0.72916700  1
  Mg  Mg77  1  0.82543300  0.32792200  0.72916700  1
  Mg  Mg78  1  0.15183200  0.17701500  0.77083300  1
  Mg  Mg79  1  0.84816800  0.82298500  0.77083300  1
  Mg  Mg80  1  0.17456700  0.67207800  0.72916700  1
  Mg  Mg81  1  0.50000000  0.50000000  0.77083300  1
  Mg  Mg82  1  0.32543300  0.82792200  0.77083300  1
  Mg  Mg83  1  0.65183200  0.67701500  0.72916700  1
