# generated using pymatgen
data_MgZr3
_symmetry_space_group_name_H-M   'P 1'
_cell_length_a   6.32861094
_cell_length_b   6.32861043
_cell_length_c   41.49947800
_cell_angle_alpha   90.00000000
_cell_angle_beta   85.62699390
_cell_angle_gamma   60.00000085
_symmetry_Int_Tables_number   1
_chemical_formula_structural   MgZr3
_chemical_formula_sum   'Mg10 Zr30'
_cell_volume   1433.83824424
_cell_formula_units_Z   10
loop_
 _symmetry_equiv_pos_site_id
 _symmetry_equiv_pos_as_xyz
  1  'x, y, z'
loop_
 _atom_site_type_symbol
 _atom_site_label
 _atom_site_symmetry_multiplicity
 _atom_site_fract_x
 _atom_site_fract_y
 _atom_site_fract_z
 _atom_site_occupancy
  Mg  Mg0  1  0.81250000  0.84375000  0.21875000  1
  Mg  Mg1  1  0.43750000  0.53125000  0.28125000  1
  Mg  Mg2  1  0.06250000  0.21875000  0.34375000  1
  Mg  Mg3  1  0.68750000  0.90625000  0.40625000  1
  Mg  Mg4  1  0.31250000  0.59375000  0.46875000  1
  Mg  Mg5  1  0.93750000  0.28125000  0.53125000  1
  Mg  Mg6  1  0.56250000  0.96875000  0.59375000  1
  Mg  Mg7  1  0.18750000  0.65625000  0.65625000  1
  Mg  Mg8  1  0.81250000  0.34375000  0.71875000  1
  Mg  Mg9  1  0.43750000  0.03125000  0.78125000  1
  Zr  Zr10  1  0.31250000  0.84375000  0.21875000  1
  Zr  Zr11  1  0.81250000  0.34375000  0.21875000  1
  Zr  Zr12  1  0.31250000  0.34375000  0.21875000  1
  Zr  Zr13  1  0.93750000  0.53125000  0.28125000  1
  Zr  Zr14  1  0.43750000  0.03125000  0.28125000  1
  Zr  Zr15  1  0.93750000  0.03125000  0.28125000  1
  Zr  Zr16  1  0.56250000  0.21875000  0.34375000  1
  Zr  Zr17  1  0.06250000  0.71875000  0.34375000  1
  Zr  Zr18  1  0.56250000  0.71875000  0.34375000  1
  Zr  Zr19  1  0.18750000  0.90625000  0.40625000  1
  Zr  Zr20  1  0.68750000  0.40625000  0.40625000  1
  Zr  Zr21  1  0.18750000  0.40625000  0.40625000  1
  Zr  Zr22  1  0.81250000  0.59375000  0.46875000  1
  Zr  Zr23  1  0.31250000  0.09375000  0.46875000  1
  Zr  Zr24  1  0.81250000  0.09375000  0.46875000  1
  Zr  Zr25  1  0.43750000  0.28125000  0.53125000  1
  Zr  Zr26  1  0.93750000  0.78125000  0.53125000  1
  Zr  Zr27  1  0.43750000  0.78125000  0.53125000  1
  Zr  Zr28  1  0.06250000  0.96875000  0.59375000  1
  Zr  Zr29  1  0.56250000  0.46875000  0.59375000  1
  Zr  Zr30  1  0.06250000  0.46875000  0.59375000  1
  Zr  Zr31  1  0.68750000  0.65625000  0.65625000  1
  Zr  Zr32  1  0.18750000  0.15625000  0.65625000  1
  Zr  Zr33  1  0.68750000  0.15625000  0.65625000  1
  Zr  Zr34  1  0.31250000  0.34375000  0.71875000  1
  Zr  Zr35  1  0.81250000  0.84375000  0.71875000  1
  Zr  Zr36  1  0.31250000  0.84375000  0.71875000  1
  Zr  Zr37  1  0.93750000  0.03125000  0.78125000  1
  Zr  Zr38  1  0.43750000  0.53125000  0.78125000  1
  Zr  Zr39  1  0.93750000  0.53125000  0.78125000  1
