# generated using pymatgen
data_Mg22Ga23
_symmetry_space_group_name_H-M   'P 1'
_cell_length_a   8.03816789
_cell_length_b   8.03816859
_cell_length_c   49.15939500
_cell_angle_alpha   88.74412318
_cell_angle_beta   88.74412307
_cell_angle_gamma   83.19111861
_symmetry_Int_Tables_number   1
_chemical_formula_structural   Mg22Ga23
_chemical_formula_sum   'Mg44 Ga46'
_cell_volume   3152.53743401
_cell_formula_units_Z   2
loop_
 _symmetry_equiv_pos_site_id
 _symmetry_equiv_pos_as_xyz
  1  'x, y, z'
loop_
 _atom_site_type_symbol
 _atom_site_label
 _atom_site_symmetry_multiplicity
 _atom_site_fract_x
 _atom_site_fract_y
 _atom_site_fract_z
 _atom_site_occupancy
  Mg  Mg0  1  0.85510100  0.70967100  0.75874800  1
  Mg  Mg1  1  0.92106900  0.06649900  0.73232400  1
  Mg  Mg2  1  0.29795700  0.15252700  0.73017600  1
  Mg  Mg3  1  0.36392500  0.50935500  0.70375200  1
  Mg  Mg4  1  0.65510100  0.50967100  0.65874800  1
  Mg  Mg5  1  0.97123600  0.70698900  0.68469200  1
  Mg  Mg6  1  0.59064500  0.85489200  0.69923500  1
  Mg  Mg7  1  0.72106900  0.86649900  0.63232400  1
  Mg  Mg8  1  0.09795700  0.95252700  0.63017600  1
  Mg  Mg9  1  0.42838000  0.16413300  0.66326500  1
  Mg  Mg10  1  0.04778900  0.31203600  0.67780800  1
  Mg  Mg11  1  0.16392500  0.30935500  0.60375200  1
  Mg  Mg12  1  0.45510100  0.30967100  0.55874800  1
  Mg  Mg13  1  0.77123600  0.50698900  0.58469200  1
  Mg  Mg14  1  0.39064500  0.65489200  0.59923500  1
  Mg  Mg15  1  0.52106900  0.66649900  0.53232400  1
  Mg  Mg16  1  0.89795700  0.75252700  0.53017600  1
  Mg  Mg17  1  0.22838000  0.96413300  0.56326500  1
  Mg  Mg18  1  0.84778900  0.11203600  0.57780800  1
  Mg  Mg19  1  0.96392500  0.10935500  0.50375200  1
  Mg  Mg20  1  0.25510100  0.10967100  0.45874800  1
  Mg  Mg21  1  0.57123600  0.30698900  0.48469200  1
  Mg  Mg22  1  0.19064500  0.45489200  0.49923500  1
  Mg  Mg23  1  0.32106900  0.46649900  0.43232400  1
  Mg  Mg24  1  0.69795700  0.55252700  0.43017600  1
  Mg  Mg25  1  0.02838000  0.76413300  0.46326500  1
  Mg  Mg26  1  0.64778900  0.91203600  0.47780800  1
  Mg  Mg27  1  0.76392500  0.90935500  0.40375200  1
  Mg  Mg28  1  0.05510100  0.90967100  0.35874800  1
  Mg  Mg29  1  0.37123600  0.10698900  0.38469200  1
  Mg  Mg30  1  0.99064500  0.25489200  0.39923500  1
  Mg  Mg31  1  0.12106900  0.26649900  0.33232400  1
  Mg  Mg32  1  0.49795700  0.35252700  0.33017600  1
  Mg  Mg33  1  0.82838000  0.56413300  0.36326500  1
  Mg  Mg34  1  0.44778900  0.71203600  0.37780800  1
  Mg  Mg35  1  0.56392500  0.70935500  0.30375200  1
  Mg  Mg36  1  0.85510100  0.70967100  0.25874800  1
  Mg  Mg37  1  0.17123600  0.90698900  0.28469200  1
  Mg  Mg38  1  0.79064500  0.05489200  0.29923500  1
  Mg  Mg39  1  0.92106900  0.06649900  0.23232400  1
  Mg  Mg40  1  0.29795700  0.15252700  0.23017600  1
  Mg  Mg41  1  0.62838000  0.36413300  0.26326500  1
  Mg  Mg42  1  0.24778900  0.51203600  0.27780800  1
  Mg  Mg43  1  0.36392500  0.50935500  0.20375200  1
  Ga  Ga44  1  0.48534100  0.69934900  0.74829500  1
  Ga  Ga45  1  0.16769600  0.77021400  0.73246900  1
  Ga  Ga46  1  0.59900800  0.99648900  0.75387000  1
  Ga  Ga47  1  0.62001800  0.22253600  0.70863000  1
  Ga  Ga48  1  0.05133000  0.44881100  0.73003100  1
  Ga  Ga49  1  0.73368500  0.51967700  0.71420500  1
  Ga  Ga50  1  0.28534100  0.49934900  0.64829500  1
  Ga  Ga51  1  0.96769600  0.57021400  0.63246900  1
  Ga  Ga52  1  0.39900800  0.79648900  0.65387000  1
  Ga  Ga53  1  0.18136300  0.96735500  0.68804400  1
  Ga  Ga54  1  0.83766200  0.05167100  0.67445600  1
  Ga  Ga55  1  0.42001800  0.02253600  0.60863000  1
  Ga  Ga56  1  0.85133000  0.24881100  0.63003100  1
  Ga  Ga57  1  0.53368500  0.31967700  0.61420500  1
  Ga  Ga58  1  0.08534100  0.29934900  0.54829500  1
  Ga  Ga59  1  0.76769600  0.37021400  0.53246900  1
  Ga  Ga60  1  0.19900800  0.59648900  0.55387000  1
  Ga  Ga61  1  0.98136300  0.76735500  0.58804400  1
  Ga  Ga62  1  0.63766200  0.85167100  0.57445600  1
  Ga  Ga63  1  0.22001800  0.82253600  0.50863000  1
  Ga  Ga64  1  0.65133000  0.04881100  0.53003100  1
  Ga  Ga65  1  0.33368500  0.11967700  0.51420500  1
  Ga  Ga66  1  0.88534100  0.09934900  0.44829500  1
  Ga  Ga67  1  0.56769600  0.17021400  0.43246900  1
  Ga  Ga68  1  0.99900800  0.39648900  0.45387000  1
  Ga  Ga69  1  0.78136300  0.56735500  0.48804400  1
  Ga  Ga70  1  0.43766200  0.65167100  0.47445600  1
  Ga  Ga71  1  0.02001800  0.62253600  0.40863000  1
  Ga  Ga72  1  0.45133000  0.84881100  0.43003100  1
  Ga  Ga73  1  0.13368500  0.91967700  0.41420500  1
  Ga  Ga74  1  0.68534100  0.89934900  0.34829500  1
  Ga  Ga75  1  0.36769600  0.97021400  0.33246900  1
  Ga  Ga76  1  0.79900800  0.19648900  0.35387000  1
  Ga  Ga77  1  0.58136300  0.36735500  0.38804400  1
  Ga  Ga78  1  0.23766200  0.45167100  0.37445600  1
  Ga  Ga79  1  0.82001800  0.42253600  0.30863000  1
  Ga  Ga80  1  0.25133000  0.64881100  0.33003100  1
  Ga  Ga81  1  0.93368500  0.71967700  0.31420500  1
  Ga  Ga82  1  0.48534100  0.69934900  0.24829500  1
  Ga  Ga83  1  0.16769600  0.77021400  0.23246900  1
  Ga  Ga84  1  0.59900800  0.99648900  0.25387000  1
  Ga  Ga85  1  0.38136300  0.16735500  0.28804400  1
  Ga  Ga86  1  0.03766200  0.25167100  0.27445600  1
  Ga  Ga87  1  0.62001800  0.22253600  0.20863000  1
  Ga  Ga88  1  0.05133000  0.44881100  0.23003100  1
  Ga  Ga89  1  0.73368500  0.51967700  0.21420500  1
