# generated using pymatgen
data_MgIn2
_symmetry_space_group_name_H-M   'P 1'
_cell_length_a   3.55483000
_cell_length_b   11.88564000
_cell_length_c   46.21278900
_cell_angle_alpha   90.00000000
_cell_angle_beta   90.00000000
_cell_angle_gamma   90.00000000
_symmetry_Int_Tables_number   1
_chemical_formula_structural   MgIn2
_chemical_formula_sum   'Mg16 In32'
_cell_volume   1952.55640296
_cell_formula_units_Z   16
loop_
 _symmetry_equiv_pos_site_id
 _symmetry_equiv_pos_as_xyz
  1  'x, y, z'
loop_
 _atom_site_type_symbol
 _atom_site_label
 _atom_site_symmetry_multiplicity
 _atom_site_fract_x
 _atom_site_fract_y
 _atom_site_fract_z
 _atom_site_occupancy
  Mg  Mg0  1  0.00000000  0.00000000  0.25000000  1
  Mg  Mg1  1  0.50000000  0.50000000  0.21153800  1
  Mg  Mg2  1  0.00000000  0.00000000  0.32692300  1
  Mg  Mg3  1  0.50000000  0.50000000  0.28846200  1
  Mg  Mg4  1  0.00000000  0.00000000  0.40384600  1
  Mg  Mg5  1  0.50000000  0.50000000  0.36538500  1
  Mg  Mg6  1  0.00000000  0.00000000  0.48076900  1
  Mg  Mg7  1  0.50000000  0.50000000  0.44230800  1
  Mg  Mg8  1  0.00000000  0.00000000  0.55769200  1
  Mg  Mg9  1  0.50000000  0.50000000  0.51923100  1
  Mg  Mg10  1  0.00000000  0.00000000  0.63461500  1
  Mg  Mg11  1  0.50000000  0.50000000  0.59615400  1
  Mg  Mg12  1  0.00000000  0.00000000  0.71153800  1
  Mg  Mg13  1  0.50000000  0.50000000  0.67307700  1
  Mg  Mg14  1  0.00000000  0.00000000  0.78846200  1
  Mg  Mg15  1  0.50000000  0.50000000  0.75000000  1
  In  In16  1  0.50000000  0.16169900  0.21153800  1
  In  In17  1  0.00000000  0.33830100  0.25000000  1
  In  In18  1  0.00000000  0.66169900  0.25000000  1
  In  In19  1  0.50000000  0.83830100  0.21153800  1
  In  In20  1  0.50000000  0.16169900  0.28846200  1
  In  In21  1  0.00000000  0.33830100  0.32692300  1
  In  In22  1  0.00000000  0.66169900  0.32692300  1
  In  In23  1  0.50000000  0.83830100  0.28846200  1
  In  In24  1  0.50000000  0.16169900  0.36538500  1
  In  In25  1  0.00000000  0.33830100  0.40384600  1
  In  In26  1  0.00000000  0.66169900  0.40384600  1
  In  In27  1  0.50000000  0.83830100  0.36538500  1
  In  In28  1  0.50000000  0.16169900  0.44230800  1
  In  In29  1  0.00000000  0.33830100  0.48076900  1
  In  In30  1  0.00000000  0.66169900  0.48076900  1
  In  In31  1  0.50000000  0.83830100  0.44230800  1
  In  In32  1  0.50000000  0.16169900  0.51923100  1
  In  In33  1  0.00000000  0.33830100  0.55769200  1
  In  In34  1  0.00000000  0.66169900  0.55769200  1
  In  In35  1  0.50000000  0.83830100  0.51923100  1
  In  In36  1  0.50000000  0.16169900  0.59615400  1
  In  In37  1  0.00000000  0.33830100  0.63461500  1
  In  In38  1  0.00000000  0.66169900  0.63461500  1
  In  In39  1  0.50000000  0.83830100  0.59615400  1
  In  In40  1  0.50000000  0.16169900  0.67307700  1
  In  In41  1  0.00000000  0.33830100  0.71153800  1
  In  In42  1  0.00000000  0.66169900  0.71153800  1
  In  In43  1  0.50000000  0.83830100  0.67307700  1
  In  In44  1  0.50000000  0.16169900  0.75000000  1
  In  In45  1  0.00000000  0.33830100  0.78846200  1
  In  In46  1  0.00000000  0.66169900  0.78846200  1
  In  In47  1  0.50000000  0.83830100  0.75000000  1
