# generated using pymatgen
data_Mg3Cd
_symmetry_space_group_name_H-M   'P 1'
_cell_length_a   6.30670400
_cell_length_b   8.12497382
_cell_length_c   44.92856900
_cell_angle_alpha   93.38299134
_cell_angle_beta   90.00000000
_cell_angle_gamma   67.16329262
_symmetry_Int_Tables_number   1
_chemical_formula_structural   Mg3Cd
_chemical_formula_sum   'Mg42 Cd14'
_cell_volume   2117.40690686
_cell_formula_units_Z   14
loop_
 _symmetry_equiv_pos_site_id
 _symmetry_equiv_pos_as_xyz
  1  'x, y, z'
loop_
 _atom_site_type_symbol
 _atom_site_label
 _atom_site_symmetry_multiplicity
 _atom_site_fract_x
 _atom_site_fract_y
 _atom_site_fract_z
 _atom_site_occupancy
  Mg  Mg0  1  0.10644100  0.29101700  0.28483100  1
  Mg  Mg1  1  0.72851700  0.54296600  0.24283900  1
  Mg  Mg2  1  0.60254200  0.29101700  0.28483100  1
  Mg  Mg3  1  0.64355900  0.20898300  0.21516900  1
  Mg  Mg4  1  0.02148300  0.95703400  0.25716100  1
  Mg  Mg5  1  0.14745800  0.20898300  0.21516900  1
  Mg  Mg6  1  0.85644100  0.79101700  0.36816400  1
  Mg  Mg7  1  0.47851700  0.04296600  0.32617200  1
  Mg  Mg8  1  0.35254200  0.79101700  0.36816400  1
  Mg  Mg9  1  0.39355900  0.70898300  0.29850300  1
  Mg  Mg10  1  0.77148300  0.45703400  0.34049400  1
  Mg  Mg11  1  0.89745800  0.70898300  0.29850300  1
  Mg  Mg12  1  0.60644100  0.29101700  0.45149700  1
  Mg  Mg13  1  0.22851700  0.54296600  0.40950600  1
  Mg  Mg14  1  0.10254200  0.29101700  0.45149700  1
  Mg  Mg15  1  0.14355900  0.20898300  0.38183600  1
  Mg  Mg16  1  0.52148300  0.95703400  0.42382800  1
  Mg  Mg17  1  0.64745800  0.20898300  0.38183600  1
  Mg  Mg18  1  0.35644100  0.79101700  0.53483100  1
  Mg  Mg19  1  0.97851700  0.04296600  0.49283900  1
  Mg  Mg20  1  0.85254200  0.79101700  0.53483100  1
  Mg  Mg21  1  0.89355900  0.70898300  0.46516900  1
  Mg  Mg22  1  0.27148300  0.45703400  0.50716100  1
  Mg  Mg23  1  0.39745800  0.70898300  0.46516900  1
  Mg  Mg24  1  0.10644100  0.29101700  0.61816400  1
  Mg  Mg25  1  0.72851700  0.54296600  0.57617200  1
  Mg  Mg26  1  0.60254200  0.29101700  0.61816400  1
  Mg  Mg27  1  0.64355900  0.20898300  0.54850300  1
  Mg  Mg28  1  0.02148300  0.95703400  0.59049400  1
  Mg  Mg29  1  0.14745800  0.20898300  0.54850300  1
  Mg  Mg30  1  0.85644100  0.79101700  0.70149700  1
  Mg  Mg31  1  0.47851700  0.04296600  0.65950600  1
  Mg  Mg32  1  0.35254200  0.79101700  0.70149700  1
  Mg  Mg33  1  0.39355900  0.70898300  0.63183600  1
  Mg  Mg34  1  0.77148300  0.45703400  0.67382800  1
  Mg  Mg35  1  0.89745800  0.70898300  0.63183600  1
  Mg  Mg36  1  0.60644100  0.29101700  0.78483100  1
  Mg  Mg37  1  0.22851700  0.54296600  0.74283900  1
  Mg  Mg38  1  0.10254200  0.29101700  0.78483100  1
  Mg  Mg39  1  0.14355900  0.20898300  0.71516900  1
  Mg  Mg40  1  0.52148300  0.95703400  0.75716100  1
  Mg  Mg41  1  0.64745800  0.20898300  0.71516900  1
  Cd  Cd42  1  0.22916700  0.54166700  0.24305600  1
  Cd  Cd43  1  0.52083300  0.95833300  0.25694400  1
  Cd  Cd44  1  0.97916700  0.04166700  0.32638900  1
  Cd  Cd45  1  0.27083300  0.45833300  0.34027800  1
  Cd  Cd46  1  0.72916700  0.54166700  0.40972200  1
  Cd  Cd47  1  0.02083300  0.95833300  0.42361100  1
  Cd  Cd48  1  0.47916700  0.04166700  0.49305600  1
  Cd  Cd49  1  0.77083300  0.45833300  0.50694400  1
  Cd  Cd50  1  0.22916700  0.54166700  0.57638900  1
  Cd  Cd51  1  0.52083300  0.95833300  0.59027800  1
  Cd  Cd52  1  0.97916700  0.04166700  0.65972200  1
  Cd  Cd53  1  0.27083300  0.45833300  0.67361100  1
  Cd  Cd54  1  0.72916700  0.54166700  0.74305600  1
  Cd  Cd55  1  0.02083300  0.95833300  0.75694400  1
