# generated using pymatgen
data_Mg2Pt
_symmetry_space_group_name_H-M   'P 1'
_cell_length_a   5.33237421
_cell_length_b   5.33237457
_cell_length_c   42.53650900
_cell_angle_alpha   91.75059349
_cell_angle_beta   93.40223052
_cell_angle_gamma   106.43411709
_symmetry_Int_Tables_number   1
_chemical_formula_structural   Mg2Pt
_chemical_formula_sum   'Mg24 Pt12'
_cell_volume   1156.61843804
_cell_formula_units_Z   12
loop_
 _symmetry_equiv_pos_site_id
 _symmetry_equiv_pos_as_xyz
  1  'x, y, z'
loop_
 _atom_site_type_symbol
 _atom_site_label
 _atom_site_symmetry_multiplicity
 _atom_site_fract_x
 _atom_site_fract_y
 _atom_site_fract_z
 _atom_site_occupancy
  Mg  Mg0  1  0.85836000  0.00675200  0.23167200  1
  Mg  Mg1  1  0.42508000  0.42668800  0.21832800  1
  Mg  Mg2  1  0.04164000  0.59324800  0.26832800  1
  Mg  Mg3  1  0.47492000  0.17331200  0.28167200  1
  Mg  Mg4  1  0.35836000  0.60675200  0.33167200  1
  Mg  Mg5  1  0.92508000  0.02668800  0.31832800  1
  Mg  Mg6  1  0.54164000  0.19324800  0.36832800  1
  Mg  Mg7  1  0.97492000  0.77331200  0.38167200  1
  Mg  Mg8  1  0.85836000  0.20675200  0.43167200  1
  Mg  Mg9  1  0.42508000  0.62668800  0.41832800  1
  Mg  Mg10  1  0.04164000  0.79324800  0.46832800  1
  Mg  Mg11  1  0.47492000  0.37331200  0.48167200  1
  Mg  Mg12  1  0.35836000  0.80675200  0.53167200  1
  Mg  Mg13  1  0.92508000  0.22668800  0.51832800  1
  Mg  Mg14  1  0.54164000  0.39324800  0.56832800  1
  Mg  Mg15  1  0.97492000  0.97331200  0.58167200  1
  Mg  Mg16  1  0.85836000  0.40675200  0.63167200  1
  Mg  Mg17  1  0.42508000  0.82668800  0.61832800  1
  Mg  Mg18  1  0.04164000  0.99324800  0.66832800  1
  Mg  Mg19  1  0.47492000  0.57331200  0.68167200  1
  Mg  Mg20  1  0.35836000  0.00675200  0.73167200  1
  Mg  Mg21  1  0.92508000  0.42668800  0.71832800  1
  Mg  Mg22  1  0.54164000  0.59324800  0.76832800  1
  Mg  Mg23  1  0.97492000  0.17331200  0.78167200  1
  Pt  Pt24  1  0.32500000  0.90000000  0.22500000  1
  Pt  Pt25  1  0.57500000  0.70000000  0.27500000  1
  Pt  Pt26  1  0.82500000  0.50000000  0.32500000  1
  Pt  Pt27  1  0.07500000  0.30000000  0.37500000  1
  Pt  Pt28  1  0.32500000  0.10000000  0.42500000  1
  Pt  Pt29  1  0.57500000  0.90000000  0.47500000  1
  Pt  Pt30  1  0.82500000  0.70000000  0.52500000  1
  Pt  Pt31  1  0.07500000  0.50000000  0.57500000  1
  Pt  Pt32  1  0.32500000  0.30000000  0.62500000  1
  Pt  Pt33  1  0.57500000  0.10000000  0.67500000  1
  Pt  Pt34  1  0.82500000  0.90000000  0.72500000  1
  Pt  Pt35  1  0.07500000  0.70000000  0.77500000  1
