# generated using pymatgen
data_Mg3Bi2
_symmetry_space_group_name_H-M   'P 1'
_cell_length_a   7.44665800
_cell_length_b   8.19369200
_cell_length_c   42.57567200
_cell_angle_alpha   90.00000000
_cell_angle_beta   90.00000000
_cell_angle_gamma   90.00000000
_symmetry_Int_Tables_number   1
_chemical_formula_structural   Mg3Bi2
_chemical_formula_sum   'Mg33 Bi22'
_cell_volume   2597.78111261
_cell_formula_units_Z   11
loop_
 _symmetry_equiv_pos_site_id
 _symmetry_equiv_pos_as_xyz
  1  'x, y, z'
loop_
 _atom_site_type_symbol
 _atom_site_label
 _atom_site_symmetry_multiplicity
 _atom_site_fract_x
 _atom_site_fract_y
 _atom_site_fract_z
 _atom_site_occupancy
  Mg  Mg0  1  0.37230600  0.08333300  0.22222200  1
  Mg  Mg1  1  1.00000000  0.75000000  0.22222200  1
  Mg  Mg2  1  0.62769400  0.41666700  0.22222200  1
  Mg  Mg3  1  0.37230600  0.58333300  0.27777800  1
  Mg  Mg4  1  1.00000000  0.25000000  0.27777800  1
  Mg  Mg5  1  0.62769400  0.91666700  0.27777800  1
  Mg  Mg6  1  0.37230600  0.08333300  0.33333300  1
  Mg  Mg7  1  1.00000000  0.75000000  0.33333300  1
  Mg  Mg8  1  0.62769400  0.41666700  0.33333300  1
  Mg  Mg9  1  0.37230600  0.58333300  0.38888900  1
  Mg  Mg10  1  1.00000000  0.25000000  0.38888900  1
  Mg  Mg11  1  0.62769400  0.91666700  0.38888900  1
  Mg  Mg12  1  0.37230600  0.08333300  0.44444400  1
  Mg  Mg13  1  1.00000000  0.75000000  0.44444400  1
  Mg  Mg14  1  0.62769400  0.41666700  0.44444400  1
  Mg  Mg15  1  0.37230600  0.58333300  0.50000000  1
  Mg  Mg16  1  0.00000000  0.25000000  0.50000000  1
  Mg  Mg17  1  0.62769400  0.91666700  0.50000000  1
  Mg  Mg18  1  0.37230600  0.08333300  0.55555600  1
  Mg  Mg19  1  1.00000000  0.75000000  0.55555600  1
  Mg  Mg20  1  0.62769400  0.41666700  0.55555600  1
  Mg  Mg21  1  0.37230600  0.58333300  0.61111100  1
  Mg  Mg22  1  1.00000000  0.25000000  0.61111100  1
  Mg  Mg23  1  0.62769400  0.91666700  0.61111100  1
  Mg  Mg24  1  0.37230600  0.08333300  0.66666700  1
  Mg  Mg25  1  1.00000000  0.75000000  0.66666700  1
  Mg  Mg26  1  0.62769400  0.41666700  0.66666700  1
  Mg  Mg27  1  0.37230600  0.58333300  0.72222200  1
  Mg  Mg28  1  1.00000000  0.25000000  0.72222200  1
  Mg  Mg29  1  0.62769400  0.91666700  0.72222200  1
  Mg  Mg30  1  0.37230600  0.08333300  0.77777800  1
  Mg  Mg31  1  1.00000000  0.75000000  0.77777800  1
  Mg  Mg32  1  0.62769400  0.41666700  0.77777800  1
  Bi  Bi33  1  0.77997000  0.08333300  0.22222200  1
  Bi  Bi34  1  0.22003000  0.41666700  0.22222200  1
  Bi  Bi35  1  0.77997000  0.58333300  0.27777800  1
  Bi  Bi36  1  0.22003000  0.91666700  0.27777800  1
  Bi  Bi37  1  0.77997000  0.08333300  0.33333300  1
  Bi  Bi38  1  0.22003000  0.41666700  0.33333300  1
  Bi  Bi39  1  0.77997000  0.58333300  0.38888900  1
  Bi  Bi40  1  0.22003000  0.91666700  0.38888900  1
  Bi  Bi41  1  0.77997000  0.08333300  0.44444400  1
  Bi  Bi42  1  0.22003000  0.41666700  0.44444400  1
  Bi  Bi43  1  0.77997000  0.58333300  0.50000000  1
  Bi  Bi44  1  0.22003000  0.91666700  0.50000000  1
  Bi  Bi45  1  0.77997000  0.08333300  0.55555600  1
  Bi  Bi46  1  0.22003000  0.41666700  0.55555600  1
  Bi  Bi47  1  0.77997000  0.58333300  0.61111100  1
  Bi  Bi48  1  0.22003000  0.91666700  0.61111100  1
  Bi  Bi49  1  0.77997000  0.08333300  0.66666700  1
  Bi  Bi50  1  0.22003000  0.41666700  0.66666700  1
  Bi  Bi51  1  0.77997000  0.58333300  0.72222200  1
  Bi  Bi52  1  0.22003000  0.91666700  0.72222200  1
  Bi  Bi53  1  0.77997000  0.08333300  0.77777800  1
  Bi  Bi54  1  0.22003000  0.41666700  0.77777800  1
