# generated using pymatgen
data_MgPb2
_symmetry_space_group_name_H-M   'P 1'
_cell_length_a   3.51663700
_cell_length_b   16.41991853
_cell_length_c   45.55389600
_cell_angle_alpha   80.19370075
_cell_angle_beta   90.00000000
_cell_angle_gamma   83.85272232
_symmetry_Int_Tables_number   1
_chemical_formula_structural   MgPb2
_chemical_formula_sum   'Mg18 Pb36'
_cell_volume   2576.63056259
_cell_formula_units_Z   18
loop_
 _symmetry_equiv_pos_site_id
 _symmetry_equiv_pos_as_xyz
  1  'x, y, z'
loop_
 _atom_site_type_symbol
 _atom_site_label
 _atom_site_symmetry_multiplicity
 _atom_site_fract_x
 _atom_site_fract_y
 _atom_site_fract_z
 _atom_site_occupancy
  Mg  Mg0  1  0.13888900  0.22222200  0.22777800  1
  Mg  Mg1  1  0.39444400  0.71111100  0.23888900  1
  Mg  Mg2  1  0.67222200  0.15555600  0.29444400  1
  Mg  Mg3  1  0.92777800  0.64444400  0.30555600  1
  Mg  Mg4  1  0.20555600  0.08888900  0.36111100  1
  Mg  Mg5  1  0.46111100  0.57777800  0.37222200  1
  Mg  Mg6  1  0.73888900  0.02222200  0.42777800  1
  Mg  Mg7  1  0.99444400  0.51111100  0.43888900  1
  Mg  Mg8  1  0.27222200  0.95555600  0.49444400  1
  Mg  Mg9  1  0.52777800  0.44444400  0.50555600  1
  Mg  Mg10  1  0.80555600  0.88888900  0.56111100  1
  Mg  Mg11  1  0.06111100  0.37777800  0.57222200  1
  Mg  Mg12  1  0.33888900  0.82222200  0.62777800  1
  Mg  Mg13  1  0.59444400  0.31111100  0.63888900  1
  Mg  Mg14  1  0.87222200  0.75555600  0.69444400  1
  Mg  Mg15  1  0.12777800  0.24444400  0.70555600  1
  Mg  Mg16  1  0.40555600  0.68888900  0.76111100  1
  Mg  Mg17  1  0.66111100  0.17777800  0.77222200  1
  Pb  Pb18  1  0.23300500  0.03399100  0.26195200  1
  Pb  Pb19  1  0.55588400  0.38823200  0.21582600  1
  Pb  Pb20  1  0.97744900  0.54510200  0.25084100  1
  Pb  Pb21  1  0.30032900  0.89934300  0.20471500  1
  Pb  Pb22  1  0.76633800  0.96732400  0.32861800  1
  Pb  Pb23  1  0.08921800  0.32156500  0.28249300  1
  Pb  Pb24  1  0.51078200  0.47843500  0.31750700  1
  Pb  Pb25  1  0.83366200  0.83267600  0.27138200  1
  Pb  Pb26  1  0.29967100  0.90065700  0.39528500  1
  Pb  Pb27  1  0.62255100  0.25489800  0.34915900  1
  Pb  Pb28  1  0.04411600  0.41176800  0.38417400  1
  Pb  Pb29  1  0.36699500  0.76600900  0.33804800  1
  Pb  Pb30  1  0.83300500  0.83399100  0.46195200  1
  Pb  Pb31  1  0.15588400  0.18823200  0.41582600  1
  Pb  Pb32  1  0.57744900  0.34510200  0.45084100  1
  Pb  Pb33  1  0.90032900  0.69934300  0.40471500  1
  Pb  Pb34  1  0.36633800  0.76732400  0.52861800  1
  Pb  Pb35  1  0.68921800  0.12156500  0.48249300  1
  Pb  Pb36  1  0.11078200  0.27843500  0.51750700  1
  Pb  Pb37  1  0.43366200  0.63267600  0.47138200  1
  Pb  Pb38  1  0.89967100  0.70065700  0.59528500  1
  Pb  Pb39  1  0.22255100  0.05489800  0.54915900  1
  Pb  Pb40  1  0.64411600  0.21176800  0.58417400  1
  Pb  Pb41  1  0.96699500  0.56600900  0.53804800  1
  Pb  Pb42  1  0.43300500  0.63399100  0.66195200  1
  Pb  Pb43  1  0.75588400  0.98823200  0.61582600  1
  Pb  Pb44  1  0.17744900  0.14510200  0.65084100  1
  Pb  Pb45  1  0.50032900  0.49934300  0.60471500  1
  Pb  Pb46  1  0.96633800  0.56732400  0.72861800  1
  Pb  Pb47  1  0.28921800  0.92156500  0.68249300  1
  Pb  Pb48  1  0.71078200  0.07843500  0.71750700  1
  Pb  Pb49  1  0.03366200  0.43267600  0.67138200  1
  Pb  Pb50  1  0.49967100  0.50065700  0.79528500  1
  Pb  Pb51  1  0.82255100  0.85489800  0.74915900  1
  Pb  Pb52  1  0.24411600  0.01176800  0.78417400  1
  Pb  Pb53  1  0.56699500  0.36600900  0.73804800  1
