# generated using pymatgen
data_Ho3Mg13
_symmetry_space_group_name_H-M   'P 1'
_cell_length_a   3.64999800
_cell_length_b   7.17151057
_cell_length_c   56.29675800
_cell_angle_alpha   86.60883805
_cell_angle_beta   90.00000000
_cell_angle_gamma   90.00000000
_symmetry_Int_Tables_number   1
_chemical_formula_structural   Ho3Mg13
_chemical_formula_sum   'Ho6 Mg26'
_cell_volume   1471.04352664
_cell_formula_units_Z   2
loop_
 _symmetry_equiv_pos_site_id
 _symmetry_equiv_pos_as_xyz
  1  'x, y, z'
loop_
 _atom_site_type_symbol
 _atom_site_label
 _atom_site_symmetry_multiplicity
 _atom_site_fract_x
 _atom_site_fract_y
 _atom_site_fract_z
 _atom_site_occupancy
  Ho  Ho0  1  0.50000000  0.95162300  0.38333300  1
  Ho  Ho1  1  0.00000000  0.25162300  0.28333300  1
  Ho  Ho2  1  0.50000000  0.35162300  0.58333300  1
  Ho  Ho3  1  0.00000000  0.65162300  0.48333300  1
  Ho  Ho4  1  0.50000000  0.75162300  0.78333300  1
  Ho  Ho5  1  0.00000000  0.05162300  0.68333300  1
  Mg  Mg6  1  0.50000000  0.97426200  0.31873600  1
  Mg  Mg7  1  0.00000000  0.70822500  0.34891800  1
  Mg  Mg8  1  0.50000000  0.45162300  0.38333300  1
  Mg  Mg9  1  0.50000000  0.49502200  0.31774900  1
  Mg  Mg10  1  0.00000000  0.22898500  0.34793000  1
  Mg  Mg11  1  0.00000000  0.75162300  0.28333300  1
  Mg  Mg12  1  0.50000000  0.37426200  0.51873600  1
  Mg  Mg13  1  0.00000000  0.10822500  0.54891800  1
  Mg  Mg14  1  0.50000000  0.85162300  0.58333300  1
  Mg  Mg15  1  0.50000000  0.89502200  0.51774900  1
  Mg  Mg16  1  0.00000000  0.62898500  0.54793000  1
  Mg  Mg17  1  0.00000000  0.67426200  0.41873600  1
  Mg  Mg18  1  0.50000000  0.40822500  0.44891800  1
  Mg  Mg19  1  0.00000000  0.15162300  0.48333300  1
  Mg  Mg20  1  0.00000000  0.19502200  0.41774900  1
  Mg  Mg21  1  0.50000000  0.92898500  0.44793000  1
  Mg  Mg22  1  0.50000000  0.77426200  0.71873600  1
  Mg  Mg23  1  1.00000000  0.50822500  0.74891800  1
  Mg  Mg24  1  0.50000000  0.25162300  0.78333300  1
  Mg  Mg25  1  0.50000000  0.29502200  0.71774900  1
  Mg  Mg26  1  0.00000000  0.02898500  0.74793000  1
  Mg  Mg27  1  0.00000000  0.07426200  0.61873600  1
  Mg  Mg28  1  0.50000000  0.80822500  0.64891800  1
  Mg  Mg29  1  0.00000000  0.55162300  0.68333300  1
  Mg  Mg30  1  0.00000000  0.59502200  0.61774900  1
  Mg  Mg31  1  0.50000000  0.32898500  0.64793000  1
