# generated using pymatgen
data_Nd2Mg
_symmetry_space_group_name_H-M   'P 1'
_cell_length_a   3.84469700
_cell_length_b   8.93304474
_cell_length_c   45.39277400
_cell_angle_alpha   90.00000000
_cell_angle_beta   90.00000000
_cell_angle_gamma   102.42697722
_symmetry_Int_Tables_number   1
_chemical_formula_structural   Nd2Mg
_chemical_formula_sum   'Nd20 Mg10'
_cell_volume   1522.48212786
_cell_formula_units_Z   10
loop_
 _symmetry_equiv_pos_site_id
 _symmetry_equiv_pos_as_xyz
  1  'x, y, z'
loop_
 _atom_site_type_symbol
 _atom_site_label
 _atom_site_symmetry_multiplicity
 _atom_site_fract_x
 _atom_site_fract_y
 _atom_site_fract_z
 _atom_site_occupancy
  Nd  Nd0  1  0.91294400  0.82588700  0.21875000  1
  Nd  Nd1  1  0.23150900  0.46301700  0.21875000  1
  Nd  Nd2  1  0.08705600  0.17411300  0.28125000  1
  Nd  Nd3  1  0.76849100  0.53698300  0.28125000  1
  Nd  Nd4  1  0.91294400  0.82588700  0.34375000  1
  Nd  Nd5  1  0.23150900  0.46301700  0.34375000  1
  Nd  Nd6  1  0.08705600  0.17411300  0.40625000  1
  Nd  Nd7  1  0.76849100  0.53698300  0.40625000  1
  Nd  Nd8  1  0.91294400  0.82588700  0.46875000  1
  Nd  Nd9  1  0.23150900  0.46301700  0.46875000  1
  Nd  Nd10  1  0.08705600  0.17411300  0.53125000  1
  Nd  Nd11  1  0.76849100  0.53698300  0.53125000  1
  Nd  Nd12  1  0.91294400  0.82588700  0.59375000  1
  Nd  Nd13  1  0.23150900  0.46301700  0.59375000  1
  Nd  Nd14  1  0.08705600  0.17411300  0.65625000  1
  Nd  Nd15  1  0.76849100  0.53698300  0.65625000  1
  Nd  Nd16  1  0.91294400  0.82588700  0.71875000  1
  Nd  Nd17  1  0.23150900  0.46301700  0.71875000  1
  Nd  Nd18  1  0.08705600  0.17411300  0.78125000  1
  Nd  Nd19  1  0.76849100  0.53698300  0.78125000  1
  Mg  Mg20  1  0.57042800  0.14085600  0.21875000  1
  Mg  Mg21  1  0.42957200  0.85914400  0.28125000  1
  Mg  Mg22  1  0.57042800  0.14085600  0.34375000  1
  Mg  Mg23  1  0.42957200  0.85914400  0.40625000  1
  Mg  Mg24  1  0.57042800  0.14085600  0.46875000  1
  Mg  Mg25  1  0.42957200  0.85914400  0.53125000  1
  Mg  Mg26  1  0.57042800  0.14085600  0.59375000  1
  Mg  Mg27  1  0.42957200  0.85914400  0.65625000  1
  Mg  Mg28  1  0.57042800  0.14085600  0.71875000  1
  Mg  Mg29  1  0.42957200  0.85914400  0.78125000  1
