# generated using pymatgen
data_Ho2Mg
_symmetry_space_group_name_H-M   'P 1'
_cell_length_a   3.67361200
_cell_length_b   5.45155000
_cell_length_c   51.20988400
_cell_angle_alpha   90.00000000
_cell_angle_beta   90.00000000
_cell_angle_gamma   90.00000000
_symmetry_Int_Tables_number   1
_chemical_formula_structural   Ho2Mg
_chemical_formula_sum   'Ho16 Mg8'
_cell_volume   1025.57417601
_cell_formula_units_Z   8
loop_
 _symmetry_equiv_pos_site_id
 _symmetry_equiv_pos_as_xyz
  1  'x, y, z'
loop_
 _atom_site_type_symbol
 _atom_site_label
 _atom_site_symmetry_multiplicity
 _atom_site_fract_x
 _atom_site_fract_y
 _atom_site_fract_z
 _atom_site_occupancy
  Ho  Ho0  1  1.00000000  0.75000000  0.44765900  1
  Ho  Ho1  1  0.50000000  0.75000000  0.17422300  1
  Ho  Ho2  1  0.50000000  0.25000000  0.21900700  1
  Ho  Ho3  1  0.00000000  0.25000000  0.49244400  1
  Ho  Ho4  1  0.50000000  0.75000000  0.28099300  1
  Ho  Ho5  1  1.00000000  0.75000000  0.34089000  1
  Ho  Ho6  1  0.00000000  0.25000000  0.38567400  1
  Ho  Ho7  1  0.50000000  0.25000000  0.32577700  1
  Ho  Ho8  1  0.00000000  0.75000000  0.78099300  1
  Ho  Ho9  1  0.50000000  0.75000000  0.50755600  1
  Ho  Ho10  1  0.50000000  0.25000000  0.55234100  1
  Ho  Ho11  1  0.00000000  0.25000000  0.82577700  1
  Ho  Ho12  1  0.50000000  0.75000000  0.61432600  1
  Ho  Ho13  1  0.00000000  0.75000000  0.67422300  1
  Ho  Ho14  1  0.00000000  0.25000000  0.71900700  1
  Ho  Ho15  1  0.50000000  0.25000000  0.65911000  1
  Mg  Mg16  1  0.00000000  0.75000000  0.22794000  1
  Mg  Mg17  1  0.50000000  0.25000000  0.43872700  1
  Mg  Mg18  1  0.50000000  0.75000000  0.39460600  1
  Mg  Mg19  1  0.00000000  0.25000000  0.27206000  1
  Mg  Mg20  1  0.00000000  0.75000000  0.56127300  1
  Mg  Mg21  1  0.50000000  0.25000000  0.77206000  1
  Mg  Mg22  1  0.50000000  0.75000000  0.72794000  1
  Mg  Mg23  1  0.00000000  0.25000000  0.60539400  1
