# generated using pymatgen
data_La3Mg46
_symmetry_space_group_name_H-M   'P 1'
_cell_length_a   5.93651313
_cell_length_b   7.89430397
_cell_length_c   51.29108600
_cell_angle_alpha   88.75318212
_cell_angle_beta   86.68239157
_cell_angle_gamma   67.91388134
_symmetry_Int_Tables_number   1
_chemical_formula_structural   La3Mg46
_chemical_formula_sum   'La3 Mg46'
_cell_volume   2223.61846800
_cell_formula_units_Z   1
loop_
 _symmetry_equiv_pos_site_id
 _symmetry_equiv_pos_as_xyz
  1  'x, y, z'
loop_
 _atom_site_type_symbol
 _atom_site_label
 _atom_site_symmetry_multiplicity
 _atom_site_fract_x
 _atom_site_fract_y
 _atom_site_fract_z
 _atom_site_occupancy
  La  La0  1  0.51028500  0.32008900  0.65934100  1
  La  La1  1  0.08171400  0.32008900  0.51648400  1
  La  La2  1  0.65314300  0.32008900  0.37362600  1
  Mg  Mg3  1  0.72457100  0.32008900  0.73076900  1
  Mg  Mg4  1  0.22457100  0.32008900  0.73076900  1
  Mg  Mg5  1  0.01028500  0.82008900  0.65934100  1
  Mg  Mg6  1  0.51028500  0.82008900  0.65934100  1
  Mg  Mg7  1  0.66153200  0.96718000  0.70975600  1
  Mg  Mg8  1  0.78761100  0.67299700  0.75178200  1
  Mg  Mg9  1  0.14051900  0.96718000  0.75178200  1
  Mg  Mg10  1  0.30862400  0.67299700  0.70975600  1
  Mg  Mg11  1  0.34714200  0.53409000  0.77162600  1
  Mg  Mg12  1  0.10200000  0.10608700  0.68991200  1
  Mg  Mg13  1  0.88799900  0.53409000  0.68991200  1
  Mg  Mg14  1  0.56114300  0.10608700  0.77162600  1
  Mg  Mg15  1  0.29600000  0.32008900  0.58791200  1
  Mg  Mg16  1  0.79600000  0.32008900  0.58791200  1
  Mg  Mg17  1  0.58171400  0.82008900  0.51648400  1
  Mg  Mg18  1  0.08171400  0.82008900  0.51648400  1
  Mg  Mg19  1  0.23296000  0.96718000  0.56689900  1
  Mg  Mg20  1  0.35903900  0.67299700  0.60892500  1
  Mg  Mg21  1  0.71194700  0.96718000  0.60892500  1
  Mg  Mg22  1  0.88005200  0.67299700  0.56689900  1
  Mg  Mg23  1  0.91857100  0.53409000  0.62876900  1
  Mg  Mg24  1  0.67342900  0.10608700  0.54705500  1
  Mg  Mg25  1  0.45942800  0.53409000  0.54705500  1
  Mg  Mg26  1  0.13257200  0.10608700  0.62876900  1
  Mg  Mg27  1  0.86742800  0.32008900  0.44505500  1
  Mg  Mg28  1  0.36742800  0.32008900  0.44505500  1
  Mg  Mg29  1  0.15314300  0.82008900  0.37362600  1
  Mg  Mg30  1  0.65314300  0.82008900  0.37362600  1
  Mg  Mg31  1  0.80438900  0.96718000  0.42404200  1
  Mg  Mg32  1  0.93046800  0.67299700  0.46606800  1
  Mg  Mg33  1  0.28337600  0.96718000  0.46606800  1
  Mg  Mg34  1  0.45148100  0.67299700  0.42404200  1
  Mg  Mg35  1  0.48999900  0.53409000  0.48591200  1
  Mg  Mg36  1  0.24485700  0.10608700  0.40419800  1
  Mg  Mg37  1  0.03085600  0.53409000  0.40419800  1
  Mg  Mg38  1  0.70400000  0.10608700  0.48591200  1
  Mg  Mg39  1  0.43885700  0.32008900  0.30219800  1
  Mg  Mg40  1  0.93885700  0.32008900  0.30219800  1
  Mg  Mg41  1  0.37581700  0.96718000  0.28118500  1
  Mg  Mg42  1  0.50189600  0.67299700  0.32321100  1
  Mg  Mg43  1  0.85480400  0.96718000  0.32321100  1
  Mg  Mg44  1  0.02290900  0.67299700  0.28118500  1
  Mg  Mg45  1  0.06142800  0.53409000  0.34305500  1
  Mg  Mg46  1  0.81628600  0.10608700  0.26134100  1
  Mg  Mg47  1  0.60228500  0.53409000  0.26134100  1
  Mg  Mg48  1  0.27542900  0.10608700  0.34305500  1
