# generated using pymatgen
data_Mg44Zn79
_symmetry_space_group_name_H-M   'P 1'
_cell_length_a   5.07402209
_cell_length_b   22.10207791
_cell_length_c   42.67993100
_cell_angle_alpha   98.00895109
_cell_angle_beta   93.24549340
_cell_angle_gamma   83.83945518
_symmetry_Int_Tables_number   1
_chemical_formula_structural   Mg44Zn79
_chemical_formula_sum   'Mg44 Zn79'
_cell_volume   4708.12433190
_cell_formula_units_Z   1
loop_
 _symmetry_equiv_pos_site_id
 _symmetry_equiv_pos_as_xyz
  1  'x, y, z'
loop_
 _atom_site_type_symbol
 _atom_site_label
 _atom_site_symmetry_multiplicity
 _atom_site_fract_x
 _atom_site_fract_y
 _atom_site_fract_z
 _atom_site_occupancy
  Mg  Mg0  1  0.43106700  0.71391700  0.39387100  1
  Mg  Mg1  1  0.29493200  0.95384500  0.36710500  1
  Mg  Mg2  1  0.06917300  0.38672800  0.33121700  1
  Mg  Mg3  1  0.90531700  0.73390500  0.35557800  1
  Mg  Mg4  1  0.00748200  0.38064100  0.20934200  1
  Mg  Mg5  1  0.71379400  0.96607500  0.20367500  1
  Mg  Mg6  1  0.07521700  0.29569400  0.26462000  1
  Mg  Mg7  1  0.84888900  0.77450800  0.29169500  1
  Mg  Mg8  1  0.61851100  0.20584200  0.25972700  1
  Mg  Mg9  1  0.94672500  0.52777200  0.23793100  1
  Mg  Mg10  1  0.68503400  0.12168500  0.31605600  1
  Mg  Mg11  1  0.13569600  0.30257200  0.38754600  1
  Mg  Mg12  1  0.35260200  0.81670300  0.33993200  1
  Mg  Mg13  1  0.52255600  0.47614300  0.33708300  1
  Mg  Mg14  1  0.23165100  0.03227100  0.31019000  1
  Mg  Mg15  1  0.67898900  0.21271900  0.38265200  1
  Mg  Mg16  1  0.32314000  0.79449700  0.25340200  1
  Mg  Mg17  1  0.24041300  0.94233800  0.24359700  1
  Mg  Mg18  1  0.45927400  0.55456800  0.28016800  1
  Mg  Mg19  1  0.40160500  0.69171000  0.30734000  1
  Mg  Mg20  1  0.23106700  0.31391700  0.59387100  1
  Mg  Mg21  1  0.09493200  0.55384500  0.56710500  1
  Mg  Mg22  1  0.86917300  0.98672800  0.53121700  1
  Mg  Mg23  1  0.70531700  0.33390500  0.55557800  1
  Mg  Mg24  1  0.80748200  0.98064100  0.40934200  1
  Mg  Mg25  1  0.51379400  0.56607500  0.40367500  1
  Mg  Mg26  1  0.87521700  0.89569400  0.46462000  1
  Mg  Mg27  1  0.64888900  0.37450800  0.49169500  1
  Mg  Mg28  1  0.41851100  0.80584200  0.45972700  1
  Mg  Mg29  1  0.74672500  0.12777200  0.43793100  1
  Mg  Mg30  1  0.48503400  0.72168500  0.51605600  1
  Mg  Mg31  1  0.93569600  0.90257200  0.58754600  1
  Mg  Mg32  1  0.15260200  0.41670300  0.53993200  1
  Mg  Mg33  1  0.32255600  0.07614300  0.53708300  1
  Mg  Mg34  1  0.03165100  0.63227100  0.51019000  1
  Mg  Mg35  1  0.47898900  0.81271900  0.58265200  1
  Mg  Mg36  1  0.12314000  0.39449700  0.45340200  1
  Mg  Mg37  1  0.04041300  0.54233800  0.44359700  1
  Mg  Mg38  1  0.25927400  0.15456800  0.48016800  1
  Mg  Mg39  1  0.20160500  0.29171000  0.50734000  1
  Mg  Mg40  1  0.60748200  0.58064100  0.60934200  1
  Mg  Mg41  1  0.31379400  0.16607500  0.60367500  1
  Mg  Mg42  1  0.54672500  0.72777200  0.63793100  1
  Mg  Mg43  1  0.84041300  0.14233800  0.64359700  1
  Zn  Zn44  1  0.53669800  0.33851500  0.23533700  1
  Zn  Zn45  1  0.82912400  0.87807700  0.35300700  1
  Zn  Zn46  1  0.15911000  0.16193100  0.28834800  1
  Zn  Zn47  1  0.63273800  0.66311300  0.24502800  1
  Zn  Zn48  1  0.98404400  0.07957400  0.37257100  1
  Zn  Zn49  1  0.81643600  0.24767000  0.20167000  1
  Zn  Zn50  1  0.87710300  0.25420700  0.32363600  1
  Zn  Zn51  1  0.41750800  0.56989900  0.21193500  1
  Zn  Zn52  1  0.73800100  0.98645000  0.27606200  1
  Zn  Zn53  1  0.26384300  0.42875600  0.27480000  1
  Zn  Zn54  1  0.92932800  0.07187000  0.25256600  1
  Zn  Zn55  1  0.97122400  0.63981400  0.39923500  1
  Zn  Zn56  1  0.57191600  0.33954400  0.29776800  1
  Zn  Zn57  1  0.99349100  0.51716100  0.30834800  1
  Zn  Zn58  1  0.92508300  0.63033600  0.29426500  1
  Zn  Zn59  1  0.01620600  0.52196400  0.37121100  1
  Zn  Zn60  1  0.21969900  0.60973100  0.34604600  1
  Zn  Zn61  1  0.49036300  0.07965700  0.37247200  1
  Zn  Zn62  1  0.13777000  0.66074400  0.24560200  1
  Zn  Zn63  1  0.18229000  0.16886900  0.34950400  1
  Zn  Zn64  1  0.53450800  0.89868200  0.30122700  1
  Zn  Zn65  1  0.77016300  0.42883900  0.27470200  1
  Zn  Zn66  1  0.37710300  0.25420700  0.32363600  1
  Zn  Zn67  1  0.11932300  0.16233400  0.22730400  1
  Zn  Zn68  1  0.43394700  0.07095300  0.25276200  1
  Zn  Zn69  1  0.70514300  0.61187900  0.34588100  1
  Zn  Zn70  1  0.83488400  0.74607900  0.21996900  1
  Zn  Zn71  1  0.04906400  0.89653500  0.30139200  1
  Zn  Zn72  1  0.76071600  0.99125300  0.33892500  1
  Zn  Zn73  1  0.32026000  0.43746100  0.39451000  1
  Zn  Zn74  1  0.32146800  0.24530100  0.20224500  1
  Zn  Zn75  1  0.47710300  0.45420700  0.22363600  1
  Zn  Zn76  1  0.82487900  0.43654300  0.39470600  1
  Zn  Zn77  1  0.78298300  0.86860000  0.24803800  1
  Zn  Zn78  1  0.59509700  0.34648300  0.35892500  1
  Zn  Zn79  1  0.33669800  0.93851500  0.43533700  1
  Zn  Zn80  1  0.62912400  0.47807700  0.55300700  1
  Zn  Zn81  1  0.95911000  0.76193100  0.48834800  1
  Zn  Zn82  1  0.43273800  0.26311300  0.44502800  1
  Zn  Zn83  1  0.78404400  0.67957400  0.57257100  1
  Zn  Zn84  1  0.61643600  0.84767000  0.40167000  1
  Zn  Zn85  1  0.67710300  0.85420700  0.52363600  1
  Zn  Zn86  1  0.21750800  0.16989900  0.41193500  1
  Zn  Zn87  1  0.53800100  0.58645000  0.47606200  1
  Zn  Zn88  1  0.06384300  0.02875600  0.47480000  1
  Zn  Zn89  1  0.72932800  0.67187000  0.45256600  1
  Zn  Zn90  1  0.77122400  0.23981400  0.59923500  1
  Zn  Zn91  1  0.37191600  0.93954400  0.49776800  1
  Zn  Zn92  1  0.79349100  0.11716100  0.50834800  1
  Zn  Zn93  1  0.72508300  0.23033600  0.49426500  1
  Zn  Zn94  1  0.81620600  0.12196400  0.57121100  1
  Zn  Zn95  1  0.01969900  0.20973100  0.54604600  1
  Zn  Zn96  1  0.29036300  0.67965700  0.57247200  1
  Zn  Zn97  1  0.93777000  0.26074400  0.44560200  1
  Zn  Zn98  1  0.98229000  0.76886900  0.54950400  1
  Zn  Zn99  1  0.33450800  0.49868200  0.50122700  1
  Zn  Zn100  1  0.57016300  0.02883900  0.47470200  1
  Zn  Zn101  1  0.17710300  0.85420700  0.52363600  1
  Zn  Zn102  1  0.91932300  0.76233400  0.42730400  1
  Zn  Zn103  1  0.23394700  0.67095300  0.45276200  1
  Zn  Zn104  1  0.50514300  0.21187900  0.54588100  1
  Zn  Zn105  1  0.63488400  0.34607900  0.41996900  1
  Zn  Zn106  1  0.84906400  0.49653500  0.50139200  1
  Zn  Zn107  1  0.56071600  0.59125300  0.53892500  1
  Zn  Zn108  1  0.12026000  0.03746100  0.59451000  1
  Zn  Zn109  1  0.12146800  0.84530100  0.40224500  1
  Zn  Zn110  1  0.27710300  0.05420700  0.42363600  1
  Zn  Zn111  1  0.62487900  0.03654300  0.59470600  1
  Zn  Zn112  1  0.58298300  0.46860000  0.44803800  1
  Zn  Zn113  1  0.39509700  0.94648300  0.55892500  1
  Zn  Zn114  1  0.13669800  0.53851500  0.63533700  1
  Zn  Zn115  1  0.23273800  0.86311300  0.64502800  1
  Zn  Zn116  1  0.41643600  0.44767000  0.60167000  1
  Zn  Zn117  1  0.01750800  0.76989900  0.61193500  1
  Zn  Zn118  1  0.73777000  0.86074400  0.64560200  1
  Zn  Zn119  1  0.71932300  0.36233400  0.62730400  1
  Zn  Zn120  1  0.43488400  0.94607900  0.61996900  1
  Zn  Zn121  1  0.92146800  0.44530100  0.60224500  1
  Zn  Zn122  1  0.07710300  0.65420700  0.62363600  1
