# generated using pymatgen
data_Ba6Mg55
_symmetry_space_group_name_H-M   'P 1'
_cell_length_a   8.04420318
_cell_length_b   8.04420367
_cell_length_c   47.60074400
_cell_angle_alpha   86.88333695
_cell_angle_beta   86.88333676
_cell_angle_gamma   82.20349510
_symmetry_Int_Tables_number   1
_chemical_formula_structural   Ba6Mg55
_chemical_formula_sum   'Ba6 Mg55'
_cell_volume   3043.77964963
_cell_formula_units_Z   1
loop_
 _symmetry_equiv_pos_site_id
 _symmetry_equiv_pos_as_xyz
  1  'x, y, z'
loop_
 _atom_site_type_symbol
 _atom_site_label
 _atom_site_symmetry_multiplicity
 _atom_site_fract_x
 _atom_site_fract_y
 _atom_site_fract_z
 _atom_site_occupancy
  Ba  Ba0  1  0.70891900  0.75731200  0.62804900  1
  Ba  Ba1  1  0.08932700  0.13772000  0.57370500  1
  Ba  Ba2  1  0.87558500  0.92397800  0.46138300  1
  Ba  Ba3  1  0.25599400  0.30438700  0.40703800  1
  Ba  Ba4  1  0.04225200  0.09064500  0.29471600  1
  Ba  Ba5  1  0.42266000  0.47105400  0.24037200  1
  Mg  Mg6  1  0.60831800  0.07165500  0.68421100  1
  Mg  Mg7  1  0.81578900  0.36418300  0.68421100  1
  Mg  Mg8  1  0.02326100  0.65671100  0.68421100  1
  Mg  Mg9  1  0.31578900  0.86418300  0.68421100  1
  Mg  Mg10  1  0.36454400  0.12040900  0.63545600  1
  Mg  Mg11  1  0.80228500  0.85067900  0.54246700  1
  Mg  Mg12  1  0.08024500  0.62293100  0.57500300  1
  Mg  Mg13  1  0.42870700  0.47710000  0.66807900  1
  Mg  Mg14  1  0.07201600  0.41293700  0.63545600  1
  Mg  Mg15  1  0.43370100  0.77462300  0.56629900  1
  Mg  Mg16  1  0.22370800  0.76639400  0.62675200  1
  Mg  Mg17  1  0.36953900  0.41793200  0.53367500  1
  Mg  Mg18  1  0.77498400  0.23832100  0.51754400  1
  Mg  Mg19  1  0.98245600  0.53084900  0.51754400  1
  Mg  Mg20  1  0.72623000  0.48209500  0.56629900  1
  Mg  Mg21  1  0.71800100  0.27210100  0.62675200  1
  Mg  Mg22  1  0.99596000  0.04435300  0.65928700  1
  Mg  Mg23  1  0.57453800  0.12863800  0.57500300  1
  Mg  Mg24  1  0.39912300  0.44751600  0.60087700  1
  Mg  Mg25  1  0.18992800  0.82337800  0.51754400  1
  Mg  Mg26  1  0.48245600  0.03084900  0.51754400  1
  Mg  Mg27  1  0.53121100  0.28707600  0.46878900  1
  Mg  Mg28  1  0.96895200  0.01734500  0.37580100  1
  Mg  Mg29  1  0.24691100  0.78959800  0.40833600  1
  Mg  Mg30  1  0.59537400  0.64376700  0.50141300  1
  Mg  Mg31  1  0.23868300  0.57960400  0.46878900  1
  Mg  Mg32  1  0.60036800  0.94128900  0.39963200  1
  Mg  Mg33  1  0.39037400  0.93306100  0.46008500  1
  Mg  Mg34  1  0.53620500  0.58459900  0.36700800  1
  Mg  Mg35  1  0.94165100  0.40498800  0.35087700  1
  Mg  Mg36  1  0.14912300  0.69751600  0.35087700  1
  Mg  Mg37  1  0.89289600  0.64876100  0.39963200  1
  Mg  Mg38  1  0.88466800  0.43876700  0.46008500  1
  Mg  Mg39  1  0.16262700  0.21102000  0.49262000  1
  Mg  Mg40  1  0.74120500  0.29530500  0.40833600  1
  Mg  Mg41  1  0.56578900  0.61418300  0.43421100  1
  Mg  Mg42  1  0.35659500  0.99004400  0.35087700  1
  Mg  Mg43  1  0.64912300  0.19751600  0.35087700  1
  Mg  Mg44  1  0.69787700  0.45374300  0.30212300  1
  Mg  Mg45  1  0.13561900  0.18401200  0.20913400  1
  Mg  Mg46  1  0.41357800  0.95626500  0.24166900  1
  Mg  Mg47  1  0.76204000  0.81043400  0.33474600  1
  Mg  Mg48  1  0.40534900  0.74627100  0.30212300  1
  Mg  Mg49  1  0.76703500  0.10795600  0.23296500  1
  Mg  Mg50  1  0.55704100  0.09972800  0.29341800  1
  Mg  Mg51  1  0.70287200  0.75126500  0.20034200  1
  Mg  Mg52  1  0.10831800  0.57165500  0.18421100  1
  Mg  Mg53  1  0.31578900  0.86418300  0.18421100  1
  Mg  Mg54  1  0.05956300  0.81542800  0.23296500  1
  Mg  Mg55  1  0.05133400  0.60543400  0.29341800  1
  Mg  Mg56  1  0.32929400  0.37768700  0.32595400  1
  Mg  Mg57  1  0.90787100  0.46197100  0.24166900  1
  Mg  Mg58  1  0.73245600  0.78084900  0.26754400  1
  Mg  Mg59  1  0.52326100  0.15671100  0.18421100  1
  Mg  Mg60  1  0.81578900  0.36418300  0.18421100  1
