# generated using pymatgen
data_MgPd2
_symmetry_space_group_name_H-M   'P 1'
_cell_length_a   5.53884600
_cell_length_b   9.19052430
_cell_length_c   44.98568600
_cell_angle_alpha   95.80261083
_cell_angle_beta   90.00000000
_cell_angle_gamma   90.00000000
_symmetry_Int_Tables_number   1
_chemical_formula_structural   MgPd2
_chemical_formula_sum   'Mg28 Pd56'
_cell_volume   2278.25810925
_cell_formula_units_Z   28
loop_
 _symmetry_equiv_pos_site_id
 _symmetry_equiv_pos_as_xyz
  1  'x, y, z'
loop_
 _atom_site_type_symbol
 _atom_site_label
 _atom_site_symmetry_multiplicity
 _atom_site_fract_x
 _atom_site_fract_y
 _atom_site_fract_z
 _atom_site_occupancy
  Mg  Mg0  1  0.16860900  0.29310500  0.26264400  1
  Mg  Mg1  1  0.83139100  0.54022800  0.23735600  1
  Mg  Mg2  1  0.66860900  0.04022800  0.23735600  1
  Mg  Mg3  1  0.33139100  0.79310500  0.26264400  1
  Mg  Mg4  1  0.16860900  0.12643900  0.34597700  1
  Mg  Mg5  1  0.83139100  0.37356100  0.32068900  1
  Mg  Mg6  1  0.66860900  0.87356100  0.32068900  1
  Mg  Mg7  1  0.33139100  0.62643900  0.34597700  1
  Mg  Mg8  1  0.16860900  0.95977200  0.42931100  1
  Mg  Mg9  1  0.83139100  0.20689500  0.40402300  1
  Mg  Mg10  1  0.66860900  0.70689500  0.40402300  1
  Mg  Mg11  1  0.33139100  0.45977200  0.42931100  1
  Mg  Mg12  1  0.16860900  0.79310500  0.51264400  1
  Mg  Mg13  1  0.83139100  0.04022800  0.48735600  1
  Mg  Mg14  1  0.66860900  0.54022800  0.48735600  1
  Mg  Mg15  1  0.33139100  0.29310500  0.51264400  1
  Mg  Mg16  1  0.16860900  0.62643900  0.59597700  1
  Mg  Mg17  1  0.83139100  0.87356100  0.57068900  1
  Mg  Mg18  1  0.66860900  0.37356100  0.57068900  1
  Mg  Mg19  1  0.33139100  0.12643900  0.59597700  1
  Mg  Mg20  1  0.16860900  0.45977200  0.67931100  1
  Mg  Mg21  1  0.83139100  0.70689500  0.65402300  1
  Mg  Mg22  1  0.66860900  0.20689500  0.65402300  1
  Mg  Mg23  1  0.33139100  0.95977200  0.67931100  1
  Mg  Mg24  1  0.16860900  0.29310500  0.76264400  1
  Mg  Mg25  1  0.83139100  0.54022800  0.73735600  1
  Mg  Mg26  1  0.66860900  0.04022800  0.73735600  1
  Mg  Mg27  1  0.33139100  0.79310500  0.76264400  1
  Pd  Pd28  1  0.15889900  0.01885100  0.23521800  1
  Pd  Pd29  1  0.84110100  0.81448200  0.26478200  1
  Pd  Pd30  1  0.65889900  0.31448200  0.26478200  1
  Pd  Pd31  1  0.34110100  0.51885100  0.23521800  1
  Pd  Pd32  1  0.06807400  0.57157200  0.29049100  1
  Pd  Pd33  1  0.93192600  0.26176100  0.20950900  1
  Pd  Pd34  1  0.56807400  0.76176100  0.20950900  1
  Pd  Pd35  1  0.43192600  0.07157200  0.29049100  1
  Pd  Pd36  1  0.15889900  0.85218400  0.31855200  1
  Pd  Pd37  1  0.84110100  0.64781600  0.34811500  1
  Pd  Pd38  1  0.65889900  0.14781600  0.34811500  1
  Pd  Pd39  1  0.34110100  0.35218400  0.31855200  1
  Pd  Pd40  1  0.06807400  0.40490600  0.37382400  1
  Pd  Pd41  1  0.93192600  0.09509400  0.29284300  1
  Pd  Pd42  1  0.56807400  0.59509400  0.29284300  1
  Pd  Pd43  1  0.43192600  0.90490600  0.37382400  1
  Pd  Pd44  1  0.15889900  0.68551800  0.40188500  1
  Pd  Pd45  1  0.84110100  0.48114900  0.43144800  1
  Pd  Pd46  1  0.65889900  0.98114900  0.43144800  1
  Pd  Pd47  1  0.34110100  0.18551800  0.40188500  1
  Pd  Pd48  1  0.06807400  0.23823900  0.45715700  1
  Pd  Pd49  1  0.93192600  0.92842800  0.37617600  1
  Pd  Pd50  1  0.56807400  0.42842800  0.37617600  1
  Pd  Pd51  1  0.43192600  0.73823900  0.45715700  1
  Pd  Pd52  1  0.15889900  0.51885100  0.48521800  1
  Pd  Pd53  1  0.84110100  0.31448200  0.51478200  1
  Pd  Pd54  1  0.65889900  0.81448200  0.51478200  1
  Pd  Pd55  1  0.34110100  0.01885100  0.48521800  1
  Pd  Pd56  1  0.06807400  0.07157200  0.54049100  1
  Pd  Pd57  1  0.93192600  0.76176100  0.45950900  1
  Pd  Pd58  1  0.56807400  0.26176100  0.45950900  1
  Pd  Pd59  1  0.43192600  0.57157200  0.54049100  1
  Pd  Pd60  1  0.15889900  0.35218400  0.56855200  1
  Pd  Pd61  1  0.84110100  0.14781600  0.59811500  1
  Pd  Pd62  1  0.65889900  0.64781600  0.59811500  1
  Pd  Pd63  1  0.34110100  0.85218400  0.56855200  1
  Pd  Pd64  1  0.06807400  0.90490600  0.62382400  1
  Pd  Pd65  1  0.93192600  0.59509400  0.54284300  1
  Pd  Pd66  1  0.56807400  0.09509400  0.54284300  1
  Pd  Pd67  1  0.43192600  0.40490600  0.62382400  1
  Pd  Pd68  1  0.15889900  0.18551800  0.65188500  1
  Pd  Pd69  1  0.84110100  0.98114900  0.68144800  1
  Pd  Pd70  1  0.65889900  0.48114900  0.68144800  1
  Pd  Pd71  1  0.34110100  0.68551800  0.65188500  1
  Pd  Pd72  1  0.06807400  0.73823900  0.70715700  1
  Pd  Pd73  1  0.93192600  0.42842800  0.62617600  1
  Pd  Pd74  1  0.56807400  0.92842800  0.62617600  1
  Pd  Pd75  1  0.43192600  0.23823900  0.70715700  1
  Pd  Pd76  1  0.15889900  0.01885100  0.73521800  1
  Pd  Pd77  1  0.84110100  0.81448200  0.76478200  1
  Pd  Pd78  1  0.65889900  0.31448200  0.76478200  1
  Pd  Pd79  1  0.34110100  0.51885100  0.73521800  1
  Pd  Pd80  1  0.06807400  0.57157200  0.79049100  1
  Pd  Pd81  1  0.93192600  0.26176100  0.70950900  1
  Pd  Pd82  1  0.56807400  0.76176100  0.70950900  1
  Pd  Pd83  1  0.43192600  0.07157200  0.79049100  1
