# generated using pymatgen
data_Mg14Pd41
_symmetry_space_group_name_H-M   'P 1'
_cell_length_a   3.99223937
_cell_length_b   8.37818128
_cell_length_c   42.70095100
_cell_angle_alpha   85.92323921
_cell_angle_beta   87.32064953
_cell_angle_gamma   76.21659808
_symmetry_Int_Tables_number   1
_chemical_formula_structural   Mg14Pd41
_chemical_formula_sum   'Mg14 Pd41'
_cell_volume   1382.95503653
_cell_formula_units_Z   1
loop_
 _symmetry_equiv_pos_site_id
 _symmetry_equiv_pos_as_xyz
  1  'x, y, z'
loop_
 _atom_site_type_symbol
 _atom_site_label
 _atom_site_symmetry_multiplicity
 _atom_site_fract_x
 _atom_site_fract_y
 _atom_site_fract_z
 _atom_site_occupancy
  Mg  Mg0  1  0.19774900  0.86030200  0.74420100  1
  Mg  Mg1  1  0.88191400  0.42355400  0.81261700  1
  Mg  Mg2  1  0.28865800  0.76939300  0.65329200  1
  Mg  Mg3  1  0.97282300  0.33264500  0.72170800  1
  Mg  Mg4  1  0.37956700  0.67848400  0.56238300  1
  Mg  Mg5  1  0.06373200  0.24173600  0.63079900  1
  Mg  Mg6  1  0.47047600  0.58757500  0.47147400  1
  Mg  Mg7  1  0.15464100  0.15082700  0.53989000  1
  Mg  Mg8  1  0.56138500  0.49666500  0.38056400  1
  Mg  Mg9  1  0.24555000  0.05991800  0.44898100  1
  Mg  Mg10  1  0.65229400  0.40575600  0.28965500  1
  Mg  Mg11  1  0.33646000  0.96900900  0.35807200  1
  Mg  Mg12  1  0.74320300  0.31484700  0.19874600  1
  Mg  Mg13  1  0.42736900  0.87810000  0.26716300  1
  Pd  Pd14  1  0.58528600  0.09647400  0.73295500  1
  Pd  Pd15  1  0.03983100  0.14192800  0.77840900  1
  Pd  Pd16  1  0.81255900  0.61920100  0.75568200  1
  Pd  Pd17  1  0.26710400  0.66465500  0.80113600  1
  Pd  Pd18  1  0.42641100  0.38011200  0.76706700  1
  Pd  Pd19  1  0.65325200  0.90374400  0.78975100  1
  Pd  Pd20  1  0.67619500  0.00556400  0.64204500  1
  Pd  Pd21  1  0.13074000  0.05101900  0.68750000  1
  Pd  Pd22  1  0.90346800  0.52829200  0.66477300  1
  Pd  Pd23  1  0.35801300  0.57374600  0.71022700  1
  Pd  Pd24  1  0.51732000  0.28920300  0.67615800  1
  Pd  Pd25  1  0.74416100  0.81283500  0.69884200  1
  Pd  Pd26  1  0.76710400  0.91465500  0.55113600  1
  Pd  Pd27  1  0.22165000  0.96011000  0.59659100  1
  Pd  Pd28  1  0.99437700  0.43738300  0.57386400  1
  Pd  Pd29  1  0.44892200  0.48283700  0.61931800  1
  Pd  Pd30  1  0.60822900  0.19829400  0.58524900  1
  Pd  Pd31  1  0.83507000  0.72192600  0.60793300  1
  Pd  Pd32  1  0.85801300  0.82374600  0.46022700  1
  Pd  Pd33  1  0.31255900  0.86920100  0.50568200  1
  Pd  Pd34  1  0.08528600  0.34647400  0.48295500  1
  Pd  Pd35  1  0.53983100  0.39192800  0.52840900  1
  Pd  Pd36  1  0.69913800  0.10738500  0.49434000  1
  Pd  Pd37  1  0.92598000  0.63101700  0.51702400  1
  Pd  Pd38  1  0.94892200  0.73283700  0.36931800  1
  Pd  Pd39  1  0.40346800  0.77829200  0.41477300  1
  Pd  Pd40  1  0.17619500  0.25556400  0.39204500  1
  Pd  Pd41  1  0.63074000  0.30101900  0.43750000  1
  Pd  Pd42  1  0.79004700  0.01647600  0.40343100  1
  Pd  Pd43  1  0.01688900  0.54010800  0.42611500  1
  Pd  Pd44  1  0.03983100  0.64192800  0.27840900  1
  Pd  Pd45  1  0.49437700  0.68738300  0.32386400  1
  Pd  Pd46  1  0.26710400  0.16465500  0.30113600  1
  Pd  Pd47  1  0.72165000  0.21011000  0.34659100  1
  Pd  Pd48  1  0.88095600  0.92556700  0.31252200  1
  Pd  Pd49  1  0.10779800  0.44919900  0.33520600  1
  Pd  Pd50  1  0.58528600  0.59647400  0.23295500  1
  Pd  Pd51  1  0.35801300  0.07374600  0.21022700  1
  Pd  Pd52  1  0.81255900  0.11920100  0.25568200  1
  Pd  Pd53  1  0.97186500  0.83465700  0.22161200  1
  Pd  Pd54  1  0.19870700  0.35829000  0.24429700  1
