# generated using pymatgen
data_MgHg2
_symmetry_space_group_name_H-M   'P 1'
_cell_length_a   7.87304361
_cell_length_b   11.82935783
_cell_length_c   43.82095600
_cell_angle_alpha   83.52408281
_cell_angle_beta   92.38860921
_cell_angle_gamma   106.95287248
_symmetry_Int_Tables_number   1
_chemical_formula_structural   MgHg2
_chemical_formula_sum   'Mg36 Hg72'
_cell_volume   3878.75641816
_cell_formula_units_Z   36
loop_
 _symmetry_equiv_pos_site_id
 _symmetry_equiv_pos_as_xyz
  1  'x, y, z'
loop_
 _atom_site_type_symbol
 _atom_site_label
 _atom_site_symmetry_multiplicity
 _atom_site_fract_x
 _atom_site_fract_y
 _atom_site_fract_z
 _atom_site_occupancy
  Mg  Mg0  1  0.58232100  0.43816300  0.23125200  1
  Mg  Mg1  1  0.10193000  0.95658700  0.23303400  1
  Mg  Mg2  1  0.68946300  0.97387700  0.19553700  1
  Mg  Mg3  1  0.20907300  0.49230200  0.19732000  1
  Mg  Mg4  1  0.36803500  0.36673400  0.30268000  1
  Mg  Mg5  1  0.88764400  0.88515900  0.30446300  1
  Mg  Mg6  1  0.47517800  0.90244900  0.26696600  1
  Mg  Mg7  1  0.99478700  0.42087300  0.26874800  1
  Mg  Mg8  1  0.15374900  0.29530600  0.37410900  1
  Mg  Mg9  1  0.67335800  0.81373000  0.37589100  1
  Mg  Mg10  1  0.26089200  0.83102000  0.33839400  1
  Mg  Mg11  1  0.78050100  0.34944400  0.34017700  1
  Mg  Mg12  1  0.93946300  0.22387700  0.44553700  1
  Mg  Mg13  1  0.45907300  0.74230200  0.44732000  1
  Mg  Mg14  1  0.04660600  0.75959100  0.40982300  1
  Mg  Mg15  1  0.56621600  0.27801600  0.41160600  1
  Mg  Mg16  1  0.72517800  0.15244900  0.51696600  1
  Mg  Mg17  1  0.24478700  0.67087300  0.51874800  1
  Mg  Mg18  1  0.83232100  0.68816300  0.48125200  1
  Mg  Mg19  1  0.35193000  0.20658700  0.48303400  1
  Mg  Mg20  1  0.51089200  0.08102000  0.58839400  1
  Mg  Mg21  1  0.03050100  0.59944400  0.59017700  1
  Mg  Mg22  1  0.61803500  0.61673400  0.55268000  1
  Mg  Mg23  1  0.13764400  0.13515900  0.55446300  1
  Mg  Mg24  1  0.29660600  0.00959100  0.65982300  1
  Mg  Mg25  1  0.81621600  0.52801600  0.66160600  1
  Mg  Mg26  1  0.40374900  0.54530600  0.62410900  1
  Mg  Mg27  1  0.92335800  0.06373000  0.62589100  1
  Mg  Mg28  1  0.08232100  0.93816300  0.73125200  1
  Mg  Mg29  1  0.60193000  0.45658700  0.73303400  1
  Mg  Mg30  1  0.18946300  0.47387700  0.69553700  1
  Mg  Mg31  1  0.70907300  0.99230200  0.69732000  1
  Mg  Mg32  1  0.86803500  0.86673400  0.80268000  1
  Mg  Mg33  1  0.38764400  0.38515900  0.80446300  1
  Mg  Mg34  1  0.97517800  0.40244900  0.76696600  1
  Mg  Mg35  1  0.49478700  0.92087300  0.76874800  1
  Hg  Hg36  1  0.83864900  0.31935100  0.20910000  1
  Hg  Hg37  1  0.05988700  0.14682700  0.18375800  1
  Hg  Hg38  1  0.21068300  0.27587500  0.24292100  1
  Hg  Hg39  1  0.47356800  0.11887600  0.22136500  1
  Hg  Hg40  1  0.73150600  0.78363700  0.24481400  1
  Hg  Hg41  1  0.95274400  0.61111300  0.21947200  1
  Hg  Hg42  1  0.31782600  0.81158900  0.20720700  1
  Hg  Hg43  1  0.58071000  0.65459000  0.18565100  1
  Hg  Hg44  1  0.62436300  0.24792300  0.28052800  1
  Hg  Hg45  1  0.84560100  0.07539900  0.25518600  1
  Hg  Hg46  1  0.99639700  0.20444600  0.31434900  1
  Hg  Hg47  1  0.25928200  0.04744700  0.29279300  1
  Hg  Hg48  1  0.51722100  0.71220800  0.31624200  1
  Hg  Hg49  1  0.73845900  0.53968500  0.29090000  1
  Hg  Hg50  1  0.10354000  0.74016000  0.27863500  1
  Hg  Hg51  1  0.36642500  0.58316100  0.25707900  1
  Hg  Hg52  1  0.41007800  0.17649400  0.35195700  1
  Hg  Hg53  1  0.63131600  0.00397000  0.32661500  1
  Hg  Hg54  1  0.78211200  0.13301700  0.38577800  1
  Hg  Hg55  1  0.04499600  0.97601800  0.36422200  1
  Hg  Hg56  1  0.30293500  0.64078000  0.38767100  1
  Hg  Hg57  1  0.52417300  0.46825600  0.36232900  1
  Hg  Hg58  1  0.88925400  0.66873200  0.35006400  1
  Hg  Hg59  1  0.15213900  0.51173300  0.32850800  1
  Hg  Hg60  1  0.19579200  0.10506600  0.42338500  1
  Hg  Hg61  1  0.41703000  0.93254200  0.39804300  1
  Hg  Hg62  1  0.56782600  0.06158900  0.45720700  1
  Hg  Hg63  1  0.83071000  0.90459000  0.43565100  1
  Hg  Hg64  1  0.08864900  0.56935100  0.45910000  1
  Hg  Hg65  1  0.30988700  0.39682700  0.43375800  1
  Hg  Hg66  1  0.67496900  0.59730300  0.42149200  1
  Hg  Hg67  1  0.93785300  0.44030400  0.39993600  1
  Hg  Hg68  1  0.98150600  0.03363700  0.49481400  1
  Hg  Hg69  1  0.20274400  0.86111300  0.46947200  1
  Hg  Hg70  1  0.35354000  0.99016000  0.52863500  1
  Hg  Hg71  1  0.61642500  0.83316100  0.50707900  1
  Hg  Hg72  1  0.87436300  0.49792300  0.53052800  1
  Hg  Hg73  1  0.09560100  0.32539900  0.50518600  1
  Hg  Hg74  1  0.46068300  0.52587500  0.49292100  1
  Hg  Hg75  1  0.72356800  0.36887600  0.47136500  1
  Hg  Hg76  1  0.76722100  0.96220800  0.56624200  1
  Hg  Hg77  1  0.98845900  0.78968500  0.54090000  1
  Hg  Hg78  1  0.13925400  0.91873200  0.60006400  1
  Hg  Hg79  1  0.40213900  0.76173300  0.57850800  1
  Hg  Hg80  1  0.66007800  0.42649400  0.60195700  1
  Hg  Hg81  1  0.88131600  0.25397000  0.57661500  1
  Hg  Hg82  1  0.24639700  0.45444600  0.56434900  1
  Hg  Hg83  1  0.50928200  0.29744700  0.54279300  1
  Hg  Hg84  1  0.55293500  0.89078000  0.63767100  1
  Hg  Hg85  1  0.77417300  0.71825600  0.61232900  1
  Hg  Hg86  1  0.92496900  0.84730300  0.67149200  1
  Hg  Hg87  1  0.18785300  0.69030400  0.64993600  1
  Hg  Hg88  1  0.44579200  0.35506600  0.67338500  1
  Hg  Hg89  1  0.66703000  0.18254200  0.64804300  1
  Hg  Hg90  1  0.03211200  0.38301700  0.63577800  1
  Hg  Hg91  1  0.29499600  0.22601800  0.61422200  1
  Hg  Hg92  1  0.33864900  0.81935100  0.70910000  1
  Hg  Hg93  1  0.55988700  0.64682700  0.68375800  1
  Hg  Hg94  1  0.71068300  0.77587500  0.74292100  1
  Hg  Hg95  1  0.97356800  0.61887600  0.72136500  1
  Hg  Hg96  1  0.23150600  0.28363700  0.74481400  1
  Hg  Hg97  1  0.45274400  0.11111300  0.71947200  1
  Hg  Hg98  1  0.81782600  0.31158900  0.70720700  1
  Hg  Hg99  1  0.08071000  0.15459000  0.68565100  1
  Hg  Hg100  1  0.12436300  0.74792300  0.78052800  1
  Hg  Hg101  1  0.34560100  0.57539900  0.75518600  1
  Hg  Hg102  1  0.49639700  0.70444600  0.81434900  1
  Hg  Hg103  1  0.75928200  0.54744700  0.79279300  1
  Hg  Hg104  1  0.01722100  0.21220800  0.81624200  1
  Hg  Hg105  1  0.23845900  0.03968500  0.79090000  1
  Hg  Hg106  1  0.60354000  0.24016000  0.77863500  1
  Hg  Hg107  1  0.86642500  0.08316100  0.75707900  1
