# generated using pymatgen
data_PrMg14
_symmetry_space_group_name_H-M   'P 1'
_cell_length_a   5.93281560
_cell_length_b   7.86707123
_cell_length_c   51.09080100
_cell_angle_alpha   88.74552175
_cell_angle_beta   86.67145082
_cell_angle_gamma   67.84791274
_symmetry_Int_Tables_number   1
_chemical_formula_structural   PrMg14
_chemical_formula_sum   'Pr3 Mg42'
_cell_volume   2204.86341953
_cell_formula_units_Z   3
loop_
 _symmetry_equiv_pos_site_id
 _symmetry_equiv_pos_as_xyz
  1  'x, y, z'
loop_
 _atom_site_type_symbol
 _atom_site_label
 _atom_site_symmetry_multiplicity
 _atom_site_fract_x
 _atom_site_fract_y
 _atom_site_fract_z
 _atom_site_occupancy
  Pr  Pr0  1  0.40990000  0.49888100  0.68131900  1
  Pr  Pr1  1  0.98132900  0.49888100  0.53846200  1
  Pr  Pr2  1  0.55275700  0.49888100  0.39560400  1
  Mg  Mg3  1  0.90990000  0.99888100  0.68131900  1
  Mg  Mg4  1  0.62418600  0.49888100  0.75274700  1
  Mg  Mg5  1  0.12418600  0.49888100  0.75274700  1
  Mg  Mg6  1  0.40990000  0.99888100  0.68131900  1
  Mg  Mg7  1  0.03975700  0.14663200  0.77385400  1
  Mg  Mg8  1  0.56086400  0.14663200  0.73164000  1
  Mg  Mg9  1  0.68750700  0.85113100  0.77385400  1
  Mg  Mg10  1  0.20861500  0.85113100  0.73164000  1
  Mg  Mg11  1  0.78812900  0.71198100  0.71176200  1
  Mg  Mg12  1  0.81857200  0.71198100  0.65087600  1
  Mg  Mg13  1  0.00122900  0.28578100  0.71176200  1
  Mg  Mg14  1  0.03167200  0.28578100  0.65087600  1
  Mg  Mg15  1  0.48132900  0.99888100  0.53846200  1
  Mg  Mg16  1  0.19561400  0.49888100  0.60989000  1
  Mg  Mg17  1  0.69561400  0.49888100  0.60989000  1
  Mg  Mg18  1  0.98132900  0.99888100  0.53846200  1
  Mg  Mg19  1  0.61118600  0.14663200  0.63099700  1
  Mg  Mg20  1  0.13229300  0.14663200  0.58878300  1
  Mg  Mg21  1  0.25893600  0.85113100  0.63099700  1
  Mg  Mg22  1  0.78004300  0.85113100  0.58878300  1
  Mg  Mg23  1  0.35955700  0.71198100  0.56890400  1
  Mg  Mg24  1  0.39000000  0.71198100  0.50801900  1
  Mg  Mg25  1  0.57265700  0.28578100  0.56890400  1
  Mg  Mg26  1  0.60310000  0.28578100  0.50801900  1
  Mg  Mg27  1  0.05275700  0.99888100  0.39560400  1
  Mg  Mg28  1  0.76704300  0.49888100  0.46703300  1
  Mg  Mg29  1  0.26704300  0.49888100  0.46703300  1
  Mg  Mg30  1  0.55275700  0.99888100  0.39560400  1
  Mg  Mg31  1  0.18261400  0.14663200  0.48814000  1
  Mg  Mg32  1  0.70372100  0.14663200  0.44592600  1
  Mg  Mg33  1  0.83036500  0.85113100  0.48814000  1
  Mg  Mg34  1  0.35147200  0.85113100  0.44592600  1
  Mg  Mg35  1  0.93098600  0.71198100  0.42604700  1
  Mg  Mg36  1  0.96142900  0.71198100  0.36516200  1
  Mg  Mg37  1  0.14408600  0.28578100  0.42604700  1
  Mg  Mg38  1  0.17452900  0.28578100  0.36516200  1
  Mg  Mg39  1  0.33847200  0.49888100  0.32417600  1
  Mg  Mg40  1  0.83847200  0.49888100  0.32417600  1
  Mg  Mg41  1  0.75404300  0.14663200  0.34528300  1
  Mg  Mg42  1  0.27515000  0.14663200  0.30306900  1
  Mg  Mg43  1  0.40179300  0.85113100  0.34528300  1
  Mg  Mg44  1  0.92290000  0.85113100  0.30306900  1
