# generated using pymatgen
data_Mg22Ni47
_symmetry_space_group_name_H-M   'P 1'
_cell_length_a   4.81848500
_cell_length_b   15.71815300
_cell_length_c   41.72930500
_cell_angle_alpha   90.00000000
_cell_angle_beta   90.00000000
_cell_angle_gamma   90.00000000
_symmetry_Int_Tables_number   1
_chemical_formula_structural   Mg22Ni47
_chemical_formula_sum   'Mg44 Ni94'
_cell_volume   3160.48093475
_cell_formula_units_Z   2
loop_
 _symmetry_equiv_pos_site_id
 _symmetry_equiv_pos_as_xyz
  1  'x, y, z'
loop_
 _atom_site_type_symbol
 _atom_site_label
 _atom_site_symmetry_multiplicity
 _atom_site_fract_x
 _atom_site_fract_y
 _atom_site_fract_z
 _atom_site_occupancy
  Mg  Mg0  1  0.54112200  0.90702400  0.28750000  1
  Mg  Mg1  1  0.54112200  0.09297600  0.28750000  1
  Mg  Mg2  1  0.54112200  0.40702400  0.28750000  1
  Mg  Mg3  1  0.54112200  0.59297600  0.28750000  1
  Mg  Mg4  1  0.04112200  0.15594900  0.25416700  1
  Mg  Mg5  1  0.54112200  0.84405100  0.22083300  1
  Mg  Mg6  1  0.54112200  0.65594900  0.22083300  1
  Mg  Mg7  1  0.04112200  0.34405100  0.25416700  1
  Mg  Mg8  1  0.04112200  0.90702400  0.38750000  1
  Mg  Mg9  1  0.04112200  0.09297600  0.38750000  1
  Mg  Mg10  1  0.04112200  0.40702400  0.38750000  1
  Mg  Mg11  1  0.04112200  0.59297600  0.38750000  1
  Mg  Mg12  1  0.54112200  0.15594900  0.35416700  1
  Mg  Mg13  1  0.04112200  0.84405100  0.32083300  1
  Mg  Mg14  1  0.04112200  0.65594900  0.32083300  1
  Mg  Mg15  1  0.54112200  0.34405100  0.35416700  1
  Mg  Mg16  1  0.54112200  0.90702400  0.48750000  1
  Mg  Mg17  1  0.54112200  0.09297600  0.48750000  1
  Mg  Mg18  1  0.54112200  0.40702400  0.48750000  1
  Mg  Mg19  1  0.54112200  0.59297600  0.48750000  1
  Mg  Mg20  1  0.04112200  0.15594900  0.45416700  1
  Mg  Mg21  1  0.54112200  0.84405100  0.42083300  1
  Mg  Mg22  1  0.54112200  0.65594900  0.42083300  1
  Mg  Mg23  1  0.04112200  0.34405100  0.45416700  1
  Mg  Mg24  1  0.04112200  0.90702400  0.58750000  1
  Mg  Mg25  1  0.04112200  0.09297600  0.58750000  1
  Mg  Mg26  1  0.04112200  0.40702400  0.58750000  1
  Mg  Mg27  1  0.04112200  0.59297600  0.58750000  1
  Mg  Mg28  1  0.54112200  0.15594900  0.55416700  1
  Mg  Mg29  1  0.04112200  0.84405100  0.52083300  1
  Mg  Mg30  1  0.04112200  0.65594900  0.52083300  1
  Mg  Mg31  1  0.54112200  0.34405100  0.55416700  1
  Mg  Mg32  1  0.54112200  0.90702400  0.68750000  1
  Mg  Mg33  1  0.54112200  0.09297600  0.68750000  1
  Mg  Mg34  1  0.54112200  0.40702400  0.68750000  1
  Mg  Mg35  1  0.54112200  0.59297600  0.68750000  1
  Mg  Mg36  1  0.04112200  0.15594900  0.65416700  1
  Mg  Mg37  1  0.54112200  0.84405100  0.62083300  1
  Mg  Mg38  1  0.54112200  0.65594900  0.62083300  1
  Mg  Mg39  1  0.04112200  0.34405100  0.65416700  1
  Mg  Mg40  1  0.54112200  0.15594900  0.75416700  1
  Mg  Mg41  1  0.04112200  0.84405100  0.72083300  1
  Mg  Mg42  1  0.04112200  0.65594900  0.72083300  1
  Mg  Mg43  1  0.54112200  0.34405100  0.75416700  1
  Ni  Ni44  1  0.04112200  0.87497400  0.25416700  1
  Ni  Ni45  1  0.54112200  0.12502600  0.22083300  1
  Ni  Ni46  1  0.54112200  0.37497400  0.22083300  1
  Ni  Ni47  1  0.04112200  0.62502600  0.25416700  1
  Ni  Ni48  1  0.79112200  0.00000000  0.23750000  1
  Ni  Ni49  1  0.04112200  0.00000000  0.28750000  1
  Ni  Ni50  1  0.29112200  0.00000000  0.23750000  1
  Ni  Ni51  1  0.79112200  0.50000000  0.23750000  1
  Ni  Ni52  1  0.04112200  0.50000000  0.28750000  1
  Ni  Ni53  1  0.29112200  0.50000000  0.23750000  1
  Ni  Ni54  1  0.29438800  0.75000000  0.27105100  1
  Ni  Ni55  1  0.04112200  0.75000000  0.22039800  1
  Ni  Ni56  1  0.78785700  0.75000000  0.27105100  1
  Ni  Ni57  1  0.28785700  0.25000000  0.20394900  1
  Ni  Ni58  1  0.54112200  0.25000000  0.25460200  1
  Ni  Ni59  1  0.79438800  0.25000000  0.20394900  1
  Ni  Ni60  1  0.54112200  0.87497400  0.35416700  1
  Ni  Ni61  1  0.04112200  0.12502600  0.32083300  1
  Ni  Ni62  1  0.04112200  0.37497400  0.32083300  1
  Ni  Ni63  1  0.54112200  0.62502600  0.35416700  1
  Ni  Ni64  1  0.29112200  0.00000000  0.33750000  1
  Ni  Ni65  1  0.54112200  0.00000000  0.38750000  1
  Ni  Ni66  1  0.79112200  0.00000000  0.33750000  1
  Ni  Ni67  1  0.29112200  0.50000000  0.33750000  1
  Ni  Ni68  1  0.54112200  0.50000000  0.38750000  1
  Ni  Ni69  1  0.79112200  0.50000000  0.33750000  1
  Ni  Ni70  1  0.79438800  0.75000000  0.37105100  1
  Ni  Ni71  1  0.54112200  0.75000000  0.32039800  1
  Ni  Ni72  1  0.28785700  0.75000000  0.37105100  1
  Ni  Ni73  1  0.78785700  0.25000000  0.30394900  1
  Ni  Ni74  1  0.04112200  0.25000000  0.35460200  1
  Ni  Ni75  1  0.29438800  0.25000000  0.30394900  1
  Ni  Ni76  1  0.04112200  0.87497400  0.45416700  1
  Ni  Ni77  1  0.54112200  0.12502600  0.42083300  1
  Ni  Ni78  1  0.54112200  0.37497400  0.42083300  1
  Ni  Ni79  1  0.04112200  0.62502600  0.45416700  1
  Ni  Ni80  1  0.79112200  0.00000000  0.43750000  1
  Ni  Ni81  1  0.04112200  0.00000000  0.48750000  1
  Ni  Ni82  1  0.29112200  0.00000000  0.43750000  1
  Ni  Ni83  1  0.79112200  0.50000000  0.43750000  1
  Ni  Ni84  1  0.04112200  0.50000000  0.48750000  1
  Ni  Ni85  1  0.29112200  0.50000000  0.43750000  1
  Ni  Ni86  1  0.29438800  0.75000000  0.47105100  1
  Ni  Ni87  1  0.04112200  0.75000000  0.42039800  1
  Ni  Ni88  1  0.78785700  0.75000000  0.47105100  1
  Ni  Ni89  1  0.28785700  0.25000000  0.40394900  1
  Ni  Ni90  1  0.54112200  0.25000000  0.45460200  1
  Ni  Ni91  1  0.79438800  0.25000000  0.40394900  1
  Ni  Ni92  1  0.54112200  0.87497400  0.55416700  1
  Ni  Ni93  1  0.04112200  0.12502600  0.52083300  1
  Ni  Ni94  1  0.04112200  0.37497400  0.52083300  1
  Ni  Ni95  1  0.54112200  0.62502600  0.55416700  1
  Ni  Ni96  1  0.29112200  0.00000000  0.53750000  1
  Ni  Ni97  1  0.54112200  0.00000000  0.58750000  1
  Ni  Ni98  1  0.79112200  0.00000000  0.53750000  1
  Ni  Ni99  1  0.29112200  0.50000000  0.53750000  1
  Ni  Ni100  1  0.54112200  0.50000000  0.58750000  1
  Ni  Ni101  1  0.79112200  0.50000000  0.53750000  1
  Ni  Ni102  1  0.79438800  0.75000000  0.57105100  1
  Ni  Ni103  1  0.54112200  0.75000000  0.52039800  1
  Ni  Ni104  1  0.28785700  0.75000000  0.57105100  1
  Ni  Ni105  1  0.78785700  0.25000000  0.50394900  1
  Ni  Ni106  1  0.04112200  0.25000000  0.55460200  1
  Ni  Ni107  1  0.29438800  0.25000000  0.50394900  1
  Ni  Ni108  1  0.04112200  0.87497400  0.65416700  1
  Ni  Ni109  1  0.54112200  0.12502600  0.62083300  1
  Ni  Ni110  1  0.54112200  0.37497400  0.62083300  1
  Ni  Ni111  1  0.04112200  0.62502600  0.65416700  1
  Ni  Ni112  1  0.79112200  0.00000000  0.63750000  1
  Ni  Ni113  1  0.04112200  0.00000000  0.68750000  1
  Ni  Ni114  1  0.29112200  0.00000000  0.63750000  1
  Ni  Ni115  1  0.79112200  0.50000000  0.63750000  1
  Ni  Ni116  1  0.04112200  0.50000000  0.68750000  1
  Ni  Ni117  1  0.29112200  0.50000000  0.63750000  1
  Ni  Ni118  1  0.29438800  0.75000000  0.67105100  1
  Ni  Ni119  1  0.04112200  0.75000000  0.62039800  1
  Ni  Ni120  1  0.78785700  0.75000000  0.67105100  1
  Ni  Ni121  1  0.28785700  0.25000000  0.60394900  1
  Ni  Ni122  1  0.54112200  0.25000000  0.65460200  1
  Ni  Ni123  1  0.79438800  0.25000000  0.60394900  1
  Ni  Ni124  1  0.54112200  0.87497400  0.75416700  1
  Ni  Ni125  1  0.04112200  0.12502600  0.72083300  1
  Ni  Ni126  1  0.04112200  0.37497400  0.72083300  1
  Ni  Ni127  1  0.54112200  0.62502600  0.75416700  1
  Ni  Ni128  1  0.29112200  0.00000000  0.73750000  1
  Ni  Ni129  1  0.79112200  0.00000000  0.73750000  1
  Ni  Ni130  1  0.29112200  0.50000000  0.73750000  1
  Ni  Ni131  1  0.79112200  0.50000000  0.73750000  1
  Ni  Ni132  1  0.79438800  0.75000000  0.77105100  1
  Ni  Ni133  1  0.54112200  0.75000000  0.72039800  1
  Ni  Ni134  1  0.28785700  0.75000000  0.77105100  1
  Ni  Ni135  1  0.78785700  0.25000000  0.70394900  1
  Ni  Ni136  1  0.04112200  0.25000000  0.75460200  1
  Ni  Ni137  1  0.29438800  0.25000000  0.70394900  1
