# generated using pymatgen
data_Nd3Mg35
_symmetry_space_group_name_H-M   'P 1'
_cell_length_a   11.87579713
_cell_length_b   11.87579691
_cell_length_c   45.96386800
_cell_angle_alpha   89.91479299
_cell_angle_beta   90.08520701
_cell_angle_gamma   104.43494196
_symmetry_Int_Tables_number   1
_chemical_formula_structural   Nd3Mg35
_chemical_formula_sum   'Nd12 Mg140'
_cell_volume   6277.83876326
_cell_formula_units_Z   4
loop_
 _symmetry_equiv_pos_site_id
 _symmetry_equiv_pos_as_xyz
  1  'x, y, z'
loop_
 _atom_site_type_symbol
 _atom_site_label
 _atom_site_symmetry_multiplicity
 _atom_site_fract_x
 _atom_site_fract_y
 _atom_site_fract_z
 _atom_site_occupancy
  Nd  Nd0  1  0.15372400  0.84627600  0.28269200  1
  Nd  Nd1  1  0.55372400  0.44627600  0.23269200  1
  Nd  Nd2  1  0.35372400  0.64627600  0.38269200  1
  Nd  Nd3  1  0.75372400  0.24627600  0.33269200  1
  Nd  Nd4  1  0.55372400  0.44627600  0.48269200  1
  Nd  Nd5  1  0.95372400  0.04627600  0.43269200  1
  Nd  Nd6  1  0.75372400  0.24627600  0.58269200  1
  Nd  Nd7  1  0.15372400  0.84627600  0.53269200  1
  Nd  Nd8  1  0.95372400  0.04627600  0.68269200  1
  Nd  Nd9  1  0.35372400  0.64627600  0.63269200  1
  Nd  Nd10  1  0.15372400  0.84627600  0.78269200  1
  Nd  Nd11  1  0.55372400  0.44627600  0.73269200  1
  Mg  Mg12  1  0.48351400  0.30372400  0.30396800  1
  Mg  Mg13  1  0.08333500  0.56472100  0.24749800  1
  Mg  Mg14  1  0.03527900  0.31666500  0.29749800  1
  Mg  Mg15  1  0.27216900  0.37588700  0.26788700  1
  Mg  Mg16  1  0.01117100  0.77606700  0.21141600  1
  Mg  Mg17  1  0.82393300  0.38882900  0.26141600  1
  Mg  Mg18  1  0.02411300  0.32783100  0.21788700  1
  Mg  Mg19  1  0.09627600  0.11648600  0.25396800  1
  Mg  Mg20  1  0.85372400  0.14627600  0.25769200  1
  Mg  Mg21  1  0.35372400  0.14627600  0.25769200  1
  Mg  Mg22  1  0.88351400  0.90372400  0.25396800  1
  Mg  Mg23  1  0.68333500  0.96472100  0.29749800  1
  Mg  Mg24  1  0.43527900  0.91666500  0.24749800  1
  Mg  Mg25  1  0.67216900  0.97588700  0.21788700  1
  Mg  Mg26  1  0.61117100  0.17606700  0.26141600  1
  Mg  Mg27  1  0.85372400  0.64627600  0.25769200  1
  Mg  Mg28  1  0.22393300  0.98882900  0.21141600  1
  Mg  Mg29  1  0.35372400  0.64627600  0.25769200  1
  Mg  Mg30  1  0.62411300  0.72783100  0.26788700  1
  Mg  Mg31  1  0.69627600  0.51648600  0.30396800  1
  Mg  Mg32  1  0.68351400  0.10372400  0.40396800  1
  Mg  Mg33  1  0.28333500  0.36472100  0.34749800  1
  Mg  Mg34  1  0.23527900  0.11666500  0.39749800  1
  Mg  Mg35  1  0.47216900  0.17588700  0.36788700  1
  Mg  Mg36  1  0.21117100  0.57606700  0.31141600  1
  Mg  Mg37  1  0.45372400  0.04627600  0.30769200  1
  Mg  Mg38  1  0.02393300  0.18882900  0.36141600  1
  Mg  Mg39  1  0.95372400  0.04627600  0.30769200  1
  Mg  Mg40  1  0.22411300  0.12783100  0.31788700  1
  Mg  Mg41  1  0.29627600  0.91648600  0.35396800  1
  Mg  Mg42  1  0.05372400  0.94627600  0.35769200  1
  Mg  Mg43  1  0.55372400  0.94627600  0.35769200  1
  Mg  Mg44  1  0.08351400  0.70372400  0.35396800  1
  Mg  Mg45  1  0.88333500  0.76472100  0.39749800  1
  Mg  Mg46  1  0.63527900  0.71666500  0.34749800  1
  Mg  Mg47  1  0.87216900  0.77588700  0.31788700  1
  Mg  Mg48  1  0.81117100  0.97606700  0.36141600  1
  Mg  Mg49  1  0.05372400  0.44627600  0.35769200  1
  Mg  Mg50  1  0.42393300  0.78882900  0.31141600  1
  Mg  Mg51  1  0.55372400  0.44627600  0.35769200  1
  Mg  Mg52  1  0.82411300  0.52783100  0.36788700  1
  Mg  Mg53  1  0.89627600  0.31648600  0.40396800  1
  Mg  Mg54  1  0.45372400  0.54627600  0.30769200  1
  Mg  Mg55  1  0.95372400  0.54627600  0.30769200  1
  Mg  Mg56  1  0.88351400  0.90372400  0.50396800  1
  Mg  Mg57  1  0.48333500  0.16472100  0.44749800  1
  Mg  Mg58  1  0.43527900  0.91666500  0.49749800  1
  Mg  Mg59  1  0.67216900  0.97588700  0.46788700  1
  Mg  Mg60  1  0.41117100  0.37606700  0.41141600  1
  Mg  Mg61  1  0.65372400  0.84627600  0.40769200  1
  Mg  Mg62  1  0.22393300  0.98882900  0.46141600  1
  Mg  Mg63  1  0.15372400  0.84627600  0.40769200  1
  Mg  Mg64  1  0.42411300  0.92783100  0.41788700  1
  Mg  Mg65  1  0.49627600  0.71648600  0.45396800  1
  Mg  Mg66  1  0.25372400  0.74627600  0.45769200  1
  Mg  Mg67  1  0.75372400  0.74627600  0.45769200  1
  Mg  Mg68  1  0.28351400  0.50372400  0.45396800  1
  Mg  Mg69  1  0.08333500  0.56472100  0.49749800  1
  Mg  Mg70  1  0.83527900  0.51666500  0.44749800  1
  Mg  Mg71  1  0.07216900  0.57588700  0.41788700  1
  Mg  Mg72  1  0.01117100  0.77606700  0.46141600  1
  Mg  Mg73  1  0.25372400  0.24627600  0.45769200  1
  Mg  Mg74  1  0.62393300  0.58882900  0.41141600  1
  Mg  Mg75  1  0.75372400  0.24627600  0.45769200  1
  Mg  Mg76  1  0.02411300  0.32783100  0.46788700  1
  Mg  Mg77  1  0.09627600  0.11648600  0.50396800  1
  Mg  Mg78  1  0.65372400  0.34627600  0.40769200  1
  Mg  Mg79  1  0.15372400  0.34627600  0.40769200  1
  Mg  Mg80  1  0.08351400  0.70372400  0.60396800  1
  Mg  Mg81  1  0.68333500  0.96472100  0.54749800  1
  Mg  Mg82  1  0.63527900  0.71666500  0.59749800  1
  Mg  Mg83  1  0.87216900  0.77588700  0.56788700  1
  Mg  Mg84  1  0.61117100  0.17606700  0.51141600  1
  Mg  Mg85  1  0.85372400  0.64627600  0.50769200  1
  Mg  Mg86  1  0.42393300  0.78882900  0.56141600  1
  Mg  Mg87  1  0.35372400  0.64627600  0.50769200  1
  Mg  Mg88  1  0.62411300  0.72783100  0.51788700  1
  Mg  Mg89  1  0.69627600  0.51648600  0.55396800  1
  Mg  Mg90  1  0.45372400  0.54627600  0.55769200  1
  Mg  Mg91  1  0.95372400  0.54627600  0.55769200  1
  Mg  Mg92  1  0.48351400  0.30372400  0.55396800  1
  Mg  Mg93  1  0.28333500  0.36472100  0.59749800  1
  Mg  Mg94  1  0.03527900  0.31666500  0.54749800  1
  Mg  Mg95  1  0.27216900  0.37588700  0.51788700  1
  Mg  Mg96  1  0.21117100  0.57606700  0.56141600  1
  Mg  Mg97  1  0.45372400  0.04627600  0.55769200  1
  Mg  Mg98  1  0.82393300  0.38882900  0.51141600  1
  Mg  Mg99  1  0.95372400  0.04627600  0.55769200  1
  Mg  Mg100  1  0.22411300  0.12783100  0.56788700  1
  Mg  Mg101  1  0.29627600  0.91648600  0.60396800  1
  Mg  Mg102  1  0.85372400  0.14627600  0.50769200  1
  Mg  Mg103  1  0.35372400  0.14627600  0.50769200  1
  Mg  Mg104  1  0.28351400  0.50372400  0.70396800  1
  Mg  Mg105  1  0.88333500  0.76472100  0.64749800  1
  Mg  Mg106  1  0.83527900  0.51666500  0.69749800  1
  Mg  Mg107  1  0.07216900  0.57588700  0.66788700  1
  Mg  Mg108  1  0.81117100  0.97606700  0.61141600  1
  Mg  Mg109  1  0.05372400  0.44627600  0.60769200  1
  Mg  Mg110  1  0.62393300  0.58882900  0.66141600  1
  Mg  Mg111  1  0.55372400  0.44627600  0.60769200  1
  Mg  Mg112  1  0.82411300  0.52783100  0.61788700  1
  Mg  Mg113  1  0.89627600  0.31648600  0.65396800  1
  Mg  Mg114  1  0.65372400  0.34627600  0.65769200  1
  Mg  Mg115  1  0.15372400  0.34627600  0.65769200  1
  Mg  Mg116  1  0.68351400  0.10372400  0.65396800  1
  Mg  Mg117  1  0.48333500  0.16472100  0.69749800  1
  Mg  Mg118  1  0.23527900  0.11666500  0.64749800  1
  Mg  Mg119  1  0.47216900  0.17588700  0.61788700  1
  Mg  Mg120  1  0.41117100  0.37606700  0.66141600  1
  Mg  Mg121  1  0.65372400  0.84627600  0.65769200  1
  Mg  Mg122  1  0.02393300  0.18882900  0.61141600  1
  Mg  Mg123  1  0.15372400  0.84627600  0.65769200  1
  Mg  Mg124  1  0.42411300  0.92783100  0.66788700  1
  Mg  Mg125  1  0.49627600  0.71648600  0.70396800  1
  Mg  Mg126  1  0.05372400  0.94627600  0.60769200  1
  Mg  Mg127  1  0.55372400  0.94627600  0.60769200  1
  Mg  Mg128  1  0.48351400  0.30372400  0.80396800  1
  Mg  Mg129  1  0.08333500  0.56472100  0.74749800  1
  Mg  Mg130  1  0.03527900  0.31666500  0.79749800  1
  Mg  Mg131  1  0.27216900  0.37588700  0.76788700  1
  Mg  Mg132  1  0.01117100  0.77606700  0.71141600  1
  Mg  Mg133  1  0.25372400  0.24627600  0.70769200  1
  Mg  Mg134  1  0.82393300  0.38882900  0.76141600  1
  Mg  Mg135  1  0.75372400  0.24627600  0.70769200  1
  Mg  Mg136  1  0.02411300  0.32783100  0.71788700  1
  Mg  Mg137  1  0.09627600  0.11648600  0.75396800  1
  Mg  Mg138  1  0.85372400  0.14627600  0.75769200  1
  Mg  Mg139  1  0.35372400  0.14627600  0.75769200  1
  Mg  Mg140  1  0.88351400  0.90372400  0.75396800  1
  Mg  Mg141  1  0.68333500  0.96472100  0.79749800  1
  Mg  Mg142  1  0.43527900  0.91666500  0.74749800  1
  Mg  Mg143  1  0.67216900  0.97588700  0.71788700  1
  Mg  Mg144  1  0.61117100  0.17606700  0.76141600  1
  Mg  Mg145  1  0.85372400  0.64627600  0.75769200  1
  Mg  Mg146  1  0.22393300  0.98882900  0.71141600  1
  Mg  Mg147  1  0.35372400  0.64627600  0.75769200  1
  Mg  Mg148  1  0.62411300  0.72783100  0.76788700  1
  Mg  Mg149  1  0.69627600  0.51648600  0.80396800  1
  Mg  Mg150  1  0.25372400  0.74627600  0.70769200  1
  Mg  Mg151  1  0.75372400  0.74627600  0.70769200  1
