# generated using pymatgen
data_Ba11Mg96
_symmetry_space_group_name_H-M   'P 1'
_cell_length_a   10.57649000
_cell_length_b   18.93828387
_cell_length_c   48.26522000
_cell_angle_alpha   99.95427710
_cell_angle_beta   90.00000000
_cell_angle_gamma   73.78540565
_symmetry_Int_Tables_number   1
_chemical_formula_structural   Ba11Mg96
_chemical_formula_sum   'Ba22 Mg192'
_cell_volume   9131.33884670
_cell_formula_units_Z   2
loop_
 _symmetry_equiv_pos_site_id
 _symmetry_equiv_pos_as_xyz
  1  'x, y, z'
loop_
 _atom_site_type_symbol
 _atom_site_label
 _atom_site_symmetry_multiplicity
 _atom_site_fract_x
 _atom_site_fract_y
 _atom_site_fract_z
 _atom_site_occupancy
  Ba  Ba0  1  0.48909700  0.09060200  0.20114900  1
  Ba  Ba1  1  0.71374200  0.64131200  0.31347100  1
  Ba  Ba2  1  0.26687500  0.53504700  0.25670400  1
  Ba  Ba3  1  0.15818600  0.75242300  0.20236000  1
  Ba  Ba4  1  0.04465200  0.97949100  0.31226000  1
  Ba  Ba5  1  0.93596400  0.19686700  0.25791600  1
  Ba  Ba6  1  0.82243000  0.42393500  0.36781500  1
  Ba  Ba7  1  0.04707500  0.97464500  0.48013800  1
  Ba  Ba8  1  0.60020800  0.86838000  0.42337100  1
  Ba  Ba9  1  0.49152000  0.08575600  0.36902700  1
  Ba  Ba10  1  0.37798600  0.31282400  0.47892600  1
  Ba  Ba11  1  0.26929800  0.53020100  0.42458200  1
  Ba  Ba12  1  0.15576400  0.75726900  0.53448200  1
  Ba  Ba13  1  0.38040900  0.30797800  0.64680500  1
  Ba  Ba14  1  0.93354100  0.20171300  0.59003800  1
  Ba  Ba15  1  0.82485300  0.41909000  0.53569300  1
  Ba  Ba16  1  0.71131900  0.64615800  0.64559300  1
  Ba  Ba17  1  0.60263100  0.86353400  0.59124900  1
  Ba  Ba18  1  0.48909700  0.09060200  0.70114900  1
  Ba  Ba19  1  0.26687500  0.53504700  0.75670400  1
  Ba  Ba20  1  0.15818600  0.75242300  0.70236000  1
  Ba  Ba21  1  0.93596400  0.19686700  0.75791600  1
  Mg  Mg22  1  0.85084500  0.07457700  0.19495400  1
  Mg  Mg23  1  0.37412300  0.32055100  0.22794600  1
  Mg  Mg24  1  0.15824500  0.24659900  0.20429200  1
  Mg  Mg25  1  0.56915700  0.93048100  0.24117900  1
  Mg  Mg26  1  0.14337300  0.07457700  0.19495400  1
  Mg  Mg27  1  0.57421600  0.21289200  0.26411100  1
  Mg  Mg28  1  0.53888700  0.48531500  0.31032800  1
  Mg  Mg29  1  0.63368200  0.80143300  0.27344100  1
  Mg  Mg30  1  0.53111400  0.42151300  0.20175400  1
  Mg  Mg31  1  0.10141900  0.36595700  0.25731000  1
  Mg  Mg32  1  0.28168800  0.21289200  0.26411100  1
  Mg  Mg33  1  0.04459400  0.48531500  0.31032800  1
  Mg  Mg34  1  0.82871600  0.41136300  0.28667400  1
  Mg  Mg35  1  0.66395200  0.24659900  0.20429200  1
  Mg  Mg36  1  0.49030800  0.08817900  0.28508800  1
  Mg  Mg37  1  0.11617000  0.42151300  0.20175400  1
  Mg  Mg38  1  0.60141900  0.36595700  0.25731000  1
  Mg  Mg39  1  0.62862300  0.51902200  0.25050900  1
  Mg  Mg40  1  0.15190000  0.76499500  0.28350200  1
  Mg  Mg41  1  0.93602300  0.69104300  0.25984700  1
  Mg  Mg42  1  0.34693500  0.37492600  0.29673400  1
  Mg  Mg43  1  0.92115100  0.51902200  0.25050900  1
  Mg  Mg44  1  0.35199400  0.65733600  0.31966600  1
  Mg  Mg45  1  0.98333200  0.59642600  0.19921700  1
  Mg  Mg46  1  0.07812600  0.91254400  0.16233000  1
  Mg  Mg47  1  0.30889100  0.86595700  0.25731000  1
  Mg  Mg48  1  0.87919700  0.81040100  0.31286500  1
  Mg  Mg49  1  0.05946600  0.65733600  0.31966600  1
  Mg  Mg50  1  0.48903800  0.59642600  0.19921700  1
  Mg  Mg51  1  0.27316100  0.52247400  0.17556300  1
  Mg  Mg52  1  0.44173000  0.69104300  0.25984700  1
  Mg  Mg53  1  0.93475300  0.19929000  0.17397700  1
  Mg  Mg54  1  0.89394800  0.86595700  0.25731000  1
  Mg  Mg55  1  0.37919700  0.81040100  0.31286500  1
  Mg  Mg56  1  0.40640100  0.96346600  0.30606500  1
  Mg  Mg57  1  0.59634500  0.87610600  0.17239000  1
  Mg  Mg58  1  0.71380100  0.13548800  0.31540300  1
  Mg  Mg59  1  0.79138000  0.48603700  0.18562300  1
  Mg  Mg60  1  0.69892900  0.96346600  0.30606500  1
  Mg  Mg61  1  0.79643800  0.76844800  0.20855500  1
  Mg  Mg62  1  0.76110900  0.04087100  0.25477300  1
  Mg  Mg63  1  0.85590400  0.35698800  0.21788500  1
  Mg  Mg64  1  0.08666900  0.31040100  0.31286500  1
  Mg  Mg65  1  0.32364200  0.92151300  0.20175400  1
  Mg  Mg66  1  0.50391000  0.76844800  0.20855500  1
  Mg  Mg67  1  0.26681600  0.04087100  0.25477300  1
  Mg  Mg68  1  0.05093800  0.96691900  0.23111800  1
  Mg  Mg69  1  0.21950700  0.13548800  0.31540300  1
  Mg  Mg70  1  0.71253100  0.64373500  0.22953200  1
  Mg  Mg71  1  0.67172500  0.31040100  0.31286500  1
  Mg  Mg72  1  0.82364200  0.92151300  0.20175400  1
  Mg  Mg73  1  0.18417800  0.40791100  0.36162000  1
  Mg  Mg74  1  0.70745600  0.65388400  0.39461300  1
  Mg  Mg75  1  0.49157900  0.57993200  0.37095800  1
  Mg  Mg76  1  0.90249100  0.26381500  0.40784600  1
  Mg  Mg77  1  0.47670700  0.40791100  0.36162000  1
  Mg  Mg78  1  0.90754900  0.54622500  0.43077700  1
  Mg  Mg79  1  0.87222000  0.81864800  0.47699500  1
  Mg  Mg80  1  0.96701500  0.13476600  0.44010800  1
  Mg  Mg81  1  0.86444700  0.75484600  0.36842100  1
  Mg  Mg82  1  0.43475300  0.69929000  0.42397700  1
  Mg  Mg83  1  0.61502100  0.54622500  0.43077700  1
  Mg  Mg84  1  0.37792700  0.81864800  0.47699500  1
  Mg  Mg85  1  0.16205000  0.74469700  0.45334100  1
  Mg  Mg86  1  0.99728500  0.57993200  0.37095800  1
  Mg  Mg87  1  0.82364200  0.42151300  0.45175400  1
  Mg  Mg88  1  0.44950300  0.75484600  0.36842100  1
  Mg  Mg89  1  0.93475300  0.69929000  0.42397700  1
  Mg  Mg90  1  0.96195600  0.85235500  0.41717600  1
  Mg  Mg91  1  0.48523400  0.09832800  0.45016800  1
  Mg  Mg92  1  0.26935600  0.02437700  0.42651400  1
  Mg  Mg93  1  0.68026800  0.70825900  0.46340100  1
  Mg  Mg94  1  0.25448400  0.85235500  0.41717600  1
  Mg  Mg95  1  0.68532700  0.99067000  0.48633300  1
  Mg  Mg96  1  0.31666500  0.92975900  0.36588400  1
  Mg  Mg97  1  0.41145900  0.24587700  0.32899700  1
  Mg  Mg98  1  0.64222500  0.19929000  0.42397700  1
  Mg  Mg99  1  0.21253100  0.14373500  0.47953200  1
  Mg  Mg100  1  0.39279900  0.99067000  0.48633300  1
  Mg  Mg101  1  0.82237100  0.92975900  0.36588400  1
  Mg  Mg102  1  0.60649400  0.85580800  0.34222900  1
  Mg  Mg103  1  0.77506300  0.02437700  0.42651400  1
  Mg  Mg104  1  0.26808600  0.53262400  0.34064300  1
  Mg  Mg105  1  0.22728100  0.19929000  0.42397700  1
  Mg  Mg106  1  0.71253100  0.14373500  0.47953200  1
  Mg  Mg107  1  0.73973400  0.29680000  0.47273100  1
  Mg  Mg108  1  0.92967800  0.20943900  0.33905700  1
  Mg  Mg109  1  0.04713400  0.46882100  0.48206900  1
  Mg  Mg110  1  0.12471300  0.81937000  0.35229000  1
  Mg  Mg111  1  0.03226200  0.29680000  0.47273100  1
  Mg  Mg112  1  0.12977200  0.10178100  0.37522200  1
  Mg  Mg113  1  0.09444300  0.37420400  0.42143900  1
  Mg  Mg114  1  0.18923700  0.69032200  0.38455200  1
  Mg  Mg115  1  0.42000200  0.64373500  0.47953200  1
  Mg  Mg116  1  0.65697500  0.25484600  0.36842100  1
  Mg  Mg117  1  0.83724300  0.10178100  0.37522200  1
  Mg  Mg118  1  0.60014900  0.37420400  0.42143900  1
  Mg  Mg119  1  0.38427200  0.30025200  0.39778500  1
  Mg  Mg120  1  0.55284100  0.46882100  0.48206900  1
  Mg  Mg121  1  0.04586400  0.97706800  0.39619900  1
  Mg  Mg122  1  0.00505900  0.64373500  0.47953200  1
  Mg  Mg123  1  0.15697500  0.25484600  0.36842100  1
  Mg  Mg124  1  0.51751200  0.74124400  0.52828700  1
  Mg  Mg125  1  0.04078900  0.98721700  0.56127900  1
  Mg  Mg126  1  0.82491200  0.91326600  0.53762500  1
  Mg  Mg127  1  0.23582400  0.59714800  0.57451200  1
  Mg  Mg128  1  0.81004000  0.74124400  0.52828700  1
  Mg  Mg129  1  0.24088300  0.87955900  0.59744400  1
  Mg  Mg130  1  0.20555400  0.15198200  0.64366200  1
  Mg  Mg131  1  0.30034800  0.46809900  0.60677400  1
  Mg  Mg132  1  0.19778000  0.08817900  0.53508800  1
  Mg  Mg133  1  0.76808600  0.03262400  0.59064300  1
  Mg  Mg134  1  0.94835500  0.87955900  0.59744400  1
  Mg  Mg135  1  0.71126000  0.15198200  0.64366200  1
  Mg  Mg136  1  0.49538300  0.07803000  0.62000700  1
  Mg  Mg137  1  0.33061800  0.91326600  0.53762500  1
  Mg  Mg138  1  0.15697500  0.75484600  0.61842100  1
  Mg  Mg139  1  0.78283600  0.08817900  0.53508800  1
  Mg  Mg140  1  0.26808600  0.03262400  0.59064300  1
  Mg  Mg141  1  0.29529000  0.18568900  0.58384200  1
  Mg  Mg142  1  0.81856700  0.43166200  0.61683500  1
  Mg  Mg143  1  0.60269000  0.35771000  0.59318100  1
  Mg  Mg144  1  0.01360200  0.04159200  0.63006800  1
  Mg  Mg145  1  0.58781800  0.18568900  0.58384200  1
  Mg  Mg146  1  0.01866000  0.32400300  0.65300000  1
  Mg  Mg147  1  0.64999800  0.26309300  0.53255000  1
  Mg  Mg148  1  0.74479300  0.57921000  0.49566300  1
  Mg  Mg149  1  0.97555800  0.53262400  0.59064300  1
  Mg  Mg150  1  0.54586400  0.47706800  0.64619900  1
  Mg  Mg151  1  0.72613200  0.32400300  0.65300000  1
  Mg  Mg152  1  0.15570500  0.26309300  0.53255000  1
  Mg  Mg153  1  0.93982700  0.18914100  0.50889600  1
  Mg  Mg154  1  0.10839600  0.35771000  0.59318100  1
  Mg  Mg155  1  0.60141900  0.86595700  0.50731000  1
  Mg  Mg156  1  0.56061400  0.53262400  0.59064300  1
  Mg  Mg157  1  0.04586400  0.47706800  0.64619900  1
  Mg  Mg158  1  0.07306700  0.63013300  0.63939800  1
  Mg  Mg159  1  0.26301200  0.54277300  0.50572400  1
  Mg  Mg160  1  0.38046700  0.80215400  0.64873600  1
  Mg  Mg161  1  0.45804600  0.15270300  0.51895700  1
  Mg  Mg162  1  0.36559500  0.63013300  0.63939800  1
  Mg  Mg163  1  0.46310500  0.43511400  0.54188900  1
  Mg  Mg164  1  0.42777600  0.70753700  0.58810600  1
  Mg  Mg165  1  0.52257000  0.02365500  0.55121900  1
  Mg  Mg166  1  0.75333600  0.97706800  0.64619900  1
  Mg  Mg167  1  0.99030800  0.58817900  0.53508800  1
  Mg  Mg168  1  0.17057700  0.43511400  0.54188900  1
  Mg  Mg169  1  0.93348300  0.70753700  0.58810600  1
  Mg  Mg170  1  0.71760500  0.63358600  0.56445200  1
  Mg  Mg171  1  0.88617400  0.80215400  0.64873600  1
  Mg  Mg172  1  0.37919700  0.31040100  0.56286500  1
  Mg  Mg173  1  0.33839200  0.97706800  0.64619900  1
  Mg  Mg174  1  0.49030800  0.58817900  0.53508800  1
  Mg  Mg175  1  0.85084500  0.07457700  0.69495400  1
  Mg  Mg176  1  0.37412300  0.32055100  0.72794600  1
  Mg  Mg177  1  0.15824500  0.24659900  0.70429200  1
  Mg  Mg178  1  0.56915700  0.93048100  0.74117900  1
  Mg  Mg179  1  0.14337300  0.07457700  0.69495400  1
  Mg  Mg180  1  0.57421600  0.21289200  0.76411100  1
  Mg  Mg181  1  0.63368200  0.80143300  0.77344100  1
  Mg  Mg182  1  0.53111400  0.42151300  0.70175400  1
  Mg  Mg183  1  0.10141900  0.36595700  0.75731000  1
  Mg  Mg184  1  0.28168800  0.21289200  0.76411100  1
  Mg  Mg185  1  0.82871600  0.41136300  0.78667400  1
  Mg  Mg186  1  0.66395200  0.24659900  0.70429200  1
  Mg  Mg187  1  0.49030800  0.08817900  0.78508800  1
  Mg  Mg188  1  0.11617000  0.42151300  0.70175400  1
  Mg  Mg189  1  0.60141900  0.36595700  0.75731000  1
  Mg  Mg190  1  0.62862300  0.51902200  0.75050900  1
  Mg  Mg191  1  0.15190000  0.76499500  0.78350200  1
  Mg  Mg192  1  0.93602300  0.69104300  0.75984700  1
  Mg  Mg193  1  0.34693500  0.37492600  0.79673400  1
  Mg  Mg194  1  0.92115100  0.51902200  0.75050900  1
  Mg  Mg195  1  0.98333200  0.59642600  0.69921700  1
  Mg  Mg196  1  0.07812600  0.91254400  0.66233000  1
  Mg  Mg197  1  0.30889100  0.86595700  0.75731000  1
  Mg  Mg198  1  0.48903800  0.59642600  0.69921700  1
  Mg  Mg199  1  0.27316100  0.52247400  0.67556300  1
  Mg  Mg200  1  0.44173000  0.69104300  0.75984700  1
  Mg  Mg201  1  0.93475300  0.19929000  0.67397700  1
  Mg  Mg202  1  0.89394800  0.86595700  0.75731000  1
  Mg  Mg203  1  0.59634500  0.87610600  0.67239000  1
  Mg  Mg204  1  0.79138000  0.48603700  0.68562300  1
  Mg  Mg205  1  0.79643800  0.76844800  0.70855500  1
  Mg  Mg206  1  0.76110900  0.04087100  0.75477300  1
  Mg  Mg207  1  0.85590400  0.35698800  0.71788500  1
  Mg  Mg208  1  0.32364200  0.92151300  0.70175400  1
  Mg  Mg209  1  0.50391000  0.76844800  0.70855500  1
  Mg  Mg210  1  0.26681600  0.04087100  0.75477300  1
  Mg  Mg211  1  0.05093800  0.96691900  0.73111800  1
  Mg  Mg212  1  0.71253100  0.64373500  0.72953200  1
  Mg  Mg213  1  0.82364200  0.92151300  0.70175400  1
