# generated using pymatgen
data_Mg17Zn28
_symmetry_space_group_name_H-M   'P 1'
_cell_length_a   5.07402229
_cell_length_b   14.70723601
_cell_length_c   50.49845100
_cell_angle_alpha   88.21601723
_cell_angle_beta   89.67566990
_cell_angle_gamma   90.29193359
_symmetry_Int_Tables_number   1
_chemical_formula_structural   Mg17Zn28
_chemical_formula_sum   'Mg34 Zn56'
_cell_volume   3766.49971225
_cell_formula_units_Z   2
loop_
 _symmetry_equiv_pos_site_id
 _symmetry_equiv_pos_as_xyz
  1  'x, y, z'
loop_
 _atom_site_type_symbol
 _atom_site_label
 _atom_site_symmetry_multiplicity
 _atom_site_fract_x
 _atom_site_fract_y
 _atom_site_fract_z
 _atom_site_occupancy
  Mg  Mg0  1  0.16256700  0.86936400  0.48320300  1
  Mg  Mg1  1  0.15978000  0.13581600  0.40314600  1
  Mg  Mg2  1  0.66595800  0.84648300  0.44948600  1
  Mg  Mg3  1  0.66460900  0.22210800  0.42812500  1
  Mg  Mg4  1  0.66223100  0.18502200  0.49082100  1
  Mg  Mg5  1  0.66177300  0.81738300  0.39142300  1
  Mg  Mg6  1  0.66312200  0.44175800  0.41278400  1
  Mg  Mg7  1  0.16246400  0.93042300  0.41705200  1
  Mg  Mg8  1  0.16356200  0.50116100  0.50005500  1
  Mg  Mg9  1  0.16416800  0.16270400  0.34085400  1
  Mg  Mg10  1  0.66550000  0.47884300  0.35008800  1
  Mg  Mg11  1  0.16516400  0.79450200  0.35770600  1
  Mg  Mg12  1  0.16795100  0.52804900  0.43776300  1
  Mg  Mg13  1  0.16526600  0.73344200  0.42385700  1
  Mg  Mg14  1  0.66256700  0.61936400  0.73320300  1
  Mg  Mg15  1  0.65978000  0.88581600  0.65314600  1
  Mg  Mg16  1  0.66840500  0.38206000  0.51801000  1
  Mg  Mg17  1  0.16595800  0.59648300  0.69948600  1
  Mg  Mg18  1  0.16460900  0.97210800  0.67812500  1
  Mg  Mg19  1  0.16647100  0.69681700  0.52751700  1
  Mg  Mg20  1  0.16223100  0.93502200  0.74082100  1
  Mg  Mg21  1  0.16177300  0.56738300  0.64142300  1
  Mg  Mg22  1  0.16304500  0.06658900  0.50961400  1
  Mg  Mg23  1  0.16312200  0.19175800  0.66278400  1
  Mg  Mg24  1  0.15932500  0.03180500  0.57289900  1
  Mg  Mg25  1  0.66468600  0.34727600  0.58129500  1
  Mg  Mg26  1  0.66246400  0.68042300  0.66705200  1
  Mg  Mg27  1  0.66356200  0.25116100  0.75005500  1
  Mg  Mg28  1  0.66416800  0.91270400  0.59085400  1
  Mg  Mg29  1  0.16550000  0.22884300  0.60008800  1
  Mg  Mg30  1  0.66516400  0.54450200  0.60770600  1
  Mg  Mg31  1  0.66126000  0.71704800  0.56339200  1
  Mg  Mg32  1  0.66795100  0.27804900  0.68776300  1
  Mg  Mg33  1  0.66526600  0.48344200  0.67385700  1
  Zn  Zn34  1  0.15976400  0.20194400  0.45815300  1
  Zn  Zn35  1  0.66313600  0.02348500  0.41151500  1
  Zn  Zn36  1  0.41325800  0.61980500  0.38427200  1
  Zn  Zn37  1  0.90902300  0.29981000  0.37581300  1
  Zn  Zn38  1  0.41091300  0.04630400  0.45561400  1
  Zn  Zn39  1  0.16796700  0.46192100  0.38275600  1
  Zn  Zn40  1  0.91229800  0.36407400  0.46519000  1
  Zn  Zn41  1  0.66937400  0.51651500  0.46825000  1
  Zn  Zn42  1  0.66459500  0.64038100  0.42939400  1
  Zn  Zn43  1  0.92301800  0.67935000  0.47338000  1
  Zn  Zn44  1  0.41543300  0.29979100  0.37571900  1
  Zn  Zn45  1  0.91681800  0.61756100  0.38529500  1
  Zn  Zn46  1  0.40471300  0.98451600  0.36752900  1
  Zn  Zn47  1  0.41870800  0.36405600  0.46509600  1
  Zn  Zn48  1  0.65831500  0.97167600  0.49617300  1
  Zn  Zn49  1  0.40961900  0.68182900  0.47272000  1
  Zn  Zn50  1  0.66941600  0.69218900  0.34473600  1
  Zn  Zn51  1  0.91811200  0.98203700  0.36818900  1
  Zn  Zn52  1  0.65835700  0.14735100  0.37265900  1
  Zn  Zn53  1  0.91447300  0.04406100  0.45663700  1
  Zn  Zn54  1  0.16386500  0.33193300  0.42045500  1
  Zn  Zn55  1  0.65976400  0.95194400  0.70815300  1
  Zn  Zn56  1  0.16313600  0.77348500  0.66151500  1
  Zn  Zn57  1  0.66737800  0.04747800  0.54205700  1
  Zn  Zn58  1  0.91325800  0.36980500  0.63427200  1
  Zn  Zn59  1  0.40902300  0.04981000  0.62581300  1
  Zn  Zn60  1  0.91091300  0.79630400  0.70561400  1
  Zn  Zn61  1  0.41386500  0.20693300  0.54545500  1
  Zn  Zn62  1  0.66796700  0.21192100  0.63275600  1
  Zn  Zn63  1  0.16467200  0.81276800  0.57671300  1
  Zn  Zn64  1  0.41229800  0.11407400  0.71519000  1
  Zn  Zn65  1  0.41045700  0.89017500  0.53773600  1
  Zn  Zn66  1  0.66299000  0.78344000  0.50575100  1
  Zn  Zn67  1  0.16428100  0.28126900  0.50471900  1
  Zn  Zn68  1  0.16937400  0.26651500  0.71825000  1
  Zn  Zn69  1  0.16459500  0.39038100  0.67939400  1
  Zn  Zn70  1  0.66305900  0.60109700  0.51419600  1
  Zn  Zn71  1  0.42301800  0.42935000  0.72338000  1
  Zn  Zn72  1  0.91543300  0.04979100  0.62571900  1
  Zn  Zn73  1  0.41681800  0.36756100  0.63529500  1
  Zn  Zn74  1  0.66345000  0.13259600  0.58619000  1
  Zn  Zn75  1  0.90471300  0.73451600  0.61752900  1
  Zn  Zn76  1  0.91870800  0.11405600  0.71509600  1
  Zn  Zn77  1  0.91386500  0.20693300  0.54545500  1
  Zn  Zn78  1  0.15831500  0.72167600  0.74617300  1
  Zn  Zn79  1  0.91451900  0.88927300  0.53811200  1
  Zn  Zn80  1  0.90961900  0.43182900  0.72272000  1
  Zn  Zn81  1  0.16941600  0.44218900  0.59473600  1
  Zn  Zn82  1  0.41811200  0.73203700  0.61818900  1
  Zn  Zn83  1  0.15835700  0.89735100  0.62265900  1
  Zn  Zn84  1  0.91321200  0.52459300  0.55279700  1
  Zn  Zn85  1  0.41447300  0.79406100  0.70663700  1
  Zn  Zn86  1  0.66386500  0.08193300  0.67045500  1
  Zn  Zn87  1  0.41727400  0.52369100  0.55317300  1
  Zn  Zn88  1  0.16474100  0.63042600  0.58515800  1
  Zn  Zn89  1  0.16035300  0.36638800  0.54885200  1
