# generated using pymatgen
data_Mg2Ga5
_symmetry_space_group_name_H-M   'P 1'
_cell_length_a   8.80393500
_cell_length_b   8.80393500
_cell_length_c   49.23312600
_cell_angle_alpha   90.00000000
_cell_angle_beta   90.00000000
_cell_angle_gamma   90.00000000
_symmetry_Int_Tables_number   1
_chemical_formula_structural   Mg2Ga5
_chemical_formula_sum   'Mg32 Ga80'
_cell_volume   3816.02372915
_cell_formula_units_Z   16
loop_
 _symmetry_equiv_pos_site_id
 _symmetry_equiv_pos_as_xyz
  1  'x, y, z'
loop_
 _atom_site_type_symbol
 _atom_site_label
 _atom_site_symmetry_multiplicity
 _atom_site_fract_x
 _atom_site_fract_y
 _atom_site_fract_z
 _atom_site_occupancy
  Mg  Mg0  1  0.20097600  0.20097600  0.25000000  1
  Mg  Mg1  1  0.70097600  0.29902400  0.32142900  1
  Mg  Mg2  1  0.79902400  0.20097600  0.25000000  1
  Mg  Mg3  1  0.29902400  0.29902400  0.32142900  1
  Mg  Mg4  1  0.70097600  0.70097600  0.32142900  1
  Mg  Mg5  1  0.20097600  0.79902400  0.25000000  1
  Mg  Mg6  1  0.29902400  0.70097600  0.32142900  1
  Mg  Mg7  1  0.79902400  0.79902400  0.25000000  1
  Mg  Mg8  1  0.20097600  0.20097600  0.39285700  1
  Mg  Mg9  1  0.70097600  0.29902400  0.46428600  1
  Mg  Mg10  1  0.79902400  0.20097600  0.39285700  1
  Mg  Mg11  1  0.29902400  0.29902400  0.46428600  1
  Mg  Mg12  1  0.70097600  0.70097600  0.46428600  1
  Mg  Mg13  1  0.20097600  0.79902400  0.39285700  1
  Mg  Mg14  1  0.29902400  0.70097600  0.46428600  1
  Mg  Mg15  1  0.79902400  0.79902400  0.39285700  1
  Mg  Mg16  1  0.20097600  0.20097600  0.53571400  1
  Mg  Mg17  1  0.70097600  0.29902400  0.60714300  1
  Mg  Mg18  1  0.79902400  0.20097600  0.53571400  1
  Mg  Mg19  1  0.29902400  0.29902400  0.60714300  1
  Mg  Mg20  1  0.70097600  0.70097600  0.60714300  1
  Mg  Mg21  1  0.20097600  0.79902400  0.53571400  1
  Mg  Mg22  1  0.29902400  0.70097600  0.60714300  1
  Mg  Mg23  1  0.79902400  0.79902400  0.53571400  1
  Mg  Mg24  1  0.20097600  0.20097600  0.67857100  1
  Mg  Mg25  1  0.70097600  0.29902400  0.75000000  1
  Mg  Mg26  1  0.79902400  0.20097600  0.67857100  1
  Mg  Mg27  1  0.29902400  0.29902400  0.75000000  1
  Mg  Mg28  1  0.70097600  0.70097600  0.75000000  1
  Mg  Mg29  1  0.20097600  0.79902400  0.67857100  1
  Mg  Mg30  1  0.29902400  0.70097600  0.75000000  1
  Mg  Mg31  1  0.79902400  0.79902400  0.67857100  1
  Ga  Ga32  1  1.00000000  0.70404000  0.29508900  1
  Ga  Ga33  1  0.79596000  0.50000000  0.22366100  1
  Ga  Ga34  1  0.20404000  0.50000000  0.22366100  1
  Ga  Ga35  1  1.00000000  0.29596000  0.29508900  1
  Ga  Ga36  1  0.00000000  0.00000000  0.22020000  1
  Ga  Ga37  1  0.00000000  0.00000000  0.27980000  1
  Ga  Ga38  1  0.20404000  0.50000000  0.27633900  1
  Ga  Ga39  1  1.00000000  0.29596000  0.34776800  1
  Ga  Ga40  1  1.00000000  0.70404000  0.34776800  1
  Ga  Ga41  1  0.79596000  0.50000000  0.27633900  1
  Ga  Ga42  1  0.50000000  0.20404000  0.22366100  1
  Ga  Ga43  1  0.29596000  0.00000000  0.29508900  1
  Ga  Ga44  1  0.70404000  0.00000000  0.29508900  1
  Ga  Ga45  1  0.50000000  0.79596000  0.22366100  1
  Ga  Ga46  1  0.50000000  0.50000000  0.29162900  1
  Ga  Ga47  1  0.50000000  0.50000000  0.35122900  1
  Ga  Ga48  1  0.70404000  0.00000000  0.34776800  1
  Ga  Ga49  1  0.50000000  0.79596000  0.27633900  1
  Ga  Ga50  1  0.50000000  0.20404000  0.27633900  1
  Ga  Ga51  1  0.29596000  0.00000000  0.34776800  1
  Ga  Ga52  1  1.00000000  0.70404000  0.43794600  1
  Ga  Ga53  1  0.79596000  0.50000000  0.36651800  1
  Ga  Ga54  1  0.20404000  0.50000000  0.36651800  1
  Ga  Ga55  1  1.00000000  0.29596000  0.43794600  1
  Ga  Ga56  1  0.00000000  0.00000000  0.36305700  1
  Ga  Ga57  1  0.00000000  0.00000000  0.42265700  1
  Ga  Ga58  1  0.20404000  0.50000000  0.41919600  1
  Ga  Ga59  1  1.00000000  0.29596000  0.49062500  1
  Ga  Ga60  1  1.00000000  0.70404000  0.49062500  1
  Ga  Ga61  1  0.79596000  0.50000000  0.41919600  1
  Ga  Ga62  1  0.50000000  0.20404000  0.36651800  1
  Ga  Ga63  1  0.29596000  0.00000000  0.43794600  1
  Ga  Ga64  1  0.70404000  0.00000000  0.43794600  1
  Ga  Ga65  1  0.50000000  0.79596000  0.36651800  1
  Ga  Ga66  1  0.50000000  0.50000000  0.43448600  1
  Ga  Ga67  1  0.50000000  0.50000000  0.49408600  1
  Ga  Ga68  1  0.70404000  0.00000000  0.49062500  1
  Ga  Ga69  1  0.50000000  0.79596000  0.41919600  1
  Ga  Ga70  1  0.50000000  0.20404000  0.41919600  1
  Ga  Ga71  1  0.29596000  0.00000000  0.49062500  1
  Ga  Ga72  1  1.00000000  0.70404000  0.58080400  1
  Ga  Ga73  1  0.79596000  0.50000000  0.50937500  1
  Ga  Ga74  1  0.20404000  0.50000000  0.50937500  1
  Ga  Ga75  1  1.00000000  0.29596000  0.58080400  1
  Ga  Ga76  1  0.00000000  0.00000000  0.50591400  1
  Ga  Ga77  1  0.00000000  0.00000000  0.56551400  1
  Ga  Ga78  1  0.20404000  0.50000000  0.56205400  1
  Ga  Ga79  1  1.00000000  0.29596000  0.63348200  1
  Ga  Ga80  1  1.00000000  0.70404000  0.63348200  1
  Ga  Ga81  1  0.79596000  0.50000000  0.56205400  1
  Ga  Ga82  1  0.50000000  0.20404000  0.50937500  1
  Ga  Ga83  1  0.29596000  0.00000000  0.58080400  1
  Ga  Ga84  1  0.70404000  0.00000000  0.58080400  1
  Ga  Ga85  1  0.50000000  0.79596000  0.50937500  1
  Ga  Ga86  1  0.50000000  0.50000000  0.57734300  1
  Ga  Ga87  1  0.50000000  0.50000000  0.63694300  1
  Ga  Ga88  1  0.70404000  0.00000000  0.63348200  1
  Ga  Ga89  1  0.50000000  0.79596000  0.56205400  1
  Ga  Ga90  1  0.50000000  0.20404000  0.56205400  1
  Ga  Ga91  1  0.29596000  0.00000000  0.63348200  1
  Ga  Ga92  1  1.00000000  0.70404000  0.72366100  1
  Ga  Ga93  1  0.79596000  0.50000000  0.65223200  1
  Ga  Ga94  1  0.20404000  0.50000000  0.65223200  1
  Ga  Ga95  1  1.00000000  0.29596000  0.72366100  1
  Ga  Ga96  1  0.00000000  0.00000000  0.64877100  1
  Ga  Ga97  1  0.00000000  0.00000000  0.70837100  1
  Ga  Ga98  1  0.20404000  0.50000000  0.70491100  1
  Ga  Ga99  1  1.00000000  0.29596000  0.77633900  1
  Ga  Ga100  1  1.00000000  0.70404000  0.77633900  1
  Ga  Ga101  1  0.79596000  0.50000000  0.70491100  1
  Ga  Ga102  1  0.50000000  0.20404000  0.65223200  1
  Ga  Ga103  1  0.29596000  0.00000000  0.72366100  1
  Ga  Ga104  1  0.70404000  0.00000000  0.72366100  1
  Ga  Ga105  1  0.50000000  0.79596000  0.65223200  1
  Ga  Ga106  1  0.50000000  0.50000000  0.72020000  1
  Ga  Ga107  1  0.50000000  0.50000000  0.77980000  1
  Ga  Ga108  1  0.70404000  0.00000000  0.77633900  1
  Ga  Ga109  1  0.50000000  0.79596000  0.70491100  1
  Ga  Ga110  1  0.50000000  0.20404000  0.70491100  1
  Ga  Ga111  1  0.29596000  0.00000000  0.77633900  1
