# generated using pymatgen
data_MgZn3
_symmetry_space_group_name_H-M   'P 1'
_cell_length_a   5.75474300
_cell_length_b   7.35431274
_cell_length_c   43.83644800
_cell_angle_alpha   90.39897649
_cell_angle_beta   90.00000000
_cell_angle_gamma   66.96772378
_symmetry_Int_Tables_number   1
_chemical_formula_structural   MgZn3
_chemical_formula_sum   'Mg16 Zn48'
_cell_volume   1707.31283613
_cell_formula_units_Z   16
loop_
 _symmetry_equiv_pos_site_id
 _symmetry_equiv_pos_as_xyz
  1  'x, y, z'
loop_
 _atom_site_type_symbol
 _atom_site_label
 _atom_site_symmetry_multiplicity
 _atom_site_fract_x
 _atom_site_fract_y
 _atom_site_fract_z
 _atom_site_occupancy
  Mg  Mg0  1  0.64743600  0.70512800  0.19871800  1
  Mg  Mg1  1  0.12179500  0.75641000  0.26282100  1
  Mg  Mg2  1  0.41666700  0.16666700  0.27564100  1
  Mg  Mg3  1  0.89102600  0.21794900  0.33974400  1
  Mg  Mg4  1  0.18589700  0.62820500  0.35256400  1
  Mg  Mg5  1  0.66025600  0.67948700  0.41666700  1
  Mg  Mg6  1  0.95512800  0.08974400  0.42948700  1
  Mg  Mg7  1  0.42948700  0.14102600  0.49359000  1
  Mg  Mg8  1  0.72435900  0.55128200  0.50641000  1
  Mg  Mg9  1  0.19871800  0.60256400  0.57051300  1
  Mg  Mg10  1  0.49359000  0.01282100  0.58333300  1
  Mg  Mg11  1  0.96794900  0.06410300  0.64743600  1
  Mg  Mg12  1  0.26282100  0.47435900  0.66025600  1
  Mg  Mg13  1  0.73717900  0.52564100  0.72435900  1
  Mg  Mg14  1  0.03205100  0.93589700  0.73717900  1
  Mg  Mg15  1  0.50641000  0.98717900  0.80128200  1
  Zn  Zn16  1  0.02417800  0.43245300  0.23767200  1
  Zn  Zn17  1  0.14399200  0.71201700  0.19773400  1
  Zn  Zn18  1  0.54336900  0.43245300  0.23767200  1
  Zn  Zn19  1  0.62523900  0.74952100  0.26380500  1
  Zn  Zn20  1  0.22586200  0.02908500  0.22386700  1
  Zn  Zn21  1  0.74505200  0.02908500  0.22386700  1
  Zn  Zn22  1  0.79340900  0.89399200  0.31459500  1
  Zn  Zn23  1  0.91322200  0.17355500  0.27465700  1
  Zn  Zn24  1  0.31259900  0.89399200  0.31459500  1
  Zn  Zn25  1  0.39447000  0.21106000  0.34072800  1
  Zn  Zn26  1  0.99509300  0.49062400  0.30079000  1
  Zn  Zn27  1  0.51428300  0.49062400  0.30079000  1
  Zn  Zn28  1  0.56264000  0.35553000  0.39151800  1
  Zn  Zn29  1  0.68245300  0.63509400  0.35158000  1
  Zn  Zn30  1  0.08183000  0.35553000  0.39151800  1
  Zn  Zn31  1  0.16370100  0.67259800  0.41765100  1
  Zn  Zn32  1  0.76432400  0.95216200  0.37771300  1
  Zn  Zn33  1  0.28351400  0.95216200  0.37771300  1
  Zn  Zn34  1  0.33187100  0.81706800  0.46844100  1
  Zn  Zn35  1  0.45168400  0.09663200  0.42850300  1
  Zn  Zn36  1  0.85106100  0.81706800  0.46844100  1
  Zn  Zn37  1  0.93293200  0.13413700  0.49457400  1
  Zn  Zn38  1  0.53355500  0.41370100  0.45463600  1
  Zn  Zn39  1  0.05274500  0.41370100  0.45463600  1
  Zn  Zn40  1  0.10110100  0.27860700  0.54536400  1
  Zn  Zn41  1  0.22091500  0.55817100  0.50542600  1
  Zn  Zn42  1  0.62029200  0.27860700  0.54536400  1
  Zn  Zn43  1  0.70216200  0.59567500  0.57149700  1
  Zn  Zn44  1  0.30278500  0.87523900  0.53155900  1
  Zn  Zn45  1  0.82197500  0.87523900  0.53155900  1
  Zn  Zn46  1  0.87033200  0.74014500  0.62228700  1
  Zn  Zn47  1  0.99014500  0.01970900  0.58234900  1
  Zn  Zn48  1  0.38952200  0.74014500  0.62228700  1
  Zn  Zn49  1  0.47139300  0.05721400  0.64842000  1
  Zn  Zn50  1  0.07201600  0.33677800  0.60848200  1
  Zn  Zn51  1  0.59120600  0.33677800  0.60848200  1
  Zn  Zn52  1  0.63956300  0.20168400  0.69921000  1
  Zn  Zn53  1  0.75937600  0.48124800  0.65927200  1
  Zn  Zn54  1  0.15875300  0.20168400  0.69921000  1
  Zn  Zn55  1  0.24062400  0.51875200  0.72534300  1
  Zn  Zn56  1  0.84124700  0.79831600  0.68540500  1
  Zn  Zn57  1  0.36043700  0.79831600  0.68540500  1
  Zn  Zn58  1  0.40879400  0.66322200  0.77613300  1
  Zn  Zn59  1  0.52860700  0.94278600  0.73619500  1
  Zn  Zn60  1  0.92798400  0.66322200  0.77613300  1
  Zn  Zn61  1  0.00985500  0.98029100  0.80226600  1
  Zn  Zn62  1  0.61047800  0.25985500  0.76232800  1
  Zn  Zn63  1  0.12966800  0.25985500  0.76232800  1
