# generated using pymatgen
data_MgZn3
_symmetry_space_group_name_H-M   'P 1'
_cell_length_a   5.75474300
_cell_length_b   5.75474357
_cell_length_c   45.79174900
_cell_angle_alpha   90.00000000
_cell_angle_beta   90.00000000
_cell_angle_gamma   120.00000247
_symmetry_Int_Tables_number   1
_chemical_formula_structural   MgZn3
_chemical_formula_sum   'Mg12 Zn36'
_cell_volume   1313.31759327
_cell_formula_units_Z   12
loop_
 _symmetry_equiv_pos_site_id
 _symmetry_equiv_pos_as_xyz
  1  'x, y, z'
loop_
 _atom_site_type_symbol
 _atom_site_label
 _atom_site_symmetry_multiplicity
 _atom_site_fract_x
 _atom_site_fract_y
 _atom_site_fract_z
 _atom_site_occupancy
  Mg  Mg0  1  0.33333300  0.66666700  0.22500000  1
  Mg  Mg1  1  0.66666700  0.33333300  0.27500000  1
  Mg  Mg2  1  0.33333300  0.66666700  0.32500000  1
  Mg  Mg3  1  0.66666700  0.33333300  0.37500000  1
  Mg  Mg4  1  0.33333300  0.66666700  0.42500000  1
  Mg  Mg5  1  0.66666700  0.33333300  0.47500000  1
  Mg  Mg6  1  0.33333300  0.66666700  0.52500000  1
  Mg  Mg7  1  0.66666700  0.33333300  0.57500000  1
  Mg  Mg8  1  0.33333300  0.66666700  0.62500000  1
  Mg  Mg9  1  0.66666700  0.33333300  0.67500000  1
  Mg  Mg10  1  0.33333300  0.66666700  0.72500000  1
  Mg  Mg11  1  0.66666700  0.33333300  0.77500000  1
  Zn  Zn12  1  0.83973000  0.16027000  0.22500000  1
  Zn  Zn13  1  0.32054000  0.16027000  0.22500000  1
  Zn  Zn14  1  0.83973000  0.67946000  0.22500000  1
  Zn  Zn15  1  0.67946000  0.83973000  0.27500000  1
  Zn  Zn16  1  0.16027000  0.32054000  0.27500000  1
  Zn  Zn17  1  0.16027000  0.83973000  0.27500000  1
  Zn  Zn18  1  0.83973000  0.16027000  0.32500000  1
  Zn  Zn19  1  0.32054000  0.16027000  0.32500000  1
  Zn  Zn20  1  0.83973000  0.67946000  0.32500000  1
  Zn  Zn21  1  0.67946000  0.83973000  0.37500000  1
  Zn  Zn22  1  0.16027000  0.32054000  0.37500000  1
  Zn  Zn23  1  0.16027000  0.83973000  0.37500000  1
  Zn  Zn24  1  0.83973000  0.16027000  0.42500000  1
  Zn  Zn25  1  0.32054000  0.16027000  0.42500000  1
  Zn  Zn26  1  0.83973000  0.67946000  0.42500000  1
  Zn  Zn27  1  0.67946000  0.83973000  0.47500000  1
  Zn  Zn28  1  0.16027000  0.32054000  0.47500000  1
  Zn  Zn29  1  0.16027000  0.83973000  0.47500000  1
  Zn  Zn30  1  0.83973000  0.16027000  0.52500000  1
  Zn  Zn31  1  0.32054000  0.16027000  0.52500000  1
  Zn  Zn32  1  0.83973000  0.67946000  0.52500000  1
  Zn  Zn33  1  0.67946000  0.83973000  0.57500000  1
  Zn  Zn34  1  0.16027000  0.32054000  0.57500000  1
  Zn  Zn35  1  0.16027000  0.83973000  0.57500000  1
  Zn  Zn36  1  0.83973000  0.16027000  0.62500000  1
  Zn  Zn37  1  0.32054000  0.16027000  0.62500000  1
  Zn  Zn38  1  0.83973000  0.67946000  0.62500000  1
  Zn  Zn39  1  0.67946000  0.83973000  0.67500000  1
  Zn  Zn40  1  0.16027000  0.32054000  0.67500000  1
  Zn  Zn41  1  0.16027000  0.83973000  0.67500000  1
  Zn  Zn42  1  0.83973000  0.16027000  0.72500000  1
  Zn  Zn43  1  0.32054000  0.16027000  0.72500000  1
  Zn  Zn44  1  0.83973000  0.67946000  0.72500000  1
  Zn  Zn45  1  0.67946000  0.83973000  0.77500000  1
  Zn  Zn46  1  0.16027000  0.32054000  0.77500000  1
  Zn  Zn47  1  0.16027000  0.83973000  0.77500000  1
