# generated using pymatgen
data_MgAl3
_symmetry_space_group_name_H-M   'P 1'
_cell_length_a   4.11708800
_cell_length_b   8.41256800
_cell_length_c   45.28797100
_cell_angle_alpha   90.00000000
_cell_angle_beta   90.00000000
_cell_angle_gamma   90.00000000
_symmetry_Int_Tables_number   1
_chemical_formula_structural   MgAl3
_chemical_formula_sum   'Mg14 Al42'
_cell_volume   1568.56168130
_cell_formula_units_Z   14
loop_
 _symmetry_equiv_pos_site_id
 _symmetry_equiv_pos_as_xyz
  1  'x, y, z'
loop_
 _atom_site_type_symbol
 _atom_site_label
 _atom_site_symmetry_multiplicity
 _atom_site_fract_x
 _atom_site_fract_y
 _atom_site_fract_z
 _atom_site_occupancy
  Mg  Mg0  1  0.00000000  0.00000000  0.25000000  1
  Mg  Mg1  1  0.50000000  0.50000000  0.20454500  1
  Mg  Mg2  1  0.00000000  0.00000000  0.34090900  1
  Mg  Mg3  1  0.50000000  0.50000000  0.29545500  1
  Mg  Mg4  1  0.00000000  0.00000000  0.43181800  1
  Mg  Mg5  1  0.50000000  0.50000000  0.38636400  1
  Mg  Mg6  1  0.00000000  0.00000000  0.52272700  1
  Mg  Mg7  1  0.50000000  0.50000000  0.47727300  1
  Mg  Mg8  1  0.00000000  0.00000000  0.61363600  1
  Mg  Mg9  1  0.50000000  0.50000000  0.56818200  1
  Mg  Mg10  1  0.00000000  0.00000000  0.70454500  1
  Mg  Mg11  1  0.50000000  0.50000000  0.65909100  1
  Mg  Mg12  1  0.00000000  0.00000000  0.79545500  1
  Mg  Mg13  1  0.50000000  0.50000000  0.75000000  1
  Al  Al14  1  0.50000000  0.00000000  0.20454500  1
  Al  Al15  1  0.00000000  0.25000000  0.20454500  1
  Al  Al16  1  0.50000000  0.25000000  0.25000000  1
  Al  Al17  1  0.00000000  0.50000000  0.25000000  1
  Al  Al18  1  0.50000000  0.75000000  0.25000000  1
  Al  Al19  1  0.00000000  0.75000000  0.20454500  1
  Al  Al20  1  0.50000000  0.00000000  0.29545500  1
  Al  Al21  1  0.00000000  0.25000000  0.29545500  1
  Al  Al22  1  0.50000000  0.25000000  0.34090900  1
  Al  Al23  1  0.00000000  0.50000000  0.34090900  1
  Al  Al24  1  0.50000000  0.75000000  0.34090900  1
  Al  Al25  1  0.00000000  0.75000000  0.29545500  1
  Al  Al26  1  0.50000000  0.00000000  0.38636400  1
  Al  Al27  1  0.00000000  0.25000000  0.38636400  1
  Al  Al28  1  0.50000000  0.25000000  0.43181800  1
  Al  Al29  1  0.00000000  0.50000000  0.43181800  1
  Al  Al30  1  0.50000000  0.75000000  0.43181800  1
  Al  Al31  1  0.00000000  0.75000000  0.38636400  1
  Al  Al32  1  0.50000000  0.00000000  0.47727300  1
  Al  Al33  1  0.00000000  0.25000000  0.47727300  1
  Al  Al34  1  0.50000000  0.25000000  0.52272700  1
  Al  Al35  1  0.00000000  0.50000000  0.52272700  1
  Al  Al36  1  0.50000000  0.75000000  0.52272700  1
  Al  Al37  1  0.00000000  0.75000000  0.47727300  1
  Al  Al38  1  0.50000000  0.00000000  0.56818200  1
  Al  Al39  1  0.00000000  0.25000000  0.56818200  1
  Al  Al40  1  0.50000000  0.25000000  0.61363600  1
  Al  Al41  1  0.00000000  0.50000000  0.61363600  1
  Al  Al42  1  0.50000000  0.75000000  0.61363600  1
  Al  Al43  1  0.00000000  0.75000000  0.56818200  1
  Al  Al44  1  0.50000000  0.00000000  0.65909100  1
  Al  Al45  1  0.00000000  0.25000000  0.65909100  1
  Al  Al46  1  0.50000000  0.25000000  0.70454500  1
  Al  Al47  1  0.00000000  0.50000000  0.70454500  1
  Al  Al48  1  0.50000000  0.75000000  0.70454500  1
  Al  Al49  1  0.00000000  0.75000000  0.65909100  1
  Al  Al50  1  0.50000000  0.00000000  0.75000000  1
  Al  Al51  1  0.00000000  0.25000000  0.75000000  1
  Al  Al52  1  0.50000000  0.25000000  0.79545500  1
  Al  Al53  1  0.00000000  0.50000000  0.79545500  1
  Al  Al54  1  0.50000000  0.75000000  0.79545500  1
  Al  Al55  1  0.00000000  0.75000000  0.75000000  1
