# generated using pymatgen
data_Dy2Mg
_symmetry_space_group_name_H-M   'P 1'
_cell_length_a   6.60896973
_cell_length_b   8.74776942
_cell_length_c   42.27082600
_cell_angle_alpha   91.26799270
_cell_angle_beta   92.01157452
_cell_angle_gamma   96.78872541
_symmetry_Int_Tables_number   1
_chemical_formula_structural   Dy2Mg
_chemical_formula_sum   'Dy36 Mg18'
_cell_volume   2424.35459031
_cell_formula_units_Z   18
loop_
 _symmetry_equiv_pos_site_id
 _symmetry_equiv_pos_as_xyz
  1  'x, y, z'
loop_
 _atom_site_type_symbol
 _atom_site_label
 _atom_site_symmetry_multiplicity
 _atom_site_fract_x
 _atom_site_fract_y
 _atom_site_fract_z
 _atom_site_occupancy
  Dy  Dy0  1  0.56192700  0.40907800  0.22559000  1
  Dy  Dy1  1  0.47061100  0.79269400  0.24841900  1
  Dy  Dy2  1  0.15235900  0.01949400  0.20298200  1
  Dy  Dy3  1  0.24367500  0.63587700  0.18015300  1
  Dy  Dy4  1  0.27621300  0.48050600  0.29701800  1
  Dy  Dy5  1  0.18489700  0.86412300  0.31984700  1
  Dy  Dy6  1  0.86664500  0.09092200  0.27441000  1
  Dy  Dy7  1  0.95796100  0.70730600  0.25158100  1
  Dy  Dy8  1  0.99049800  0.55193500  0.36844700  1
  Dy  Dy9  1  0.89918200  0.93555100  0.39127600  1
  Dy  Dy10  1  0.58093000  0.16235100  0.34583900  1
  Dy  Dy11  1  0.67224600  0.77873400  0.32301000  1
  Dy  Dy12  1  0.70478400  0.62336400  0.43987500  1
  Dy  Dy13  1  0.61346800  0.00698000  0.46270400  1
  Dy  Dy14  1  0.29521600  0.23377900  0.41726700  1
  Dy  Dy15  1  0.38653200  0.85016300  0.39443800  1
  Dy  Dy16  1  0.41907000  0.69479200  0.51130400  1
  Dy  Dy17  1  0.32775400  0.07840900  0.53413300  1
  Dy  Dy18  1  0.00950200  0.30520800  0.48869600  1
  Dy  Dy19  1  0.10081800  0.92159100  0.46586700  1
  Dy  Dy20  1  0.13335500  0.76622100  0.58273300  1
  Dy  Dy21  1  0.04203900  0.14983700  0.60556200  1
  Dy  Dy22  1  0.72378700  0.37663600  0.56012500  1
  Dy  Dy23  1  0.81510300  0.99302000  0.53729600  1
  Dy  Dy24  1  0.84764100  0.83764900  0.65416100  1
  Dy  Dy25  1  0.75632500  0.22126600  0.67699000  1
  Dy  Dy26  1  0.43807300  0.44806500  0.63155300  1
  Dy  Dy27  1  0.52938900  0.06444900  0.60872400  1
  Dy  Dy28  1  0.56192700  0.90907800  0.72559000  1
  Dy  Dy29  1  0.47061100  0.29269400  0.74841900  1
  Dy  Dy30  1  0.15235900  0.51949400  0.70298200  1
  Dy  Dy31  1  0.24367500  0.13587700  0.68015300  1
  Dy  Dy32  1  0.27621300  0.98050600  0.79701800  1
  Dy  Dy33  1  0.18489700  0.36412300  0.81984700  1
  Dy  Dy34  1  0.86664500  0.59092200  0.77441000  1
  Dy  Dy35  1  0.95796100  0.20730600  0.75158100  1
  Mg  Mg36  1  0.65941800  0.06714300  0.20121700  1
  Mg  Mg37  1  0.05486800  0.36142800  0.22735500  1
  Mg  Mg38  1  0.37370400  0.13857200  0.27264500  1
  Mg  Mg39  1  0.76915300  0.43285700  0.29878300  1
  Mg  Mg40  1  0.08799000  0.21000100  0.34407400  1
  Mg  Mg41  1  0.48343900  0.50428500  0.37021200  1
  Mg  Mg42  1  0.80227500  0.28142900  0.41550300  1
  Mg  Mg43  1  0.19772500  0.57571400  0.44164000  1
  Mg  Mg44  1  0.51656100  0.35285800  0.48693100  1
  Mg  Mg45  1  0.91201000  0.64714200  0.51306900  1
  Mg  Mg46  1  0.23084700  0.42428600  0.55836000  1
  Mg  Mg47  1  0.62629600  0.71857100  0.58449700  1
  Mg  Mg48  1  0.94513200  0.49571500  0.62978800  1
  Mg  Mg49  1  0.34058200  0.78999900  0.65592600  1
  Mg  Mg50  1  0.65941800  0.56714300  0.70121700  1
  Mg  Mg51  1  0.05486800  0.86142800  0.72735500  1
  Mg  Mg52  1  0.37370400  0.63857200  0.77264500  1
  Mg  Mg53  1  0.76915300  0.93285700  0.79878300  1
