# generated using pymatgen
data_Mg21Au61
_symmetry_space_group_name_H-M   'P 1'
_cell_length_a   10.43041218
_cell_length_b   11.29953425
_cell_length_c   49.40543900
_cell_angle_alpha   85.63582371
_cell_angle_beta   88.14566253
_cell_angle_gamma   98.74753851
_symmetry_Int_Tables_number   1
_chemical_formula_structural   Mg21Au61
_chemical_formula_sum   'Mg42 Au122'
_cell_volume   5732.74310784
_cell_formula_units_Z   2
loop_
 _symmetry_equiv_pos_site_id
 _symmetry_equiv_pos_as_xyz
  1  'x, y, z'
loop_
 _atom_site_type_symbol
 _atom_site_label
 _atom_site_symmetry_multiplicity
 _atom_site_fract_x
 _atom_site_fract_y
 _atom_site_fract_z
 _atom_site_occupancy
  Mg  Mg0  1  0.42888000  0.55554800  0.78128400  1
  Mg  Mg1  1  0.85835700  0.78234700  0.70621600  1
  Mg  Mg2  1  0.90819700  0.13123000  0.75605700  1
  Mg  Mg3  1  0.37903900  0.20666600  0.73144300  1
  Mg  Mg4  1  0.04782400  0.48277000  0.72247600  1
  Mg  Mg5  1  0.23941300  0.85512600  0.76502400  1
  Mg  Mg6  1  0.61807600  0.25702000  0.79772600  1
  Mg  Mg7  1  0.76916000  0.78087500  0.78977400  1
  Mg  Mg8  1  0.32888000  0.85554800  0.68128400  1
  Mg  Mg9  1  0.75835700  0.08234700  0.60621600  1
  Mg  Mg10  1  0.80819700  0.43123000  0.65605700  1
  Mg  Mg11  1  0.27903900  0.50666600  0.63144300  1
  Mg  Mg12  1  0.94782400  0.78277000  0.62247600  1
  Mg  Mg13  1  0.13941300  0.15512600  0.66502400  1
  Mg  Mg14  1  0.51807600  0.55702000  0.69772600  1
  Mg  Mg15  1  0.66916000  0.08087500  0.68977400  1
  Mg  Mg16  1  0.22888000  0.15554800  0.58128400  1
  Mg  Mg17  1  0.65835700  0.38234700  0.50621600  1
  Mg  Mg18  1  0.70819700  0.73123000  0.55605700  1
  Mg  Mg19  1  0.17903900  0.80666600  0.53144300  1
  Mg  Mg20  1  0.84782400  0.08277000  0.52247600  1
  Mg  Mg21  1  0.03941300  0.45512600  0.56502400  1
  Mg  Mg22  1  0.41807600  0.85702000  0.59772600  1
  Mg  Mg23  1  0.56916000  0.38087500  0.58977400  1
  Mg  Mg24  1  0.12888000  0.45554800  0.48128400  1
  Mg  Mg25  1  0.55835700  0.68234700  0.40621600  1
  Mg  Mg26  1  0.60819700  0.03123000  0.45605700  1
  Mg  Mg27  1  0.07903900  0.10666600  0.43144300  1
  Mg  Mg28  1  0.74782400  0.38277000  0.42247600  1
  Mg  Mg29  1  0.93941300  0.75512600  0.46502400  1
  Mg  Mg30  1  0.31807600  0.15702000  0.49772600  1
  Mg  Mg31  1  0.46916000  0.68087500  0.48977400  1
  Mg  Mg32  1  0.02888000  0.75554800  0.38128400  1
  Mg  Mg33  1  0.45835700  0.98234700  0.30621600  1
  Mg  Mg34  1  0.50819700  0.33123000  0.35605700  1
  Mg  Mg35  1  0.97903900  0.40666600  0.33144300  1
  Mg  Mg36  1  0.64782400  0.68277000  0.32247600  1
  Mg  Mg37  1  0.83941300  0.05512600  0.36502400  1
  Mg  Mg38  1  0.21807600  0.45702000  0.39772600  1
  Mg  Mg39  1  0.36916000  0.98087500  0.38977400  1
  Mg  Mg40  1  0.11807600  0.75702000  0.29772600  1
  Mg  Mg41  1  0.26916000  0.28087500  0.28977400  1
  Au  Au42  1  0.11850600  0.24428400  0.71863800  1
  Au  Au43  1  0.11873000  0.74361100  0.71886200  1
  Au  Au44  1  0.16873000  0.09361100  0.76886200  1
  Au  Au45  1  0.16850600  0.59428400  0.76863800  1
  Au  Au46  1  0.85420100  0.28152100  0.70640900  1
  Au  Au47  1  0.43303600  0.05637500  0.78109100  1
  Au  Au48  1  0.38314500  0.70714400  0.73120100  1
  Au  Au49  1  0.90409100  0.63075200  0.75629900  1
  Au  Au50  1  0.50401100  0.81731200  0.77762900  1
  Au  Au51  1  0.83363400  0.36935800  0.76028000  1
  Au  Au52  1  0.78322500  0.52058300  0.70987100  1
  Au  Au53  1  0.45360200  0.96853800  0.72722000  1
  Au  Au54  1  0.92825800  0.04298000  0.70240600  1
  Au  Au55  1  0.30888800  0.44518500  0.73500400  1
  Au  Au56  1  0.35897800  0.29491500  0.78509400  1
  Au  Au57  1  0.97834800  0.89271100  0.75249600  1
  Au  Au58  1  0.69361800  0.51894800  0.79375000  1
  Au  Au59  1  0.64361800  0.66894800  0.74375000  1
  Au  Au60  1  0.64361800  0.16894800  0.74375000  1
  Au  Au61  1  0.69361800  0.01894800  0.79375000  1
  Au  Au62  1  0.57099200  0.40748000  0.74757200  1
  Au  Au63  1  0.71624400  0.93041500  0.73992800  1
  Au  Au64  1  0.09150800  0.33177200  0.77280800  1
  Au  Au65  1  0.19572900  0.00612300  0.71469200  1
  Au  Au66  1  0.01850600  0.54428400  0.61863800  1
  Au  Au67  1  0.01873000  0.04361100  0.61886200  1
  Au  Au68  1  0.06873000  0.39361100  0.66886200  1
  Au  Au69  1  0.06850600  0.89428400  0.66863800  1
  Au  Au70  1  0.75420100  0.58152100  0.60640900  1
  Au  Au71  1  0.33303600  0.35637500  0.68109100  1
  Au  Au72  1  0.28314500  0.00714400  0.63120100  1
  Au  Au73  1  0.80409100  0.93075200  0.65629900  1
  Au  Au74  1  0.40401100  0.11731200  0.67762900  1
  Au  Au75  1  0.73363400  0.66935800  0.66028000  1
  Au  Au76  1  0.68322500  0.82058300  0.60987100  1
  Au  Au77  1  0.35360200  0.26853800  0.62722000  1
  Au  Au78  1  0.82825800  0.34298000  0.60240600  1
  Au  Au79  1  0.20888800  0.74518500  0.63500400  1
  Au  Au80  1  0.25897800  0.59491500  0.68509400  1
  Au  Au81  1  0.87834800  0.19271100  0.65249600  1
  Au  Au82  1  0.59361800  0.81894800  0.69375000  1
  Au  Au83  1  0.54361800  0.96894800  0.64375000  1
  Au  Au84  1  0.54361800  0.46894800  0.64375000  1
  Au  Au85  1  0.59361800  0.31894800  0.69375000  1
  Au  Au86  1  0.47099200  0.70748000  0.64757200  1
  Au  Au87  1  0.61624400  0.23041500  0.63992800  1
  Au  Au88  1  0.99150800  0.63177200  0.67280800  1
  Au  Au89  1  0.09572900  0.30612300  0.61469200  1
  Au  Au90  1  0.91850600  0.84428400  0.51863800  1
  Au  Au91  1  0.91873000  0.34361100  0.51886200  1
  Au  Au92  1  0.96873000  0.69361100  0.56886200  1
  Au  Au93  1  0.96850600  0.19428400  0.56863800  1
  Au  Au94  1  0.65420100  0.88152100  0.50640900  1
  Au  Au95  1  0.23303600  0.65637500  0.58109100  1
  Au  Au96  1  0.18314500  0.30714400  0.53120100  1
  Au  Au97  1  0.70409100  0.23075200  0.55629900  1
  Au  Au98  1  0.30401100  0.41731200  0.57762900  1
  Au  Au99  1  0.63363400  0.96935800  0.56028000  1
  Au  Au100  1  0.58322500  0.12058300  0.50987100  1
  Au  Au101  1  0.25360200  0.56853800  0.52722000  1
  Au  Au102  1  0.72825800  0.64298000  0.50240600  1
  Au  Au103  1  0.10888800  0.04518500  0.53500400  1
  Au  Au104  1  0.15897800  0.89491500  0.58509400  1
  Au  Au105  1  0.77834800  0.49271100  0.55249600  1
  Au  Au106  1  0.49361800  0.11894800  0.59375000  1
  Au  Au107  1  0.44361800  0.26894800  0.54375000  1
  Au  Au108  1  0.44361800  0.76894800  0.54375000  1
  Au  Au109  1  0.49361800  0.61894800  0.59375000  1
  Au  Au110  1  0.37099200  0.00748000  0.54757200  1
  Au  Au111  1  0.51624400  0.53041500  0.53992800  1
  Au  Au112  1  0.89150800  0.93177200  0.57280800  1
  Au  Au113  1  0.99572900  0.60612300  0.51469200  1
  Au  Au114  1  0.81850600  0.14428400  0.41863800  1
  Au  Au115  1  0.81873000  0.64361100  0.41886200  1
  Au  Au116  1  0.86873000  0.99361100  0.46886200  1
  Au  Au117  1  0.86850600  0.49428400  0.46863800  1
  Au  Au118  1  0.55420100  0.18152100  0.40640900  1
  Au  Au119  1  0.13303600  0.95637500  0.48109100  1
  Au  Au120  1  0.08314500  0.60714400  0.43120100  1
  Au  Au121  1  0.60409100  0.53075200  0.45629900  1
  Au  Au122  1  0.20401100  0.71731200  0.47762900  1
  Au  Au123  1  0.53363400  0.26935800  0.46028000  1
  Au  Au124  1  0.48322500  0.42058300  0.40987100  1
  Au  Au125  1  0.15360200  0.86853800  0.42722000  1
  Au  Au126  1  0.62825800  0.94298000  0.40240600  1
  Au  Au127  1  0.00888800  0.34518500  0.43500400  1
  Au  Au128  1  0.05897800  0.19491500  0.48509400  1
  Au  Au129  1  0.67834800  0.79271100  0.45249600  1
  Au  Au130  1  0.39361800  0.41894800  0.49375000  1
  Au  Au131  1  0.34361800  0.56894800  0.44375000  1
  Au  Au132  1  0.34361800  0.06894800  0.44375000  1
  Au  Au133  1  0.39361800  0.91894800  0.49375000  1
  Au  Au134  1  0.27099200  0.30748000  0.44757200  1
  Au  Au135  1  0.41624400  0.83041500  0.43992800  1
  Au  Au136  1  0.79150800  0.23177200  0.47280800  1
  Au  Au137  1  0.89572900  0.90612300  0.41469200  1
  Au  Au138  1  0.71850600  0.44428400  0.31863800  1
  Au  Au139  1  0.71873000  0.94361100  0.31886200  1
  Au  Au140  1  0.76873000  0.29361100  0.36886200  1
  Au  Au141  1  0.76850600  0.79428400  0.36863800  1
  Au  Au142  1  0.45420100  0.48152100  0.30640900  1
  Au  Au143  1  0.03303600  0.25637500  0.38109100  1
  Au  Au144  1  0.98314500  0.90714400  0.33120100  1
  Au  Au145  1  0.50409100  0.83075200  0.35629900  1
  Au  Au146  1  0.10401100  0.01731200  0.37762900  1
  Au  Au147  1  0.43363400  0.56935800  0.36028000  1
  Au  Au148  1  0.38322500  0.72058300  0.30987100  1
  Au  Au149  1  0.05360200  0.16853800  0.32722000  1
  Au  Au150  1  0.52825800  0.24298000  0.30240600  1
  Au  Au151  1  0.90888800  0.64518500  0.33500400  1
  Au  Au152  1  0.95897800  0.49491500  0.38509400  1
  Au  Au153  1  0.57834800  0.09271100  0.35249600  1
  Au  Au154  1  0.29361800  0.71894800  0.39375000  1
  Au  Au155  1  0.24361800  0.86894800  0.34375000  1
  Au  Au156  1  0.24361800  0.36894800  0.34375000  1
  Au  Au157  1  0.29361800  0.21894800  0.39375000  1
  Au  Au158  1  0.17099200  0.60748000  0.34757200  1
  Au  Au159  1  0.31624400  0.13041500  0.33992800  1
  Au  Au160  1  0.69150800  0.53177200  0.37280800  1
  Au  Au161  1  0.79572900  0.20612300  0.31469200  1
  Au  Au162  1  0.19361800  0.01894800  0.29375000  1
  Au  Au163  1  0.19361800  0.51894800  0.29375000  1
