# generated using pymatgen
data_Mg22Tl9
_symmetry_space_group_name_H-M   'P 1'
_cell_length_a   7.14576700
_cell_length_b   8.77491584
_cell_length_c   46.68731700
_cell_angle_alpha   94.44679253
_cell_angle_beta   90.00000000
_cell_angle_gamma   114.02718588
_symmetry_Int_Tables_number   1
_chemical_formula_structural   Mg22Tl9
_chemical_formula_sum   'Mg44 Tl18'
_cell_volume   2664.14978339
_cell_formula_units_Z   2
loop_
 _symmetry_equiv_pos_site_id
 _symmetry_equiv_pos_as_xyz
  1  'x, y, z'
loop_
 _atom_site_type_symbol
 _atom_site_label
 _atom_site_symmetry_multiplicity
 _atom_site_fract_x
 _atom_site_fract_y
 _atom_site_fract_z
 _atom_site_occupancy
  Mg  Mg0  1  0.19224900  0.05486100  0.70366700  1
  Mg  Mg1  1  0.83895100  0.67790100  0.71245600  1
  Mg  Mg2  1  0.01127200  0.35218200  0.72490400  1
  Mg  Mg3  1  0.36457100  0.72914100  0.71611600  1
  Mg  Mg4  1  0.31724900  0.30486100  0.57866700  1
  Mg  Mg5  1  0.96395100  0.92790100  0.58745600  1
  Mg  Mg6  1  0.63301100  0.26602100  0.68303600  1
  Mg  Mg7  1  0.40341000  0.47718200  0.66240400  1
  Mg  Mg8  1  0.13627200  0.60218200  0.59990400  1
  Mg  Mg9  1  0.48957100  0.97914100  0.59111600  1
  Mg  Mg10  1  0.42707100  0.85414100  0.65361600  1
  Mg  Mg11  1  0.90145100  0.80290100  0.64995600  1
  Mg  Mg12  1  0.92511100  0.17986100  0.64116700  1
  Mg  Mg13  1  0.69551100  0.39102100  0.62053600  1
  Mg  Mg14  1  0.44224900  0.55486100  0.45366700  1
  Mg  Mg15  1  0.08895100  0.17790100  0.46245600  1
  Mg  Mg16  1  0.75801100  0.51602100  0.55803600  1
  Mg  Mg17  1  0.52841000  0.72718200  0.53740400  1
  Mg  Mg18  1  0.26127200  0.85218200  0.47490400  1
  Mg  Mg19  1  0.61457100  0.22914100  0.46611600  1
  Mg  Mg20  1  0.55207100  0.10414100  0.52861600  1
  Mg  Mg21  1  0.02645100  0.05290100  0.52495600  1
  Mg  Mg22  1  0.05011100  0.42986100  0.51616700  1
  Mg  Mg23  1  0.82051100  0.64102100  0.49553600  1
  Mg  Mg24  1  0.56724900  0.80486100  0.32866700  1
  Mg  Mg25  1  0.21395100  0.42790100  0.33745600  1
  Mg  Mg26  1  0.88301100  0.76602100  0.43303600  1
  Mg  Mg27  1  0.65341000  0.97718200  0.41240400  1
  Mg  Mg28  1  0.38627200  0.10218200  0.34990400  1
  Mg  Mg29  1  0.73957100  0.47914100  0.34111600  1
  Mg  Mg30  1  0.67707100  0.35414100  0.40361600  1
  Mg  Mg31  1  0.15145100  0.30290100  0.39995600  1
  Mg  Mg32  1  0.17511100  0.67986100  0.39116700  1
  Mg  Mg33  1  0.94551100  0.89102100  0.37053600  1
  Mg  Mg34  1  0.69224900  0.05486100  0.20366700  1
  Mg  Mg35  1  0.33895100  0.67790100  0.21245600  1
  Mg  Mg36  1  0.00801100  0.01602100  0.30803600  1
  Mg  Mg37  1  0.77841000  0.22718200  0.28740400  1
  Mg  Mg38  1  0.51127200  0.35218200  0.22490400  1
  Mg  Mg39  1  0.86457100  0.72914100  0.21611600  1
  Mg  Mg40  1  0.80207100  0.60414100  0.27861600  1
  Mg  Mg41  1  0.27645100  0.55290100  0.27495600  1
  Mg  Mg42  1  0.30011100  0.92986100  0.26616700  1
  Mg  Mg43  1  0.07051100  0.14102100  0.24553600  1
  Tl  Tl44  1  0.44502400  0.41672400  0.72951400  1
  Tl  Tl45  1  0.75849700  0.99031800  0.69905700  1
  Tl  Tl46  1  0.57002400  0.66672400  0.60451400  1
  Tl  Tl47  1  0.29432200  0.11531800  0.63655700  1
  Tl  Tl48  1  0.03420000  0.54172400  0.66701400  1
  Tl  Tl49  1  0.88349700  0.24031800  0.57405700  1
  Tl  Tl50  1  0.69502400  0.91672400  0.47951400  1
  Tl  Tl51  1  0.41932200  0.36531800  0.51155700  1
  Tl  Tl52  1  0.15920000  0.79172400  0.54201400  1
  Tl  Tl53  1  0.00849700  0.49031800  0.44905700  1
  Tl  Tl54  1  0.82002400  0.16672400  0.35451400  1
  Tl  Tl55  1  0.54432200  0.61531800  0.38655700  1
  Tl  Tl56  1  0.28420000  0.04172400  0.41701400  1
  Tl  Tl57  1  0.13349700  0.74031800  0.32405700  1
  Tl  Tl58  1  0.94502400  0.41672400  0.22951400  1
  Tl  Tl59  1  0.66932200  0.86531800  0.26155700  1
  Tl  Tl60  1  0.40920000  0.29172400  0.29201400  1
  Tl  Tl61  1  0.25849700  0.99031800  0.19905700  1
