# generated using pymatgen
data_MgAl2
_symmetry_space_group_name_H-M   'P 1'
_cell_length_a   5.50999200
_cell_length_b   8.63345300
_cell_length_c   47.71793200
_cell_angle_alpha   90.00000000
_cell_angle_beta   90.00000000
_cell_angle_gamma   90.00000000
_symmetry_Int_Tables_number   1
_chemical_formula_structural   MgAl2
_chemical_formula_sum   'Mg24 Al48'
_cell_volume   2269.95428695
_cell_formula_units_Z   24
loop_
 _symmetry_equiv_pos_site_id
 _symmetry_equiv_pos_as_xyz
  1  'x, y, z'
loop_
 _atom_site_type_symbol
 _atom_site_label
 _atom_site_symmetry_multiplicity
 _atom_site_fract_x
 _atom_site_fract_y
 _atom_site_fract_z
 _atom_site_occupancy
  Mg  Mg0  1  0.25000000  0.56708600  0.21666700  1
  Mg  Mg1  1  0.25000000  0.06708600  0.28333300  1
  Mg  Mg2  1  0.25000000  0.43291400  0.28333300  1
  Mg  Mg3  1  0.25000000  0.93291400  0.21666700  1
  Mg  Mg4  1  0.75000000  0.56708600  0.31666700  1
  Mg  Mg5  1  0.75000000  0.06708600  0.38333300  1
  Mg  Mg6  1  0.75000000  0.43291400  0.38333300  1
  Mg  Mg7  1  0.75000000  0.93291400  0.31666700  1
  Mg  Mg8  1  0.25000000  0.56708600  0.41666700  1
  Mg  Mg9  1  0.25000000  0.06708600  0.48333300  1
  Mg  Mg10  1  0.25000000  0.43291400  0.48333300  1
  Mg  Mg11  1  0.25000000  0.93291400  0.41666700  1
  Mg  Mg12  1  0.75000000  0.56708600  0.51666700  1
  Mg  Mg13  1  0.75000000  0.06708600  0.58333300  1
  Mg  Mg14  1  0.75000000  0.43291400  0.58333300  1
  Mg  Mg15  1  0.75000000  0.93291400  0.51666700  1
  Mg  Mg16  1  0.25000000  0.56708600  0.61666700  1
  Mg  Mg17  1  0.25000000  0.06708600  0.68333300  1
  Mg  Mg18  1  0.25000000  0.43291400  0.68333300  1
  Mg  Mg19  1  0.25000000  0.93291400  0.61666700  1
  Mg  Mg20  1  0.75000000  0.56708600  0.71666700  1
  Mg  Mg21  1  0.75000000  0.06708600  0.78333300  1
  Mg  Mg22  1  0.75000000  0.43291400  0.78333300  1
  Mg  Mg23  1  0.75000000  0.93291400  0.71666700  1
  Al  Al24  1  0.75000000  0.50000000  0.25000000  1
  Al  Al25  1  0.75000000  0.00000000  0.25000000  1
  Al  Al26  1  0.75000000  0.25000000  0.28413500  1
  Al  Al27  1  0.00601100  0.75000000  0.26706700  1
  Al  Al28  1  0.49398900  0.75000000  0.26706700  1
  Al  Al29  1  0.00601100  0.25000000  0.23293300  1
  Al  Al30  1  0.49398900  0.25000000  0.23293300  1
  Al  Al31  1  0.75000000  0.75000000  0.21586500  1
  Al  Al32  1  0.25000000  0.50000000  0.35000000  1
  Al  Al33  1  0.25000000  0.00000000  0.35000000  1
  Al  Al34  1  0.25000000  0.25000000  0.38413500  1
  Al  Al35  1  0.50601100  0.75000000  0.36706700  1
  Al  Al36  1  0.99398900  0.75000000  0.36706700  1
  Al  Al37  1  0.50601100  0.25000000  0.33293300  1
  Al  Al38  1  0.99398900  0.25000000  0.33293300  1
  Al  Al39  1  0.25000000  0.75000000  0.31586500  1
  Al  Al40  1  0.75000000  0.50000000  0.45000000  1
  Al  Al41  1  0.75000000  0.00000000  0.45000000  1
  Al  Al42  1  0.75000000  0.25000000  0.48413500  1
  Al  Al43  1  0.00601100  0.75000000  0.46706700  1
  Al  Al44  1  0.49398900  0.75000000  0.46706700  1
  Al  Al45  1  0.00601100  0.25000000  0.43293300  1
  Al  Al46  1  0.49398900  0.25000000  0.43293300  1
  Al  Al47  1  0.75000000  0.75000000  0.41586500  1
  Al  Al48  1  0.25000000  0.50000000  0.55000000  1
  Al  Al49  1  0.25000000  0.00000000  0.55000000  1
  Al  Al50  1  0.25000000  0.25000000  0.58413500  1
  Al  Al51  1  0.50601100  0.75000000  0.56706700  1
  Al  Al52  1  0.99398900  0.75000000  0.56706700  1
  Al  Al53  1  0.50601100  0.25000000  0.53293300  1
  Al  Al54  1  0.99398900  0.25000000  0.53293300  1
  Al  Al55  1  0.25000000  0.75000000  0.51586500  1
  Al  Al56  1  0.75000000  0.50000000  0.65000000  1
  Al  Al57  1  0.75000000  0.00000000  0.65000000  1
  Al  Al58  1  0.75000000  0.25000000  0.68413500  1
  Al  Al59  1  0.00601100  0.75000000  0.66706700  1
  Al  Al60  1  0.49398900  0.75000000  0.66706700  1
  Al  Al61  1  0.00601100  0.25000000  0.63293300  1
  Al  Al62  1  0.49398900  0.25000000  0.63293300  1
  Al  Al63  1  0.75000000  0.75000000  0.61586500  1
  Al  Al64  1  0.25000000  0.50000000  0.75000000  1
  Al  Al65  1  0.25000000  0.00000000  0.75000000  1
  Al  Al66  1  0.25000000  0.25000000  0.78413500  1
  Al  Al67  1  0.50601100  0.75000000  0.76706700  1
  Al  Al68  1  0.99398900  0.75000000  0.76706700  1
  Al  Al69  1  0.50601100  0.25000000  0.73293300  1
  Al  Al70  1  0.99398900  0.25000000  0.73293300  1
  Al  Al71  1  0.25000000  0.75000000  0.71586500  1
