# generated using pymatgen
data_Yb3Mg
_symmetry_space_group_name_H-M   'P 1'
_cell_length_a   7.34873276
_cell_length_b   9.48692644
_cell_length_c   43.88645600
_cell_angle_alpha   94.96393436
_cell_angle_beta   94.80267501
_cell_angle_gamma   67.21287579
_symmetry_Int_Tables_number   1
_chemical_formula_structural   Yb3Mg
_chemical_formula_sum   'Yb36 Mg12'
_cell_volume   2806.04166389
_cell_formula_units_Z   12
loop_
 _symmetry_equiv_pos_site_id
 _symmetry_equiv_pos_as_xyz
  1  'x, y, z'
loop_
 _atom_site_type_symbol
 _atom_site_label
 _atom_site_symmetry_multiplicity
 _atom_site_fract_x
 _atom_site_fract_y
 _atom_site_fract_z
 _atom_site_occupancy
  Yb  Yb0  1  0.15210500  0.70482600  0.20903500  1
  Yb  Yb1  1  0.54368600  0.46008700  0.25798300  1
  Yb  Yb2  1  0.05420900  0.46008700  0.25798300  1
  Yb  Yb3  1  0.74579100  0.03991300  0.24201700  1
  Yb  Yb4  1  0.25631400  0.03991300  0.24201700  1
  Yb  Yb5  1  0.64789500  0.79517400  0.29096500  1
  Yb  Yb6  1  0.95210500  0.20482600  0.30903500  1
  Yb  Yb7  1  0.34368600  0.96008700  0.35798300  1
  Yb  Yb8  1  0.85420900  0.96008700  0.35798300  1
  Yb  Yb9  1  0.54579100  0.53991300  0.34201700  1
  Yb  Yb10  1  0.05631400  0.53991300  0.34201700  1
  Yb  Yb11  1  0.44789500  0.29517400  0.39096500  1
  Yb  Yb12  1  0.75210500  0.70482600  0.40903500  1
  Yb  Yb13  1  0.14368600  0.46008700  0.45798300  1
  Yb  Yb14  1  0.65420900  0.46008700  0.45798300  1
  Yb  Yb15  1  0.34579100  0.03991300  0.44201700  1
  Yb  Yb16  1  0.85631400  0.03991300  0.44201700  1
  Yb  Yb17  1  0.24789500  0.79517400  0.49096500  1
  Yb  Yb18  1  0.55210500  0.20482600  0.50903500  1
  Yb  Yb19  1  0.94368600  0.96008700  0.55798300  1
  Yb  Yb20  1  0.45420900  0.96008700  0.55798300  1
  Yb  Yb21  1  0.14579100  0.53991300  0.54201700  1
  Yb  Yb22  1  0.65631400  0.53991300  0.54201700  1
  Yb  Yb23  1  0.04789500  0.29517400  0.59096500  1
  Yb  Yb24  1  0.35210500  0.70482600  0.60903500  1
  Yb  Yb25  1  0.74368600  0.46008700  0.65798300  1
  Yb  Yb26  1  0.25420900  0.46008700  0.65798300  1
  Yb  Yb27  1  0.94579100  0.03991300  0.64201700  1
  Yb  Yb28  1  0.45631400  0.03991300  0.64201700  1
  Yb  Yb29  1  0.84789500  0.79517400  0.69096500  1
  Yb  Yb30  1  0.15210500  0.20482600  0.70903500  1
  Yb  Yb31  1  0.54368600  0.96008700  0.75798300  1
  Yb  Yb32  1  0.05420900  0.96008700  0.75798300  1
  Yb  Yb33  1  0.74579100  0.53991300  0.74201700  1
  Yb  Yb34  1  0.25631400  0.53991300  0.74201700  1
  Yb  Yb35  1  0.64789500  0.29517400  0.79096500  1
  Mg  Mg36  1  0.65000000  0.70833300  0.20833300  1
  Mg  Mg37  1  0.15000000  0.79166700  0.29166700  1
  Mg  Mg38  1  0.45000000  0.20833300  0.30833300  1
  Mg  Mg39  1  0.95000000  0.29166700  0.39166700  1
  Mg  Mg40  1  0.25000000  0.70833300  0.40833300  1
  Mg  Mg41  1  0.75000000  0.79166700  0.49166700  1
  Mg  Mg42  1  0.05000000  0.20833300  0.50833300  1
  Mg  Mg43  1  0.55000000  0.29166700  0.59166700  1
  Mg  Mg44  1  0.85000000  0.70833300  0.60833300  1
  Mg  Mg45  1  0.35000000  0.79166700  0.69166700  1
  Mg  Mg46  1  0.65000000  0.20833300  0.70833300  1
  Mg  Mg47  1  0.15000000  0.29166700  0.79166700  1
