# generated using pymatgen
data_Mg32Ir47
_symmetry_space_group_name_H-M   'P 1'
_cell_length_a   5.24707500
_cell_length_b   8.54477426
_cell_length_c   55.75889500
_cell_angle_alpha   88.31672616
_cell_angle_beta   90.00000000
_cell_angle_gamma   90.00000000
_symmetry_Int_Tables_number   1
_chemical_formula_structural   Mg32Ir47
_chemical_formula_sum   'Mg32 Ir47'
_cell_volume   2498.87525280
_cell_formula_units_Z   1
loop_
 _symmetry_equiv_pos_site_id
 _symmetry_equiv_pos_as_xyz
  1  'x, y, z'
loop_
 _atom_site_type_symbol
 _atom_site_label
 _atom_site_symmetry_multiplicity
 _atom_site_fract_x
 _atom_site_fract_y
 _atom_site_fract_z
 _atom_site_occupancy
  Mg  Mg0  1  0.50000000  0.91291700  0.16995500  1
  Mg  Mg1  1  0.00000000  0.06215100  0.19004500  1
  Mg  Mg2  1  0.00000000  0.53908600  0.24514400  1
  Mg  Mg3  1  0.50000000  0.10264900  0.44818900  1
  Mg  Mg4  1  0.50000000  0.22327900  0.49974700  1
  Mg  Mg5  1  0.00000000  0.41845500  0.19358700  1
  Mg  Mg6  1  0.50000000  0.70952100  0.45590000  1
  Mg  Mg7  1  0.00000000  0.93221400  0.23743300  1
  Mg  Mg8  1  0.50000000  0.72976900  0.25632300  1
  Mg  Mg9  1  0.00000000  0.91196600  0.43701100  1
  Mg  Mg10  1  0.00000000  0.74625000  0.33662100  1
  Mg  Mg11  1  0.50000000  0.89548400  0.35671200  1
  Mg  Mg12  1  0.50000000  0.37241900  0.41181100  1
  Mg  Mg13  1  0.00000000  0.26931600  0.28152200  1
  Mg  Mg14  1  1.00000000  0.38994600  0.33308000  1
  Mg  Mg15  1  0.50000000  0.25178900  0.36025300  1
  Mg  Mg16  1  1.00000000  0.87618800  0.28923300  1
  Mg  Mg17  1  0.50000000  0.76554700  0.40410000  1
  Mg  Mg18  1  0.00000000  0.56310200  0.42298900  1
  Mg  Mg19  1  0.50000000  0.07863200  0.27034400  1
  Mg  Mg20  1  0.50000000  0.57958400  0.50328800  1
  Mg  Mg21  1  0.00000000  0.72881800  0.52337900  1
  Mg  Mg22  1  1.00000000  0.20575200  0.57847800  1
  Mg  Mg23  1  0.00000000  0.08512200  0.52692000  1
  Mg  Mg24  1  0.00000000  0.59888000  0.57076700  1
  Mg  Mg25  1  0.50000000  0.39643600  0.58965600  1
  Mg  Mg26  1  0.00000000  0.41291700  0.66995500  1
  Mg  Mg27  1  0.50000000  0.56215100  0.69004500  1
  Mg  Mg28  1  0.00000000  0.93598200  0.61485600  1
  Mg  Mg29  1  0.00000000  0.05661300  0.66641300  1
  Mg  Mg30  1  1.00000000  0.54285400  0.62256700  1
  Mg  Mg31  1  0.50000000  0.74529900  0.60367700  1
  Ir  Ir32  1  0.00000000  0.66550600  0.47370700  1
  Ir  Ir33  1  0.50000000  0.97622800  0.21962600  1
  Ir  Ir34  1  0.24951300  0.73065400  0.20735200  1
  Ir  Ir35  1  0.25048700  0.91108100  0.48598100  1
  Ir  Ir36  1  0.74951300  0.91108100  0.48598100  1
  Ir  Ir37  1  0.75048700  0.73065400  0.20735200  1
  Ir  Ir38  1  1.00000000  0.23753400  0.43000000  1
  Ir  Ir39  1  0.50000000  0.23316600  0.19134500  1
  Ir  Ir40  1  0.00000000  0.74190200  0.16865500  1
  Ir  Ir41  1  0.50000000  0.48259200  0.21805700  1
  Ir  Ir42  1  1.00000000  0.15914300  0.47527600  1
  Ir  Ir43  1  0.26606200  0.41137100  0.46025600  1
  Ir  Ir44  1  0.23393800  0.23036400  0.23307700  1
  Ir  Ir45  1  0.76606200  0.23036400  0.23307700  1
  Ir  Ir46  1  0.73393800  0.41137100  0.46025600  1
  Ir  Ir47  1  0.50000000  0.83217300  0.30704100  1
  Ir  Ir48  1  1.00000000  0.80956200  0.38629300  1
  Ir  Ir49  1  0.74951300  0.56398700  0.37401900  1
  Ir  Ir50  1  0.75048700  0.07774700  0.31931500  1
  Ir  Ir51  1  0.24951300  0.07774700  0.31931500  1
  Ir  Ir52  1  0.25048700  0.56398700  0.37401900  1
  Ir  Ir53  1  0.50000000  0.40420100  0.26333300  1
  Ir  Ir54  1  0.00000000  0.06649900  0.35801200  1
  Ir  Ir55  1  0.50000000  0.57523600  0.33532100  1
  Ir  Ir56  1  0.00000000  0.31592500  0.38472400  1
  Ir  Ir57  1  0.50000000  0.32580900  0.30860900  1
  Ir  Ir58  1  0.76606200  0.57803800  0.29358900  1
  Ir  Ir59  1  0.73393800  0.06369700  0.39974400  1
  Ir  Ir60  1  0.26606200  0.06369700  0.39974400  1
  Ir  Ir61  1  0.23393800  0.57803800  0.29358900  1
  Ir  Ir62  1  0.50000000  0.64289500  0.55295900  1
  Ir  Ir63  1  0.24951300  0.39732100  0.54068500  1
  Ir  Ir64  1  0.75048700  0.39732100  0.54068500  1
  Ir  Ir65  1  0.50000000  0.89983200  0.52467900  1
  Ir  Ir66  1  0.00000000  0.40856900  0.50198800  1
  Ir  Ir67  1  0.50000000  0.14925800  0.55139100  1
  Ir  Ir68  1  0.23393800  0.89703000  0.56641100  1
  Ir  Ir69  1  0.76606200  0.89703000  0.56641100  1
  Ir  Ir70  1  0.50000000  0.49883900  0.64037400  1
  Ir  Ir71  1  0.75048700  0.74441400  0.65264800  1
  Ir  Ir72  1  0.24951300  0.74441400  0.65264800  1
  Ir  Ir73  1  0.50000000  0.07086700  0.59666700  1
  Ir  Ir74  1  0.00000000  0.73316600  0.69134500  1
  Ir  Ir75  1  0.50000000  0.24190200  0.66865500  1
  Ir  Ir76  1  0.50000000  0.99247600  0.64194300  1
  Ir  Ir77  1  0.76606200  0.24470400  0.62692300  1
  Ir  Ir78  1  0.23393800  0.24470400  0.62692300  1
