# generated using pymatgen
data_MgZn5
_symmetry_space_group_name_H-M   'P 1'
_cell_length_a   4.98183600
_cell_length_b   24.97062623
_cell_length_c   44.22797300
_cell_angle_alpha   91.77467371
_cell_angle_beta   90.00000000
_cell_angle_gamma   90.00000000
_symmetry_Int_Tables_number   1
_chemical_formula_structural   MgZn5
_chemical_formula_sum   'Mg32 Zn160'
_cell_volume   5499.30156751
_cell_formula_units_Z   32
loop_
 _symmetry_equiv_pos_site_id
 _symmetry_equiv_pos_as_xyz
  1  'x, y, z'
loop_
 _atom_site_type_symbol
 _atom_site_label
 _atom_site_symmetry_multiplicity
 _atom_site_fract_x
 _atom_site_fract_y
 _atom_site_fract_z
 _atom_site_occupancy
  Mg  Mg0  1  0.50000000  0.87839800  0.26336600  1
  Mg  Mg1  1  0.00000000  0.90731600  0.30806200  1
  Mg  Mg2  1  0.50000000  0.24975200  0.35349800  1
  Mg  Mg3  1  0.00000000  0.53596200  0.21793100  1
  Mg  Mg4  1  0.00000000  0.52125500  0.33479500  1
  Mg  Mg5  1  0.50000000  0.26445900  0.23663400  1
  Mg  Mg6  1  0.00000000  0.60689500  0.28206900  1
  Mg  Mg7  1  0.50000000  0.17881900  0.28935900  1
  Mg  Mg8  1  0.50000000  0.16411200  0.40622300  1
  Mg  Mg9  1  0.00000000  0.19303000  0.45091900  1
  Mg  Mg10  1  0.50000000  0.53546600  0.49635500  1
  Mg  Mg11  1  0.00000000  0.82167700  0.36078800  1
  Mg  Mg12  1  0.00000000  0.80697000  0.47765200  1
  Mg  Mg13  1  0.50000000  0.55017300  0.37949100  1
  Mg  Mg14  1  0.00000000  0.89260900  0.42492600  1
  Mg  Mg15  1  0.50000000  0.46453400  0.43221700  1
  Mg  Mg16  1  0.50000000  0.44982700  0.54908100  1
  Mg  Mg17  1  0.00000000  0.47874500  0.59377700  1
  Mg  Mg18  1  0.50000000  0.82118100  0.63921200  1
  Mg  Mg19  1  0.00000000  0.10739100  0.50364500  1
  Mg  Mg20  1  1.00000000  0.09268400  0.62050900  1
  Mg  Mg21  1  0.50000000  0.83588800  0.52234800  1
  Mg  Mg22  1  0.00000000  0.17832300  0.56778300  1
  Mg  Mg23  1  0.50000000  0.75024800  0.57507400  1
  Mg  Mg24  1  0.50000000  0.73554100  0.69193800  1
  Mg  Mg25  1  1.00000000  0.76445900  0.73663400  1
  Mg  Mg26  1  0.50000000  0.10689500  0.78206900  1
  Mg  Mg27  1  1.00000000  0.39310500  0.64650200  1
  Mg  Mg28  1  1.00000000  0.37839800  0.76336600  1
  Mg  Mg29  1  0.50000000  0.12160200  0.66520500  1
  Mg  Mg30  1  1.00000000  0.46403800  0.71064100  1
  Mg  Mg31  1  0.50000000  0.03596200  0.71793100  1
  Zn  Zn32  1  0.50000000  0.07142900  0.25000000  1
  Zn  Zn33  1  0.50000000  0.68464200  0.28998000  1
  Zn  Zn34  1  0.50000000  0.75946400  0.23907900  1
  Zn  Zn35  1  0.50000000  0.86685000  0.33410000  1
  Zn  Zn36  1  0.00000000  0.91886400  0.23732800  1
  Zn  Zn37  1  0.25265100  0.12976800  0.34326800  1
  Zn  Zn38  1  0.24714400  0.98945400  0.27093300  1
  Zn  Zn39  1  1.00000000  0.10107200  0.28144900  1
  Zn  Zn40  1  1.00000000  0.81736100  0.24911800  1
  Zn  Zn41  1  0.74714400  0.79626000  0.30049500  1
  Zn  Zn42  1  0.75285600  0.98945400  0.27093300  1
  Zn  Zn43  1  0.25285600  0.79626000  0.30049500  1
  Zn  Zn44  1  0.75265100  0.65594600  0.22816100  1
  Zn  Zn45  1  1.00000000  0.02625000  0.33235000  1
  Zn  Zn46  1  0.74734900  0.12976800  0.34326800  1
  Zn  Zn47  1  0.24734900  0.65594600  0.22816100  1
  Zn  Zn48  1  0.00000000  0.21428600  0.32142900  1
  Zn  Zn49  1  0.50000000  0.06578900  0.30698500  1
  Zn  Zn50  1  1.00000000  0.71992500  0.26444400  1
  Zn  Zn51  1  0.50000000  0.96835300  0.32231000  1
  Zn  Zn52  1  1.00000000  0.71428600  0.32142900  1
  Zn  Zn53  1  1.00000000  0.04178500  0.21855100  1
  Zn  Zn54  1  1.00000000  0.40232100  0.31050700  1
  Zn  Zn55  1  1.00000000  0.22399300  0.26267200  1
  Zn  Zn56  1  0.50000000  0.56172100  0.30875700  1
  Zn  Zn57  1  0.75265100  0.48691100  0.27183900  1
  Zn  Zn58  1  0.74714400  0.63231100  0.34236200  1
  Zn  Zn59  1  0.50000000  0.74393000  0.35287700  1
  Zn  Zn60  1  0.50000000  0.46021800  0.32054700  1
  Zn  Zn61  1  0.24714400  0.15340300  0.22906700  1
  Zn  Zn62  1  0.25285600  0.63231100  0.34236200  1
  Zn  Zn63  1  0.75285600  0.15340300  0.22906700  1
  Zn  Zn64  1  0.25265100  0.29880300  0.29958900  1
  Zn  Zn65  1  0.50000000  0.38339300  0.26092100  1
  Zn  Zn66  1  0.24734900  0.48691100  0.27183900  1
  Zn  Zn67  1  0.74734900  0.29880300  0.29958900  1
  Zn  Zn68  1  0.50000000  0.57142900  0.25000000  1
  Zn  Zn69  1  1.00000000  0.42293200  0.23555600  1
  Zn  Zn70  1  0.50000000  0.36278200  0.33587200  1
  Zn  Zn71  1  0.00000000  0.32549600  0.25088200  1
  Zn  Zn72  1  0.50000000  0.35714300  0.39285700  1
  Zn  Zn73  1  0.50000000  0.97035600  0.43283700  1
  Zn  Zn74  1  0.50000000  0.04517800  0.38193600  1
  Zn  Zn75  1  0.50000000  0.15256400  0.47695700  1
  Zn  Zn76  1  0.00000000  0.20457800  0.38018500  1
  Zn  Zn77  1  0.25265100  0.41548300  0.48612500  1
  Zn  Zn78  1  0.24714400  0.27516800  0.41379000  1
  Zn  Zn79  1  0.00000000  0.38678700  0.42430600  1
  Zn  Zn80  1  1.00000000  0.10307600  0.39197500  1
  Zn  Zn81  1  0.74714400  0.08197400  0.44335200  1
  Zn  Zn82  1  0.75285600  0.27516800  0.41379000  1
  Zn  Zn83  1  0.25285600  0.08197400  0.44335200  1
  Zn  Zn84  1  0.75265100  0.94166000  0.37101800  1
  Zn  Zn85  1  1.00000000  0.31196400  0.47520700  1
  Zn  Zn86  1  0.74734900  0.41548300  0.48612500  1
  Zn  Zn87  1  0.24734900  0.94166000  0.37101800  1
  Zn  Zn88  1  0.00000000  0.50000000  0.46428600  1
  Zn  Zn89  1  0.50000000  0.35150400  0.44984200  1
  Zn  Zn90  1  1.00000000  0.00563900  0.40730100  1
  Zn  Zn91  1  0.50000000  0.25406700  0.46516800  1
  Zn  Zn92  1  1.00000000  1.00000000  0.46428600  1
  Zn  Zn93  1  1.00000000  0.32749900  0.36140800  1
  Zn  Zn94  1  1.00000000  0.68803600  0.45336400  1
  Zn  Zn95  1  0.00000000  0.50970700  0.40552900  1
  Zn  Zn96  1  0.50000000  0.84743600  0.45161400  1
  Zn  Zn97  1  0.75265100  0.77262600  0.41469600  1
  Zn  Zn98  1  0.74714400  0.91802600  0.48521900  1
  Zn  Zn99  1  0.50000000  0.02964400  0.49573500  1
  Zn  Zn100  1  0.50000000  0.74593300  0.46340400  1
  Zn  Zn101  1  0.24714400  0.43911700  0.37192400  1
  Zn  Zn102  1  0.25285600  0.91802600  0.48521900  1
  Zn  Zn103  1  0.75285600  0.43911700  0.37192400  1
  Zn  Zn104  1  0.25265100  0.58451700  0.44244600  1
  Zn  Zn105  1  0.50000000  0.66910700  0.40377900  1
  Zn  Zn106  1  0.24734900  0.77262600  0.41469600  1
  Zn  Zn107  1  0.74734900  0.58451700  0.44244600  1
  Zn  Zn108  1  0.50000000  0.85714300  0.39285700  1
  Zn  Zn109  1  1.00000000  0.70864700  0.37841300  1
  Zn  Zn110  1  0.50000000  0.64849600  0.47872900  1
  Zn  Zn111  1  1.00000000  0.61121000  0.39373900  1
  Zn  Zn112  1  0.50000000  0.64285700  0.53571400  1
  Zn  Zn113  1  0.50000000  0.25607000  0.57569400  1
  Zn  Zn114  1  0.50000000  0.33089300  0.52479300  1
  Zn  Zn115  1  0.50000000  0.43827900  0.61981500  1
  Zn  Zn116  1  0.00000000  0.49029300  0.52304300  1
  Zn  Zn117  1  0.25265100  0.70119700  0.62898200  1
  Zn  Zn118  1  0.24714400  0.56088300  0.55664800  1
  Zn  Zn119  1  1.00000000  0.67250100  0.56716300  1
  Zn  Zn120  1  0.00000000  0.38879000  0.53483200  1
  Zn  Zn121  1  0.74714400  0.36768900  0.58621000  1
  Zn  Zn122  1  0.75285600  0.56088300  0.55664800  1
  Zn  Zn123  1  0.25285600  0.36768900  0.58621000  1
  Zn  Zn124  1  0.75265100  0.22737400  0.51387500  1
  Zn  Zn125  1  1.00000000  0.59767900  0.61806400  1
  Zn  Zn126  1  0.74734900  0.70119700  0.62898200  1
  Zn  Zn127  1  0.24734900  0.22737400  0.51387500  1
  Zn  Zn128  1  1.00000000  0.78571400  0.60714300  1
  Zn  Zn129  1  0.50000000  0.63721800  0.59269900  1
  Zn  Zn130  1  1.00000000  0.29135300  0.55015800  1
  Zn  Zn131  1  0.50000000  0.53978200  0.60802500  1
  Zn  Zn132  1  1.00000000  0.28571400  0.60714300  1
  Zn  Zn133  1  0.00000000  0.61321300  0.50426500  1
  Zn  Zn134  1  0.00000000  0.97375000  0.59622100  1
  Zn  Zn135  1  1.00000000  0.79542200  0.54838600  1
  Zn  Zn136  1  0.50000000  0.13315000  0.59447100  1
  Zn  Zn137  1  0.75265100  0.05834000  0.55755400  1
  Zn  Zn138  1  0.74714400  0.20374000  0.62807600  1
  Zn  Zn139  1  0.50000000  0.31535800  0.63859200  1
  Zn  Zn140  1  0.50000000  0.03164700  0.60626100  1
  Zn  Zn141  1  0.24714400  0.72483200  0.51478100  1
  Zn  Zn142  1  0.25285600  0.20374000  0.62807600  1
  Zn  Zn143  1  0.75285600  0.72483200  0.51478100  1
  Zn  Zn144  1  0.25265100  0.87023200  0.58530400  1
  Zn  Zn145  1  0.50000000  0.95482200  0.54663600  1
  Zn  Zn146  1  0.24734900  0.05834000  0.55755400  1
  Zn  Zn147  1  0.74734900  0.87023200  0.58530400  1
  Zn  Zn148  1  0.50000000  0.14285700  0.53571400  1
  Zn  Zn149  1  1.00000000  0.99436100  0.52127100  1
  Zn  Zn150  1  0.50000000  0.93421100  0.62158700  1
  Zn  Zn151  1  0.00000000  0.89692400  0.53659600  1
  Zn  Zn152  1  0.50000000  0.92857100  0.67857100  1
  Zn  Zn153  1  0.50000000  0.54178500  0.71855100  1
  Zn  Zn154  1  0.50000000  0.61660700  0.66765000  1
  Zn  Zn155  1  0.50000000  0.72399300  0.76267200  1
  Zn  Zn156  1  1.00000000  0.77600700  0.66590000  1
  Zn  Zn157  1  0.25265100  0.98691100  0.77183900  1
  Zn  Zn158  1  0.24714400  0.84659700  0.69950500  1
  Zn  Zn159  1  1.00000000  0.95821500  0.71002000  1
  Zn  Zn160  1  0.00000000  0.67450400  0.67769000  1
  Zn  Zn161  1  0.74714400  0.65340300  0.72906700  1
  Zn  Zn162  1  0.75285600  0.84659700  0.69950500  1
  Zn  Zn163  1  0.25285600  0.65340300  0.72906700  1
  Zn  Zn164  1  0.75265100  0.51308900  0.65673200  1
  Zn  Zn165  1  0.00000000  0.88339300  0.76092100  1
  Zn  Zn166  1  0.74734900  0.98691100  0.77183900  1
  Zn  Zn167  1  0.24734900  0.51308900  0.65673200  1
  Zn  Zn168  1  1.00000000  0.07142900  0.75000000  1
  Zn  Zn169  1  0.50000000  0.92293200  0.73555600  1
  Zn  Zn170  1  1.00000000  0.57706800  0.69301500  1
  Zn  Zn171  1  0.50000000  0.82549600  0.75088200  1
  Zn  Zn172  1  1.00000000  0.57142900  0.75000000  1
  Zn  Zn173  1  0.00000000  0.89892800  0.64712300  1
  Zn  Zn174  1  0.00000000  0.25946400  0.73907900  1
  Zn  Zn175  1  0.00000000  0.08113600  0.69124300  1
  Zn  Zn176  1  0.50000000  0.41886400  0.73732800  1
  Zn  Zn177  1  0.75265100  0.34405400  0.70041100  1
  Zn  Zn178  1  0.74714400  0.48945400  0.77093300  1
  Zn  Zn179  1  0.50000000  0.60107200  0.78144900  1
  Zn  Zn180  1  0.50000000  0.31736100  0.74911800  1
  Zn  Zn181  1  0.24714400  0.01054600  0.65763800  1
  Zn  Zn182  1  0.25285600  0.48945400  0.77093300  1
  Zn  Zn183  1  0.75285600  0.01054600  0.65763800  1
  Zn  Zn184  1  0.25265100  0.15594600  0.72816100  1
  Zn  Zn185  1  0.50000000  0.24053600  0.68949300  1
  Zn  Zn186  1  0.24734900  0.34405400  0.70041100  1
  Zn  Zn187  1  0.74734900  0.15594600  0.72816100  1
  Zn  Zn188  1  0.50000000  0.42857100  0.67857100  1
  Zn  Zn189  1  1.00000000  0.28007500  0.66412800  1
  Zn  Zn190  1  0.50000000  0.21992500  0.76444400  1
  Zn  Zn191  1  0.00000000  0.18263900  0.67945300  1
