# generated using pymatgen
data_Tm32Mg11
_symmetry_space_group_name_H-M   'P 1'
_cell_length_a   4.96522053
_cell_length_b   9.91504484
_cell_length_c   43.28226200
_cell_angle_alpha   93.33418663
_cell_angle_beta   93.28820928
_cell_angle_gamma   75.49951212
_symmetry_Int_Tables_number   1
_chemical_formula_structural   Tm32Mg11
_chemical_formula_sum   'Tm32 Mg11'
_cell_volume   2057.41493294
_cell_formula_units_Z   1
loop_
 _symmetry_equiv_pos_site_id
 _symmetry_equiv_pos_as_xyz
  1  'x, y, z'
loop_
 _atom_site_type_symbol
 _atom_site_label
 _atom_site_symmetry_multiplicity
 _atom_site_fract_x
 _atom_site_fract_y
 _atom_site_fract_z
 _atom_site_occupancy
  Tm  Tm0  1  0.32810600  0.73635500  0.21571300  1
  Tm  Tm1  1  0.11285400  0.19376500  0.24262000  1
  Tm  Tm2  1  0.88366100  0.68079900  0.27126900  1
  Tm  Tm3  1  0.49825700  0.43728200  0.25694400  1
  Tm  Tm4  1  0.66840900  0.13821000  0.29817500  1
  Tm  Tm5  1  0.43921700  0.62524400  0.32682500  1
  Tm  Tm6  1  0.05381300  0.38172700  0.31250000  1
  Tm  Tm7  1  0.22396500  0.08265400  0.35373100  1
  Tm  Tm8  1  0.99477200  0.56968800  0.38238000  1
  Tm  Tm9  1  0.60936900  0.32617100  0.36805600  1
  Tm  Tm10  1  0.77952000  0.02709800  0.40928700  1
  Tm  Tm11  1  0.55032800  0.51413300  0.43793600  1
  Tm  Tm12  1  0.16492400  0.27061600  0.42361100  1
  Tm  Tm13  1  0.33507600  0.97154300  0.46484200  1
  Tm  Tm14  1  0.10588300  0.45857700  0.49349100  1
  Tm  Tm15  1  0.72048000  0.21506000  0.47916700  1
  Tm  Tm16  1  0.89063100  0.91598700  0.52039800  1
  Tm  Tm17  1  0.66143900  0.40302100  0.54904700  1
  Tm  Tm18  1  0.27603500  0.15950400  0.53472200  1
  Tm  Tm19  1  0.44618700  0.86043200  0.57595300  1
  Tm  Tm20  1  0.21699400  0.34746600  0.60460200  1
  Tm  Tm21  1  0.83159100  0.10394900  0.59027800  1
  Tm  Tm22  1  0.00174300  0.80487600  0.63150900  1
  Tm  Tm23  1  0.77255000  0.29191000  0.66015800  1
  Tm  Tm24  1  0.38714600  0.04839300  0.64583300  1
  Tm  Tm25  1  0.55729800  0.74932100  0.68706400  1
  Tm  Tm26  1  0.32810600  0.23635500  0.71571300  1
  Tm  Tm27  1  0.94270200  0.99283800  0.70138900  1
  Tm  Tm28  1  0.11285400  0.69376500  0.74262000  1
  Tm  Tm29  1  0.88366100  0.18079900  0.77126900  1
  Tm  Tm30  1  0.49825700  0.93728200  0.75694400  1
  Tm  Tm31  1  0.66840900  0.63821000  0.79817500  1
  Mg  Mg32  1  0.72048000  0.96506000  0.22916700  1
  Mg  Mg33  1  0.27603500  0.90950400  0.28472200  1
  Mg  Mg34  1  0.83159100  0.85394900  0.34027800  1
  Mg  Mg35  1  0.38714600  0.79839300  0.39583300  1
  Mg  Mg36  1  0.94270200  0.74283800  0.45138900  1
  Mg  Mg37  1  0.49825700  0.68728200  0.50694400  1
  Mg  Mg38  1  0.05381300  0.63172700  0.56250000  1
  Mg  Mg39  1  0.60936900  0.57617100  0.61805600  1
  Mg  Mg40  1  0.16492400  0.52061600  0.67361100  1
  Mg  Mg41  1  0.72048000  0.46506000  0.72916700  1
  Mg  Mg42  1  0.27603500  0.40950400  0.78472200  1
