# generated using pymatgen
data_Mg3B11
_symmetry_space_group_name_H-M   'P 1'
_cell_length_a   4.39738600
_cell_length_b   7.42725500
_cell_length_c   43.87913800
_cell_angle_alpha   90.00000000
_cell_angle_beta   90.00000000
_cell_angle_gamma   90.00000000
_symmetry_Int_Tables_number   1
_chemical_formula_structural   Mg3B11
_chemical_formula_sum   'Mg18 B66'
_cell_volume   1433.11490062
_cell_formula_units_Z   6
loop_
 _symmetry_equiv_pos_site_id
 _symmetry_equiv_pos_as_xyz
  1  'x, y, z'
loop_
 _atom_site_type_symbol
 _atom_site_label
 _atom_site_symmetry_multiplicity
 _atom_site_fract_x
 _atom_site_fract_y
 _atom_site_fract_z
 _atom_site_occupancy
  Mg  Mg0  1  0.25000000  0.13778600  0.30571000  1
  Mg  Mg1  1  0.75000000  0.86221400  0.29429000  1
  Mg  Mg2  1  0.25000000  0.36221400  0.36821000  1
  Mg  Mg3  1  0.75000000  0.63778600  0.35679000  1
  Mg  Mg4  1  0.25000000  0.13778600  0.43071000  1
  Mg  Mg5  1  0.75000000  0.86221400  0.41929000  1
  Mg  Mg6  1  0.25000000  0.36221400  0.49321000  1
  Mg  Mg7  1  0.75000000  0.63778600  0.48179000  1
  Mg  Mg8  1  0.25000000  0.13778600  0.55571000  1
  Mg  Mg9  1  0.75000000  0.86221400  0.54429000  1
  Mg  Mg10  1  0.25000000  0.36221400  0.61821000  1
  Mg  Mg11  1  0.75000000  0.63778600  0.60679000  1
  Mg  Mg12  1  0.25000000  0.13778600  0.68071000  1
  Mg  Mg13  1  0.75000000  0.86221400  0.66929000  1
  Mg  Mg14  1  0.25000000  0.36221400  0.74321000  1
  Mg  Mg15  1  0.75000000  0.63778600  0.73179000  1
  Mg  Mg16  1  0.25000000  0.13778600  0.80571000  1
  Mg  Mg17  1  0.75000000  0.86221400  0.79429000  1
  B  B18  1  0.25000000  0.64694100  0.30667200  1
  B  B19  1  0.75000000  0.35305900  0.29332800  1
  B  B20  1  0.25000000  0.84631100  0.32779800  1
  B  B21  1  0.75000000  0.15368900  0.39720200  1
  B  B22  1  0.25000000  0.65368900  0.39029800  1
  B  B23  1  0.75000000  0.34631100  0.33470200  1
  B  B24  1  0.25000000  0.64694100  0.43167200  1
  B  B25  1  0.75000000  0.35305900  0.41832800  1
  B  B26  1  0.25000000  0.85305900  0.36917200  1
  B  B27  1  0.75000000  0.14694100  0.35582800  1
  B  B28  1  0.05800500  0.06322000  0.37904100  1
  B  B29  1  0.55800500  0.93678000  0.34595900  1
  B  B30  1  0.44199500  0.43678000  0.31654100  1
  B  B31  1  0.94199500  0.56322000  0.40845900  1
  B  B32  1  0.94199500  0.93678000  0.34595900  1
  B  B33  1  0.44199500  0.06322000  0.37904100  1
  B  B34  1  0.55800500  0.56322000  0.40845900  1
  B  B35  1  0.05800500  0.43678000  0.31654100  1
  B  B36  1  0.25000000  0.84631100  0.45279800  1
  B  B37  1  0.75000000  0.15368900  0.52220200  1
  B  B38  1  0.25000000  0.65368900  0.51529800  1
  B  B39  1  0.75000000  0.34631100  0.45970200  1
  B  B40  1  0.25000000  0.64694100  0.55667200  1
  B  B41  1  0.75000000  0.35305900  0.54332800  1
  B  B42  1  0.25000000  0.85305900  0.49417200  1
  B  B43  1  0.75000000  0.14694100  0.48082800  1
  B  B44  1  0.05800500  0.06322000  0.50404100  1
  B  B45  1  0.55800500  0.93678000  0.47095900  1
  B  B46  1  0.44199500  0.43678000  0.44154100  1
  B  B47  1  0.94199500  0.56322000  0.53345900  1
  B  B48  1  0.94199500  0.93678000  0.47095900  1
  B  B49  1  0.44199500  0.06322000  0.50404100  1
  B  B50  1  0.55800500  0.56322000  0.53345900  1
  B  B51  1  0.05800500  0.43678000  0.44154100  1
  B  B52  1  0.25000000  0.84631100  0.57779800  1
  B  B53  1  0.75000000  0.15368900  0.64720200  1
  B  B54  1  0.25000000  0.65368900  0.64029800  1
  B  B55  1  0.75000000  0.34631100  0.58470200  1
  B  B56  1  0.25000000  0.64694100  0.68167200  1
  B  B57  1  0.75000000  0.35305900  0.66832800  1
  B  B58  1  0.25000000  0.85305900  0.61917200  1
  B  B59  1  0.75000000  0.14694100  0.60582800  1
  B  B60  1  0.05800500  0.06322000  0.62904100  1
  B  B61  1  0.55800500  0.93678000  0.59595900  1
  B  B62  1  0.44199500  0.43678000  0.56654100  1
  B  B63  1  0.94199500  0.56322000  0.65845900  1
  B  B64  1  0.94199500  0.93678000  0.59595900  1
  B  B65  1  0.44199500  0.06322000  0.62904100  1
  B  B66  1  0.55800500  0.56322000  0.65845900  1
  B  B67  1  0.05800500  0.43678000  0.56654100  1
  B  B68  1  0.25000000  0.84631100  0.70279800  1
  B  B69  1  0.75000000  0.15368900  0.77220200  1
  B  B70  1  0.25000000  0.65368900  0.76529800  1
  B  B71  1  0.75000000  0.34631100  0.70970200  1
  B  B72  1  0.25000000  0.64694100  0.80667200  1
  B  B73  1  0.75000000  0.35305900  0.79332800  1
  B  B74  1  0.25000000  0.85305900  0.74417200  1
  B  B75  1  0.75000000  0.14694100  0.73082800  1
  B  B76  1  0.05800500  0.06322000  0.75404100  1
  B  B77  1  0.55800500  0.93678000  0.72095900  1
  B  B78  1  0.44199500  0.43678000  0.69154100  1
  B  B79  1  0.94199500  0.56322000  0.78345900  1
  B  B80  1  0.94199500  0.93678000  0.72095900  1
  B  B81  1  0.44199500  0.06322000  0.75404100  1
  B  B82  1  0.55800500  0.56322000  0.78345900  1
  B  B83  1  0.05800500  0.43678000  0.69154100  1
