# generated using pymatgen
data_Mg11Hg4
_symmetry_space_group_name_H-M   'P 1'
_cell_length_a   5.00141800
_cell_length_b   10.90405782
_cell_length_c   41.28209700
_cell_angle_alpha   97.58908874
_cell_angle_beta   90.00000000
_cell_angle_gamma   90.00000000
_symmetry_Int_Tables_number   1
_chemical_formula_structural   Mg11Hg4
_chemical_formula_sum   'Mg44 Hg16'
_cell_volume   2231.62993282
_cell_formula_units_Z   4
loop_
 _symmetry_equiv_pos_site_id
 _symmetry_equiv_pos_as_xyz
  1  'x, y, z'
loop_
 _atom_site_type_symbol
 _atom_site_label
 _atom_site_symmetry_multiplicity
 _atom_site_fract_x
 _atom_site_fract_y
 _atom_site_fract_z
 _atom_site_occupancy
  Mg  Mg0  1  0.25000000  0.48658200  0.25000000  1
  Mg  Mg1  1  0.75000000  0.82380100  0.25000000  1
  Mg  Mg2  1  0.25000000  0.25850300  0.28801300  1
  Mg  Mg3  1  0.25000000  0.75895100  0.28891000  1
  Mg  Mg4  1  0.25000000  0.02504300  0.32692300  1
  Mg  Mg5  1  0.75000000  0.36226300  0.32692300  1
  Mg  Mg6  1  0.75000000  0.08989300  0.28801300  1
  Mg  Mg7  1  0.75000000  0.59034100  0.28891000  1
  Mg  Mg8  1  0.25000000  0.79696400  0.36493600  1
  Mg  Mg9  1  0.25000000  0.29741300  0.36583300  1
  Mg  Mg10  1  0.25000000  0.56350500  0.40384600  1
  Mg  Mg11  1  0.75000000  0.90072400  0.40384600  1
  Mg  Mg12  1  0.75000000  0.62835500  0.36493600  1
  Mg  Mg13  1  0.75000000  0.12880300  0.36583300  1
  Mg  Mg14  1  0.25000000  0.33542600  0.44185900  1
  Mg  Mg15  1  0.25000000  0.83587400  0.44275600  1
  Mg  Mg16  1  0.25000000  0.10196600  0.48076900  1
  Mg  Mg17  1  0.75000000  0.43918600  0.48076900  1
  Mg  Mg18  1  0.75000000  0.16681600  0.44185900  1
  Mg  Mg19  1  0.75000000  0.66726500  0.44275600  1
  Mg  Mg20  1  0.25000000  0.87388700  0.51878200  1
  Mg  Mg21  1  0.25000000  0.37433600  0.51967900  1
  Mg  Mg22  1  0.25000000  0.64042800  0.55769200  1
  Mg  Mg23  1  0.75000000  0.97764700  0.55769200  1
  Mg  Mg24  1  0.75000000  0.70527800  0.51878200  1
  Mg  Mg25  1  0.75000000  0.20572600  0.51967900  1
  Mg  Mg26  1  0.25000000  0.41234900  0.59570500  1
  Mg  Mg27  1  0.25000000  0.91279700  0.59660200  1
  Mg  Mg28  1  0.25000000  0.17888900  0.63461500  1
  Mg  Mg29  1  0.75000000  0.51610900  0.63461500  1
  Mg  Mg30  1  0.75000000  0.24373900  0.59570500  1
  Mg  Mg31  1  0.75000000  0.74418800  0.59660200  1
  Mg  Mg32  1  0.25000000  0.95081000  0.67262900  1
  Mg  Mg33  1  0.25000000  0.45125900  0.67352500  1
  Mg  Mg34  1  0.25000000  0.71735100  0.71153800  1
  Mg  Mg35  1  0.75000000  0.05457000  0.71153800  1
  Mg  Mg36  1  0.75000000  0.78220100  0.67262900  1
  Mg  Mg37  1  0.75000000  0.28264900  0.67352500  1
  Mg  Mg38  1  0.25000000  0.48927200  0.74955200  1
  Mg  Mg39  1  0.25000000  0.98972000  0.75044800  1
  Mg  Mg40  1  0.25000000  0.25581200  0.78846200  1
  Mg  Mg41  1  0.75000000  0.59303200  0.78846200  1
  Mg  Mg42  1  0.75000000  0.32066200  0.74955200  1
  Mg  Mg43  1  0.75000000  0.82111100  0.75044800  1
  Hg  Hg44  1  0.25000000  0.98852500  0.25000000  1
  Hg  Hg45  1  0.75000000  0.32185800  0.25000000  1
  Hg  Hg46  1  0.25000000  0.52698600  0.32692300  1
  Hg  Hg47  1  0.75000000  0.86032000  0.32692300  1
  Hg  Hg48  1  0.25000000  0.06544800  0.40384600  1
  Hg  Hg49  1  0.75000000  0.39878100  0.40384600  1
  Hg  Hg50  1  0.25000000  0.60390900  0.48076900  1
  Hg  Hg51  1  0.75000000  0.93724300  0.48076900  1
  Hg  Hg52  1  0.25000000  0.14237100  0.55769200  1
  Hg  Hg53  1  0.75000000  0.47570400  0.55769200  1
  Hg  Hg54  1  0.25000000  0.68083200  0.63461500  1
  Hg  Hg55  1  0.75000000  0.01416600  0.63461500  1
  Hg  Hg56  1  0.25000000  0.21929400  0.71153800  1
  Hg  Hg57  1  0.75000000  0.55262700  0.71153800  1
  Hg  Hg58  1  0.25000000  0.75775500  0.78846200  1
  Hg  Hg59  1  0.75000000  0.09108900  0.78846200  1
