# generated using pymatgen
data_Mg7B53
_symmetry_space_group_name_H-M   'P 1'
_cell_length_a   5.97250318
_cell_length_b   7.26364858
_cell_length_c   45.01062000
_cell_angle_alpha   86.50256948
_cell_angle_beta   86.19588580
_cell_angle_gamma   65.72461627
_symmetry_Int_Tables_number   1
_chemical_formula_structural   Mg7B53
_chemical_formula_sum   'Mg14 B106'
_cell_volume   1774.86073170
_cell_formula_units_Z   2
loop_
 _symmetry_equiv_pos_site_id
 _symmetry_equiv_pos_as_xyz
  1  'x, y, z'
loop_
 _atom_site_type_symbol
 _atom_site_label
 _atom_site_symmetry_multiplicity
 _atom_site_fract_x
 _atom_site_fract_y
 _atom_site_fract_z
 _atom_site_occupancy
  Mg  Mg0  1  0.40132300  0.03663900  0.66071400  1
  Mg  Mg1  1  0.90132300  0.03663900  0.66071400  1
  Mg  Mg2  1  0.88790100  0.47567700  0.74852200  1
  Mg  Mg3  1  0.48617500  0.31188600  0.71576400  1
  Mg  Mg4  1  0.82989500  0.32235300  0.51785700  1
  Mg  Mg5  1  0.32989500  0.32235300  0.51785700  1
  Mg  Mg6  1  0.31647200  0.76139100  0.60566500  1
  Mg  Mg7  1  0.91474600  0.59760100  0.57290700  1
  Mg  Mg8  1  0.25846600  0.60806700  0.37500000  1
  Mg  Mg9  1  0.75846600  0.60806700  0.37500000  1
  Mg  Mg10  1  0.74504300  0.04710600  0.46280800  1
  Mg  Mg11  1  0.34331800  0.88331500  0.43004900  1
  Mg  Mg12  1  0.17361500  0.33282000  0.31995100  1
  Mg  Mg13  1  0.77188900  0.16902900  0.28719200  1
  B  B14  1  0.71792700  0.79546500  0.76868000  1
  B  B15  1  0.96573700  0.82565300  0.74965100  1
  B  B16  1  0.45895900  0.82565300  0.74965100  1
  B  B17  1  0.21558600  0.87363400  0.69519500  1
  B  B18  1  0.29242100  0.66276500  0.75239200  1
  B  B19  1  0.13788400  0.69522600  0.71789000  1
  B  B20  1  0.44900100  0.69522600  0.71789000  1
  B  B21  1  0.77872200  0.76840700  0.67414900  1
  B  B22  1  0.27164000  0.79961300  0.65710800  1
  B  B23  1  0.38827000  0.44710500  0.77635500  1
  B  B24  1  0.59106900  0.66865500  0.65598400  1
  B  B25  1  0.08429100  0.66865500  0.65598400  1
  B  B26  1  0.71209800  0.57153600  0.69315200  1
  B  B27  1  0.02321500  0.57153600  0.69315200  1
  B  B28  1  0.35086100  0.21602800  0.77113400  1
  B  B29  1  0.66197700  0.21602800  0.77113400  1
  B  B30  1  0.71835600  0.40462200  0.66544500  1
  B  B31  1  0.21157800  0.40462200  0.66544500  1
  B  B32  1  0.98580500  0.34045800  0.68793100  1
  B  B33  1  0.53100700  0.27366500  0.66432000  1
  B  B34  1  0.59535400  0.01915600  0.79013700  1
  B  B35  1  0.92507500  0.09233800  0.74639600  1
  B  B36  1  0.23619200  0.09233800  0.74639600  1
  B  B37  1  0.08165400  0.12479900  0.71189300  1
  B  B38  1  0.15849000  0.91392900  0.76909100  1
  B  B39  1  0.91511600  0.96191000  0.71463500  1
  B  B40  1  0.40833800  0.96191000  0.71463500  1
  B  B41  1  0.65614800  0.99209800  0.69560500  1
  B  B42  1  0.14649900  0.08118000  0.62582300  1
  B  B43  1  0.39430900  0.11136700  0.60679400  1
  B  B44  1  0.88753000  0.11136700  0.60679400  1
  B  B45  1  0.64415700  0.15934800  0.55233700  1
  B  B46  1  0.72099300  0.94847900  0.60953500  1
  B  B47  1  0.56645500  0.98094000  0.57503300  1
  B  B48  1  0.87757200  0.98094000  0.57503300  1
  B  B49  1  0.20729300  0.05412100  0.53129200  1
  B  B50  1  0.70021100  0.08532700  0.51425100  1
  B  B51  1  0.81684200  0.73281900  0.63349700  1
  B  B52  1  0.01964100  0.95437000  0.51312700  1
  B  B53  1  0.51286300  0.95437000  0.51312700  1
  B  B54  1  0.14066900  0.85725000  0.55029500  1
  B  B55  1  0.45178600  0.85725000  0.55029500  1
  B  B56  1  0.77943200  0.50174200  0.62827700  1
  B  B57  1  0.09054900  0.50174200  0.62827700  1
  B  B58  1  0.14692700  0.69033700  0.52258800  1
  B  B59  1  0.64014900  0.69033700  0.52258800  1
  B  B60  1  0.41437700  0.62617300  0.54507400  1
  B  B61  1  0.95957900  0.55937900  0.52146300  1
  B  B62  1  0.02392500  0.30487000  0.64727900  1
  B  B63  1  0.35364600  0.37805200  0.60353900  1
  B  B64  1  0.66476300  0.37805200  0.60353900  1
  B  B65  1  0.51022500  0.41051300  0.56903600  1
  B  B66  1  0.58706100  0.19964400  0.62623400  1
  B  B67  1  0.34368800  0.24762500  0.57177800  1
  B  B68  1  0.83691000  0.24762500  0.57177800  1
  B  B69  1  0.08472000  0.27781200  0.55274800  1
  B  B70  1  0.57507000  0.36689400  0.48296600  1
  B  B71  1  0.82288000  0.39708200  0.46393700  1
  B  B72  1  0.31610200  0.39708200  0.46393700  1
  B  B73  1  0.07272900  0.44506200  0.40948000  1
  B  B74  1  0.14956400  0.23419300  0.46667800  1
  B  B75  1  0.99502700  0.26665400  0.43217500  1
  B  B76  1  0.30614300  0.26665400  0.43217500  1
  B  B77  1  0.63586500  0.33983600  0.38843500  1
  B  B78  1  0.12878200  0.37104100  0.37139400  1
  B  B79  1  0.24541300  0.01853300  0.49064000  1
  B  B80  1  0.44821200  0.24008400  0.37027000  1
  B  B81  1  0.94143400  0.24008400  0.37027000  1
  B  B82  1  0.56924100  0.14296400  0.40743700  1
  B  B83  1  0.88035800  0.14296400  0.40743700  1
  B  B84  1  0.20800400  0.78745600  0.48542000  1
  B  B85  1  0.51912000  0.78745600  0.48542000  1
  B  B86  1  0.57549800  0.97605100  0.37973000  1
  B  B87  1  0.06872000  0.97605100  0.37973000  1
  B  B88  1  0.84294800  0.91188700  0.40221700  1
  B  B89  1  0.38815000  0.84509400  0.37860600  1
  B  B90  1  0.45249700  0.59058500  0.50442200  1
  B  B91  1  0.78221800  0.66376600  0.46068200  1
  B  B92  1  0.09333400  0.66376600  0.46068200  1
  B  B93  1  0.93879700  0.69622700  0.42617900  1
  B  B94  1  0.01563300  0.48535800  0.48337700  1
  B  B95  1  0.77225900  0.53333900  0.42892100  1
  B  B96  1  0.26548100  0.53333900  0.42892100  1
  B  B97  1  0.51329100  0.56352700  0.40989100  1
  B  B98  1  0.00364200  0.65260800  0.34010900  1
  B  B99  1  0.25145100  0.68279600  0.32107900  1
  B  B100  1  0.74467300  0.68279600  0.32107900  1
  B  B101  1  0.50130000  0.73077700  0.26662300  1
  B  B102  1  0.57813600  0.51990700  0.32382100  1
  B  B103  1  0.42359800  0.55236900  0.28931800  1
  B  B104  1  0.73471500  0.55236900  0.28931800  1
  B  B105  1  0.06443600  0.62555000  0.24557800  1
  B  B106  1  0.67398500  0.30424800  0.34778300  1
  B  B107  1  0.99781200  0.42867800  0.26458000  1
  B  B108  1  0.30892900  0.42867800  0.26458000  1
  B  B109  1  0.63657500  0.07317100  0.34256300  1
  B  B110  1  0.94769200  0.07317100  0.34256300  1
  B  B111  1  0.27152000  0.19760100  0.25936000  1
  B  B112  1  0.88106800  0.87629900  0.36156500  1
  B  B113  1  0.21078900  0.94948000  0.31782500  1
  B  B114  1  0.52190600  0.94948000  0.31782500  1
  B  B115  1  0.36736800  0.98194100  0.28332200  1
  B  B116  1  0.44420400  0.77107200  0.34052000  1
  B  B117  1  0.20083100  0.81905300  0.28606300  1
  B  B118  1  0.69405300  0.81905300  0.28606300  1
  B  B119  1  0.94186300  0.84924100  0.26703400  1
