# generated using pymatgen
data_Sr8Mg63
_symmetry_space_group_name_H-M   'P 1'
_cell_length_a   14.66206661
_cell_length_b   14.66206704
_cell_length_c   46.99963900
_cell_angle_alpha   88.35894800
_cell_angle_beta   91.64105205
_cell_angle_gamma   102.44927812
_symmetry_Int_Tables_number   1
_chemical_formula_structural   Sr8Mg63
_chemical_formula_sum   'Sr24 Mg189'
_cell_volume   9859.57673261
_cell_formula_units_Z   3
loop_
 _symmetry_equiv_pos_site_id
 _symmetry_equiv_pos_as_xyz
  1  'x, y, z'
loop_
 _atom_site_type_symbol
 _atom_site_label
 _atom_site_symmetry_multiplicity
 _atom_site_fract_x
 _atom_site_fract_y
 _atom_site_fract_z
 _atom_site_occupancy
  Sr  Sr0  1  0.91653200  0.41680200  0.25526300  1
  Sr  Sr1  1  0.38319800  0.28346800  0.20526300  1
  Sr  Sr2  1  0.04986500  0.95013500  0.20526300  1
  Sr  Sr3  1  0.24986500  0.75013500  0.25526300  1
  Sr  Sr4  1  0.31653200  0.01680200  0.35526300  1
  Sr  Sr5  1  0.78319800  0.88346800  0.30526300  1
  Sr  Sr6  1  0.44986500  0.55013500  0.30526300  1
  Sr  Sr7  1  0.64986500  0.35013500  0.35526300  1
  Sr  Sr8  1  0.71653200  0.61680200  0.45526300  1
  Sr  Sr9  1  0.18319800  0.48346800  0.40526300  1
  Sr  Sr10  1  0.84986500  0.15013500  0.40526300  1
  Sr  Sr11  1  0.04986500  0.95013500  0.45526300  1
  Sr  Sr12  1  0.11653200  0.21680200  0.55526300  1
  Sr  Sr13  1  0.58319800  0.08346800  0.50526300  1
  Sr  Sr14  1  0.24986500  0.75013500  0.50526300  1
  Sr  Sr15  1  0.44986500  0.55013500  0.55526300  1
  Sr  Sr16  1  0.51653200  0.81680200  0.65526300  1
  Sr  Sr17  1  0.98319800  0.68346800  0.60526300  1
  Sr  Sr18  1  0.64986500  0.35013500  0.60526300  1
  Sr  Sr19  1  0.84986500  0.15013500  0.65526300  1
  Sr  Sr20  1  0.91653200  0.41680200  0.75526300  1
  Sr  Sr21  1  0.38319800  0.28346800  0.70526300  1
  Sr  Sr22  1  0.04986500  0.95013500  0.70526300  1
  Sr  Sr23  1  0.24986500  0.75013500  0.75526300  1
  Mg  Mg24  1  0.82676500  0.00858200  0.23181500  1
  Mg  Mg25  1  0.52314100  0.80616600  0.28241900  1
  Mg  Mg26  1  0.32555700  0.50979000  0.23302300  1
  Mg  Mg27  1  0.19141800  0.97323500  0.28181500  1
  Mg  Mg28  1  0.52243900  0.14422700  0.24007300  1
  Mg  Mg29  1  0.05577300  0.27756100  0.29007300  1
  Mg  Mg30  1  0.77729100  0.55604300  0.22045300  1
  Mg  Mg31  1  0.64395700  0.02270900  0.27045300  1
  Mg  Mg32  1  0.34986500  0.15013500  0.28026300  1
  Mg  Mg33  1  0.64986500  0.85013500  0.23026300  1
  Mg  Mg34  1  0.84986500  0.15013500  0.28026300  1
  Mg  Mg35  1  0.64986500  0.35013500  0.23026300  1
  Mg  Mg36  1  0.84986500  0.65013500  0.28026300  1
  Mg  Mg37  1  0.14986500  0.35013500  0.23026300  1
  Mg  Mg38  1  0.12587100  0.54562600  0.21500600  1
  Mg  Mg39  1  0.83795000  0.79651300  0.23441000  1
  Mg  Mg40  1  0.53778600  0.49924800  0.23585900  1
  Mg  Mg41  1  0.76194400  0.20102100  0.22466700  1
  Mg  Mg42  1  0.46178100  0.90375700  0.22611600  1
  Mg  Mg43  1  0.29624300  0.33821900  0.27611600  1
  Mg  Mg44  1  0.65437400  0.67412900  0.26500600  1
  Mg  Mg45  1  0.17385900  0.15464300  0.24552000  1
  Mg  Mg46  1  0.99897900  0.03805600  0.27466700  1
  Mg  Mg47  1  0.70075200  0.26221400  0.28585900  1
  Mg  Mg48  1  0.40348700  0.96205000  0.28441000  1
  Mg  Mg49  1  0.64535700  0.02614100  0.19552000  1
  Mg  Mg50  1  0.50831200  0.32703500  0.27871200  1
  Mg  Mg51  1  0.17658900  0.49410400  0.27810800  1
  Mg  Mg52  1  0.47296500  0.69168800  0.22871200  1
  Mg  Mg53  1  0.00952000  0.82582700  0.27750400  1
  Mg  Mg54  1  0.30589600  0.02341100  0.22810800  1
  Mg  Mg55  1  0.99383400  0.67685900  0.23241900  1
  Mg  Mg56  1  0.69021000  0.47444300  0.28302300  1
  Mg  Mg57  1  0.97417300  0.19048000  0.22750400  1
  Mg  Mg58  1  0.22676500  0.60858200  0.33181500  1
  Mg  Mg59  1  0.92314100  0.40616600  0.38241900  1
  Mg  Mg60  1  0.72555700  0.10979000  0.33302300  1
  Mg  Mg61  1  0.59141800  0.57323500  0.38181500  1
  Mg  Mg62  1  0.92243900  0.74422700  0.34007300  1
  Mg  Mg63  1  0.45577300  0.87756100  0.39007300  1
  Mg  Mg64  1  0.17729100  0.15604300  0.32045300  1
  Mg  Mg65  1  0.04395700  0.62270900  0.37045300  1
  Mg  Mg66  1  0.74986500  0.75013500  0.38026300  1
  Mg  Mg67  1  0.04986500  0.45013500  0.33026300  1
  Mg  Mg68  1  0.24986500  0.75013500  0.38026300  1
  Mg  Mg69  1  0.04986500  0.95013500  0.33026300  1
  Mg  Mg70  1  0.24986500  0.25013500  0.38026300  1
  Mg  Mg71  1  0.54986500  0.95013500  0.33026300  1
  Mg  Mg72  1  0.52587100  0.14562600  0.31500600  1
  Mg  Mg73  1  0.23795000  0.39651300  0.33441000  1
  Mg  Mg74  1  0.93778600  0.09924800  0.33585900  1
  Mg  Mg75  1  0.16194400  0.80102100  0.32466700  1
  Mg  Mg76  1  0.86178100  0.50375700  0.32611600  1
  Mg  Mg77  1  0.69624300  0.93821900  0.37611600  1
  Mg  Mg78  1  0.05437400  0.27412900  0.36500600  1
  Mg  Mg79  1  0.57385900  0.75464300  0.34552000  1
  Mg  Mg80  1  0.39897900  0.63805600  0.37466700  1
  Mg  Mg81  1  0.10075200  0.86221400  0.38585900  1
  Mg  Mg82  1  0.80348700  0.56205000  0.38441000  1
  Mg  Mg83  1  0.04535700  0.62614100  0.29552000  1
  Mg  Mg84  1  0.90831200  0.92703500  0.37871200  1
  Mg  Mg85  1  0.57658900  0.09410400  0.37810800  1
  Mg  Mg86  1  0.87296500  0.29168800  0.32871200  1
  Mg  Mg87  1  0.40952000  0.42582700  0.37750400  1
  Mg  Mg88  1  0.70589600  0.62341100  0.32810800  1
  Mg  Mg89  1  0.39383400  0.27685900  0.33241900  1
  Mg  Mg90  1  0.09021000  0.07444300  0.38302300  1
  Mg  Mg91  1  0.37417300  0.79048000  0.32750400  1
  Mg  Mg92  1  0.62676500  0.20858200  0.43181500  1
  Mg  Mg93  1  0.32314100  0.00616600  0.48241900  1
  Mg  Mg94  1  0.12555700  0.70979000  0.43302300  1
  Mg  Mg95  1  0.99141800  0.17323500  0.48181500  1
  Mg  Mg96  1  0.32243900  0.34422700  0.44007300  1
  Mg  Mg97  1  0.85577300  0.47756100  0.49007300  1
  Mg  Mg98  1  0.57729100  0.75604300  0.42045300  1
  Mg  Mg99  1  0.44395700  0.22270900  0.47045300  1
  Mg  Mg100  1  0.14986500  0.35013500  0.48026300  1
  Mg  Mg101  1  0.44986500  0.05013500  0.43026300  1
  Mg  Mg102  1  0.64986500  0.35013500  0.48026300  1
  Mg  Mg103  1  0.44986500  0.55013500  0.43026300  1
  Mg  Mg104  1  0.64986500  0.85013500  0.48026300  1
  Mg  Mg105  1  0.94986500  0.55013500  0.43026300  1
  Mg  Mg106  1  0.92587100  0.74562600  0.41500600  1
  Mg  Mg107  1  0.63795000  0.99651300  0.43441000  1
  Mg  Mg108  1  0.33778600  0.69924800  0.43585900  1
  Mg  Mg109  1  0.56194400  0.40102100  0.42466700  1
  Mg  Mg110  1  0.26178100  0.10375700  0.42611600  1
  Mg  Mg111  1  0.09624300  0.53821900  0.47611600  1
  Mg  Mg112  1  0.45437400  0.87412900  0.46500600  1
  Mg  Mg113  1  0.97385900  0.35464300  0.44552000  1
  Mg  Mg114  1  0.79897900  0.23805600  0.47466700  1
  Mg  Mg115  1  0.50075200  0.46221400  0.48585900  1
  Mg  Mg116  1  0.20348700  0.16205000  0.48441000  1
  Mg  Mg117  1  0.44535700  0.22614100  0.39552000  1
  Mg  Mg118  1  0.30831200  0.52703500  0.47871200  1
  Mg  Mg119  1  0.97658900  0.69410400  0.47810800  1
  Mg  Mg120  1  0.27296500  0.89168800  0.42871200  1
  Mg  Mg121  1  0.80952000  0.02582700  0.47750400  1
  Mg  Mg122  1  0.10589600  0.22341100  0.42810800  1
  Mg  Mg123  1  0.79383400  0.87685900  0.43241900  1
  Mg  Mg124  1  0.49021000  0.67444300  0.48302300  1
  Mg  Mg125  1  0.77417300  0.39048000  0.42750400  1
  Mg  Mg126  1  0.02676500  0.80858200  0.53181500  1
  Mg  Mg127  1  0.72314100  0.60616600  0.58241900  1
  Mg  Mg128  1  0.52555700  0.30979000  0.53302300  1
  Mg  Mg129  1  0.39141800  0.77323500  0.58181500  1
  Mg  Mg130  1  0.72243900  0.94422700  0.54007300  1
  Mg  Mg131  1  0.25577300  0.07756100  0.59007300  1
  Mg  Mg132  1  0.97729100  0.35604300  0.52045300  1
  Mg  Mg133  1  0.84395700  0.82270900  0.57045300  1
  Mg  Mg134  1  0.54986500  0.95013500  0.58026300  1
  Mg  Mg135  1  0.84986500  0.65013500  0.53026300  1
  Mg  Mg136  1  0.04986500  0.95013500  0.58026300  1
  Mg  Mg137  1  0.84986500  0.15013500  0.53026300  1
  Mg  Mg138  1  0.04986500  0.45013500  0.58026300  1
  Mg  Mg139  1  0.34986500  0.15013500  0.53026300  1
  Mg  Mg140  1  0.32587100  0.34562600  0.51500600  1
  Mg  Mg141  1  0.03795000  0.59651300  0.53441000  1
  Mg  Mg142  1  0.73778600  0.29924800  0.53585900  1
  Mg  Mg143  1  0.96194400  0.00102100  0.52466700  1
  Mg  Mg144  1  0.66178100  0.70375700  0.52611600  1
  Mg  Mg145  1  0.49624300  0.13821900  0.57611600  1
  Mg  Mg146  1  0.85437400  0.47412900  0.56500600  1
  Mg  Mg147  1  0.37385900  0.95464300  0.54552000  1
  Mg  Mg148  1  0.19897900  0.83805600  0.57466700  1
  Mg  Mg149  1  0.90075200  0.06221400  0.58585900  1
  Mg  Mg150  1  0.60348700  0.76205000  0.58441000  1
  Mg  Mg151  1  0.84535700  0.82614100  0.49552000  1
  Mg  Mg152  1  0.70831200  0.12703500  0.57871200  1
  Mg  Mg153  1  0.37658900  0.29410400  0.57810800  1
  Mg  Mg154  1  0.67296500  0.49168800  0.52871200  1
  Mg  Mg155  1  0.20952000  0.62582700  0.57750400  1
  Mg  Mg156  1  0.50589600  0.82341100  0.52810800  1
  Mg  Mg157  1  0.19383400  0.47685900  0.53241900  1
  Mg  Mg158  1  0.89021000  0.27444300  0.58302300  1
  Mg  Mg159  1  0.17417300  0.99048000  0.52750400  1
  Mg  Mg160  1  0.42676500  0.40858200  0.63181500  1
  Mg  Mg161  1  0.12314100  0.20616600  0.68241900  1
  Mg  Mg162  1  0.92555700  0.90979000  0.63302300  1
  Mg  Mg163  1  0.79141800  0.37323500  0.68181500  1
  Mg  Mg164  1  0.12243900  0.54422700  0.64007300  1
  Mg  Mg165  1  0.65577300  0.67756100  0.69007300  1
  Mg  Mg166  1  0.37729100  0.95604300  0.62045300  1
  Mg  Mg167  1  0.24395700  0.42270900  0.67045300  1
  Mg  Mg168  1  0.94986500  0.55013500  0.68026300  1
  Mg  Mg169  1  0.24986500  0.25013500  0.63026300  1
  Mg  Mg170  1  0.44986500  0.55013500  0.68026300  1
  Mg  Mg171  1  0.24986500  0.75013500  0.63026300  1
  Mg  Mg172  1  0.44986500  0.05013500  0.68026300  1
  Mg  Mg173  1  0.74986500  0.75013500  0.63026300  1
  Mg  Mg174  1  0.72587100  0.94562600  0.61500600  1
  Mg  Mg175  1  0.43795000  0.19651300  0.63441000  1
  Mg  Mg176  1  0.13778600  0.89924800  0.63585900  1
  Mg  Mg177  1  0.36194400  0.60102100  0.62466700  1
  Mg  Mg178  1  0.06178100  0.30375700  0.62611600  1
  Mg  Mg179  1  0.89624300  0.73821900  0.67611600  1
  Mg  Mg180  1  0.25437400  0.07412900  0.66500600  1
  Mg  Mg181  1  0.77385900  0.55464300  0.64552000  1
  Mg  Mg182  1  0.59897900  0.43805600  0.67466700  1
  Mg  Mg183  1  0.30075200  0.66221400  0.68585900  1
  Mg  Mg184  1  0.00348700  0.36205000  0.68441000  1
  Mg  Mg185  1  0.24535700  0.42614100  0.59552000  1
  Mg  Mg186  1  0.10831200  0.72703500  0.67871200  1
  Mg  Mg187  1  0.77658900  0.89410400  0.67810800  1
  Mg  Mg188  1  0.07296500  0.09168800  0.62871200  1
  Mg  Mg189  1  0.60952000  0.22582700  0.67750400  1
  Mg  Mg190  1  0.90589600  0.42341100  0.62810800  1
  Mg  Mg191  1  0.59383400  0.07685900  0.63241900  1
  Mg  Mg192  1  0.29021000  0.87444300  0.68302300  1
  Mg  Mg193  1  0.57417300  0.59048000  0.62750400  1
  Mg  Mg194  1  0.82676500  0.00858200  0.73181500  1
  Mg  Mg195  1  0.32555700  0.50979000  0.73302300  1
  Mg  Mg196  1  0.52243900  0.14422700  0.74007300  1
  Mg  Mg197  1  0.77729100  0.55604300  0.72045300  1
  Mg  Mg198  1  0.64986500  0.85013500  0.73026300  1
  Mg  Mg199  1  0.64986500  0.35013500  0.73026300  1
  Mg  Mg200  1  0.14986500  0.35013500  0.73026300  1
  Mg  Mg201  1  0.12587100  0.54562600  0.71500600  1
  Mg  Mg202  1  0.83795000  0.79651300  0.73441000  1
  Mg  Mg203  1  0.53778600  0.49924800  0.73585900  1
  Mg  Mg204  1  0.76194400  0.20102100  0.72466700  1
  Mg  Mg205  1  0.46178100  0.90375700  0.72611600  1
  Mg  Mg206  1  0.65437400  0.67412900  0.76500600  1
  Mg  Mg207  1  0.17385900  0.15464300  0.74552000  1
  Mg  Mg208  1  0.64535700  0.02614100  0.69552000  1
  Mg  Mg209  1  0.47296500  0.69168800  0.72871200  1
  Mg  Mg210  1  0.30589600  0.02341100  0.72810800  1
  Mg  Mg211  1  0.99383400  0.67685900  0.73241900  1
  Mg  Mg212  1  0.97417300  0.19048000  0.72750400  1
