# generated using pymatgen
data_Ce4Mg35
_symmetry_space_group_name_H-M   'P 1'
_cell_length_a   10.33012900
_cell_length_b   14.43775486
_cell_length_c   46.86335100
_cell_angle_alpha   91.26380978
_cell_angle_beta   90.00000000
_cell_angle_gamma   69.03810193
_symmetry_Int_Tables_number   1
_chemical_formula_structural   Ce4Mg35
_chemical_formula_sum   'Ce12 Mg105'
_cell_volume   6524.99326643
_cell_formula_units_Z   3
loop_
 _symmetry_equiv_pos_site_id
 _symmetry_equiv_pos_as_xyz
  1  'x, y, z'
loop_
 _atom_site_type_symbol
 _atom_site_label
 _atom_site_symmetry_multiplicity
 _atom_site_fract_x
 _atom_site_fract_y
 _atom_site_fract_z
 _atom_site_occupancy
  Ce  Ce0  1  0.51190500  0.97619000  0.45864700  1
  Ce  Ce1  1  0.65476200  0.69047600  0.38721800  1
  Ce  Ce2  1  0.36904800  0.26190500  0.36340900  1
  Ce  Ce3  1  0.79761900  0.40476200  0.48245600  1
  Ce  Ce4  1  0.22619000  0.54761900  0.60150400  1
  Ce  Ce5  1  0.36904800  0.26190500  0.53007500  1
  Ce  Ce6  1  0.08333300  0.83333300  0.50626600  1
  Ce  Ce7  1  0.51190500  0.97619000  0.62531300  1
  Ce  Ce8  1  0.94047600  0.11904800  0.74436100  1
  Ce  Ce9  1  0.08333300  0.83333300  0.67293200  1
  Ce  Ce10  1  0.79761900  0.40476200  0.64912300  1
  Ce  Ce11  1  0.22619000  0.54761900  0.76817000  1
  Mg  Mg12  1  0.22619000  0.54761900  0.35150400  1
  Mg  Mg13  1  0.22619000  0.04761900  0.35150400  1
  Mg  Mg14  1  0.72619000  0.04761900  0.35150400  1
  Mg  Mg15  1  0.94047600  0.11904800  0.49436100  1
  Mg  Mg16  1  0.58333300  0.33333300  0.42293200  1
  Mg  Mg17  1  0.01045000  0.46575900  0.37159400  1
  Mg  Mg18  1  0.36859600  0.77614800  0.44919100  1
  Mg  Mg19  1  0.78954500  0.42091000  0.40093700  1
  Mg  Mg20  1  0.43909400  0.41672900  0.47846700  1
  Mg  Mg21  1  0.18267300  0.63465400  0.45659600  1
  Mg  Mg22  1  0.89695900  0.20608300  0.43278600  1
  Mg  Mg23  1  0.79807000  0.89051900  0.39667400  1
  Mg  Mg24  1  0.52785300  0.54986800  0.43408800  1
  Mg  Mg25  1  0.02249000  0.24993800  0.36739800  1
  Mg  Mg26  1  0.85525600  0.77614800  0.44919100  1
  Mg  Mg27  1  0.84946900  0.99040600  0.45390800  1
  Mg  Mg28  1  0.14417700  0.41672900  0.47846700  1
  Mg  Mg29  1  0.52379100  0.46575900  0.37159400  1
  Mg  Mg30  1  0.37712200  0.24575600  0.44492800  1
  Mg  Mg31  1  0.65902500  0.68195100  0.46619700  1
  Mg  Mg32  1  0.50764200  0.98471600  0.37966800  1
  Mg  Mg33  1  0.26970800  0.46058400  0.41307800  1
  Mg  Mg34  1  0.64287600  0.20090700  0.47427100  1
  Mg  Mg35  1  0.94047600  0.61904800  0.49436100  1
  Mg  Mg36  1  0.16012500  0.99040600  0.45390800  1
  Mg  Mg37  1  0.72757300  0.24993800  0.36739800  1
  Mg  Mg38  1  0.98399400  0.03201300  0.38926900  1
  Mg  Mg39  1  0.15621700  0.20090700  0.47427100  1
  Mg  Mg40  1  0.24438700  0.11679900  0.41177700  1
  Mg  Mg41  1  0.00654100  0.67626100  0.39195700  1
  Mg  Mg42  1  0.31141100  0.89051900  0.39667400  1
  Mg  Mg43  1  0.63881400  0.11679900  0.41177700  1
  Mg  Mg44  1  0.44047600  0.61904800  0.49436100  1
  Mg  Mg45  1  0.92227900  0.54986800  0.43408800  1
  Mg  Mg46  1  0.31719800  0.67626100  0.39195700  1
  Mg  Mg47  1  0.08333300  0.33333300  0.42293200  1
  Mg  Mg48  1  0.08333300  0.83333300  0.42293200  1
  Mg  Mg49  1  0.65476200  0.69047600  0.63721800  1
  Mg  Mg50  1  0.29761900  0.90476200  0.56578900  1
  Mg  Mg51  1  0.72473600  0.03718800  0.51445100  1
  Mg  Mg52  1  0.08288200  0.34757600  0.59204800  1
  Mg  Mg53  1  0.50383000  0.99233900  0.54379400  1
  Mg  Mg54  1  0.15338000  0.98815800  0.62132400  1
  Mg  Mg55  1  0.89695900  0.20608300  0.59945300  1
  Mg  Mg56  1  0.61124400  0.77751100  0.57564300  1
  Mg  Mg57  1  0.51235600  0.46194800  0.53953100  1
  Mg  Mg58  1  0.24213900  0.12129600  0.57694500  1
  Mg  Mg59  1  0.73677500  0.82136600  0.51025500  1
  Mg  Mg60  1  0.56954200  0.34757600  0.59204800  1
  Mg  Mg61  1  0.56375400  0.56183500  0.59676500  1
  Mg  Mg62  1  0.85846300  0.98815800  0.62132400  1
  Mg  Mg63  1  0.23807600  0.03718800  0.51445100  1
  Mg  Mg64  1  0.09140800  0.81718500  0.58778500  1
  Mg  Mg65  1  0.37331000  0.25337900  0.60905400  1
  Mg  Mg66  1  0.22192800  0.55614500  0.52252500  1
  Mg  Mg67  1  0.98399400  0.03201300  0.55593500  1
  Mg  Mg68  1  0.35716200  0.77233600  0.61712800  1
  Mg  Mg69  1  0.65476200  0.19047600  0.63721800  1
  Mg  Mg70  1  0.87441100  0.56183500  0.59676500  1
  Mg  Mg71  1  0.44185800  0.82136600  0.51025500  1
  Mg  Mg72  1  0.69827900  0.60344100  0.53212600  1
  Mg  Mg73  1  0.87050200  0.77233600  0.61712800  1
  Mg  Mg74  1  0.95867300  0.68822800  0.55463400  1
  Mg  Mg75  1  0.72082700  0.24768900  0.53481400  1
  Mg  Mg76  1  0.02569600  0.46194800  0.53953100  1
  Mg  Mg77  1  0.35309900  0.68822800  0.55463400  1
  Mg  Mg78  1  0.15476200  0.19047600  0.63721800  1
  Mg  Mg79  1  0.63656500  0.12129600  0.57694500  1
  Mg  Mg80  1  0.03148400  0.24768900  0.53481400  1
  Mg  Mg81  1  0.79761900  0.90476200  0.56578900  1
  Mg  Mg82  1  0.79761900  0.40476200  0.56578900  1
  Mg  Mg83  1  0.36904800  0.26190500  0.78007500  1
  Mg  Mg84  1  0.01190500  0.47619000  0.70864700  1
  Mg  Mg85  1  0.43902200  0.60861600  0.65730800  1
  Mg  Mg86  1  0.79716800  0.91900500  0.73490500  1
  Mg  Mg87  1  0.21811600  0.56376800  0.68665100  1
  Mg  Mg88  1  0.86766500  0.55958600  0.76418100  1
  Mg  Mg89  1  0.61124400  0.77751100  0.74231000  1
  Mg  Mg90  1  0.32553000  0.34894000  0.71850100  1
  Mg  Mg91  1  0.22664200  0.03337600  0.68238800  1
  Mg  Mg92  1  0.95642400  0.69272500  0.71980200  1
  Mg  Mg93  1  0.45106100  0.39279500  0.65311200  1
  Mg  Mg94  1  0.28382700  0.91900500  0.73490500  1
  Mg  Mg95  1  0.27804000  0.13326300  0.73962200  1
  Mg  Mg96  1  0.57274800  0.55958600  0.76418100  1
  Mg  Mg97  1  0.95236200  0.60861600  0.65730800  1
  Mg  Mg98  1  0.80569300  0.38861300  0.73064200  1
  Mg  Mg99  1  0.08759600  0.82480800  0.75191100  1
  Mg  Mg100  1  0.93621300  0.12757300  0.66538200  1
  Mg  Mg101  1  0.69827900  0.60344100  0.69879300  1
  Mg  Mg102  1  0.07144700  0.34376500  0.75998500  1
  Mg  Mg103  1  0.36904800  0.76190500  0.78007500  1
  Mg  Mg104  1  0.58869700  0.13326300  0.73962200  1
  Mg  Mg105  1  0.15614400  0.39279500  0.65311200  1
  Mg  Mg106  1  0.41256500  0.17487000  0.67498300  1
  Mg  Mg107  1  0.58478800  0.34376500  0.75998500  1
  Mg  Mg108  1  0.67295900  0.25965600  0.69749100  1
  Mg  Mg109  1  0.43511300  0.81911800  0.67767100  1
  Mg  Mg110  1  0.73998200  0.03337600  0.68238800  1
  Mg  Mg111  1  0.06738500  0.25965600  0.69749100  1
  Mg  Mg112  1  0.86904800  0.76190500  0.78007500  1
  Mg  Mg113  1  0.35085100  0.69272500  0.71980200  1
  Mg  Mg114  1  0.74577000  0.81911800  0.67767100  1
  Mg  Mg115  1  0.51190500  0.47619000  0.70864700  1
  Mg  Mg116  1  0.51190500  0.97619000  0.70864700  1
