# generated using pymatgen
data_Mg23Tl10
_symmetry_space_group_name_H-M   'P 1'
_cell_length_a   7.14576700
_cell_length_b   8.77491584
_cell_length_c   46.68731700
_cell_angle_alpha   94.44679253
_cell_angle_beta   90.00000000
_cell_angle_gamma   114.02718588
_symmetry_Int_Tables_number   1
_chemical_formula_structural   Mg23Tl10
_chemical_formula_sum   'Mg46 Tl20'
_cell_volume   2664.14978339
_cell_formula_units_Z   2
loop_
 _symmetry_equiv_pos_site_id
 _symmetry_equiv_pos_as_xyz
  1  'x, y, z'
loop_
 _atom_site_type_symbol
 _atom_site_label
 _atom_site_symmetry_multiplicity
 _atom_site_fract_x
 _atom_site_fract_y
 _atom_site_fract_z
 _atom_site_occupancy
  Mg  Mg0  1  0.20256500  0.07549200  0.69473900  1
  Mg  Mg1  1  0.84926600  0.69853300  0.70352700  1
  Mg  Mg2  1  0.51832600  0.03665300  0.79910700  1
  Mg  Mg3  1  0.28872600  0.24781300  0.77847600  1
  Mg  Mg4  1  0.02158800  0.37281300  0.71597600  1
  Mg  Mg5  1  0.37488600  0.74977300  0.70718700  1
  Mg  Mg6  1  0.31238600  0.62477300  0.76968700  1
  Mg  Mg7  1  0.78676600  0.57353300  0.76602700  1
  Mg  Mg8  1  0.81042700  0.95049200  0.75723900  1
  Mg  Mg9  1  0.58082600  0.16165300  0.73660700  1
  Mg  Mg10  1  0.32756500  0.32549200  0.56973900  1
  Mg  Mg11  1  0.97426600  0.94853300  0.57852700  1
  Mg  Mg12  1  0.64332600  0.28665300  0.67410700  1
  Mg  Mg13  1  0.41372600  0.49781300  0.65347600  1
  Mg  Mg14  1  0.14658800  0.62281300  0.59097600  1
  Mg  Mg15  1  0.49988600  0.99977300  0.58218700  1
  Mg  Mg16  1  0.43738600  0.87477300  0.64468700  1
  Mg  Mg17  1  0.91176600  0.82353300  0.64102700  1
  Mg  Mg18  1  0.93542700  0.20049200  0.63223900  1
  Mg  Mg19  1  0.70582600  0.41165300  0.61160700  1
  Mg  Mg20  1  0.45256500  0.57549200  0.44473900  1
  Mg  Mg21  1  0.09926600  0.19853300  0.45352700  1
  Mg  Mg22  1  0.76832600  0.53665300  0.54910700  1
  Mg  Mg23  1  0.53872600  0.74781300  0.52847600  1
  Mg  Mg24  1  0.27158800  0.87281300  0.46597600  1
  Mg  Mg25  1  0.62488600  0.24977300  0.45718700  1
  Mg  Mg26  1  0.56238600  0.12477300  0.51968700  1
  Mg  Mg27  1  0.03676600  0.07353300  0.51602700  1
  Mg  Mg28  1  0.06042700  0.45049200  0.50723900  1
  Mg  Mg29  1  0.83082600  0.66165300  0.48660700  1
  Mg  Mg30  1  0.57756500  0.82549200  0.31973900  1
  Mg  Mg31  1  0.22426600  0.44853300  0.32852700  1
  Mg  Mg32  1  0.89332600  0.78665300  0.42410700  1
  Mg  Mg33  1  0.66372600  0.99781300  0.40347600  1
  Mg  Mg34  1  0.39658800  0.12281300  0.34097600  1
  Mg  Mg35  1  0.74988600  0.49977300  0.33218700  1
  Mg  Mg36  1  0.68738600  0.37477300  0.39468700  1
  Mg  Mg37  1  0.16176600  0.32353300  0.39102700  1
  Mg  Mg38  1  0.18542700  0.70049200  0.38223900  1
  Mg  Mg39  1  0.95582600  0.91165300  0.36160700  1
  Mg  Mg40  1  0.01832600  0.03665300  0.29910700  1
  Mg  Mg41  1  0.78872600  0.24781300  0.27847600  1
  Mg  Mg42  1  0.81238600  0.62477300  0.26968700  1
  Mg  Mg43  1  0.28676600  0.57353300  0.26602700  1
  Mg  Mg44  1  0.31042700  0.95049200  0.25723900  1
  Mg  Mg45  1  0.08082600  0.16165300  0.23660700  1
  Tl  Tl46  1  0.45534000  0.43735600  0.72058600  1
  Tl  Tl47  1  0.17963700  0.88595000  0.75262800  1
  Tl  Tl48  1  0.91951500  0.31235600  0.78308600  1
  Tl  Tl49  1  0.64381200  0.76095000  0.81512800  1
  Tl  Tl50  1  0.58034000  0.68735600  0.59558600  1
  Tl  Tl51  1  0.30463700  0.13595000  0.62762800  1
  Tl  Tl52  1  0.04451500  0.56235600  0.65808600  1
  Tl  Tl53  1  0.76881200  0.01095000  0.69012800  1
  Tl  Tl54  1  0.70534000  0.93735600  0.47058600  1
  Tl  Tl55  1  0.42963700  0.38595000  0.50262800  1
  Tl  Tl56  1  0.16951500  0.81235600  0.53308600  1
  Tl  Tl57  1  0.89381200  0.26095000  0.56512800  1
  Tl  Tl58  1  0.83034000  0.18735600  0.34558600  1
  Tl  Tl59  1  0.55463700  0.63595000  0.37762800  1
  Tl  Tl60  1  0.29451500  0.06235600  0.40808600  1
  Tl  Tl61  1  0.01881200  0.51095000  0.44012800  1
  Tl  Tl62  1  0.95534000  0.43735600  0.22058600  1
  Tl  Tl63  1  0.67963700  0.88595000  0.25262800  1
  Tl  Tl64  1  0.41951500  0.31235600  0.28308600  1
  Tl  Tl65  1  0.14381200  0.76095000  0.31512800  1
