# generated using pymatgen
data_Mg42Ir67
_symmetry_space_group_name_H-M   'P 1'
_cell_length_a   8.54477469
_cell_length_b   9.72091536
_cell_length_c   40.45091800
_cell_angle_alpha   92.27818184
_cell_angle_beta   91.63073542
_cell_angle_gamma   96.80090534
_symmetry_Int_Tables_number   1
_chemical_formula_structural   Mg42Ir67
_chemical_formula_sum   'Mg42 Ir67'
_cell_volume   3331.83388964
_cell_formula_units_Z   1
loop_
 _symmetry_equiv_pos_site_id
 _symmetry_equiv_pos_as_xyz
  1  'x, y, z'
loop_
 _atom_site_type_symbol
 _atom_site_label
 _atom_site_symmetry_multiplicity
 _atom_site_fract_x
 _atom_site_fract_y
 _atom_site_fract_z
 _atom_site_occupancy
  Mg  Mg0  1  0.81855800  0.88167500  0.70737100  1
  Mg  Mg1  1  0.18144200  0.96054400  0.71262900  1
  Mg  Mg2  1  0.91533800  0.39585600  0.67498300  1
  Mg  Mg3  1  0.08466200  0.57136400  0.62001700  1
  Mg  Mg4  1  0.61669600  0.88129600  0.64067900  1
  Mg  Mg5  1  0.38330400  0.08592300  0.65432100  1
  Mg  Mg6  1  0.55549200  0.37593500  0.67365500  1
  Mg  Mg7  1  0.44450800  0.59128500  0.62134500  1
  Mg  Mg8  1  0.99788700  0.12929800  0.65721300  1
  Mg  Mg9  1  0.00211300  0.83792200  0.63778700  1
  Mg  Mg10  1  0.81855800  0.00667500  0.58237100  1
  Mg  Mg11  1  0.18144200  0.08554400  0.58762900  1
  Mg  Mg12  1  0.91533800  0.52085600  0.54998300  1
  Mg  Mg13  1  0.08466200  0.69636400  0.49501700  1
  Mg  Mg14  1  0.61669600  0.00629600  0.51567900  1
  Mg  Mg15  1  0.38330400  0.21092300  0.52932100  1
  Mg  Mg16  1  0.55549200  0.50093500  0.54865500  1
  Mg  Mg17  1  0.44450800  0.71628500  0.49634500  1
  Mg  Mg18  1  0.99788700  0.25429800  0.53221300  1
  Mg  Mg19  1  0.00211300  0.96292200  0.51278700  1
  Mg  Mg20  1  0.81855800  0.13167500  0.45737100  1
  Mg  Mg21  1  0.18144200  0.21054400  0.46262900  1
  Mg  Mg22  1  0.91533800  0.64585600  0.42498300  1
  Mg  Mg23  1  0.08466200  0.82136400  0.37001700  1
  Mg  Mg24  1  0.61669600  0.13129600  0.39067900  1
  Mg  Mg25  1  0.38330400  0.33592300  0.40432100  1
  Mg  Mg26  1  0.55549200  0.62593500  0.42365500  1
  Mg  Mg27  1  0.44450800  0.84128500  0.37134500  1
  Mg  Mg28  1  0.99788700  0.37929800  0.40721300  1
  Mg  Mg29  1  0.00211300  0.08792200  0.38778700  1
  Mg  Mg30  1  0.81855800  0.25667500  0.33237100  1
  Mg  Mg31  1  0.18144200  0.33554400  0.33762900  1
  Mg  Mg32  1  0.91533800  0.77085600  0.29998300  1
  Mg  Mg33  1  0.08466200  0.94636400  0.24501700  1
  Mg  Mg34  1  0.61669600  0.25629600  0.26567900  1
  Mg  Mg35  1  0.38330400  0.46092300  0.27932100  1
  Mg  Mg36  1  0.55549200  0.75093500  0.29865500  1
  Mg  Mg37  1  0.44450800  0.96628500  0.24634500  1
  Mg  Mg38  1  0.99788700  0.50429800  0.28221300  1
  Mg  Mg39  1  0.00211300  0.21292200  0.26278700  1
  Mg  Mg40  1  0.81855800  0.38167500  0.20737100  1
  Mg  Mg41  1  0.18144200  0.46054400  0.21262900  1
  Ir  Ir42  1  0.97167900  0.16696300  0.72639000  1
  Ir  Ir43  1  0.02832100  0.67525700  0.69361000  1
  Ir  Ir44  1  0.22952800  0.26731500  0.69968200  1
  Ir  Ir45  1  0.77047200  0.57490400  0.72031800  1
  Ir  Ir46  1  0.50000000  0.92111000  0.71000000  1
  Ir  Ir47  1  0.53311500  0.66643200  0.69302100  1
  Ir  Ir48  1  0.46688500  0.17578800  0.72697900  1
  Ir  Ir49  1  0.97167900  0.29196300  0.60139000  1
  Ir  Ir50  1  0.02832100  0.80025700  0.56861000  1
  Ir  Ir51  1  0.77047200  0.63752600  0.65769600  1
  Ir  Ir52  1  0.22952800  0.32969300  0.63730400  1
  Ir  Ir53  1  0.22952800  0.39231500  0.57468200  1
  Ir  Ir54  1  0.77047200  0.69990400  0.59531800  1
  Ir  Ir55  1  0.50000000  0.04611000  0.58500000  1
  Ir  Ir56  1  0.25697700  0.51617800  0.68300500  1
  Ir  Ir57  1  0.74302300  0.45104200  0.61199500  1
  Ir  Ir58  1  0.53311500  0.79143200  0.56802100  1
  Ir  Ir59  1  0.46688500  0.30078800  0.60197900  1
  Ir  Ir60  1  0.70409300  0.18304100  0.62960400  1
  Ir  Ir61  1  0.29590700  0.78417800  0.66539600  1
  Ir  Ir62  1  0.29590700  0.84266300  0.60691200  1
  Ir  Ir63  1  0.70409300  0.12455700  0.68808800  1
  Ir  Ir64  1  0.97167900  0.41696300  0.47639000  1
  Ir  Ir65  1  0.02832100  0.92525700  0.44361000  1
  Ir  Ir66  1  0.77047200  0.76252600  0.53269600  1
  Ir  Ir67  1  0.22952800  0.45469300  0.51230400  1
  Ir  Ir68  1  0.22952800  0.51731500  0.44968200  1
  Ir  Ir69  1  0.77047200  0.82490400  0.47031800  1
  Ir  Ir70  1  0.50000000  0.17111000  0.46000000  1
  Ir  Ir71  1  0.25697700  0.64117800  0.55800500  1
  Ir  Ir72  1  0.74302300  0.57604200  0.48699500  1
  Ir  Ir73  1  0.53311500  0.91643200  0.44302100  1
  Ir  Ir74  1  0.46688500  0.42578800  0.47697900  1
  Ir  Ir75  1  0.70409300  0.30804100  0.50460400  1
  Ir  Ir76  1  0.29590700  0.90917800  0.54039600  1
  Ir  Ir77  1  0.29590700  0.96766300  0.48191200  1
  Ir  Ir78  1  0.70409300  0.24955700  0.56308800  1
  Ir  Ir79  1  0.97167900  0.54196300  0.35139000  1
  Ir  Ir80  1  0.02832100  0.05025700  0.31861000  1
  Ir  Ir81  1  0.77047200  0.88752600  0.40769600  1
  Ir  Ir82  1  0.22952800  0.57969300  0.38730400  1
  Ir  Ir83  1  0.22952800  0.64231500  0.32468200  1
  Ir  Ir84  1  0.77047200  0.94990400  0.34531800  1
  Ir  Ir85  1  0.50000000  0.29611000  0.33500000  1
  Ir  Ir86  1  0.25697700  0.76617800  0.43300500  1
  Ir  Ir87  1  0.74302300  0.70104200  0.36199500  1
  Ir  Ir88  1  0.53311500  0.04143200  0.31802100  1
  Ir  Ir89  1  0.46688500  0.55078800  0.35197900  1
  Ir  Ir90  1  0.70409300  0.43304100  0.37960400  1
  Ir  Ir91  1  0.29590700  0.03417800  0.41539600  1
  Ir  Ir92  1  0.29590700  0.09266300  0.35691200  1
  Ir  Ir93  1  0.70409300  0.37455700  0.43808800  1
  Ir  Ir94  1  0.97167900  0.66696300  0.22639000  1
  Ir  Ir95  1  0.02832100  0.17525700  0.19361000  1
  Ir  Ir96  1  0.77047200  0.01252600  0.28269600  1
  Ir  Ir97  1  0.22952800  0.70469300  0.26230400  1
  Ir  Ir98  1  0.22952800  0.76731500  0.19968200  1
  Ir  Ir99  1  0.77047200  0.07490400  0.22031800  1
  Ir  Ir100  1  0.50000000  0.42111000  0.21000000  1
  Ir  Ir101  1  0.25697700  0.89117800  0.30800500  1
  Ir  Ir102  1  0.74302300  0.82604200  0.23699500  1
  Ir  Ir103  1  0.53311500  0.16643200  0.19302100  1
  Ir  Ir104  1  0.46688500  0.67578800  0.22697900  1
  Ir  Ir105  1  0.70409300  0.55804100  0.25460400  1
  Ir  Ir106  1  0.29590700  0.15917800  0.29039600  1
  Ir  Ir107  1  0.29590700  0.21766300  0.23191200  1
  Ir  Ir108  1  0.70409300  0.49955700  0.31308800  1
