# generated using pymatgen
data_Y2Mg
_symmetry_space_group_name_H-M   'P 1'
_cell_length_a   6.64056890
_cell_length_b   17.17186500
_cell_length_c   43.26763900
_cell_angle_alpha   90.00000000
_cell_angle_beta   93.59852365
_cell_angle_gamma   90.00000000
_symmetry_Int_Tables_number   1
_chemical_formula_structural   Y2Mg
_chemical_formula_sum   'Y72 Mg36'
_cell_volume   4924.12225299
_cell_formula_units_Z   36
loop_
 _symmetry_equiv_pos_site_id
 _symmetry_equiv_pos_as_xyz
  1  'x, y, z'
loop_
 _atom_site_type_symbol
 _atom_site_label
 _atom_site_symmetry_multiplicity
 _atom_site_fract_x
 _atom_site_fract_y
 _atom_site_fract_z
 _atom_site_occupancy
  Y  Y0  1  0.67857100  0.90944400  0.19642900  1
  Y  Y1  1  0.53571400  0.72719800  0.23214300  1
  Y  Y2  1  0.17857100  0.59055600  0.19642900  1
  Y  Y3  1  0.03571400  0.77280200  0.23214300  1
  Y  Y4  1  0.53571400  0.40944400  0.23214300  1
  Y  Y5  1  0.67857100  0.22719800  0.19642900  1
  Y  Y6  1  0.03571400  0.09055600  0.23214300  1
  Y  Y7  1  0.17857100  0.27280200  0.19642900  1
  Y  Y8  1  0.39285700  0.90944400  0.26785700  1
  Y  Y9  1  0.25000000  0.72719800  0.30357100  1
  Y  Y10  1  0.89285700  0.59055600  0.26785700  1
  Y  Y11  1  0.75000000  0.77280200  0.30357100  1
  Y  Y12  1  0.25000000  0.40944400  0.30357100  1
  Y  Y13  1  0.39285700  0.22719800  0.26785700  1
  Y  Y14  1  0.75000000  0.09055600  0.30357100  1
  Y  Y15  1  0.89285700  0.27280200  0.26785700  1
  Y  Y16  1  0.10714300  0.90944400  0.33928600  1
  Y  Y17  1  0.96428600  0.72719800  0.37500000  1
  Y  Y18  1  0.60714300  0.59055600  0.33928600  1
  Y  Y19  1  0.46428600  0.77280200  0.37500000  1
  Y  Y20  1  0.96428600  0.40944400  0.37500000  1
  Y  Y21  1  0.10714300  0.22719800  0.33928600  1
  Y  Y22  1  0.46428600  0.09055600  0.37500000  1
  Y  Y23  1  0.60714300  0.27280200  0.33928600  1
  Y  Y24  1  0.82142900  0.90944400  0.41071400  1
  Y  Y25  1  0.67857100  0.72719800  0.44642900  1
  Y  Y26  1  0.32142900  0.59055600  0.41071400  1
  Y  Y27  1  0.17857100  0.77280200  0.44642900  1
  Y  Y28  1  0.67857100  0.40944400  0.44642900  1
  Y  Y29  1  0.82142900  0.22719800  0.41071400  1
  Y  Y30  1  0.17857100  0.09055600  0.44642900  1
  Y  Y31  1  0.32142900  0.27280200  0.41071400  1
  Y  Y32  1  0.53571400  0.90944400  0.48214300  1
  Y  Y33  1  0.39285700  0.72719800  0.51785700  1
  Y  Y34  1  0.03571400  0.59055600  0.48214300  1
  Y  Y35  1  0.89285700  0.77280200  0.51785700  1
  Y  Y36  1  0.39285700  0.40944400  0.51785700  1
  Y  Y37  1  0.53571400  0.22719800  0.48214300  1
  Y  Y38  1  0.89285700  0.09055600  0.51785700  1
  Y  Y39  1  0.03571400  0.27280200  0.48214300  1
  Y  Y40  1  0.25000000  0.90944400  0.55357100  1
  Y  Y41  1  0.10714300  0.72719800  0.58928600  1
  Y  Y42  1  0.75000000  0.59055600  0.55357100  1
  Y  Y43  1  0.60714300  0.77280200  0.58928600  1
  Y  Y44  1  0.10714300  0.40944400  0.58928600  1
  Y  Y45  1  0.25000000  0.22719800  0.55357100  1
  Y  Y46  1  0.60714300  0.09055600  0.58928600  1
  Y  Y47  1  0.75000000  0.27280200  0.55357100  1
  Y  Y48  1  0.96428600  0.90944400  0.62500000  1
  Y  Y49  1  0.82142900  0.72719800  0.66071400  1
  Y  Y50  1  0.46428600  0.59055600  0.62500000  1
  Y  Y51  1  0.32142900  0.77280200  0.66071400  1
  Y  Y52  1  0.82142900  0.40944400  0.66071400  1
  Y  Y53  1  0.96428600  0.22719800  0.62500000  1
  Y  Y54  1  0.32142900  0.09055600  0.66071400  1
  Y  Y55  1  0.46428600  0.27280200  0.62500000  1
  Y  Y56  1  0.67857100  0.90944400  0.69642900  1
  Y  Y57  1  0.53571400  0.72719800  0.73214300  1
  Y  Y58  1  0.17857100  0.59055600  0.69642900  1
  Y  Y59  1  0.03571400  0.77280200  0.73214300  1
  Y  Y60  1  0.53571400  0.40944400  0.73214300  1
  Y  Y61  1  0.67857100  0.22719800  0.69642900  1
  Y  Y62  1  0.03571400  0.09055600  0.73214300  1
  Y  Y63  1  0.17857100  0.27280200  0.69642900  1
  Y  Y64  1  0.39285700  0.90944400  0.76785700  1
  Y  Y65  1  0.25000000  0.72719800  0.80357100  1
  Y  Y66  1  0.89285700  0.59055600  0.76785700  1
  Y  Y67  1  0.75000000  0.77280200  0.80357100  1
  Y  Y68  1  0.25000000  0.40944400  0.80357100  1
  Y  Y69  1  0.39285700  0.22719800  0.76785700  1
  Y  Y70  1  0.75000000  0.09055600  0.80357100  1
  Y  Y71  1  0.89285700  0.27280200  0.76785700  1
  Mg  Mg72  1  0.67857100  0.56753000  0.19642900  1
  Mg  Mg73  1  0.17857100  0.93247000  0.19642900  1
  Mg  Mg74  1  0.53571400  0.06753000  0.23214300  1
  Mg  Mg75  1  0.03571400  0.43247000  0.23214300  1
  Mg  Mg76  1  0.39285700  0.56753000  0.26785700  1
  Mg  Mg77  1  0.89285700  0.93247000  0.26785700  1
  Mg  Mg78  1  0.25000000  0.06753000  0.30357100  1
  Mg  Mg79  1  0.75000000  0.43247000  0.30357100  1
  Mg  Mg80  1  0.10714300  0.56753000  0.33928600  1
  Mg  Mg81  1  0.60714300  0.93247000  0.33928600  1
  Mg  Mg82  1  0.96428600  0.06753000  0.37500000  1
  Mg  Mg83  1  0.46428600  0.43247000  0.37500000  1
  Mg  Mg84  1  0.82142900  0.56753000  0.41071400  1
  Mg  Mg85  1  0.32142900  0.93247000  0.41071400  1
  Mg  Mg86  1  0.67857100  0.06753000  0.44642900  1
  Mg  Mg87  1  0.17857100  0.43247000  0.44642900  1
  Mg  Mg88  1  0.53571400  0.56753000  0.48214300  1
  Mg  Mg89  1  0.03571400  0.93247000  0.48214300  1
  Mg  Mg90  1  0.39285700  0.06753000  0.51785700  1
  Mg  Mg91  1  0.89285700  0.43247000  0.51785700  1
  Mg  Mg92  1  0.25000000  0.56753000  0.55357100  1
  Mg  Mg93  1  0.75000000  0.93247000  0.55357100  1
  Mg  Mg94  1  0.10714300  0.06753000  0.58928600  1
  Mg  Mg95  1  0.60714300  0.43247000  0.58928600  1
  Mg  Mg96  1  0.96428600  0.56753000  0.62500000  1
  Mg  Mg97  1  0.46428600  0.93247000  0.62500000  1
  Mg  Mg98  1  0.82142900  0.06753000  0.66071400  1
  Mg  Mg99  1  0.32142900  0.43247000  0.66071400  1
  Mg  Mg100  1  0.67857100  0.56753000  0.69642900  1
  Mg  Mg101  1  0.17857100  0.93247000  0.69642900  1
  Mg  Mg102  1  0.53571400  0.06753000  0.73214300  1
  Mg  Mg103  1  0.03571400  0.43247000  0.73214300  1
  Mg  Mg104  1  0.39285700  0.56753000  0.76785700  1
  Mg  Mg105  1  0.89285700  0.93247000  0.76785700  1
  Mg  Mg106  1  0.25000000  0.06753000  0.80357100  1
  Mg  Mg107  1  0.75000000  0.43247000  0.80357100  1
