# generated using pymatgen
data_Mg116Zn195
_symmetry_space_group_name_H-M   'P 1'
_cell_length_a   15.05205970
_cell_length_b   15.53344962
_cell_length_c   44.08704400
_cell_angle_alpha   96.16286714
_cell_angle_beta   84.01794547
_cell_angle_gamma   68.44884142
_symmetry_Int_Tables_number   1
_chemical_formula_structural   Mg116Zn195
_chemical_formula_sum   'Mg116 Zn195'
_cell_volume   9416.24976546
_cell_formula_units_Z   1
loop_
 _symmetry_equiv_pos_site_id
 _symmetry_equiv_pos_as_xyz
  1  'x, y, z'
loop_
 _atom_site_type_symbol
 _atom_site_label
 _atom_site_symmetry_multiplicity
 _atom_site_fract_x
 _atom_site_fract_y
 _atom_site_fract_z
 _atom_site_occupancy
  Mg  Mg0  1  0.75779900  0.10897300  0.21022900  1
  Mg  Mg1  1  0.11107500  0.32841600  0.24327600  1
  Mg  Mg2  1  0.63529000  0.67319300  0.22694600  1
  Mg  Mg3  1  0.92843500  0.08814400  0.24599700  1
  Mg  Mg4  1  0.06550300  0.49402900  0.29761900  1
  Mg  Mg5  1  0.62034600  0.02054200  0.25003000  1
  Mg  Mg6  1  0.74953800  0.45445800  0.23243800  1
  Mg  Mg7  1  0.13414900  0.97444000  0.21945700  1
  Mg  Mg8  1  0.64568700  0.32613900  0.20375900  1
  Mg  Mg9  1  0.09708100  0.66855500  0.26783500  1
  Mg  Mg10  1  0.42729400  0.38939000  0.23850800  1
  Mg  Mg11  1  0.41689600  0.73644400  0.26169500  1
  Mg  Mg12  1  0.08321100  0.16469000  0.27103700  1
  Mg  Mg13  1  0.73573600  0.80296800  0.25557500  1
  Mg  Mg14  1  0.32684800  0.25961500  0.20988000  1
  Mg  Mg15  1  0.31304600  0.60812600  0.23301700  1
  Mg  Mg16  1  0.30478500  0.95361100  0.25522600  1
  Mg  Mg17  1  0.44223700  0.04204200  0.21542400  1
  Mg  Mg18  1  0.95150900  0.73416800  0.22217800  1
  Mg  Mg19  1  0.07937300  0.99789400  0.29441800  1
  Mg  Mg20  1  0.85779900  0.20897300  0.31022900  1
  Mg  Mg21  1  0.21107500  0.42841600  0.34327600  1
  Mg  Mg22  1  0.73529000  0.77319300  0.32694600  1
  Mg  Mg23  1  0.02843500  0.18814400  0.34599700  1
  Mg  Mg24  1  0.16550300  0.59402900  0.39761900  1
  Mg  Mg25  1  0.72034600  0.12054200  0.35003000  1
  Mg  Mg26  1  0.84953800  0.55445800  0.33243800  1
  Mg  Mg27  1  0.23414900  0.07444000  0.31945700  1
  Mg  Mg28  1  0.74568700  0.42613900  0.30375900  1
  Mg  Mg29  1  0.19708100  0.76855500  0.36783500  1
  Mg  Mg30  1  0.52729400  0.48939000  0.33850800  1
  Mg  Mg31  1  0.51689600  0.83644400  0.36169500  1
  Mg  Mg32  1  0.18321100  0.26469000  0.37103700  1
  Mg  Mg33  1  0.83573600  0.90296800  0.35557500  1
  Mg  Mg34  1  0.42684800  0.35961500  0.30988000  1
  Mg  Mg35  1  0.41304600  0.70812600  0.33301700  1
  Mg  Mg36  1  0.40478500  0.05361100  0.35522600  1
  Mg  Mg37  1  0.54223700  0.14204200  0.31542400  1
  Mg  Mg38  1  0.05150900  0.83416800  0.32217800  1
  Mg  Mg39  1  0.17937300  0.09789400  0.39441800  1
  Mg  Mg40  1  0.95779900  0.30897300  0.41022900  1
  Mg  Mg41  1  0.31107500  0.52841600  0.44327600  1
  Mg  Mg42  1  0.83529000  0.87319300  0.42694600  1
  Mg  Mg43  1  0.12843500  0.28814400  0.44599700  1
  Mg  Mg44  1  0.26550300  0.69402900  0.49761900  1
  Mg  Mg45  1  0.82034600  0.22054200  0.45003000  1
  Mg  Mg46  1  0.94953800  0.65445800  0.43243800  1
  Mg  Mg47  1  0.33414900  0.17444000  0.41945700  1
  Mg  Mg48  1  0.84568700  0.52613900  0.40375900  1
  Mg  Mg49  1  0.29708100  0.86855500  0.46783500  1
  Mg  Mg50  1  0.62729400  0.58939000  0.43850800  1
  Mg  Mg51  1  0.61689600  0.93644400  0.46169500  1
  Mg  Mg52  1  0.28321100  0.36469000  0.47103700  1
  Mg  Mg53  1  0.93573600  0.00296800  0.45557500  1
  Mg  Mg54  1  0.52684800  0.45961500  0.40988000  1
  Mg  Mg55  1  0.51304600  0.80812600  0.43301700  1
  Mg  Mg56  1  0.50478500  0.15361100  0.45522600  1
  Mg  Mg57  1  0.64223700  0.24204200  0.41542400  1
  Mg  Mg58  1  0.15150900  0.93416800  0.42217800  1
  Mg  Mg59  1  0.27937300  0.19789400  0.49441800  1
  Mg  Mg60  1  0.05779900  0.40897300  0.51022900  1
  Mg  Mg61  1  0.41107500  0.62841600  0.54327600  1
  Mg  Mg62  1  0.93529000  0.97319300  0.52694600  1
  Mg  Mg63  1  0.22843500  0.38814400  0.54599700  1
  Mg  Mg64  1  0.36550300  0.79402900  0.59761900  1
  Mg  Mg65  1  0.92034600  0.32054200  0.55003000  1
  Mg  Mg66  1  0.04953800  0.75445800  0.53243800  1
  Mg  Mg67  1  0.43414900  0.27444000  0.51945700  1
  Mg  Mg68  1  0.94568700  0.62613900  0.50375900  1
  Mg  Mg69  1  0.39708100  0.96855500  0.56783500  1
  Mg  Mg70  1  0.72729400  0.68939000  0.53850800  1
  Mg  Mg71  1  0.71689600  0.03644400  0.56169500  1
  Mg  Mg72  1  0.38321100  0.46469000  0.57103700  1
  Mg  Mg73  1  0.03573600  0.10296800  0.55557500  1
  Mg  Mg74  1  0.62684800  0.55961500  0.50988000  1
  Mg  Mg75  1  0.61304600  0.90812600  0.53301700  1
  Mg  Mg76  1  0.60478500  0.25361100  0.55522600  1
  Mg  Mg77  1  0.74223700  0.34204200  0.51542400  1
  Mg  Mg78  1  0.25150900  0.03416800  0.52217800  1
  Mg  Mg79  1  0.37937300  0.29789400  0.59441800  1
  Mg  Mg80  1  0.15779900  0.50897300  0.61022900  1
  Mg  Mg81  1  0.51107500  0.72841600  0.64327600  1
  Mg  Mg82  1  0.03529000  0.07319300  0.62694600  1
  Mg  Mg83  1  0.32843500  0.48814400  0.64599700  1
  Mg  Mg84  1  0.46550300  0.89402900  0.69761900  1
  Mg  Mg85  1  0.02034600  0.42054200  0.65003000  1
  Mg  Mg86  1  0.14953800  0.85445800  0.63243800  1
  Mg  Mg87  1  0.53414900  0.37444000  0.61945700  1
  Mg  Mg88  1  0.04568700  0.72613900  0.60375900  1
  Mg  Mg89  1  0.49708100  0.06855500  0.66783500  1
  Mg  Mg90  1  0.82729400  0.78939000  0.63850800  1
  Mg  Mg91  1  0.81689600  0.13644400  0.66169500  1
  Mg  Mg92  1  0.48321100  0.56469000  0.67103700  1
  Mg  Mg93  1  0.13573600  0.20296800  0.65557500  1
  Mg  Mg94  1  0.72684800  0.65961500  0.60988000  1
  Mg  Mg95  1  0.71304600  0.00812600  0.63301700  1
  Mg  Mg96  1  0.70478500  0.35361100  0.65522600  1
  Mg  Mg97  1  0.84223700  0.44204200  0.61542400  1
  Mg  Mg98  1  0.35150900  0.13416800  0.62217800  1
  Mg  Mg99  1  0.47937300  0.39789400  0.69441800  1
  Mg  Mg100  1  0.25779900  0.60897300  0.71022900  1
  Mg  Mg101  1  0.61107500  0.82841600  0.74327600  1
  Mg  Mg102  1  0.13529000  0.17319300  0.72694600  1
  Mg  Mg103  1  0.42843500  0.58814400  0.74599700  1
  Mg  Mg104  1  0.12034600  0.52054200  0.75003000  1
  Mg  Mg105  1  0.24953800  0.95445800  0.73243800  1
  Mg  Mg106  1  0.63414900  0.47444000  0.71945700  1
  Mg  Mg107  1  0.14568700  0.82613900  0.70375900  1
  Mg  Mg108  1  0.92729400  0.88939000  0.73850800  1
  Mg  Mg109  1  0.91689600  0.23644400  0.76169500  1
  Mg  Mg110  1  0.23573600  0.30296800  0.75557500  1
  Mg  Mg111  1  0.82684800  0.75961500  0.70988000  1
  Mg  Mg112  1  0.81304600  0.10812600  0.73301700  1
  Mg  Mg113  1  0.80478500  0.45361100  0.75522600  1
  Mg  Mg114  1  0.94223700  0.54204200  0.71542400  1
  Mg  Mg115  1  0.45150900  0.23416800  0.72217800  1
  Zn  Zn116  1  0.91193500  0.47044000  0.26416500  1
  Zn  Zn117  1  0.04335200  0.19020700  0.20902900  1
  Zn  Zn118  1  0.58447900  0.40803800  0.27232500  1
  Zn  Zn119  1  0.15408400  0.76104200  0.21078800  1
  Zn  Zn120  1  0.26526400  0.50993500  0.28813500  1
  Zn  Zn121  1  0.86150000  0.25167100  0.20357500  1
  Zn  Zn122  1  0.53129200  0.53129200  0.23272700  1
  Zn  Zn123  1  0.25064900  0.69214400  0.30128900  1
  Zn  Zn124  1  0.43638500  0.19851200  0.26285300  1
  Zn  Zn125  1  0.84634700  0.60216600  0.22672400  1
  Zn  Zn126  1  0.58964100  0.23429100  0.26020300  1
  Zn  Zn127  1  0.73751500  0.11550600  0.28013800  1
  Zn  Zn128  1  0.74147400  0.61213300  0.27996800  1
  Zn  Zn129  1  0.89610100  0.81965900  0.28871800  1
  Zn  Zn130  1  0.01923200  0.87237700  0.25642500  1
  Zn  Zn131  1  0.62619800  0.86407200  0.20260100  1
  Zn  Zn132  1  0.88722500  0.99927100  0.30036400  1
  Zn  Zn133  1  0.21623700  0.46041800  0.23873000  1
  Zn  Zn134  1  0.20108400  0.81091300  0.26188000  1
  Zn  Zn135  1  0.42111000  0.55045000  0.28548700  1
  Zn  Zn136  1  0.27535900  0.16331200  0.26509100  1
  Zn  Zn137  1  0.89731900  0.65264900  0.27732000  1
  Zn  Zn138  1  0.58129200  0.58129200  0.28272700  1
  Zn  Zn139  1  0.75174700  0.27008400  0.25605700  1
  Zn  Zn140  1  0.53882100  0.18445000  0.21088800  1
  Zn  Zn141  1  0.83794800  0.94917200  0.24844600  1
  Zn  Zn142  1  0.31083700  0.79250000  0.20939700  1
  Zn  Zn143  1  0.22463600  0.11341200  0.21700900  1
  Zn  Zn144  1  0.26648300  0.34292400  0.27673700  1
  Zn  Zn145  1  0.52376300  0.87813400  0.25456700  1
  Zn  Zn146  1  0.90850000  0.30154200  0.25466700  1
  Zn  Zn147  1  0.03129200  0.53129200  0.23272700  1
  Zn  Zn148  1  0.47294300  0.82829200  0.20525200  1
  Zn  Zn149  1  0.42506900  0.04707800  0.28531700  1
  Zn  Zn150  1  0.57810500  0.75454600  0.29312900  1
  Zn  Zn151  1  0.01193500  0.57044000  0.36416500  1
  Zn  Zn152  1  0.14335200  0.29020700  0.30902900  1
  Zn  Zn153  1  0.68447900  0.50803800  0.37232500  1
  Zn  Zn154  1  0.25408400  0.86104200  0.31078800  1
  Zn  Zn155  1  0.36526400  0.60993500  0.38813500  1
  Zn  Zn156  1  0.96150000  0.35167100  0.30357500  1
  Zn  Zn157  1  0.63129200  0.63129200  0.33272700  1
  Zn  Zn158  1  0.35064900  0.79214400  0.40128900  1
  Zn  Zn159  1  0.53638500  0.29851200  0.36285300  1
  Zn  Zn160  1  0.94634700  0.70216600  0.32672400  1
  Zn  Zn161  1  0.68964100  0.33429100  0.36020300  1
  Zn  Zn162  1  0.83751500  0.21550600  0.38013800  1
  Zn  Zn163  1  0.84147400  0.71213300  0.37996800  1
  Zn  Zn164  1  0.99610100  0.91965900  0.38871800  1
  Zn  Zn165  1  0.11923200  0.97237700  0.35642500  1
  Zn  Zn166  1  0.72619800  0.96407200  0.30260100  1
  Zn  Zn167  1  0.98722500  0.09927100  0.40036400  1
  Zn  Zn168  1  0.31623700  0.56041800  0.33873000  1
  Zn  Zn169  1  0.30108400  0.91091300  0.36188000  1
  Zn  Zn170  1  0.52111000  0.65045000  0.38548700  1
  Zn  Zn171  1  0.37535900  0.26331200  0.36509100  1
  Zn  Zn172  1  0.99731900  0.75264900  0.37732000  1
  Zn  Zn173  1  0.68129200  0.68129200  0.38272700  1
  Zn  Zn174  1  0.85174700  0.37008400  0.35605700  1
  Zn  Zn175  1  0.63882100  0.28445000  0.31088800  1
  Zn  Zn176  1  0.93794800  0.04917200  0.34844600  1
  Zn  Zn177  1  0.41083700  0.89250000  0.30939700  1
  Zn  Zn178  1  0.32463600  0.21341200  0.31700900  1
  Zn  Zn179  1  0.36648300  0.44292400  0.37673700  1
  Zn  Zn180  1  0.62376300  0.97813400  0.35456700  1
  Zn  Zn181  1  0.00850000  0.40154200  0.35466700  1
  Zn  Zn182  1  0.13129200  0.63129200  0.33272700  1
  Zn  Zn183  1  0.57294300  0.92829200  0.30525200  1
  Zn  Zn184  1  0.52506900  0.14707800  0.38531700  1
  Zn  Zn185  1  0.67810500  0.85454600  0.39312900  1
  Zn  Zn186  1  0.11193500  0.67044000  0.46416500  1
  Zn  Zn187  1  0.24335200  0.39020700  0.40902900  1
  Zn  Zn188  1  0.78447900  0.60803800  0.47232500  1
  Zn  Zn189  1  0.35408400  0.96104200  0.41078800  1
  Zn  Zn190  1  0.46526400  0.70993500  0.48813500  1
  Zn  Zn191  1  0.06150000  0.45167100  0.40357500  1
  Zn  Zn192  1  0.73129200  0.73129200  0.43272700  1
  Zn  Zn193  1  0.45064900  0.89214400  0.50128900  1
  Zn  Zn194  1  0.63638500  0.39851200  0.46285300  1
  Zn  Zn195  1  0.04634700  0.80216600  0.42672400  1
  Zn  Zn196  1  0.78964100  0.43429100  0.46020300  1
  Zn  Zn197  1  0.93751500  0.31550600  0.48013800  1
  Zn  Zn198  1  0.94147400  0.81213300  0.47996800  1
  Zn  Zn199  1  0.09610100  0.01965900  0.48871800  1
  Zn  Zn200  1  0.21923200  0.07237700  0.45642500  1
  Zn  Zn201  1  0.82619800  0.06407200  0.40260100  1
  Zn  Zn202  1  0.08722500  0.19927100  0.50036400  1
  Zn  Zn203  1  0.41623700  0.66041800  0.43873000  1
  Zn  Zn204  1  0.40108400  0.01091300  0.46188000  1
  Zn  Zn205  1  0.62111000  0.75045000  0.48548700  1
  Zn  Zn206  1  0.47535900  0.36331200  0.46509100  1
  Zn  Zn207  1  0.09731900  0.85264900  0.47732000  1
  Zn  Zn208  1  0.78129200  0.78129200  0.48272700  1
  Zn  Zn209  1  0.95174700  0.47008400  0.45605700  1
  Zn  Zn210  1  0.73882100  0.38445000  0.41088800  1
  Zn  Zn211  1  0.03794800  0.14917200  0.44844600  1
  Zn  Zn212  1  0.51083700  0.99250000  0.40939700  1
  Zn  Zn213  1  0.42463600  0.31341200  0.41700900  1
  Zn  Zn214  1  0.46648300  0.54292400  0.47673700  1
  Zn  Zn215  1  0.72376300  0.07813400  0.45456700  1
  Zn  Zn216  1  0.10850000  0.50154200  0.45466700  1
  Zn  Zn217  1  0.23129200  0.73129200  0.43272700  1
  Zn  Zn218  1  0.67294300  0.02829200  0.40525200  1
  Zn  Zn219  1  0.62506900  0.24707800  0.48531700  1
  Zn  Zn220  1  0.77810500  0.95454600  0.49312900  1
  Zn  Zn221  1  0.21193500  0.77044000  0.56416500  1
  Zn  Zn222  1  0.34335200  0.49020700  0.50902900  1
  Zn  Zn223  1  0.88447900  0.70803800  0.57232500  1
  Zn  Zn224  1  0.45408400  0.06104200  0.51078800  1
  Zn  Zn225  1  0.56526400  0.80993500  0.58813500  1
  Zn  Zn226  1  0.16150000  0.55167100  0.50357500  1
  Zn  Zn227  1  0.83129200  0.83129200  0.53272700  1
  Zn  Zn228  1  0.55064900  0.99214400  0.60128900  1
  Zn  Zn229  1  0.73638500  0.49851200  0.56285300  1
  Zn  Zn230  1  0.14634700  0.90216600  0.52672400  1
  Zn  Zn231  1  0.88964100  0.53429100  0.56020300  1
  Zn  Zn232  1  0.03751500  0.41550600  0.58013800  1
  Zn  Zn233  1  0.04147400  0.91213300  0.57996800  1
  Zn  Zn234  1  0.19610100  0.11965900  0.58871800  1
  Zn  Zn235  1  0.31923200  0.17237700  0.55642500  1
  Zn  Zn236  1  0.92619800  0.16407200  0.50260100  1
  Zn  Zn237  1  0.18722500  0.29927100  0.60036400  1
  Zn  Zn238  1  0.51623700  0.76041800  0.53873000  1
  Zn  Zn239  1  0.50108400  0.11091300  0.56188000  1
  Zn  Zn240  1  0.72111000  0.85045000  0.58548700  1
  Zn  Zn241  1  0.57535900  0.46331200  0.56509100  1
  Zn  Zn242  1  0.19731900  0.95264900  0.57732000  1
  Zn  Zn243  1  0.88129200  0.88129200  0.58272700  1
  Zn  Zn244  1  0.05174700  0.57008400  0.55605700  1
  Zn  Zn245  1  0.83882100  0.48445000  0.51088800  1
  Zn  Zn246  1  0.13794800  0.24917200  0.54844600  1
  Zn  Zn247  1  0.61083700  0.09250000  0.50939700  1
  Zn  Zn248  1  0.52463600  0.41341200  0.51700900  1
  Zn  Zn249  1  0.56648300  0.64292400  0.57673700  1
  Zn  Zn250  1  0.82376300  0.17813400  0.55456700  1
  Zn  Zn251  1  0.20850000  0.60154200  0.55466700  1
  Zn  Zn252  1  0.33129200  0.83129200  0.53272700  1
  Zn  Zn253  1  0.77294300  0.12829200  0.50525200  1
  Zn  Zn254  1  0.72506900  0.34707800  0.58531700  1
  Zn  Zn255  1  0.87810500  0.05454600  0.59312900  1
  Zn  Zn256  1  0.31193500  0.87044000  0.66416500  1
  Zn  Zn257  1  0.44335200  0.59020700  0.60902900  1
  Zn  Zn258  1  0.98447900  0.80803800  0.67232500  1
  Zn  Zn259  1  0.55408400  0.16104200  0.61078800  1
  Zn  Zn260  1  0.66526400  0.90993500  0.68813500  1
  Zn  Zn261  1  0.26150000  0.65167100  0.60357500  1
  Zn  Zn262  1  0.93129200  0.93129200  0.63272700  1
  Zn  Zn263  1  0.65064900  0.09214400  0.70128900  1
  Zn  Zn264  1  0.83638500  0.59851200  0.66285300  1
  Zn  Zn265  1  0.24634700  0.00216600  0.62672400  1
  Zn  Zn266  1  0.98964100  0.63429100  0.66020300  1
  Zn  Zn267  1  0.13751500  0.51550600  0.68013800  1
  Zn  Zn268  1  0.14147400  0.01213300  0.67996800  1
  Zn  Zn269  1  0.29610100  0.21965900  0.68871800  1
  Zn  Zn270  1  0.41923200  0.27237700  0.65642500  1
  Zn  Zn271  1  0.02619800  0.26407200  0.60260100  1
  Zn  Zn272  1  0.28722500  0.39927100  0.70036400  1
  Zn  Zn273  1  0.61623700  0.86041800  0.63873000  1
  Zn  Zn274  1  0.60108400  0.21091300  0.66188000  1
  Zn  Zn275  1  0.82111000  0.95045000  0.68548700  1
  Zn  Zn276  1  0.67535900  0.56331200  0.66509100  1
  Zn  Zn277  1  0.29731900  0.05264900  0.67732000  1
  Zn  Zn278  1  0.98129200  0.98129200  0.68272700  1
  Zn  Zn279  1  0.15174700  0.67008400  0.65605700  1
  Zn  Zn280  1  0.93882100  0.58445000  0.61088800  1
  Zn  Zn281  1  0.23794800  0.34917200  0.64844600  1
  Zn  Zn282  1  0.71083700  0.19250000  0.60939700  1
  Zn  Zn283  1  0.62463600  0.51341200  0.61700900  1
  Zn  Zn284  1  0.66648300  0.74292400  0.67673700  1
  Zn  Zn285  1  0.92376300  0.27813400  0.65456700  1
  Zn  Zn286  1  0.30850000  0.70154200  0.65466700  1
  Zn  Zn287  1  0.43129200  0.93129200  0.63272700  1
  Zn  Zn288  1  0.87294300  0.22829200  0.60525200  1
  Zn  Zn289  1  0.82506900  0.44707800  0.68531700  1
  Zn  Zn290  1  0.97810500  0.15454600  0.69312900  1
  Zn  Zn291  1  0.54335200  0.69020700  0.70902900  1
  Zn  Zn292  1  0.65408400  0.26104200  0.71078800  1
  Zn  Zn293  1  0.36150000  0.75167100  0.70357500  1
  Zn  Zn294  1  0.03129200  0.03129200  0.73272700  1
  Zn  Zn295  1  0.93638500  0.69851200  0.76285300  1
  Zn  Zn296  1  0.34634700  0.10216600  0.72672400  1
  Zn  Zn297  1  0.08964100  0.73429100  0.76020300  1
  Zn  Zn298  1  0.51923200  0.37237700  0.75642500  1
  Zn  Zn299  1  0.12619800  0.36407200  0.70260100  1
  Zn  Zn300  1  0.71623700  0.96041800  0.73873000  1
  Zn  Zn301  1  0.70108400  0.31091300  0.76188000  1
  Zn  Zn302  1  0.25174700  0.77008400  0.75605700  1
  Zn  Zn303  1  0.03882100  0.68445000  0.71088800  1
  Zn  Zn304  1  0.33794800  0.44917200  0.74844600  1
  Zn  Zn305  1  0.81083700  0.29250000  0.70939700  1
  Zn  Zn306  1  0.72463600  0.61341200  0.71700900  1
  Zn  Zn307  1  0.02376300  0.37813400  0.75456700  1
  Zn  Zn308  1  0.40850000  0.80154200  0.75466700  1
  Zn  Zn309  1  0.53129200  0.03129200  0.73272700  1
  Zn  Zn310  1  0.97294300  0.32829200  0.70525200  1
