# generated using pymatgen
data_Mg20Au61
_symmetry_space_group_name_H-M   'P 1'
_cell_length_a   10.43041218
_cell_length_b   11.29953425
_cell_length_c   49.40543900
_cell_angle_alpha   85.63582371
_cell_angle_beta   88.14566253
_cell_angle_gamma   98.74753851
_symmetry_Int_Tables_number   1
_chemical_formula_structural   Mg20Au61
_chemical_formula_sum   'Mg40 Au122'
_cell_volume   5732.74310784
_cell_formula_units_Z   2
loop_
 _symmetry_equiv_pos_site_id
 _symmetry_equiv_pos_as_xyz
  1  'x, y, z'
loop_
 _atom_site_type_symbol
 _atom_site_label
 _atom_site_symmetry_multiplicity
 _atom_site_fract_x
 _atom_site_fract_y
 _atom_site_fract_z
 _atom_site_occupancy
  Mg  Mg0  1  0.43441100  0.54256400  0.78440900  1
  Mg  Mg1  1  0.86388800  0.76936300  0.70934100  1
  Mg  Mg2  1  0.91372800  0.11824600  0.75918200  1
  Mg  Mg3  1  0.38457000  0.19368200  0.73456800  1
  Mg  Mg4  1  0.05335400  0.46978600  0.72560100  1
  Mg  Mg5  1  0.24494400  0.84214200  0.76814900  1
  Mg  Mg6  1  0.52360700  0.54403600  0.70085100  1
  Mg  Mg7  1  0.77469100  0.76789100  0.79289900  1
  Mg  Mg8  1  0.33441100  0.84256400  0.68440900  1
  Mg  Mg9  1  0.76388800  0.06936300  0.60934100  1
  Mg  Mg10  1  0.81372800  0.41824600  0.65918200  1
  Mg  Mg11  1  0.28457000  0.49368200  0.63456800  1
  Mg  Mg12  1  0.95335400  0.76978600  0.62560100  1
  Mg  Mg13  1  0.14494400  0.14214200  0.66814900  1
  Mg  Mg14  1  0.42360700  0.84403600  0.60085100  1
  Mg  Mg15  1  0.67469100  0.06789100  0.69289900  1
  Mg  Mg16  1  0.23441100  0.14256400  0.58440900  1
  Mg  Mg17  1  0.66388800  0.36936300  0.50934100  1
  Mg  Mg18  1  0.71372800  0.71824600  0.55918200  1
  Mg  Mg19  1  0.18457000  0.79368200  0.53456800  1
  Mg  Mg20  1  0.85335400  0.06978600  0.52560100  1
  Mg  Mg21  1  0.04494400  0.44214200  0.56814900  1
  Mg  Mg22  1  0.32360700  0.14403600  0.50085100  1
  Mg  Mg23  1  0.57469100  0.36789100  0.59289900  1
  Mg  Mg24  1  0.13441100  0.44256400  0.48440900  1
  Mg  Mg25  1  0.56388800  0.66936300  0.40934100  1
  Mg  Mg26  1  0.61372800  0.01824600  0.45918200  1
  Mg  Mg27  1  0.08457000  0.09368200  0.43456800  1
  Mg  Mg28  1  0.75335400  0.36978600  0.42560100  1
  Mg  Mg29  1  0.94494400  0.74214200  0.46814900  1
  Mg  Mg30  1  0.22360700  0.44403600  0.40085100  1
  Mg  Mg31  1  0.47469100  0.66789100  0.49289900  1
  Mg  Mg32  1  0.03441100  0.74256400  0.38440900  1
  Mg  Mg33  1  0.46388800  0.96936300  0.30934100  1
  Mg  Mg34  1  0.51372800  0.31824600  0.35918200  1
  Mg  Mg35  1  0.98457000  0.39368200  0.33456800  1
  Mg  Mg36  1  0.65335400  0.66978600  0.32560100  1
  Mg  Mg37  1  0.84494400  0.04214200  0.36814900  1
  Mg  Mg38  1  0.12360700  0.74403600  0.30085100  1
  Mg  Mg39  1  0.37469100  0.96789100  0.39289900  1
  Au  Au40  1  0.12403700  0.23130000  0.72176300  1
  Au  Au41  1  0.12426100  0.73062700  0.72198700  1
  Au  Au42  1  0.17426100  0.08062700  0.77198700  1
  Au  Au43  1  0.17403700  0.58130000  0.77176300  1
  Au  Au44  1  0.85973200  0.26853700  0.70953400  1
  Au  Au45  1  0.43856600  0.04339100  0.78421600  1
  Au  Au46  1  0.38867600  0.69416000  0.73432600  1
  Au  Au47  1  0.90962200  0.61776800  0.75942400  1
  Au  Au48  1  0.50954200  0.80432800  0.78075400  1
  Au  Au49  1  0.83916500  0.35637400  0.76340500  1
  Au  Au50  1  0.78875600  0.50760000  0.71299600  1
  Au  Au51  1  0.45913300  0.95555400  0.73034500  1
  Au  Au52  1  0.93378900  0.02999600  0.70553100  1
  Au  Au53  1  0.31441900  0.43220100  0.73812900  1
  Au  Au54  1  0.36450900  0.28193200  0.78821900  1
  Au  Au55  1  0.98387900  0.87972700  0.75562100  1
  Au  Au56  1  0.69914900  0.50596400  0.79687500  1
  Au  Au57  1  0.64914900  0.65596400  0.74687500  1
  Au  Au58  1  0.64914900  0.15596400  0.74687500  1
  Au  Au59  1  0.69914900  0.00596400  0.79687500  1
  Au  Au60  1  0.57652300  0.39449700  0.75069700  1
  Au  Au61  1  0.72177500  0.91743100  0.74305300  1
  Au  Au62  1  0.09703800  0.31878800  0.77593300  1
  Au  Au63  1  0.20126000  0.99313900  0.71781700  1
  Au  Au64  1  0.02403700  0.53130000  0.62176300  1
  Au  Au65  1  0.02426100  0.03062700  0.62198700  1
  Au  Au66  1  0.07426100  0.38062700  0.67198700  1
  Au  Au67  1  0.07403700  0.88130000  0.67176300  1
  Au  Au68  1  0.75973200  0.56853700  0.60953400  1
  Au  Au69  1  0.33856600  0.34339100  0.68421600  1
  Au  Au70  1  0.28867600  0.99416000  0.63432600  1
  Au  Au71  1  0.80962200  0.91776800  0.65942400  1
  Au  Au72  1  0.40954200  0.10432800  0.68075400  1
  Au  Au73  1  0.73916500  0.65637400  0.66340500  1
  Au  Au74  1  0.68875600  0.80760000  0.61299600  1
  Au  Au75  1  0.35913300  0.25555400  0.63034500  1
  Au  Au76  1  0.83378900  0.32999600  0.60553100  1
  Au  Au77  1  0.21441900  0.73220100  0.63812900  1
  Au  Au78  1  0.26450900  0.58193200  0.68821900  1
  Au  Au79  1  0.88387900  0.17972700  0.65562100  1
  Au  Au80  1  0.59914900  0.80596400  0.69687500  1
  Au  Au81  1  0.54914900  0.95596400  0.64687500  1
  Au  Au82  1  0.54914900  0.45596400  0.64687500  1
  Au  Au83  1  0.59914900  0.30596400  0.69687500  1
  Au  Au84  1  0.47652300  0.69449700  0.65069700  1
  Au  Au85  1  0.62177500  0.21743100  0.64305300  1
  Au  Au86  1  0.99703800  0.61878800  0.67593300  1
  Au  Au87  1  0.10126000  0.29313900  0.61781700  1
  Au  Au88  1  0.92403700  0.83130000  0.52176300  1
  Au  Au89  1  0.92426100  0.33062700  0.52198700  1
  Au  Au90  1  0.97426100  0.68062700  0.57198700  1
  Au  Au91  1  0.97403700  0.18130000  0.57176300  1
  Au  Au92  1  0.65973200  0.86853700  0.50953400  1
  Au  Au93  1  0.23856600  0.64339100  0.58421600  1
  Au  Au94  1  0.18867600  0.29416000  0.53432600  1
  Au  Au95  1  0.70962200  0.21776800  0.55942400  1
  Au  Au96  1  0.30954200  0.40432800  0.58075400  1
  Au  Au97  1  0.63916500  0.95637400  0.56340500  1
  Au  Au98  1  0.58875600  0.10760000  0.51299600  1
  Au  Au99  1  0.25913300  0.55555400  0.53034500  1
  Au  Au100  1  0.73378900  0.62999600  0.50553100  1
  Au  Au101  1  0.11441900  0.03220100  0.53812900  1
  Au  Au102  1  0.16450900  0.88193200  0.58821900  1
  Au  Au103  1  0.78387900  0.47972700  0.55562100  1
  Au  Au104  1  0.49914900  0.10596400  0.59687500  1
  Au  Au105  1  0.44914900  0.25596400  0.54687500  1
  Au  Au106  1  0.44914900  0.75596400  0.54687500  1
  Au  Au107  1  0.49914900  0.60596400  0.59687500  1
  Au  Au108  1  0.37652300  0.99449700  0.55069700  1
  Au  Au109  1  0.52177500  0.51743100  0.54305300  1
  Au  Au110  1  0.89703800  0.91878800  0.57593300  1
  Au  Au111  1  0.00126000  0.59313900  0.51781700  1
  Au  Au112  1  0.82403700  0.13130000  0.42176300  1
  Au  Au113  1  0.82426100  0.63062700  0.42198700  1
  Au  Au114  1  0.87426100  0.98062700  0.47198700  1
  Au  Au115  1  0.87403700  0.48130000  0.47176300  1
  Au  Au116  1  0.55973200  0.16853700  0.40953400  1
  Au  Au117  1  0.13856600  0.94339100  0.48421600  1
  Au  Au118  1  0.08867600  0.59416000  0.43432600  1
  Au  Au119  1  0.60962200  0.51776800  0.45942400  1
  Au  Au120  1  0.20954200  0.70432800  0.48075400  1
  Au  Au121  1  0.53916500  0.25637400  0.46340500  1
  Au  Au122  1  0.48875600  0.40760000  0.41299600  1
  Au  Au123  1  0.15913300  0.85555400  0.43034500  1
  Au  Au124  1  0.63378900  0.92999600  0.40553100  1
  Au  Au125  1  0.01441900  0.33220100  0.43812900  1
  Au  Au126  1  0.06450900  0.18193200  0.48821900  1
  Au  Au127  1  0.68387900  0.77972700  0.45562100  1
  Au  Au128  1  0.39914900  0.40596400  0.49687500  1
  Au  Au129  1  0.34914900  0.55596400  0.44687500  1
  Au  Au130  1  0.34914900  0.05596400  0.44687500  1
  Au  Au131  1  0.39914900  0.90596400  0.49687500  1
  Au  Au132  1  0.27652300  0.29449700  0.45069700  1
  Au  Au133  1  0.42177500  0.81743100  0.44305300  1
  Au  Au134  1  0.79703800  0.21878800  0.47593300  1
  Au  Au135  1  0.90126000  0.89313900  0.41781700  1
  Au  Au136  1  0.72403700  0.43130000  0.32176300  1
  Au  Au137  1  0.72426100  0.93062700  0.32198700  1
  Au  Au138  1  0.77426100  0.28062700  0.37198700  1
  Au  Au139  1  0.77403700  0.78130000  0.37176300  1
  Au  Au140  1  0.45973200  0.46853700  0.30953400  1
  Au  Au141  1  0.03856600  0.24339100  0.38421600  1
  Au  Au142  1  0.98867600  0.89416000  0.33432600  1
  Au  Au143  1  0.50962200  0.81776800  0.35942400  1
  Au  Au144  1  0.10954200  0.00432800  0.38075400  1
  Au  Au145  1  0.43916500  0.55637400  0.36340500  1
  Au  Au146  1  0.38875600  0.70760000  0.31299600  1
  Au  Au147  1  0.05913300  0.15555400  0.33034500  1
  Au  Au148  1  0.53378900  0.22999600  0.30553100  1
  Au  Au149  1  0.91441900  0.63220100  0.33812900  1
  Au  Au150  1  0.96450900  0.48193200  0.38821900  1
  Au  Au151  1  0.58387900  0.07972700  0.35562100  1
  Au  Au152  1  0.29914900  0.70596400  0.39687500  1
  Au  Au153  1  0.24914900  0.85596400  0.34687500  1
  Au  Au154  1  0.24914900  0.35596400  0.34687500  1
  Au  Au155  1  0.29914900  0.20596400  0.39687500  1
  Au  Au156  1  0.17652300  0.59449700  0.35069700  1
  Au  Au157  1  0.32177500  0.11743100  0.34305300  1
  Au  Au158  1  0.69703800  0.51878800  0.37593300  1
  Au  Au159  1  0.80126000  0.19313900  0.31781700  1
  Au  Au160  1  0.19914900  0.00596400  0.29687500  1
  Au  Au161  1  0.19914900  0.50596400  0.29687500  1
