# generated using pymatgen
data_Mg3Sb2
_symmetry_space_group_name_H-M   'P 1'
_cell_length_a   4.60697300
_cell_length_b   4.60697355
_cell_length_c   50.82509700
_cell_angle_alpha   90.00000000
_cell_angle_beta   90.00000000
_cell_angle_gamma   120.00000322
_symmetry_Int_Tables_number   1
_chemical_formula_structural   Mg3Sb2
_chemical_formula_sum   'Mg12 Sb8'
_cell_volume   934.20076735
_cell_formula_units_Z   4
loop_
 _symmetry_equiv_pos_site_id
 _symmetry_equiv_pos_as_xyz
  1  'x, y, z'
loop_
 _atom_site_type_symbol
 _atom_site_label
 _atom_site_symmetry_multiplicity
 _atom_site_fract_x
 _atom_site_fract_y
 _atom_site_fract_z
 _atom_site_occupancy
  Mg  Mg0  1  0.00000000  0.00000000  0.28571400  1
  Mg  Mg1  1  0.33333300  0.66666700  0.33817200  1
  Mg  Mg2  1  0.66666700  0.33333300  0.23325700  1
  Mg  Mg3  1  0.00000000  0.00000000  0.42857100  1
  Mg  Mg4  1  0.33333300  0.66666700  0.48102900  1
  Mg  Mg5  1  0.66666700  0.33333300  0.37611400  1
  Mg  Mg6  1  0.00000000  0.00000000  0.57142900  1
  Mg  Mg7  1  0.33333300  0.66666700  0.62388600  1
  Mg  Mg8  1  0.66666700  0.33333300  0.51897100  1
  Mg  Mg9  1  0.00000000  0.00000000  0.71428600  1
  Mg  Mg10  1  0.33333300  0.66666700  0.76674300  1
  Mg  Mg11  1  0.66666700  0.33333300  0.66182800  1
  Sb  Sb12  1  0.33333300  0.66666700  0.25349800  1
  Sb  Sb13  1  0.66666700  0.33333300  0.31793000  1
  Sb  Sb14  1  0.33333300  0.66666700  0.39635500  1
  Sb  Sb15  1  0.66666700  0.33333300  0.46078700  1
  Sb  Sb16  1  0.33333300  0.66666700  0.53921300  1
  Sb  Sb17  1  0.66666700  0.33333300  0.60364500  1
  Sb  Sb18  1  0.33333300  0.66666700  0.68207000  1
  Sb  Sb19  1  0.66666700  0.33333300  0.74650200  1
