# generated using pymatgen
data_Mg10Zn19
_symmetry_space_group_name_H-M   'P 1'
_cell_length_a   5.07402260
_cell_length_b   13.26606241
_cell_length_c   57.00757700
_cell_angle_alpha   92.18610401
_cell_angle_beta   87.66012493
_cell_angle_gamma   100.62858194
_symmetry_Int_Tables_number   1
_chemical_formula_structural   Mg10Zn19
_chemical_formula_sum   'Mg20 Zn38'
_cell_volume   3766.49990850
_cell_formula_units_Z   2
loop_
 _symmetry_equiv_pos_site_id
 _symmetry_equiv_pos_as_xyz
  1  'x, y, z'
loop_
 _atom_site_type_symbol
 _atom_site_label
 _atom_site_symmetry_multiplicity
 _atom_site_fract_x
 _atom_site_fract_y
 _atom_site_fract_z
 _atom_site_occupancy
  Mg  Mg0  1  0.27164600  0.64485000  0.35677300  1
  Mg  Mg1  1  0.48114600  0.01167800  0.31017400  1
  Mg  Mg2  1  0.58307000  0.39250000  0.46989700  1
  Mg  Mg3  1  0.82154000  0.76556800  0.37092300  1
  Mg  Mg4  1  0.95417700  0.93958000  0.28235700  1
  Mg  Mg5  1  0.14705700  0.43553800  0.38883200  1
  Mg  Mg6  1  0.83756600  0.69519900  0.27595400  1
  Mg  Mg7  1  0.92006000  0.97603100  0.39271400  1
  Mg  Mg8  1  0.27425600  0.59511700  0.30086400  1
  Mg  Mg9  1  0.78742200  0.80202000  0.48127900  1
  Mg  Mg10  1  0.15853000  0.34910000  0.29373900  1
  Mg  Mg11  1  0.46734400  0.14648200  0.46277200  1
  Mg  Mg12  1  0.40277700  0.90818100  0.35804600  1
  Mg  Mg13  1  0.14910800  0.48960400  0.44461100  1
  Mg  Mg14  1  0.59249100  0.25199600  0.31902500  1
  Mg  Mg15  1  0.90403400  0.04640100  0.48768200  1
  Mg  Mg16  1  0.46995400  0.09674900  0.40686300  1
  Mg  Mg17  1  0.59454300  0.30606200  0.37480500  1
  Mg  Mg18  1  0.26045300  0.72992200  0.45346200  1
  Mg  Mg19  1  0.33882200  0.83341900  0.40559000  1
  Zn  Zn20  1  0.40143100  0.82193300  0.27989100  1
  Zn  Zn21  1  0.93506100  0.95221100  0.33616500  1
  Zn  Zn22  1  0.70836800  0.46867500  0.29753100  1
  Zn  Zn23  1  0.13169600  0.95345400  0.44389600  1
  Zn  Zn24  1  0.82073400  0.15517400  0.27600900  1
  Zn  Zn25  1  0.11581500  0.79254300  0.31943500  1
  Zn  Zn26  1  0.99580000  0.49580000  0.25681800  1
  Zn  Zn27  1  0.34016800  0.91966700  0.48374600  1
  Zn  Zn28  1  0.09175100  0.28004100  0.34754500  1
  Zn  Zn29  1  0.42711500  0.58607700  0.48759900  1
  Zn  Zn30  1  0.93352600  0.44555400  0.33793700  1
  Zn  Zn31  1  0.71028200  0.53881300  0.37261700  1
  Zn  Zn32  1  0.08525500  0.41714200  0.49841800  1
  Zn  Zn33  1  0.70279500  0.61271300  0.44872400  1
  Zn  Zn34  1  0.80653800  0.78938900  0.42747100  1
  Zn  Zn35  1  0.64984900  0.46155900  0.41609200  1
  Zn  Zn36  1  0.48088100  0.63418200  0.40673200  1
  Zn  Zn37  1  0.31448400  0.15552300  0.27603700  1
  Zn  Zn38  1  0.62578400  0.94905600  0.44420100  1
  Zn  Zn39  1  0.65634500  0.32445800  0.26521800  1
  Zn  Zn40  1  0.26071900  0.10741800  0.35690400  1
  Zn  Zn41  1  0.92086500  0.58642600  0.48762700  1
  Zn  Zn42  1  0.49580000  0.49580000  0.25681800  1
  Zn  Zn43  1  0.77877800  0.62179100  0.32795300  1
  Zn  Zn44  1  0.42858000  0.44391800  0.33806900  1
  Zn  Zn45  1  0.99605600  0.63727800  0.40627800  1
  Zn  Zn46  1  0.96282100  0.11980900  0.43568400  1
  Zn  Zn47  1  0.74554400  0.10432200  0.35735900  1
  Zn  Zn48  1  0.03880500  0.12888700  0.31491200  1
  Zn  Zn49  1  0.31302000  0.29768200  0.42556800  1
  Zn  Zn50  1  0.60990400  0.78814600  0.31974100  1
  Zn  Zn51  1  0.49580000  0.99580000  0.25681800  1
  Zn  Zn52  1  0.80807300  0.29604500  0.42569900  1
  Zn  Zn53  1  0.03131800  0.20278700  0.39101900  1
  Zn  Zn54  1  0.03323100  0.27292400  0.46610500  1
  Zn  Zn55  1  0.74580000  0.24580000  0.50681800  1
  Zn  Zn56  1  0.24580000  0.24580000  0.50681800  1
  Zn  Zn57  1  0.24580000  0.74580000  0.50681800  1
