# generated using pymatgen
data_MgHg2
_symmetry_space_group_name_H-M   'P 1'
_cell_length_a   6.17056476
_cell_length_b   7.78040475
_cell_length_c   43.85955400
_cell_angle_alpha   93.43695561
_cell_angle_beta   91.90287841
_cell_angle_gamma   112.42308464
_symmetry_Int_Tables_number   1
_chemical_formula_structural   MgHg2
_chemical_formula_sum   'Mg18 Hg36'
_cell_volume   1939.37808871
_cell_formula_units_Z   18
loop_
 _symmetry_equiv_pos_site_id
 _symmetry_equiv_pos_as_xyz
  1  'x, y, z'
loop_
 _atom_site_type_symbol
 _atom_site_label
 _atom_site_symmetry_multiplicity
 _atom_site_fract_x
 _atom_site_fract_y
 _atom_site_fract_z
 _atom_site_occupancy
  Mg  Mg0  1  0.81180900  0.59500400  0.80340200  1
  Mg  Mg1  1  0.40247700  0.19071100  0.76802700  1
  Mg  Mg2  1  0.02609500  0.73786100  0.73197300  1
  Mg  Mg3  1  0.61676300  0.33356800  0.69659800  1
  Mg  Mg4  1  0.24038000  0.88071800  0.66054500  1
  Mg  Mg5  1  0.83104800  0.47642500  0.62517000  1
  Mg  Mg6  1  0.45466600  0.02357500  0.58911600  1
  Mg  Mg7  1  0.04533400  0.61928200  0.55374100  1
  Mg  Mg8  1  0.66895200  0.16643200  0.51768700  1
  Mg  Mg9  1  0.25962000  0.76213900  0.48231300  1
  Mg  Mg10  1  0.88323700  0.30928900  0.44625900  1
  Mg  Mg11  1  0.47390500  0.90499600  0.41088400  1
  Mg  Mg12  1  0.09752300  0.45214600  0.37483000  1
  Mg  Mg13  1  0.68819100  0.04785400  0.33945500  1
  Mg  Mg14  1  0.31180900  0.59500400  0.30340200  1
  Mg  Mg15  1  0.90247700  0.19071100  0.26802700  1
  Mg  Mg16  1  0.52609500  0.73786100  0.23197300  1
  Mg  Mg17  1  0.11676300  0.33356800  0.19659800  1
  Hg  Hg18  1  0.31985800  0.80904200  0.79131900  1
  Hg  Hg19  1  0.89442800  0.97667200  0.78011000  1
  Hg  Hg20  1  0.92341900  0.35637500  0.75440100  1
  Hg  Hg21  1  0.29086600  0.42933900  0.81702800  1
  Hg  Hg22  1  0.53414400  0.95190000  0.71989000  1
  Hg  Hg23  1  0.10871400  0.11952900  0.70868100  1
  Hg  Hg24  1  0.13770500  0.49923200  0.68297200  1
  Hg  Hg25  1  0.50515200  0.57219600  0.74559900  1
  Hg  Hg26  1  0.74842900  0.09475700  0.64846200  1
  Hg  Hg27  1  0.32299900  0.26238600  0.63725300  1
  Hg  Hg28  1  0.35199100  0.64209000  0.61154400  1
  Hg  Hg29  1  0.71943800  0.71505300  0.67417000  1
  Hg  Hg30  1  0.96271500  0.23761400  0.57703300  1
  Hg  Hg31  1  0.53728500  0.40524300  0.56582400  1
  Hg  Hg32  1  0.56627700  0.78494700  0.54011500  1
  Hg  Hg33  1  0.93372300  0.85791000  0.60274200  1
  Hg  Hg34  1  0.17700100  0.38047100  0.50560400  1
  Hg  Hg35  1  0.75157100  0.54810000  0.49439600  1
  Hg  Hg36  1  0.78056200  0.92780400  0.46868700  1
  Hg  Hg37  1  0.14800900  0.00076800  0.53131300  1
  Hg  Hg38  1  0.39128600  0.52332800  0.43417600  1
  Hg  Hg39  1  0.96585600  0.69095800  0.42296700  1
  Hg  Hg40  1  0.99484800  0.07066100  0.39725800  1
  Hg  Hg41  1  0.36229500  0.14362500  0.45988500  1
  Hg  Hg42  1  0.60557200  0.66618500  0.36274700  1
  Hg  Hg43  1  0.18014200  0.83381500  0.35153800  1
  Hg  Hg44  1  0.20913400  0.21351800  0.32583000  1
  Hg  Hg45  1  0.57658100  0.28648200  0.38845600  1
  Hg  Hg46  1  0.81985800  0.80904200  0.29131900  1
  Hg  Hg47  1  0.39442800  0.97667200  0.28011000  1
  Hg  Hg48  1  0.42341900  0.35637500  0.25440100  1
  Hg  Hg49  1  0.79086600  0.42933900  0.31702800  1
  Hg  Hg50  1  0.03414400  0.95190000  0.21989000  1
  Hg  Hg51  1  0.60871400  0.11952900  0.20868100  1
  Hg  Hg52  1  0.63770500  0.49923200  0.18297200  1
  Hg  Hg53  1  0.00515200  0.57219600  0.24559900  1
