# generated using pymatgen
data_Y5Mg2
_symmetry_space_group_name_H-M   'P 1'
_cell_length_a   3.83113900
_cell_length_b   6.65141562
_cell_length_c   49.63432300
_cell_angle_alpha   91.92441837
_cell_angle_beta   90.00000000
_cell_angle_gamma   106.73790865
_symmetry_Int_Tables_number   1
_chemical_formula_structural   Y5Mg2
_chemical_formula_sum   'Y15 Mg6'
_cell_volume   1210.47446801
_cell_formula_units_Z   3
loop_
 _symmetry_equiv_pos_site_id
 _symmetry_equiv_pos_as_xyz
  1  'x, y, z'
loop_
 _atom_site_type_symbol
 _atom_site_label
 _atom_site_symmetry_multiplicity
 _atom_site_fract_x
 _atom_site_fract_y
 _atom_site_fract_z
 _atom_site_occupancy
  Y  Y0  1  0.22260900  0.44521900  0.66250000  1
  Y  Y1  1  0.94173400  0.88346800  0.63510900  1
  Y  Y2  1  0.50348500  0.00697000  0.68989100  1
  Y  Y3  1  0.02260900  0.04521900  0.56250000  1
  Y  Y4  1  0.74173400  0.48346800  0.53510900  1
  Y  Y5  1  0.30348500  0.60697000  0.58989100  1
  Y  Y6  1  0.82260900  0.64521900  0.46250000  1
  Y  Y7  1  0.54173400  0.08346800  0.43510900  1
  Y  Y8  1  0.10348500  0.20697000  0.48989100  1
  Y  Y9  1  0.62260900  0.24521900  0.36250000  1
  Y  Y10  1  0.34173400  0.68346800  0.33510900  1
  Y  Y11  1  0.90348500  0.80697000  0.38989100  1
  Y  Y12  1  0.42260900  0.84521900  0.26250000  1
  Y  Y13  1  0.14173400  0.28346800  0.23510900  1
  Y  Y14  1  0.70348500  0.40697000  0.28989100  1
  Mg  Mg15  1  0.82260900  0.64521900  0.71250000  1
  Mg  Mg16  1  0.62260900  0.24521900  0.61250000  1
  Mg  Mg17  1  0.42260900  0.84521900  0.51250000  1
  Mg  Mg18  1  0.22260900  0.44521900  0.41250000  1
  Mg  Mg19  1  0.02260900  0.04521900  0.31250000  1
  Mg  Mg20  1  0.82260900  0.64521900  0.21250000  1
