# generated using pymatgen
data_BaMg2
_symmetry_space_group_name_H-M   'P 1'
_cell_length_a   6.58888000
_cell_length_b   10.85988700
_cell_length_c   45.64909800
_cell_angle_alpha   90.00000000
_cell_angle_beta   90.00000000
_cell_angle_gamma   90.00000000
_symmetry_Int_Tables_number   1
_chemical_formula_structural   BaMg2
_chemical_formula_sum   'Ba20 Mg40'
_cell_volume   3266.39802936
_cell_formula_units_Z   20
loop_
 _symmetry_equiv_pos_site_id
 _symmetry_equiv_pos_as_xyz
  1  'x, y, z'
loop_
 _atom_site_type_symbol
 _atom_site_label
 _atom_site_symmetry_multiplicity
 _atom_site_fract_x
 _atom_site_fract_y
 _atom_site_fract_z
 _atom_site_occupancy
  Ba  Ba0  1  0.25000000  0.94166300  0.20833300  1
  Ba  Ba1  1  0.25000000  0.44166300  0.29166700  1
  Ba  Ba2  1  0.25000000  0.05833700  0.29166700  1
  Ba  Ba3  1  0.25000000  0.55833700  0.20833300  1
  Ba  Ba4  1  0.75000000  0.94166300  0.33333300  1
  Ba  Ba5  1  0.75000000  0.44166300  0.41666700  1
  Ba  Ba6  1  0.75000000  0.05833700  0.41666700  1
  Ba  Ba7  1  0.75000000  0.55833700  0.33333300  1
  Ba  Ba8  1  0.25000000  0.94166300  0.45833300  1
  Ba  Ba9  1  0.25000000  0.44166300  0.54166700  1
  Ba  Ba10  1  0.25000000  0.05833700  0.54166700  1
  Ba  Ba11  1  0.25000000  0.55833700  0.45833300  1
  Ba  Ba12  1  0.75000000  0.94166300  0.58333300  1
  Ba  Ba13  1  0.75000000  0.44166300  0.66666700  1
  Ba  Ba14  1  0.75000000  0.05833700  0.66666700  1
  Ba  Ba15  1  0.75000000  0.55833700  0.58333300  1
  Ba  Ba16  1  0.25000000  0.94166300  0.70833300  1
  Ba  Ba17  1  0.25000000  0.44166300  0.79166700  1
  Ba  Ba18  1  0.25000000  0.05833700  0.79166700  1
  Ba  Ba19  1  0.25000000  0.55833700  0.70833300  1
  Mg  Mg20  1  0.75000000  0.25000000  0.29090000  1
  Mg  Mg21  1  0.99540000  0.75000000  0.27045000  1
  Mg  Mg22  1  0.50460000  0.75000000  0.27045000  1
  Mg  Mg23  1  0.99540000  0.25000000  0.22955000  1
  Mg  Mg24  1  0.75000000  0.50000000  0.25000000  1
  Mg  Mg25  1  0.75000000  0.00000000  0.25000000  1
  Mg  Mg26  1  0.75000000  0.75000000  0.20910000  1
  Mg  Mg27  1  0.50460000  0.25000000  0.22955000  1
  Mg  Mg28  1  0.25000000  0.25000000  0.41590000  1
  Mg  Mg29  1  0.49540000  0.75000000  0.39545000  1
  Mg  Mg30  1  0.00460000  0.75000000  0.39545000  1
  Mg  Mg31  1  0.49540000  0.25000000  0.35455000  1
  Mg  Mg32  1  0.25000000  0.50000000  0.37500000  1
  Mg  Mg33  1  0.25000000  0.00000000  0.37500000  1
  Mg  Mg34  1  0.25000000  0.75000000  0.33410000  1
  Mg  Mg35  1  0.00460000  0.25000000  0.35455000  1
  Mg  Mg36  1  0.75000000  0.25000000  0.54090000  1
  Mg  Mg37  1  0.99540000  0.75000000  0.52045000  1
  Mg  Mg38  1  0.50460000  0.75000000  0.52045000  1
  Mg  Mg39  1  0.99540000  0.25000000  0.47955000  1
  Mg  Mg40  1  0.75000000  0.50000000  0.50000000  1
  Mg  Mg41  1  0.75000000  0.00000000  0.50000000  1
  Mg  Mg42  1  0.75000000  0.75000000  0.45910000  1
  Mg  Mg43  1  0.50460000  0.25000000  0.47955000  1
  Mg  Mg44  1  0.25000000  0.25000000  0.66590000  1
  Mg  Mg45  1  0.49540000  0.75000000  0.64545000  1
  Mg  Mg46  1  0.00460000  0.75000000  0.64545000  1
  Mg  Mg47  1  0.49540000  0.25000000  0.60455000  1
  Mg  Mg48  1  0.25000000  0.50000000  0.62500000  1
  Mg  Mg49  1  0.25000000  0.00000000  0.62500000  1
  Mg  Mg50  1  0.25000000  0.75000000  0.58410000  1
  Mg  Mg51  1  0.00460000  0.25000000  0.60455000  1
  Mg  Mg52  1  0.75000000  0.25000000  0.79090000  1
  Mg  Mg53  1  0.99540000  0.75000000  0.77045000  1
  Mg  Mg54  1  0.50460000  0.75000000  0.77045000  1
  Mg  Mg55  1  0.99540000  0.25000000  0.72955000  1
  Mg  Mg56  1  0.75000000  0.50000000  0.75000000  1
  Mg  Mg57  1  0.75000000  0.00000000  0.75000000  1
  Mg  Mg58  1  0.75000000  0.75000000  0.70910000  1
  Mg  Mg59  1  0.50460000  0.25000000  0.72955000  1
