# generated using pymatgen
data_Ca2Mg
_symmetry_space_group_name_H-M   'P 1'
_cell_length_a   3.89843619
_cell_length_b   9.27247136
_cell_length_c   47.92219200
_cell_angle_alpha   87.08164032
_cell_angle_beta   87.66886419
_cell_angle_gamma   77.86500989
_symmetry_Int_Tables_number   1
_chemical_formula_structural   Ca2Mg
_chemical_formula_sum   'Ca20 Mg10'
_cell_volume   1690.59636584
_cell_formula_units_Z   10
loop_
 _symmetry_equiv_pos_site_id
 _symmetry_equiv_pos_as_xyz
  1  'x, y, z'
loop_
 _atom_site_type_symbol
 _atom_site_label
 _atom_site_symmetry_multiplicity
 _atom_site_fract_x
 _atom_site_fract_y
 _atom_site_fract_z
 _atom_site_occupancy
  Ca  Ca0  1  0.96681600  0.34398800  0.72238100  1
  Ca  Ca1  1  0.78347500  0.65543100  0.77761900  1
  Ca  Ca2  1  0.09181600  0.03148800  0.78488100  1
  Ca  Ca3  1  0.65847500  0.96793100  0.71511900  1
  Ca  Ca4  1  0.71681600  0.96898800  0.59738100  1
  Ca  Ca5  1  0.53347500  0.28043100  0.65261900  1
  Ca  Ca6  1  0.84181600  0.65648800  0.65988100  1
  Ca  Ca7  1  0.40847500  0.59293100  0.59011900  1
  Ca  Ca8  1  0.46681600  0.59398800  0.47238100  1
  Ca  Ca9  1  0.28347500  0.90543100  0.52761900  1
  Ca  Ca10  1  0.59181600  0.28148800  0.53488100  1
  Ca  Ca11  1  0.15847500  0.21793100  0.46511900  1
  Ca  Ca12  1  0.21681600  0.21898800  0.34738100  1
  Ca  Ca13  1  0.03347500  0.53043100  0.40261900  1
  Ca  Ca14  1  0.34181600  0.90648800  0.40988100  1
  Ca  Ca15  1  0.90847500  0.84293100  0.34011900  1
  Ca  Ca16  1  0.96681600  0.84398800  0.22238100  1
  Ca  Ca17  1  0.78347500  0.15543100  0.27761900  1
  Ca  Ca18  1  0.09181600  0.53148800  0.28488100  1
  Ca  Ca19  1  0.65847500  0.46793100  0.21511900  1
  Mg  Mg20  1  0.43764500  0.34345900  0.78125000  1
  Mg  Mg21  1  0.31264500  0.65595900  0.71875000  1
  Mg  Mg22  1  0.18764500  0.96845900  0.65625000  1
  Mg  Mg23  1  0.06264500  0.28095900  0.59375000  1
  Mg  Mg24  1  0.93764500  0.59345900  0.53125000  1
  Mg  Mg25  1  0.81264500  0.90595900  0.46875000  1
  Mg  Mg26  1  0.68764500  0.21845900  0.40625000  1
  Mg  Mg27  1  0.56264500  0.53095900  0.34375000  1
  Mg  Mg28  1  0.43764500  0.84345900  0.28125000  1
  Mg  Mg29  1  0.31264500  0.15595900  0.21875000  1
