# generated using pymatgen
data_Yb7Mg3
_symmetry_space_group_name_H-M   'P 1'
_cell_length_a   3.76282700
_cell_length_b   5.87266200
_cell_length_c   55.68846400
_cell_angle_alpha   90.00000000
_cell_angle_beta   90.00000000
_cell_angle_gamma   90.00000000
_symmetry_Int_Tables_number   1
_chemical_formula_structural   Yb7Mg3
_chemical_formula_sum   'Yb14 Mg6'
_cell_volume   1230.59315990
_cell_formula_units_Z   2
loop_
 _symmetry_equiv_pos_site_id
 _symmetry_equiv_pos_as_xyz
  1  'x, y, z'
loop_
 _atom_site_type_symbol
 _atom_site_label
 _atom_site_symmetry_multiplicity
 _atom_site_fract_x
 _atom_site_fract_y
 _atom_site_fract_z
 _atom_site_occupancy
  Yb  Yb0  1  0.50000000  0.25000000  0.47521300  1
  Yb  Yb1  1  0.00000000  0.25000000  0.20556100  1
  Yb  Yb2  1  0.00000000  0.75000000  0.24700900  1
  Yb  Yb3  1  0.50000000  0.75000000  0.18332800  1
  Yb  Yb4  1  0.00000000  0.25000000  0.30854600  1
  Yb  Yb5  1  0.50000000  0.25000000  0.37222800  1
  Yb  Yb6  1  0.50000000  0.75000000  0.41367600  1
  Yb  Yb7  1  0.00000000  0.75000000  0.34999500  1
  Yb  Yb8  1  0.00000000  0.25000000  0.53889400  1
  Yb  Yb9  1  0.00000000  0.75000000  0.58034300  1
  Yb  Yb10  1  0.50000000  0.75000000  0.51666100  1
  Yb  Yb11  1  1.00000000  0.25000000  0.64188000  1
  Yb  Yb12  1  0.50000000  0.25000000  0.70556100  1
  Yb  Yb13  1  0.00000000  0.75000000  0.68332800  1
  Mg  Mg14  1  0.50000000  0.25000000  0.25794700  1
  Mg  Mg15  1  1.00000000  0.75000000  0.46427500  1
  Mg  Mg16  1  1.00000000  0.25000000  0.42461400  1
  Mg  Mg17  1  0.50000000  0.75000000  0.29760900  1
  Mg  Mg18  1  0.50000000  0.25000000  0.59128000  1
  Mg  Mg19  1  0.50000000  0.75000000  0.63094200  1
