# generated using pymatgen
data_Tb30Mg11
_symmetry_space_group_name_H-M   'P 1'
_cell_length_a   5.01610211
_cell_length_b   10.19123206
_cell_length_c   43.76612000
_cell_angle_alpha   92.82014931
_cell_angle_beta   93.28518314
_cell_angle_gamma   75.75321425
_symmetry_Int_Tables_number   1
_chemical_formula_structural   Tb30Mg11
_chemical_formula_sum   'Tb30 Mg11'
_cell_volume   2163.53737542
_cell_formula_units_Z   1
loop_
 _symmetry_equiv_pos_site_id
 _symmetry_equiv_pos_as_xyz
  1  'x, y, z'
loop_
 _atom_site_type_symbol
 _atom_site_label
 _atom_site_symmetry_multiplicity
 _atom_site_fract_x
 _atom_site_fract_y
 _atom_site_fract_z
 _atom_site_occupancy
  Tb  Tb0  1  0.76910400  0.67164800  0.28544500  1
  Tb  Tb1  1  0.38599800  0.42325000  0.27083300  1
  Tb  Tb2  1  0.00289100  0.17485100  0.25622200  1
  Tb  Tb3  1  0.32466000  0.61609300  0.34100100  1
  Tb  Tb4  1  0.94155300  0.36769400  0.32638900  1
  Tb  Tb5  1  0.55844700  0.11929600  0.31177700  1
  Tb  Tb6  1  0.88021500  0.56053700  0.39655600  1
  Tb  Tb7  1  0.49710900  0.31213900  0.38194400  1
  Tb  Tb8  1  0.11400200  0.06374000  0.36733300  1
  Tb  Tb9  1  0.43577100  0.50498200  0.45211200  1
  Tb  Tb10  1  0.05266400  0.25658300  0.43750000  1
  Tb  Tb11  1  0.66955800  0.00818400  0.42288800  1
  Tb  Tb12  1  0.99132600  0.44942600  0.50766700  1
  Tb  Tb13  1  0.60822000  0.20102700  0.49305600  1
  Tb  Tb14  1  0.22511300  0.95262900  0.47844400  1
  Tb  Tb15  1  0.54688200  0.39387100  0.56322300  1
  Tb  Tb16  1  0.16377500  0.14547200  0.54861100  1
  Tb  Tb17  1  0.78066900  0.89707300  0.53399900  1
  Tb  Tb18  1  0.10243800  0.33831500  0.61877800  1
  Tb  Tb19  1  0.71933100  0.08991600  0.60416700  1
  Tb  Tb20  1  0.33622500  0.84151800  0.58955500  1
  Tb  Tb21  1  0.65799300  0.28275900  0.67433400  1
  Tb  Tb22  1  0.27488700  0.03436100  0.65972200  1
  Tb  Tb23  1  0.89178000  0.78596200  0.64511100  1
  Tb  Tb24  1  0.21354900  0.22720400  0.72988900  1
  Tb  Tb25  1  0.83044200  0.97880500  0.71527800  1
  Tb  Tb26  1  0.44733600  0.73040700  0.70066600  1
  Tb  Tb27  1  0.76910400  0.17164800  0.78544500  1
  Tb  Tb28  1  0.38599800  0.92325000  0.77083300  1
  Tb  Tb29  1  0.00289100  0.67485100  0.75622200  1
  Mg  Mg30  1  0.60822000  0.95102700  0.24305600  1
  Mg  Mg31  1  0.16377500  0.89547200  0.29861100  1
  Mg  Mg32  1  0.71933100  0.83991600  0.35416700  1
  Mg  Mg33  1  0.27488700  0.78436100  0.40972200  1
  Mg  Mg34  1  0.83044200  0.72880500  0.46527800  1
  Mg  Mg35  1  0.38599800  0.67325000  0.52083300  1
  Mg  Mg36  1  0.94155300  0.61769400  0.57638900  1
  Mg  Mg37  1  0.49710900  0.56213900  0.63194400  1
  Mg  Mg38  1  0.05266400  0.50658300  0.68750000  1
  Mg  Mg39  1  0.60822000  0.45102700  0.74305600  1
  Mg  Mg40  1  0.16377500  0.39547200  0.79861100  1
