# generated using pymatgen
data_Mg4Al9
_symmetry_space_group_name_H-M   'P 1'
_cell_length_a   5.50999200
_cell_length_b   10.24190098
_cell_length_c   41.89781300
_cell_angle_alpha   94.42221519
_cell_angle_beta   90.00000000
_cell_angle_gamma   74.39566803
_symmetry_Int_Tables_number   1
_chemical_formula_structural   Mg4Al9
_chemical_formula_sum   'Mg20 Al45'
_cell_volume   2269.95445228
_cell_formula_units_Z   5
loop_
 _symmetry_equiv_pos_site_id
 _symmetry_equiv_pos_as_xyz
  1  'x, y, z'
loop_
 _atom_site_type_symbol
 _atom_site_label
 _atom_site_symmetry_multiplicity
 _atom_site_fract_x
 _atom_site_fract_y
 _atom_site_fract_z
 _atom_site_occupancy
  Mg  Mg0  1  0.90244800  0.35164300  0.30254200  1
  Mg  Mg1  1  0.16911500  0.81831000  0.31920900  1
  Mg  Mg2  1  0.02278300  0.11097200  0.35579100  1
  Mg  Mg3  1  0.75611700  0.64430600  0.33912500  1
  Mg  Mg4  1  0.50244800  0.15164300  0.40254200  1
  Mg  Mg5  1  0.76911500  0.61831000  0.41920900  1
  Mg  Mg6  1  0.62278300  0.91097200  0.45579100  1
  Mg  Mg7  1  0.35611700  0.44430600  0.43912500  1
  Mg  Mg8  1  0.10244800  0.95164300  0.50254200  1
  Mg  Mg9  1  0.36911500  0.41831000  0.51920900  1
  Mg  Mg10  1  0.22278300  0.71097200  0.55579100  1
  Mg  Mg11  1  0.95611700  0.24430600  0.53912500  1
  Mg  Mg12  1  0.70244800  0.75164300  0.60254200  1
  Mg  Mg13  1  0.96911500  0.21831000  0.61920900  1
  Mg  Mg14  1  0.82278300  0.51097200  0.65579100  1
  Mg  Mg15  1  0.55611700  0.04430600  0.63912500  1
  Mg  Mg16  1  0.30244800  0.55164300  0.70254200  1
  Mg  Mg17  1  0.56911500  0.01831000  0.71920900  1
  Mg  Mg18  1  0.42278300  0.31097200  0.75579100  1
  Mg  Mg19  1  0.15611700  0.84430600  0.73912500  1
  Al  Al20  1  0.66261600  0.83130800  0.27916700  1
  Al  Al21  1  0.03569400  0.59717300  0.27123400  1
  Al  Al22  1  0.52367200  0.59717300  0.27123400  1
  Al  Al23  1  0.80155900  0.06544300  0.28709900  1
  Al  Al24  1  0.28953700  0.06544300  0.28709900  1
  Al  Al25  1  0.46261600  0.23130800  0.32916700  1
  Al  Al26  1  0.26261600  0.63130800  0.37916700  1
  Al  Al27  1  0.59675100  0.96303800  0.33830100  1
  Al  Al28  1  0.63569400  0.39717300  0.37123400  1
  Al  Al29  1  0.12367200  0.39717300  0.37123400  1
  Al  Al30  1  0.40155900  0.86544300  0.38709900  1
  Al  Al31  1  0.88953700  0.86544300  0.38709900  1
  Al  Al32  1  0.32848100  0.49957800  0.32003200  1
  Al  Al33  1  0.06261600  0.03130800  0.42916700  1
  Al  Al34  1  0.86261600  0.43130800  0.47916700  1
  Al  Al35  1  0.19675100  0.76303800  0.43830100  1
  Al  Al36  1  0.23569400  0.19717300  0.47123400  1
  Al  Al37  1  0.72367200  0.19717300  0.47123400  1
  Al  Al38  1  0.00155900  0.66544300  0.48709900  1
  Al  Al39  1  0.48953700  0.66544300  0.48709900  1
  Al  Al40  1  0.92848100  0.29957800  0.42003200  1
  Al  Al41  1  0.66261600  0.83130800  0.52916700  1
  Al  Al42  1  0.46261600  0.23130800  0.57916700  1
  Al  Al43  1  0.79675100  0.56303800  0.53830100  1
  Al  Al44  1  0.83569400  0.99717300  0.57123400  1
  Al  Al45  1  0.32367200  0.99717300  0.57123400  1
  Al  Al46  1  0.60155900  0.46544300  0.58709900  1
  Al  Al47  1  0.08953700  0.46544300  0.58709900  1
  Al  Al48  1  0.52848100  0.09957800  0.52003200  1
  Al  Al49  1  0.26261600  0.63130800  0.62916700  1
  Al  Al50  1  0.06261600  0.03130800  0.67916700  1
  Al  Al51  1  0.39675100  0.36303800  0.63830100  1
  Al  Al52  1  0.43569400  0.79717300  0.67123400  1
  Al  Al53  1  0.92367200  0.79717300  0.67123400  1
  Al  Al54  1  0.20155900  0.26544300  0.68709900  1
  Al  Al55  1  0.68953700  0.26544300  0.68709900  1
  Al  Al56  1  0.12848100  0.89957800  0.62003200  1
  Al  Al57  1  0.86261600  0.43130800  0.72916700  1
  Al  Al58  1  0.66261600  0.83130800  0.77916700  1
  Al  Al59  1  0.99675100  0.16303800  0.73830100  1
  Al  Al60  1  0.03569400  0.59717300  0.77123400  1
  Al  Al61  1  0.52367200  0.59717300  0.77123400  1
  Al  Al62  1  0.80155900  0.06544300  0.78709900  1
  Al  Al63  1  0.28953700  0.06544300  0.78709900  1
  Al  Al64  1  0.72848100  0.69957800  0.72003200  1
