# generated using pymatgen
data_Nd12Mg7
_symmetry_space_group_name_H-M   'P 1'
_cell_length_a   5.67409700
_cell_length_b   8.93304483
_cell_length_c   41.30115800
_cell_angle_alpha   89.76705242
_cell_angle_beta   90.00000000
_cell_angle_gamma   90.00000000
_symmetry_Int_Tables_number   1
_chemical_formula_structural   Nd12Mg7
_chemical_formula_sum   'Nd24 Mg14'
_cell_volume   2093.41296024
_cell_formula_units_Z   2
loop_
 _symmetry_equiv_pos_site_id
 _symmetry_equiv_pos_as_xyz
  1  'x, y, z'
loop_
 _atom_site_type_symbol
 _atom_site_label
 _atom_site_symmetry_multiplicity
 _atom_site_fract_x
 _atom_site_fract_y
 _atom_site_fract_z
 _atom_site_occupancy
  Nd  Nd0  1  0.25000000  0.28690300  0.74966200  1
  Nd  Nd1  1  0.25000000  0.67873300  0.77862200  1
  Nd  Nd2  1  0.75000000  0.95450600  0.76549000  1
  Nd  Nd3  1  0.75000000  0.56267500  0.73653000  1
  Nd  Nd4  1  0.25000000  0.19599400  0.65875200  1
  Nd  Nd5  1  0.25000000  0.58782400  0.68771300  1
  Nd  Nd6  1  0.75000000  0.86359600  0.67458100  1
  Nd  Nd7  1  0.75000000  0.47176600  0.64562000  1
  Nd  Nd8  1  0.25000000  0.10508500  0.56784300  1
  Nd  Nd9  1  0.25000000  0.49691500  0.59680400  1
  Nd  Nd10  1  0.75000000  0.77268700  0.58367200  1
  Nd  Nd11  1  0.75000000  0.38085700  0.55471100  1
  Nd  Nd12  1  0.25000000  0.01417600  0.47693400  1
  Nd  Nd13  1  0.25000000  0.40600600  0.50589500  1
  Nd  Nd14  1  0.75000000  0.68177800  0.49276300  1
  Nd  Nd15  1  0.75000000  0.28994800  0.46380200  1
  Nd  Nd16  1  0.25000000  0.92326700  0.38602500  1
  Nd  Nd17  1  0.25000000  0.31509700  0.41498600  1
  Nd  Nd18  1  0.75000000  0.59086900  0.40185400  1
  Nd  Nd19  1  0.75000000  0.19903900  0.37289300  1
  Nd  Nd20  1  0.25000000  0.83235800  0.29511600  1
  Nd  Nd21  1  0.25000000  0.22418800  0.32407700  1
  Nd  Nd22  1  0.75000000  0.49996000  0.31094500  1
  Nd  Nd23  1  0.75000000  0.10813000  0.28198400  1
  Mg  Mg24  1  0.25000000  0.03170500  0.80943300  1
  Mg  Mg25  1  0.75000000  0.30061300  0.79662800  1
  Mg  Mg26  1  0.25000000  0.94079600  0.71852400  1
  Mg  Mg27  1  0.75000000  0.20970400  0.70571900  1
  Mg  Mg28  1  0.25000000  0.84988700  0.62761500  1
  Mg  Mg29  1  0.75000000  0.11879400  0.61481000  1
  Mg  Mg30  1  0.25000000  0.75897800  0.53670600  1
  Mg  Mg31  1  0.75000000  0.02788500  0.52390000  1
  Mg  Mg32  1  0.25000000  0.66806900  0.44579700  1
  Mg  Mg33  1  0.75000000  0.93697600  0.43299100  1
  Mg  Mg34  1  0.25000000  0.57716000  0.35488700  1
  Mg  Mg35  1  0.75000000  0.84606700  0.34208200  1
  Mg  Mg36  1  0.25000000  0.48625000  0.26397800  1
  Mg  Mg37  1  0.75000000  0.75515800  0.25117300  1
