# generated using pymatgen
data_MgGa
_symmetry_space_group_name_H-M   'P 1'
_cell_length_a   8.03816789
_cell_length_b   8.03816859
_cell_length_c   49.15939500
_cell_angle_alpha   88.74412318
_cell_angle_beta   88.74412307
_cell_angle_gamma   83.19111861
_symmetry_Int_Tables_number   1
_chemical_formula_structural   MgGa
_chemical_formula_sum   'Mg48 Ga48'
_cell_volume   3152.53743401
_cell_formula_units_Z   48
loop_
 _symmetry_equiv_pos_site_id
 _symmetry_equiv_pos_as_xyz
  1  'x, y, z'
loop_
 _atom_site_type_symbol
 _atom_site_label
 _atom_site_symmetry_multiplicity
 _atom_site_fract_x
 _atom_site_fract_y
 _atom_site_fract_z
 _atom_site_occupancy
  Mg  Mg0  1  0.79558800  0.65015800  0.72749800  1
  Mg  Mg1  1  0.11172400  0.84747700  0.75344200  1
  Mg  Mg2  1  0.73113200  0.99537900  0.76798500  1
  Mg  Mg3  1  0.86155600  0.00698600  0.70107400  1
  Mg  Mg4  1  0.43844400  0.29301400  0.79892600  1
  Mg  Mg5  1  0.56886800  0.30462100  0.73201500  1
  Mg  Mg6  1  0.18827600  0.45252300  0.74655800  1
  Mg  Mg7  1  0.50441200  0.64984200  0.77250200  1
  Mg  Mg8  1  0.59558800  0.45015800  0.62749800  1
  Mg  Mg9  1  0.91172400  0.64747700  0.65344200  1
  Mg  Mg10  1  0.53113200  0.79537900  0.66798500  1
  Mg  Mg11  1  0.66155600  0.80698600  0.60107400  1
  Mg  Mg12  1  0.23844400  0.09301400  0.69892600  1
  Mg  Mg13  1  0.36886800  0.10462100  0.63201500  1
  Mg  Mg14  1  0.98827600  0.25252300  0.64655800  1
  Mg  Mg15  1  0.30441200  0.44984200  0.67250200  1
  Mg  Mg16  1  0.39558800  0.25015800  0.52749800  1
  Mg  Mg17  1  0.71172400  0.44747700  0.55344200  1
  Mg  Mg18  1  0.33113200  0.59537900  0.56798500  1
  Mg  Mg19  1  0.46155600  0.60698600  0.50107400  1
  Mg  Mg20  1  0.03844400  0.89301400  0.59892600  1
  Mg  Mg21  1  0.16886800  0.90462100  0.53201500  1
  Mg  Mg22  1  0.78827600  0.05252300  0.54655800  1
  Mg  Mg23  1  0.10441200  0.24984200  0.57250200  1
  Mg  Mg24  1  0.19558800  0.05015800  0.42749800  1
  Mg  Mg25  1  0.51172400  0.24747700  0.45344200  1
  Mg  Mg26  1  0.13113200  0.39537900  0.46798500  1
  Mg  Mg27  1  0.26155600  0.40698600  0.40107400  1
  Mg  Mg28  1  0.83844400  0.69301400  0.49892600  1
  Mg  Mg29  1  0.96886800  0.70462100  0.43201500  1
  Mg  Mg30  1  0.58827600  0.85252300  0.44655800  1
  Mg  Mg31  1  0.90441200  0.04984200  0.47250200  1
  Mg  Mg32  1  0.99558800  0.85015800  0.32749800  1
  Mg  Mg33  1  0.31172400  0.04747700  0.35344200  1
  Mg  Mg34  1  0.93113200  0.19537900  0.36798500  1
  Mg  Mg35  1  0.06155600  0.20698600  0.30107400  1
  Mg  Mg36  1  0.63844400  0.49301400  0.39892600  1
  Mg  Mg37  1  0.76886800  0.50462100  0.33201500  1
  Mg  Mg38  1  0.38827600  0.65252300  0.34655800  1
  Mg  Mg39  1  0.70441200  0.84984200  0.37250200  1
  Mg  Mg40  1  0.79558800  0.65015800  0.22749800  1
  Mg  Mg41  1  0.11172400  0.84747700  0.25344200  1
  Mg  Mg42  1  0.73113200  0.99537900  0.26798500  1
  Mg  Mg43  1  0.86155600  0.00698600  0.20107400  1
  Mg  Mg44  1  0.43844400  0.29301400  0.29892600  1
  Mg  Mg45  1  0.56886800  0.30462100  0.23201500  1
  Mg  Mg46  1  0.18827600  0.45252300  0.24655800  1
  Mg  Mg47  1  0.50441200  0.64984200  0.27250200  1
  Ga  Ga48  1  0.42582800  0.63983600  0.71704500  1
  Ga  Ga49  1  0.10818300  0.71070100  0.70121900  1
  Ga  Ga50  1  0.53949500  0.93697700  0.72262000  1
  Ga  Ga51  1  0.32185000  0.10784200  0.75679400  1
  Ga  Ga52  1  0.97815000  0.19215800  0.74320600  1
  Ga  Ga53  1  0.76050500  0.36302300  0.77738000  1
  Ga  Ga54  1  0.19181700  0.58929900  0.79878100  1
  Ga  Ga55  1  0.87417200  0.66016400  0.78295500  1
  Ga  Ga56  1  0.22582800  0.43983600  0.61704500  1
  Ga  Ga57  1  0.90818300  0.51070100  0.60121900  1
  Ga  Ga58  1  0.33949500  0.73697700  0.62262000  1
  Ga  Ga59  1  0.12185000  0.90784200  0.65679400  1
  Ga  Ga60  1  0.77815000  0.99215800  0.64320600  1
  Ga  Ga61  1  0.56050500  0.16302300  0.67738000  1
  Ga  Ga62  1  0.99181700  0.38929900  0.69878100  1
  Ga  Ga63  1  0.67417200  0.46016400  0.68295500  1
  Ga  Ga64  1  0.02582800  0.23983600  0.51704500  1
  Ga  Ga65  1  0.70818300  0.31070100  0.50121900  1
  Ga  Ga66  1  0.13949500  0.53697700  0.52262000  1
  Ga  Ga67  1  0.92185000  0.70784200  0.55679400  1
  Ga  Ga68  1  0.57815000  0.79215800  0.54320600  1
  Ga  Ga69  1  0.36050500  0.96302300  0.57738000  1
  Ga  Ga70  1  0.79181700  0.18929900  0.59878100  1
  Ga  Ga71  1  0.47417200  0.26016400  0.58295500  1
  Ga  Ga72  1  0.82582800  0.03983600  0.41704500  1
  Ga  Ga73  1  0.50818300  0.11070100  0.40121900  1
  Ga  Ga74  1  0.93949500  0.33697700  0.42262000  1
  Ga  Ga75  1  0.72185000  0.50784200  0.45679400  1
  Ga  Ga76  1  0.37815000  0.59215800  0.44320600  1
  Ga  Ga77  1  0.16050500  0.76302300  0.47738000  1
  Ga  Ga78  1  0.59181700  0.98929900  0.49878100  1
  Ga  Ga79  1  0.27417200  0.06016400  0.48295500  1
  Ga  Ga80  1  0.62582800  0.83983600  0.31704500  1
  Ga  Ga81  1  0.30818300  0.91070100  0.30121900  1
  Ga  Ga82  1  0.73949500  0.13697700  0.32262000  1
  Ga  Ga83  1  0.52185000  0.30784200  0.35679400  1
  Ga  Ga84  1  0.17815000  0.39215800  0.34320600  1
  Ga  Ga85  1  0.96050500  0.56302300  0.37738000  1
  Ga  Ga86  1  0.39181700  0.78929900  0.39878100  1
  Ga  Ga87  1  0.07417200  0.86016400  0.38295500  1
  Ga  Ga88  1  0.42582800  0.63983600  0.21704500  1
  Ga  Ga89  1  0.10818300  0.71070100  0.20121900  1
  Ga  Ga90  1  0.53949500  0.93697700  0.22262000  1
  Ga  Ga91  1  0.32185000  0.10784200  0.25679400  1
  Ga  Ga92  1  0.97815000  0.19215800  0.24320600  1
  Ga  Ga93  1  0.76050500  0.36302300  0.27738000  1
  Ga  Ga94  1  0.19181700  0.58929900  0.29878100  1
  Ga  Ga95  1  0.87417200  0.66016400  0.28295500  1
