# generated using pymatgen
data_MgZn3
_symmetry_space_group_name_H-M   'P 1'
_cell_length_a   7.35431293
_cell_length_b   7.35431232
_cell_length_c   44.12587500
_cell_angle_alpha   94.67724192
_cell_angle_beta   85.32275847
_cell_angle_gamma   94.67724161
_symmetry_Int_Tables_number   1
_chemical_formula_structural   MgZn3
_chemical_formula_sum   'Mg22 Zn66'
_cell_volume   2363.97176067
_cell_formula_units_Z   22
loop_
 _symmetry_equiv_pos_site_id
 _symmetry_equiv_pos_as_xyz
  1  'x, y, z'
loop_
 _atom_site_type_symbol
 _atom_site_label
 _atom_site_symmetry_multiplicity
 _atom_site_fract_x
 _atom_site_fract_y
 _atom_site_fract_z
 _atom_site_occupancy
  Mg  Mg0  1  0.91986500  0.41346800  0.23611100  1
  Mg  Mg1  1  0.41986500  0.24680200  0.20833300  1
  Mg  Mg2  1  0.25319800  0.08013500  0.29166700  1
  Mg  Mg3  1  0.75319800  0.91346800  0.26388900  1
  Mg  Mg4  1  0.58653200  0.74680200  0.34722200  1
  Mg  Mg5  1  0.08653200  0.58013500  0.31944400  1
  Mg  Mg6  1  0.91986500  0.41346800  0.40277800  1
  Mg  Mg7  1  0.41986500  0.24680200  0.37500000  1
  Mg  Mg8  1  0.25319800  0.08013500  0.45833300  1
  Mg  Mg9  1  0.75319800  0.91346800  0.43055600  1
  Mg  Mg10  1  0.58653200  0.74680200  0.51388900  1
  Mg  Mg11  1  0.08653200  0.58013500  0.48611100  1
  Mg  Mg12  1  0.91986500  0.41346800  0.56944400  1
  Mg  Mg13  1  0.41986500  0.24680200  0.54166700  1
  Mg  Mg14  1  0.25319800  0.08013500  0.62500000  1
  Mg  Mg15  1  0.75319800  0.91346800  0.59722200  1
  Mg  Mg16  1  0.58653200  0.74680200  0.68055600  1
  Mg  Mg17  1  0.08653200  0.58013500  0.65277800  1
  Mg  Mg18  1  0.91986500  0.41346800  0.73611100  1
  Mg  Mg19  1  0.41986500  0.24680200  0.70833300  1
  Mg  Mg20  1  0.25319800  0.08013500  0.79166700  1
  Mg  Mg21  1  0.75319800  0.91346800  0.76388900  1
  Zn  Zn22  1  0.41346800  0.90707200  0.23611100  1
  Zn  Zn23  1  0.75959500  0.08013500  0.20726700  1
  Zn  Zn24  1  0.25319800  0.58653200  0.20939900  1
  Zn  Zn25  1  0.58013500  0.58013500  0.23717700  1
  Zn  Zn26  1  0.08653200  0.07373800  0.23504500  1
  Zn  Zn27  1  0.92626200  0.75319800  0.20833300  1
  Zn  Zn28  1  0.74680200  0.57373800  0.29166700  1
  Zn  Zn29  1  0.09292800  0.74680200  0.26282300  1
  Zn  Zn30  1  0.58653200  0.25319800  0.26495500  1
  Zn  Zn31  1  0.91346800  0.24680200  0.29273300  1
  Zn  Zn32  1  0.41986500  0.74040500  0.29060100  1
  Zn  Zn33  1  0.25959500  0.41986500  0.26388900  1
  Zn  Zn34  1  0.08013500  0.24040500  0.34722200  1
  Zn  Zn35  1  0.42626200  0.41346800  0.31837800  1
  Zn  Zn36  1  0.91986500  0.91986500  0.32051100  1
  Zn  Zn37  1  0.24680200  0.91346800  0.34828800  1
  Zn  Zn38  1  0.75319800  0.40707200  0.34615600  1
  Zn  Zn39  1  0.59292800  0.08653200  0.31944400  1
  Zn  Zn40  1  0.41346800  0.90707200  0.40277800  1
  Zn  Zn41  1  0.75959500  0.08013500  0.37393400  1
  Zn  Zn42  1  0.25319800  0.58653200  0.37606600  1
  Zn  Zn43  1  0.58013500  0.58013500  0.40384400  1
  Zn  Zn44  1  0.08653200  0.07373800  0.40171200  1
  Zn  Zn45  1  0.92626200  0.75319800  0.37500000  1
  Zn  Zn46  1  0.74680200  0.57373800  0.45833300  1
  Zn  Zn47  1  0.09292800  0.74680200  0.42948900  1
  Zn  Zn48  1  0.58653200  0.25319800  0.43162200  1
  Zn  Zn49  1  0.91346800  0.24680200  0.45939900  1
  Zn  Zn50  1  0.41986500  0.74040500  0.45726700  1
  Zn  Zn51  1  0.25959500  0.41986500  0.43055600  1
  Zn  Zn52  1  0.08013500  0.24040500  0.51388900  1
  Zn  Zn53  1  0.42626200  0.41346800  0.48504500  1
  Zn  Zn54  1  0.91986500  0.91986500  0.48717700  1
  Zn  Zn55  1  0.24680200  0.91346800  0.51495500  1
  Zn  Zn56  1  0.75319800  0.40707200  0.51282300  1
  Zn  Zn57  1  0.59292800  0.08653200  0.48611100  1
  Zn  Zn58  1  0.41346800  0.90707200  0.56944400  1
  Zn  Zn59  1  0.75959500  0.08013500  0.54060100  1
  Zn  Zn60  1  0.25319800  0.58653200  0.54273300  1
  Zn  Zn61  1  0.58013500  0.58013500  0.57051100  1
  Zn  Zn62  1  0.08653200  0.07373800  0.56837800  1
  Zn  Zn63  1  0.92626200  0.75319800  0.54166700  1
  Zn  Zn64  1  0.74680200  0.57373800  0.62500000  1
  Zn  Zn65  1  0.09292800  0.74680200  0.59615600  1
  Zn  Zn66  1  0.58653200  0.25319800  0.59828800  1
  Zn  Zn67  1  0.91346800  0.24680200  0.62606600  1
  Zn  Zn68  1  0.41986500  0.74040500  0.62393400  1
  Zn  Zn69  1  0.25959500  0.41986500  0.59722200  1
  Zn  Zn70  1  0.08013500  0.24040500  0.68055600  1
  Zn  Zn71  1  0.42626200  0.41346800  0.65171200  1
  Zn  Zn72  1  0.91986500  0.91986500  0.65384400  1
  Zn  Zn73  1  0.24680200  0.91346800  0.68162200  1
  Zn  Zn74  1  0.75319800  0.40707200  0.67948900  1
  Zn  Zn75  1  0.59292800  0.08653200  0.65277800  1
  Zn  Zn76  1  0.41346800  0.90707200  0.73611100  1
  Zn  Zn77  1  0.75959500  0.08013500  0.70726700  1
  Zn  Zn78  1  0.25319800  0.58653200  0.70939900  1
  Zn  Zn79  1  0.58013500  0.58013500  0.73717700  1
  Zn  Zn80  1  0.08653200  0.07373800  0.73504500  1
  Zn  Zn81  1  0.92626200  0.75319800  0.70833300  1
  Zn  Zn82  1  0.74680200  0.57373800  0.79166700  1
  Zn  Zn83  1  0.09292800  0.74680200  0.76282300  1
  Zn  Zn84  1  0.58653200  0.25319800  0.76495500  1
  Zn  Zn85  1  0.91346800  0.24680200  0.79273300  1
  Zn  Zn86  1  0.41986500  0.74040500  0.79060100  1
  Zn  Zn87  1  0.25959500  0.41986500  0.76388900  1
