# generated using pymatgen
data_Er21Mg8
_symmetry_space_group_name_H-M   'P 1'
_cell_length_a   3.53257600
_cell_length_b   9.91985844
_cell_length_c   43.05424800
_cell_angle_alpha   85.35603539
_cell_angle_beta   90.00000000
_cell_angle_gamma   90.00000000
_symmetry_Int_Tables_number   1
_chemical_formula_structural   Er21Mg8
_chemical_formula_sum   'Er21 Mg8'
_cell_volume   1503.78200125
_cell_formula_units_Z   1
loop_
 _symmetry_equiv_pos_site_id
 _symmetry_equiv_pos_as_xyz
  1  'x, y, z'
loop_
 _atom_site_type_symbol
 _atom_site_label
 _atom_site_symmetry_multiplicity
 _atom_site_fract_x
 _atom_site_fract_y
 _atom_site_fract_z
 _atom_site_occupancy
  Er  Er0  1  0.50000000  0.58549000  0.27956000  1
  Er  Er1  1  0.00000000  0.28917500  0.29807700  1
  Er  Er2  1  0.50000000  0.99286100  0.31659400  1
  Er  Er3  1  0.50000000  0.43164400  0.35648300  1
  Er  Er4  1  0.00000000  0.13532900  0.37500000  1
  Er  Er5  1  0.50000000  0.83901400  0.39351700  1
  Er  Er6  1  0.50000000  0.27779800  0.43340600  1
  Er  Er7  1  0.00000000  0.98148300  0.45192300  1
  Er  Er8  1  0.50000000  0.68516800  0.47044000  1
  Er  Er9  1  0.50000000  0.12395200  0.51032900  1
  Er  Er10  1  0.00000000  0.82763700  0.52884600  1
  Er  Er11  1  0.50000000  0.53132200  0.54736300  1
  Er  Er12  1  0.50000000  0.97010600  0.58725200  1
  Er  Er13  1  1.00000000  0.67379100  0.60576900  1
  Er  Er14  1  0.50000000  0.37747600  0.62428600  1
  Er  Er15  1  0.50000000  0.81626000  0.66417500  1
  Er  Er16  1  1.00000000  0.51994500  0.68269200  1
  Er  Er17  1  0.50000000  0.22363000  0.70120900  1
  Er  Er18  1  0.50000000  0.66241400  0.74109900  1
  Er  Er19  1  0.00000000  0.36609900  0.75961500  1
  Er  Er20  1  0.50000000  0.06978400  0.77813200  1
  Mg  Mg21  1  0.00000000  0.86609900  0.25961500  1
  Mg  Mg22  1  0.00000000  0.71225200  0.33653800  1
  Mg  Mg23  1  0.00000000  0.55840600  0.41346200  1
  Mg  Mg24  1  0.00000000  0.40456000  0.49038500  1
  Mg  Mg25  1  1.00000000  0.25071400  0.56730800  1
  Mg  Mg26  1  1.00000000  0.09686800  0.64423100  1
  Mg  Mg27  1  0.00000000  0.94302200  0.72115400  1
  Mg  Mg28  1  1.00000000  0.78917500  0.79807700  1
