# generated using pymatgen
data_CeMg14
_symmetry_space_group_name_H-M   'P 1'
_cell_length_a   7.86989906
_cell_length_b   7.86989915
_cell_length_c   41.05208600
_cell_angle_alpha   89.75311460
_cell_angle_beta   89.75311460
_cell_angle_gamma   81.87972292
_symmetry_Int_Tables_number   1
_chemical_formula_structural   CeMg14
_chemical_formula_sum   'Ce4 Mg56'
_cell_volume   2517.04027290
_cell_formula_units_Z   4
loop_
 _symmetry_equiv_pos_site_id
 _symmetry_equiv_pos_as_xyz
  1  'x, y, z'
loop_
 _atom_site_type_symbol
 _atom_site_label
 _atom_site_symmetry_multiplicity
 _atom_site_fract_x
 _atom_site_fract_y
 _atom_site_fract_z
 _atom_site_occupancy
  Ce  Ce0  1  0.21407300  0.21407300  0.71153800  1
  Ce  Ce1  1  0.46407300  0.46407300  0.58653800  1
  Ce  Ce2  1  0.71407300  0.71407300  0.46153800  1
  Ce  Ce3  1  0.96407300  0.96407300  0.33653800  1
  Mg  Mg4  1  0.30165700  0.87648900  0.77403800  1
  Mg  Mg5  1  0.87648900  0.30165700  0.77403800  1
  Mg  Mg6  1  0.92963500  0.92963500  0.74746500  1
  Mg  Mg7  1  0.24851100  0.24851100  0.80061200  1
  Mg  Mg8  1  0.86286700  0.56527900  0.71153800  1
  Mg  Mg9  1  0.56527900  0.86286700  0.71153800  1
  Mg  Mg10  1  0.47747700  0.47747700  0.75543900  1
  Mg  Mg11  1  0.70066900  0.70066900  0.79263800  1
  Mg  Mg12  1  0.58907300  0.08907300  0.77403800  1
  Mg  Mg13  1  0.71407300  0.21407300  0.71153800  1
  Mg  Mg14  1  0.21407300  0.71407300  0.71153800  1
  Mg  Mg15  1  0.08907300  0.58907300  0.77403800  1
  Mg  Mg16  1  0.55165700  0.12648900  0.64903800  1
  Mg  Mg17  1  0.12648900  0.55165700  0.64903800  1
  Mg  Mg18  1  0.17963500  0.17963500  0.62246500  1
  Mg  Mg19  1  0.49851100  0.49851100  0.67561200  1
  Mg  Mg20  1  0.11286700  0.81527900  0.58653800  1
  Mg  Mg21  1  0.81527900  0.11286700  0.58653800  1
  Mg  Mg22  1  0.72747700  0.72747700  0.63043900  1
  Mg  Mg23  1  0.95066900  0.95066900  0.66763800  1
  Mg  Mg24  1  0.83907300  0.33907300  0.64903800  1
  Mg  Mg25  1  0.96407300  0.46407300  0.58653800  1
  Mg  Mg26  1  0.46407300  0.96407300  0.58653800  1
  Mg  Mg27  1  0.33907300  0.83907300  0.64903800  1
  Mg  Mg28  1  0.80165700  0.37648900  0.52403800  1
  Mg  Mg29  1  0.37648900  0.80165700  0.52403800  1
  Mg  Mg30  1  0.42963500  0.42963500  0.49746500  1
  Mg  Mg31  1  0.74851100  0.74851100  0.55061200  1
  Mg  Mg32  1  0.36286700  0.06527900  0.46153800  1
  Mg  Mg33  1  0.06527900  0.36286700  0.46153800  1
  Mg  Mg34  1  0.97747700  0.97747700  0.50543900  1
  Mg  Mg35  1  0.20066900  0.20066900  0.54263800  1
  Mg  Mg36  1  0.08907300  0.58907300  0.52403800  1
  Mg  Mg37  1  0.21407300  0.71407300  0.46153800  1
  Mg  Mg38  1  0.71407300  0.21407300  0.46153800  1
  Mg  Mg39  1  0.58907300  0.08907300  0.52403800  1
  Mg  Mg40  1  0.05165700  0.62648900  0.39903800  1
  Mg  Mg41  1  0.62648900  0.05165700  0.39903800  1
  Mg  Mg42  1  0.67963500  0.67963500  0.37246500  1
  Mg  Mg43  1  0.99851100  0.99851100  0.42561200  1
  Mg  Mg44  1  0.61286700  0.31527900  0.33653800  1
  Mg  Mg45  1  0.31527900  0.61286700  0.33653800  1
  Mg  Mg46  1  0.22747700  0.22747700  0.38043900  1
  Mg  Mg47  1  0.45066900  0.45066900  0.41763800  1
  Mg  Mg48  1  0.33907300  0.83907300  0.39903800  1
  Mg  Mg49  1  0.46407300  0.96407300  0.33653800  1
  Mg  Mg50  1  0.96407300  0.46407300  0.33653800  1
  Mg  Mg51  1  0.83907300  0.33907300  0.39903800  1
  Mg  Mg52  1  0.30165700  0.87648900  0.27403800  1
  Mg  Mg53  1  0.87648900  0.30165700  0.27403800  1
  Mg  Mg54  1  0.92963500  0.92963500  0.24746500  1
  Mg  Mg55  1  0.24851100  0.24851100  0.30061200  1
  Mg  Mg56  1  0.47747700  0.47747700  0.25543900  1
  Mg  Mg57  1  0.70066900  0.70066900  0.29263800  1
  Mg  Mg58  1  0.58907300  0.08907300  0.27403800  1
  Mg  Mg59  1  0.08907300  0.58907300  0.27403800  1
