# generated using pymatgen
data_Mg16Ir25
_symmetry_space_group_name_H-M   'P 1'
_cell_length_a   8.54477469
_cell_length_b   9.72091536
_cell_length_c   40.45091800
_cell_angle_alpha   92.27818184
_cell_angle_beta   91.63073542
_cell_angle_gamma   96.80090534
_symmetry_Int_Tables_number   1
_chemical_formula_structural   Mg16Ir25
_chemical_formula_sum   'Mg48 Ir75'
_cell_volume   3331.83388964
_cell_formula_units_Z   3
loop_
 _symmetry_equiv_pos_site_id
 _symmetry_equiv_pos_as_xyz
  1  'x, y, z'
loop_
 _atom_site_type_symbol
 _atom_site_label
 _atom_site_symmetry_multiplicity
 _atom_site_fract_x
 _atom_site_fract_y
 _atom_site_fract_z
 _atom_site_occupancy
  Mg  Mg0  1  0.91533800  0.36176300  0.70998300  1
  Mg  Mg1  1  0.08466200  0.41227100  0.78001700  1
  Mg  Mg2  1  0.55549200  0.34184200  0.70865500  1
  Mg  Mg3  1  0.44450800  0.43219200  0.78134500  1
  Mg  Mg4  1  0.99788700  0.09520500  0.69221300  1
  Mg  Mg5  1  0.00211300  0.67882900  0.79778700  1
  Mg  Mg6  1  0.81855800  0.84758200  0.74237100  1
  Mg  Mg7  1  0.18144200  0.92645200  0.74762900  1
  Mg  Mg8  1  0.91533800  0.48676300  0.58498300  1
  Mg  Mg9  1  0.08466200  0.53727100  0.65501700  1
  Mg  Mg10  1  0.61669600  0.84720400  0.67567900  1
  Mg  Mg11  1  0.38330400  0.05183100  0.68932100  1
  Mg  Mg12  1  0.55549200  0.46684200  0.58365500  1
  Mg  Mg13  1  0.44450800  0.55719200  0.65634500  1
  Mg  Mg14  1  0.99788700  0.22020500  0.56721300  1
  Mg  Mg15  1  0.00211300  0.80382900  0.67278700  1
  Mg  Mg16  1  0.81855800  0.97258200  0.61737100  1
  Mg  Mg17  1  0.18144200  0.05145200  0.62262900  1
  Mg  Mg18  1  0.91533800  0.61176300  0.45998300  1
  Mg  Mg19  1  0.08466200  0.66227100  0.53001700  1
  Mg  Mg20  1  0.61669600  0.97220400  0.55067900  1
  Mg  Mg21  1  0.38330400  0.17683100  0.56432100  1
  Mg  Mg22  1  0.55549200  0.59184200  0.45865500  1
  Mg  Mg23  1  0.44450800  0.68219200  0.53134500  1
  Mg  Mg24  1  0.99788700  0.34520500  0.44221300  1
  Mg  Mg25  1  0.00211300  0.92882900  0.54778700  1
  Mg  Mg26  1  0.81855800  0.09758200  0.49237100  1
  Mg  Mg27  1  0.18144200  0.17645200  0.49762900  1
  Mg  Mg28  1  0.91533800  0.73676300  0.33498300  1
  Mg  Mg29  1  0.08466200  0.78727100  0.40501700  1
  Mg  Mg30  1  0.61669600  0.09720400  0.42567900  1
  Mg  Mg31  1  0.38330400  0.30183100  0.43932100  1
  Mg  Mg32  1  0.55549200  0.71684200  0.33365500  1
  Mg  Mg33  1  0.44450800  0.80719200  0.40634500  1
  Mg  Mg34  1  0.99788700  0.47020500  0.31721300  1
  Mg  Mg35  1  0.00211300  0.05382900  0.42278700  1
  Mg  Mg36  1  0.81855800  0.22258200  0.36737100  1
  Mg  Mg37  1  0.18144200  0.30145200  0.37262900  1
  Mg  Mg38  1  0.91533800  0.86176300  0.20998300  1
  Mg  Mg39  1  0.08466200  0.91227100  0.28001700  1
  Mg  Mg40  1  0.61669600  0.22220400  0.30067900  1
  Mg  Mg41  1  0.38330400  0.42683100  0.31432100  1
  Mg  Mg42  1  0.55549200  0.84184200  0.20865500  1
  Mg  Mg43  1  0.44450800  0.93219200  0.28134500  1
  Mg  Mg44  1  0.99788700  0.59520500  0.19221300  1
  Mg  Mg45  1  0.00211300  0.17882900  0.29778700  1
  Mg  Mg46  1  0.81855800  0.34758200  0.24237100  1
  Mg  Mg47  1  0.18144200  0.42645200  0.24762900  1
  Ir  Ir48  1  0.97167900  0.13287000  0.76139000  1
  Ir  Ir49  1  0.02832100  0.64116400  0.72861000  1
  Ir  Ir50  1  0.77047200  0.60343400  0.69269600  1
  Ir  Ir51  1  0.22952800  0.17060000  0.79730400  1
  Ir  Ir52  1  0.22952800  0.23322200  0.73468200  1
  Ir  Ir53  1  0.77047200  0.54081200  0.75531800  1
  Ir  Ir54  1  0.50000000  0.88701700  0.74500000  1
  Ir  Ir55  1  0.25697700  0.48208500  0.71800500  1
  Ir  Ir56  1  0.74302300  0.29194900  0.77199500  1
  Ir  Ir57  1  0.53311500  0.63233900  0.72802100  1
  Ir  Ir58  1  0.46688500  0.14169500  0.76197900  1
  Ir  Ir59  1  0.70409300  0.02394900  0.78960400  1
  Ir  Ir60  1  0.29590700  0.75008500  0.70039600  1
  Ir  Ir61  1  0.29590700  0.68357000  0.76691200  1
  Ir  Ir62  1  0.70409300  0.09046400  0.72308800  1
  Ir  Ir63  1  0.97167900  0.25787000  0.63639000  1
  Ir  Ir64  1  0.02832100  0.76616400  0.60361000  1
  Ir  Ir65  1  0.77047200  0.72843400  0.56769600  1
  Ir  Ir66  1  0.22952800  0.29560000  0.67230400  1
  Ir  Ir67  1  0.22952800  0.35822200  0.60968200  1
  Ir  Ir68  1  0.77047200  0.66581200  0.63031800  1
  Ir  Ir69  1  0.50000000  0.01201700  0.62000000  1
  Ir  Ir70  1  0.25697700  0.60708500  0.59300500  1
  Ir  Ir71  1  0.74302300  0.41694900  0.64699500  1
  Ir  Ir72  1  0.53311500  0.75733900  0.60302100  1
  Ir  Ir73  1  0.46688500  0.26669500  0.63697900  1
  Ir  Ir74  1  0.70409300  0.14894900  0.66460400  1
  Ir  Ir75  1  0.29590700  0.87508500  0.57539600  1
  Ir  Ir76  1  0.29590700  0.80857000  0.64191200  1
  Ir  Ir77  1  0.70409300  0.21546400  0.59808800  1
  Ir  Ir78  1  0.97167900  0.38287000  0.51139000  1
  Ir  Ir79  1  0.02832100  0.89116400  0.47861000  1
  Ir  Ir80  1  0.77047200  0.85343400  0.44269600  1
  Ir  Ir81  1  0.22952800  0.42060000  0.54730400  1
  Ir  Ir82  1  0.22952800  0.48322200  0.48468200  1
  Ir  Ir83  1  0.77047200  0.79081200  0.50531800  1
  Ir  Ir84  1  0.50000000  0.13701700  0.49500000  1
  Ir  Ir85  1  0.25697700  0.73208500  0.46800500  1
  Ir  Ir86  1  0.74302300  0.54194900  0.52199500  1
  Ir  Ir87  1  0.53311500  0.88233900  0.47802100  1
  Ir  Ir88  1  0.46688500  0.39169500  0.51197900  1
  Ir  Ir89  1  0.70409300  0.27394900  0.53960400  1
  Ir  Ir90  1  0.29590700  0.00008500  0.45039600  1
  Ir  Ir91  1  0.29590700  0.93357000  0.51691200  1
  Ir  Ir92  1  0.70409300  0.34046400  0.47308800  1
  Ir  Ir93  1  0.97167900  0.50787000  0.38639000  1
  Ir  Ir94  1  0.02832100  0.01616400  0.35361000  1
  Ir  Ir95  1  0.77047200  0.97843400  0.31769600  1
  Ir  Ir96  1  0.22952800  0.54560000  0.42230400  1
  Ir  Ir97  1  0.22952800  0.60822200  0.35968200  1
  Ir  Ir98  1  0.77047200  0.91581200  0.38031800  1
  Ir  Ir99  1  0.50000000  0.26201700  0.37000000  1
  Ir  Ir100  1  0.25697700  0.85708500  0.34300500  1
  Ir  Ir101  1  0.74302300  0.66694900  0.39699500  1
  Ir  Ir102  1  0.53311500  0.00733900  0.35302100  1
  Ir  Ir103  1  0.46688500  0.51669500  0.38697900  1
  Ir  Ir104  1  0.70409300  0.39894900  0.41460400  1
  Ir  Ir105  1  0.29590700  0.12508500  0.32539600  1
  Ir  Ir106  1  0.29590700  0.05857000  0.39191200  1
  Ir  Ir107  1  0.70409300  0.46546400  0.34808800  1
  Ir  Ir108  1  0.97167900  0.63287000  0.26139000  1
  Ir  Ir109  1  0.02832100  0.14116400  0.22861000  1
  Ir  Ir110  1  0.77047200  0.10343400  0.19269600  1
  Ir  Ir111  1  0.22952800  0.67060000  0.29730400  1
  Ir  Ir112  1  0.22952800  0.73322200  0.23468200  1
  Ir  Ir113  1  0.77047200  0.04081200  0.25531800  1
  Ir  Ir114  1  0.50000000  0.38701700  0.24500000  1
  Ir  Ir115  1  0.25697700  0.98208500  0.21800500  1
  Ir  Ir116  1  0.74302300  0.79194900  0.27199500  1
  Ir  Ir117  1  0.53311500  0.13233900  0.22802100  1
  Ir  Ir118  1  0.46688500  0.64169500  0.26197900  1
  Ir  Ir119  1  0.70409300  0.52394900  0.28960400  1
  Ir  Ir120  1  0.29590700  0.25008500  0.20039600  1
  Ir  Ir121  1  0.29590700  0.18357000  0.26691200  1
  Ir  Ir122  1  0.70409300  0.59046400  0.22308800  1
