# generated using pymatgen
data_La3Mg
_symmetry_space_group_name_H-M   'P 1'
_cell_length_a   7.24546400
_cell_length_b   7.24546410
_cell_length_c   44.36922300
_cell_angle_alpha   90.00000000
_cell_angle_beta   90.00000000
_cell_angle_gamma   60.00000045
_symmetry_Int_Tables_number   1
_chemical_formula_structural   La3Mg
_chemical_formula_sum   'La27 Mg9'
_cell_volume   2017.18099987
_cell_formula_units_Z   9
loop_
 _symmetry_equiv_pos_site_id
 _symmetry_equiv_pos_as_xyz
  1  'x, y, z'
loop_
 _atom_site_type_symbol
 _atom_site_label
 _atom_site_symmetry_multiplicity
 _atom_site_fract_x
 _atom_site_fract_y
 _atom_site_fract_z
 _atom_site_occupancy
  La  La0  1  0.33333300  0.83333300  0.23333300  1
  La  La1  1  0.83333300  0.33333300  0.23333300  1
  La  La2  1  0.33333300  0.33333300  0.23333300  1
  La  La3  1  0.00000000  0.50000000  0.30000000  1
  La  La4  1  0.50000000  1.00000000  0.30000000  1
  La  La5  1  0.00000000  1.00000000  0.30000000  1
  La  La6  1  0.66666700  0.16666700  0.36666700  1
  La  La7  1  0.16666700  0.66666700  0.36666700  1
  La  La8  1  0.66666700  0.66666700  0.36666700  1
  La  La9  1  0.33333300  0.83333300  0.43333300  1
  La  La10  1  0.83333300  0.33333300  0.43333300  1
  La  La11  1  0.33333300  0.33333300  0.43333300  1
  La  La12  1  1.00000000  0.50000000  0.50000000  1
  La  La13  1  0.50000000  1.00000000  0.50000000  1
  La  La14  1  0.00000000  1.00000000  0.50000000  1
  La  La15  1  0.66666700  0.16666700  0.56666700  1
  La  La16  1  0.16666700  0.66666700  0.56666700  1
  La  La17  1  0.66666700  0.66666700  0.56666700  1
  La  La18  1  0.33333300  0.83333300  0.63333300  1
  La  La19  1  0.83333300  0.33333300  0.63333300  1
  La  La20  1  0.33333300  0.33333300  0.63333300  1
  La  La21  1  0.00000000  0.50000000  0.70000000  1
  La  La22  1  0.50000000  1.00000000  0.70000000  1
  La  La23  1  1.00000000  1.00000000  0.70000000  1
  La  La24  1  0.66666700  0.16666700  0.76666700  1
  La  La25  1  0.16666700  0.66666700  0.76666700  1
  La  La26  1  0.66666700  0.66666700  0.76666700  1
  Mg  Mg27  1  0.83333300  0.83333300  0.23333300  1
  Mg  Mg28  1  0.50000000  0.50000000  0.30000000  1
  Mg  Mg29  1  0.16666700  0.16666700  0.36666700  1
  Mg  Mg30  1  0.83333300  0.83333300  0.43333300  1
  Mg  Mg31  1  0.50000000  0.50000000  0.50000000  1
  Mg  Mg32  1  0.16666700  0.16666700  0.56666700  1
  Mg  Mg33  1  0.83333300  0.83333300  0.63333300  1
  Mg  Mg34  1  0.50000000  0.50000000  0.70000000  1
  Mg  Mg35  1  0.16666700  0.16666700  0.76666700  1
