# generated using pymatgen
data_MgIn2
_symmetry_space_group_name_H-M   'P 1'
_cell_length_a   3.55483000
_cell_length_b   6.45255908
_cell_length_c   44.28284000
_cell_angle_alpha   91.04008254
_cell_angle_beta   90.00000000
_cell_angle_gamma   105.98936507
_symmetry_Int_Tables_number   1
_chemical_formula_structural   MgIn2
_chemical_formula_sum   'Mg8 In16'
_cell_volume   976.27821786
_cell_formula_units_Z   8
loop_
 _symmetry_equiv_pos_site_id
 _symmetry_equiv_pos_as_xyz
  1  'x, y, z'
loop_
 _atom_site_type_symbol
 _atom_site_label
 _atom_site_symmetry_multiplicity
 _atom_site_fract_x
 _atom_site_fract_y
 _atom_site_fract_z
 _atom_site_occupancy
  Mg  Mg0  1  0.03846200  0.07692300  0.76923100  1
  Mg  Mg1  1  0.11538500  0.23076900  0.69230800  1
  Mg  Mg2  1  0.19230800  0.38461500  0.61538500  1
  Mg  Mg3  1  0.26923100  0.53846200  0.53846200  1
  Mg  Mg4  1  0.34615400  0.69230800  0.46153800  1
  Mg  Mg5  1  0.42307700  0.84615400  0.38461500  1
  Mg  Mg6  1  0.50000000  0.00000000  0.30769200  1
  Mg  Mg7  1  0.57692300  0.15384600  0.23076900  1
  In  In8  1  0.35073900  0.70147800  0.79525400  1
  In  In9  1  0.72618400  0.45236800  0.74320800  1
  In  In10  1  0.42766200  0.85532400  0.71833100  1
  In  In11  1  0.80310700  0.60621400  0.66628500  1
  In  In12  1  0.50458500  0.00917000  0.64140800  1
  In  In13  1  0.88003000  0.76006000  0.58936100  1
  In  In14  1  0.58150800  0.16301600  0.56448500  1
  In  In15  1  0.95695300  0.91390700  0.51243800  1
  In  In16  1  0.65843100  0.31686300  0.48756200  1
  In  In17  1  0.03387600  0.06775300  0.43551500  1
  In  In18  1  0.73535400  0.47070900  0.41063900  1
  In  In19  1  0.11079900  0.22159900  0.35859200  1
  In  In20  1  0.81227700  0.62455500  0.33371500  1
  In  In21  1  0.18772300  0.37544500  0.28166900  1
  In  In22  1  0.88920100  0.77840100  0.25679200  1
  In  In23  1  0.26464600  0.52929100  0.20474600  1
