# generated using pymatgen
data_Tm3Mg2
_symmetry_space_group_name_H-M   'P 1'
_cell_length_a   3.55930500
_cell_length_b   5.42194500
_cell_length_c   51.71079800
_cell_angle_alpha   90.00000000
_cell_angle_beta   90.00000000
_cell_angle_gamma   90.00000000
_symmetry_Int_Tables_number   1
_chemical_formula_structural   Tm3Mg2
_chemical_formula_sum   'Tm12 Mg8'
_cell_volume   997.93338617
_cell_formula_units_Z   4
loop_
 _symmetry_equiv_pos_site_id
 _symmetry_equiv_pos_as_xyz
  1  'x, y, z'
loop_
 _atom_site_type_symbol
 _atom_site_label
 _atom_site_symmetry_multiplicity
 _atom_site_fract_x
 _atom_site_fract_y
 _atom_site_fract_z
 _atom_site_occupancy
  Tm  Tm0  1  0.50000000  0.75000000  0.33858600  1
  Tm  Tm1  1  0.00000000  0.75000000  0.39724700  1
  Tm  Tm2  1  0.00000000  0.25000000  0.43919100  1
  Tm  Tm3  1  0.50000000  0.25000000  0.38053100  1
  Tm  Tm4  1  0.00000000  0.75000000  0.50525300  1
  Tm  Tm5  1  0.50000000  0.75000000  0.56391300  1
  Tm  Tm6  1  0.50000000  0.25000000  0.60585800  1
  Tm  Tm7  1  0.00000000  0.25000000  0.54719800  1
  Tm  Tm8  1  0.50000000  0.75000000  0.67192000  1
  Tm  Tm9  1  0.00000000  0.75000000  0.73058000  1
  Tm  Tm10  1  0.00000000  0.25000000  0.77252500  1
  Tm  Tm11  1  0.50000000  0.25000000  0.71386400  1
  Mg  Mg12  1  0.00000000  0.75000000  0.28478900  1
  Mg  Mg13  1  0.50000000  0.25000000  0.49298900  1
  Mg  Mg14  1  0.50000000  0.75000000  0.45145500  1
  Mg  Mg15  1  0.00000000  0.25000000  0.32632200  1
  Mg  Mg16  1  0.00000000  0.75000000  0.61812200  1
  Mg  Mg17  1  0.50000000  0.25000000  0.82632200  1
  Mg  Mg18  1  0.50000000  0.75000000  0.78478900  1
  Mg  Mg19  1  0.00000000  0.25000000  0.65965600  1
