# generated using pymatgen
data_La19Mg7
_symmetry_space_group_name_H-M   'P 1'
_cell_length_a   5.12331700
_cell_length_b   7.24546400
_cell_length_c   43.47278300
_cell_angle_alpha   90.00000000
_cell_angle_beta   90.00000000
_cell_angle_gamma   90.00000000
_symmetry_Int_Tables_number   1
_chemical_formula_structural   La19Mg7
_chemical_formula_sum   'La19 Mg7'
_cell_volume   1613.74486940
_cell_formula_units_Z   1
loop_
 _symmetry_equiv_pos_site_id
 _symmetry_equiv_pos_as_xyz
  1  'x, y, z'
loop_
 _atom_site_type_symbol
 _atom_site_label
 _atom_site_symmetry_multiplicity
 _atom_site_fract_x
 _atom_site_fract_y
 _atom_site_fract_z
 _atom_site_occupancy
  La  La0  1  0.00000000  0.12500000  0.27083300  1
  La  La1  1  0.00000000  0.62500000  0.35416700  1
  La  La2  1  0.50000000  0.37500000  0.31250000  1
  La  La3  1  0.50000000  0.87500000  0.31250000  1
  La  La4  1  0.00000000  0.12500000  0.43750000  1
  La  La5  1  0.50000000  0.87500000  0.39583300  1
  La  La6  1  0.50000000  0.37500000  0.39583300  1
  La  La7  1  0.00000000  0.62500000  0.52083300  1
  La  La8  1  0.50000000  0.37500000  0.47916700  1
  La  La9  1  0.50000000  0.87500000  0.47916700  1
  La  La10  1  0.00000000  0.12500000  0.60416700  1
  La  La11  1  0.50000000  0.87500000  0.56250000  1
  La  La12  1  0.50000000  0.37500000  0.56250000  1
  La  La13  1  0.00000000  0.62500000  0.68750000  1
  La  La14  1  0.50000000  0.37500000  0.64583300  1
  La  La15  1  0.50000000  0.87500000  0.64583300  1
  La  La16  1  0.00000000  0.12500000  0.77083300  1
  La  La17  1  0.50000000  0.87500000  0.72916700  1
  La  La18  1  0.50000000  0.37500000  0.72916700  1
  Mg  Mg19  1  0.00000000  0.62500000  0.27083300  1
  Mg  Mg20  1  0.00000000  0.12500000  0.35416700  1
  Mg  Mg21  1  0.00000000  0.62500000  0.43750000  1
  Mg  Mg22  1  0.00000000  0.12500000  0.52083300  1
  Mg  Mg23  1  0.00000000  0.62500000  0.60416700  1
  Mg  Mg24  1  0.00000000  0.12500000  0.68750000  1
  Mg  Mg25  1  0.00000000  0.62500000  0.77083300  1
