# generated using pymatgen
data_Sr2Mg
_symmetry_space_group_name_H-M   'P 1'
_cell_length_a   5.83336999
_cell_length_b   8.04169764
_cell_length_c   43.84739200
_cell_angle_alpha   88.61754074
_cell_angle_beta   86.18592517
_cell_angle_gamma   68.73419102
_symmetry_Int_Tables_number   1
_chemical_formula_structural   Sr2Mg
_chemical_formula_sum   'Sr18 Mg9'
_cell_volume   1912.58625703
_cell_formula_units_Z   9
loop_
 _symmetry_equiv_pos_site_id
 _symmetry_equiv_pos_as_xyz
  1  'x, y, z'
loop_
 _atom_site_type_symbol
 _atom_site_label
 _atom_site_symmetry_multiplicity
 _atom_site_fract_x
 _atom_site_fract_y
 _atom_site_fract_z
 _atom_site_occupancy
  Sr  Sr0  1  0.37533600  0.71599400  0.23333300  1
  Sr  Sr1  1  0.09133000  0.28400600  0.23333300  1
  Sr  Sr2  1  0.84200300  0.71599400  0.30000000  1
  Sr  Sr3  1  0.55799700  0.28400600  0.30000000  1
  Sr  Sr4  1  0.30867000  0.71599400  0.36666700  1
  Sr  Sr5  1  0.02466400  0.28400600  0.36666700  1
  Sr  Sr6  1  0.77533600  0.71599400  0.43333300  1
  Sr  Sr7  1  0.49133000  0.28400600  0.43333300  1
  Sr  Sr8  1  0.24200300  0.71599400  0.50000000  1
  Sr  Sr9  1  0.95799700  0.28400600  0.50000000  1
  Sr  Sr10  1  0.70867000  0.71599400  0.56666700  1
  Sr  Sr11  1  0.42466400  0.28400600  0.56666700  1
  Sr  Sr12  1  0.17533600  0.71599400  0.63333300  1
  Sr  Sr13  1  0.89133000  0.28400600  0.63333300  1
  Sr  Sr14  1  0.64200300  0.71599400  0.70000000  1
  Sr  Sr15  1  0.35799700  0.28400600  0.70000000  1
  Sr  Sr16  1  0.10867000  0.71599400  0.76666700  1
  Sr  Sr17  1  0.82466400  0.28400600  0.76666700  1
  Mg  Mg18  1  0.73333300  1.00000000  0.23333300  1
  Mg  Mg19  1  0.20000000  1.00000000  0.30000000  1
  Mg  Mg20  1  0.66666700  0.00000000  0.36666700  1
  Mg  Mg21  1  0.13333300  0.00000000  0.43333300  1
  Mg  Mg22  1  0.60000000  0.00000000  0.50000000  1
  Mg  Mg23  1  0.06666700  1.00000000  0.56666700  1
  Mg  Mg24  1  0.53333300  0.00000000  0.63333300  1
  Mg  Mg25  1  0.00000000  0.00000000  0.70000000  1
  Mg  Mg26  1  0.46666700  1.00000000  0.76666700  1
