# generated using pymatgen
data_Mg8In3
_symmetry_space_group_name_H-M   'P 1'
_cell_length_a   6.31272291
_cell_length_b   8.73688585
_cell_length_c   44.95231700
_cell_angle_alpha   85.26825975
_cell_angle_beta   85.97361685
_cell_angle_gamma   68.82187958
_symmetry_Int_Tables_number   1
_chemical_formula_structural   Mg8In3
_chemical_formula_sum   'Mg32 In12'
_cell_volume   2301.77444013
_cell_formula_units_Z   4
loop_
 _symmetry_equiv_pos_site_id
 _symmetry_equiv_pos_as_xyz
  1  'x, y, z'
loop_
 _atom_site_type_symbol
 _atom_site_label
 _atom_site_symmetry_multiplicity
 _atom_site_fract_x
 _atom_site_fract_y
 _atom_site_fract_z
 _atom_site_occupancy
  Mg  Mg0  1  0.46777800  0.39990400  0.66453900  1
  Mg  Mg1  1  0.27467000  0.80907700  0.64158300  1
  Mg  Mg2  1  0.67907600  0.09585800  0.54599000  1
  Mg  Mg3  1  0.92051500  0.54169500  0.61727600  1
  Mg  Mg4  1  0.32492100  0.82847600  0.52168200  1
  Mg  Mg5  1  0.13181200  0.23764900  0.49872600  1
  Mg  Mg6  1  0.54979500  0.81877600  0.58163300  1
  Mg  Mg7  1  0.04979500  0.81877600  0.58163300  1
  Mg  Mg8  1  0.75256800  0.44702700  0.54783700  1
  Mg  Mg9  1  0.34702300  0.19052600  0.61542800  1
  Mg  Mg10  1  0.84702300  0.19052600  0.61542800  1
  Mg  Mg11  1  0.25256800  0.44702700  0.54783700  1
  Mg  Mg12  1  0.53621900  0.52443000  0.40313200  1
  Mg  Mg13  1  0.77765800  0.97026600  0.47441900  1
  Mg  Mg14  1  0.18206400  0.25704700  0.37882500  1
  Mg  Mg15  1  0.98895500  0.66622000  0.35586900  1
  Mg  Mg16  1  0.40693800  0.24734800  0.43877600  1
  Mg  Mg17  1  0.90693800  0.24734800  0.43877600  1
  Mg  Mg18  1  0.60971100  0.87559800  0.40498000  1
  Mg  Mg19  1  0.20416600  0.61909800  0.47257100  1
  Mg  Mg20  1  0.70416600  0.61909800  0.47257100  1
  Mg  Mg21  1  0.10971100  0.87559800  0.40498000  1
  Mg  Mg22  1  0.39336200  0.95300100  0.26027500  1
  Mg  Mg23  1  0.63480100  0.39883700  0.33156100  1
  Mg  Mg24  1  0.03920700  0.68561800  0.23596800  1
  Mg  Mg25  1  0.84609800  0.09479200  0.21301200  1
  Mg  Mg26  1  0.26408100  0.67591900  0.29591800  1
  Mg  Mg27  1  0.76408100  0.67591900  0.29591800  1
  Mg  Mg28  1  0.46685400  0.30417000  0.26212300  1
  Mg  Mg29  1  0.06130800  0.04766900  0.32971400  1
  Mg  Mg30  1  0.56130800  0.04766900  0.32971400  1
  Mg  Mg31  1  0.96685400  0.30417000  0.26212300  1
  In  In32  1  0.73250200  0.89861800  0.63637700  1
  In  In33  1  0.86708900  0.73893500  0.52688800  1
  In  In34  1  0.44170900  0.51507200  0.60150900  1
  In  In35  1  0.15788200  0.12248100  0.56175600  1
  In  In36  1  0.58964500  0.32719000  0.49352000  1
  In  In37  1  0.72423100  0.16750600  0.38403100  1
  In  In38  1  0.29885200  0.94364400  0.45865200  1
  In  In39  1  0.01502400  0.55105200  0.41889900  1
  In  In40  1  0.44678800  0.75576100  0.35066300  1
  In  In41  1  0.58137400  0.59607700  0.24117400  1
  In  In42  1  0.15599500  0.37221500  0.31579500  1
  In  In43  1  0.87216700  0.97962300  0.27604200  1
