# generated using pymatgen
data_MgSc2
_symmetry_space_group_name_H-M   'P 1'
_cell_length_a   5.16406100
_cell_length_b   16.48538100
_cell_length_c   43.61065900
_cell_angle_alpha   90.00000000
_cell_angle_beta   90.00000000
_cell_angle_gamma   90.00000000
_symmetry_Int_Tables_number   1
_chemical_formula_structural   MgSc2
_chemical_formula_sum   'Mg32 Sc64'
_cell_volume   3712.64138762
_cell_formula_units_Z   32
loop_
 _symmetry_equiv_pos_site_id
 _symmetry_equiv_pos_as_xyz
  1  'x, y, z'
loop_
 _atom_site_type_symbol
 _atom_site_label
 _atom_site_symmetry_multiplicity
 _atom_site_fract_x
 _atom_site_fract_y
 _atom_site_fract_z
 _atom_site_occupancy
  Mg  Mg0  1  0.75000000  0.56240200  0.21153800  1
  Mg  Mg1  1  0.25000000  0.93759800  0.25000000  1
  Mg  Mg2  1  0.75000000  0.06240200  0.25000000  1
  Mg  Mg3  1  0.25000000  0.43759800  0.21153800  1
  Mg  Mg4  1  0.75000000  0.56240200  0.28846200  1
  Mg  Mg5  1  0.25000000  0.93759800  0.32692300  1
  Mg  Mg6  1  0.75000000  0.06240200  0.32692300  1
  Mg  Mg7  1  0.25000000  0.43759800  0.28846200  1
  Mg  Mg8  1  0.75000000  0.56240200  0.36538500  1
  Mg  Mg9  1  0.25000000  0.93759800  0.40384600  1
  Mg  Mg10  1  0.75000000  0.06240200  0.40384600  1
  Mg  Mg11  1  0.25000000  0.43759800  0.36538500  1
  Mg  Mg12  1  0.75000000  0.56240200  0.44230800  1
  Mg  Mg13  1  0.25000000  0.93759800  0.48076900  1
  Mg  Mg14  1  0.75000000  0.06240200  0.48076900  1
  Mg  Mg15  1  0.25000000  0.43759800  0.44230800  1
  Mg  Mg16  1  0.75000000  0.56240200  0.51923100  1
  Mg  Mg17  1  0.25000000  0.93759800  0.55769200  1
  Mg  Mg18  1  0.75000000  0.06240200  0.55769200  1
  Mg  Mg19  1  0.25000000  0.43759800  0.51923100  1
  Mg  Mg20  1  0.75000000  0.56240200  0.59615400  1
  Mg  Mg21  1  0.25000000  0.93759800  0.63461500  1
  Mg  Mg22  1  0.75000000  0.06240200  0.63461500  1
  Mg  Mg23  1  0.25000000  0.43759800  0.59615400  1
  Mg  Mg24  1  0.75000000  0.56240200  0.67307700  1
  Mg  Mg25  1  0.25000000  0.93759800  0.71153800  1
  Mg  Mg26  1  0.75000000  0.06240200  0.71153800  1
  Mg  Mg27  1  0.25000000  0.43759800  0.67307700  1
  Mg  Mg28  1  0.75000000  0.56240200  0.75000000  1
  Mg  Mg29  1  0.25000000  0.93759800  0.78846200  1
  Mg  Mg30  1  0.75000000  0.06240200  0.78846200  1
  Mg  Mg31  1  0.25000000  0.43759800  0.75000000  1
  Sc  Sc32  1  0.75000000  0.89760100  0.21153800  1
  Sc  Sc33  1  0.75000000  0.72677800  0.25000000  1
  Sc  Sc34  1  0.25000000  0.60239900  0.25000000  1
  Sc  Sc35  1  0.25000000  0.77322200  0.21153800  1
  Sc  Sc36  1  0.75000000  0.39760100  0.25000000  1
  Sc  Sc37  1  0.75000000  0.22677800  0.21153800  1
  Sc  Sc38  1  0.25000000  0.10239900  0.21153800  1
  Sc  Sc39  1  0.25000000  0.27322200  0.25000000  1
  Sc  Sc40  1  0.75000000  0.89760100  0.28846200  1
  Sc  Sc41  1  0.75000000  0.72677800  0.32692300  1
  Sc  Sc42  1  0.25000000  0.60239900  0.32692300  1
  Sc  Sc43  1  0.25000000  0.77322200  0.28846200  1
  Sc  Sc44  1  0.75000000  0.39760100  0.32692300  1
  Sc  Sc45  1  0.75000000  0.22677800  0.28846200  1
  Sc  Sc46  1  0.25000000  0.10239900  0.28846200  1
  Sc  Sc47  1  0.25000000  0.27322200  0.32692300  1
  Sc  Sc48  1  0.75000000  0.89760100  0.36538500  1
  Sc  Sc49  1  0.75000000  0.72677800  0.40384600  1
  Sc  Sc50  1  0.25000000  0.60239900  0.40384600  1
  Sc  Sc51  1  0.25000000  0.77322200  0.36538500  1
  Sc  Sc52  1  0.75000000  0.39760100  0.40384600  1
  Sc  Sc53  1  0.75000000  0.22677800  0.36538500  1
  Sc  Sc54  1  0.25000000  0.10239900  0.36538500  1
  Sc  Sc55  1  0.25000000  0.27322200  0.40384600  1
  Sc  Sc56  1  0.75000000  0.89760100  0.44230800  1
  Sc  Sc57  1  0.75000000  0.72677800  0.48076900  1
  Sc  Sc58  1  0.25000000  0.60239900  0.48076900  1
  Sc  Sc59  1  0.25000000  0.77322200  0.44230800  1
  Sc  Sc60  1  0.75000000  0.39760100  0.48076900  1
  Sc  Sc61  1  0.75000000  0.22677800  0.44230800  1
  Sc  Sc62  1  0.25000000  0.10239900  0.44230800  1
  Sc  Sc63  1  0.25000000  0.27322200  0.48076900  1
  Sc  Sc64  1  0.75000000  0.89760100  0.51923100  1
  Sc  Sc65  1  0.75000000  0.72677800  0.55769200  1
  Sc  Sc66  1  0.25000000  0.60239900  0.55769200  1
  Sc  Sc67  1  0.25000000  0.77322200  0.51923100  1
  Sc  Sc68  1  0.75000000  0.39760100  0.55769200  1
  Sc  Sc69  1  0.75000000  0.22677800  0.51923100  1
  Sc  Sc70  1  0.25000000  0.10239900  0.51923100  1
  Sc  Sc71  1  0.25000000  0.27322200  0.55769200  1
  Sc  Sc72  1  0.75000000  0.89760100  0.59615400  1
  Sc  Sc73  1  0.75000000  0.72677800  0.63461500  1
  Sc  Sc74  1  0.25000000  0.60239900  0.63461500  1
  Sc  Sc75  1  0.25000000  0.77322200  0.59615400  1
  Sc  Sc76  1  0.75000000  0.39760100  0.63461500  1
  Sc  Sc77  1  0.75000000  0.22677800  0.59615400  1
  Sc  Sc78  1  0.25000000  0.10239900  0.59615400  1
  Sc  Sc79  1  0.25000000  0.27322200  0.63461500  1
  Sc  Sc80  1  0.75000000  0.89760100  0.67307700  1
  Sc  Sc81  1  0.75000000  0.72677800  0.71153800  1
  Sc  Sc82  1  0.25000000  0.60239900  0.71153800  1
  Sc  Sc83  1  0.25000000  0.77322200  0.67307700  1
  Sc  Sc84  1  0.75000000  0.39760100  0.71153800  1
  Sc  Sc85  1  0.75000000  0.22677800  0.67307700  1
  Sc  Sc86  1  0.25000000  0.10239900  0.67307700  1
  Sc  Sc87  1  0.25000000  0.27322200  0.71153800  1
  Sc  Sc88  1  0.75000000  0.89760100  0.75000000  1
  Sc  Sc89  1  0.75000000  0.72677800  0.78846200  1
  Sc  Sc90  1  0.25000000  0.60239900  0.78846200  1
  Sc  Sc91  1  0.25000000  0.77322200  0.75000000  1
  Sc  Sc92  1  0.75000000  0.39760100  0.78846200  1
  Sc  Sc93  1  0.75000000  0.22677800  0.75000000  1
  Sc  Sc94  1  0.25000000  0.10239900  0.75000000  1
  Sc  Sc95  1  0.25000000  0.27322200  0.78846200  1
