# generated using pymatgen
data_Dy19Mg10
_symmetry_space_group_name_H-M   'P 1'
_cell_length_a   3.69704700
_cell_length_b   17.95650481
_cell_length_c   41.98728100
_cell_angle_alpha   96.27093350
_cell_angle_beta   90.00000000
_cell_angle_gamma   90.00000000
_symmetry_Int_Tables_number   1
_chemical_formula_structural   Dy19Mg10
_chemical_formula_sum   'Dy38 Mg20'
_cell_volume   2770.69117522
_cell_formula_units_Z   2
loop_
 _symmetry_equiv_pos_site_id
 _symmetry_equiv_pos_as_xyz
  1  'x, y, z'
loop_
 _atom_site_type_symbol
 _atom_site_label
 _atom_site_symmetry_multiplicity
 _atom_site_fract_x
 _atom_site_fract_y
 _atom_site_fract_z
 _atom_site_occupancy
  Dy  Dy0  1  0.50000000  0.93969900  0.21980100  1
  Dy  Dy1  1  0.00000000  0.78185500  0.24235100  1
  Dy  Dy2  1  0.00000000  0.60025100  0.19686500  1
  Dy  Dy3  1  0.50000000  0.88309600  0.29931600  1
  Dy  Dy4  1  0.00000000  0.50219900  0.28230100  1
  Dy  Dy5  1  0.50000000  0.34435500  0.30485100  1
  Dy  Dy6  1  0.50000000  0.16275100  0.25936500  1
  Dy  Dy7  1  0.00000000  0.32059600  0.23681600  1
  Dy  Dy8  1  0.50000000  0.06469900  0.34480100  1
  Dy  Dy9  1  0.00000000  0.90685500  0.36735100  1
  Dy  Dy10  1  0.00000000  0.72525100  0.32186500  1
  Dy  Dy11  1  0.50000000  0.00809600  0.42431600  1
  Dy  Dy12  1  1.00000000  0.62719900  0.40730100  1
  Dy  Dy13  1  0.50000000  0.46935500  0.42985100  1
  Dy  Dy14  1  0.50000000  0.28775100  0.38436500  1
  Dy  Dy15  1  0.00000000  0.44559600  0.36181600  1
  Dy  Dy16  1  0.50000000  0.18969900  0.46980100  1
  Dy  Dy17  1  0.00000000  0.03185500  0.49235100  1
  Dy  Dy18  1  0.00000000  0.85025100  0.44686500  1
  Dy  Dy19  1  0.50000000  0.13309600  0.54931600  1
  Dy  Dy20  1  0.00000000  0.75219900  0.53230100  1
  Dy  Dy21  1  0.50000000  0.59435500  0.55485100  1
  Dy  Dy22  1  0.50000000  0.41275100  0.50936500  1
  Dy  Dy23  1  1.00000000  0.57059600  0.48681600  1
  Dy  Dy24  1  0.50000000  0.31469900  0.59480100  1
  Dy  Dy25  1  1.00000000  0.15685500  0.61735100  1
  Dy  Dy26  1  0.00000000  0.97525100  0.57186500  1
  Dy  Dy27  1  0.50000000  0.25809600  0.67431600  1
  Dy  Dy28  1  0.00000000  0.87719900  0.65730100  1
  Dy  Dy29  1  0.50000000  0.71935500  0.67985100  1
  Dy  Dy30  1  0.50000000  0.53775100  0.63436500  1
  Dy  Dy31  1  0.00000000  0.69559600  0.61181600  1
  Dy  Dy32  1  0.50000000  0.43969900  0.71980100  1
  Dy  Dy33  1  0.00000000  0.28185500  0.74235100  1
  Dy  Dy34  1  1.00000000  0.10025100  0.69686500  1
  Dy  Dy35  1  0.00000000  0.00219900  0.78230100  1
  Dy  Dy36  1  0.50000000  0.66275100  0.75936500  1
  Dy  Dy37  1  1.00000000  0.82059600  0.73681600  1
  Mg  Mg38  1  0.50000000  0.64113300  0.26245400  1
  Mg  Mg39  1  0.00000000  0.02381800  0.27921300  1
  Mg  Mg40  1  0.00000000  0.07863300  0.19995400  1
  Mg  Mg41  1  0.50000000  0.46131800  0.21671300  1
  Mg  Mg42  1  0.50000000  0.76613300  0.38745400  1
  Mg  Mg43  1  1.00000000  0.14881800  0.40421300  1
  Mg  Mg44  1  0.00000000  0.20363300  0.32495400  1
  Mg  Mg45  1  0.50000000  0.58631800  0.34171300  1
  Mg  Mg46  1  0.50000000  0.89113300  0.51245400  1
  Mg  Mg47  1  0.00000000  0.27381800  0.52921300  1
  Mg  Mg48  1  0.00000000  0.32863300  0.44995400  1
  Mg  Mg49  1  0.50000000  0.71131800  0.46671300  1
  Mg  Mg50  1  0.50000000  0.01613300  0.63745400  1
  Mg  Mg51  1  0.00000000  0.39881800  0.65421300  1
  Mg  Mg52  1  1.00000000  0.45363300  0.57495400  1
  Mg  Mg53  1  0.50000000  0.83631800  0.59171300  1
  Mg  Mg54  1  0.50000000  0.14113300  0.76245400  1
  Mg  Mg55  1  0.00000000  0.52381800  0.77921300  1
  Mg  Mg56  1  0.00000000  0.57863300  0.69995400  1
  Mg  Mg57  1  0.50000000  0.96131800  0.71671300  1
