# generated using pymatgen
data_Ho21Mg8
_symmetry_space_group_name_H-M   'P 1'
_cell_length_a   3.50036600
_cell_length_b   10.15564508
_cell_length_c   42.96624400
_cell_angle_alpha   83.81776871
_cell_angle_beta   90.00000000
_cell_angle_gamma   90.00000000
_symmetry_Int_Tables_number   1
_chemical_formula_structural   Ho21Mg8
_chemical_formula_sum   'Ho21 Mg8'
_cell_volume   1518.50179629
_cell_formula_units_Z   1
loop_
 _symmetry_equiv_pos_site_id
 _symmetry_equiv_pos_as_xyz
  1  'x, y, z'
loop_
 _atom_site_type_symbol
 _atom_site_label
 _atom_site_symmetry_multiplicity
 _atom_site_fract_x
 _atom_site_fract_y
 _atom_site_fract_z
 _atom_site_occupancy
  Ho  Ho0  1  0.50000000  0.58696100  0.27968300  1
  Ho  Ho1  1  1.00000000  0.28929800  0.29807700  1
  Ho  Ho2  1  0.50000000  0.99163500  0.31647100  1
  Ho  Ho3  1  0.50000000  0.43311500  0.35660600  1
  Ho  Ho4  1  1.00000000  0.13545200  0.37500000  1
  Ho  Ho5  1  0.50000000  0.83778900  0.39339400  1
  Ho  Ho6  1  0.50000000  0.27926900  0.43352900  1
  Ho  Ho7  1  0.00000000  0.98160600  0.45192300  1
  Ho  Ho8  1  0.50000000  0.68394300  0.47031700  1
  Ho  Ho9  1  0.50000000  0.12542300  0.51045200  1
  Ho  Ho10  1  1.00000000  0.82776000  0.52884600  1
  Ho  Ho11  1  0.50000000  0.53009700  0.54724000  1
  Ho  Ho12  1  0.50000000  0.97157600  0.58737500  1
  Ho  Ho13  1  0.00000000  0.67391300  0.60576900  1
  Ho  Ho14  1  0.50000000  0.37625000  0.62416400  1
  Ho  Ho15  1  0.50000000  0.81773000  0.66429800  1
  Ho  Ho16  1  0.00000000  0.52006700  0.68269200  1
  Ho  Ho17  1  0.50000000  0.22240400  0.70108700  1
  Ho  Ho18  1  0.50000000  0.66388400  0.74122100  1
  Ho  Ho19  1  1.00000000  0.36622100  0.75961500  1
  Ho  Ho20  1  0.50000000  0.06855800  0.77801000  1
  Mg  Mg21  1  0.00000000  0.86622100  0.25961500  1
  Mg  Mg22  1  1.00000000  0.71237500  0.33653800  1
  Mg  Mg23  1  0.00000000  0.55852900  0.41346200  1
  Mg  Mg24  1  1.00000000  0.40468300  0.49038500  1
  Mg  Mg25  1  0.00000000  0.25083600  0.56730800  1
  Mg  Mg26  1  1.00000000  0.09699000  0.64423100  1
  Mg  Mg27  1  0.00000000  0.94314400  0.72115400  1
  Mg  Mg28  1  1.00000000  0.78929800  0.79807700  1
