# generated using pymatgen
data_Mg5Hg12
_symmetry_space_group_name_H-M   'P 1'
_cell_length_a   3.51707100
_cell_length_b   7.04379443
_cell_length_c   55.94811800
_cell_angle_alpha   88.10027884
_cell_angle_beta   90.00000000
_cell_angle_gamma   90.00000000
_symmetry_Int_Tables_number   1
_chemical_formula_structural   Mg5Hg12
_chemical_formula_sum   'Mg10 Hg24'
_cell_volume   1385.27031183
_cell_formula_units_Z   2
loop_
 _symmetry_equiv_pos_site_id
 _symmetry_equiv_pos_as_xyz
  1  'x, y, z'
loop_
 _atom_site_type_symbol
 _atom_site_label
 _atom_site_symmetry_multiplicity
 _atom_site_fract_x
 _atom_site_fract_y
 _atom_site_fract_z
 _atom_site_occupancy
  Mg  Mg0  1  0.50000000  0.00476800  0.28535400  1
  Mg  Mg1  1  0.00000000  0.19193500  0.38131300  1
  Mg  Mg2  1  0.00000000  0.70476800  0.38535400  1
  Mg  Mg3  1  0.50000000  0.49193500  0.28131300  1
  Mg  Mg4  1  0.50000000  0.40476800  0.48535400  1
  Mg  Mg5  1  0.00000000  0.59193500  0.58131300  1
  Mg  Mg6  1  0.00000000  0.10476800  0.58535400  1
  Mg  Mg7  1  0.50000000  0.89193500  0.48131300  1
  Mg  Mg8  1  0.50000000  0.80476800  0.68535400  1
  Mg  Mg9  1  0.50000000  0.29193500  0.68131300  1
  Hg  Hg10  1  0.00000000  0.73031700  0.31354700  1
  Hg  Hg11  1  0.50000000  0.46638500  0.35312000  1
  Hg  Hg12  1  0.00000000  0.25102600  0.31547800  1
  Hg  Hg13  1  0.50000000  0.94567600  0.35118900  1
  Hg  Hg14  1  0.50000000  0.03031700  0.21354700  1
  Hg  Hg15  1  0.00000000  0.76638500  0.25312000  1
  Hg  Hg16  1  0.50000000  0.55102600  0.21547800  1
  Hg  Hg17  1  0.00000000  0.24567600  0.25118900  1
  Hg  Hg18  1  0.00000000  0.13031700  0.51354700  1
  Hg  Hg19  1  0.50000000  0.86638500  0.55312000  1
  Hg  Hg20  1  0.00000000  0.65102600  0.51547800  1
  Hg  Hg21  1  0.50000000  0.34567600  0.55118900  1
  Hg  Hg22  1  0.50000000  0.43031700  0.41354700  1
  Hg  Hg23  1  0.00000000  0.16638500  0.45312000  1
  Hg  Hg24  1  0.50000000  0.95102600  0.41547800  1
  Hg  Hg25  1  0.00000000  0.64567600  0.45118900  1
  Hg  Hg26  1  0.00000000  0.53031700  0.71354700  1
  Hg  Hg27  1  0.50000000  0.26638500  0.75312000  1
  Hg  Hg28  1  0.00000000  0.05102600  0.71547800  1
  Hg  Hg29  1  0.50000000  0.74567600  0.75118900  1
  Hg  Hg30  1  0.50000000  0.83031700  0.61354700  1
  Hg  Hg31  1  0.00000000  0.56638500  0.65312000  1
  Hg  Hg32  1  0.50000000  0.35102600  0.61547800  1
  Hg  Hg33  1  0.00000000  0.04567600  0.65118900  1
