# generated using pymatgen
data_Mg12Ga5
_symmetry_space_group_name_H-M   'P 1'
_cell_length_a   6.82567400
_cell_length_b   8.32987963
_cell_length_c   44.97897400
_cell_angle_alpha   95.18614183
_cell_angle_beta   90.00000000
_cell_angle_gamma   114.18663396
_symmetry_Int_Tables_number   1
_chemical_formula_structural   Mg12Ga5
_chemical_formula_sum   'Mg48 Ga20'
_cell_volume   2321.39307391
_cell_formula_units_Z   4
loop_
 _symmetry_equiv_pos_site_id
 _symmetry_equiv_pos_as_xyz
  1  'x, y, z'
loop_
 _atom_site_type_symbol
 _atom_site_label
 _atom_site_symmetry_multiplicity
 _atom_site_fract_x
 _atom_site_fract_y
 _atom_site_fract_z
 _atom_site_occupancy
  Mg  Mg0  1  0.63945700  0.96805700  0.74859300  1
  Mg  Mg1  1  0.47329400  0.25744400  0.76926400  1
  Mg  Mg2  1  0.84665000  0.38244400  0.70676400  1
  Mg  Mg3  1  0.26610000  0.84305700  0.81109300  1
  Mg  Mg4  1  0.02512500  0.05025100  0.79017900  1
  Mg  Mg5  1  0.08762500  0.17525100  0.72767900  1
  Mg  Mg6  1  0.81977400  0.63954700  0.76084300  1
  Mg  Mg7  1  0.35547700  0.71095400  0.69451500  1
  Mg  Mg8  1  0.29297700  0.58595400  0.75701500  1
  Mg  Mg9  1  0.88227400  0.76454700  0.69834300  1
  Mg  Mg10  1  0.76445700  0.21805700  0.62359300  1
  Mg  Mg11  1  0.59829400  0.50744400  0.64426400  1
  Mg  Mg12  1  0.97165000  0.63244400  0.58176400  1
  Mg  Mg13  1  0.39110000  0.09305700  0.68609300  1
  Mg  Mg14  1  0.15012500  0.30025100  0.66517900  1
  Mg  Mg15  1  0.21262500  0.42525100  0.60267900  1
  Mg  Mg16  1  0.94477400  0.88954700  0.63584300  1
  Mg  Mg17  1  0.48047700  0.96095400  0.56951500  1
  Mg  Mg18  1  0.41797700  0.83595400  0.63201500  1
  Mg  Mg19  1  0.00727400  0.01454700  0.57334300  1
  Mg  Mg20  1  0.88945700  0.46805700  0.49859300  1
  Mg  Mg21  1  0.72329400  0.75744400  0.51926400  1
  Mg  Mg22  1  0.09665000  0.88244400  0.45676400  1
  Mg  Mg23  1  0.51610000  0.34305700  0.56109300  1
  Mg  Mg24  1  0.27512500  0.55025100  0.54017900  1
  Mg  Mg25  1  0.33762500  0.67525100  0.47767900  1
  Mg  Mg26  1  0.06977400  0.13954700  0.51084300  1
  Mg  Mg27  1  0.60547700  0.21095400  0.44451500  1
  Mg  Mg28  1  0.54297700  0.08595400  0.50701500  1
  Mg  Mg29  1  0.13227400  0.26454700  0.44834300  1
  Mg  Mg30  1  0.01445700  0.71805700  0.37359300  1
  Mg  Mg31  1  0.84829400  0.00744400  0.39426400  1
  Mg  Mg32  1  0.22165000  0.13244400  0.33176400  1
  Mg  Mg33  1  0.64110000  0.59305700  0.43609300  1
  Mg  Mg34  1  0.40012500  0.80025100  0.41517900  1
  Mg  Mg35  1  0.46262500  0.92525100  0.35267900  1
  Mg  Mg36  1  0.19477400  0.38954700  0.38584300  1
  Mg  Mg37  1  0.73047700  0.46095400  0.31951500  1
  Mg  Mg38  1  0.66797700  0.33595400  0.38201500  1
  Mg  Mg39  1  0.25727400  0.51454700  0.32334300  1
  Mg  Mg40  1  0.13945700  0.96805700  0.24859300  1
  Mg  Mg41  1  0.97329400  0.25744400  0.26926400  1
  Mg  Mg42  1  0.34665000  0.38244400  0.20676400  1
  Mg  Mg43  1  0.76610000  0.84305700  0.31109300  1
  Mg  Mg44  1  0.52512500  0.05025100  0.29017900  1
  Mg  Mg45  1  0.58762500  0.17525100  0.22767900  1
  Mg  Mg46  1  0.31977400  0.63954700  0.26084300  1
  Mg  Mg47  1  0.79297700  0.58595400  0.25701500  1
  Ga  Ga48  1  0.20869800  0.89852700  0.74362700  1
  Ga  Ga49  1  0.90405300  0.32697400  0.77423000  1
  Ga  Ga50  1  0.48542100  0.45197400  0.71173000  1
  Ga  Ga51  1  0.62733000  0.77352700  0.80612700  1
  Ga  Ga52  1  0.33369800  0.14852700  0.61862700  1
  Ga  Ga53  1  0.02905300  0.57697400  0.64923000  1
  Ga  Ga54  1  0.61042100  0.70197400  0.58673000  1
  Ga  Ga55  1  0.75233000  0.02352700  0.68112700  1
  Ga  Ga56  1  0.45869800  0.39852700  0.49362700  1
  Ga  Ga57  1  0.15405300  0.82697400  0.52423000  1
  Ga  Ga58  1  0.73542100  0.95197400  0.46173000  1
  Ga  Ga59  1  0.87733000  0.27352700  0.55612700  1
  Ga  Ga60  1  0.58369800  0.64852700  0.36862700  1
  Ga  Ga61  1  0.27905300  0.07697400  0.39923000  1
  Ga  Ga62  1  0.86042100  0.20197400  0.33673000  1
  Ga  Ga63  1  0.00233000  0.52352700  0.43112700  1
  Ga  Ga64  1  0.70869800  0.89852700  0.24362700  1
  Ga  Ga65  1  0.40405300  0.32697400  0.27423000  1
  Ga  Ga66  1  0.98542100  0.45197400  0.21173000  1
  Ga  Ga67  1  0.12733000  0.77352700  0.30612700  1
