# generated using pymatgen
data_Ho22Mg7
_symmetry_space_group_name_H-M   'P 1'
_cell_length_a   3.50036600
_cell_length_b   10.15564508
_cell_length_c   42.96624400
_cell_angle_alpha   83.81776871
_cell_angle_beta   90.00000000
_cell_angle_gamma   90.00000000
_symmetry_Int_Tables_number   1
_chemical_formula_structural   Ho22Mg7
_chemical_formula_sum   'Ho22 Mg7'
_cell_volume   1518.50179629
_cell_formula_units_Z   1
loop_
 _symmetry_equiv_pos_site_id
 _symmetry_equiv_pos_as_xyz
  1  'x, y, z'
loop_
 _atom_site_type_symbol
 _atom_site_label
 _atom_site_symmetry_multiplicity
 _atom_site_fract_x
 _atom_site_fract_y
 _atom_site_fract_z
 _atom_site_occupancy
  Ho  Ho0  1  0.50000000  0.62542300  0.26045200  1
  Ho  Ho1  1  1.00000000  0.48160600  0.20192300  1
  Ho  Ho2  1  0.50000000  0.18394300  0.22031700  1
  Ho  Ho3  1  0.50000000  0.47157600  0.33737500  1
  Ho  Ho4  1  1.00000000  0.32776000  0.27884600  1
  Ho  Ho5  1  0.50000000  0.03009700  0.29724000  1
  Ho  Ho6  1  0.50000000  0.31773000  0.41429800  1
  Ho  Ho7  1  0.00000000  0.17391300  0.35576900  1
  Ho  Ho8  1  0.50000000  0.87625000  0.37416400  1
  Ho  Ho9  1  0.50000000  0.16388400  0.49122100  1
  Ho  Ho10  1  1.00000000  0.02006700  0.43269200  1
  Ho  Ho11  1  0.50000000  0.72240400  0.45108700  1
  Ho  Ho12  1  0.50000000  0.01003800  0.56814400  1
  Ho  Ho13  1  0.00000000  0.86622100  0.50961500  1
  Ho  Ho14  1  0.50000000  0.56855800  0.52801000  1
  Ho  Ho15  1  0.50000000  0.85619200  0.64506700  1
  Ho  Ho16  1  0.00000000  0.71237500  0.58653800  1
  Ho  Ho17  1  0.50000000  0.41471200  0.60493300  1
  Ho  Ho18  1  0.50000000  0.70234600  0.72199000  1
  Ho  Ho19  1  1.00000000  0.55852900  0.66346200  1
  Ho  Ho20  1  0.50000000  0.26086600  0.68185600  1
  Ho  Ho21  1  0.00000000  0.40468300  0.74038500  1
  Mg  Mg22  1  1.00000000  0.90468300  0.24038500  1
  Mg  Mg23  1  0.00000000  0.75083600  0.31730800  1
  Mg  Mg24  1  0.00000000  0.59699000  0.39423100  1
  Mg  Mg25  1  1.00000000  0.44314400  0.47115400  1
  Mg  Mg26  1  0.00000000  0.28929800  0.54807700  1
  Mg  Mg27  1  1.00000000  0.13545200  0.62500000  1
  Mg  Mg28  1  1.00000000  0.98160600  0.70192300  1
