# generated using pymatgen
data_Mg31Pd12
_symmetry_space_group_name_H-M   'P 1'
_cell_length_a   8.83883700
_cell_length_b   8.02302000
_cell_length_c   45.92794300
_cell_angle_alpha   90.00000000
_cell_angle_beta   90.00000000
_cell_angle_gamma   90.00000000
_symmetry_Int_Tables_number   1
_chemical_formula_structural   Mg31Pd12
_chemical_formula_sum   'Mg62 Pd24'
_cell_volume   3256.94177521
_cell_formula_units_Z   2
loop_
 _symmetry_equiv_pos_site_id
 _symmetry_equiv_pos_as_xyz
  1  'x, y, z'
loop_
 _atom_site_type_symbol
 _atom_site_label
 _atom_site_symmetry_multiplicity
 _atom_site_fract_x
 _atom_site_fract_y
 _atom_site_fract_z
 _atom_site_occupancy
  Mg  Mg0  1  0.51949200  0.00000000  0.32738100  1
  Mg  Mg1  1  0.51949200  0.50000000  0.32738100  1
  Mg  Mg2  1  0.73216700  0.93540600  0.46212300  1
  Mg  Mg3  1  0.51949200  0.93540600  0.39123100  1
  Mg  Mg4  1  0.30681700  0.93540600  0.46212300  1
  Mg  Mg5  1  0.80681700  0.06459400  0.35930600  1
  Mg  Mg6  1  0.01949200  0.06459400  0.43019800  1
  Mg  Mg7  1  0.23216700  0.06459400  0.35930600  1
  Mg  Mg8  1  0.80681700  0.43540600  0.35930600  1
  Mg  Mg9  1  0.01949200  0.43540600  0.43019800  1
  Mg  Mg10  1  0.23216700  0.43540600  0.35930600  1
  Mg  Mg11  1  0.73216700  0.56459400  0.46212300  1
  Mg  Mg12  1  0.51949200  0.56459400  0.39123100  1
  Mg  Mg13  1  0.30681700  0.56459400  0.46212300  1
  Mg  Mg14  1  0.21101600  0.75000000  0.40421700  1
  Mg  Mg15  1  0.01949200  0.75000000  0.34037600  1
  Mg  Mg16  1  0.82796800  0.75000000  0.40421700  1
  Mg  Mg17  1  0.32796800  0.25000000  0.41721200  1
  Mg  Mg18  1  0.51949200  0.25000000  0.48105300  1
  Mg  Mg19  1  0.71101600  0.25000000  0.41721200  1
  Mg  Mg20  1  0.01949200  0.00000000  0.49404800  1
  Mg  Mg21  1  0.01949200  0.50000000  0.49404800  1
  Mg  Mg22  1  0.23216700  0.93540600  0.62878900  1
  Mg  Mg23  1  0.01949200  0.93540600  0.55789800  1
  Mg  Mg24  1  0.80681700  0.93540600  0.62878900  1
  Mg  Mg25  1  0.30681700  0.06459400  0.52597300  1
  Mg  Mg26  1  0.51949200  0.06459400  0.59686400  1
  Mg  Mg27  1  0.73216700  0.06459400  0.52597300  1
  Mg  Mg28  1  0.30681700  0.43540600  0.52597300  1
  Mg  Mg29  1  0.51949200  0.43540600  0.59686400  1
  Mg  Mg30  1  0.73216700  0.43540600  0.52597300  1
  Mg  Mg31  1  0.23216700  0.56459400  0.62878900  1
  Mg  Mg32  1  0.01949200  0.56459400  0.55789800  1
  Mg  Mg33  1  0.80681700  0.56459400  0.62878900  1
  Mg  Mg34  1  0.71101600  0.75000000  0.57088400  1
  Mg  Mg35  1  0.51949200  0.75000000  0.50704200  1
  Mg  Mg36  1  0.32796800  0.75000000  0.57088400  1
  Mg  Mg37  1  0.82796800  0.25000000  0.58387800  1
  Mg  Mg38  1  0.01949200  0.25000000  0.64772000  1
  Mg  Mg39  1  0.21101600  0.25000000  0.58387800  1
  Mg  Mg40  1  0.51949200  0.00000000  0.66071400  1
  Mg  Mg41  1  0.51949200  0.50000000  0.66071400  1
  Mg  Mg42  1  0.73216700  0.93540600  0.79545600  1
  Mg  Mg43  1  0.51949200  0.93540600  0.72456400  1
  Mg  Mg44  1  0.30681700  0.93540600  0.79545600  1
  Mg  Mg45  1  0.80681700  0.06459400  0.69263900  1
  Mg  Mg46  1  0.01949200  0.06459400  0.76353100  1
  Mg  Mg47  1  0.23216700  0.06459400  0.69263900  1
  Mg  Mg48  1  0.80681700  0.43540600  0.69263900  1
  Mg  Mg49  1  0.01949200  0.43540600  0.76353100  1
  Mg  Mg50  1  0.23216700  0.43540600  0.69263900  1
  Mg  Mg51  1  0.73216700  0.56459400  0.79545600  1
  Mg  Mg52  1  0.51949200  0.56459400  0.72456400  1
  Mg  Mg53  1  0.30681700  0.56459400  0.79545600  1
  Mg  Mg54  1  0.21101600  0.75000000  0.73755000  1
  Mg  Mg55  1  0.01949200  0.75000000  0.67370900  1
  Mg  Mg56  1  0.82796800  0.75000000  0.73755000  1
  Mg  Mg57  1  0.32796800  0.25000000  0.75054500  1
  Mg  Mg58  1  0.51949200  0.25000000  0.81438600  1
  Mg  Mg59  1  0.71101600  0.25000000  0.75054500  1
  Mg  Mg60  1  0.01949200  0.00000000  0.82738100  1
  Mg  Mg61  1  0.01949200  0.50000000  0.82738100  1
  Pd  Pd62  1  0.70635700  0.75000000  0.34814400  1
  Pd  Pd63  1  0.01949200  0.75000000  0.45252200  1
  Pd  Pd64  1  0.33262700  0.75000000  0.34814400  1
  Pd  Pd65  1  0.83262700  0.25000000  0.47328500  1
  Pd  Pd66  1  0.51949200  0.25000000  0.36890600  1
  Pd  Pd67  1  0.20635700  0.25000000  0.47328500  1
  Pd  Pd68  1  0.51949200  0.75000000  0.43849200  1
  Pd  Pd69  1  0.01949200  0.25000000  0.38293700  1
  Pd  Pd70  1  0.20635700  0.75000000  0.51481000  1
  Pd  Pd71  1  0.51949200  0.75000000  0.61918900  1
  Pd  Pd72  1  0.83262700  0.75000000  0.51481000  1
  Pd  Pd73  1  0.33262700  0.25000000  0.63995200  1
  Pd  Pd74  1  0.01949200  0.25000000  0.53557300  1
  Pd  Pd75  1  0.70635700  0.25000000  0.63995200  1
  Pd  Pd76  1  0.01949200  0.75000000  0.60515900  1
  Pd  Pd77  1  0.51949200  0.25000000  0.54960300  1
  Pd  Pd78  1  0.70635700  0.75000000  0.68147700  1
  Pd  Pd79  1  0.01949200  0.75000000  0.78585500  1
  Pd  Pd80  1  0.33262700  0.75000000  0.68147700  1
  Pd  Pd81  1  0.83262700  0.25000000  0.80661800  1
  Pd  Pd82  1  0.51949200  0.25000000  0.70224000  1
  Pd  Pd83  1  0.20635700  0.25000000  0.80661800  1
  Pd  Pd84  1  0.51949200  0.75000000  0.77182500  1
  Pd  Pd85  1  0.01949200  0.25000000  0.71627000  1
