# generated using pymatgen
data_Mg9Zn16
_symmetry_space_group_name_H-M   'P 1'
_cell_length_a   5.07402237
_cell_length_b   17.20699092
_cell_length_c   54.58155700
_cell_angle_alpha   87.89733091
_cell_angle_beta   92.22235669
_cell_angle_gamma   98.42726965
_symmetry_Int_Tables_number   1
_chemical_formula_structural   Mg9Zn16
_chemical_formula_sum   'Mg54 Zn96'
_cell_volume   4708.12472958
_cell_formula_units_Z   6
loop_
 _symmetry_equiv_pos_site_id
 _symmetry_equiv_pos_as_xyz
  1  'x, y, z'
loop_
 _atom_site_type_symbol
 _atom_site_label
 _atom_site_symmetry_multiplicity
 _atom_site_fract_x
 _atom_site_fract_y
 _atom_site_fract_z
 _atom_site_occupancy
  Mg  Mg0  1  0.46633300  0.41591100  0.35743600  1
  Mg  Mg1  1  0.40475600  0.39965700  0.25611100  1
  Mg  Mg2  1  0.12344000  0.80010300  0.27578000  1
  Mg  Mg3  1  0.91794400  0.32800500  0.34178200  1
  Mg  Mg4  1  0.03979400  0.62206500  0.29887500  1
  Mg  Mg5  1  0.82665100  0.18280500  0.31276400  1
  Mg  Mg6  1  0.54323100  0.59234900  0.33383700  1
  Mg  Mg7  1  0.62115500  0.71070700  0.37876500  1
  Mg  Mg8  1  0.20136300  0.91846100  0.32070900  1
  Mg  Mg9  1  0.38583100  0.30701500  0.30553300  1
  Mg  Mg10  1  0.70480100  0.88874600  0.35567100  1
  Mg  Mg11  1  0.27826200  0.09490000  0.29711000  1
  Mg  Mg12  1  0.33983800  0.11115400  0.39843500  1
  Mg  Mg13  1  0.35876300  0.20379600  0.34901200  1
  Mg  Mg14  1  0.26633300  0.81591100  0.55743600  1
  Mg  Mg15  1  0.20475600  0.79965700  0.45611100  1
  Mg  Mg16  1  0.92344000  0.20010300  0.47578000  1
  Mg  Mg17  1  0.71794400  0.72800500  0.54178200  1
  Mg  Mg18  1  0.76181400  0.90638500  0.45384000  1
  Mg  Mg19  1  0.49776700  0.40987300  0.41853300  1
  Mg  Mg20  1  0.83979400  0.02206500  0.49887500  1
  Mg  Mg21  1  0.62665100  0.58280500  0.51276400  1
  Mg  Mg22  1  0.34323100  0.99234900  0.53383700  1
  Mg  Mg23  1  0.78278100  0.00442600  0.40070600  1
  Mg  Mg24  1  0.42115500  0.11070700  0.57876500  1
  Mg  Mg25  1  0.00136300  0.31846100  0.52070900  1
  Mg  Mg26  1  0.18583100  0.70701500  0.50553300  1
  Mg  Mg27  1  0.41728100  0.23206400  0.44118800  1
  Mg  Mg28  1  0.12731300  0.67874700  0.41335800  1
  Mg  Mg29  1  0.50480100  0.28874600  0.55567100  1
  Mg  Mg30  1  0.07826200  0.49490000  0.49711000  1
  Mg  Mg31  1  0.04682800  0.50093800  0.43601200  1
  Mg  Mg32  1  0.13983800  0.51115400  0.59843500  1
  Mg  Mg33  1  0.15876300  0.60379600  0.54901200  1
  Mg  Mg34  1  0.06633300  0.21591100  0.75743600  1
  Mg  Mg35  1  0.00475600  0.19965700  0.65611100  1
  Mg  Mg36  1  0.72344000  0.60010300  0.67578000  1
  Mg  Mg37  1  0.51794400  0.12800500  0.74178200  1
  Mg  Mg38  1  0.56181400  0.30638500  0.65384000  1
  Mg  Mg39  1  0.29776700  0.80987300  0.61853300  1
  Mg  Mg40  1  0.63979400  0.42206500  0.69887500  1
  Mg  Mg41  1  0.42665100  0.98280500  0.71276400  1
  Mg  Mg42  1  0.14323100  0.39234900  0.73383700  1
  Mg  Mg43  1  0.58278100  0.40442600  0.60070600  1
  Mg  Mg44  1  0.22115500  0.51070700  0.77876500  1
  Mg  Mg45  1  0.80136300  0.71846100  0.72070900  1
  Mg  Mg46  1  0.98583100  0.10701500  0.70553300  1
  Mg  Mg47  1  0.21728100  0.63206400  0.64118800  1
  Mg  Mg48  1  0.92731300  0.07874700  0.61335800  1
  Mg  Mg49  1  0.30480100  0.68874600  0.75567100  1
  Mg  Mg50  1  0.87826200  0.89490000  0.69711000  1
  Mg  Mg51  1  0.84682800  0.90093800  0.63601200  1
  Mg  Mg52  1  0.93983800  0.91115400  0.79843500  1
  Mg  Mg53  1  0.95876300  0.00379600  0.74901200  1
  Zn  Zn54  1  0.49497600  0.56034900  0.27589000  1
  Zn  Zn55  1  0.89736300  0.35067000  0.28359900  1
  Zn  Zn56  1  0.08916300  0.65225900  0.35712500  1
  Zn  Zn57  1  0.52860800  0.04852600  0.34798900  1
  Zn  Zn58  1  0.71144300  0.46138000  0.30549400  1
  Zn  Zn59  1  0.87229700  0.75540500  0.32727300  1
  Zn  Zn60  1  0.24961800  0.95046100  0.37865600  1
  Zn  Zn61  1  0.79473100  0.54837000  0.38599300  1
  Zn  Zn62  1  0.98113900  0.41396300  0.38815000  1
  Zn  Zn63  1  0.58055100  0.71038900  0.28796400  1
  Zn  Zn64  1  0.84723200  0.16014100  0.37094700  1
  Zn  Zn65  1  0.17503000  0.28029300  0.38954500  1
  Zn  Zn66  1  0.03315200  0.04943100  0.34905100  1
  Zn  Zn67  1  0.16404400  0.80042100  0.36658100  1
  Zn  Zn68  1  0.56956500  0.23051800  0.26500100  1
  Zn  Zn69  1  0.37229700  0.75540500  0.32727300  1
  Zn  Zn70  1  0.00070200  0.50583300  0.34475500  1
  Zn  Zn71  1  0.29914000  0.54865700  0.38639900  1
  Zn  Zn72  1  0.66120100  0.28032700  0.38865300  1
  Zn  Zn73  1  0.74389300  0.00497800  0.30979000  1
  Zn  Zn74  1  0.08339300  0.23048400  0.26589300  1
  Zn  Zn75  1  0.44545400  0.96215400  0.26814600  1
  Zn  Zn76  1  0.21598700  0.46228400  0.30655700  1
  Zn  Zn77  1  0.94986300  0.96244100  0.26855200  1
  Zn  Zn78  1  0.76345500  0.09684800  0.26639600  1
  Zn  Zn79  1  0.65543200  0.85855200  0.29742000  1
  Zn  Zn80  1  0.29497600  0.96034900  0.47589000  1
  Zn  Zn81  1  0.69736300  0.75067000  0.48359900  1
  Zn  Zn82  1  0.88916300  0.05225900  0.55712500  1
  Zn  Zn83  1  0.32860800  0.44852600  0.54798900  1
  Zn  Zn84  1  0.94853200  0.83792100  0.40691300  1
  Zn  Zn85  1  0.51144300  0.86138000  0.50549400  1
  Zn  Zn86  1  0.67229700  0.15540500  0.52727300  1
  Zn  Zn87  1  0.04961800  0.35046100  0.57865600  1
  Zn  Zn88  1  0.58803200  0.58767500  0.42486000  1
  Zn  Zn89  1  0.08978800  0.07310900  0.44768600  1
  Zn  Zn90  1  0.59473100  0.94837000  0.58599300  1
  Zn  Zn91  1  0.78113900  0.81396300  0.58815000  1
  Zn  Zn92  1  0.38055100  0.11038900  0.48796400  1
  Zn  Zn93  1  0.88163600  0.17130400  0.41903400  1
  Zn  Zn94  1  0.64723200  0.56014100  0.57094700  1
  Zn  Zn95  1  0.95656300  0.32313600  0.42968500  1
  Zn  Zn96  1  0.97503000  0.68029300  0.58954500  1
  Zn  Zn97  1  0.45480600  0.83770200  0.40686000  1
  Zn  Zn98  1  0.83315200  0.44943100  0.54905100  1
  Zn  Zn99  1  0.96404400  0.20042100  0.56658100  1
  Zn  Zn100  1  0.36956500  0.63051800  0.46500100  1
  Zn  Zn101  1  0.59606300  0.07289000  0.44763300  1
  Zn  Zn102  1  0.17229700  0.15540500  0.52727300  1
  Zn  Zn103  1  0.80070200  0.90583300  0.54475500  1
  Zn  Zn104  1  0.09914000  0.94865700  0.58639900  1
  Zn  Zn105  1  0.46120100  0.68032700  0.58865300  1
  Zn  Zn106  1  0.54389300  0.40497800  0.50979000  1
  Zn  Zn107  1  0.88339300  0.63048400  0.46589300  1
  Zn  Zn108  1  0.66295900  0.73950700  0.43551200  1
  Zn  Zn109  1  0.24545400  0.36215400  0.46814600  1
  Zn  Zn110  1  0.01598700  0.86228400  0.50655700  1
  Zn  Zn111  1  0.27229700  0.95540500  0.42727300  1
  Zn  Zn112  1  0.74986300  0.36244100  0.46855200  1
  Zn  Zn113  1  0.56345500  0.49684800  0.46639600  1
  Zn  Zn114  1  0.45543200  0.25855200  0.49742000  1
  Zn  Zn115  1  0.09497600  0.36034900  0.67589000  1
  Zn  Zn116  1  0.49736300  0.15067000  0.68359900  1
  Zn  Zn117  1  0.68916300  0.45225900  0.75712500  1
  Zn  Zn118  1  0.12860800  0.84852600  0.74798900  1
  Zn  Zn119  1  0.74853200  0.23792100  0.60691300  1
  Zn  Zn120  1  0.31144300  0.26138000  0.70549400  1
  Zn  Zn121  1  0.47229700  0.55540500  0.72727300  1
  Zn  Zn122  1  0.84961800  0.75046100  0.77865600  1
  Zn  Zn123  1  0.38803200  0.98767500  0.62486000  1
  Zn  Zn124  1  0.88978800  0.47310900  0.64768600  1
  Zn  Zn125  1  0.39473100  0.34837000  0.78599300  1
  Zn  Zn126  1  0.58113900  0.21396300  0.78815000  1
  Zn  Zn127  1  0.18055100  0.51038900  0.68796400  1
  Zn  Zn128  1  0.68163600  0.57130400  0.61903400  1
  Zn  Zn129  1  0.44723200  0.96014100  0.77094700  1
  Zn  Zn130  1  0.75656300  0.72313600  0.62968500  1
  Zn  Zn131  1  0.77503000  0.08029300  0.78954500  1
  Zn  Zn132  1  0.25480600  0.23770200  0.60686000  1
  Zn  Zn133  1  0.63315200  0.84943100  0.74905100  1
  Zn  Zn134  1  0.76404400  0.60042100  0.76658100  1
  Zn  Zn135  1  0.16956500  0.03051800  0.66500100  1
  Zn  Zn136  1  0.39606300  0.47289000  0.64763300  1
  Zn  Zn137  1  0.97229700  0.55540500  0.72727300  1
  Zn  Zn138  1  0.60070200  0.30583300  0.74475500  1
  Zn  Zn139  1  0.89914000  0.34865700  0.78639900  1
  Zn  Zn140  1  0.26120100  0.08032700  0.78865300  1
  Zn  Zn141  1  0.34389300  0.80497800  0.70979000  1
  Zn  Zn142  1  0.68339300  0.03048400  0.66589300  1
  Zn  Zn143  1  0.46295900  0.13950700  0.63551200  1
  Zn  Zn144  1  0.04545400  0.76215400  0.66814600  1
  Zn  Zn145  1  0.81598700  0.26228400  0.70655700  1
  Zn  Zn146  1  0.07229700  0.35540500  0.62727300  1
  Zn  Zn147  1  0.54986300  0.76244100  0.66855200  1
  Zn  Zn148  1  0.36345500  0.89684800  0.66639600  1
  Zn  Zn149  1  0.25543200  0.65855200  0.69742000  1
