# generated using pymatgen
data_Mg10Ir19
_symmetry_space_group_name_H-M   'P 1'
_cell_length_a   8.45815400
_cell_length_b   9.02422000
_cell_length_c   41.68108900
_cell_angle_alpha   90.00000000
_cell_angle_beta   90.00000000
_cell_angle_gamma   90.00000000
_symmetry_Int_Tables_number   1
_chemical_formula_structural   Mg10Ir19
_chemical_formula_sum   'Mg40 Ir76'
_cell_volume   3181.44426843
_cell_formula_units_Z   4
loop_
 _symmetry_equiv_pos_site_id
 _symmetry_equiv_pos_as_xyz
  1  'x, y, z'
loop_
 _atom_site_type_symbol
 _atom_site_label
 _atom_site_symmetry_multiplicity
 _atom_site_fract_x
 _atom_site_fract_y
 _atom_site_fract_z
 _atom_site_occupancy
  Mg  Mg0  1  0.43096200  0.28784100  0.22916700  1
  Mg  Mg1  1  0.93096200  0.95450800  0.22916700  1
  Mg  Mg2  1  0.56903800  0.95450800  0.22916700  1
  Mg  Mg3  1  0.06903800  0.28784100  0.22916700  1
  Mg  Mg4  1  0.43096200  0.78784100  0.29166700  1
  Mg  Mg5  1  0.93096200  0.45450800  0.29166700  1
  Mg  Mg6  1  0.56903800  0.45450800  0.29166700  1
  Mg  Mg7  1  0.06903800  0.78784100  0.29166700  1
  Mg  Mg8  1  0.43096200  0.28784100  0.35416700  1
  Mg  Mg9  1  0.93096200  0.95450800  0.35416700  1
  Mg  Mg10  1  0.56903800  0.95450800  0.35416700  1
  Mg  Mg11  1  0.06903800  0.28784100  0.35416700  1
  Mg  Mg12  1  0.43096200  0.78784100  0.41666700  1
  Mg  Mg13  1  0.93096200  0.45450800  0.41666700  1
  Mg  Mg14  1  0.56903800  0.45450800  0.41666700  1
  Mg  Mg15  1  0.06903800  0.78784100  0.41666700  1
  Mg  Mg16  1  0.43096200  0.28784100  0.47916700  1
  Mg  Mg17  1  0.93096200  0.95450800  0.47916700  1
  Mg  Mg18  1  0.56903800  0.95450800  0.47916700  1
  Mg  Mg19  1  0.06903800  0.28784100  0.47916700  1
  Mg  Mg20  1  0.43096200  0.78784100  0.54166700  1
  Mg  Mg21  1  0.93096200  0.45450800  0.54166700  1
  Mg  Mg22  1  0.56903800  0.45450800  0.54166700  1
  Mg  Mg23  1  0.06903800  0.78784100  0.54166700  1
  Mg  Mg24  1  0.43096200  0.28784100  0.60416700  1
  Mg  Mg25  1  0.93096200  0.95450800  0.60416700  1
  Mg  Mg26  1  0.56903800  0.95450800  0.60416700  1
  Mg  Mg27  1  0.06903800  0.28784100  0.60416700  1
  Mg  Mg28  1  0.43096200  0.78784100  0.66666700  1
  Mg  Mg29  1  0.93096200  0.45450800  0.66666700  1
  Mg  Mg30  1  0.56903800  0.45450800  0.66666700  1
  Mg  Mg31  1  0.06903800  0.78784100  0.66666700  1
  Mg  Mg32  1  0.43096200  0.28784100  0.72916700  1
  Mg  Mg33  1  0.93096200  0.95450800  0.72916700  1
  Mg  Mg34  1  0.56903800  0.95450800  0.72916700  1
  Mg  Mg35  1  0.06903800  0.28784100  0.72916700  1
  Mg  Mg36  1  0.43096200  0.78784100  0.79166700  1
  Mg  Mg37  1  0.93096200  0.45450800  0.79166700  1
  Mg  Mg38  1  0.56903800  0.45450800  0.79166700  1
  Mg  Mg39  1  0.06903800  0.78784100  0.79166700  1
  Ir  Ir40  1  0.50000000  0.62117400  0.22916700  1
  Ir  Ir41  1  0.00000000  0.62117400  0.22916700  1
  Ir  Ir42  1  0.75000000  0.44940700  0.22916700  1
  Ir  Ir43  1  0.25000000  0.79294200  0.22916700  1
  Ir  Ir44  1  0.50000000  0.12117400  0.29166700  1
  Ir  Ir45  1  0.00000000  0.12117400  0.29166700  1
  Ir  Ir46  1  0.25000000  0.53529100  0.26137300  1
  Ir  Ir47  1  0.75000000  0.70705800  0.26137300  1
  Ir  Ir48  1  0.75000000  0.94940700  0.29166700  1
  Ir  Ir49  1  0.25000000  0.29294200  0.29166700  1
  Ir  Ir50  1  0.25000000  0.03529100  0.25946000  1
  Ir  Ir51  1  0.75000000  0.20705800  0.25946000  1
  Ir  Ir52  1  0.50000000  0.62117400  0.35416700  1
  Ir  Ir53  1  0.00000000  0.62117400  0.35416700  1
  Ir  Ir54  1  0.25000000  0.03529100  0.32387300  1
  Ir  Ir55  1  0.75000000  0.20705800  0.32387300  1
  Ir  Ir56  1  0.75000000  0.44940700  0.35416700  1
  Ir  Ir57  1  0.25000000  0.79294200  0.35416700  1
  Ir  Ir58  1  0.25000000  0.53529100  0.32196000  1
  Ir  Ir59  1  0.75000000  0.70705800  0.32196000  1
  Ir  Ir60  1  0.50000000  0.12117400  0.41666700  1
  Ir  Ir61  1  0.00000000  0.12117400  0.41666700  1
  Ir  Ir62  1  0.25000000  0.53529100  0.38637300  1
  Ir  Ir63  1  0.75000000  0.70705800  0.38637300  1
  Ir  Ir64  1  0.75000000  0.94940700  0.41666700  1
  Ir  Ir65  1  0.25000000  0.29294200  0.41666700  1
  Ir  Ir66  1  0.25000000  0.03529100  0.38446000  1
  Ir  Ir67  1  0.75000000  0.20705800  0.38446000  1
  Ir  Ir68  1  0.50000000  0.62117400  0.47916700  1
  Ir  Ir69  1  0.00000000  0.62117400  0.47916700  1
  Ir  Ir70  1  0.25000000  0.03529100  0.44887300  1
  Ir  Ir71  1  0.75000000  0.20705800  0.44887300  1
  Ir  Ir72  1  0.75000000  0.44940700  0.47916700  1
  Ir  Ir73  1  0.25000000  0.79294200  0.47916700  1
  Ir  Ir74  1  0.25000000  0.53529100  0.44696000  1
  Ir  Ir75  1  0.75000000  0.70705800  0.44696000  1
  Ir  Ir76  1  0.50000000  0.12117400  0.54166700  1
  Ir  Ir77  1  0.00000000  0.12117400  0.54166700  1
  Ir  Ir78  1  0.25000000  0.53529100  0.51137300  1
  Ir  Ir79  1  0.75000000  0.70705800  0.51137300  1
  Ir  Ir80  1  0.75000000  0.94940700  0.54166700  1
  Ir  Ir81  1  0.25000000  0.29294200  0.54166700  1
  Ir  Ir82  1  0.25000000  0.03529100  0.50946000  1
  Ir  Ir83  1  0.75000000  0.20705800  0.50946000  1
  Ir  Ir84  1  0.50000000  0.62117400  0.60416700  1
  Ir  Ir85  1  0.00000000  0.62117400  0.60416700  1
  Ir  Ir86  1  0.25000000  0.03529100  0.57387300  1
  Ir  Ir87  1  0.75000000  0.20705800  0.57387300  1
  Ir  Ir88  1  0.75000000  0.44940700  0.60416700  1
  Ir  Ir89  1  0.25000000  0.79294200  0.60416700  1
  Ir  Ir90  1  0.25000000  0.53529100  0.57196000  1
  Ir  Ir91  1  0.75000000  0.70705800  0.57196000  1
  Ir  Ir92  1  0.50000000  0.12117400  0.66666700  1
  Ir  Ir93  1  0.00000000  0.12117400  0.66666700  1
  Ir  Ir94  1  0.25000000  0.53529100  0.63637300  1
  Ir  Ir95  1  0.75000000  0.70705800  0.63637300  1
  Ir  Ir96  1  0.75000000  0.94940700  0.66666700  1
  Ir  Ir97  1  0.25000000  0.29294200  0.66666700  1
  Ir  Ir98  1  0.25000000  0.03529100  0.63446000  1
  Ir  Ir99  1  0.75000000  0.20705800  0.63446000  1
  Ir  Ir100  1  0.50000000  0.62117400  0.72916700  1
  Ir  Ir101  1  0.00000000  0.62117400  0.72916700  1
  Ir  Ir102  1  0.25000000  0.03529100  0.69887300  1
  Ir  Ir103  1  0.75000000  0.20705800  0.69887300  1
  Ir  Ir104  1  0.75000000  0.44940700  0.72916700  1
  Ir  Ir105  1  0.25000000  0.79294200  0.72916700  1
  Ir  Ir106  1  0.25000000  0.53529100  0.69696000  1
  Ir  Ir107  1  0.75000000  0.70705800  0.69696000  1
  Ir  Ir108  1  0.50000000  0.12117400  0.79166700  1
  Ir  Ir109  1  0.00000000  0.12117400  0.79166700  1
  Ir  Ir110  1  0.25000000  0.53529100  0.76137300  1
  Ir  Ir111  1  0.75000000  0.70705800  0.76137300  1
  Ir  Ir112  1  0.75000000  0.94940700  0.79166700  1
  Ir  Ir113  1  0.25000000  0.29294200  0.79166700  1
  Ir  Ir114  1  0.25000000  0.03529100  0.75946000  1
  Ir  Ir115  1  0.75000000  0.20705800  0.75946000  1
