# generated using pymatgen
data_Tb24Mg43
_symmetry_space_group_name_H-M   'P 1'
_cell_length_a   6.08248400
_cell_length_b   11.52336530
_cell_length_c   46.46507000
_cell_angle_alpha   93.25447367
_cell_angle_beta   90.00000000
_cell_angle_gamma   74.69723465
_symmetry_Int_Tables_number   1
_chemical_formula_structural   Tb24Mg43
_chemical_formula_sum   'Tb24 Mg43'
_cell_volume   3135.85303789
_cell_formula_units_Z   1
loop_
 _symmetry_equiv_pos_site_id
 _symmetry_equiv_pos_as_xyz
  1  'x, y, z'
loop_
 _atom_site_type_symbol
 _atom_site_label
 _atom_site_symmetry_multiplicity
 _atom_site_fract_x
 _atom_site_fract_y
 _atom_site_fract_z
 _atom_site_occupancy
  Tb  Tb0  1  0.30320300  0.54755600  0.20209500  1
  Tb  Tb1  1  0.56987000  0.01422300  0.21876200  1
  Tb  Tb2  1  0.41996700  0.31402900  0.25623800  1
  Tb  Tb3  1  0.15330000  0.84736200  0.23957100  1
  Tb  Tb4  1  0.90320300  0.34755600  0.30209500  1
  Tb  Tb5  1  0.16987000  0.81422300  0.31876200  1
  Tb  Tb6  1  0.01996700  0.11402900  0.35623800  1
  Tb  Tb7  1  0.75330000  0.64736200  0.33957100  1
  Tb  Tb8  1  0.50320300  0.14755600  0.40209500  1
  Tb  Tb9  1  0.76987000  0.61422300  0.41876200  1
  Tb  Tb10  1  0.61996700  0.91402900  0.45623800  1
  Tb  Tb11  1  0.35330000  0.44736200  0.43957100  1
  Tb  Tb12  1  0.10320300  0.94755600  0.50209500  1
  Tb  Tb13  1  0.36987000  0.41422300  0.51876200  1
  Tb  Tb14  1  0.21996700  0.71402900  0.55623800  1
  Tb  Tb15  1  0.95330000  0.24736200  0.53957100  1
  Tb  Tb16  1  0.70320300  0.74755600  0.60209500  1
  Tb  Tb17  1  0.96987000  0.21422300  0.61876200  1
  Tb  Tb18  1  0.81996700  0.51402900  0.65623800  1
  Tb  Tb19  1  0.55330000  0.04736200  0.63957100  1
  Tb  Tb20  1  0.30320300  0.54755600  0.70209500  1
  Tb  Tb21  1  0.56987000  0.01422300  0.71876200  1
  Tb  Tb22  1  0.41996700  0.31402900  0.75623800  1
  Tb  Tb23  1  0.15330000  0.84736200  0.73957100  1
  Mg  Mg24  1  0.86158500  0.43079200  0.22916700  1
  Mg  Mg25  1  0.66158500  0.83079200  0.27916700  1
  Mg  Mg26  1  0.72731200  0.69933800  0.21989400  1
  Mg  Mg27  1  0.28740200  0.06506500  0.28703000  1
  Mg  Mg28  1  0.80149500  0.06506500  0.28703000  1
  Mg  Mg29  1  0.52167500  0.59652000  0.27130300  1
  Mg  Mg30  1  0.03576700  0.59652000  0.27130300  1
  Mg  Mg31  1  0.99585800  0.16224700  0.23844000  1
  Mg  Mg32  1  0.46158500  0.23079200  0.32916700  1
  Mg  Mg33  1  0.26158500  0.63079200  0.37916700  1
  Mg  Mg34  1  0.32731200  0.49933800  0.31989400  1
  Mg  Mg35  1  0.88740200  0.86506500  0.38703000  1
  Mg  Mg36  1  0.40149500  0.86506500  0.38703000  1
  Mg  Mg37  1  0.12167500  0.39652000  0.37130300  1
  Mg  Mg38  1  0.63576700  0.39652000  0.37130300  1
  Mg  Mg39  1  0.59585800  0.96224700  0.33844000  1
  Mg  Mg40  1  0.06158500  0.03079200  0.42916700  1
  Mg  Mg41  1  0.86158500  0.43079200  0.47916700  1
  Mg  Mg42  1  0.92731200  0.29933800  0.41989400  1
  Mg  Mg43  1  0.48740200  0.66506500  0.48703000  1
  Mg  Mg44  1  0.00149500  0.66506500  0.48703000  1
  Mg  Mg45  1  0.72167500  0.19652000  0.47130300  1
  Mg  Mg46  1  0.23576700  0.19652000  0.47130300  1
  Mg  Mg47  1  0.19585800  0.76224700  0.43844000  1
  Mg  Mg48  1  0.66158500  0.83079200  0.52916700  1
  Mg  Mg49  1  0.46158500  0.23079200  0.57916700  1
  Mg  Mg50  1  0.52731200  0.09933800  0.51989400  1
  Mg  Mg51  1  0.08740200  0.46506500  0.58703000  1
  Mg  Mg52  1  0.60149500  0.46506500  0.58703000  1
  Mg  Mg53  1  0.32167500  0.99652000  0.57130300  1
  Mg  Mg54  1  0.83576700  0.99652000  0.57130300  1
  Mg  Mg55  1  0.79585800  0.56224700  0.53844000  1
  Mg  Mg56  1  0.26158500  0.63079200  0.62916700  1
  Mg  Mg57  1  0.06158500  0.03079200  0.67916700  1
  Mg  Mg58  1  0.12731200  0.89933800  0.61989400  1
  Mg  Mg59  1  0.68740200  0.26506500  0.68703000  1
  Mg  Mg60  1  0.20149500  0.26506500  0.68703000  1
  Mg  Mg61  1  0.92167500  0.79652000  0.67130300  1
  Mg  Mg62  1  0.43576700  0.79652000  0.67130300  1
  Mg  Mg63  1  0.39585800  0.36224700  0.63844000  1
  Mg  Mg64  1  0.86158500  0.43079200  0.72916700  1
  Mg  Mg65  1  0.72731200  0.69933800  0.71989400  1
  Mg  Mg66  1  0.99585800  0.16224700  0.73844000  1
