# generated using pymatgen
data_MgCd3
_symmetry_space_group_name_H-M   'P 1'
_cell_length_a   6.29994100
_cell_length_b   8.11902589
_cell_length_c   44.89839300
_cell_angle_alpha   93.33807398
_cell_angle_beta   90.00000000
_cell_angle_gamma   67.17150525
_symmetry_Int_Tables_number   1
_chemical_formula_structural   MgCd3
_chemical_formula_sum   'Mg14 Cd42'
_cell_volume   2112.41086475
_cell_formula_units_Z   14
loop_
 _symmetry_equiv_pos_site_id
 _symmetry_equiv_pos_as_xyz
  1  'x, y, z'
loop_
 _atom_site_type_symbol
 _atom_site_label
 _atom_site_symmetry_multiplicity
 _atom_site_fract_x
 _atom_site_fract_y
 _atom_site_fract_z
 _atom_site_occupancy
  Mg  Mg0  1  0.52083300  0.95833300  0.25694400  1
  Mg  Mg1  1  0.22916700  0.54166700  0.24305600  1
  Mg  Mg2  1  0.27083300  0.45833300  0.34027800  1
  Mg  Mg3  1  0.97916700  0.04166700  0.32638900  1
  Mg  Mg4  1  0.02083300  0.95833300  0.42361100  1
  Mg  Mg5  1  0.72916700  0.54166700  0.40972200  1
  Mg  Mg6  1  0.77083300  0.45833300  0.50694400  1
  Mg  Mg7  1  0.47916700  0.04166700  0.49305600  1
  Mg  Mg8  1  0.52083300  0.95833300  0.59027800  1
  Mg  Mg9  1  0.22916700  0.54166700  0.57638900  1
  Mg  Mg10  1  0.27083300  0.45833300  0.67361100  1
  Mg  Mg11  1  0.97916700  0.04166700  0.65972200  1
  Mg  Mg12  1  0.02083300  0.95833300  0.75694400  1
  Mg  Mg13  1  0.72916700  0.54166700  0.74305600  1
  Cd  Cd14  1  0.14610200  0.20844100  0.21526000  1
  Cd  Cd15  1  0.60389800  0.29155900  0.28474000  1
  Cd  Cd16  1  0.10454200  0.29155900  0.28474000  1
  Cd  Cd17  1  0.02094100  0.95811900  0.25698000  1
  Cd  Cd18  1  0.64545800  0.20844100  0.21526000  1
  Cd  Cd19  1  0.72905900  0.54188100  0.24302000  1
  Cd  Cd20  1  0.89610200  0.70844100  0.29859300  1
  Cd  Cd21  1  0.35389800  0.79155900  0.36807300  1
  Cd  Cd22  1  0.85454200  0.79155900  0.36807300  1
  Cd  Cd23  1  0.77094100  0.45811900  0.34031400  1
  Cd  Cd24  1  0.39545800  0.70844100  0.29859300  1
  Cd  Cd25  1  0.47905900  0.04188100  0.32635300  1
  Cd  Cd26  1  0.64610200  0.20844100  0.38192700  1
  Cd  Cd27  1  0.10389800  0.29155900  0.45140700  1
  Cd  Cd28  1  0.60454200  0.29155900  0.45140700  1
  Cd  Cd29  1  0.52094100  0.95811900  0.42364700  1
  Cd  Cd30  1  0.14545800  0.20844100  0.38192700  1
  Cd  Cd31  1  0.22905900  0.54188100  0.40968600  1
  Cd  Cd32  1  0.39610200  0.70844100  0.46526000  1
  Cd  Cd33  1  0.85389800  0.79155900  0.53474000  1
  Cd  Cd34  1  0.35454200  0.79155900  0.53474000  1
  Cd  Cd35  1  0.27094100  0.45811900  0.50698000  1
  Cd  Cd36  1  0.89545800  0.70844100  0.46526000  1
  Cd  Cd37  1  0.97905900  0.04188100  0.49302000  1
  Cd  Cd38  1  0.14610200  0.20844100  0.54859300  1
  Cd  Cd39  1  0.60389800  0.29155900  0.61807300  1
  Cd  Cd40  1  0.10454200  0.29155900  0.61807300  1
  Cd  Cd41  1  0.02094100  0.95811900  0.59031400  1
  Cd  Cd42  1  0.64545800  0.20844100  0.54859300  1
  Cd  Cd43  1  0.72905900  0.54188100  0.57635300  1
  Cd  Cd44  1  0.89610200  0.70844100  0.63192700  1
  Cd  Cd45  1  0.35389800  0.79155900  0.70140700  1
  Cd  Cd46  1  0.85454200  0.79155900  0.70140700  1
  Cd  Cd47  1  0.77094100  0.45811900  0.67364700  1
  Cd  Cd48  1  0.39545800  0.70844100  0.63192700  1
  Cd  Cd49  1  0.47905900  0.04188100  0.65968600  1
  Cd  Cd50  1  0.64610200  0.20844100  0.71526000  1
  Cd  Cd51  1  0.10389800  0.29155900  0.78474000  1
  Cd  Cd52  1  0.60454200  0.29155900  0.78474000  1
  Cd  Cd53  1  0.52094100  0.95811900  0.75698000  1
  Cd  Cd54  1  0.14545800  0.20844100  0.71526000  1
  Cd  Cd55  1  0.22905900  0.54188100  0.74302000  1
