# generated using pymatgen
data_Mg5Rh2
_symmetry_space_group_name_H-M   'P 1'
_cell_length_a   8.03467500
_cell_length_b   14.96547200
_cell_length_c   43.20159700
_cell_angle_alpha   90.00000000
_cell_angle_beta   90.00000000
_cell_angle_gamma   90.00000000
_symmetry_Int_Tables_number   1
_chemical_formula_structural   Mg5Rh2
_chemical_formula_sum   'Mg120 Rh48'
_cell_volume   5194.67682923
_cell_formula_units_Z   24
loop_
 _symmetry_equiv_pos_site_id
 _symmetry_equiv_pos_as_xyz
  1  'x, y, z'
loop_
 _atom_site_type_symbol
 _atom_site_label
 _atom_site_symmetry_multiplicity
 _atom_site_fract_x
 _atom_site_fract_y
 _atom_site_fract_z
 _atom_site_occupancy
  Mg  Mg0  1  0.50000000  0.75000000  0.25000000  1
  Mg  Mg1  1  1.00000000  0.75000000  0.25000000  1
  Mg  Mg2  1  0.25000000  0.47988300  0.21207000  1
  Mg  Mg3  1  0.75000000  0.02011700  0.21207000  1
  Mg  Mg4  1  0.75000000  0.20976700  0.25000000  1
  Mg  Mg5  1  0.25000000  0.29023300  0.25000000  1
  Mg  Mg6  1  0.25000000  0.47988300  0.28793000  1
  Mg  Mg7  1  0.75000000  0.02011700  0.28793000  1
  Mg  Mg8  1  0.56451600  0.34564900  0.29261000  1
  Mg  Mg9  1  0.06451600  0.15435100  0.29261000  1
  Mg  Mg10  1  0.06451600  0.94129900  0.25000000  1
  Mg  Mg11  1  0.56451600  0.55870100  0.25000000  1
  Mg  Mg12  1  0.56451600  0.34564900  0.20739000  1
  Mg  Mg13  1  0.43548400  0.15435100  0.20739000  1
  Mg  Mg14  1  0.43548400  0.15435100  0.29261000  1
  Mg  Mg15  1  0.06451600  0.15435100  0.20739000  1
  Mg  Mg16  1  0.43548400  0.94129900  0.25000000  1
  Mg  Mg17  1  0.93548400  0.55870100  0.25000000  1
  Mg  Mg18  1  0.93548400  0.34564900  0.29261000  1
  Mg  Mg19  1  0.93548400  0.34564900  0.20739000  1
  Mg  Mg20  1  0.50000000  0.25000000  0.35000000  1
  Mg  Mg21  1  1.00000000  0.25000000  0.35000000  1
  Mg  Mg22  1  0.25000000  0.97988300  0.31207000  1
  Mg  Mg23  1  0.75000000  0.52011700  0.31207000  1
  Mg  Mg24  1  0.75000000  0.70976700  0.35000000  1
  Mg  Mg25  1  0.25000000  0.79023300  0.35000000  1
  Mg  Mg26  1  0.25000000  0.97988300  0.38793000  1
  Mg  Mg27  1  0.75000000  0.52011700  0.38793000  1
  Mg  Mg28  1  0.56451600  0.84564900  0.39261000  1
  Mg  Mg29  1  0.06451600  0.65435100  0.39261000  1
  Mg  Mg30  1  0.06451600  0.44129900  0.35000000  1
  Mg  Mg31  1  0.56451600  0.05870100  0.35000000  1
  Mg  Mg32  1  0.56451600  0.84564900  0.30739000  1
  Mg  Mg33  1  0.43548400  0.65435100  0.30739000  1
  Mg  Mg34  1  0.43548400  0.65435100  0.39261000  1
  Mg  Mg35  1  0.06451600  0.65435100  0.30739000  1
  Mg  Mg36  1  0.43548400  0.44129900  0.35000000  1
  Mg  Mg37  1  0.93548400  0.05870100  0.35000000  1
  Mg  Mg38  1  0.93548400  0.84564900  0.39261000  1
  Mg  Mg39  1  0.93548400  0.84564900  0.30739000  1
  Mg  Mg40  1  0.50000000  0.75000000  0.45000000  1
  Mg  Mg41  1  0.00000000  0.75000000  0.45000000  1
  Mg  Mg42  1  0.25000000  0.47988300  0.41207000  1
  Mg  Mg43  1  0.75000000  0.02011700  0.41207000  1
  Mg  Mg44  1  0.75000000  0.20976700  0.45000000  1
  Mg  Mg45  1  0.25000000  0.29023300  0.45000000  1
  Mg  Mg46  1  0.25000000  0.47988300  0.48793000  1
  Mg  Mg47  1  0.75000000  0.02011700  0.48793000  1
  Mg  Mg48  1  0.56451600  0.34564900  0.49261000  1
  Mg  Mg49  1  0.06451600  0.15435100  0.49261000  1
  Mg  Mg50  1  0.06451600  0.94129900  0.45000000  1
  Mg  Mg51  1  0.56451600  0.55870100  0.45000000  1
  Mg  Mg52  1  0.56451600  0.34564900  0.40739000  1
  Mg  Mg53  1  0.43548400  0.15435100  0.40739000  1
  Mg  Mg54  1  0.43548400  0.15435100  0.49261000  1
  Mg  Mg55  1  0.06451600  0.15435100  0.40739000  1
  Mg  Mg56  1  0.43548400  0.94129900  0.45000000  1
  Mg  Mg57  1  0.93548400  0.55870100  0.45000000  1
  Mg  Mg58  1  0.93548400  0.34564900  0.49261000  1
  Mg  Mg59  1  0.93548400  0.34564900  0.40739000  1
  Mg  Mg60  1  0.50000000  0.25000000  0.55000000  1
  Mg  Mg61  1  1.00000000  0.25000000  0.55000000  1
  Mg  Mg62  1  0.25000000  0.97988300  0.51207000  1
  Mg  Mg63  1  0.75000000  0.52011700  0.51207000  1
  Mg  Mg64  1  0.75000000  0.70976700  0.55000000  1
  Mg  Mg65  1  0.25000000  0.79023300  0.55000000  1
  Mg  Mg66  1  0.25000000  0.97988300  0.58793000  1
  Mg  Mg67  1  0.75000000  0.52011700  0.58793000  1
  Mg  Mg68  1  0.56451600  0.84564900  0.59261000  1
  Mg  Mg69  1  0.06451600  0.65435100  0.59261000  1
  Mg  Mg70  1  0.06451600  0.44129900  0.55000000  1
  Mg  Mg71  1  0.56451600  0.05870100  0.55000000  1
  Mg  Mg72  1  0.56451600  0.84564900  0.50739000  1
  Mg  Mg73  1  0.43548400  0.65435100  0.50739000  1
  Mg  Mg74  1  0.43548400  0.65435100  0.59261000  1
  Mg  Mg75  1  0.06451600  0.65435100  0.50739000  1
  Mg  Mg76  1  0.43548400  0.44129900  0.55000000  1
  Mg  Mg77  1  0.93548400  0.05870100  0.55000000  1
  Mg  Mg78  1  0.93548400  0.84564900  0.59261000  1
  Mg  Mg79  1  0.93548400  0.84564900  0.50739000  1
  Mg  Mg80  1  0.50000000  0.75000000  0.65000000  1
  Mg  Mg81  1  0.00000000  0.75000000  0.65000000  1
  Mg  Mg82  1  0.25000000  0.47988300  0.61207000  1
  Mg  Mg83  1  0.75000000  0.02011700  0.61207000  1
  Mg  Mg84  1  0.75000000  0.20976700  0.65000000  1
  Mg  Mg85  1  0.25000000  0.29023300  0.65000000  1
  Mg  Mg86  1  0.25000000  0.47988300  0.68793000  1
  Mg  Mg87  1  0.75000000  0.02011700  0.68793000  1
  Mg  Mg88  1  0.56451600  0.34564900  0.69261000  1
  Mg  Mg89  1  0.06451600  0.15435100  0.69261000  1
  Mg  Mg90  1  0.06451600  0.94129900  0.65000000  1
  Mg  Mg91  1  0.56451600  0.55870100  0.65000000  1
  Mg  Mg92  1  0.56451600  0.34564900  0.60739000  1
  Mg  Mg93  1  0.43548400  0.15435100  0.60739000  1
  Mg  Mg94  1  0.43548400  0.15435100  0.69261000  1
  Mg  Mg95  1  0.06451600  0.15435100  0.60739000  1
  Mg  Mg96  1  0.43548400  0.94129900  0.65000000  1
  Mg  Mg97  1  0.93548400  0.55870100  0.65000000  1
  Mg  Mg98  1  0.93548400  0.34564900  0.69261000  1
  Mg  Mg99  1  0.93548400  0.34564900  0.60739000  1
  Mg  Mg100  1  0.50000000  0.25000000  0.75000000  1
  Mg  Mg101  1  0.00000000  0.25000000  0.75000000  1
  Mg  Mg102  1  0.25000000  0.97988300  0.71207000  1
  Mg  Mg103  1  0.75000000  0.52011700  0.71207000  1
  Mg  Mg104  1  0.75000000  0.70976700  0.75000000  1
  Mg  Mg105  1  0.25000000  0.79023300  0.75000000  1
  Mg  Mg106  1  0.25000000  0.97988300  0.78793000  1
  Mg  Mg107  1  0.75000000  0.52011700  0.78793000  1
  Mg  Mg108  1  0.56451600  0.84564900  0.79261000  1
  Mg  Mg109  1  0.06451600  0.65435100  0.79261000  1
  Mg  Mg110  1  0.06451600  0.44129900  0.75000000  1
  Mg  Mg111  1  0.56451600  0.05870100  0.75000000  1
  Mg  Mg112  1  0.56451600  0.84564900  0.70739000  1
  Mg  Mg113  1  0.43548400  0.65435100  0.70739000  1
  Mg  Mg114  1  0.43548400  0.65435100  0.79261000  1
  Mg  Mg115  1  0.06451600  0.65435100  0.70739000  1
  Mg  Mg116  1  0.43548400  0.44129900  0.75000000  1
  Mg  Mg117  1  0.93548400  0.05870100  0.75000000  1
  Mg  Mg118  1  0.93548400  0.84564900  0.79261000  1
  Mg  Mg119  1  0.93548400  0.84564900  0.70739000  1
  Rh  Rh120  1  0.75000000  0.41666700  0.25000000  1
  Rh  Rh121  1  0.25000000  0.08333300  0.25000000  1
  Rh  Rh122  1  0.25000000  0.81115200  0.21330900  1
  Rh  Rh123  1  0.75000000  0.68884800  0.21330900  1
  Rh  Rh124  1  0.75000000  0.87230300  0.25000000  1
  Rh  Rh125  1  0.25000000  0.62769700  0.25000000  1
  Rh  Rh126  1  0.25000000  0.81115200  0.28669100  1
  Rh  Rh127  1  0.75000000  0.68884800  0.28669100  1
  Rh  Rh128  1  0.75000000  0.91666700  0.35000000  1
  Rh  Rh129  1  0.25000000  0.58333300  0.35000000  1
  Rh  Rh130  1  0.25000000  0.31115200  0.31330900  1
  Rh  Rh131  1  0.75000000  0.18884800  0.31330900  1
  Rh  Rh132  1  0.75000000  0.37230300  0.35000000  1
  Rh  Rh133  1  0.25000000  0.12769700  0.35000000  1
  Rh  Rh134  1  0.25000000  0.31115200  0.38669100  1
  Rh  Rh135  1  0.75000000  0.18884800  0.38669100  1
  Rh  Rh136  1  0.75000000  0.41666700  0.45000000  1
  Rh  Rh137  1  0.25000000  0.08333300  0.45000000  1
  Rh  Rh138  1  0.25000000  0.81115200  0.41330900  1
  Rh  Rh139  1  0.75000000  0.68884800  0.41330900  1
  Rh  Rh140  1  0.75000000  0.87230300  0.45000000  1
  Rh  Rh141  1  0.25000000  0.62769700  0.45000000  1
  Rh  Rh142  1  0.25000000  0.81115200  0.48669100  1
  Rh  Rh143  1  0.75000000  0.68884800  0.48669100  1
  Rh  Rh144  1  0.75000000  0.91666700  0.55000000  1
  Rh  Rh145  1  0.25000000  0.58333300  0.55000000  1
  Rh  Rh146  1  0.25000000  0.31115200  0.51330900  1
  Rh  Rh147  1  0.75000000  0.18884800  0.51330900  1
  Rh  Rh148  1  0.75000000  0.37230300  0.55000000  1
  Rh  Rh149  1  0.25000000  0.12769700  0.55000000  1
  Rh  Rh150  1  0.25000000  0.31115200  0.58669100  1
  Rh  Rh151  1  0.75000000  0.18884800  0.58669100  1
  Rh  Rh152  1  0.75000000  0.41666700  0.65000000  1
  Rh  Rh153  1  0.25000000  0.08333300  0.65000000  1
  Rh  Rh154  1  0.25000000  0.81115200  0.61330900  1
  Rh  Rh155  1  0.75000000  0.68884800  0.61330900  1
  Rh  Rh156  1  0.75000000  0.87230300  0.65000000  1
  Rh  Rh157  1  0.25000000  0.62769700  0.65000000  1
  Rh  Rh158  1  0.25000000  0.81115200  0.68669100  1
  Rh  Rh159  1  0.75000000  0.68884800  0.68669100  1
  Rh  Rh160  1  0.75000000  0.91666700  0.75000000  1
  Rh  Rh161  1  0.25000000  0.58333300  0.75000000  1
  Rh  Rh162  1  0.25000000  0.31115200  0.71330900  1
  Rh  Rh163  1  0.75000000  0.18884800  0.71330900  1
  Rh  Rh164  1  0.75000000  0.37230300  0.75000000  1
  Rh  Rh165  1  0.25000000  0.12769700  0.75000000  1
  Rh  Rh166  1  0.25000000  0.31115200  0.78669100  1
  Rh  Rh167  1  0.75000000  0.18884800  0.78669100  1
