# generated using pymatgen
data_La16Mg133
_symmetry_space_group_name_H-M   'P 1'
_cell_length_a   10.38875200
_cell_length_b   14.48655120
_cell_length_c   47.03743100
_cell_angle_alpha   91.51171628
_cell_angle_beta   90.00000000
_cell_angle_gamma   68.98788168
_symmetry_Int_Tables_number   1
_chemical_formula_structural   La16Mg133
_chemical_formula_sum   'La16 Mg133'
_cell_volume   6605.64073251
_cell_formula_units_Z   1
loop_
 _symmetry_equiv_pos_site_id
 _symmetry_equiv_pos_as_xyz
  1  'x, y, z'
loop_
 _atom_site_type_symbol
 _atom_site_label
 _atom_site_symmetry_multiplicity
 _atom_site_fract_x
 _atom_site_fract_y
 _atom_site_fract_z
 _atom_site_occupancy
  La  La0  1  0.48879000  0.02242000  0.30325800  1
  La  La1  1  0.20307600  0.59384800  0.27944900  1
  La  La2  1  0.77450400  0.45099100  0.32706800  1
  La  La3  1  0.91736200  0.16527700  0.25563900  1
  La  La4  1  0.20307600  0.59384800  0.44611500  1
  La  La5  1  0.91736200  0.16527700  0.42230600  1
  La  La6  1  0.48879000  0.02242000  0.46992500  1
  La  La7  1  0.63164700  0.73670500  0.39849600  1
  La  La8  1  0.91736200  0.16527700  0.58897200  1
  La  La9  1  0.63164700  0.73670500  0.56516300  1
  La  La10  1  0.20307600  0.59384800  0.61278200  1
  La  La11  1  0.34593300  0.30813400  0.54135300  1
  La  La12  1  0.63164700  0.73670500  0.73183000  1
  La  La13  1  0.34593300  0.30813400  0.70802000  1
  La  La14  1  0.91736200  0.16527700  0.75563900  1
  La  La15  1  0.06021900  0.87956300  0.68421100  1
  Mg  Mg16  1  0.56186700  0.38959800  0.27116400  1
  Mg  Mg17  1  0.90948700  0.18102600  0.34068800  1
  Mg  Mg18  1  0.04853500  0.38959800  0.27116400  1
  Mg  Mg19  1  0.77424800  0.96483500  0.24608400  1
  Mg  Mg20  1  0.10355200  0.79289600  0.32921100  1
  Mg  Mg21  1  0.38926600  0.22146800  0.35302000  1
  Mg  Mg22  1  0.58831400  0.82337200  0.25349600  1
  Mg  Mg23  1  0.30260000  0.39480000  0.22968700  1
  Mg  Mg24  1  0.34593300  0.80813400  0.29135300  1
  Mg  Mg25  1  0.84593300  0.80813400  0.29135300  1
  Mg  Mg26  1  0.34593300  0.30813400  0.29135300  1
  Mg  Mg27  1  0.56425500  0.18006000  0.25071100  1
  Mg  Mg28  1  0.93187700  0.73879000  0.23113500  1
  Mg  Mg29  1  0.54973900  0.60654600  0.27521600  1
  Mg  Mg30  1  0.14212700  0.00972200  0.30749100  1
  Mg  Mg31  1  0.75998900  0.87747800  0.35157200  1
  Mg  Mg32  1  0.43618000  0.43620800  0.33199500  1
  Mg  Mg33  1  0.84371500  0.60654600  0.27521600  1
  Mg  Mg34  1  0.12761100  0.43620800  0.33199500  1
  Mg  Mg35  1  0.32933300  0.73879000  0.23113500  1
  Mg  Mg36  1  0.36253300  0.87747800  0.35157200  1
  Mg  Mg37  1  0.25568600  0.18006000  0.25071100  1
  Mg  Mg38  1  0.84815100  0.00972200  0.30749100  1
  Mg  Mg39  1  0.06428400  0.87143200  0.26328900  1
  Mg  Mg40  1  0.12999900  0.22667000  0.31154300  1
  Mg  Mg41  1  0.64333000  0.22667000  0.31154300  1
  Mg  Mg42  1  0.91761800  0.65143300  0.33662200  1
  Mg  Mg43  1  0.43094900  0.65143300  0.33662200  1
  Mg  Mg44  1  0.62758200  0.74483600  0.31941700  1
  Mg  Mg45  1  0.26091700  0.96483500  0.24608400  1
  Mg  Mg46  1  0.78237900  0.43524300  0.24201900  1
  Mg  Mg47  1  0.27615200  0.96102600  0.41402100  1
  Mg  Mg48  1  0.62377300  0.75245400  0.48354500  1
  Mg  Mg49  1  0.76282100  0.96102600  0.41402100  1
  Mg  Mg50  1  0.48853400  0.53626400  0.38894200  1
  Mg  Mg51  1  0.81783800  0.36432500  0.47206800  1
  Mg  Mg52  1  0.10355200  0.79289600  0.49587700  1
  Mg  Mg53  1  0.30260000  0.39480000  0.39635300  1
  Mg  Mg54  1  0.01688600  0.96622900  0.37254400  1
  Mg  Mg55  1  0.20307600  0.59384800  0.36278200  1
  Mg  Mg56  1  0.70307600  0.09384800  0.36278200  1
  Mg  Mg57  1  0.20307600  0.09384800  0.36278200  1
  Mg  Mg58  1  0.06021900  0.37956300  0.43421100  1
  Mg  Mg59  1  0.56021900  0.37956300  0.43421100  1
  Mg  Mg60  1  0.06021900  0.87956300  0.43421100  1
  Mg  Mg61  1  0.27854000  0.75148800  0.39356900  1
  Mg  Mg62  1  0.64616300  0.31021900  0.37399200  1
  Mg  Mg63  1  0.26402500  0.17797500  0.41807300  1
  Mg  Mg64  1  0.85641300  0.58115000  0.45034800  1
  Mg  Mg65  1  0.47427500  0.44890600  0.49442900  1
  Mg  Mg66  1  0.15046600  0.00763700  0.47485200  1
  Mg  Mg67  1  0.55800000  0.17797500  0.41807300  1
  Mg  Mg68  1  0.84189700  0.00763700  0.47485200  1
  Mg  Mg69  1  0.04361800  0.31021900  0.37399200  1
  Mg  Mg70  1  0.07681900  0.44890600  0.49442900  1
  Mg  Mg71  1  0.96997200  0.75148800  0.39356900  1
  Mg  Mg72  1  0.56243700  0.58115000  0.45034800  1
  Mg  Mg73  1  0.77857000  0.44286000  0.40614600  1
  Mg  Mg74  1  0.84428500  0.79809900  0.45440000  1
  Mg  Mg75  1  0.35761600  0.79809900  0.45440000  1
  Mg  Mg76  1  0.63190400  0.22286100  0.47947900  1
  Mg  Mg77  1  0.14523500  0.22286100  0.47947900  1
  Mg  Mg78  1  0.34186800  0.31626500  0.46227500  1
  Mg  Mg79  1  0.97520200  0.53626400  0.38894200  1
  Mg  Mg80  1  0.49666400  0.00667100  0.38487600  1
  Mg  Mg81  1  0.99043800  0.53245500  0.55687800  1
  Mg  Mg82  1  0.33805900  0.32388300  0.62640200  1
  Mg  Mg83  1  0.47710700  0.53245500  0.55687800  1
  Mg  Mg84  1  0.20281900  0.10769200  0.53179900  1
  Mg  Mg85  1  0.53212300  0.93575400  0.61492500  1
  Mg  Mg86  1  0.81783800  0.36432500  0.63873400  1
  Mg  Mg87  1  0.01688600  0.96622900  0.53921000  1
  Mg  Mg88  1  0.73117100  0.53765700  0.51540100  1
  Mg  Mg89  1  0.91736200  0.16527700  0.50563900  1
  Mg  Mg90  1  0.41736200  0.66527700  0.50563900  1
  Mg  Mg91  1  0.91736200  0.66527700  0.50563900  1
  Mg  Mg92  1  0.77450400  0.95099100  0.57706800  1
  Mg  Mg93  1  0.27450400  0.95099100  0.57706800  1
  Mg  Mg94  1  0.77450400  0.45099100  0.57706800  1
  Mg  Mg95  1  0.99282600  0.32291700  0.53642600  1
  Mg  Mg96  1  0.36044900  0.88164700  0.51684900  1
  Mg  Mg97  1  0.97831000  0.74940400  0.56093000  1
  Mg  Mg98  1  0.57069900  0.15257900  0.59320500  1
  Mg  Mg99  1  0.18856000  0.02033500  0.63728600  1
  Mg  Mg100  1  0.86475200  0.57906500  0.61771000  1
  Mg  Mg101  1  0.27228600  0.74940400  0.56093000  1
  Mg  Mg102  1  0.55618300  0.57906500  0.61771000  1
  Mg  Mg103  1  0.75790400  0.88164700  0.51684900  1
  Mg  Mg104  1  0.79110500  0.02033500  0.63728600  1
  Mg  Mg105  1  0.68425700  0.32291700  0.53642600  1
  Mg  Mg106  1  0.27672300  0.15257900  0.59320500  1
  Mg  Mg107  1  0.49285600  0.01428900  0.54900400  1
  Mg  Mg108  1  0.55857100  0.36952700  0.59725700  1
  Mg  Mg109  1  0.07190200  0.36952700  0.59725700  1
  Mg  Mg110  1  0.34619000  0.79429000  0.62233700  1
  Mg  Mg111  1  0.85952100  0.79429000  0.62233700  1
  Mg  Mg112  1  0.05615300  0.88769300  0.60513200  1
  Mg  Mg113  1  0.68948800  0.10769200  0.53179900  1
  Mg  Mg114  1  0.21095000  0.57810000  0.52773300  1
  Mg  Mg115  1  0.70472400  0.10388400  0.69973500  1
  Mg  Mg116  1  0.05234400  0.89531100  0.76925900  1
  Mg  Mg117  1  0.19139300  0.10388400  0.69973500  1
  Mg  Mg118  1  0.91710500  0.67912100  0.67465600  1
  Mg  Mg119  1  0.24640900  0.50718200  0.75778200  1
  Mg  Mg120  1  0.53212300  0.93575400  0.78159200  1
  Mg  Mg121  1  0.73117100  0.53765700  0.68206800  1
  Mg  Mg122  1  0.44545700  0.10908600  0.65825800  1
  Mg  Mg123  1  0.63164700  0.73670500  0.64849600  1
  Mg  Mg124  1  0.13164700  0.23670500  0.64849600  1
  Mg  Mg125  1  0.63164700  0.23670500  0.64849600  1
  Mg  Mg126  1  0.48879000  0.52242000  0.71992500  1
  Mg  Mg127  1  0.98879000  0.52242000  0.71992500  1
  Mg  Mg128  1  0.48879000  0.02242000  0.71992500  1
  Mg  Mg129  1  0.70711200  0.89434500  0.67928300  1
  Mg  Mg130  1  0.07473400  0.45307600  0.65970600  1
  Mg  Mg131  1  0.69259600  0.32083200  0.70378700  1
  Mg  Mg132  1  0.28498400  0.72400700  0.73606200  1
  Mg  Mg133  1  0.90284600  0.59176400  0.78014400  1
  Mg  Mg134  1  0.57903700  0.15049400  0.76056700  1
  Mg  Mg135  1  0.98657200  0.32083200  0.70378700  1
  Mg  Mg136  1  0.27046900  0.15049400  0.76056700  1
  Mg  Mg137  1  0.47219000  0.45307600  0.65970600  1
  Mg  Mg138  1  0.50539000  0.59176400  0.78014400  1
  Mg  Mg139  1  0.39854300  0.89434500  0.67928300  1
  Mg  Mg140  1  0.99100800  0.72400700  0.73606200  1
  Mg  Mg141  1  0.20714100  0.58571700  0.69186100  1
  Mg  Mg142  1  0.27285600  0.94095600  0.74011500  1
  Mg  Mg143  1  0.78618800  0.94095600  0.74011500  1
  Mg  Mg144  1  0.06047500  0.36571800  0.76519400  1
  Mg  Mg145  1  0.57380600  0.36571800  0.76519400  1
  Mg  Mg146  1  0.77043900  0.45912200  0.74798900  1
  Mg  Mg147  1  0.40377400  0.67912100  0.67465600  1
  Mg  Mg148  1  0.92523600  0.14952800  0.67059000  1
