# generated using pymatgen
data_Mg12Cd23
_symmetry_space_group_name_H-M   'P 1'
_cell_length_a   3.10433600
_cell_length_b   17.22734645
_cell_length_c   49.77638600
_cell_angle_alpha   91.61502969
_cell_angle_beta   90.00000000
_cell_angle_gamma   90.00000000
_symmetry_Int_Tables_number   1
_chemical_formula_structural   Mg12Cd23
_chemical_formula_sum   'Mg24 Cd46'
_cell_volume   2660.95736199
_cell_formula_units_Z   2
loop_
 _symmetry_equiv_pos_site_id
 _symmetry_equiv_pos_as_xyz
  1  'x, y, z'
loop_
 _atom_site_type_symbol
 _atom_site_label
 _atom_site_symmetry_multiplicity
 _atom_site_fract_x
 _atom_site_fract_y
 _atom_site_fract_z
 _atom_site_occupancy
  Mg  Mg0  1  0.00000000  0.95969100  0.26929000  1
  Mg  Mg1  1  0.50000000  0.65691900  0.24737600  1
  Mg  Mg2  1  0.50000000  0.40969100  0.21929000  1
  Mg  Mg3  1  0.00000000  0.20691900  0.29737600  1
  Mg  Mg4  1  0.00000000  0.05969100  0.36929000  1
  Mg  Mg5  1  0.50000000  0.75691900  0.34737600  1
  Mg  Mg6  1  0.50000000  0.50969100  0.31929000  1
  Mg  Mg7  1  0.00000000  0.30691900  0.39737600  1
  Mg  Mg8  1  0.00000000  0.15969100  0.46929000  1
  Mg  Mg9  1  0.50000000  0.85691900  0.44737600  1
  Mg  Mg10  1  0.50000000  0.60969100  0.41929000  1
  Mg  Mg11  1  0.00000000  0.40691900  0.49737600  1
  Mg  Mg12  1  0.00000000  0.25969100  0.56929000  1
  Mg  Mg13  1  0.50000000  0.95691900  0.54737600  1
  Mg  Mg14  1  0.50000000  0.70969100  0.51929000  1
  Mg  Mg15  1  0.00000000  0.50691900  0.59737600  1
  Mg  Mg16  1  0.00000000  0.35969100  0.66929000  1
  Mg  Mg17  1  0.50000000  0.05691900  0.64737600  1
  Mg  Mg18  1  0.50000000  0.80969100  0.61929000  1
  Mg  Mg19  1  0.00000000  0.60691900  0.69737600  1
  Mg  Mg20  1  0.00000000  0.45969100  0.76929000  1
  Mg  Mg21  1  0.50000000  0.15691900  0.74737600  1
  Mg  Mg22  1  0.50000000  0.90969100  0.71929000  1
  Mg  Mg23  1  0.00000000  0.70691900  0.79737600  1
  Cd  Cd24  1  0.50000000  0.80964300  0.28596200  1
  Cd  Cd25  1  0.00000000  0.80696700  0.23070400  1
  Cd  Cd26  1  0.50000000  0.10917900  0.25268100  1
  Cd  Cd27  1  0.00000000  0.25964300  0.23596200  1
  Cd  Cd28  1  0.50000000  0.35696700  0.28070400  1
  Cd  Cd29  1  0.00000000  0.50743100  0.26398600  1
  Cd  Cd30  1  0.00000000  0.65917900  0.30268100  1
  Cd  Cd31  1  0.50000000  0.90964300  0.38596200  1
  Cd  Cd32  1  0.00000000  0.90696700  0.33070400  1
  Cd  Cd33  1  0.50000000  0.05743100  0.31398600  1
  Cd  Cd34  1  0.50000000  0.20917900  0.35268100  1
  Cd  Cd35  1  1.00000000  0.35964300  0.33596200  1
  Cd  Cd36  1  0.50000000  0.45696700  0.38070400  1
  Cd  Cd37  1  0.00000000  0.60743100  0.36398600  1
  Cd  Cd38  1  1.00000000  0.75917900  0.40268100  1
  Cd  Cd39  1  0.50000000  0.00964300  0.48596200  1
  Cd  Cd40  1  1.00000000  0.00696700  0.43070400  1
  Cd  Cd41  1  0.50000000  0.15743100  0.41398600  1
  Cd  Cd42  1  0.50000000  0.30917900  0.45268100  1
  Cd  Cd43  1  1.00000000  0.45964300  0.43596200  1
  Cd  Cd44  1  0.50000000  0.55696700  0.48070400  1
  Cd  Cd45  1  0.00000000  0.70743100  0.46398600  1
  Cd  Cd46  1  0.00000000  0.85917900  0.50268100  1
  Cd  Cd47  1  0.50000000  0.10964300  0.58596200  1
  Cd  Cd48  1  0.00000000  0.10696700  0.53070400  1
  Cd  Cd49  1  0.50000000  0.25743100  0.51398600  1
  Cd  Cd50  1  0.50000000  0.40917900  0.55268100  1
  Cd  Cd51  1  1.00000000  0.55964300  0.53596200  1
  Cd  Cd52  1  0.50000000  0.65696700  0.58070400  1
  Cd  Cd53  1  0.00000000  0.80743100  0.56398600  1
  Cd  Cd54  1  0.00000000  0.95917900  0.60268100  1
  Cd  Cd55  1  0.50000000  0.20964300  0.68596200  1
  Cd  Cd56  1  0.00000000  0.20696700  0.63070400  1
  Cd  Cd57  1  0.50000000  0.35743100  0.61398600  1
  Cd  Cd58  1  0.50000000  0.50917900  0.65268100  1
  Cd  Cd59  1  0.00000000  0.65964300  0.63596200  1
  Cd  Cd60  1  0.50000000  0.75696700  0.68070400  1
  Cd  Cd61  1  0.00000000  0.90743100  0.66398600  1
  Cd  Cd62  1  0.00000000  0.05917900  0.70268100  1
  Cd  Cd63  1  0.50000000  0.30964300  0.78596200  1
  Cd  Cd64  1  1.00000000  0.30696700  0.73070400  1
  Cd  Cd65  1  0.50000000  0.45743100  0.71398600  1
  Cd  Cd66  1  0.50000000  0.60917900  0.75268100  1
  Cd  Cd67  1  0.00000000  0.75964300  0.73596200  1
  Cd  Cd68  1  0.50000000  0.85696700  0.78070400  1
  Cd  Cd69  1  0.00000000  0.00743100  0.76398600  1
