# generated using pymatgen
data_MgP4
_symmetry_space_group_name_H-M   'P 1'
_cell_length_a   7.29415427
_cell_length_b   8.53570463
_cell_length_c   44.35763700
_cell_angle_alpha   89.74177658
_cell_angle_beta   91.92332681
_cell_angle_gamma   70.22900655
_symmetry_Int_Tables_number   1
_chemical_formula_structural   MgP4
_chemical_formula_sum   'Mg16 P64'
_cell_volume   2597.10747389
_cell_formula_units_Z   16
loop_
 _symmetry_equiv_pos_site_id
 _symmetry_equiv_pos_as_xyz
  1  'x, y, z'
loop_
 _atom_site_type_symbol
 _atom_site_label
 _atom_site_symmetry_multiplicity
 _atom_site_fract_x
 _atom_site_fract_y
 _atom_site_fract_z
 _atom_site_occupancy
  Mg  Mg0  1  0.73076900  0.07692300  0.23076900  1
  Mg  Mg1  1  0.23076900  0.57692300  0.23076900  1
  Mg  Mg2  1  0.19230800  0.23076900  0.30769200  1
  Mg  Mg3  1  0.69230800  0.73076900  0.30769200  1
  Mg  Mg4  1  0.65384600  0.38461500  0.38461500  1
  Mg  Mg5  1  0.15384600  0.88461500  0.38461500  1
  Mg  Mg6  1  0.11538500  0.53846200  0.46153800  1
  Mg  Mg7  1  0.61538500  0.03846200  0.46153800  1
  Mg  Mg8  1  0.57692300  0.69230800  0.53846200  1
  Mg  Mg9  1  0.07692300  0.19230800  0.53846200  1
  Mg  Mg10  1  0.03846200  0.84615400  0.61538500  1
  Mg  Mg11  1  0.53846200  0.34615400  0.61538500  1
  Mg  Mg12  1  0.50000000  0.00000000  0.69230800  1
  Mg  Mg13  1  0.00000000  0.50000000  0.69230800  1
  Mg  Mg14  1  0.96153800  0.15384600  0.76923100  1
  Mg  Mg15  1  0.46153800  0.65384600  0.76923100  1
  P  P16  1  0.88845900  0.77839700  0.20834600  1
  P  P17  1  0.38779000  0.78553200  0.20823400  1
  P  P18  1  0.57307900  0.37544900  0.25319300  1
  P  P19  1  0.07374800  0.36831500  0.25330400  1
  P  P20  1  0.76592800  0.52523800  0.25469700  1
  P  P21  1  0.07886500  0.16196300  0.22352000  1
  P  P22  1  0.69561000  0.62860800  0.20684200  1
  P  P23  1  0.38267300  0.99188300  0.23801900  1
  P  P24  1  0.34999800  0.93224300  0.28526900  1
  P  P25  1  0.84932900  0.93937800  0.28515700  1
  P  P26  1  0.03461800  0.52929500  0.33011600  1
  P  P27  1  0.53528700  0.52216100  0.33022700  1
  P  P28  1  0.22746600  0.67908500  0.33162000  1
  P  P29  1  0.54040400  0.31581000  0.30044300  1
  P  P30  1  0.15714900  0.78245400  0.28376500  1
  P  P31  1  0.84421100  0.14572900  0.31494200  1
  P  P32  1  0.81153600  0.08608900  0.36219200  1
  P  P33  1  0.31086700  0.09322400  0.36208000  1
  P  P34  1  0.49615600  0.68314100  0.40703900  1
  P  P35  1  0.99682500  0.67600700  0.40715100  1
  P  P36  1  0.68900500  0.83293100  0.40854300  1
  P  P37  1  0.00194200  0.46965600  0.37736600  1
  P  P38  1  0.61868700  0.93630000  0.36068800  1
  P  P39  1  0.30575000  0.29957500  0.39186500  1
  P  P40  1  0.27307500  0.23993600  0.43911500  1
  P  P41  1  0.77240600  0.24707000  0.43900300  1
  P  P42  1  0.95769400  0.83698700  0.48396200  1
  P  P43  1  0.45836300  0.82985300  0.48407400  1
  P  P44  1  0.15054300  0.98677700  0.48546600  1
  P  P45  1  0.46348100  0.62350200  0.45428900  1
  P  P46  1  0.08022600  0.09014600  0.43761100  1
  P  P47  1  0.76728800  0.45342100  0.46878800  1
  P  P48  1  0.73461300  0.39378200  0.51603800  1
  P  P49  1  0.23394400  0.40091600  0.51592600  1
  P  P50  1  0.41923300  0.99083400  0.56088500  1
  P  P51  1  0.91990200  0.98369900  0.56099700  1
  P  P52  1  0.61208200  0.14062300  0.56238900  1
  P  P53  1  0.92501900  0.77734800  0.53121200  1
  P  P54  1  0.54176400  0.24399200  0.51453400  1
  P  P55  1  0.22882700  0.60726700  0.54571100  1
  P  P56  1  0.19615200  0.54762800  0.59296100  1
  P  P57  1  0.69548300  0.55476200  0.59284900  1
  P  P58  1  0.88077100  0.14468000  0.63780800  1
  P  P59  1  0.38144000  0.13754500  0.63792000  1
  P  P60  1  0.07362000  0.29446900  0.63931200  1
  P  P61  1  0.38655800  0.93119400  0.60813500  1
  P  P62  1  0.00330300  0.39783800  0.59145700  1
  P  P63  1  0.69036500  0.76111300  0.62263400  1
  P  P64  1  0.65769000  0.70147400  0.66988400  1
  P  P65  1  0.15702100  0.70860800  0.66977300  1
  P  P66  1  0.34231000  0.29852600  0.71473100  1
  P  P67  1  0.84297900  0.29139200  0.71484300  1
  P  P68  1  0.53515900  0.44831500  0.71623500  1
  P  P69  1  0.84809600  0.08504000  0.68505800  1
  P  P70  1  0.46484100  0.55168500  0.66838000  1
  P  P71  1  0.15190400  0.91496000  0.69955700  1
  P  P72  1  0.11922900  0.85532000  0.74680700  1
  P  P73  1  0.61856000  0.86245500  0.74669600  1
  P  P74  1  0.80384800  0.45237200  0.79165400  1
  P  P75  1  0.30451700  0.44523800  0.79176600  1
  P  P76  1  0.99669700  0.60216200  0.79315800  1
  P  P77  1  0.30963500  0.23888700  0.76198100  1
  P  P78  1  0.92638000  0.70553100  0.74530300  1
  P  P79  1  0.61344200  0.06880600  0.77648000  1
