# generated using pymatgen
data_Mg2Hg
_symmetry_space_group_name_H-M   'P 1'
_cell_length_a   4.75496500
_cell_length_b   6.40514000
_cell_length_c   43.06560200
_cell_angle_alpha   90.00000000
_cell_angle_beta   90.00000000
_cell_angle_gamma   90.00000000
_symmetry_Int_Tables_number   1
_chemical_formula_structural   Mg2Hg
_chemical_formula_sum   'Mg20 Hg10'
_cell_volume   1311.61529908
_cell_formula_units_Z   10
loop_
 _symmetry_equiv_pos_site_id
 _symmetry_equiv_pos_as_xyz
  1  'x, y, z'
loop_
 _atom_site_type_symbol
 _atom_site_label
 _atom_site_symmetry_multiplicity
 _atom_site_fract_x
 _atom_site_fract_y
 _atom_site_fract_z
 _atom_site_occupancy
  Mg  Mg0  1  0.25000000  0.46739600  0.39229100  1
  Mg  Mg1  1  0.75000000  0.53260400  0.30770900  1
  Mg  Mg2  1  0.25000000  0.96739600  0.20770900  1
  Mg  Mg3  1  0.75000000  0.03260400  0.29229100  1
  Mg  Mg4  1  0.75000000  0.67749800  0.23760400  1
  Mg  Mg5  1  0.25000000  0.32250200  0.26239600  1
  Mg  Mg6  1  0.75000000  0.17749800  0.36239600  1
  Mg  Mg7  1  0.25000000  0.82250200  0.33760400  1
  Mg  Mg8  1  0.25000000  0.46739600  0.59229100  1
  Mg  Mg9  1  0.75000000  0.53260400  0.50770900  1
  Mg  Mg10  1  0.25000000  0.96739600  0.40770900  1
  Mg  Mg11  1  0.75000000  0.03260400  0.49229100  1
  Mg  Mg12  1  0.75000000  0.67749800  0.43760400  1
  Mg  Mg13  1  0.25000000  0.32250200  0.46239600  1
  Mg  Mg14  1  0.75000000  0.17749800  0.56239600  1
  Mg  Mg15  1  0.25000000  0.82250200  0.53760400  1
  Mg  Mg16  1  0.25000000  0.96739600  0.60770900  1
  Mg  Mg17  1  0.75000000  0.03260400  0.69229100  1
  Mg  Mg18  1  0.75000000  0.67749800  0.63760400  1
  Mg  Mg19  1  0.25000000  0.32250200  0.66239600  1
  Hg  Hg20  1  0.25000000  0.27973800  0.32830800  1
  Hg  Hg21  1  0.75000000  0.72026200  0.37169200  1
  Hg  Hg22  1  0.25000000  0.77973800  0.27169200  1
  Hg  Hg23  1  0.75000000  0.22026200  0.22830800  1
  Hg  Hg24  1  0.25000000  0.27973800  0.52830800  1
  Hg  Hg25  1  0.75000000  0.72026200  0.57169200  1
  Hg  Hg26  1  0.25000000  0.77973800  0.47169200  1
  Hg  Hg27  1  0.75000000  0.22026200  0.42830800  1
  Hg  Hg28  1  0.25000000  0.77973800  0.67169200  1
  Hg  Hg29  1  0.75000000  0.22026200  0.62830800  1
