# generated using pymatgen
data_Mg13Au6
_symmetry_space_group_name_H-M   'P 1'
_cell_length_a   4.38771400
_cell_length_b   8.57805800
_cell_length_c   56.77467900
_cell_angle_alpha   90.00000000
_cell_angle_beta   90.00000000
_cell_angle_gamma   90.00000000
_symmetry_Int_Tables_number   1
_chemical_formula_structural   Mg13Au6
_chemical_formula_sum   'Mg26 Au12'
_cell_volume   2136.88906874
_cell_formula_units_Z   2
loop_
 _symmetry_equiv_pos_site_id
 _symmetry_equiv_pos_as_xyz
  1  'x, y, z'
loop_
 _atom_site_type_symbol
 _atom_site_label
 _atom_site_symmetry_multiplicity
 _atom_site_fract_x
 _atom_site_fract_y
 _atom_site_fract_z
 _atom_site_occupancy
  Mg  Mg0  1  0.25000000  0.30928200  0.48647300  1
  Mg  Mg1  1  0.75000000  0.69071800  0.49500800  1
  Mg  Mg2  1  0.25000000  0.94817100  0.80549000  1
  Mg  Mg3  1  0.25000000  0.55182900  0.63882300  1
  Mg  Mg4  1  0.75000000  0.05182900  0.50932500  1
  Mg  Mg5  1  0.75000000  0.44817100  0.67599200  1
  Mg  Mg6  1  0.25000000  0.94796500  0.69482000  1
  Mg  Mg7  1  0.25000000  0.55203500  0.52815300  1
  Mg  Mg8  1  0.75000000  0.05203500  0.61999500  1
  Mg  Mg9  1  0.75000000  0.44796500  0.78666100  1
  Mg  Mg10  1  0.25000000  0.94300900  0.58297300  1
  Mg  Mg11  1  0.25000000  0.55699100  0.74964000  1
  Mg  Mg12  1  0.75000000  0.05699100  0.73184200  1
  Mg  Mg13  1  0.75000000  0.44300900  0.56517500  1
  Mg  Mg14  1  0.25000000  0.19798500  0.76451600  1
  Mg  Mg15  1  0.25000000  0.30201500  0.59784900  1
  Mg  Mg16  1  0.75000000  0.80201500  0.55029900  1
  Mg  Mg17  1  0.75000000  0.69798500  0.71696600  1
  Mg  Mg18  1  0.25000000  0.19071800  0.65314000  1
  Mg  Mg19  1  0.25000000  0.30928200  0.81980700  1
  Mg  Mg20  1  0.75000000  0.80928200  0.66167500  1
  Mg  Mg21  1  0.75000000  0.69071800  0.82834200  1
  Mg  Mg22  1  0.25000000  0.19186700  0.54176800  1
  Mg  Mg23  1  0.25000000  0.30813300  0.70843500  1
  Mg  Mg24  1  0.75000000  0.80813300  0.77304700  1
  Mg  Mg25  1  0.75000000  0.69186700  0.60638000  1
  Au  Au26  1  0.25000000  0.86848600  0.51994400  1
  Au  Au27  1  0.25000000  0.63151400  0.68661000  1
  Au  Au28  1  0.75000000  0.13151400  0.79487100  1
  Au  Au29  1  0.75000000  0.36848600  0.62820500  1
  Au  Au30  1  0.25000000  0.86913300  0.63077000  1
  Au  Au31  1  0.25000000  0.63086700  0.79743700  1
  Au  Au32  1  0.75000000  0.13086700  0.68404500  1
  Au  Au33  1  0.75000000  0.36913300  0.51737800  1
  Au  Au34  1  0.25000000  0.87452300  0.74265700  1
  Au  Au35  1  0.25000000  0.62547700  0.57599000  1
  Au  Au36  1  0.75000000  0.12547700  0.57215800  1
  Au  Au37  1  0.75000000  0.37452300  0.73882500  1
