# generated using pymatgen
data_Mg13Sc2
_symmetry_space_group_name_H-M   'P 1'
_cell_length_a   6.41345200
_cell_length_b   9.06999100
_cell_length_c   44.89416600
_cell_angle_alpha   90.00000000
_cell_angle_beta   90.00000000
_cell_angle_gamma   90.00000000
_symmetry_Int_Tables_number   1
_chemical_formula_structural   Mg13Sc2
_chemical_formula_sum   'Mg52 Sc8'
_cell_volume   2611.49147766
_cell_formula_units_Z   4
loop_
 _symmetry_equiv_pos_site_id
 _symmetry_equiv_pos_as_xyz
  1  'x, y, z'
loop_
 _atom_site_type_symbol
 _atom_site_label
 _atom_site_symmetry_multiplicity
 _atom_site_fract_x
 _atom_site_fract_y
 _atom_site_fract_z
 _atom_site_occupancy
  Mg  Mg0  1  0.58928600  0.00000000  0.26785700  1
  Mg  Mg1  1  0.58928600  0.00000000  0.33928600  1
  Mg  Mg2  1  0.83928600  0.25000000  0.30357100  1
  Mg  Mg3  1  0.33928600  0.25000000  0.30357100  1
  Mg  Mg4  1  0.08928600  0.00000000  0.26785700  1
  Mg  Mg5  1  0.08928600  0.50000000  0.33928600  1
  Mg  Mg6  1  0.33928600  0.75000000  0.30357100  1
  Mg  Mg7  1  0.08928600  0.50000000  0.26785700  1
  Mg  Mg8  1  0.58928600  0.50000000  0.33928600  1
  Mg  Mg9  1  0.83928600  0.75000000  0.30357100  1
  Mg  Mg10  1  0.58928600  0.00000000  0.41071400  1
  Mg  Mg11  1  0.83928600  0.25000000  0.37500000  1
  Mg  Mg12  1  0.58928600  0.00000000  0.48214300  1
  Mg  Mg13  1  0.83928600  0.25000000  0.44642900  1
  Mg  Mg14  1  0.33928600  0.25000000  0.44642900  1
  Mg  Mg15  1  0.08928600  0.00000000  0.41071400  1
  Mg  Mg16  1  0.33928600  0.25000000  0.37500000  1
  Mg  Mg17  1  0.08928600  0.50000000  0.48214300  1
  Mg  Mg18  1  0.33928600  0.75000000  0.44642900  1
  Mg  Mg19  1  0.08928600  0.50000000  0.41071400  1
  Mg  Mg20  1  0.33928600  0.75000000  0.37500000  1
  Mg  Mg21  1  0.83928600  0.75000000  0.37500000  1
  Mg  Mg22  1  0.58928600  0.50000000  0.48214300  1
  Mg  Mg23  1  0.83928600  0.75000000  0.44642900  1
  Mg  Mg24  1  0.58928600  0.00000000  0.55357100  1
  Mg  Mg25  1  0.83928600  0.25000000  0.51785700  1
  Mg  Mg26  1  0.58928600  0.00000000  0.62500000  1
  Mg  Mg27  1  0.83928600  0.25000000  0.58928600  1
  Mg  Mg28  1  0.33928600  0.25000000  0.58928600  1
  Mg  Mg29  1  0.08928600  0.00000000  0.55357100  1
  Mg  Mg30  1  0.33928600  0.25000000  0.51785700  1
  Mg  Mg31  1  0.08928600  0.50000000  0.62500000  1
  Mg  Mg32  1  0.33928600  0.75000000  0.58928600  1
  Mg  Mg33  1  0.08928600  0.50000000  0.55357100  1
  Mg  Mg34  1  0.33928600  0.75000000  0.51785700  1
  Mg  Mg35  1  0.83928600  0.75000000  0.51785700  1
  Mg  Mg36  1  0.58928600  0.50000000  0.62500000  1
  Mg  Mg37  1  0.83928600  0.75000000  0.58928600  1
  Mg  Mg38  1  0.58928600  0.00000000  0.69642900  1
  Mg  Mg39  1  0.83928600  0.25000000  0.66071400  1
  Mg  Mg40  1  0.58928600  0.00000000  0.76785700  1
  Mg  Mg41  1  0.83928600  0.25000000  0.73214300  1
  Mg  Mg42  1  0.33928600  0.25000000  0.73214300  1
  Mg  Mg43  1  0.08928600  0.00000000  0.69642900  1
  Mg  Mg44  1  0.33928600  0.25000000  0.66071400  1
  Mg  Mg45  1  0.08928600  0.50000000  0.76785700  1
  Mg  Mg46  1  0.33928600  0.75000000  0.73214300  1
  Mg  Mg47  1  0.08928600  0.50000000  0.69642900  1
  Mg  Mg48  1  0.33928600  0.75000000  0.66071400  1
  Mg  Mg49  1  0.83928600  0.75000000  0.66071400  1
  Mg  Mg50  1  0.58928600  0.50000000  0.76785700  1
  Mg  Mg51  1  0.83928600  0.75000000  0.73214300  1
  Sc  Sc52  1  0.08928600  0.00000000  0.33928600  1
  Sc  Sc53  1  0.58928600  0.50000000  0.26785700  1
  Sc  Sc54  1  0.08928600  0.00000000  0.48214300  1
  Sc  Sc55  1  0.58928600  0.50000000  0.41071400  1
  Sc  Sc56  1  0.08928600  0.00000000  0.62500000  1
  Sc  Sc57  1  0.58928600  0.50000000  0.55357100  1
  Sc  Sc58  1  0.08928600  0.00000000  0.76785700  1
  Sc  Sc59  1  0.58928600  0.50000000  0.69642900  1
