# generated using pymatgen
data_Ho32Mg11
_symmetry_space_group_name_H-M   'P 1'
_cell_length_a   4.95026525
_cell_length_b   10.15564464
_cell_length_c   43.21464900
_cell_angle_alpha   92.53203099
_cell_angle_beta   93.28343067
_cell_angle_gamma   75.89380586
_symmetry_Int_Tables_number   1
_chemical_formula_structural   Ho32Mg11
_chemical_formula_sum   'Ho32 Mg11'
_cell_volume   2102.54094421
_cell_formula_units_Z   1
loop_
 _symmetry_equiv_pos_site_id
 _symmetry_equiv_pos_as_xyz
  1  'x, y, z'
loop_
 _atom_site_type_symbol
 _atom_site_label
 _atom_site_symmetry_multiplicity
 _atom_site_fract_x
 _atom_site_fract_y
 _atom_site_fract_z
 _atom_site_occupancy
  Ho  Ho0  1  0.32608400  0.73913500  0.21588200  1
  Ho  Ho1  1  0.11352800  0.19081700  0.24245100  1
  Ho  Ho2  1  0.88163900  0.68357900  0.27143700  1
  Ho  Ho3  1  0.49758300  0.43719800  0.25694400  1
  Ho  Ho4  1  0.66908300  0.13526100  0.29800700  1
  Ho  Ho5  1  0.43719500  0.62802400  0.32699300  1
  Ho  Ho6  1  0.05313900  0.38164200  0.31250000  1
  Ho  Ho7  1  0.22463900  0.07970500  0.35356300  1
  Ho  Ho8  1  0.99275000  0.57246800  0.38254900  1
  Ho  Ho9  1  0.60869500  0.32608700  0.36805600  1
  Ho  Ho10  1  0.78019400  0.02415000  0.40911800  1
  Ho  Ho11  1  0.54830600  0.51691300  0.43810400  1
  Ho  Ho12  1  0.16425000  0.27053100  0.42361100  1
  Ho  Ho13  1  0.33575000  0.96859400  0.46467400  1
  Ho  Ho14  1  0.10386200  0.46135700  0.49366000  1
  Ho  Ho15  1  0.71980600  0.21497600  0.47916700  1
  Ho  Ho16  1  0.89130500  0.91303900  0.52022900  1
  Ho  Ho17  1  0.65941700  0.40580200  0.54921500  1
  Ho  Ho18  1  0.27536100  0.15942000  0.53472200  1
  Ho  Ho19  1  0.44686100  0.85748300  0.57578500  1
  Ho  Ho20  1  0.21497300  0.35024600  0.60477100  1
  Ho  Ho21  1  0.83091700  0.10386500  0.59027800  1
  Ho  Ho22  1  0.00241700  0.80192800  0.63134000  1
  Ho  Ho23  1  0.77052800  0.29469000  0.66032600  1
  Ho  Ho24  1  0.38647200  0.04830900  0.64583300  1
  Ho  Ho25  1  0.55797200  0.74637200  0.68689600  1
  Ho  Ho26  1  0.32608400  0.23913500  0.71588200  1
  Ho  Ho27  1  0.94202800  0.99275300  0.70138900  1
  Ho  Ho28  1  0.11352800  0.69081700  0.74245100  1
  Ho  Ho29  1  0.88163900  0.18357900  0.77143700  1
  Ho  Ho30  1  0.49758300  0.93719800  0.75694400  1
  Ho  Ho31  1  0.66908300  0.63526100  0.79800700  1
  Mg  Mg32  1  0.71980600  0.96497600  0.22916700  1
  Mg  Mg33  1  0.27536100  0.90942000  0.28472200  1
  Mg  Mg34  1  0.83091700  0.85386500  0.34027800  1
  Mg  Mg35  1  0.38647200  0.79830900  0.39583300  1
  Mg  Mg36  1  0.94202800  0.74275300  0.45138900  1
  Mg  Mg37  1  0.49758300  0.68719800  0.50694400  1
  Mg  Mg38  1  0.05313900  0.63164200  0.56250000  1
  Mg  Mg39  1  0.60869500  0.57608700  0.61805600  1
  Mg  Mg40  1  0.16425000  0.52053100  0.67361100  1
  Mg  Mg41  1  0.71980600  0.46497600  0.72916700  1
  Mg  Mg42  1  0.27536100  0.40942000  0.78472200  1
