# generated using pymatgen
data_Mg8Ag15
_symmetry_space_group_name_H-M   'P 1'
_cell_length_a   5.11669478
_cell_length_b   7.04186210
_cell_length_c   42.59610200
_cell_angle_alpha   90.16923033
_cell_angle_beta   93.08783511
_cell_angle_gamma   110.97454756
_symmetry_Int_Tables_number   1
_chemical_formula_structural   Mg8Ag15
_chemical_formula_sum   'Mg16 Ag30'
_cell_volume   1430.59960922
_cell_formula_units_Z   2
loop_
 _symmetry_equiv_pos_site_id
 _symmetry_equiv_pos_as_xyz
  1  'x, y, z'
loop_
 _atom_site_type_symbol
 _atom_site_label
 _atom_site_symmetry_multiplicity
 _atom_site_fract_x
 _atom_site_fract_y
 _atom_site_fract_z
 _atom_site_occupancy
  Mg  Mg0  1  0.89697700  0.40499700  0.77795100  1
  Mg  Mg1  1  0.87237800  0.95419600  0.78615100  1
  Mg  Mg2  1  0.12774700  0.94345800  0.70102800  1
  Mg  Mg3  1  0.10314700  0.49265700  0.70922800  1
  Mg  Mg4  1  0.35851600  0.48192000  0.62410500  1
  Mg  Mg5  1  0.33391600  0.03111900  0.63230500  1
  Mg  Mg6  1  0.58928500  0.02038100  0.54718200  1
  Mg  Mg7  1  0.56468600  0.56958000  0.55538200  1
  Mg  Mg8  1  0.82005400  0.55884300  0.47025900  1
  Mg  Mg9  1  0.79545500  0.10804200  0.47845900  1
  Mg  Mg10  1  0.05082400  0.09730400  0.39333600  1
  Mg  Mg11  1  0.02622400  0.64650300  0.40153600  1
  Mg  Mg12  1  0.28159300  0.63576600  0.31641300  1
  Mg  Mg13  1  0.25699300  0.18496500  0.32461300  1
  Mg  Mg14  1  0.51236200  0.17422800  0.23949000  1
  Mg  Mg15  1  0.48776300  0.72342600  0.24769000  1
  Ag  Ag16  1  0.27963700  0.80553500  0.76137400  1
  Ag  Ag17  1  0.30951500  0.24577900  0.75141500  1
  Ag  Ag18  1  0.48971800  0.55365800  0.80272800  1
  Ag  Ag19  1  0.69061000  0.65187500  0.73576400  1
  Ag  Ag20  1  0.51040600  0.34399600  0.68445100  1
  Ag  Ag21  1  0.54028400  0.78424000  0.67449200  1
  Ag  Ag22  1  0.72048700  0.09211900  0.72580500  1
  Ag  Ag23  1  0.92137900  0.19033700  0.65884100  1
  Ag  Ag24  1  0.74117600  0.88245800  0.60752800  1
  Ag  Ag25  1  0.77105300  0.32270200  0.59756900  1
  Ag  Ag26  1  0.95125700  0.63058100  0.64888200  1
  Ag  Ag27  1  0.15214800  0.72879800  0.58191800  1
  Ag  Ag28  1  0.97194500  0.42091900  0.53060500  1
  Ag  Ag29  1  0.00182300  0.86116300  0.52064600  1
  Ag  Ag30  1  0.18202600  0.16904200  0.57195900  1
  Ag  Ag31  1  0.38291700  0.26726000  0.50499500  1
  Ag  Ag32  1  0.20271400  0.95938100  0.45368200  1
  Ag  Ag33  1  0.23259200  0.39962500  0.44372300  1
  Ag  Ag34  1  0.41279500  0.70750400  0.49503600  1
  Ag  Ag35  1  0.61368600  0.80572100  0.42807200  1
  Ag  Ag36  1  0.43348300  0.49784200  0.37675900  1
  Ag  Ag37  1  0.46336100  0.93808600  0.36680000  1
  Ag  Ag38  1  0.64356400  0.24596500  0.41811300  1
  Ag  Ag39  1  0.84445600  0.34418300  0.35114900  1
  Ag  Ag40  1  0.66425200  0.03630400  0.29983600  1
  Ag  Ag41  1  0.69413000  0.47654800  0.28987700  1
  Ag  Ag42  1  0.87433400  0.78442700  0.34119000  1
  Ag  Ag43  1  0.07522500  0.88264400  0.27422600  1
  Ag  Ag44  1  0.89502200  0.57476500  0.22291300  1
  Ag  Ag45  1  0.10510300  0.32288900  0.26426700  1
