# generated using pymatgen
data_Li4Mg
_symmetry_space_group_name_H-M   'P 1'
_cell_length_a   3.06669500
_cell_length_b   3.06669408
_cell_length_c   76.31121800
_cell_angle_alpha   90.00000000
_cell_angle_beta   90.00000000
_cell_angle_gamma   119.99999916
_symmetry_Int_Tables_number   1
_chemical_formula_structural   Li4Mg
_chemical_formula_sum   'Li12 Mg3'
_cell_volume   621.52708686
_cell_formula_units_Z   3
loop_
 _symmetry_equiv_pos_site_id
 _symmetry_equiv_pos_as_xyz
  1  'x, y, z'
loop_
 _atom_site_type_symbol
 _atom_site_label
 _atom_site_symmetry_multiplicity
 _atom_site_fract_x
 _atom_site_fract_y
 _atom_site_fract_z
 _atom_site_occupancy
  Li  Li0  1  0.66666700  0.33333300  0.63267300  1
  Li  Li1  1  0.33333300  0.66666700  0.59979500  1
  Li  Li2  1  0.00000000  0.00000000  0.56687200  1
  Li  Li3  1  0.66666700  0.33333300  0.53399400  1
  Li  Li4  1  0.33333300  0.66666700  0.29934000  1
  Li  Li5  1  0.00000000  0.00000000  0.26646200  1
  Li  Li6  1  0.66666700  0.33333300  0.73353800  1
  Li  Li7  1  0.33333300  0.66666700  0.70066000  1
  Li  Li8  1  0.00000000  0.00000000  0.46600600  1
  Li  Li9  1  0.66666700  0.33333300  0.43312800  1
  Li  Li10  1  0.33333300  0.66666700  0.40020500  1
  Li  Li11  1  0.00000000  0.00000000  0.36732700  1
  Mg  Mg12  1  0.00000000  0.00000000  0.66666700  1
  Mg  Mg13  1  0.66666700  0.33333300  0.33333300  1
  Mg  Mg14  1  0.33333300  0.66666700  0.50000000  1
