# generated using pymatgen
data_Ca24Mg43
_symmetry_space_group_name_H-M   'P 1'
_cell_length_a   6.14690500
_cell_length_b   12.06769123
_cell_length_c   47.38177000
_cell_angle_alpha   91.10404210
_cell_angle_beta   90.00000000
_cell_angle_gamma   75.24511335
_symmetry_Int_Tables_number   1
_chemical_formula_structural   Ca24Mg43
_chemical_formula_sum   'Ca24 Mg43'
_cell_volume   3398.15431629
_cell_formula_units_Z   1
loop_
 _symmetry_equiv_pos_site_id
 _symmetry_equiv_pos_as_xyz
  1  'x, y, z'
loop_
 _atom_site_type_symbol
 _atom_site_label
 _atom_site_symmetry_multiplicity
 _atom_site_fract_x
 _atom_site_fract_y
 _atom_site_fract_z
 _atom_site_occupancy
  Ca  Ca0  1  0.15214500  0.84961500  0.23985400  1
  Ca  Ca1  1  0.41881100  0.31628100  0.25652100  1
  Ca  Ca2  1  0.57097900  0.01194700  0.21847900  1
  Ca  Ca3  1  0.30431200  0.54528000  0.20181200  1
  Ca  Ca4  1  0.75214500  0.64961500  0.33985400  1
  Ca  Ca5  1  0.01881100  0.11628100  0.35652100  1
  Ca  Ca6  1  0.17097900  0.81194700  0.31847900  1
  Ca  Ca7  1  0.90431200  0.34528000  0.30181200  1
  Ca  Ca8  1  0.35214500  0.44961500  0.43985400  1
  Ca  Ca9  1  0.61881100  0.91628100  0.45652100  1
  Ca  Ca10  1  0.77097900  0.61194700  0.41847900  1
  Ca  Ca11  1  0.50431200  0.14528000  0.40181200  1
  Ca  Ca12  1  0.95214500  0.24961500  0.53985400  1
  Ca  Ca13  1  0.21881100  0.71628100  0.55652100  1
  Ca  Ca14  1  0.37097900  0.41194700  0.51847900  1
  Ca  Ca15  1  0.10431200  0.94528000  0.50181200  1
  Ca  Ca16  1  0.55214500  0.04961500  0.63985400  1
  Ca  Ca17  1  0.81881100  0.51628100  0.65652100  1
  Ca  Ca18  1  0.97097900  0.21194700  0.61847900  1
  Ca  Ca19  1  0.70431200  0.74528000  0.60181200  1
  Ca  Ca20  1  0.15214500  0.84961500  0.73985400  1
  Ca  Ca21  1  0.41881100  0.31628100  0.75652100  1
  Ca  Ca22  1  0.57097900  0.01194700  0.71847900  1
  Ca  Ca23  1  0.30431200  0.54528000  0.70181200  1
  Mg  Mg24  1  0.99529200  0.16332100  0.23789700  1
  Mg  Mg25  1  0.03140100  0.59705100  0.27103200  1
  Mg  Mg26  1  0.52545200  0.59705100  0.27103200  1
  Mg  Mg27  1  0.79767100  0.06451100  0.28730200  1
  Mg  Mg28  1  0.86156200  0.43078100  0.22916700  1
  Mg  Mg29  1  0.66156200  0.83078100  0.27916700  1
  Mg  Mg30  1  0.72783200  0.69824100  0.22043700  1
  Mg  Mg31  1  0.29172200  0.06451100  0.28730200  1
  Mg  Mg32  1  0.59529200  0.96332100  0.33789700  1
  Mg  Mg33  1  0.63140100  0.39705100  0.37103200  1
  Mg  Mg34  1  0.12545200  0.39705100  0.37103200  1
  Mg  Mg35  1  0.39767100  0.86451100  0.38730200  1
  Mg  Mg36  1  0.46156200  0.23078100  0.32916700  1
  Mg  Mg37  1  0.26156200  0.63078100  0.37916700  1
  Mg  Mg38  1  0.32783200  0.49824100  0.32043700  1
  Mg  Mg39  1  0.89172200  0.86451100  0.38730200  1
  Mg  Mg40  1  0.19529200  0.76332100  0.43789700  1
  Mg  Mg41  1  0.23140100  0.19705100  0.47103200  1
  Mg  Mg42  1  0.72545200  0.19705100  0.47103200  1
  Mg  Mg43  1  0.99767100  0.66451100  0.48730200  1
  Mg  Mg44  1  0.06156200  0.03078100  0.42916700  1
  Mg  Mg45  1  0.86156200  0.43078100  0.47916700  1
  Mg  Mg46  1  0.92783200  0.29824100  0.42043700  1
  Mg  Mg47  1  0.49172200  0.66451100  0.48730200  1
  Mg  Mg48  1  0.79529200  0.56332100  0.53789700  1
  Mg  Mg49  1  0.83140100  0.99705100  0.57103200  1
  Mg  Mg50  1  0.32545200  0.99705100  0.57103200  1
  Mg  Mg51  1  0.59767100  0.46451100  0.58730200  1
  Mg  Mg52  1  0.66156200  0.83078100  0.52916700  1
  Mg  Mg53  1  0.46156200  0.23078100  0.57916700  1
  Mg  Mg54  1  0.52783200  0.09824100  0.52043700  1
  Mg  Mg55  1  0.09172200  0.46451100  0.58730200  1
  Mg  Mg56  1  0.39529200  0.36332100  0.63789700  1
  Mg  Mg57  1  0.43140100  0.79705100  0.67103200  1
  Mg  Mg58  1  0.92545200  0.79705100  0.67103200  1
  Mg  Mg59  1  0.19767100  0.26451100  0.68730200  1
  Mg  Mg60  1  0.26156200  0.63078100  0.62916700  1
  Mg  Mg61  1  0.06156200  0.03078100  0.67916700  1
  Mg  Mg62  1  0.12783200  0.89824100  0.62043700  1
  Mg  Mg63  1  0.69172200  0.26451100  0.68730200  1
  Mg  Mg64  1  0.99529200  0.16332100  0.73789700  1
  Mg  Mg65  1  0.86156200  0.43078100  0.72916700  1
  Mg  Mg66  1  0.72783200  0.69824100  0.72043700  1
