# generated using pymatgen
data_Ca15Mg7
_symmetry_space_group_name_H-M   'P 1'
_cell_length_a   7.29490878
_cell_length_b   8.95443086
_cell_length_c   45.28773100
_cell_angle_alpha   91.85004019
_cell_angle_beta   90.46163646
_cell_angle_gamma   111.66546572
_symmetry_Int_Tables_number   1
_chemical_formula_structural   Ca15Mg7
_chemical_formula_sum   'Ca30 Mg14'
_cell_volume   2747.21906371
_cell_formula_units_Z   2
loop_
 _symmetry_equiv_pos_site_id
 _symmetry_equiv_pos_as_xyz
  1  'x, y, z'
loop_
 _atom_site_type_symbol
 _atom_site_label
 _atom_site_symmetry_multiplicity
 _atom_site_fract_x
 _atom_site_fract_y
 _atom_site_fract_z
 _atom_site_occupancy
  Ca  Ca0  1  0.54506600  0.95661200  0.25081700  1
  Ca  Ca1  1  0.96775500  0.78542000  0.26200400  1
  Ca  Ca2  1  0.62198900  0.80276500  0.32774000  1
  Ca  Ca3  1  0.00710400  0.20918200  0.30048800  1
  Ca  Ca4  1  0.58264000  0.37900400  0.28925500  1
  Ca  Ca5  1  0.04467800  0.63157400  0.33892700  1
  Ca  Ca6  1  0.69891200  0.64891900  0.40466300  1
  Ca  Ca7  1  0.08402700  0.05533500  0.37741100  1
  Ca  Ca8  1  0.65956300  0.22515800  0.36617800  1
  Ca  Ca9  1  0.12160100  0.47772800  0.41585000  1
  Ca  Ca10  1  0.77583500  0.49507300  0.48158600  1
  Ca  Ca11  1  0.16095000  0.90148900  0.45433400  1
  Ca  Ca12  1  0.73648600  0.07131200  0.44310200  1
  Ca  Ca13  1  0.19852400  0.32388200  0.49277300  1
  Ca  Ca14  1  0.85275800  0.34122700  0.55850900  1
  Ca  Ca15  1  0.23787300  0.74764300  0.53125700  1
  Ca  Ca16  1  0.81340900  0.91746600  0.52002500  1
  Ca  Ca17  1  0.27544700  0.17003600  0.56969600  1
  Ca  Ca18  1  0.92968100  0.18738100  0.63543200  1
  Ca  Ca19  1  0.31479600  0.59379700  0.60818100  1
  Ca  Ca20  1  0.89033200  0.76361900  0.59694800  1
  Ca  Ca21  1  0.35237000  0.01618900  0.64661900  1
  Ca  Ca22  1  0.00660400  0.03353500  0.71235500  1
  Ca  Ca23  1  0.39171900  0.43995100  0.68510400  1
  Ca  Ca24  1  0.96725500  0.60977300  0.67387100  1
  Ca  Ca25  1  0.42929300  0.86234300  0.72354200  1
  Ca  Ca26  1  0.08352700  0.87968800  0.78927800  1
  Ca  Ca27  1  0.46864200  0.28610500  0.76202700  1
  Ca  Ca28  1  0.04417800  0.45592700  0.75079400  1
  Ca  Ca29  1  0.50621600  0.70849700  0.80046500  1
  Mg  Mg30  1  0.31359600  0.00498200  0.31406500  1
  Mg  Mg31  1  0.27614700  0.58320300  0.27567900  1
  Mg  Mg32  1  0.39052000  0.85113600  0.39098800  1
  Mg  Mg33  1  0.35307000  0.42935700  0.35260200  1
  Mg  Mg34  1  0.46744300  0.69729000  0.46791100  1
  Mg  Mg35  1  0.42999300  0.27551100  0.42952500  1
  Mg  Mg36  1  0.54436600  0.54344400  0.54483400  1
  Mg  Mg37  1  0.50691600  0.12166500  0.50644800  1
  Mg  Mg38  1  0.62128900  0.38959800  0.62175700  1
  Mg  Mg39  1  0.58383900  0.96781900  0.58337100  1
  Mg  Mg40  1  0.69821200  0.23575100  0.69868000  1
  Mg  Mg41  1  0.66076300  0.81397300  0.66029400  1
  Mg  Mg42  1  0.77513500  0.08190500  0.77560300  1
  Mg  Mg43  1  0.73768600  0.66012600  0.73721700  1
