# generated using pymatgen
data_Y16Mg5
_symmetry_space_group_name_H-M   'P 1'
_cell_length_a   3.83113900
_cell_length_b   6.65141562
_cell_length_c   49.63432300
_cell_angle_alpha   91.92441837
_cell_angle_beta   90.00000000
_cell_angle_gamma   106.73790865
_symmetry_Int_Tables_number   1
_chemical_formula_structural   Y16Mg5
_chemical_formula_sum   'Y16 Mg5'
_cell_volume   1210.47446801
_cell_formula_units_Z   1
loop_
 _symmetry_equiv_pos_site_id
 _symmetry_equiv_pos_as_xyz
  1  'x, y, z'
loop_
 _atom_site_type_symbol
 _atom_site_label
 _atom_site_symmetry_multiplicity
 _atom_site_fract_x
 _atom_site_fract_y
 _atom_site_fract_z
 _atom_site_occupancy
  Y  Y0  1  0.47260900  0.94521900  0.78750000  1
  Y  Y1  1  0.19173400  0.38346800  0.76010900  1
  Y  Y2  1  0.55348500  0.10697000  0.71489100  1
  Y  Y3  1  0.27260900  0.54521900  0.68750000  1
  Y  Y4  1  0.99173400  0.98346800  0.66010900  1
  Y  Y5  1  0.35348500  0.70697000  0.61489100  1
  Y  Y6  1  0.07260900  0.14521900  0.58750000  1
  Y  Y7  1  0.79173400  0.58346800  0.56010900  1
  Y  Y8  1  0.15348500  0.30697000  0.51489100  1
  Y  Y9  1  0.87260900  0.74521900  0.48750000  1
  Y  Y10  1  0.59173400  0.18346800  0.46010900  1
  Y  Y11  1  0.95348500  0.90697000  0.41489100  1
  Y  Y12  1  0.67260900  0.34521900  0.38750000  1
  Y  Y13  1  0.39173400  0.78346800  0.36010900  1
  Y  Y14  1  0.75348500  0.50697000  0.31489100  1
  Y  Y15  1  0.47260900  0.94521900  0.28750000  1
  Mg  Mg16  1  0.87260900  0.74521900  0.73750000  1
  Mg  Mg17  1  0.67260900  0.34521900  0.63750000  1
  Mg  Mg18  1  0.47260900  0.94521900  0.53750000  1
  Mg  Mg19  1  0.27260900  0.54521900  0.43750000  1
  Mg  Mg20  1  0.07260900  0.14521900  0.33750000  1
