# generated using pymatgen
data_MgPb2
_symmetry_space_group_name_H-M   'P 1'
_cell_length_a   3.51663700
_cell_length_b   3.51663727
_cell_length_c   48.11676400
_cell_angle_alpha   90.00000000
_cell_angle_beta   90.00000000
_cell_angle_gamma   120.00000687
_symmetry_Int_Tables_number   1
_chemical_formula_structural   MgPb2
_chemical_formula_sum   'Mg4 Pb8'
_cell_volume   515.32608844
_cell_formula_units_Z   4
loop_
 _symmetry_equiv_pos_site_id
 _symmetry_equiv_pos_as_xyz
  1  'x, y, z'
loop_
 _atom_site_type_symbol
 _atom_site_label
 _atom_site_symmetry_multiplicity
 _atom_site_fract_x
 _atom_site_fract_y
 _atom_site_fract_z
 _atom_site_occupancy
  Mg  Mg0  1  0.66666700  0.33333300  0.25000000  1
  Mg  Mg1  1  0.33333300  0.66666700  0.41666700  1
  Mg  Mg2  1  0.66666700  0.33333300  0.58333300  1
  Mg  Mg3  1  0.33333300  0.66666700  0.75000000  1
  Pb  Pb4  1  0.33333300  0.66666700  0.19864700  1
  Pb  Pb5  1  0.33333300  0.66666700  0.30135300  1
  Pb  Pb6  1  0.66666700  0.33333300  0.36531400  1
  Pb  Pb7  1  0.66666700  0.33333300  0.46801900  1
  Pb  Pb8  1  0.33333300  0.66666700  0.53198100  1
  Pb  Pb9  1  0.33333300  0.66666700  0.63468600  1
  Pb  Pb10  1  0.66666700  0.33333300  0.69864700  1
  Pb  Pb11  1  0.66666700  0.33333300  0.80135300  1
