# generated using pymatgen
data_NdMg11
_symmetry_space_group_name_H-M   'P 1'
_cell_length_a   11.87579713
_cell_length_b   11.87579691
_cell_length_c   45.96386800
_cell_angle_alpha   89.91479299
_cell_angle_beta   90.08520701
_cell_angle_gamma   104.43494196
_symmetry_Int_Tables_number   1
_chemical_formula_structural   NdMg11
_chemical_formula_sum   'Nd12 Mg132'
_cell_volume   6277.83876326
_cell_formula_units_Z   12
loop_
 _symmetry_equiv_pos_site_id
 _symmetry_equiv_pos_as_xyz
  1  'x, y, z'
loop_
 _atom_site_type_symbol
 _atom_site_label
 _atom_site_symmetry_multiplicity
 _atom_site_fract_x
 _atom_site_fract_y
 _atom_site_fract_z
 _atom_site_occupancy
  Nd  Nd0  1  0.18519400  0.81480600  0.29807700  1
  Nd  Nd1  1  0.58519400  0.41480600  0.24807700  1
  Nd  Nd2  1  0.38519400  0.61480600  0.39807700  1
  Nd  Nd3  1  0.78519400  0.21480600  0.34807700  1
  Nd  Nd4  1  0.58519400  0.41480600  0.49807700  1
  Nd  Nd5  1  0.98519400  0.01480600  0.44807700  1
  Nd  Nd6  1  0.78519400  0.21480600  0.59807700  1
  Nd  Nd7  1  0.18519400  0.81480600  0.54807700  1
  Nd  Nd8  1  0.98519400  0.01480600  0.69807700  1
  Nd  Nd9  1  0.38519400  0.61480600  0.64807700  1
  Nd  Nd10  1  0.18519400  0.81480600  0.79807700  1
  Nd  Nd11  1  0.58519400  0.41480600  0.74807700  1
  Mg  Mg12  1  0.11480600  0.53325100  0.26288300  1
  Mg  Mg13  1  0.30363900  0.34441700  0.28327100  1
  Mg  Mg14  1  0.85540400  0.35735800  0.27680100  1
  Mg  Mg15  1  0.12774700  0.08501500  0.26935300  1
  Mg  Mg16  1  0.88519400  0.11480600  0.27307700  1
  Mg  Mg17  1  0.38519400  0.11480600  0.27307700  1
  Mg  Mg18  1  0.91498500  0.87225300  0.26935300  1
  Mg  Mg19  1  0.46674900  0.88519400  0.26288300  1
  Mg  Mg20  1  0.64264200  0.14459600  0.27680100  1
  Mg  Mg21  1  0.88519400  0.61480600  0.27307700  1
  Mg  Mg22  1  0.38519400  0.61480600  0.27307700  1
  Mg  Mg23  1  0.65558300  0.69636100  0.28327100  1
  Mg  Mg24  1  0.51498500  0.27225300  0.31935300  1
  Mg  Mg25  1  0.31480600  0.33325100  0.36288300  1
  Mg  Mg26  1  0.06674900  0.28519400  0.31288300  1
  Mg  Mg27  1  0.50363900  0.14441700  0.38327100  1
  Mg  Mg28  1  0.24264200  0.54459600  0.32680100  1
  Mg  Mg29  1  0.48519400  0.01480600  0.32307700  1
  Mg  Mg30  1  0.05540400  0.15735800  0.37680100  1
  Mg  Mg31  1  0.98519400  0.01480600  0.32307700  1
  Mg  Mg32  1  0.25558300  0.09636100  0.33327100  1
  Mg  Mg33  1  0.32774700  0.88501500  0.36935300  1
  Mg  Mg34  1  0.08519400  0.91480600  0.37307700  1
  Mg  Mg35  1  0.58519400  0.91480600  0.37307700  1
  Mg  Mg36  1  0.11498500  0.67225300  0.36935300  1
  Mg  Mg37  1  0.71480600  0.93325100  0.31288300  1
  Mg  Mg38  1  0.66674900  0.68519400  0.36288300  1
  Mg  Mg39  1  0.90363900  0.74441700  0.33327100  1
  Mg  Mg40  1  0.84264200  0.94459600  0.37680100  1
  Mg  Mg41  1  0.08519400  0.41480600  0.37307700  1
  Mg  Mg42  1  0.45540400  0.75735800  0.32680100  1
  Mg  Mg43  1  0.58519400  0.41480600  0.37307700  1
  Mg  Mg44  1  0.85558300  0.49636100  0.38327100  1
  Mg  Mg45  1  0.72774700  0.48501500  0.31935300  1
  Mg  Mg46  1  0.48519400  0.51480600  0.32307700  1
  Mg  Mg47  1  0.98519400  0.51480600  0.32307700  1
  Mg  Mg48  1  0.71498500  0.07225300  0.41935300  1
  Mg  Mg49  1  0.51480600  0.13325100  0.46288300  1
  Mg  Mg50  1  0.26674900  0.08519400  0.41288300  1
  Mg  Mg51  1  0.70363900  0.94441700  0.48327100  1
  Mg  Mg52  1  0.44264200  0.34459600  0.42680100  1
  Mg  Mg53  1  0.68519400  0.81480600  0.42307700  1
  Mg  Mg54  1  0.25540400  0.95735800  0.47680100  1
  Mg  Mg55  1  0.18519400  0.81480600  0.42307700  1
  Mg  Mg56  1  0.45558300  0.89636100  0.43327100  1
  Mg  Mg57  1  0.52774700  0.68501500  0.46935300  1
  Mg  Mg58  1  0.28519400  0.71480600  0.47307700  1
  Mg  Mg59  1  0.78519400  0.71480600  0.47307700  1
  Mg  Mg60  1  0.31498500  0.47225300  0.46935300  1
  Mg  Mg61  1  0.91480600  0.73325100  0.41288300  1
  Mg  Mg62  1  0.86674900  0.48519400  0.46288300  1
  Mg  Mg63  1  0.10363900  0.54441700  0.43327100  1
  Mg  Mg64  1  0.04264200  0.74459600  0.47680100  1
  Mg  Mg65  1  0.28519400  0.21480600  0.47307700  1
  Mg  Mg66  1  0.65540400  0.55735800  0.42680100  1
  Mg  Mg67  1  0.78519400  0.21480600  0.47307700  1
  Mg  Mg68  1  0.05558300  0.29636100  0.48327100  1
  Mg  Mg69  1  0.92774700  0.28501500  0.41935300  1
  Mg  Mg70  1  0.68519400  0.31480600  0.42307700  1
  Mg  Mg71  1  0.18519400  0.31480600  0.42307700  1
  Mg  Mg72  1  0.91498500  0.87225300  0.51935300  1
  Mg  Mg73  1  0.71480600  0.93325100  0.56288300  1
  Mg  Mg74  1  0.46674900  0.88519400  0.51288300  1
  Mg  Mg75  1  0.90363900  0.74441700  0.58327100  1
  Mg  Mg76  1  0.64264200  0.14459600  0.52680100  1
  Mg  Mg77  1  0.88519400  0.61480600  0.52307700  1
  Mg  Mg78  1  0.45540400  0.75735800  0.57680100  1
  Mg  Mg79  1  0.38519400  0.61480600  0.52307700  1
  Mg  Mg80  1  0.65558300  0.69636100  0.53327100  1
  Mg  Mg81  1  0.72774700  0.48501500  0.56935300  1
  Mg  Mg82  1  0.48519400  0.51480600  0.57307700  1
  Mg  Mg83  1  0.98519400  0.51480600  0.57307700  1
  Mg  Mg84  1  0.51498500  0.27225300  0.56935300  1
  Mg  Mg85  1  0.11480600  0.53325100  0.51288300  1
  Mg  Mg86  1  0.06674900  0.28519400  0.56288300  1
  Mg  Mg87  1  0.30363900  0.34441700  0.53327100  1
  Mg  Mg88  1  0.24264200  0.54459600  0.57680100  1
  Mg  Mg89  1  0.48519400  0.01480600  0.57307700  1
  Mg  Mg90  1  0.85540400  0.35735800  0.52680100  1
  Mg  Mg91  1  0.98519400  0.01480600  0.57307700  1
  Mg  Mg92  1  0.25558300  0.09636100  0.58327100  1
  Mg  Mg93  1  0.12774700  0.08501500  0.51935300  1
  Mg  Mg94  1  0.88519400  0.11480600  0.52307700  1
  Mg  Mg95  1  0.38519400  0.11480600  0.52307700  1
  Mg  Mg96  1  0.11498500  0.67225300  0.61935300  1
  Mg  Mg97  1  0.91480600  0.73325100  0.66288300  1
  Mg  Mg98  1  0.66674900  0.68519400  0.61288300  1
  Mg  Mg99  1  0.10363900  0.54441700  0.68327100  1
  Mg  Mg100  1  0.84264200  0.94459600  0.62680100  1
  Mg  Mg101  1  0.08519400  0.41480600  0.62307700  1
  Mg  Mg102  1  0.65540400  0.55735800  0.67680100  1
  Mg  Mg103  1  0.58519400  0.41480600  0.62307700  1
  Mg  Mg104  1  0.85558300  0.49636100  0.63327100  1
  Mg  Mg105  1  0.92774700  0.28501500  0.66935300  1
  Mg  Mg106  1  0.68519400  0.31480600  0.67307700  1
  Mg  Mg107  1  0.18519400  0.31480600  0.67307700  1
  Mg  Mg108  1  0.71498500  0.07225300  0.66935300  1
  Mg  Mg109  1  0.31480600  0.33325100  0.61288300  1
  Mg  Mg110  1  0.26674900  0.08519400  0.66288300  1
  Mg  Mg111  1  0.50363900  0.14441700  0.63327100  1
  Mg  Mg112  1  0.44264200  0.34459600  0.67680100  1
  Mg  Mg113  1  0.68519400  0.81480600  0.67307700  1
  Mg  Mg114  1  0.05540400  0.15735800  0.62680100  1
  Mg  Mg115  1  0.18519400  0.81480600  0.67307700  1
  Mg  Mg116  1  0.45558300  0.89636100  0.68327100  1
  Mg  Mg117  1  0.32774700  0.88501500  0.61935300  1
  Mg  Mg118  1  0.08519400  0.91480600  0.62307700  1
  Mg  Mg119  1  0.58519400  0.91480600  0.62307700  1
  Mg  Mg120  1  0.31498500  0.47225300  0.71935300  1
  Mg  Mg121  1  0.11480600  0.53325100  0.76288300  1
  Mg  Mg122  1  0.86674900  0.48519400  0.71288300  1
  Mg  Mg123  1  0.30363900  0.34441700  0.78327100  1
  Mg  Mg124  1  0.04264200  0.74459600  0.72680100  1
  Mg  Mg125  1  0.28519400  0.21480600  0.72307700  1
  Mg  Mg126  1  0.85540400  0.35735800  0.77680100  1
  Mg  Mg127  1  0.78519400  0.21480600  0.72307700  1
  Mg  Mg128  1  0.05558300  0.29636100  0.73327100  1
  Mg  Mg129  1  0.12774700  0.08501500  0.76935300  1
  Mg  Mg130  1  0.88519400  0.11480600  0.77307700  1
  Mg  Mg131  1  0.38519400  0.11480600  0.77307700  1
  Mg  Mg132  1  0.91498500  0.87225300  0.76935300  1
  Mg  Mg133  1  0.51480600  0.13325100  0.71288300  1
  Mg  Mg134  1  0.46674900  0.88519400  0.76288300  1
  Mg  Mg135  1  0.70363900  0.94441700  0.73327100  1
  Mg  Mg136  1  0.64264200  0.14459600  0.77680100  1
  Mg  Mg137  1  0.88519400  0.61480600  0.77307700  1
  Mg  Mg138  1  0.25540400  0.95735800  0.72680100  1
  Mg  Mg139  1  0.38519400  0.61480600  0.77307700  1
  Mg  Mg140  1  0.65558300  0.69636100  0.78327100  1
  Mg  Mg141  1  0.52774700  0.68501500  0.71935300  1
  Mg  Mg142  1  0.28519400  0.71480600  0.72307700  1
  Mg  Mg143  1  0.78519400  0.71480600  0.72307700  1
