# generated using pymatgen
data_MgSc2
_symmetry_space_group_name_H-M   'P 1'
_cell_length_a   3.35466600
_cell_length_b   8.41162199
_cell_length_c   41.31249000
_cell_angle_alpha   90.00000000
_cell_angle_beta   90.00000000
_cell_angle_gamma   101.50226118
_symmetry_Int_Tables_number   1
_chemical_formula_structural   MgSc2
_chemical_formula_sum   'Mg10 Sc20'
_cell_volume   1142.35115600
_cell_formula_units_Z   10
loop_
 _symmetry_equiv_pos_site_id
 _symmetry_equiv_pos_as_xyz
  1  'x, y, z'
loop_
 _atom_site_type_symbol
 _atom_site_label
 _atom_site_symmetry_multiplicity
 _atom_site_fract_x
 _atom_site_fract_y
 _atom_site_fract_z
 _atom_site_occupancy
  Mg  Mg0  1  0.06240200  0.12480400  0.28125000  1
  Mg  Mg1  1  0.93759800  0.87519600  0.21875000  1
  Mg  Mg2  1  0.06240200  0.12480400  0.40625000  1
  Mg  Mg3  1  0.93759800  0.87519600  0.34375000  1
  Mg  Mg4  1  0.06240200  0.12480400  0.53125000  1
  Mg  Mg5  1  0.93759800  0.87519600  0.46875000  1
  Mg  Mg6  1  0.06240200  0.12480400  0.65625000  1
  Mg  Mg7  1  0.93759800  0.87519600  0.59375000  1
  Mg  Mg8  1  0.06240200  0.12480400  0.78125000  1
  Mg  Mg9  1  0.93759800  0.87519600  0.71875000  1
  Sc  Sc10  1  0.39760100  0.79520300  0.28125000  1
  Sc  Sc11  1  0.72677800  0.45355500  0.28125000  1
  Sc  Sc12  1  0.60239900  0.20479700  0.21875000  1
  Sc  Sc13  1  0.27322200  0.54644500  0.21875000  1
  Sc  Sc14  1  0.39760100  0.79520300  0.40625000  1
  Sc  Sc15  1  0.72677800  0.45355500  0.40625000  1
  Sc  Sc16  1  0.60239900  0.20479700  0.34375000  1
  Sc  Sc17  1  0.27322200  0.54644500  0.34375000  1
  Sc  Sc18  1  0.39760100  0.79520300  0.53125000  1
  Sc  Sc19  1  0.72677800  0.45355500  0.53125000  1
  Sc  Sc20  1  0.60239900  0.20479700  0.46875000  1
  Sc  Sc21  1  0.27322200  0.54644500  0.46875000  1
  Sc  Sc22  1  0.39760100  0.79520300  0.65625000  1
  Sc  Sc23  1  0.72677800  0.45355500  0.65625000  1
  Sc  Sc24  1  0.60239900  0.20479700  0.59375000  1
  Sc  Sc25  1  0.27322200  0.54644500  0.59375000  1
  Sc  Sc26  1  0.39760100  0.79520300  0.78125000  1
  Sc  Sc27  1  0.72677800  0.45355500  0.78125000  1
  Sc  Sc28  1  0.60239900  0.20479700  0.71875000  1
  Sc  Sc29  1  0.27322200  0.54644500  0.71875000  1
