# generated using pymatgen
data_Ce3Mg8
_symmetry_space_group_name_H-M   'P 1'
_cell_length_a   3.18877500
_cell_length_b   5.20463200
_cell_length_c   53.43870200
_cell_angle_alpha   90.00000000
_cell_angle_beta   90.00000000
_cell_angle_gamma   90.00000000
_symmetry_Int_Tables_number   1
_chemical_formula_structural   Ce3Mg8
_chemical_formula_sum   'Ce6 Mg16'
_cell_volume   886.89009556
_cell_formula_units_Z   2
loop_
 _symmetry_equiv_pos_site_id
 _symmetry_equiv_pos_as_xyz
  1  'x, y, z'
loop_
 _atom_site_type_symbol
 _atom_site_label
 _atom_site_symmetry_multiplicity
 _atom_site_fract_x
 _atom_site_fract_y
 _atom_site_fract_z
 _atom_site_occupancy
  Ce  Ce0  1  0.00000000  0.75000000  0.29263400  1
  Ce  Ce1  1  0.50000000  0.25000000  0.48514300  1
  Ce  Ce2  1  0.50000000  0.75000000  0.45930100  1
  Ce  Ce3  1  0.00000000  0.25000000  0.31847700  1
  Ce  Ce4  1  0.00000000  0.75000000  0.62596800  1
  Ce  Ce5  1  0.00000000  0.25000000  0.65181000  1
  Mg  Mg6  1  0.00000000  0.75000000  0.18075300  1
  Mg  Mg7  1  0.50000000  0.75000000  0.23295100  1
  Mg  Mg8  1  0.00000000  0.25000000  0.21149300  1
  Mg  Mg9  1  0.50000000  0.25000000  0.26369100  1
  Mg  Mg10  1  0.50000000  0.75000000  0.34742000  1
  Mg  Mg11  1  0.00000000  0.75000000  0.39961800  1
  Mg  Mg12  1  0.50000000  0.25000000  0.37816000  1
  Mg  Mg13  1  0.00000000  0.25000000  0.43035800  1
  Mg  Mg14  1  0.00000000  0.75000000  0.51408700  1
  Mg  Mg15  1  0.50000000  0.75000000  0.56628500  1
  Mg  Mg16  1  0.00000000  0.25000000  0.54482600  1
  Mg  Mg17  1  0.50000000  0.25000000  0.59702500  1
  Mg  Mg18  1  0.50000000  0.75000000  0.68075300  1
  Mg  Mg19  1  0.00000000  0.75000000  0.73295100  1
  Mg  Mg20  1  0.50000000  0.25000000  0.71149300  1
  Mg  Mg21  1  0.00000000  0.25000000  0.76369100  1
