# generated using pymatgen
data_MgZr2
_symmetry_space_group_name_H-M   'P 1'
_cell_length_a   3.23467100
_cell_length_b   3.23467053
_cell_length_c   70.28606400
_cell_angle_alpha   90.00000000
_cell_angle_beta   90.00000000
_cell_angle_gamma   119.99999462
_symmetry_Int_Tables_number   1
_chemical_formula_structural   MgZr2
_chemical_formula_sum   'Mg6 Zr12'
_cell_volume   636.88356964
_cell_formula_units_Z   6
loop_
 _symmetry_equiv_pos_site_id
 _symmetry_equiv_pos_as_xyz
  1  'x, y, z'
loop_
 _atom_site_type_symbol
 _atom_site_label
 _atom_site_symmetry_multiplicity
 _atom_site_fract_x
 _atom_site_fract_y
 _atom_site_fract_z
 _atom_site_occupancy
  Mg  Mg0  1  0.00000000  0.00000000  0.44444400  1
  Mg  Mg1  1  0.66666700  0.33333300  0.22222200  1
  Mg  Mg2  1  0.33333300  0.66666700  0.33333300  1
  Mg  Mg3  1  0.00000000  0.00000000  0.77777800  1
  Mg  Mg4  1  0.66666700  0.33333300  0.55555600  1
  Mg  Mg5  1  0.33333300  0.66666700  0.66666700  1
  Zr  Zr6  1  0.33333300  0.66666700  0.40643600  1
  Zr  Zr7  1  0.00000000  0.00000000  0.37134100  1
  Zr  Zr8  1  0.00000000  0.00000000  0.18421400  1
  Zr  Zr9  1  0.66666700  0.33333300  0.48245300  1
  Zr  Zr10  1  0.66666700  0.33333300  0.29532500  1
  Zr  Zr11  1  0.33333300  0.66666700  0.26023000  1
  Zr  Zr12  1  0.33333300  0.66666700  0.73977000  1
  Zr  Zr13  1  0.00000000  0.00000000  0.70467500  1
  Zr  Zr14  1  0.00000000  0.00000000  0.51754700  1
  Zr  Zr15  1  0.66666700  0.33333300  0.81578600  1
  Zr  Zr16  1  0.66666700  0.33333300  0.62865900  1
  Zr  Zr17  1  0.33333300  0.66666700  0.59356400  1
