# generated using pymatgen
data_MgAg3
_symmetry_space_group_name_H-M   'P 1'
_cell_length_a   4.80183000
_cell_length_b   5.90771900
_cell_length_c   40.92988000
_cell_angle_alpha   90.00000000
_cell_angle_beta   90.00000000
_cell_angle_gamma   90.00000000
_symmetry_Int_Tables_number   1
_chemical_formula_structural   MgAg3
_chemical_formula_sum   'Mg10 Ag30'
_cell_volume   1161.09320085
_cell_formula_units_Z   10
loop_
 _symmetry_equiv_pos_site_id
 _symmetry_equiv_pos_as_xyz
  1  'x, y, z'
loop_
 _atom_site_type_symbol
 _atom_site_label
 _atom_site_symmetry_multiplicity
 _atom_site_fract_x
 _atom_site_fract_y
 _atom_site_fract_z
 _atom_site_occupancy
  Mg  Mg0  1  0.75000000  0.50000000  0.22916700  1
  Mg  Mg1  1  0.25000000  0.00000000  0.27083300  1
  Mg  Mg2  1  0.75000000  1.00000000  0.35416700  1
  Mg  Mg3  1  0.25000000  0.50000000  0.39583300  1
  Mg  Mg4  1  0.75000000  0.50000000  0.47916700  1
  Mg  Mg5  1  0.25000000  0.00000000  0.52083300  1
  Mg  Mg6  1  0.75000000  0.00000000  0.60416700  1
  Mg  Mg7  1  0.25000000  0.50000000  0.64583300  1
  Mg  Mg8  1  0.75000000  0.50000000  0.72916700  1
  Mg  Mg9  1  0.25000000  1.00000000  0.77083300  1
  Ag  Ag10  1  0.75000000  0.00000000  0.22916000  1
  Ag  Ag11  1  0.75000000  0.74995900  0.29167000  1
  Ag  Ag12  1  0.75000000  0.25004100  0.29167000  1
  Ag  Ag13  1  0.25000000  0.24995900  0.20833000  1
  Ag  Ag14  1  0.25000000  0.75004100  0.20833000  1
  Ag  Ag15  1  0.25000000  0.50000000  0.27084000  1
  Ag  Ag16  1  0.75000000  0.50000000  0.35416000  1
  Ag  Ag17  1  0.75000000  0.24995900  0.41667000  1
  Ag  Ag18  1  0.75000000  0.75004100  0.41667000  1
  Ag  Ag19  1  0.25000000  0.74995900  0.33333000  1
  Ag  Ag20  1  0.25000000  0.25004100  0.33333000  1
  Ag  Ag21  1  0.25000000  1.00000000  0.39584000  1
  Ag  Ag22  1  0.75000000  0.00000000  0.47916000  1
  Ag  Ag23  1  0.75000000  0.74995900  0.54167000  1
  Ag  Ag24  1  0.75000000  0.25004100  0.54167000  1
  Ag  Ag25  1  0.25000000  0.24995900  0.45833000  1
  Ag  Ag26  1  0.25000000  0.75004100  0.45833000  1
  Ag  Ag27  1  0.25000000  0.50000000  0.52084000  1
  Ag  Ag28  1  0.75000000  0.50000000  0.60416000  1
  Ag  Ag29  1  0.75000000  0.24995900  0.66667000  1
  Ag  Ag30  1  0.75000000  0.75004100  0.66667000  1
  Ag  Ag31  1  0.25000000  0.74995900  0.58333000  1
  Ag  Ag32  1  0.25000000  0.25004100  0.58333000  1
  Ag  Ag33  1  0.25000000  0.00000000  0.64584000  1
  Ag  Ag34  1  0.75000000  1.00000000  0.72916000  1
  Ag  Ag35  1  0.75000000  0.74995900  0.79167000  1
  Ag  Ag36  1  0.75000000  0.25004100  0.79167000  1
  Ag  Ag37  1  0.25000000  0.24995900  0.70833000  1
  Ag  Ag38  1  0.25000000  0.75004100  0.70833000  1
  Ag  Ag39  1  0.25000000  0.50000000  0.77084000  1
