# generated using pymatgen
data_Nd2Mg
_symmetry_space_group_name_H-M   'P 1'
_cell_length_a   5.67409700
_cell_length_b   8.93304483
_cell_length_c   41.30115800
_cell_angle_alpha   89.76705242
_cell_angle_beta   90.00000000
_cell_angle_gamma   90.00000000
_symmetry_Int_Tables_number   1
_chemical_formula_structural   Nd2Mg
_chemical_formula_sum   'Nd28 Mg14'
_cell_volume   2093.41296024
_cell_formula_units_Z   14
loop_
 _symmetry_equiv_pos_site_id
 _symmetry_equiv_pos_as_xyz
  1  'x, y, z'
loop_
 _atom_site_type_symbol
 _atom_site_label
 _atom_site_symmetry_multiplicity
 _atom_site_fract_x
 _atom_site_fract_y
 _atom_site_fract_z
 _atom_site_occupancy
  Nd  Nd0  1  0.25000000  0.34801700  0.81026800  1
  Nd  Nd1  1  0.25000000  0.64893800  0.74831900  1
  Nd  Nd2  1  0.75000000  0.92471000  0.73518700  1
  Nd  Nd3  1  0.75000000  0.62378900  0.79713600  1
  Nd  Nd4  1  0.25000000  0.25710800  0.71935900  1
  Nd  Nd5  1  0.25000000  0.55802900  0.65741000  1
  Nd  Nd6  1  0.75000000  0.83380100  0.64427800  1
  Nd  Nd7  1  0.75000000  0.53288000  0.70622600  1
  Nd  Nd8  1  0.25000000  0.16619900  0.62844900  1
  Nd  Nd9  1  0.25000000  0.46712000  0.56650100  1
  Nd  Nd10  1  0.75000000  0.74289200  0.55336900  1
  Nd  Nd11  1  0.75000000  0.44197100  0.61531700  1
  Nd  Nd12  1  0.25000000  0.07529000  0.53754000  1
  Nd  Nd13  1  0.25000000  0.37621100  0.47559200  1
  Nd  Nd14  1  0.75000000  0.65198300  0.46246000  1
  Nd  Nd15  1  0.75000000  0.35106200  0.52440800  1
  Nd  Nd16  1  0.25000000  0.98438100  0.44663100  1
  Nd  Nd17  1  0.25000000  0.28530200  0.38468300  1
  Nd  Nd18  1  0.75000000  0.56107400  0.37155100  1
  Nd  Nd19  1  0.75000000  0.26015300  0.43349900  1
  Nd  Nd20  1  0.25000000  0.89347100  0.35572200  1
  Nd  Nd21  1  0.25000000  0.19439300  0.29377400  1
  Nd  Nd22  1  0.75000000  0.47016500  0.28064100  1
  Nd  Nd23  1  0.75000000  0.16924400  0.34259000  1
  Nd  Nd24  1  0.25000000  0.80256200  0.26481300  1
  Nd  Nd25  1  0.25000000  0.10348300  0.20286400  1
  Nd  Nd26  1  0.75000000  0.37925600  0.18973200  1
  Nd  Nd27  1  0.75000000  0.07833500  0.25168100  1
  Mg  Mg28  1  0.25000000  0.00191000  0.77913000  1
  Mg  Mg29  1  0.75000000  0.27081700  0.76632500  1
  Mg  Mg30  1  0.25000000  0.91100100  0.68822100  1
  Mg  Mg31  1  0.75000000  0.17990800  0.67541600  1
  Mg  Mg32  1  0.25000000  0.82009200  0.59731200  1
  Mg  Mg33  1  0.75000000  0.08899900  0.58450700  1
  Mg  Mg34  1  0.25000000  0.72918300  0.50640300  1
  Mg  Mg35  1  0.75000000  0.99809000  0.49359700  1
  Mg  Mg36  1  0.25000000  0.63827300  0.41549300  1
  Mg  Mg37  1  0.75000000  0.90718100  0.40268800  1
  Mg  Mg38  1  0.25000000  0.54736400  0.32458400  1
  Mg  Mg39  1  0.75000000  0.81627200  0.31177900  1
  Mg  Mg40  1  0.25000000  0.45645500  0.23367500  1
  Mg  Mg41  1  0.75000000  0.72536300  0.22087000  1
