# generated using pymatgen
data_Mg131Rh54
_symmetry_space_group_name_H-M   'P 1'
_cell_length_a   11.79877580
_cell_length_b   11.79877571
_cell_length_c   42.13651500
_cell_angle_alpha   95.11887838
_cell_angle_beta   84.88112166
_cell_angle_gamma   101.27924998
_symmetry_Int_Tables_number   1
_chemical_formula_structural   Mg131Rh54
_chemical_formula_sum   'Mg131 Rh54'
_cell_volume   5714.14400078
_cell_formula_units_Z   1
loop_
 _symmetry_equiv_pos_site_id
 _symmetry_equiv_pos_as_xyz
  1  'x, y, z'
loop_
 _atom_site_type_symbol
 _atom_site_label
 _atom_site_symmetry_multiplicity
 _atom_site_fract_x
 _atom_site_fract_y
 _atom_site_fract_z
 _atom_site_occupancy
  Mg  Mg0  1  0.11510700  0.88489300  0.20941600  1
  Mg  Mg1  1  0.29692500  0.70307500  0.25487000  1
  Mg  Mg2  1  0.42441000  0.11582300  0.26662500  1
  Mg  Mg3  1  0.70235900  0.75740800  0.22117000  1
  Mg  Mg4  1  0.56443100  0.51603500  0.18668800  1
  Mg  Mg5  1  0.66578300  0.25375100  0.23214300  1
  Mg  Mg6  1  0.52785600  0.01237700  0.19766100  1
  Mg  Mg7  1  0.16944100  0.29032600  0.24311600  1
  Mg  Mg8  1  0.91773900  0.89096200  0.25572300  1
  Mg  Mg9  1  0.92721900  0.26407900  0.21026800  1
  Mg  Mg10  1  0.08216600  0.53523600  0.24900500  1
  Mg  Mg11  1  0.28294600  0.09965200  0.20355000  1
  Mg  Mg12  1  0.43789200  0.37080900  0.24228700  1
  Mg  Mg13  1  0.67611200  0.51518700  0.25401700  1
  Mg  Mg14  1  0.15595800  0.03534100  0.26745300  1
  Mg  Mg15  1  0.44737300  0.74392600  0.19683300  1
  Mg  Mg16  1  0.94726900  0.67013400  0.21528100  1
  Mg  Mg17  1  0.51168500  0.87091300  0.26073500  1
  Mg  Mg18  1  0.78284100  0.02586000  0.22199900  1
  Mg  Mg19  1  0.30299500  0.50570600  0.20856300  1
  Mg  Mg20  1  0.47874400  0.52125600  0.30032500  1
  Mg  Mg21  1  0.66056200  0.33943800  0.34577900  1
  Mg  Mg22  1  0.78804600  0.75218700  0.35753400  1
  Mg  Mg23  1  0.06599500  0.39377200  0.31207900  1
  Mg  Mg24  1  0.92806800  0.15239900  0.27759700  1
  Mg  Mg25  1  0.02942000  0.89011400  0.32305200  1
  Mg  Mg26  1  0.89149200  0.64874100  0.28857000  1
  Mg  Mg27  1  0.53307700  0.92669000  0.33402500  1
  Mg  Mg28  1  0.28137500  0.52732600  0.34663200  1
  Mg  Mg29  1  0.29085600  0.90044300  0.30117700  1
  Mg  Mg30  1  0.44580300  0.17160000  0.33991400  1
  Mg  Mg31  1  0.64658200  0.73601600  0.29446000  1
  Mg  Mg32  1  0.80152900  0.00717200  0.33319600  1
  Mg  Mg33  1  0.03974800  0.15155100  0.34492600  1
  Mg  Mg34  1  0.51959500  0.67170400  0.35836200  1
  Mg  Mg35  1  0.81100900  0.38028900  0.28774200  1
  Mg  Mg36  1  0.31090500  0.30649700  0.30619000  1
  Mg  Mg37  1  0.87532100  0.50727700  0.35164400  1
  Mg  Mg38  1  0.14647800  0.66222300  0.31290800  1
  Mg  Mg39  1  0.66663100  0.14207000  0.29947200  1
  Mg  Mg40  1  0.84238000  0.15762000  0.39123400  1
  Mg  Mg41  1  0.02419800  0.97580200  0.43668800  1
  Mg  Mg42  1  0.15168300  0.38855000  0.44844300  1
  Mg  Mg43  1  0.42963100  0.03013500  0.40298800  1
  Mg  Mg44  1  0.29170400  0.78876200  0.36850600  1
  Mg  Mg45  1  0.39305600  0.52647800  0.41396100  1
  Mg  Mg46  1  0.25512800  0.28510500  0.37947900  1
  Mg  Mg47  1  0.89671300  0.56305300  0.42493400  1
  Mg  Mg48  1  0.64501200  0.16369000  0.43754100  1
  Mg  Mg49  1  0.65449200  0.53680700  0.39208700  1
  Mg  Mg50  1  0.80943900  0.80796300  0.43082300  1
  Mg  Mg51  1  0.01021800  0.37237900  0.38536900  1
  Mg  Mg52  1  0.16516500  0.64353600  0.42410500  1
  Mg  Mg53  1  0.40338500  0.78791400  0.43583600  1
  Mg  Mg54  1  0.88323100  0.30806800  0.44927100  1
  Mg  Mg55  1  0.17464600  0.01665300  0.37865100  1
  Mg  Mg56  1  0.67454100  0.94286100  0.39709900  1
  Mg  Mg57  1  0.23895700  0.14364000  0.44255300  1
  Mg  Mg58  1  0.51011400  0.29858700  0.40381700  1
  Mg  Mg59  1  0.03026800  0.77843300  0.39038100  1
  Mg  Mg60  1  0.20601600  0.79398400  0.48214300  1
  Mg  Mg61  1  0.38783400  0.61216600  0.52759700  1
  Mg  Mg62  1  0.51531900  0.02491400  0.53935200  1
  Mg  Mg63  1  0.79326800  0.66649900  0.49389700  1
  Mg  Mg64  1  0.65534000  0.42512600  0.45941600  1
  Mg  Mg65  1  0.75669200  0.16284100  0.50487000  1
  Mg  Mg66  1  0.61876500  0.92146800  0.47038800  1
  Mg  Mg67  1  0.26035000  0.19941700  0.51584300  1
  Mg  Mg68  1  0.00864800  0.80005300  0.52845000  1
  Mg  Mg69  1  0.01812900  0.17317000  0.48299600  1
  Mg  Mg70  1  0.17307500  0.44432700  0.52173200  1
  Mg  Mg71  1  0.37385500  0.00874300  0.47627800  1
  Mg  Mg72  1  0.52880100  0.27990000  0.51501400  1
  Mg  Mg73  1  0.76702100  0.42427800  0.52674500  1
  Mg  Mg74  1  0.24686700  0.94443100  0.54018000  1
  Mg  Mg75  1  0.53828200  0.65301700  0.46956000  1
  Mg  Mg76  1  0.03817800  0.57922500  0.48800800  1
  Mg  Mg77  1  0.60259400  0.78000400  0.53346200  1
  Mg  Mg78  1  0.87375000  0.93495100  0.49472600  1
  Mg  Mg79  1  0.39390400  0.41479700  0.48129000  1
  Mg  Mg80  1  0.56965300  0.43034700  0.57305200  1
  Mg  Mg81  1  0.75147100  0.24852900  0.61850600  1
  Mg  Mg82  1  0.87895600  0.66127800  0.63026100  1
  Mg  Mg83  1  0.15690400  0.30286300  0.58480700  1
  Mg  Mg84  1  0.01897700  0.06149000  0.55032500  1
  Mg  Mg85  1  0.12032900  0.79920500  0.59577900  1
  Mg  Mg86  1  0.98240100  0.55783200  0.56129700  1
  Mg  Mg87  1  0.62398600  0.83578100  0.60675200  1
  Mg  Mg88  1  0.37228400  0.43641700  0.61935900  1
  Mg  Mg89  1  0.38176500  0.80953400  0.57390500  1
  Mg  Mg90  1  0.53671200  0.08069100  0.61264100  1
  Mg  Mg91  1  0.73749100  0.64510700  0.56718700  1
  Mg  Mg92  1  0.89243800  0.91626300  0.60592400  1
  Mg  Mg93  1  0.13065700  0.06064100  0.61765400  1
  Mg  Mg94  1  0.61050400  0.58079500  0.63108900  1
  Mg  Mg95  1  0.90191900  0.28938000  0.56046900  1
  Mg  Mg96  1  0.40181400  0.21558800  0.57891700  1
  Mg  Mg97  1  0.96623000  0.41636800  0.62437200  1
  Mg  Mg98  1  0.23738700  0.57131400  0.58563500  1
  Mg  Mg99  1  0.75754000  0.05116100  0.57219900  1
  Mg  Mg100  1  0.93328900  0.06671100  0.66396100  1
  Mg  Mg101  1  0.11510700  0.88489300  0.70941600  1
  Mg  Mg102  1  0.24259200  0.29764100  0.72117000  1
  Mg  Mg103  1  0.52054100  0.93922600  0.67571600  1
  Mg  Mg104  1  0.38261300  0.69785300  0.64123400  1
  Mg  Mg105  1  0.48396500  0.43556900  0.68668800  1
  Mg  Mg106  1  0.34603700  0.19419600  0.65220600  1
  Mg  Mg107  1  0.98762300  0.47214400  0.69766100  1
  Mg  Mg108  1  0.73592100  0.07278100  0.71026800  1
  Mg  Mg109  1  0.74540100  0.44589800  0.66481400  1
  Mg  Mg110  1  0.90034800  0.71705400  0.70355000  1
  Mg  Mg111  1  0.10112800  0.28147000  0.65809600  1
  Mg  Mg112  1  0.25607400  0.55262700  0.69683300  1
  Mg  Mg113  1  0.49429400  0.69700500  0.70856300  1
  Mg  Mg114  1  0.97414000  0.21715900  0.72199900  1
  Mg  Mg115  1  0.26555500  0.92574400  0.65137800  1
  Mg  Mg116  1  0.76545100  0.85195200  0.66982600  1
  Mg  Mg117  1  0.32986600  0.05273100  0.71528100  1
  Mg  Mg118  1  0.60102300  0.20767800  0.67654400  1
  Mg  Mg119  1  0.12117700  0.68752400  0.66310800  1
  Mg  Mg120  1  0.29692500  0.70307500  0.75487000  1
  Mg  Mg121  1  0.88417700  0.57559000  0.76662500  1
  Mg  Mg122  1  0.74624900  0.33421700  0.73214300  1
  Mg  Mg123  1  0.84760100  0.07193200  0.77759700  1
  Mg  Mg124  1  0.70967400  0.83055900  0.74311600  1
  Mg  Mg125  1  0.10903800  0.08226100  0.75572300  1
  Mg  Mg126  1  0.46476400  0.91783400  0.74900500  1
  Mg  Mg127  1  0.62919100  0.56210800  0.74228700  1
  Mg  Mg128  1  0.12908700  0.48831500  0.76073500  1
  Mg  Mg129  1  0.96465900  0.84404200  0.76745300  1
  Mg  Mg130  1  0.48481300  0.32388800  0.75401700  1
  Rh  Rh131  1  0.35753100  0.30913500  0.18668800  1
  Rh  Rh132  1  0.87268300  0.46065000  0.23214300  1
  Rh  Rh133  1  0.09483100  0.78286500  0.26549800  1
  Rh  Rh134  1  0.03531700  0.08698700  0.22004400  1
  Rh  Rh135  1  0.90189500  0.85349800  0.18668800  1
  Rh  Rh136  1  0.32832000  0.91628700  0.23214300  1
  Rh  Rh137  1  0.19489800  0.68279900  0.19878700  1
  Rh  Rh138  1  0.49901900  0.62328400  0.24424200  1
  Rh  Rh139  1  0.72116800  0.94549900  0.27759700  1
  Rh  Rh140  1  0.23631900  0.09701400  0.32305200  1
  Rh  Rh141  1  0.45846800  0.41922900  0.35640700  1
  Rh  Rh142  1  0.39895300  0.72335100  0.31095300  1
  Rh  Rh143  1  0.26553100  0.48986200  0.27759700  1
  Rh  Rh144  1  0.69195600  0.55265100  0.32305200  1
  Rh  Rh145  1  0.55853400  0.31916200  0.28969600  1
  Rh  Rh146  1  0.86265600  0.25964800  0.33515100  1
  Rh  Rh147  1  0.08480400  0.58186300  0.36850600  1
  Rh  Rh148  1  0.59995600  0.73337800  0.41396100  1
  Rh  Rh149  1  0.82210400  0.05559200  0.44731700  1
  Rh  Rh150  1  0.76258900  0.35971400  0.40186200  1
  Rh  Rh151  1  0.62916700  0.12622600  0.36850600  1
  Rh  Rh152  1  0.05559200  0.18901400  0.41396100  1
  Rh  Rh153  1  0.92217100  0.95552600  0.38060600  1
  Rh  Rh154  1  0.22629200  0.89601100  0.42606000  1
  Rh  Rh155  1  0.44844100  0.21822600  0.45941600  1
  Rh  Rh156  1  0.96359200  0.36974100  0.50487000  1
  Rh  Rh157  1  0.18574000  0.69195600  0.53822600  1
  Rh  Rh158  1  0.12622600  0.99607800  0.49277100  1
  Rh  Rh159  1  0.99280400  0.76258900  0.45941600  1
  Rh  Rh160  1  0.41922900  0.82537800  0.50487000  1
  Rh  Rh161  1  0.28580700  0.59189000  0.47151500  1
  Rh  Rh162  1  0.58992900  0.53237500  0.51696900  1
  Rh  Rh163  1  0.81207700  0.85459000  0.55032500  1
  Rh  Rh164  1  0.32722800  0.00610500  0.59577900  1
  Rh  Rh165  1  0.54937700  0.32832000  0.62913500  1
  Rh  Rh166  1  0.48986200  0.63244100  0.58368000  1
  Rh  Rh167  1  0.35644000  0.39895300  0.55032500  1
  Rh  Rh168  1  0.78286500  0.46174200  0.59577900  1
  Rh  Rh169  1  0.64944300  0.22825300  0.56242400  1
  Rh  Rh170  1  0.95356500  0.16873900  0.60787800  1
  Rh  Rh171  1  0.17571300  0.49095300  0.64123400  1
  Rh  Rh172  1  0.69086500  0.64246900  0.68668800  1
  Rh  Rh173  1  0.91301300  0.96468300  0.72004400  1
  Rh  Rh174  1  0.85349800  0.26880500  0.67458900  1
  Rh  Rh175  1  0.72007600  0.03531700  0.64123400  1
  Rh  Rh176  1  0.14650200  0.09810500  0.68668800  1
  Rh  Rh177  1  0.01308000  0.86461700  0.65333300  1
  Rh  Rh178  1  0.31720100  0.80510200  0.69878700  1
  Rh  Rh179  1  0.53935000  0.12731700  0.73214300  1
  Rh  Rh180  1  0.05450100  0.27883200  0.77759700  1
  Rh  Rh181  1  0.21713500  0.90516900  0.76549800  1
  Rh  Rh182  1  0.08371300  0.67168000  0.73214300  1
  Rh  Rh183  1  0.51013800  0.73446900  0.77759700  1
  Rh  Rh184  1  0.37671600  0.50098100  0.74424200  1
