# generated using pymatgen
data_Mg8Hg15
_symmetry_space_group_name_H-M   'P 1'
_cell_length_a   3.51707100
_cell_length_b   11.62911591
_cell_length_c   47.45470900
_cell_angle_alpha   87.71781654
_cell_angle_beta   90.00000000
_cell_angle_gamma   90.00000000
_symmetry_Int_Tables_number   1
_chemical_formula_structural   Mg8Hg15
_chemical_formula_sum   'Mg16 Hg30'
_cell_volume   1939.37834396
_cell_formula_units_Z   2
loop_
 _symmetry_equiv_pos_site_id
 _symmetry_equiv_pos_as_xyz
  1  'x, y, z'
loop_
 _atom_site_type_symbol
 _atom_site_label
 _atom_site_symmetry_multiplicity
 _atom_site_fract_x
 _atom_site_fract_y
 _atom_site_fract_z
 _atom_site_occupancy
  Mg  Mg0  1  0.50000000  0.51526600  0.23775600  1
  Mg  Mg1  1  1.00000000  0.03615200  0.23843500  1
  Mg  Mg2  1  1.00000000  0.08669500  0.30918500  1
  Mg  Mg3  1  0.50000000  0.60758000  0.30986300  1
  Mg  Mg4  1  0.50000000  0.65812300  0.38061300  1
  Mg  Mg5  1  0.00000000  0.17900900  0.38129200  1
  Mg  Mg6  1  1.00000000  0.22955200  0.45204200  1
  Mg  Mg7  1  0.50000000  0.75043700  0.45272000  1
  Mg  Mg8  1  0.50000000  0.80098000  0.52347000  1
  Mg  Mg9  1  0.00000000  0.32186600  0.52414900  1
  Mg  Mg10  1  0.00000000  0.37240900  0.59489900  1
  Mg  Mg11  1  0.50000000  0.89329500  0.59557700  1
  Mg  Mg12  1  0.50000000  0.94383700  0.66632700  1
  Mg  Mg13  1  1.00000000  0.46472300  0.66700600  1
  Mg  Mg14  1  1.00000000  0.51526600  0.73775600  1
  Mg  Mg15  1  0.50000000  0.03615200  0.73843500  1
  Hg  Hg16  1  0.00000000  0.42156500  0.28501800  1
  Hg  Hg17  1  0.50000000  0.27271000  0.33402900  1
  Hg  Hg18  1  1.00000000  0.48093100  0.35404000  1
  Hg  Hg19  1  0.50000000  0.21334400  0.26500700  1
  Hg  Hg20  1  0.50000000  0.85013600  0.21359000  1
  Hg  Hg21  1  0.00000000  0.70128200  0.26260100  1
  Hg  Hg22  1  0.50000000  0.90950300  0.28261200  1
  Hg  Hg23  1  0.00000000  0.78477200  0.33643600  1
  Hg  Hg24  1  0.00000000  0.56442200  0.42787500  1
  Hg  Hg25  1  0.50000000  0.41556700  0.47688700  1
  Hg  Hg26  1  0.00000000  0.62378800  0.49689700  1
  Hg  Hg27  1  0.50000000  0.35620100  0.40786500  1
  Hg  Hg28  1  0.50000000  0.99299300  0.35644700  1
  Hg  Hg29  1  1.00000000  0.84413900  0.40545800  1
  Hg  Hg30  1  0.50000000  0.05236000  0.42546900  1
  Hg  Hg31  1  1.00000000  0.92762900  0.47929300  1
  Hg  Hg32  1  0.00000000  0.70727900  0.57073300  1
  Hg  Hg33  1  0.50000000  0.55842400  0.61974400  1
  Hg  Hg34  1  1.00000000  0.76664600  0.63975400  1
  Hg  Hg35  1  0.50000000  0.49905800  0.55072200  1
  Hg  Hg36  1  0.50000000  0.13585100  0.49930400  1
  Hg  Hg37  1  0.00000000  0.98699600  0.54831500  1
  Hg  Hg38  1  0.50000000  0.19521700  0.56832600  1
  Hg  Hg39  1  0.00000000  0.07048700  0.62215000  1
  Hg  Hg40  1  1.00000000  0.85013600  0.71359000  1
  Hg  Hg41  1  0.50000000  0.70128200  0.76260100  1
  Hg  Hg42  1  0.50000000  0.64191500  0.69357900  1
  Hg  Hg43  1  0.50000000  0.27870800  0.64216100  1
  Hg  Hg44  1  0.00000000  0.12985300  0.69117200  1
  Hg  Hg45  1  0.50000000  0.33807400  0.71118300  1
