# generated using pymatgen
data_Mg7Zr23
_symmetry_space_group_name_H-M   'P 1'
_cell_length_a   4.47500400
_cell_length_b   6.32861099
_cell_length_c   41.25749600
_cell_angle_alpha   94.39870258
_cell_angle_beta   90.00000000
_cell_angle_gamma   90.00000000
_symmetry_Int_Tables_number   1
_chemical_formula_structural   Mg7Zr23
_chemical_formula_sum   'Mg7 Zr23'
_cell_volume   1164.99373144
_cell_formula_units_Z   1
loop_
 _symmetry_equiv_pos_site_id
 _symmetry_equiv_pos_as_xyz
  1  'x, y, z'
loop_
 _atom_site_type_symbol
 _atom_site_label
 _atom_site_symmetry_multiplicity
 _atom_site_fract_x
 _atom_site_fract_y
 _atom_site_fract_z
 _atom_site_occupancy
  Mg  Mg0  1  0.00000000  0.65384600  0.25000000  1
  Mg  Mg1  1  0.00000000  0.19230800  0.32692300  1
  Mg  Mg2  1  0.00000000  0.73076900  0.40384600  1
  Mg  Mg3  1  0.00000000  0.26923100  0.48076900  1
  Mg  Mg4  1  0.00000000  0.80769200  0.55769200  1
  Mg  Mg5  1  0.00000000  0.34615400  0.63461500  1
  Mg  Mg6  1  0.00000000  0.88461500  0.71153800  1
  Zr  Zr7  1  1.00000000  0.15384600  0.25000000  1
  Zr  Zr8  1  0.50000000  0.88461500  0.21153800  1
  Zr  Zr9  1  0.50000000  0.38461500  0.21153800  1
  Zr  Zr10  1  0.00000000  0.69230800  0.32692300  1
  Zr  Zr11  1  0.50000000  0.42307700  0.28846200  1
  Zr  Zr12  1  0.50000000  0.92307700  0.28846200  1
  Zr  Zr13  1  0.00000000  0.23076900  0.40384600  1
  Zr  Zr14  1  0.50000000  0.96153800  0.36538500  1
  Zr  Zr15  1  0.50000000  0.46153800  0.36538500  1
  Zr  Zr16  1  1.00000000  0.76923100  0.48076900  1
  Zr  Zr17  1  0.50000000  0.50000000  0.44230800  1
  Zr  Zr18  1  0.50000000  1.00000000  0.44230800  1
  Zr  Zr19  1  0.00000000  0.30769200  0.55769200  1
  Zr  Zr20  1  0.50000000  0.03846200  0.51923100  1
  Zr  Zr21  1  0.50000000  0.53846200  0.51923100  1
  Zr  Zr22  1  0.00000000  0.84615400  0.63461500  1
  Zr  Zr23  1  0.50000000  0.57692300  0.59615400  1
  Zr  Zr24  1  0.50000000  0.07692300  0.59615400  1
  Zr  Zr25  1  0.00000000  0.38461500  0.71153800  1
  Zr  Zr26  1  0.50000000  0.11538500  0.67307700  1
  Zr  Zr27  1  0.50000000  0.61538500  0.67307700  1
  Zr  Zr28  1  0.50000000  0.65384600  0.75000000  1
  Zr  Zr29  1  0.50000000  0.15384600  0.75000000  1
