# generated using pymatgen
data_CeMg
_symmetry_space_group_name_H-M   'P 1'
_cell_length_a   3.48032000
_cell_length_b   5.83029931
_cell_length_c   51.57883300
_cell_angle_alpha   92.73522403
_cell_angle_beta   90.00000000
_cell_angle_gamma   90.00000000
_symmetry_Int_Tables_number   1
_chemical_formula_structural   CeMg
_chemical_formula_sum   'Ce12 Mg12'
_cell_volume   1045.40958362
_cell_formula_units_Z   12
loop_
 _symmetry_equiv_pos_site_id
 _symmetry_equiv_pos_as_xyz
  1  'x, y, z'
loop_
 _atom_site_type_symbol
 _atom_site_label
 _atom_site_symmetry_multiplicity
 _atom_site_fract_x
 _atom_site_fract_y
 _atom_site_fract_z
 _atom_site_occupancy
  Ce  Ce0  1  0.50000000  0.05145000  0.32901100  1
  Ce  Ce1  1  1.00000000  0.04855000  0.37098900  1
  Ce  Ce2  1  1.00000000  0.35145000  0.22901100  1
  Ce  Ce3  1  0.50000000  0.34855000  0.27098900  1
  Ce  Ce4  1  0.50000000  0.45145000  0.52901100  1
  Ce  Ce5  1  1.00000000  0.44855000  0.57098900  1
  Ce  Ce6  1  1.00000000  0.75145000  0.42901100  1
  Ce  Ce7  1  0.50000000  0.74855000  0.47098900  1
  Ce  Ce8  1  0.50000000  0.85145000  0.72901100  1
  Ce  Ce9  1  1.00000000  0.84855000  0.77098900  1
  Ce  Ce10  1  1.00000000  0.15145000  0.62901100  1
  Ce  Ce11  1  0.50000000  0.14855000  0.67098900  1
  Mg  Mg12  1  0.50000000  0.55059400  0.37431200  1
  Mg  Mg13  1  0.00000000  0.54940600  0.32568800  1
  Mg  Mg14  1  1.00000000  0.85059400  0.27431200  1
  Mg  Mg15  1  0.50000000  0.84940600  0.22568800  1
  Mg  Mg16  1  0.50000000  0.95059400  0.57431200  1
  Mg  Mg17  1  1.00000000  0.94940600  0.52568800  1
  Mg  Mg18  1  1.00000000  0.25059400  0.47431200  1
  Mg  Mg19  1  0.50000000  0.24940600  0.42568800  1
  Mg  Mg20  1  0.50000000  0.35059400  0.77431200  1
  Mg  Mg21  1  1.00000000  0.34940600  0.72568800  1
  Mg  Mg22  1  1.00000000  0.65059400  0.67431200  1
  Mg  Mg23  1  0.50000000  0.64940600  0.62568800  1
