# generated using pymatgen
data_Mg54Zn95
_symmetry_space_group_name_H-M   'P 1'
_cell_length_a   5.07402209
_cell_length_b   22.10207791
_cell_length_c   42.67993100
_cell_angle_alpha   98.00895109
_cell_angle_beta   93.24549340
_cell_angle_gamma   83.83945518
_symmetry_Int_Tables_number   1
_chemical_formula_structural   Mg54Zn95
_chemical_formula_sum   'Mg54 Zn95'
_cell_volume   4708.12433190
_cell_formula_units_Z   1
loop_
 _symmetry_equiv_pos_site_id
 _symmetry_equiv_pos_as_xyz
  1  'x, y, z'
loop_
 _atom_site_type_symbol
 _atom_site_label
 _atom_site_symmetry_multiplicity
 _atom_site_fract_x
 _atom_site_fract_y
 _atom_site_fract_z
 _atom_site_occupancy
  Mg  Mg0  1  0.58158300  0.01494900  0.24114400  1
  Mg  Mg1  1  0.44544900  0.25487800  0.21437700  1
  Mg  Mg2  1  0.01968900  0.28776000  0.37849000  1
  Mg  Mg3  1  0.05583300  0.03493700  0.20285100  1
  Mg  Mg4  1  0.95799800  0.28167400  0.25661400  1
  Mg  Mg5  1  0.66431000  0.86710800  0.25094800  1
  Mg  Mg6  1  0.02573400  0.19672700  0.31189300  1
  Mg  Mg7  1  0.79940600  0.67554100  0.33896700  1
  Mg  Mg8  1  0.56902700  0.10687400  0.30700000  1
  Mg  Mg9  1  0.89724100  0.42880400  0.28520400  1
  Mg  Mg10  1  0.63555000  0.02271800  0.36332800  1
  Mg  Mg11  1  0.28621200  0.60360400  0.23481900  1
  Mg  Mg12  1  0.30311800  0.71773600  0.38720500  1
  Mg  Mg13  1  0.47307200  0.37717500  0.38435600  1
  Mg  Mg14  1  0.18216700  0.93330300  0.35746300  1
  Mg  Mg15  1  0.82950600  0.51375200  0.22992500  1
  Mg  Mg16  1  0.27365600  0.69552900  0.30067400  1
  Mg  Mg17  1  0.19092900  0.84337000  0.29087000  1
  Mg  Mg18  1  0.40979000  0.45560000  0.32744100  1
  Mg  Mg19  1  0.35212100  0.59274300  0.35461300  1
  Mg  Mg20  1  0.38158300  0.61494900  0.44114400  1
  Mg  Mg21  1  0.24544900  0.85487800  0.41437700  1
  Mg  Mg22  1  0.81968900  0.88776000  0.57849000  1
  Mg  Mg23  1  0.85583300  0.63493700  0.40285100  1
  Mg  Mg24  1  0.75799800  0.88167400  0.45661400  1
  Mg  Mg25  1  0.46431000  0.46710800  0.45094800  1
  Mg  Mg26  1  0.82573400  0.79672700  0.51189300  1
  Mg  Mg27  1  0.59940600  0.27554100  0.53896700  1
  Mg  Mg28  1  0.36902700  0.70687400  0.50700000  1
  Mg  Mg29  1  0.69724100  0.02880400  0.48520400  1
  Mg  Mg30  1  0.43555000  0.62271800  0.56332800  1
  Mg  Mg31  1  0.08621200  0.20360400  0.43481900  1
  Mg  Mg32  1  0.10311800  0.31773600  0.58720500  1
  Mg  Mg33  1  0.27307200  0.97717500  0.58435600  1
  Mg  Mg34  1  0.98216700  0.53330300  0.55746300  1
  Mg  Mg35  1  0.62950600  0.11375200  0.42992500  1
  Mg  Mg36  1  0.07365600  0.29552900  0.50067400  1
  Mg  Mg37  1  0.99092900  0.44337000  0.49087000  1
  Mg  Mg38  1  0.20979000  0.05560000  0.52744100  1
  Mg  Mg39  1  0.15212100  0.19274300  0.55461300  1
  Mg  Mg40  1  0.18158300  0.21494900  0.64114400  1
  Mg  Mg41  1  0.04544900  0.45487800  0.61437700  1
  Mg  Mg42  1  0.65583300  0.23493700  0.60285100  1
  Mg  Mg43  1  0.55799800  0.48167400  0.65661400  1
  Mg  Mg44  1  0.26431000  0.06710800  0.65094800  1
  Mg  Mg45  1  0.62573400  0.39672700  0.71189300  1
  Mg  Mg46  1  0.39940600  0.87554100  0.73896700  1
  Mg  Mg47  1  0.16902700  0.30687400  0.70700000  1
  Mg  Mg48  1  0.49724100  0.62880400  0.68520400  1
  Mg  Mg49  1  0.88621200  0.80360400  0.63481900  1
  Mg  Mg50  1  0.42950600  0.71375200  0.62992500  1
  Mg  Mg51  1  0.87365600  0.89552900  0.70067400  1
  Mg  Mg52  1  0.79092900  0.04337000  0.69087000  1
  Mg  Mg53  1  0.00979000  0.65560000  0.72744100  1
  Zn  Zn54  1  0.48721500  0.23954700  0.28261000  1
  Zn  Zn55  1  0.97964000  0.17911000  0.20028000  1
  Zn  Zn56  1  0.10962600  0.06296300  0.33562100  1
  Zn  Zn57  1  0.58325500  0.56414500  0.29230100  1
  Zn  Zn58  1  0.13456000  0.38060700  0.21984300  1
  Zn  Zn59  1  0.76695300  0.14870200  0.24894300  1
  Zn  Zn60  1  0.82762000  0.15523900  0.37090900  1
  Zn  Zn61  1  0.36802500  0.47093100  0.25920800  1
  Zn  Zn62  1  0.68851700  0.88748200  0.32333400  1
  Zn  Zn63  1  0.21436000  0.32978900  0.32207300  1
  Zn  Zn64  1  0.87984400  0.97290300  0.29983900  1
  Zn  Zn65  1  0.12174000  0.94084600  0.24650700  1
  Zn  Zn66  1  0.52243300  0.24057600  0.34504100  1
  Zn  Zn67  1  0.94400700  0.41819300  0.35562100  1
  Zn  Zn68  1  0.87559900  0.53136900  0.34153800  1
  Zn  Zn69  1  0.16672200  0.82299600  0.21848400  1
  Zn  Zn70  1  0.17021500  0.51076400  0.39331800  1
  Zn  Zn71  1  0.64088000  0.38069000  0.21974500  1
  Zn  Zn72  1  0.08828600  0.56177600  0.29287500  1
  Zn  Zn73  1  0.13280600  0.06990200  0.39677700  1
  Zn  Zn74  1  0.48502400  0.79971500  0.34850000  1
  Zn  Zn75  1  0.72067900  0.32987100  0.32197500  1
  Zn  Zn76  1  0.32762000  0.15523900  0.37090900  1
  Zn  Zn77  1  0.06983900  0.06336600  0.27457700  1
  Zn  Zn78  1  0.38446300  0.97198500  0.30003500  1
  Zn  Zn79  1  0.65565900  0.51291100  0.39315400  1
  Zn  Zn80  1  0.78540000  0.64711200  0.26724200  1
  Zn  Zn81  1  0.99958000  0.79756700  0.34866400  1
  Zn  Zn82  1  0.71123200  0.89228500  0.38619700  1
  Zn  Zn83  1  0.47077600  0.73849300  0.24178300  1
  Zn  Zn84  1  0.27198400  0.14633300  0.24951800  1
  Zn  Zn85  1  0.42762000  0.35523900  0.27090900  1
  Zn  Zn86  1  0.97539500  0.73757500  0.24197900  1
  Zn  Zn87  1  0.73349900  0.76963200  0.29531100  1
  Zn  Zn88  1  0.74561300  0.64751500  0.20619700  1
  Zn  Zn89  1  0.28721500  0.83954700  0.48261000  1
  Zn  Zn90  1  0.77964000  0.77911000  0.40028000  1
  Zn  Zn91  1  0.90962600  0.66296300  0.53562100  1
  Zn  Zn92  1  0.38325500  0.16414500  0.49230100  1
  Zn  Zn93  1  0.93456000  0.98060700  0.41984300  1
  Zn  Zn94  1  0.56695300  0.74870200  0.44894300  1
  Zn  Zn95  1  0.62762000  0.75523900  0.57090900  1
  Zn  Zn96  1  0.16802500  0.07093100  0.45920800  1
  Zn  Zn97  1  0.48851700  0.48748200  0.52333400  1
  Zn  Zn98  1  0.01436000  0.92978900  0.52207300  1
  Zn  Zn99  1  0.67984400  0.57290300  0.49983900  1
  Zn  Zn100  1  0.92174000  0.54084600  0.44650700  1
  Zn  Zn101  1  0.32243300  0.84057600  0.54504100  1
  Zn  Zn102  1  0.74400700  0.01819300  0.55562100  1
  Zn  Zn103  1  0.67559900  0.13136900  0.54153800  1
  Zn  Zn104  1  0.96672200  0.42299600  0.41848400  1
  Zn  Zn105  1  0.97021500  0.11076400  0.59331800  1
  Zn  Zn106  1  0.44088000  0.98069000  0.41974500  1
  Zn  Zn107  1  0.88828600  0.16177600  0.49287500  1
  Zn  Zn108  1  0.93280600  0.66990200  0.59677700  1
  Zn  Zn109  1  0.28502400  0.39971500  0.54850000  1
  Zn  Zn110  1  0.52067900  0.92987100  0.52197500  1
  Zn  Zn111  1  0.12762000  0.75523900  0.57090900  1
  Zn  Zn112  1  0.86983900  0.66336600  0.47457700  1
  Zn  Zn113  1  0.18446300  0.57198500  0.50003500  1
  Zn  Zn114  1  0.45565900  0.11291100  0.59315400  1
  Zn  Zn115  1  0.58540000  0.24711200  0.46724200  1
  Zn  Zn116  1  0.79958000  0.39756700  0.54866400  1
  Zn  Zn117  1  0.51123200  0.49228500  0.58619700  1
  Zn  Zn118  1  0.27077600  0.33849300  0.44178300  1
  Zn  Zn119  1  0.07198400  0.74633300  0.44951800  1
  Zn  Zn120  1  0.22762000  0.95523900  0.47090900  1
  Zn  Zn121  1  0.77539500  0.33757500  0.44197900  1
  Zn  Zn122  1  0.53349900  0.36963200  0.49531100  1
  Zn  Zn123  1  0.54561300  0.24751500  0.40619700  1
  Zn  Zn124  1  0.08721500  0.43954700  0.68261000  1
  Zn  Zn125  1  0.57964000  0.37911000  0.60028000  1
  Zn  Zn126  1  0.70962600  0.26296300  0.73562100  1
  Zn  Zn127  1  0.18325500  0.76414500  0.69230100  1
  Zn  Zn128  1  0.73456000  0.58060700  0.61984300  1
  Zn  Zn129  1  0.36695300  0.34870200  0.64894300  1
  Zn  Zn130  1  0.96802500  0.67093100  0.65920800  1
  Zn  Zn131  1  0.28851700  0.08748200  0.72333400  1
  Zn  Zn132  1  0.81436000  0.52978900  0.72207300  1
  Zn  Zn133  1  0.47984400  0.17290300  0.69983900  1
  Zn  Zn134  1  0.72174000  0.14084600  0.64650700  1
  Zn  Zn135  1  0.47559900  0.73136900  0.74153800  1
  Zn  Zn136  1  0.76672200  0.02299600  0.61848400  1
  Zn  Zn137  1  0.24088000  0.58069000  0.61974500  1
  Zn  Zn138  1  0.68828600  0.76177600  0.69287500  1
  Zn  Zn139  1  0.32067900  0.52987100  0.72197500  1
  Zn  Zn140  1  0.66983900  0.26336600  0.67457700  1
  Zn  Zn141  1  0.98446300  0.17198500  0.70003500  1
  Zn  Zn142  1  0.38540000  0.84711200  0.66724200  1
  Zn  Zn143  1  0.07077600  0.93849300  0.64178300  1
  Zn  Zn144  1  0.87198400  0.34633300  0.64951800  1
  Zn  Zn145  1  0.02762000  0.55523900  0.67090900  1
  Zn  Zn146  1  0.57539500  0.93757500  0.64197900  1
  Zn  Zn147  1  0.33349900  0.96963200  0.69531100  1
  Zn  Zn148  1  0.34561300  0.84751500  0.60619700  1
