# generated using pymatgen
data_Mg26Ir53
_symmetry_space_group_name_H-M   'P 1'
_cell_length_a   5.21013629
_cell_length_b   9.93407682
_cell_length_c   44.06856100
_cell_angle_alpha   96.15496522
_cell_angle_beta   93.38895847
_cell_angle_gamma   74.79724947
_symmetry_Int_Tables_number   1
_chemical_formula_structural   Mg26Ir53
_chemical_formula_sum   'Mg26 Ir53'
_cell_volume   2187.24305336
_cell_formula_units_Z   1
loop_
 _symmetry_equiv_pos_site_id
 _symmetry_equiv_pos_as_xyz
  1  'x, y, z'
loop_
 _atom_site_type_symbol
 _atom_site_label
 _atom_site_symmetry_multiplicity
 _atom_site_fract_x
 _atom_site_fract_y
 _atom_site_fract_z
 _atom_site_occupancy
  Mg  Mg0  1  0.00074400  0.40274400  0.26764000  1
  Mg  Mg1  1  0.50549900  0.35037800  0.22478400  1
  Mg  Mg2  1  0.63710800  0.22092500  0.35854900  1
  Mg  Mg3  1  0.27347200  0.87244100  0.28279100  1
  Mg  Mg4  1  0.14186300  0.16856000  0.31569400  1
  Mg  Mg5  1  0.86913600  0.69886300  0.30054200  1
  Mg  Mg6  1  0.27347200  0.03910700  0.44945800  1
  Mg  Mg7  1  0.90983500  0.69062200  0.37370000  1
  Mg  Mg8  1  0.77822700  0.98674200  0.40660300  1
  Mg  Mg9  1  0.50549900  0.51704500  0.39145100  1
  Mg  Mg10  1  0.90983500  0.85728900  0.54036700  1
  Mg  Mg11  1  0.54619900  0.50880400  0.46461000  1
  Mg  Mg12  1  0.41459000  0.80492400  0.49751200  1
  Mg  Mg13  1  0.14186300  0.33522700  0.48236000  1
  Mg  Mg14  1  0.54619900  0.67547100  0.63127600  1
  Mg  Mg15  1  0.18256200  0.32698600  0.55551900  1
  Mg  Mg16  1  0.05095400  0.62310500  0.58842100  1
  Mg  Mg17  1  0.77822700  0.15340800  0.57326900  1
  Mg  Mg18  1  0.18256200  0.49365300  0.72218500  1
  Mg  Mg19  1  0.81892600  0.14516800  0.64642800  1
  Mg  Mg20  1  0.68731700  0.44128700  0.67933000  1
  Mg  Mg21  1  0.41459000  0.97159000  0.66417800  1
  Mg  Mg22  1  0.81892600  0.31183400  0.81309400  1
  Mg  Mg23  1  0.45529000  0.96335000  0.73733700  1
  Mg  Mg24  1  0.32368100  0.25946900  0.77023900  1
  Mg  Mg25  1  0.05095400  0.78977200  0.75508700  1
  Ir  Ir26  1  0.75312200  0.87656100  0.24621200  1
  Ir  Ir27  1  0.38113800  0.11233700  0.25332400  1
  Ir  Ir28  1  0.89644100  0.11233700  0.25332400  1
  Ir  Ir29  1  0.60980200  0.64078500  0.23910000  1
  Ir  Ir30  1  0.12510500  0.64078500  0.23910000  1
  Ir  Ir31  1  0.57130400  0.28565200  0.29166700  1
  Ir  Ir32  1  0.38948500  0.69474300  0.33712100  1
  Ir  Ir33  1  0.43354900  0.55265800  0.28316300  1
  Ir  Ir34  1  0.01750200  0.93051900  0.34423300  1
  Ir  Ir35  1  0.53280500  0.93051900  0.34423300  1
  Ir  Ir36  1  0.24616600  0.45896700  0.33000900  1
  Ir  Ir37  1  0.76146900  0.45896700  0.33000900  1
  Ir  Ir38  1  0.70905800  0.01864500  0.30017000  1
  Ir  Ir39  1  0.20766700  0.10383400  0.38257600  1
  Ir  Ir40  1  0.02584900  0.51292500  0.42803000  1
  Ir  Ir41  1  0.06991200  0.37084000  0.37407300  1
  Ir  Ir42  1  0.65386600  0.74870000  0.43514200  1
  Ir  Ir43  1  0.16916800  0.74870000  0.43514200  1
  Ir  Ir44  1  0.88253000  0.27714900  0.42091800  1
  Ir  Ir45  1  0.39783200  0.27714900  0.42091800  1
  Ir  Ir46  1  0.34542200  0.83682700  0.39107900  1
  Ir  Ir47  1  0.84403100  0.92201500  0.47348500  1
  Ir  Ir48  1  0.66221300  0.33110600  0.51893900  1
  Ir  Ir49  1  0.70627600  0.18902200  0.46498200  1
  Ir  Ir50  1  0.29022900  0.56688200  0.52605100  1
  Ir  Ir51  1  0.80553200  0.56688200  0.52605100  1
  Ir  Ir52  1  0.51889300  0.09533000  0.51182700  1
  Ir  Ir53  1  0.03419600  0.09533000  0.51182700  1
  Ir  Ir54  1  0.98178600  0.65500900  0.48198800  1
  Ir  Ir55  1  0.48039400  0.74019700  0.56439400  1
  Ir  Ir56  1  0.29857600  0.14928800  0.60984800  1
  Ir  Ir57  1  0.34264000  0.00720400  0.55589100  1
  Ir  Ir58  1  0.92659300  0.38506400  0.61696100  1
  Ir  Ir59  1  0.44189600  0.38506400  0.61696100  1
  Ir  Ir60  1  0.15525700  0.91351200  0.60273600  1
  Ir  Ir61  1  0.67056000  0.91351200  0.60273600  1
  Ir  Ir62  1  0.61814900  0.47319100  0.57289700  1
  Ir  Ir63  1  0.11675800  0.55837900  0.65530300  1
  Ir  Ir64  1  0.93494000  0.96747000  0.70075800  1
  Ir  Ir65  1  0.97900300  0.82538500  0.64680000  1
  Ir  Ir66  1  0.56295700  0.20324600  0.70787000  1
  Ir  Ir67  1  0.07825900  0.20324600  0.70787000  1
  Ir  Ir68  1  0.79162100  0.73169400  0.69364600  1
  Ir  Ir69  1  0.30692300  0.73169400  0.69364600  1
  Ir  Ir70  1  0.25451300  0.29137300  0.66380600  1
  Ir  Ir71  1  0.75312200  0.37656100  0.74621200  1
  Ir  Ir72  1  0.57130400  0.78565200  0.79166700  1
  Ir  Ir73  1  0.61536700  0.64356700  0.73770900  1
  Ir  Ir74  1  0.19932000  0.02142800  0.79877900  1
  Ir  Ir75  1  0.71462300  0.02142800  0.79877900  1
  Ir  Ir76  1  0.42798400  0.54987600  0.78455500  1
  Ir  Ir77  1  0.94328700  0.54987600  0.78455500  1
  Ir  Ir78  1  0.89087700  0.10955400  0.75471500  1
