# generated using pymatgen
data_Mg65Si37
_symmetry_space_group_name_H-M   'P 1'
_cell_length_a   12.41651900
_cell_length_b   14.27249660
_cell_length_c   44.74766500
_cell_angle_alpha   90.16648621
_cell_angle_beta   90.00000000
_cell_angle_gamma   64.21593671
_symmetry_Int_Tables_number   1
_chemical_formula_structural   Mg65Si37
_chemical_formula_sum   'Mg130 Si74'
_cell_volume   7140.40101402
_cell_formula_units_Z   2
loop_
 _symmetry_equiv_pos_site_id
 _symmetry_equiv_pos_as_xyz
  1  'x, y, z'
loop_
 _atom_site_type_symbol
 _atom_site_label
 _atom_site_symmetry_multiplicity
 _atom_site_fract_x
 _atom_site_fract_y
 _atom_site_fract_z
 _atom_site_occupancy
  Mg  Mg0  1  0.87428200  0.04793800  0.22994500  1
  Mg  Mg1  1  0.46421000  0.54714800  0.23073400  1
  Mg  Mg2  1  0.09078500  0.53053300  0.24735000  1
  Mg  Mg3  1  0.50141000  0.06741500  0.21046800  1
  Mg  Mg4  1  0.12798400  0.05079900  0.22708300  1
  Mg  Mg5  1  0.71791200  0.55001000  0.22787300  1
  Mg  Mg6  1  0.56371900  0.85839600  0.25357200  1
  Mg  Mg7  1  0.97379100  0.35918500  0.25278200  1
  Mg  Mg8  1  0.34721700  0.37580100  0.23616700  1
  Mg  Mg9  1  0.39813000  0.91584200  0.19612600  1
  Mg  Mg10  1  0.31001700  0.85553400  0.25643300  1
  Mg  Mg11  1  0.72008900  0.35632400  0.25564400  1
  Mg  Mg12  1  0.99963600  0.73790400  0.20702100  1
  Mg  Mg13  1  0.61588400  0.23161300  0.21331200  1
  Mg  Mg14  1  0.21813700  0.22868800  0.21623700  1
  Mg  Mg15  1  0.21986400  0.67764500  0.26728000  1
  Mg  Mg16  1  0.82211800  0.67472000  0.27020500  1
  Mg  Mg17  1  0.89990400  0.24535300  0.19957200  1
  Mg  Mg18  1  0.41274400  0.97101500  0.30686800  1
  Mg  Mg19  1  0.00267200  0.47022500  0.30765700  1
  Mg  Mg20  1  0.62924600  0.45361000  0.32427300  1
  Mg  Mg21  1  0.03987100  0.99049200  0.28739100  1
  Mg  Mg22  1  0.66644600  0.97387600  0.30400600  1
  Mg  Mg23  1  0.25637400  0.47308700  0.30479600  1
  Mg  Mg24  1  0.10218100  0.78147300  0.33049500  1
  Mg  Mg25  1  0.51225300  0.28226200  0.32970500  1
  Mg  Mg26  1  0.88567800  0.29887800  0.31309000  1
  Mg  Mg27  1  0.93659200  0.83891900  0.27304900  1
  Mg  Mg28  1  0.84847900  0.77861100  0.33335600  1
  Mg  Mg29  1  0.25855100  0.27940100  0.33256700  1
  Mg  Mg30  1  0.53809800  0.66098100  0.28394400  1
  Mg  Mg31  1  0.15434600  0.15469000  0.29023500  1
  Mg  Mg32  1  0.75659900  0.15176500  0.29316000  1
  Mg  Mg33  1  0.75832600  0.60072200  0.34420300  1
  Mg  Mg34  1  0.36057900  0.59779700  0.34712800  1
  Mg  Mg35  1  0.43836600  0.16843000  0.27649500  1
  Mg  Mg36  1  0.95120500  0.89409200  0.38379100  1
  Mg  Mg37  1  0.54113300  0.39330200  0.38458100  1
  Mg  Mg38  1  0.16770800  0.37668700  0.40119600  1
  Mg  Mg39  1  0.57833300  0.91356900  0.36431400  1
  Mg  Mg40  1  0.20490800  0.89695300  0.38092900  1
  Mg  Mg41  1  0.79483500  0.39616400  0.38171900  1
  Mg  Mg42  1  0.64064200  0.70455000  0.40741800  1
  Mg  Mg43  1  0.05071500  0.20533900  0.40662800  1
  Mg  Mg44  1  0.42414000  0.22195500  0.39001300  1
  Mg  Mg45  1  0.47505300  0.76199600  0.34997200  1
  Mg  Mg46  1  0.38694000  0.70168800  0.41027900  1
  Mg  Mg47  1  0.79701200  0.20247800  0.40949000  1
  Mg  Mg48  1  0.07655900  0.58405800  0.36086700  1
  Mg  Mg49  1  0.69280700  0.07776700  0.36715800  1
  Mg  Mg50  1  0.29506100  0.07484200  0.37008300  1
  Mg  Mg51  1  0.29678700  0.52379900  0.42112600  1
  Mg  Mg52  1  0.89904100  0.52087400  0.42405100  1
  Mg  Mg53  1  0.97682700  0.09150700  0.35341800  1
  Mg  Mg54  1  0.48966700  0.81716900  0.46071400  1
  Mg  Mg55  1  0.07959500  0.31637900  0.46150400  1
  Mg  Mg56  1  0.70616900  0.29976300  0.47811900  1
  Mg  Mg57  1  0.11679500  0.83664600  0.44123700  1
  Mg  Mg58  1  0.74336900  0.82003000  0.45785300  1
  Mg  Mg59  1  0.33329700  0.31924000  0.45864200  1
  Mg  Mg60  1  0.17910400  0.62762600  0.48434100  1
  Mg  Mg61  1  0.58917600  0.12841600  0.48355100  1
  Mg  Mg62  1  0.96260200  0.14503200  0.46693600  1
  Mg  Mg63  1  0.01351500  0.68507300  0.42689500  1
  Mg  Mg64  1  0.92540200  0.62476500  0.48720200  1
  Mg  Mg65  1  0.33547400  0.12555500  0.48641300  1
  Mg  Mg66  1  0.61502100  0.50713500  0.43779000  1
  Mg  Mg67  1  0.23126900  0.00084400  0.44408100  1
  Mg  Mg68  1  0.83352200  0.99791900  0.44700600  1
  Mg  Mg69  1  0.83524900  0.44687600  0.49804900  1
  Mg  Mg70  1  0.43750200  0.44395100  0.50097400  1
  Mg  Mg71  1  0.51528900  0.01458400  0.43034100  1
  Mg  Mg72  1  0.02812900  0.74024600  0.53763700  1
  Mg  Mg73  1  0.61805600  0.23945600  0.53842700  1
  Mg  Mg74  1  0.24463100  0.22284000  0.55504200  1
  Mg  Mg75  1  0.65525600  0.75972300  0.51816000  1
  Mg  Mg76  1  0.28183100  0.74310700  0.53477600  1
  Mg  Mg77  1  0.87175900  0.24231700  0.53556500  1
  Mg  Mg78  1  0.71756600  0.55070300  0.56126400  1
  Mg  Mg79  1  0.12763800  0.05149300  0.56047400  1
  Mg  Mg80  1  0.50106300  0.06810900  0.54385900  1
  Mg  Mg81  1  0.55197600  0.60814900  0.50381800  1
  Mg  Mg82  1  0.46386300  0.54784200  0.56412600  1
  Mg  Mg83  1  0.87393600  0.04863200  0.56333600  1
  Mg  Mg84  1  0.15348200  0.43021200  0.51471300  1
  Mg  Mg85  1  0.76973000  0.92392100  0.52100400  1
  Mg  Mg86  1  0.37198400  0.92099600  0.52392900  1
  Mg  Mg87  1  0.37371000  0.36995300  0.57497200  1
  Mg  Mg88  1  0.97596400  0.36702800  0.57789700  1
  Mg  Mg89  1  0.05375000  0.93766100  0.50726500  1
  Mg  Mg90  1  0.56659000  0.66332300  0.61456000  1
  Mg  Mg91  1  0.15651800  0.16253300  0.61535000  1
  Mg  Mg92  1  0.78309200  0.14591700  0.63196500  1
  Mg  Mg93  1  0.19371800  0.68280000  0.59508300  1
  Mg  Mg94  1  0.82029200  0.66618400  0.61169900  1
  Mg  Mg95  1  0.41022000  0.16539400  0.61248800  1
  Mg  Mg96  1  0.25602700  0.47378000  0.63818700  1
  Mg  Mg97  1  0.66609900  0.97457000  0.63739700  1
  Mg  Mg98  1  0.03952500  0.99118600  0.62078200  1
  Mg  Mg99  1  0.09043800  0.53122600  0.58074100  1
  Mg  Mg100  1  0.00232500  0.47091900  0.64104900  1
  Mg  Mg101  1  0.41239700  0.97170900  0.64025900  1
  Mg  Mg102  1  0.69194400  0.35328800  0.59163700  1
  Mg  Mg103  1  0.30819200  0.84699800  0.59792700  1
  Mg  Mg104  1  0.91044500  0.84407300  0.60085200  1
  Mg  Mg105  1  0.91217200  0.29303000  0.65189500  1
  Mg  Mg106  1  0.51442500  0.29010500  0.65482000  1
  Mg  Mg107  1  0.59221200  0.86073700  0.58418800  1
  Mg  Mg108  1  0.10505200  0.58639900  0.69148300  1
  Mg  Mg109  1  0.69498000  0.08561000  0.69227300  1
  Mg  Mg110  1  0.32155400  0.06899400  0.70888800  1
  Mg  Mg111  1  0.73217900  0.60587600  0.67200600  1
  Mg  Mg112  1  0.35875400  0.58926100  0.68862200  1
  Mg  Mg113  1  0.94868200  0.08847100  0.68941100  1
  Mg  Mg114  1  0.79448900  0.39685700  0.71511000  1
  Mg  Mg115  1  0.20456100  0.89764700  0.71432100  1
  Mg  Mg116  1  0.57798600  0.91426200  0.69770500  1
  Mg  Mg117  1  0.62889900  0.45430300  0.65766400  1
  Mg  Mg118  1  0.54078700  0.39399600  0.71797200  1
  Mg  Mg119  1  0.95085900  0.89478500  0.71718200  1
  Mg  Mg120  1  0.23040500  0.27636500  0.66856000  1
  Mg  Mg121  1  0.84665300  0.77007500  0.67485000  1
  Mg  Mg122  1  0.44890700  0.76715000  0.67777500  1
  Mg  Mg123  1  0.45063400  0.21610700  0.72881800  1
  Mg  Mg124  1  0.05288700  0.21318200  0.73174300  1
  Mg  Mg125  1  0.13067300  0.78381400  0.66111100  1
  Mg  Mg126  1  0.27064100  0.52895300  0.74892900  1
  Mg  Mg127  1  0.16736100  0.37738000  0.73458700  1
  Mg  Mg128  1  0.76886700  0.19944200  0.74548300  1
  Mg  Mg129  1  0.66913500  0.70689100  0.73803400  1
  Si  Si130  1  0.76527400  0.86062000  0.23404600  1
  Si  Si131  1  0.99604300  0.39908200  0.19558500  1
  Si  Si132  1  0.67272800  0.04571300  0.24947000  1
  Si  Si133  1  0.90349700  0.58417500  0.21100900  1
  Si  Si134  1  0.50105200  0.72239800  0.22252700  1
  Si  Si135  1  0.93695000  0.18393600  0.26098900  1
  Si  Si136  1  0.24273500  0.57236500  0.21002500  1
  Si  Si137  1  0.34529900  0.03390400  0.24848600  1
  Si  Si138  1  0.65680500  0.41089100  0.19656900  1
  Si  Si139  1  0.09270300  0.87243000  0.23503000  1
  Si  Si140  1  0.30373600  0.78369700  0.31096900  1
  Si  Si141  1  0.53450500  0.32215900  0.27250800  1
  Si  Si142  1  0.21118900  0.96879000  0.32639400  1
  Si  Si143  1  0.44195800  0.50725200  0.28793200  1
  Si  Si144  1  0.03951400  0.64547500  0.29945100  1
  Si  Si145  1  0.47541100  0.10701300  0.33791200  1
  Si  Si146  1  0.78119700  0.49544200  0.28694800  1
  Si  Si147  1  0.88376100  0.95698100  0.32540900  1
  Si  Si148  1  0.19526700  0.33396800  0.27349200  1
  Si  Si149  1  0.63116400  0.79550700  0.31195300  1
  Si  Si150  1  0.84219700  0.70677400  0.38789200  1
  Si  Si151  1  0.07296600  0.24523600  0.34943100  1
  Si  Si152  1  0.74965100  0.89186700  0.40331700  1
  Si  Si153  1  0.98042000  0.43032900  0.36485500  1
  Si  Si154  1  0.57797500  0.56855100  0.37637400  1
  Si  Si155  1  0.01387300  0.03009000  0.41483500  1
  Si  Si156  1  0.31965800  0.41851900  0.36387100  1
  Si  Si157  1  0.42222200  0.88005800  0.40233200  1
  Si  Si158  1  0.73372800  0.25704500  0.35041500  1
  Si  Si159  1  0.16962600  0.71858400  0.38887600  1
  Si  Si160  1  0.38065900  0.62985100  0.46481500  1
  Si  Si161  1  0.61142800  0.16831300  0.42635400  1
  Si  Si162  1  0.28811200  0.81494400  0.48024000  1
  Si  Si163  1  0.51888200  0.35340500  0.44177800  1
  Si  Si164  1  0.11643700  0.49162800  0.45329700  1
  Si  Si165  1  0.55233400  0.95316700  0.49175800  1
  Si  Si166  1  0.85812000  0.34159600  0.44079400  1
  Si  Si167  1  0.96068400  0.80313500  0.47925600  1
  Si  Si168  1  0.27219000  0.18012200  0.42733800  1
  Si  Si169  1  0.70808700  0.64166100  0.46579900  1
  Si  Si170  1  0.91912000  0.55292800  0.54173800  1
  Si  Si171  1  0.14988900  0.09139000  0.50327700  1
  Si  Si172  1  0.82657400  0.73802100  0.55716300  1
  Si  Si173  1  0.05734300  0.27648200  0.51870100  1
  Si  Si174  1  0.65489800  0.41470500  0.53022000  1
  Si  Si175  1  0.09079600  0.87624400  0.56868100  1
  Si  Si176  1  0.39658100  0.26467300  0.51771700  1
  Si  Si177  1  0.49914500  0.72621100  0.55617900  1
  Si  Si178  1  0.81065100  0.10319900  0.50426100  1
  Si  Si179  1  0.24654900  0.56473800  0.54272200  1
  Si  Si180  1  0.45758200  0.47600500  0.61866100  1
  Si  Si181  1  0.68835100  0.01446700  0.58020000  1
  Si  Si182  1  0.36503500  0.66109800  0.63408600  1
  Si  Si183  1  0.59580500  0.19955900  0.59562400  1
  Si  Si184  1  0.19336000  0.33778200  0.60714300  1
  Si  Si185  1  0.62925700  0.79932100  0.64560400  1
  Si  Si186  1  0.93504300  0.18775000  0.59464000  1
  Si  Si187  1  0.03760700  0.64928800  0.63310200  1
  Si  Si188  1  0.34911300  0.02627600  0.58118400  1
  Si  Si189  1  0.78501000  0.48781400  0.61964600  1
  Si  Si190  1  0.99604300  0.39908200  0.69558500  1
  Si  Si191  1  0.22681200  0.93754400  0.65712300  1
  Si  Si192  1  0.90349700  0.58417500  0.71100900  1
  Si  Si193  1  0.13426600  0.12263600  0.67254700  1
  Si  Si194  1  0.73182100  0.26085900  0.68406600  1
  Si  Si195  1  0.16771900  0.72239800  0.72252700  1
  Si  Si196  1  0.47350400  0.11082700  0.67156300  1
  Si  Si197  1  0.57606800  0.57236500  0.71002500  1
  Si  Si198  1  0.88757400  0.94935300  0.65810700  1
  Si  Si199  1  0.32347200  0.41089100  0.69656900  1
  Si  Si200  1  0.76527400  0.86062000  0.73404600  1
  Si  Si201  1  0.67272800  0.04571300  0.74947000  1
  Si  Si202  1  0.01196600  0.03390400  0.74848600  1
  Si  Si203  1  0.42603600  0.87243000  0.73503000  1
