# generated using pymatgen
data_Tm2Mg
_symmetry_space_group_name_H-M   'P 1'
_cell_length_a   5.42194500
_cell_length_b   8.80029156
_cell_length_c   45.31837800
_cell_angle_alpha   90.70413999
_cell_angle_beta   90.00000000
_cell_angle_gamma   90.00000000
_symmetry_Int_Tables_number   1
_chemical_formula_structural   Tm2Mg
_chemical_formula_sum   'Tm32 Mg16'
_cell_volume   2162.18937522
_cell_formula_units_Z   16
loop_
 _symmetry_equiv_pos_site_id
 _symmetry_equiv_pos_as_xyz
  1  'x, y, z'
loop_
 _atom_site_type_symbol
 _atom_site_label
 _atom_site_symmetry_multiplicity
 _atom_site_fract_x
 _atom_site_fract_y
 _atom_site_fract_z
 _atom_site_occupancy
  Tm  Tm0  1  0.75000000  0.65559100  0.76160800  1
  Tm  Tm1  1  0.75000000  0.27870500  0.78653300  1
  Tm  Tm2  1  0.25000000  0.03671600  0.77685300  1
  Tm  Tm3  1  0.25000000  0.41360300  0.75192900  1
  Tm  Tm4  1  0.75000000  0.73251400  0.68468500  1
  Tm  Tm5  1  0.75000000  0.35562800  0.70961000  1
  Tm  Tm6  1  0.25000000  0.11363900  0.69993000  1
  Tm  Tm7  1  0.25000000  0.49052600  0.67500600  1
  Tm  Tm8  1  0.75000000  0.80943700  0.60776200  1
  Tm  Tm9  1  0.75000000  0.43255100  0.63268700  1
  Tm  Tm10  1  0.25000000  0.19056300  0.62300700  1
  Tm  Tm11  1  0.25000000  0.56744900  0.59808300  1
  Tm  Tm12  1  0.75000000  0.88636100  0.53083900  1
  Tm  Tm13  1  0.75000000  0.50947400  0.55576400  1
  Tm  Tm14  1  0.25000000  0.26748600  0.54608400  1
  Tm  Tm15  1  0.25000000  0.64437200  0.52115900  1
  Tm  Tm16  1  0.75000000  0.96328400  0.45391600  1
  Tm  Tm17  1  0.75000000  0.58639700  0.47884100  1
  Tm  Tm18  1  0.25000000  0.34440900  0.46916100  1
  Tm  Tm19  1  0.25000000  0.72129500  0.44423600  1
  Tm  Tm20  1  0.75000000  0.04020700  0.37699300  1
  Tm  Tm21  1  0.75000000  0.66332000  0.40191700  1
  Tm  Tm22  1  0.25000000  0.42133200  0.39223800  1
  Tm  Tm23  1  0.25000000  0.79821800  0.36731300  1
  Tm  Tm24  1  0.75000000  0.11713000  0.30007000  1
  Tm  Tm25  1  0.75000000  0.74024300  0.32499400  1
  Tm  Tm26  1  0.25000000  0.49825500  0.31531500  1
  Tm  Tm27  1  0.25000000  0.87514100  0.29039000  1
  Tm  Tm28  1  0.75000000  0.19405300  0.22314700  1
  Tm  Tm29  1  0.75000000  0.81716600  0.24807100  1
  Tm  Tm30  1  0.25000000  0.57517800  0.23839200  1
  Tm  Tm31  1  0.25000000  0.95206400  0.21346700  1
  Mg  Mg32  1  0.75000000  0.00442400  0.73556200  1
  Mg  Mg33  1  0.25000000  0.68788300  0.80290000  1
  Mg  Mg34  1  0.75000000  0.08134800  0.65863900  1
  Mg  Mg35  1  0.25000000  0.76480600  0.72597700  1
  Mg  Mg36  1  0.75000000  0.15827100  0.58171500  1
  Mg  Mg37  1  0.25000000  0.84172900  0.64905400  1
  Mg  Mg38  1  0.75000000  0.23519400  0.50479200  1
  Mg  Mg39  1  0.25000000  0.91865200  0.57213100  1
  Mg  Mg40  1  0.75000000  0.31211700  0.42786900  1
  Mg  Mg41  1  0.25000000  0.99557600  0.49520800  1
  Mg  Mg42  1  0.75000000  0.38904000  0.35094600  1
  Mg  Mg43  1  0.25000000  0.07249900  0.41828500  1
  Mg  Mg44  1  0.75000000  0.46596300  0.27402300  1
  Mg  Mg45  1  0.25000000  0.14942200  0.34136100  1
  Mg  Mg46  1  0.75000000  0.54288600  0.19710000  1
  Mg  Mg47  1  0.25000000  0.22634500  0.26443800  1
