# generated using pymatgen
data_Mg120Zn209
_symmetry_space_group_name_H-M   'P 1'
_cell_length_a   13.26606221
_cell_length_b   15.53344873
_cell_length_c   48.04736100
_cell_angle_alpha   89.05057746
_cell_angle_beta   95.72936823
_cell_angle_gamma   107.07914806
_symmetry_Int_Tables_number   1
_chemical_formula_structural   Mg120Zn209
_chemical_formula_sum   'Mg120 Zn209'
_cell_volume   9416.24909417
_cell_formula_units_Z   1
loop_
 _symmetry_equiv_pos_site_id
 _symmetry_equiv_pos_as_xyz
  1  'x, y, z'
loop_
 _atom_site_type_symbol
 _atom_site_label
 _atom_site_symmetry_multiplicity
 _atom_site_fract_x
 _atom_site_fract_y
 _atom_site_fract_z
 _atom_site_occupancy
  Mg  Mg0  1  0.74900600  0.99918500  0.29850700  1
  Mg  Mg1  1  0.06923400  0.74772000  0.23343700  1
  Mg  Mg2  1  0.60977900  0.44888700  0.29571200  1
  Mg  Mg3  1  0.88387300  0.00652800  0.24925200  1
  Mg  Mg4  1  0.96931900  0.69209800  0.28908500  1
  Mg  Mg5  1  0.57175100  0.10534200  0.27643100  1
  Mg  Mg6  1  0.71853500  0.65674700  0.27934500  1
  Mg  Mg7  1  0.11612700  0.09700600  0.25256600  1
  Mg  Mg8  1  0.64336400  0.69258300  0.21554100  1
  Mg  Mg9  1  0.03068100  0.41143600  0.21273300  1
  Mg  Mg10  1  0.39022100  0.65464600  0.20610600  1
  Mg  Mg11  1  0.35663600  0.41095100  0.28627700  1
  Mg  Mg12  1  0.01360900  0.91700800  0.21123800  1
  Mg  Mg13  1  0.68159700  0.31193100  0.25990200  1
  Mg  Mg14  1  0.31840300  0.79160300  0.24191600  1
  Mg  Mg15  1  0.28146500  0.44678700  0.22247300  1
  Mg  Mg16  1  0.25099400  0.10434900  0.20331100  1
  Mg  Mg17  1  0.42824900  0.99819200  0.22538700  1
  Mg  Mg18  1  0.93076600  0.35581400  0.26838100  1
  Mg  Mg19  1  0.98639100  0.18652600  0.29058000  1
  Mg  Mg20  1  0.74900600  0.09918500  0.39850700  1
  Mg  Mg21  1  0.06923400  0.84772000  0.33343700  1
  Mg  Mg22  1  0.60977900  0.54888700  0.39571200  1
  Mg  Mg23  1  0.88387300  0.10652800  0.34925200  1
  Mg  Mg24  1  0.96931900  0.79209800  0.38908500  1
  Mg  Mg25  1  0.57175100  0.20534200  0.37643100  1
  Mg  Mg26  1  0.71853500  0.75674700  0.37934500  1
  Mg  Mg27  1  0.11612700  0.19700600  0.35256600  1
  Mg  Mg28  1  0.64336400  0.79258300  0.31554100  1
  Mg  Mg29  1  0.03068100  0.51143600  0.31273300  1
  Mg  Mg30  1  0.39022100  0.75464600  0.30610600  1
  Mg  Mg31  1  0.35663600  0.51095100  0.38627700  1
  Mg  Mg32  1  0.01360900  0.01700800  0.31123800  1
  Mg  Mg33  1  0.68159700  0.41193100  0.35990200  1
  Mg  Mg34  1  0.31840300  0.89160300  0.34191600  1
  Mg  Mg35  1  0.28146500  0.54678700  0.32247300  1
  Mg  Mg36  1  0.25099400  0.20434900  0.30331100  1
  Mg  Mg37  1  0.42824900  0.09819200  0.32538700  1
  Mg  Mg38  1  0.93076600  0.45581400  0.36838100  1
  Mg  Mg39  1  0.98639100  0.28652600  0.39058000  1
  Mg  Mg40  1  0.74900600  0.19918500  0.49850700  1
  Mg  Mg41  1  0.06923400  0.94772000  0.43343700  1
  Mg  Mg42  1  0.60977900  0.64888700  0.49571200  1
  Mg  Mg43  1  0.88387300  0.20652800  0.44925200  1
  Mg  Mg44  1  0.96931900  0.89209800  0.48908500  1
  Mg  Mg45  1  0.57175100  0.30534200  0.47643100  1
  Mg  Mg46  1  0.71853500  0.85674700  0.47934500  1
  Mg  Mg47  1  0.11612700  0.29700600  0.45256600  1
  Mg  Mg48  1  0.64336400  0.89258300  0.41554100  1
  Mg  Mg49  1  0.03068100  0.61143600  0.41273300  1
  Mg  Mg50  1  0.39022100  0.85464600  0.40610600  1
  Mg  Mg51  1  0.35663600  0.61095100  0.48627700  1
  Mg  Mg52  1  0.01360900  0.11700800  0.41123800  1
  Mg  Mg53  1  0.68159700  0.51193100  0.45990200  1
  Mg  Mg54  1  0.31840300  0.99160300  0.44191600  1
  Mg  Mg55  1  0.28146500  0.64678700  0.42247300  1
  Mg  Mg56  1  0.25099400  0.30434900  0.40331100  1
  Mg  Mg57  1  0.42824900  0.19819200  0.42538700  1
  Mg  Mg58  1  0.93076600  0.55581400  0.46838100  1
  Mg  Mg59  1  0.98639100  0.38652600  0.49058000  1
  Mg  Mg60  1  0.74900600  0.29918500  0.59850700  1
  Mg  Mg61  1  0.06923400  0.04772000  0.53343700  1
  Mg  Mg62  1  0.60977900  0.74888700  0.59571200  1
  Mg  Mg63  1  0.88387300  0.30652800  0.54925200  1
  Mg  Mg64  1  0.96931900  0.99209800  0.58908500  1
  Mg  Mg65  1  0.57175100  0.40534200  0.57643100  1
  Mg  Mg66  1  0.71853500  0.95674700  0.57934500  1
  Mg  Mg67  1  0.11612700  0.39700600  0.55256600  1
  Mg  Mg68  1  0.64336400  0.99258300  0.51554100  1
  Mg  Mg69  1  0.03068100  0.71143600  0.51273300  1
  Mg  Mg70  1  0.39022100  0.95464600  0.50610600  1
  Mg  Mg71  1  0.35663600  0.71095100  0.58627700  1
  Mg  Mg72  1  0.01360900  0.21700800  0.51123800  1
  Mg  Mg73  1  0.68159700  0.61193100  0.55990200  1
  Mg  Mg74  1  0.31840300  0.09160300  0.54191600  1
  Mg  Mg75  1  0.28146500  0.74678700  0.52247300  1
  Mg  Mg76  1  0.25099400  0.40434900  0.50331100  1
  Mg  Mg77  1  0.42824900  0.29819200  0.52538700  1
  Mg  Mg78  1  0.93076600  0.65581400  0.56838100  1
  Mg  Mg79  1  0.98639100  0.48652600  0.59058000  1
  Mg  Mg80  1  0.74900600  0.39918500  0.69850700  1
  Mg  Mg81  1  0.06923400  0.14772000  0.63343700  1
  Mg  Mg82  1  0.60977900  0.84888700  0.69571200  1
  Mg  Mg83  1  0.88387300  0.40652800  0.64925200  1
  Mg  Mg84  1  0.96931900  0.09209800  0.68908500  1
  Mg  Mg85  1  0.57175100  0.50534200  0.67643100  1
  Mg  Mg86  1  0.71853500  0.05674700  0.67934500  1
  Mg  Mg87  1  0.11612700  0.49700600  0.65256600  1
  Mg  Mg88  1  0.64336400  0.09258300  0.61554100  1
  Mg  Mg89  1  0.03068100  0.81143600  0.61273300  1
  Mg  Mg90  1  0.39022100  0.05464600  0.60610600  1
  Mg  Mg91  1  0.35663600  0.81095100  0.68627700  1
  Mg  Mg92  1  0.01360900  0.31700800  0.61123800  1
  Mg  Mg93  1  0.68159700  0.71193100  0.65990200  1
  Mg  Mg94  1  0.31840300  0.19160300  0.64191600  1
  Mg  Mg95  1  0.28146500  0.84678700  0.62247300  1
  Mg  Mg96  1  0.25099400  0.50434900  0.60331100  1
  Mg  Mg97  1  0.42824900  0.39819200  0.62538700  1
  Mg  Mg98  1  0.93076600  0.75581400  0.66838100  1
  Mg  Mg99  1  0.98639100  0.58652600  0.69058000  1
  Mg  Mg100  1  0.74900600  0.49918500  0.79850700  1
  Mg  Mg101  1  0.06923400  0.24772000  0.73343700  1
  Mg  Mg102  1  0.60977900  0.94888700  0.79571200  1
  Mg  Mg103  1  0.88387300  0.50652800  0.74925200  1
  Mg  Mg104  1  0.96931900  0.19209800  0.78908500  1
  Mg  Mg105  1  0.57175100  0.60534200  0.77643100  1
  Mg  Mg106  1  0.71853500  0.15674700  0.77934500  1
  Mg  Mg107  1  0.11612700  0.59700600  0.75256600  1
  Mg  Mg108  1  0.64336400  0.19258300  0.71554100  1
  Mg  Mg109  1  0.03068100  0.91143600  0.71273300  1
  Mg  Mg110  1  0.39022100  0.15464600  0.70610600  1
  Mg  Mg111  1  0.35663600  0.91095100  0.78627700  1
  Mg  Mg112  1  0.01360900  0.41700800  0.71123800  1
  Mg  Mg113  1  0.68159700  0.81193100  0.75990200  1
  Mg  Mg114  1  0.31840300  0.29160300  0.74191600  1
  Mg  Mg115  1  0.28146500  0.94678700  0.72247300  1
  Mg  Mg116  1  0.25099400  0.60434900  0.70331100  1
  Mg  Mg117  1  0.42824900  0.49819200  0.72538700  1
  Mg  Mg118  1  0.93076600  0.85581400  0.76838100  1
  Mg  Mg119  1  0.98639100  0.68652600  0.79058000  1
  Zn  Zn120  1  0.84920500  0.62769800  0.23455100  1
  Zn  Zn121  1  0.03575800  0.88927700  0.27103100  1
  Zn  Zn122  1  0.51358900  0.72366200  0.25995200  1
  Zn  Zn123  1  0.14473200  0.30754400  0.25837500  1
  Zn  Zn124  1  0.17856500  0.65526700  0.27764500  1
  Zn  Zn125  1  0.85936100  0.84545200  0.29412500  1
  Zn  Zn126  1  0.15079500  0.47583600  0.26726800  1
  Zn  Zn127  1  0.37496700  0.94705000  0.28328600  1
  Zn  Zn128  1  0.82105800  0.49878700  0.27480600  1
  Zn  Zn129  1  0.53087400  0.89568000  0.27034600  1
  Zn  Zn130  1  0.65881200  0.00167200  0.23761800  1
  Zn  Zn131  1  0.66294100  0.50463100  0.23737500  1
  Zn  Zn132  1  0.80881900  0.28251800  0.21403700  1
  Zn  Zn133  1  0.96424200  0.21425700  0.23078700  1
  Zn  Zn134  1  0.62503300  0.15648400  0.21853200  1
  Zn  Zn135  1  0.78829600  0.10495800  0.20444300  1
  Zn  Zn136  1  0.17894200  0.60474700  0.22701200  1
  Zn  Zn137  1  0.14063900  0.25808200  0.20769300  1
  Zn  Zn138  1  0.33705900  0.59890200  0.26444300  1
  Zn  Zn139  1  0.21170400  0.99857600  0.29737500  1
  Zn  Zn140  1  0.82143500  0.44826700  0.22417300  1
  Zn  Zn141  1  0.50000000  0.55176700  0.25090900  1
  Zn  Zn142  1  0.69712500  0.84326200  0.25786700  1
  Zn  Zn143  1  0.52936800  0.84567200  0.21981200  1
  Zn  Zn144  1  0.79093800  0.15479300  0.25609700  1
  Zn  Zn145  1  0.30287500  0.26027200  0.24395200  1
  Zn  Zn146  1  0.20906200  0.94874100  0.24572100  1
  Zn  Zn147  1  0.19118100  0.82101600  0.28778100  1
  Zn  Zn148  1  0.47063200  0.25786200  0.28200600  1
  Zn  Zn149  1  0.85526800  0.79599000  0.24344300  1
  Zn  Zn150  1  0.00000000  0.55176700  0.25090900  1
  Zn  Zn151  1  0.46912600  0.20785400  0.23147200  1
  Zn  Zn152  1  0.34118800  0.10186200  0.26420100  1
  Zn  Zn153  1  0.48641100  0.37987200  0.24186600  1
  Zn  Zn154  1  0.84920500  0.72769800  0.33455100  1
  Zn  Zn155  1  0.03575800  0.98927700  0.37103100  1
  Zn  Zn156  1  0.51358900  0.82366200  0.35995200  1
  Zn  Zn157  1  0.14473200  0.40754400  0.35837500  1
  Zn  Zn158  1  0.17856500  0.75526700  0.37764500  1
  Zn  Zn159  1  0.85936100  0.94545200  0.39412500  1
  Zn  Zn160  1  0.50000000  0.60176700  0.30090900  1
  Zn  Zn161  1  0.15079500  0.57583600  0.36726800  1
  Zn  Zn162  1  0.37496700  0.04705000  0.38328600  1
  Zn  Zn163  1  0.82105800  0.59878700  0.37480600  1
  Zn  Zn164  1  0.53087400  0.99568000  0.37034600  1
  Zn  Zn165  1  0.65881200  0.10167200  0.33761800  1
  Zn  Zn166  1  0.66294100  0.60463100  0.33737500  1
  Zn  Zn167  1  0.80881900  0.38251800  0.31403700  1
  Zn  Zn168  1  0.96424200  0.31425700  0.33078700  1
  Zn  Zn169  1  0.62503300  0.25648400  0.31853200  1
  Zn  Zn170  1  0.78829600  0.20495800  0.30444300  1
  Zn  Zn171  1  0.17894200  0.70474700  0.32701200  1
  Zn  Zn172  1  0.14063900  0.35808200  0.30769300  1
  Zn  Zn173  1  0.33705900  0.69890200  0.36444300  1
  Zn  Zn174  1  0.21170400  0.09857600  0.39737500  1
  Zn  Zn175  1  0.82143500  0.54826700  0.32417300  1
  Zn  Zn176  1  0.50000000  0.65176700  0.35090900  1
  Zn  Zn177  1  0.69712500  0.94326200  0.35786700  1
  Zn  Zn178  1  0.52936800  0.94567200  0.31981200  1
  Zn  Zn179  1  0.79093800  0.25479300  0.35609700  1
  Zn  Zn180  1  0.30287500  0.36027200  0.34395200  1
  Zn  Zn181  1  0.20906200  0.04874100  0.34572100  1
  Zn  Zn182  1  0.19118100  0.92101600  0.38778100  1
  Zn  Zn183  1  0.47063200  0.35786200  0.38200600  1
  Zn  Zn184  1  0.85526800  0.89599000  0.34344300  1
  Zn  Zn185  1  0.00000000  0.65176700  0.35090900  1
  Zn  Zn186  1  0.46912600  0.30785400  0.33147200  1
  Zn  Zn187  1  0.34118800  0.20186200  0.36420100  1
  Zn  Zn188  1  0.48641100  0.47987200  0.34186600  1
  Zn  Zn189  1  0.84920500  0.82769800  0.43455100  1
  Zn  Zn190  1  0.03575800  0.08927700  0.47103100  1
  Zn  Zn191  1  0.51358900  0.92366200  0.45995200  1
  Zn  Zn192  1  0.14473200  0.50754400  0.45837500  1
  Zn  Zn193  1  0.17856500  0.85526700  0.47764500  1
  Zn  Zn194  1  0.85936100  0.04545200  0.49412500  1
  Zn  Zn195  1  0.50000000  0.70176700  0.40090900  1
  Zn  Zn196  1  0.15079500  0.67583600  0.46726800  1
  Zn  Zn197  1  0.37496700  0.14705000  0.48328600  1
  Zn  Zn198  1  0.82105800  0.69878700  0.47480600  1
  Zn  Zn199  1  0.53087400  0.09568000  0.47034600  1
  Zn  Zn200  1  0.65881200  0.20167200  0.43761800  1
  Zn  Zn201  1  0.66294100  0.70463100  0.43737500  1
  Zn  Zn202  1  0.80881900  0.48251800  0.41403700  1
  Zn  Zn203  1  0.96424200  0.41425700  0.43078700  1
  Zn  Zn204  1  0.62503300  0.35648400  0.41853200  1
  Zn  Zn205  1  0.78829600  0.30495800  0.40444300  1
  Zn  Zn206  1  0.17894200  0.80474700  0.42701200  1
  Zn  Zn207  1  0.14063900  0.45808200  0.40769300  1
  Zn  Zn208  1  0.33705900  0.79890200  0.46444300  1
  Zn  Zn209  1  0.21170400  0.19857600  0.49737500  1
  Zn  Zn210  1  0.82143500  0.64826700  0.42417300  1
  Zn  Zn211  1  0.50000000  0.75176700  0.45090900  1
  Zn  Zn212  1  0.69712500  0.04326200  0.45786700  1
  Zn  Zn213  1  0.52936800  0.04567200  0.41981200  1
  Zn  Zn214  1  0.79093800  0.35479300  0.45609700  1
  Zn  Zn215  1  0.30287500  0.46027200  0.44395200  1
  Zn  Zn216  1  0.20906200  0.14874100  0.44572100  1
  Zn  Zn217  1  0.19118100  0.02101600  0.48778100  1
  Zn  Zn218  1  0.47063200  0.45786200  0.48200600  1
  Zn  Zn219  1  0.85526800  0.99599000  0.44344300  1
  Zn  Zn220  1  0.00000000  0.75176700  0.45090900  1
  Zn  Zn221  1  0.46912600  0.40785400  0.43147200  1
  Zn  Zn222  1  0.34118800  0.30186200  0.46420100  1
  Zn  Zn223  1  0.48641100  0.57987200  0.44186600  1
  Zn  Zn224  1  0.84920500  0.92769800  0.53455100  1
  Zn  Zn225  1  0.03575800  0.18927700  0.57103100  1
  Zn  Zn226  1  0.51358900  0.02366200  0.55995200  1
  Zn  Zn227  1  0.14473200  0.60754400  0.55837500  1
  Zn  Zn228  1  0.17856500  0.95526700  0.57764500  1
  Zn  Zn229  1  0.85936100  0.14545200  0.59412500  1
  Zn  Zn230  1  0.50000000  0.80176700  0.50090900  1
  Zn  Zn231  1  0.15079500  0.77583600  0.56726800  1
  Zn  Zn232  1  0.37496700  0.24705000  0.58328600  1
  Zn  Zn233  1  0.82105800  0.79878700  0.57480600  1
  Zn  Zn234  1  0.53087400  0.19568000  0.57034600  1
  Zn  Zn235  1  0.65881200  0.30167200  0.53761800  1
  Zn  Zn236  1  0.66294100  0.80463100  0.53737500  1
  Zn  Zn237  1  0.80881900  0.58251800  0.51403700  1
  Zn  Zn238  1  0.96424200  0.51425700  0.53078700  1
  Zn  Zn239  1  0.62503300  0.45648400  0.51853200  1
  Zn  Zn240  1  0.78829600  0.40495800  0.50444300  1
  Zn  Zn241  1  0.17894200  0.90474700  0.52701200  1
  Zn  Zn242  1  0.14063900  0.55808200  0.50769300  1
  Zn  Zn243  1  0.33705900  0.89890200  0.56444300  1
  Zn  Zn244  1  0.21170400  0.29857600  0.59737500  1
  Zn  Zn245  1  0.82143500  0.74826700  0.52417300  1
  Zn  Zn246  1  0.50000000  0.85176700  0.55090900  1
  Zn  Zn247  1  0.69712500  0.14326200  0.55786700  1
  Zn  Zn248  1  0.52936800  0.14567200  0.51981200  1
  Zn  Zn249  1  0.79093800  0.45479300  0.55609700  1
  Zn  Zn250  1  0.30287500  0.56027200  0.54395200  1
  Zn  Zn251  1  0.20906200  0.24874100  0.54572100  1
  Zn  Zn252  1  0.19118100  0.12101600  0.58778100  1
  Zn  Zn253  1  0.47063200  0.55786200  0.58200600  1
  Zn  Zn254  1  0.85526800  0.09599000  0.54344300  1
  Zn  Zn255  1  0.00000000  0.85176700  0.55090900  1
  Zn  Zn256  1  0.46912600  0.50785400  0.53147200  1
  Zn  Zn257  1  0.34118800  0.40186200  0.56420100  1
  Zn  Zn258  1  0.48641100  0.67987200  0.54186600  1
  Zn  Zn259  1  0.84920500  0.02769800  0.63455100  1
  Zn  Zn260  1  0.03575800  0.28927700  0.67103100  1
  Zn  Zn261  1  0.51358900  0.12366200  0.65995200  1
  Zn  Zn262  1  0.14473200  0.70754400  0.65837500  1
  Zn  Zn263  1  0.17856500  0.05526700  0.67764500  1
  Zn  Zn264  1  0.85936100  0.24545200  0.69412500  1
  Zn  Zn265  1  0.50000000  0.90176700  0.60090900  1
  Zn  Zn266  1  0.15079500  0.87583600  0.66726800  1
  Zn  Zn267  1  0.37496700  0.34705000  0.68328600  1
  Zn  Zn268  1  0.82105800  0.89878700  0.67480600  1
  Zn  Zn269  1  0.53087400  0.29568000  0.67034600  1
  Zn  Zn270  1  0.65881200  0.40167200  0.63761800  1
  Zn  Zn271  1  0.66294100  0.90463100  0.63737500  1
  Zn  Zn272  1  0.80881900  0.68251800  0.61403700  1
  Zn  Zn273  1  0.96424200  0.61425700  0.63078700  1
  Zn  Zn274  1  0.62503300  0.55648400  0.61853200  1
  Zn  Zn275  1  0.78829600  0.50495800  0.60444300  1
  Zn  Zn276  1  0.17894200  0.00474700  0.62701200  1
  Zn  Zn277  1  0.14063900  0.65808200  0.60769300  1
  Zn  Zn278  1  0.33705900  0.99890200  0.66444300  1
  Zn  Zn279  1  0.21170400  0.39857600  0.69737500  1
  Zn  Zn280  1  0.82143500  0.84826700  0.62417300  1
  Zn  Zn281  1  0.50000000  0.95176700  0.65090900  1
  Zn  Zn282  1  0.69712500  0.24326200  0.65786700  1
  Zn  Zn283  1  0.52936800  0.24567200  0.61981200  1
  Zn  Zn284  1  0.79093800  0.55479300  0.65609700  1
  Zn  Zn285  1  0.30287500  0.66027200  0.64395200  1
  Zn  Zn286  1  0.20906200  0.34874100  0.64572100  1
  Zn  Zn287  1  0.19118100  0.22101600  0.68778100  1
  Zn  Zn288  1  0.47063200  0.65786200  0.68200600  1
  Zn  Zn289  1  0.85526800  0.19599000  0.64344300  1
  Zn  Zn290  1  0.00000000  0.95176700  0.65090900  1
  Zn  Zn291  1  0.46912600  0.60785400  0.63147200  1
  Zn  Zn292  1  0.34118800  0.50186200  0.66420100  1
  Zn  Zn293  1  0.48641100  0.77987200  0.64186600  1
  Zn  Zn294  1  0.84920500  0.12769800  0.73455100  1
  Zn  Zn295  1  0.03575800  0.38927700  0.77103100  1
  Zn  Zn296  1  0.51358900  0.22366200  0.75995200  1
  Zn  Zn297  1  0.14473200  0.80754400  0.75837500  1
  Zn  Zn298  1  0.17856500  0.15526700  0.77764500  1
  Zn  Zn299  1  0.85936100  0.34545200  0.79412500  1
  Zn  Zn300  1  0.50000000  0.00176700  0.70090900  1
  Zn  Zn301  1  0.15079500  0.97583600  0.76726800  1
  Zn  Zn302  1  0.37496700  0.44705000  0.78328600  1
  Zn  Zn303  1  0.82105800  0.99878700  0.77480600  1
  Zn  Zn304  1  0.53087400  0.39568000  0.77034600  1
  Zn  Zn305  1  0.65881200  0.50167200  0.73761800  1
  Zn  Zn306  1  0.66294100  0.00463100  0.73737500  1
  Zn  Zn307  1  0.80881900  0.78251800  0.71403700  1
  Zn  Zn308  1  0.96424200  0.71425700  0.73078700  1
  Zn  Zn309  1  0.62503300  0.65648400  0.71853200  1
  Zn  Zn310  1  0.78829600  0.60495800  0.70444300  1
  Zn  Zn311  1  0.17894200  0.10474700  0.72701200  1
  Zn  Zn312  1  0.14063900  0.75808200  0.70769300  1
  Zn  Zn313  1  0.33705900  0.09890200  0.76444300  1
  Zn  Zn314  1  0.21170400  0.49857600  0.79737500  1
  Zn  Zn315  1  0.82143500  0.94826700  0.72417300  1
  Zn  Zn316  1  0.50000000  0.05176700  0.75090900  1
  Zn  Zn317  1  0.69712500  0.34326200  0.75786700  1
  Zn  Zn318  1  0.52936800  0.34567200  0.71981200  1
  Zn  Zn319  1  0.79093800  0.65479300  0.75609700  1
  Zn  Zn320  1  0.30287500  0.76027200  0.74395200  1
  Zn  Zn321  1  0.20906200  0.44874100  0.74572100  1
  Zn  Zn322  1  0.19118100  0.32101600  0.78778100  1
  Zn  Zn323  1  0.47063200  0.75786200  0.78200600  1
  Zn  Zn324  1  0.85526800  0.29599000  0.74344300  1
  Zn  Zn325  1  0.00000000  0.05176700  0.75090900  1
  Zn  Zn326  1  0.46912600  0.70785400  0.73147200  1
  Zn  Zn327  1  0.34118800  0.60186200  0.76420100  1
  Zn  Zn328  1  0.48641100  0.87987200  0.74186600  1
