# generated using pymatgen
data_Mg12P7
_symmetry_space_group_name_H-M   'P 1'
_cell_length_a   17.07071752
_cell_length_b   17.07071720
_cell_length_c   49.76926500
_cell_angle_alpha   99.87496192
_cell_angle_beta   99.87496173
_cell_angle_gamma   59.99999851
_symmetry_Int_Tables_number   1
_chemical_formula_structural   Mg12P7
_chemical_formula_sum   'Mg192 P112'
_cell_volume   12311.42566265
_cell_formula_units_Z   16
loop_
 _symmetry_equiv_pos_site_id
 _symmetry_equiv_pos_as_xyz
  1  'x, y, z'
loop_
 _atom_site_type_symbol
 _atom_site_label
 _atom_site_symmetry_multiplicity
 _atom_site_fract_x
 _atom_site_fract_y
 _atom_site_fract_z
 _atom_site_occupancy
  Mg  Mg0  1  0.17802700  0.93779800  0.32321100  1
  Mg  Mg1  1  0.66399000  0.68997500  0.31385300  1
  Mg  Mg2  1  0.42107900  0.91431000  0.31857800  1
  Mg  Mg3  1  0.16012300  0.42666200  0.31578700  1
  Mg  Mg4  1  0.33283200  0.56661800  0.24242400  1
  Mg  Mg5  1  0.94706300  0.42107900  0.31857800  1
  Mg  Mg6  1  0.42666200  0.69287600  0.31578700  1
  Mg  Mg7  1  0.17125900  0.17802700  0.32321100  1
  Mg  Mg8  1  0.58065500  0.81411600  0.25178200  1
  Mg  Mg9  1  0.56661800  0.30684700  0.24242400  1
  Mg  Mg10  1  0.55716700  0.58992000  0.24715000  1
  Mg  Mg11  1  0.33573300  0.80298000  0.24435800  1
  Mg  Mg12  1  0.99788800  0.23811800  0.27678900  1
  Mg  Mg13  1  0.51192500  0.48594100  0.28614700  1
  Mg  Mg14  1  0.75483700  0.26160600  0.28142200  1
  Mg  Mg15  1  0.01579300  0.74925400  0.28421300  1
  Mg  Mg16  1  0.84308300  0.60929800  0.35757600  1
  Mg  Mg17  1  0.22885200  0.75483700  0.28142200  1
  Mg  Mg18  1  0.74925400  0.48304000  0.28421300  1
  Mg  Mg19  1  0.00465700  0.99788800  0.27678900  1
  Mg  Mg20  1  0.59526000  0.36180000  0.34821800  1
  Mg  Mg21  1  0.60929800  0.86906800  0.35757600  1
  Mg  Mg22  1  0.61874800  0.58599500  0.35285000  1
  Mg  Mg23  1  0.84018300  0.37293600  0.35564200  1
  Mg  Mg24  1  0.82088500  0.58065500  0.25178200  1
  Mg  Mg25  1  0.30684700  0.33283200  0.24242400  1
  Mg  Mg26  1  0.06393600  0.55716700  0.24715000  1
  Mg  Mg27  1  0.80298000  0.06951900  0.24435800  1
  Mg  Mg28  1  0.68997500  0.92376100  0.31385300  1
  Mg  Mg29  1  0.58992000  0.06393600  0.24715000  1
  Mg  Mg30  1  0.06951900  0.33573300  0.24435800  1
  Mg  Mg31  1  0.81411600  0.82088500  0.25178200  1
  Mg  Mg32  1  0.93779800  0.17125900  0.32321100  1
  Mg  Mg33  1  0.92376100  0.66399000  0.31385300  1
  Mg  Mg34  1  0.91431000  0.94706300  0.31857800  1
  Mg  Mg35  1  0.69287600  0.16012300  0.31578700  1
  Mg  Mg36  1  0.35503100  0.59526000  0.34821800  1
  Mg  Mg37  1  0.86906800  0.84308300  0.35757600  1
  Mg  Mg38  1  0.11198000  0.61874800  0.35285000  1
  Mg  Mg39  1  0.37293600  0.10639700  0.35564200  1
  Mg  Mg40  1  0.48594100  0.25215500  0.28614700  1
  Mg  Mg41  1  0.58599500  0.11198000  0.35285000  1
  Mg  Mg42  1  0.10639700  0.84018300  0.35564200  1
  Mg  Mg43  1  0.36180000  0.35503100  0.34821800  1
  Mg  Mg44  1  0.23811800  0.00465700  0.27678900  1
  Mg  Mg45  1  0.25215500  0.51192500  0.28614700  1
  Mg  Mg46  1  0.26160600  0.22885200  0.28142200  1
  Mg  Mg47  1  0.48304000  0.01579300  0.28421300  1
  Mg  Mg48  1  0.89231300  0.65208400  0.46606800  1
  Mg  Mg49  1  0.37827600  0.40426100  0.45671000  1
  Mg  Mg50  1  0.13536400  0.62859600  0.46143500  1
  Mg  Mg51  1  0.87440800  0.14094700  0.45864400  1
  Mg  Mg52  1  0.04711800  0.28090400  0.38528100  1
  Mg  Mg53  1  0.66134900  0.13536400  0.46143500  1
  Mg  Mg54  1  0.14094700  0.40716100  0.45864400  1
  Mg  Mg55  1  0.88554500  0.89231300  0.46606800  1
  Mg  Mg56  1  0.29494100  0.52840200  0.39463900  1
  Mg  Mg57  1  0.28090400  0.02113300  0.38528100  1
  Mg  Mg58  1  0.27145300  0.30420600  0.39000700  1
  Mg  Mg59  1  0.05001900  0.51726500  0.38721500  1
  Mg  Mg60  1  0.71217400  0.95240300  0.41964600  1
  Mg  Mg61  1  0.22621100  0.20022600  0.42900400  1
  Mg  Mg62  1  0.46912300  0.97589100  0.42427900  1
  Mg  Mg63  1  0.73007900  0.46354000  0.42707000  1
  Mg  Mg64  1  0.55736900  0.32358300  0.50043300  1
  Mg  Mg65  1  0.94313800  0.46912300  0.42427900  1
  Mg  Mg66  1  0.46354000  0.19732600  0.42707000  1
  Mg  Mg67  1  0.71894200  0.71217400  0.41964600  1
  Mg  Mg68  1  0.30954600  0.07608500  0.49107500  1
  Mg  Mg69  1  0.32358300  0.58335400  0.50043300  1
  Mg  Mg70  1  0.33303400  0.30028100  0.49570700  1
  Mg  Mg71  1  0.55446800  0.08722200  0.49849900  1
  Mg  Mg72  1  0.53517000  0.29494100  0.39463900  1
  Mg  Mg73  1  0.02113300  0.04711800  0.38528100  1
  Mg  Mg74  1  0.77822100  0.27145300  0.39000700  1
  Mg  Mg75  1  0.51726500  0.78380500  0.38721500  1
  Mg  Mg76  1  0.40426100  0.63804700  0.45671000  1
  Mg  Mg77  1  0.30420600  0.77822100  0.39000700  1
  Mg  Mg78  1  0.78380500  0.05001900  0.38721500  1
  Mg  Mg79  1  0.52840200  0.53517000  0.39463900  1
  Mg  Mg80  1  0.65208400  0.88554500  0.46606800  1
  Mg  Mg81  1  0.63804700  0.37827600  0.45671000  1
  Mg  Mg82  1  0.62859600  0.66134900  0.46143500  1
  Mg  Mg83  1  0.40716100  0.87440800  0.45864400  1
  Mg  Mg84  1  0.06931700  0.30954600  0.49107500  1
  Mg  Mg85  1  0.58335400  0.55736900  0.50043300  1
  Mg  Mg86  1  0.82626600  0.33303400  0.49570700  1
  Mg  Mg87  1  0.08722200  0.82068200  0.49849900  1
  Mg  Mg88  1  0.20022600  0.96644000  0.42900400  1
  Mg  Mg89  1  0.30028100  0.82626600  0.49570700  1
  Mg  Mg90  1  0.82068200  0.55446800  0.49849900  1
  Mg  Mg91  1  0.07608500  0.06931700  0.49107500  1
  Mg  Mg92  1  0.95240300  0.71894200  0.41964600  1
  Mg  Mg93  1  0.96644000  0.22621100  0.42900400  1
  Mg  Mg94  1  0.97589100  0.94313800  0.42427900  1
  Mg  Mg95  1  0.19732600  0.73007900  0.42707000  1
  Mg  Mg96  1  0.60659900  0.36636900  0.60892500  1
  Mg  Mg97  1  0.09256200  0.11854600  0.59956700  1
  Mg  Mg98  1  0.84965000  0.34288100  0.60429300  1
  Mg  Mg99  1  0.58869400  0.85523300  0.60150100  1
  Mg  Mg100  1  0.76140400  0.99518900  0.52813900  1
  Mg  Mg101  1  0.37563500  0.84965000  0.60429300  1
  Mg  Mg102  1  0.85523300  0.12144700  0.60150100  1
  Mg  Mg103  1  0.59983000  0.60659900  0.60892500  1
  Mg  Mg104  1  0.00922700  0.24268700  0.53749700  1
  Mg  Mg105  1  0.99518900  0.73541900  0.52813900  1
  Mg  Mg106  1  0.98573900  0.01849200  0.53286400  1
  Mg  Mg107  1  0.76430400  0.23155100  0.53007200  1
  Mg  Mg108  1  0.42646000  0.66668900  0.56250300  1
  Mg  Mg109  1  0.94049700  0.91451200  0.57186100  1
  Mg  Mg110  1  0.18340800  0.69017700  0.56713600  1
  Mg  Mg111  1  0.44436400  0.17782500  0.56992800  1
  Mg  Mg112  1  0.27165500  0.03786900  0.64329000  1
  Mg  Mg113  1  0.65742400  0.18340800  0.56713600  1
  Mg  Mg114  1  0.17782500  0.91161100  0.56992800  1
  Mg  Mg115  1  0.43322800  0.42646000  0.56250300  1
  Mg  Mg116  1  0.02383200  0.79037100  0.63393200  1
  Mg  Mg117  1  0.03786900  0.29764000  0.64329000  1
  Mg  Mg118  1  0.04732000  0.01456700  0.63856500  1
  Mg  Mg119  1  0.26875400  0.80150700  0.64135600  1
  Mg  Mg120  1  0.24945600  0.00922700  0.53749700  1
  Mg  Mg121  1  0.73541900  0.76140400  0.52813900  1
  Mg  Mg122  1  0.49250700  0.98573900  0.53286400  1
  Mg  Mg123  1  0.23155100  0.49809000  0.53007200  1
  Mg  Mg124  1  0.11854600  0.35233200  0.59956700  1
  Mg  Mg125  1  0.01849200  0.49250700  0.53286400  1
  Mg  Mg126  1  0.49809000  0.76430400  0.53007200  1
  Mg  Mg127  1  0.24268700  0.24945600  0.53749700  1
  Mg  Mg128  1  0.36636900  0.59983000  0.60892500  1
  Mg  Mg129  1  0.35233200  0.09256200  0.59956700  1
  Mg  Mg130  1  0.34288100  0.37563500  0.60429300  1
  Mg  Mg131  1  0.12144700  0.58869400  0.60150100  1
  Mg  Mg132  1  0.78360200  0.02383200  0.63393200  1
  Mg  Mg133  1  0.29764000  0.27165500  0.64329000  1
  Mg  Mg134  1  0.54055100  0.04732000  0.63856500  1
  Mg  Mg135  1  0.80150700  0.53496800  0.64135600  1
  Mg  Mg136  1  0.91451200  0.68072600  0.57186100  1
  Mg  Mg137  1  0.01456700  0.54055100  0.63856500  1
  Mg  Mg138  1  0.53496800  0.26875400  0.64135600  1
  Mg  Mg139  1  0.79037100  0.78360200  0.63393200  1
  Mg  Mg140  1  0.66668900  0.43322800  0.56250300  1
  Mg  Mg141  1  0.68072600  0.94049700  0.57186100  1
  Mg  Mg142  1  0.69017700  0.65742400  0.56713600  1
  Mg  Mg143  1  0.91161100  0.44436400  0.56992800  1
  Mg  Mg144  1  0.32088500  0.08065500  0.75178200  1
  Mg  Mg145  1  0.80684700  0.83283200  0.74242400  1
  Mg  Mg146  1  0.56393600  0.05716700  0.74715000  1
  Mg  Mg147  1  0.30298000  0.56951900  0.74435800  1
  Mg  Mg148  1  0.47568900  0.70947500  0.67099600  1
  Mg  Mg149  1  0.08992000  0.56393600  0.74715000  1
  Mg  Mg150  1  0.56951900  0.83573300  0.74435800  1
  Mg  Mg151  1  0.31411600  0.32088500  0.75178200  1
  Mg  Mg152  1  0.72351200  0.95697300  0.68035400  1
  Mg  Mg153  1  0.70947500  0.44970500  0.67099600  1
  Mg  Mg154  1  0.70002400  0.73277700  0.67572100  1
  Mg  Mg155  1  0.47859000  0.94583700  0.67293000  1
  Mg  Mg156  1  0.14074500  0.38097500  0.70536100  1
  Mg  Mg157  1  0.65478200  0.62879800  0.71471900  1
  Mg  Mg158  1  0.89769400  0.40446300  0.70999300  1
  Mg  Mg159  1  0.15865000  0.89211100  0.71278500  1
  Mg  Mg160  1  0.98594100  0.75215500  0.78614700  1
  Mg  Mg161  1  0.37171000  0.89769400  0.70999300  1
  Mg  Mg162  1  0.89211100  0.62589700  0.71278500  1
  Mg  Mg163  1  0.14751400  0.14074500  0.70536100  1
  Mg  Mg164  1  0.73811800  0.50465700  0.77678900  1
  Mg  Mg165  1  0.75215500  0.01192500  0.78614700  1
  Mg  Mg166  1  0.76160600  0.72885200  0.78142200  1
  Mg  Mg167  1  0.98304000  0.51579300  0.78421300  1
  Mg  Mg168  1  0.96374200  0.72351200  0.68035400  1
  Mg  Mg169  1  0.44970500  0.47568900  0.67099600  1
  Mg  Mg170  1  0.20679300  0.70002400  0.67572100  1
  Mg  Mg171  1  0.94583700  0.21237600  0.67293000  1
  Mg  Mg172  1  0.83283200  0.06661800  0.74242400  1
  Mg  Mg173  1  0.73277700  0.20679300  0.67572100  1
  Mg  Mg174  1  0.21237600  0.47859000  0.67293000  1
  Mg  Mg175  1  0.95697300  0.96374200  0.68035400  1
  Mg  Mg176  1  0.08065500  0.31411600  0.75178200  1
  Mg  Mg177  1  0.06661800  0.80684700  0.74242400  1
  Mg  Mg178  1  0.05716700  0.08992000  0.74715000  1
  Mg  Mg179  1  0.83573300  0.30298000  0.74435800  1
  Mg  Mg180  1  0.49788800  0.73811800  0.77678900  1
  Mg  Mg181  1  0.01192500  0.98594100  0.78614700  1
  Mg  Mg182  1  0.25483700  0.76160600  0.78142200  1
  Mg  Mg183  1  0.51579300  0.24925400  0.78421300  1
  Mg  Mg184  1  0.62879800  0.39501200  0.71471900  1
  Mg  Mg185  1  0.72885200  0.25483700  0.78142200  1
  Mg  Mg186  1  0.24925400  0.98304000  0.78421300  1
  Mg  Mg187  1  0.50465700  0.49788800  0.77678900  1
  Mg  Mg188  1  0.38097500  0.14751400  0.70536100  1
  Mg  Mg189  1  0.39501200  0.65478200  0.71471900  1
  Mg  Mg190  1  0.40446300  0.37171000  0.70999300  1
  Mg  Mg191  1  0.62589700  0.15865000  0.71278500  1
  P  P192  1  0.08795800  0.08795800  0.30000000  1
  P  P193  1  0.58795800  0.58795800  0.30000000  1
  P  P194  1  0.08795800  0.58795800  0.30000000  1
  P  P195  1  0.32096600  0.34475500  0.29660200  1
  P  P196  1  0.08116100  0.85495000  0.30339800  1
  P  P197  1  0.34475500  0.59475500  0.29660200  1
  P  P198  1  0.85495000  0.33116100  0.30339800  1
  P  P199  1  0.85495000  0.83116100  0.30339800  1
  P  P200  1  0.09475500  0.32096600  0.29660200  1
  P  P201  1  0.83116100  0.58116100  0.30339800  1
  P  P202  1  0.32096600  0.84475500  0.29660200  1
  P  P203  1  0.58795800  0.08795800  0.30000000  1
  P  P204  1  0.33116100  0.08116100  0.30339800  1
  P  P205  1  0.59475500  0.32096600  0.29660200  1
  P  P206  1  0.84475500  0.09475500  0.29660200  1
  P  P207  1  0.58116100  0.85495000  0.30339800  1
  P  P208  1  0.80224300  0.80224300  0.44285700  1
  P  P209  1  0.30224300  0.30224300  0.44285700  1
  P  P210  1  0.80224300  0.30224300  0.44285700  1
  P  P211  1  0.94510100  0.44510100  0.37142900  1
  P  P212  1  0.03525100  0.05904000  0.43945900  1
  P  P213  1  0.68830400  0.43830400  0.37482700  1
  P  P214  1  0.79544700  0.56923600  0.44625600  1
  P  P215  1  0.05904000  0.30904000  0.43945900  1
  P  P216  1  0.95189700  0.67810900  0.36803000  1
  P  P217  1  0.56923600  0.04544700  0.44625600  1
  P  P218  1  0.56923600  0.54544700  0.44625600  1
  P  P219  1  0.20189700  0.45189700  0.36803000  1
  P  P220  1  0.80904000  0.03525100  0.43945900  1
  P  P221  1  0.54544700  0.29544700  0.44625600  1
  P  P222  1  0.93830400  0.21209300  0.37482700  1
  P  P223  1  0.03525100  0.55904000  0.43945900  1
  P  P224  1  0.44510100  0.44510100  0.37142900  1
  P  P225  1  0.94510100  0.94510100  0.37142900  1
  P  P226  1  0.44510100  0.94510100  0.37142900  1
  P  P227  1  0.30224300  0.80224300  0.44285700  1
  P  P228  1  0.67810900  0.70189700  0.36803000  1
  P  P229  1  0.04544700  0.79544700  0.44625600  1
  P  P230  1  0.43830400  0.21209300  0.37482700  1
  P  P231  1  0.70189700  0.95189700  0.36803000  1
  P  P232  1  0.30904000  0.03525100  0.43945900  1
  P  P233  1  0.21209300  0.68830400  0.37482700  1
  P  P234  1  0.21209300  0.18830400  0.37482700  1
  P  P235  1  0.55904000  0.80904000  0.43945900  1
  P  P236  1  0.45189700  0.67810900  0.36803000  1
  P  P237  1  0.18830400  0.93830400  0.37482700  1
  P  P238  1  0.29544700  0.56923600  0.44625600  1
  P  P239  1  0.67810900  0.20189700  0.36803000  1
  P  P240  1  0.51652900  0.51652900  0.58571400  1
  P  P241  1  0.01652900  0.01652900  0.58571400  1
  P  P242  1  0.51652900  0.01652900  0.58571400  1
  P  P243  1  0.65938600  0.15938600  0.51428600  1
  P  P244  1  0.74953700  0.77332600  0.58231600  1
  P  P245  1  0.40259000  0.15259000  0.51768400  1
  P  P246  1  0.50973200  0.28352100  0.58911300  1
  P  P247  1  0.77332600  0.02332600  0.58231600  1
  P  P248  1  0.66618300  0.39239400  0.51088700  1
  P  P249  1  0.28352100  0.75973200  0.58911300  1
  P  P250  1  0.28352100  0.25973200  0.58911300  1
  P  P251  1  0.91618300  0.16618300  0.51088700  1
  P  P252  1  0.52332600  0.74953700  0.58231600  1
  P  P253  1  0.25973200  0.00973200  0.58911300  1
  P  P254  1  0.65259000  0.92637800  0.51768400  1
  P  P255  1  0.74953700  0.27332600  0.58231600  1
  P  P256  1  0.15938600  0.15938600  0.51428600  1
  P  P257  1  0.65938600  0.65938600  0.51428600  1
  P  P258  1  0.15938600  0.65938600  0.51428600  1
  P  P259  1  0.01652900  0.51652900  0.58571400  1
  P  P260  1  0.39239400  0.41618300  0.51088700  1
  P  P261  1  0.75973200  0.50973200  0.58911300  1
  P  P262  1  0.15259000  0.92637800  0.51768400  1
  P  P263  1  0.41618300  0.66618300  0.51088700  1
  P  P264  1  0.02332600  0.74953700  0.58231600  1
  P  P265  1  0.92637800  0.40259000  0.51768400  1
  P  P266  1  0.92637800  0.90259000  0.51768400  1
  P  P267  1  0.27332600  0.52332600  0.58231600  1
  P  P268  1  0.16618300  0.39239400  0.51088700  1
  P  P269  1  0.90259000  0.65259000  0.51768400  1
  P  P270  1  0.00973200  0.28352100  0.58911300  1
  P  P271  1  0.39239400  0.91618300  0.51088700  1
  P  P272  1  0.23081500  0.23081500  0.72857100  1
  P  P273  1  0.73081500  0.73081500  0.72857100  1
  P  P274  1  0.23081500  0.73081500  0.72857100  1
  P  P275  1  0.37367200  0.87367200  0.65714300  1
  P  P276  1  0.46382300  0.48761200  0.72517300  1
  P  P277  1  0.11687500  0.86687500  0.66054100  1
  P  P278  1  0.22401800  0.99780700  0.73197000  1
  P  P279  1  0.48761200  0.73761200  0.72517300  1
  P  P280  1  0.38046900  0.10668000  0.65374400  1
  P  P281  1  0.99780700  0.47401800  0.73197000  1
  P  P282  1  0.99780700  0.97401800  0.73197000  1
  P  P283  1  0.63046900  0.88046900  0.65374400  1
  P  P284  1  0.23761200  0.46382300  0.72517300  1
  P  P285  1  0.97401800  0.72401800  0.73197000  1
  P  P286  1  0.36687500  0.64066400  0.66054100  1
  P  P287  1  0.46382300  0.98761200  0.72517300  1
  P  P288  1  0.87367200  0.87367200  0.65714300  1
  P  P289  1  0.37367200  0.37367200  0.65714300  1
  P  P290  1  0.87367200  0.37367200  0.65714300  1
  P  P291  1  0.73081500  0.23081500  0.72857100  1
  P  P292  1  0.10668000  0.13046900  0.65374400  1
  P  P293  1  0.47401800  0.22401800  0.73197000  1
  P  P294  1  0.86687500  0.64066400  0.66054100  1
  P  P295  1  0.13046900  0.38046900  0.65374400  1
  P  P296  1  0.73761200  0.46382300  0.72517300  1
  P  P297  1  0.64066400  0.11687500  0.66054100  1
  P  P298  1  0.64066400  0.61687500  0.66054100  1
  P  P299  1  0.98761200  0.23761200  0.72517300  1
  P  P300  1  0.88046900  0.10668000  0.65374400  1
  P  P301  1  0.61687500  0.36687500  0.66054100  1
  P  P302  1  0.72401800  0.99780700  0.73197000  1
  P  P303  1  0.10668000  0.63046900  0.65374400  1
