# generated using pymatgen
data_Mg11Sb6
_symmetry_space_group_name_H-M   'P 1'
_cell_length_a   4.60697300
_cell_length_b   4.60697355
_cell_length_c   50.82509700
_cell_angle_alpha   90.00000000
_cell_angle_beta   90.00000000
_cell_angle_gamma   120.00000322
_symmetry_Int_Tables_number   1
_chemical_formula_structural   Mg11Sb6
_chemical_formula_sum   'Mg11 Sb6'
_cell_volume   934.20076735
_cell_formula_units_Z   1
loop_
 _symmetry_equiv_pos_site_id
 _symmetry_equiv_pos_as_xyz
  1  'x, y, z'
loop_
 _atom_site_type_symbol
 _atom_site_label
 _atom_site_symmetry_multiplicity
 _atom_site_fract_x
 _atom_site_fract_y
 _atom_site_fract_z
 _atom_site_occupancy
  Mg  Mg0  1  0.00000000  0.00000000  0.31428600  1
  Mg  Mg1  1  0.33333300  0.66666700  0.22388600  1
  Mg  Mg2  1  0.66666700  0.33333300  0.26182800  1
  Mg  Mg3  1  0.00000000  0.00000000  0.45714300  1
  Mg  Mg4  1  0.33333300  0.66666700  0.36674300  1
  Mg  Mg5  1  0.66666700  0.33333300  0.40468500  1
  Mg  Mg6  1  0.00000000  0.00000000  0.60000000  1
  Mg  Mg7  1  0.33333300  0.66666700  0.50960000  1
  Mg  Mg8  1  0.66666700  0.33333300  0.54754300  1
  Mg  Mg9  1  0.33333300  0.66666700  0.65245700  1
  Mg  Mg10  1  0.66666700  0.33333300  0.69040000  1
  Sb  Sb11  1  0.33333300  0.66666700  0.28207000  1
  Sb  Sb12  1  0.66666700  0.33333300  0.34650200  1
  Sb  Sb13  1  0.33333300  0.66666700  0.42492700  1
  Sb  Sb14  1  0.66666700  0.33333300  0.48935900  1
  Sb  Sb15  1  0.33333300  0.66666700  0.56778400  1
  Sb  Sb16  1  0.66666700  0.33333300  0.63221600  1
