# generated using pymatgen
data_Mg2Ag
_symmetry_space_group_name_H-M   'P 1'
_cell_length_a   4.71873400
_cell_length_b   5.87374752
_cell_length_c   42.46860400
_cell_angle_alpha   90.00000000
_cell_angle_beta   90.00000000
_cell_angle_gamma   113.68324652
_symmetry_Int_Tables_number   1
_chemical_formula_structural   Mg2Ag
_chemical_formula_sum   'Mg22 Ag11'
_cell_volume   1077.95331171
_cell_formula_units_Z   11
loop_
 _symmetry_equiv_pos_site_id
 _symmetry_equiv_pos_as_xyz
  1  'x, y, z'
loop_
 _atom_site_type_symbol
 _atom_site_label
 _atom_site_symmetry_multiplicity
 _atom_site_fract_x
 _atom_site_fract_y
 _atom_site_fract_z
 _atom_site_occupancy
  Mg  Mg0  1  0.40202500  0.30405000  0.22222200  1
  Mg  Mg1  1  0.09797500  0.69595000  0.22222200  1
  Mg  Mg2  1  0.90202500  0.30405000  0.27777800  1
  Mg  Mg3  1  0.59797500  0.69595000  0.27777800  1
  Mg  Mg4  1  0.40202500  0.30405000  0.33333300  1
  Mg  Mg5  1  0.09797500  0.69595000  0.33333300  1
  Mg  Mg6  1  0.90202500  0.30405000  0.38888900  1
  Mg  Mg7  1  0.59797500  0.69595000  0.38888900  1
  Mg  Mg8  1  0.40202500  0.30405000  0.44444400  1
  Mg  Mg9  1  0.09797500  0.69595000  0.44444400  1
  Mg  Mg10  1  0.90202500  0.30405000  0.50000000  1
  Mg  Mg11  1  0.59797500  0.69595000  0.50000000  1
  Mg  Mg12  1  0.40202500  0.30405000  0.55555600  1
  Mg  Mg13  1  0.09797500  0.69595000  0.55555600  1
  Mg  Mg14  1  0.90202500  0.30405000  0.61111100  1
  Mg  Mg15  1  0.59797500  0.69595000  0.61111100  1
  Mg  Mg16  1  0.40202500  0.30405000  0.66666700  1
  Mg  Mg17  1  0.09797500  0.69595000  0.66666700  1
  Mg  Mg18  1  0.90202500  0.30405000  0.72222200  1
  Mg  Mg19  1  0.59797500  0.69595000  0.72222200  1
  Mg  Mg20  1  0.40202500  0.30405000  0.77777800  1
  Mg  Mg21  1  0.09797500  0.69595000  0.77777800  1
  Ag  Ag22  1  0.75000000  0.00000000  0.22222200  1
  Ag  Ag23  1  0.25000000  1.00000000  0.27777800  1
  Ag  Ag24  1  0.75000000  0.00000000  0.33333300  1
  Ag  Ag25  1  0.25000000  0.00000000  0.38888900  1
  Ag  Ag26  1  0.75000000  0.00000000  0.44444400  1
  Ag  Ag27  1  0.25000000  0.00000000  0.50000000  1
  Ag  Ag28  1  0.75000000  0.00000000  0.55555600  1
  Ag  Ag29  1  0.25000000  0.00000000  0.61111100  1
  Ag  Ag30  1  0.75000000  0.00000000  0.66666700  1
  Ag  Ag31  1  0.25000000  0.00000000  0.72222200  1
  Ag  Ag32  1  0.75000000  0.00000000  0.77777800  1
