# generated using pymatgen
data_Mg17Sb11
_symmetry_space_group_name_H-M   'P 1'
_cell_length_a   7.97951195
_cell_length_b   8.59897531
_cell_length_c   41.95520800
_cell_angle_alpha   90.10873509
_cell_angle_beta   95.45681876
_cell_angle_gamma   62.35574749
_symmetry_Int_Tables_number   1
_chemical_formula_structural   Mg17Sb11
_chemical_formula_sum   'Mg34 Sb22'
_cell_volume   2535.68799419
_cell_formula_units_Z   2
loop_
 _symmetry_equiv_pos_site_id
 _symmetry_equiv_pos_as_xyz
  1  'x, y, z'
loop_
 _atom_site_type_symbol
 _atom_site_label
 _atom_site_symmetry_multiplicity
 _atom_site_fract_x
 _atom_site_fract_y
 _atom_site_fract_z
 _atom_site_occupancy
  Mg  Mg0  1  0.62642400  0.90660600  0.23157900  1
  Mg  Mg1  1  0.20537100  0.80134300  0.28421100  1
  Mg  Mg2  1  0.13847900  0.23515500  0.25090500  1
  Mg  Mg3  1  0.69331600  0.47279400  0.26488400  1
  Mg  Mg4  1  0.78431800  0.69608000  0.33684200  1
  Mg  Mg5  1  0.71742600  0.12989200  0.30353700  1
  Mg  Mg6  1  0.27226300  0.36753000  0.31751600  1
  Mg  Mg7  1  0.36326600  0.59081600  0.38947400  1
  Mg  Mg8  1  0.29637400  0.02462900  0.35616900  1
  Mg  Mg9  1  0.85121000  0.26226700  0.37014700  1
  Mg  Mg10  1  0.94221300  0.48555300  0.44210500  1
  Mg  Mg11  1  0.87532100  0.91936600  0.40880000  1
  Mg  Mg12  1  0.43015800  0.15700400  0.42277900  1
  Mg  Mg13  1  0.52116000  0.38029000  0.49473700  1
  Mg  Mg14  1  0.45426800  0.81410200  0.46143200  1
  Mg  Mg15  1  0.00910500  0.05174100  0.47541000  1
  Mg  Mg16  1  0.10010800  0.27502700  0.54736800  1
  Mg  Mg17  1  0.03321600  0.70883900  0.51406300  1
  Mg  Mg18  1  0.58805200  0.94647800  0.52804200  1
  Mg  Mg19  1  0.67905500  0.16976400  0.60000000  1
  Mg  Mg20  1  0.61216300  0.60357600  0.56669500  1
  Mg  Mg21  1  0.16700000  0.84121500  0.58067400  1
  Mg  Mg22  1  0.25800200  0.06450100  0.65263200  1
  Mg  Mg23  1  0.19111000  0.49831300  0.61932600  1
  Mg  Mg24  1  0.74594700  0.73595200  0.63330500  1
  Mg  Mg25  1  0.83695000  0.95923700  0.70526300  1
  Mg  Mg26  1  0.77005800  0.39305000  0.67195800  1
  Mg  Mg27  1  0.32489500  0.63068800  0.68593700  1
  Mg  Mg28  1  0.41589700  0.85397400  0.75789500  1
  Mg  Mg29  1  0.34900500  0.28778700  0.72459000  1
  Mg  Mg30  1  0.90384200  0.52542500  0.73856800  1
  Mg  Mg31  1  0.99484500  0.74871100  0.81052600  1
  Mg  Mg32  1  0.92795300  0.18252300  0.77722100  1
  Mg  Mg33  1  0.48278900  0.42016200  0.79120000  1
  Sb  Sb34  1  0.96699000  0.59956900  0.27234100  1
  Sb  Sb35  1  0.86480500  0.10838000  0.24344800  1
  Sb  Sb36  1  0.54593700  0.49430600  0.32497300  1
  Sb  Sb37  1  0.44375200  0.00311700  0.29608000  1
  Sb  Sb38  1  0.12488500  0.38904300  0.37760500  1
  Sb  Sb39  1  0.02269900  0.89785300  0.34871100  1
  Sb  Sb40  1  0.70383200  0.28377900  0.43023600  1
  Sb  Sb41  1  0.60164700  0.79259000  0.40134300  1
  Sb  Sb42  1  0.28277900  0.17851600  0.48286800  1
  Sb  Sb43  1  0.18059400  0.68732700  0.45397400  1
  Sb  Sb44  1  0.86172700  0.07325300  0.53549900  1
  Sb  Sb45  1  0.75954100  0.58206400  0.50660600  1
  Sb  Sb46  1  0.44067400  0.96799000  0.58813100  1
  Sb  Sb47  1  0.33848900  0.47680100  0.55923700  1
  Sb  Sb48  1  0.01962200  0.86272700  0.64076300  1
  Sb  Sb49  1  0.91743600  0.37153800  0.61186900  1
  Sb  Sb50  1  0.59856900  0.75746400  0.69339400  1
  Sb  Sb51  1  0.49638300  0.26627400  0.66450100  1
  Sb  Sb52  1  0.17751600  0.65220100  0.74602600  1
  Sb  Sb53  1  0.07533100  0.16101100  0.71713200  1
  Sb  Sb54  1  0.75646400  0.54693700  0.79865700  1
  Sb  Sb55  1  0.65427800  0.05574800  0.76976400  1
