# generated using pymatgen
data_Tb24Mg47
_symmetry_space_group_name_H-M   'P 1'
_cell_length_a   6.08248400
_cell_length_b   11.52336530
_cell_length_c   46.46507000
_cell_angle_alpha   93.25447367
_cell_angle_beta   90.00000000
_cell_angle_gamma   74.69723465
_symmetry_Int_Tables_number   1
_chemical_formula_structural   Tb24Mg47
_chemical_formula_sum   'Tb24 Mg47'
_cell_volume   3135.85303789
_cell_formula_units_Z   1
loop_
 _symmetry_equiv_pos_site_id
 _symmetry_equiv_pos_as_xyz
  1  'x, y, z'
loop_
 _atom_site_type_symbol
 _atom_site_label
 _atom_site_symmetry_multiplicity
 _atom_site_fract_x
 _atom_site_fract_y
 _atom_site_fract_z
 _atom_site_occupancy
  Tb  Tb0  1  0.02307300  0.40749100  0.27709500  1
  Tb  Tb1  1  0.28973900  0.87415700  0.29376200  1
  Tb  Tb2  1  0.53983600  0.37396400  0.23123800  1
  Tb  Tb3  1  0.27316900  0.90729700  0.21457100  1
  Tb  Tb4  1  0.62307300  0.20749100  0.37709500  1
  Tb  Tb5  1  0.88973900  0.67415700  0.39376200  1
  Tb  Tb6  1  0.13983600  0.17396400  0.33123800  1
  Tb  Tb7  1  0.87316900  0.70729700  0.31457100  1
  Tb  Tb8  1  0.22307300  0.00749100  0.47709500  1
  Tb  Tb9  1  0.48973900  0.47415700  0.49376200  1
  Tb  Tb10  1  0.73983600  0.97396400  0.43123800  1
  Tb  Tb11  1  0.47316900  0.50729700  0.41457100  1
  Tb  Tb12  1  0.82307300  0.80749100  0.57709500  1
  Tb  Tb13  1  0.08973900  0.27415700  0.59376200  1
  Tb  Tb14  1  0.33983600  0.77396400  0.53123800  1
  Tb  Tb15  1  0.07316900  0.30729700  0.51457100  1
  Tb  Tb16  1  0.42307300  0.60749100  0.67709500  1
  Tb  Tb17  1  0.68973900  0.07415700  0.69376200  1
  Tb  Tb18  1  0.93983600  0.57396400  0.63123800  1
  Tb  Tb19  1  0.67316900  0.10729700  0.61457100  1
  Tb  Tb20  1  0.02307300  0.40749100  0.77709500  1
  Tb  Tb21  1  0.28973900  0.87415700  0.79376200  1
  Tb  Tb22  1  0.53983600  0.37396400  0.73123800  1
  Tb  Tb23  1  0.27316900  0.90729700  0.71457100  1
  Mg  Mg24  1  0.78145400  0.89072700  0.25416700  1
  Mg  Mg25  1  0.44718100  0.55927300  0.29489400  1
  Mg  Mg26  1  0.40727200  0.12500000  0.26203000  1
  Mg  Mg27  1  0.92136400  0.12500000  0.26203000  1
  Mg  Mg28  1  0.64154400  0.65645400  0.24630300  1
  Mg  Mg29  1  0.15563700  0.65645400  0.24630300  1
  Mg  Mg30  1  0.11572700  0.22218100  0.21344000  1
  Mg  Mg31  1  0.58145400  0.29072700  0.30416700  1
  Mg  Mg32  1  0.38145400  0.69072700  0.35416700  1
  Mg  Mg33  1  0.04718100  0.35927300  0.39489400  1
  Mg  Mg34  1  0.00727200  0.92500000  0.36203000  1
  Mg  Mg35  1  0.52136400  0.92500000  0.36203000  1
  Mg  Mg36  1  0.24154400  0.45645400  0.34630300  1
  Mg  Mg37  1  0.75563700  0.45645400  0.34630300  1
  Mg  Mg38  1  0.71572700  0.02218100  0.31344000  1
  Mg  Mg39  1  0.18145400  0.09072700  0.40416700  1
  Mg  Mg40  1  0.98145400  0.49072700  0.45416700  1
  Mg  Mg41  1  0.64718100  0.15927300  0.49489400  1
  Mg  Mg42  1  0.60727200  0.72500000  0.46203000  1
  Mg  Mg43  1  0.12136400  0.72500000  0.46203000  1
  Mg  Mg44  1  0.84154400  0.25645400  0.44630300  1
  Mg  Mg45  1  0.35563700  0.25645400  0.44630300  1
  Mg  Mg46  1  0.31572700  0.82218100  0.41344000  1
  Mg  Mg47  1  0.78145400  0.89072700  0.50416700  1
  Mg  Mg48  1  0.58145400  0.29072700  0.55416700  1
  Mg  Mg49  1  0.24718100  0.95927300  0.59489400  1
  Mg  Mg50  1  0.20727200  0.52500000  0.56203000  1
  Mg  Mg51  1  0.72136400  0.52500000  0.56203000  1
  Mg  Mg52  1  0.44154400  0.05645400  0.54630300  1
  Mg  Mg53  1  0.95563700  0.05645400  0.54630300  1
  Mg  Mg54  1  0.91572700  0.62218100  0.51344000  1
  Mg  Mg55  1  0.38145400  0.69072700  0.60416700  1
  Mg  Mg56  1  0.18145400  0.09072700  0.65416700  1
  Mg  Mg57  1  0.84718100  0.75927300  0.69489400  1
  Mg  Mg58  1  0.80727200  0.32500000  0.66203000  1
  Mg  Mg59  1  0.32136400  0.32500000  0.66203000  1
  Mg  Mg60  1  0.04154400  0.85645400  0.64630300  1
  Mg  Mg61  1  0.55563700  0.85645400  0.64630300  1
  Mg  Mg62  1  0.51572700  0.42218100  0.61344000  1
  Mg  Mg63  1  0.98145400  0.49072700  0.70416700  1
  Mg  Mg64  1  0.78145400  0.89072700  0.75416700  1
  Mg  Mg65  1  0.44718100  0.55927300  0.79489400  1
  Mg  Mg66  1  0.40727200  0.12500000  0.76203000  1
  Mg  Mg67  1  0.92136400  0.12500000  0.76203000  1
  Mg  Mg68  1  0.64154400  0.65645400  0.74630300  1
  Mg  Mg69  1  0.15563700  0.65645400  0.74630300  1
  Mg  Mg70  1  0.11572700  0.22218100  0.71344000  1
