# generated using pymatgen
data_Tm17Mg9
_symmetry_space_group_name_H-M   'P 1'
_cell_length_a   6.48584137
_cell_length_b   8.80029164
_cell_length_c   44.06083200
_cell_angle_alpha   91.14784900
_cell_angle_beta   93.09533235
_cell_angle_gamma   96.37169691
_symmetry_Int_Tables_number   1
_chemical_formula_structural   Tm17Mg9
_chemical_formula_sum   'Tm34 Mg18'
_cell_volume   2494.83370718
_cell_formula_units_Z   2
loop_
 _symmetry_equiv_pos_site_id
 _symmetry_equiv_pos_as_xyz
  1  'x, y, z'
loop_
 _atom_site_type_symbol
 _atom_site_label
 _atom_site_symmetry_multiplicity
 _atom_site_fract_x
 _atom_site_fract_y
 _atom_site_fract_z
 _atom_site_occupancy
  Tm  Tm0  1  0.23130700  0.45269000  0.25450500  1
  Tm  Tm1  1  0.81179100  0.03619900  0.23438400  1
  Tm  Tm2  1  0.96464000  0.51935700  0.32117200  1
  Tm  Tm3  1  0.14490200  0.82625300  0.27610600  1
  Tm  Tm4  1  0.54512400  0.10286600  0.30105100  1
  Tm  Tm5  1  0.63152900  0.72930200  0.27944900  1
  Tm  Tm6  1  0.69797300  0.58602300  0.38783800  1
  Tm  Tm7  1  0.87823500  0.89292000  0.34277300  1
  Tm  Tm8  1  0.27845700  0.16953200  0.36771700  1
  Tm  Tm9  1  0.36486200  0.79596900  0.34611600  1
  Tm  Tm10  1  0.43130700  0.65269000  0.45450500  1
  Tm  Tm11  1  0.61156800  0.95958600  0.40944000  1
  Tm  Tm12  1  0.01179100  0.23619900  0.43438400  1
  Tm  Tm13  1  0.09819600  0.86263600  0.41278300  1
  Tm  Tm14  1  0.16464000  0.71935700  0.52117200  1
  Tm  Tm15  1  0.34490200  0.02625300  0.47610600  1
  Tm  Tm16  1  0.74512400  0.30286600  0.50105100  1
  Tm  Tm17  1  0.83152900  0.92930200  0.47944900  1
  Tm  Tm18  1  0.89797300  0.78602300  0.58783800  1
  Tm  Tm19  1  0.07823500  0.09292000  0.54277300  1
  Tm  Tm20  1  0.47845700  0.36953200  0.56771700  1
  Tm  Tm21  1  0.56486200  0.99596900  0.54611600  1
  Tm  Tm22  1  0.63130700  0.85269000  0.65450500  1
  Tm  Tm23  1  0.81156800  0.15958600  0.60944000  1
  Tm  Tm24  1  0.21179100  0.43619900  0.63438400  1
  Tm  Tm25  1  0.29819600  0.06263600  0.61278300  1
  Tm  Tm26  1  0.36464000  0.91935700  0.72117200  1
  Tm  Tm27  1  0.54490200  0.22625300  0.67610600  1
  Tm  Tm28  1  0.94512400  0.50286600  0.70105100  1
  Tm  Tm29  1  0.03152900  0.12930200  0.67944900  1
  Tm  Tm30  1  0.09797300  0.98602300  0.78783800  1
  Tm  Tm31  1  0.27823500  0.29292000  0.74277300  1
  Tm  Tm32  1  0.67845700  0.56953200  0.76771700  1
  Tm  Tm33  1  0.76486200  0.19596900  0.74611600  1
  Mg  Mg34  1  0.32160200  0.10733000  0.23193100  1
  Mg  Mg35  1  0.72149600  0.38155900  0.25695800  1
  Mg  Mg36  1  0.05493500  0.17399600  0.29859800  1
  Mg  Mg37  1  0.45482900  0.44822600  0.32362400  1
  Mg  Mg38  1  0.78826900  0.24066300  0.36526400  1
  Mg  Mg39  1  0.18816200  0.51489200  0.39029100  1
  Mg  Mg40  1  0.52160200  0.30733000  0.43193100  1
  Mg  Mg41  1  0.92149600  0.58155900  0.45695800  1
  Mg  Mg42  1  0.25493500  0.37399600  0.49859800  1
  Mg  Mg43  1  0.65482900  0.64822600  0.52362400  1
  Mg  Mg44  1  0.98826900  0.44066300  0.56526400  1
  Mg  Mg45  1  0.38816200  0.71489200  0.59029100  1
  Mg  Mg46  1  0.72160200  0.50733000  0.63193100  1
  Mg  Mg47  1  0.12149600  0.78155900  0.65695800  1
  Mg  Mg48  1  0.45493500  0.57399600  0.69859800  1
  Mg  Mg49  1  0.85482900  0.84822600  0.72362400  1
  Mg  Mg50  1  0.18826900  0.64066300  0.76526400  1
  Mg  Mg51  1  0.58816200  0.91489200  0.79029100  1
