# generated using pymatgen
data_Nd2Mg
_symmetry_space_group_name_H-M   'P 1'
_cell_length_a   6.85398187
_cell_length_b   17.44750600
_cell_length_c   41.38167700
_cell_angle_alpha   90.00000000
_cell_angle_beta   90.85932907
_cell_angle_gamma   90.00000000
_symmetry_Int_Tables_number   1
_chemical_formula_structural   Nd2Mg
_chemical_formula_sum   'Nd64 Mg32'
_cell_volume   4948.06671023
_cell_formula_units_Z   32
loop_
 _symmetry_equiv_pos_site_id
 _symmetry_equiv_pos_as_xyz
  1  'x, y, z'
loop_
 _atom_site_type_symbol
 _atom_site_label
 _atom_site_symmetry_multiplicity
 _atom_site_fract_x
 _atom_site_fract_y
 _atom_site_fract_z
 _atom_site_occupancy
  Nd  Nd0  1  0.17307700  0.91294400  0.21153800  1
  Nd  Nd1  1  0.01923100  0.73150900  0.25000000  1
  Nd  Nd2  1  0.67307700  0.58705600  0.21153800  1
  Nd  Nd3  1  0.51923100  0.76849100  0.25000000  1
  Nd  Nd4  1  0.01923100  0.41294400  0.25000000  1
  Nd  Nd5  1  0.17307700  0.23150900  0.21153800  1
  Nd  Nd6  1  0.51923100  0.08705600  0.25000000  1
  Nd  Nd7  1  0.67307700  0.26849100  0.21153800  1
  Nd  Nd8  1  0.86538500  0.91294400  0.28846200  1
  Nd  Nd9  1  0.71153800  0.73150900  0.32692300  1
  Nd  Nd10  1  0.36538500  0.58705600  0.28846200  1
  Nd  Nd11  1  0.21153800  0.76849100  0.32692300  1
  Nd  Nd12  1  0.71153800  0.41294400  0.32692300  1
  Nd  Nd13  1  0.86538500  0.23150900  0.28846200  1
  Nd  Nd14  1  0.21153800  0.08705600  0.32692300  1
  Nd  Nd15  1  0.36538500  0.26849100  0.28846200  1
  Nd  Nd16  1  0.55769200  0.91294400  0.36538500  1
  Nd  Nd17  1  0.40384600  0.73150900  0.40384600  1
  Nd  Nd18  1  0.05769200  0.58705600  0.36538500  1
  Nd  Nd19  1  0.90384600  0.76849100  0.40384600  1
  Nd  Nd20  1  0.40384600  0.41294400  0.40384600  1
  Nd  Nd21  1  0.55769200  0.23150900  0.36538500  1
  Nd  Nd22  1  0.90384600  0.08705600  0.40384600  1
  Nd  Nd23  1  0.05769200  0.26849100  0.36538500  1
  Nd  Nd24  1  0.25000000  0.91294400  0.44230800  1
  Nd  Nd25  1  0.09615400  0.73150900  0.48076900  1
  Nd  Nd26  1  0.75000000  0.58705600  0.44230800  1
  Nd  Nd27  1  0.59615400  0.76849100  0.48076900  1
  Nd  Nd28  1  0.09615400  0.41294400  0.48076900  1
  Nd  Nd29  1  0.25000000  0.23150900  0.44230800  1
  Nd  Nd30  1  0.59615400  0.08705600  0.48076900  1
  Nd  Nd31  1  0.75000000  0.26849100  0.44230800  1
  Nd  Nd32  1  0.94230800  0.91294400  0.51923100  1
  Nd  Nd33  1  0.78846200  0.73150900  0.55769200  1
  Nd  Nd34  1  0.44230800  0.58705600  0.51923100  1
  Nd  Nd35  1  0.28846200  0.76849100  0.55769200  1
  Nd  Nd36  1  0.78846200  0.41294400  0.55769200  1
  Nd  Nd37  1  0.94230800  0.23150900  0.51923100  1
  Nd  Nd38  1  0.28846200  0.08705600  0.55769200  1
  Nd  Nd39  1  0.44230800  0.26849100  0.51923100  1
  Nd  Nd40  1  0.63461500  0.91294400  0.59615400  1
  Nd  Nd41  1  0.48076900  0.73150900  0.63461500  1
  Nd  Nd42  1  0.13461500  0.58705600  0.59615400  1
  Nd  Nd43  1  0.98076900  0.76849100  0.63461500  1
  Nd  Nd44  1  0.48076900  0.41294400  0.63461500  1
  Nd  Nd45  1  0.63461500  0.23150900  0.59615400  1
  Nd  Nd46  1  0.98076900  0.08705600  0.63461500  1
  Nd  Nd47  1  0.13461500  0.26849100  0.59615400  1
  Nd  Nd48  1  0.32692300  0.91294400  0.67307700  1
  Nd  Nd49  1  0.17307700  0.73150900  0.71153800  1
  Nd  Nd50  1  0.82692300  0.58705600  0.67307700  1
  Nd  Nd51  1  0.67307700  0.76849100  0.71153800  1
  Nd  Nd52  1  0.17307700  0.41294400  0.71153800  1
  Nd  Nd53  1  0.32692300  0.23150900  0.67307700  1
  Nd  Nd54  1  0.67307700  0.08705600  0.71153800  1
  Nd  Nd55  1  0.82692300  0.26849100  0.67307700  1
  Nd  Nd56  1  0.01923100  0.91294400  0.75000000  1
  Nd  Nd57  1  0.86538500  0.73150900  0.78846200  1
  Nd  Nd58  1  0.51923100  0.58705600  0.75000000  1
  Nd  Nd59  1  0.36538500  0.76849100  0.78846200  1
  Nd  Nd60  1  0.86538500  0.41294400  0.78846200  1
  Nd  Nd61  1  0.01923100  0.23150900  0.75000000  1
  Nd  Nd62  1  0.36538500  0.08705600  0.78846200  1
  Nd  Nd63  1  0.51923100  0.26849100  0.75000000  1
  Mg  Mg64  1  0.17307700  0.57042800  0.21153800  1
  Mg  Mg65  1  0.67307700  0.92957200  0.21153800  1
  Mg  Mg66  1  0.01923100  0.07042800  0.25000000  1
  Mg  Mg67  1  0.51923100  0.42957200  0.25000000  1
  Mg  Mg68  1  0.86538500  0.57042800  0.28846200  1
  Mg  Mg69  1  0.36538500  0.92957200  0.28846200  1
  Mg  Mg70  1  0.71153800  0.07042800  0.32692300  1
  Mg  Mg71  1  0.21153800  0.42957200  0.32692300  1
  Mg  Mg72  1  0.55769200  0.57042800  0.36538500  1
  Mg  Mg73  1  0.05769200  0.92957200  0.36538500  1
  Mg  Mg74  1  0.40384600  0.07042800  0.40384600  1
  Mg  Mg75  1  0.90384600  0.42957200  0.40384600  1
  Mg  Mg76  1  0.25000000  0.57042800  0.44230800  1
  Mg  Mg77  1  0.75000000  0.92957200  0.44230800  1
  Mg  Mg78  1  0.09615400  0.07042800  0.48076900  1
  Mg  Mg79  1  0.59615400  0.42957200  0.48076900  1
  Mg  Mg80  1  0.94230800  0.57042800  0.51923100  1
  Mg  Mg81  1  0.44230800  0.92957200  0.51923100  1
  Mg  Mg82  1  0.78846200  0.07042800  0.55769200  1
  Mg  Mg83  1  0.28846200  0.42957200  0.55769200  1
  Mg  Mg84  1  0.63461500  0.57042800  0.59615400  1
  Mg  Mg85  1  0.13461500  0.92957200  0.59615400  1
  Mg  Mg86  1  0.48076900  0.07042800  0.63461500  1
  Mg  Mg87  1  0.98076900  0.42957200  0.63461500  1
  Mg  Mg88  1  0.32692300  0.57042800  0.67307700  1
  Mg  Mg89  1  0.82692300  0.92957200  0.67307700  1
  Mg  Mg90  1  0.17307700  0.07042800  0.71153800  1
  Mg  Mg91  1  0.67307700  0.42957200  0.71153800  1
  Mg  Mg92  1  0.01923100  0.57042800  0.75000000  1
  Mg  Mg93  1  0.51923100  0.92957200  0.75000000  1
  Mg  Mg94  1  0.86538500  0.07042800  0.78846200  1
  Mg  Mg95  1  0.36538500  0.42957200  0.78846200  1
