# generated using pymatgen
data_Nd2Mg
_symmetry_space_group_name_H-M   'P 1'
_cell_length_a   6.85398170
_cell_length_b   8.93304549
_cell_length_c   40.73336800
_cell_angle_alpha   87.90818910
_cell_angle_beta   89.35618046
_cell_angle_gamma   83.06678349
_symmetry_Int_Tables_number   1
_chemical_formula_structural   Nd2Mg
_chemical_formula_sum   'Nd32 Mg16'
_cell_volume   2474.03350369
_cell_formula_units_Z   16
loop_
 _symmetry_equiv_pos_site_id
 _symmetry_equiv_pos_as_xyz
  1  'x, y, z'
loop_
 _atom_site_type_symbol
 _atom_site_label
 _atom_site_symmetry_multiplicity
 _atom_site_fract_x
 _atom_site_fract_y
 _atom_site_fract_z
 _atom_site_occupancy
  Nd  Nd0  1  0.95398300  0.41741600  0.75669700  1
  Nd  Nd1  1  0.05200300  0.80479100  0.73219200  1
  Nd  Nd2  1  0.35371000  0.04412200  0.78176500  1
  Nd  Nd3  1  0.25569000  0.65674700  0.80627000  1
  Nd  Nd4  1  0.26167500  0.49433900  0.67977400  1
  Nd  Nd5  1  0.35969500  0.88171400  0.65526900  1
  Nd  Nd6  1  0.66140200  0.12104500  0.70484200  1
  Nd  Nd7  1  0.56338200  0.73367000  0.72934700  1
  Nd  Nd8  1  0.56936700  0.57126200  0.60285000  1
  Nd  Nd9  1  0.66738700  0.95863700  0.57834500  1
  Nd  Nd10  1  0.96909400  0.19796800  0.62791900  1
  Nd  Nd11  1  0.87107400  0.81059400  0.65242400  1
  Nd  Nd12  1  0.87706000  0.64818600  0.52592700  1
  Nd  Nd13  1  0.97508000  0.03556000  0.50142200  1
  Nd  Nd14  1  0.27678700  0.27489100  0.55099600  1
  Nd  Nd15  1  0.17876700  0.88751700  0.57550100  1
  Nd  Nd16  1  0.18475200  0.72510900  0.44900400  1
  Nd  Nd17  1  0.28277200  0.11248300  0.42449900  1
  Nd  Nd18  1  0.58447900  0.35181400  0.47407300  1
  Nd  Nd19  1  0.48645900  0.96444000  0.49857800  1
  Nd  Nd20  1  0.49244400  0.80203200  0.37208100  1
  Nd  Nd21  1  0.59046400  0.18940600  0.34757600  1
  Nd  Nd22  1  0.89217100  0.42873800  0.39715000  1
  Nd  Nd23  1  0.79415100  0.04136300  0.42165500  1
  Nd  Nd24  1  0.80013600  0.87895500  0.29515800  1
  Nd  Nd25  1  0.89815700  0.26633000  0.27065300  1
  Nd  Nd26  1  0.19986400  0.50566100  0.32022600  1
  Nd  Nd27  1  0.10184300  0.11828600  0.34473100  1
  Nd  Nd28  1  0.10782900  0.95587800  0.21823500  1
  Nd  Nd29  1  0.20584900  0.34325300  0.19373000  1
  Nd  Nd30  1  0.50755600  0.58258400  0.24330300  1
  Nd  Nd31  1  0.40953600  0.19520900  0.26780800  1
  Mg  Mg32  1  0.84859300  0.07610000  0.78304400  1
  Mg  Mg33  1  0.45909900  0.38543900  0.75541800  1
  Mg  Mg34  1  0.15628600  0.15302300  0.70612100  1
  Mg  Mg35  1  0.76679100  0.46236200  0.67849400  1
  Mg  Mg36  1  0.46397800  0.22994600  0.62919800  1
  Mg  Mg37  1  0.07448400  0.53928500  0.60157100  1
  Mg  Mg38  1  0.77167000  0.30686900  0.55227500  1
  Mg  Mg39  1  0.38217600  0.61620800  0.52464800  1
  Mg  Mg40  1  0.07936300  0.38379200  0.47535200  1
  Mg  Mg41  1  0.68986800  0.69313100  0.44772500  1
  Mg  Mg42  1  0.38705500  0.46071500  0.39842900  1
  Mg  Mg43  1  0.99756100  0.77005400  0.37080200  1
  Mg  Mg44  1  0.69474700  0.53763800  0.32150600  1
  Mg  Mg45  1  0.30525300  0.84697700  0.29387900  1
  Mg  Mg46  1  0.00243900  0.61456100  0.24458200  1
  Mg  Mg47  1  0.61294500  0.92390000  0.21695600  1
