# generated using pymatgen
data_Ca22Mg43
_symmetry_space_group_name_H-M   'P 1'
_cell_length_a   6.14690500
_cell_length_b   12.06769123
_cell_length_c   47.38177000
_cell_angle_alpha   91.10404210
_cell_angle_beta   90.00000000
_cell_angle_gamma   75.24511335
_symmetry_Int_Tables_number   1
_chemical_formula_structural   Ca22Mg43
_chemical_formula_sum   'Ca22 Mg43'
_cell_volume   3398.15431629
_cell_formula_units_Z   1
loop_
 _symmetry_equiv_pos_site_id
 _symmetry_equiv_pos_as_xyz
  1  'x, y, z'
loop_
 _atom_site_type_symbol
 _atom_site_label
 _atom_site_symmetry_multiplicity
 _atom_site_fract_x
 _atom_site_fract_y
 _atom_site_fract_z
 _atom_site_occupancy
  Ca  Ca0  1  0.21841500  0.88275000  0.23152100  1
  Ca  Ca1  1  0.48508200  0.34941600  0.24818800  1
  Ca  Ca2  1  0.63724900  0.04508200  0.21014600  1
  Ca  Ca3  1  0.97058200  0.37841600  0.29347900  1
  Ca  Ca4  1  0.81841500  0.68275000  0.33152100  1
  Ca  Ca5  1  0.08508200  0.14941600  0.34818800  1
  Ca  Ca6  1  0.23724900  0.84508200  0.31014600  1
  Ca  Ca7  1  0.57058200  0.17841600  0.39347900  1
  Ca  Ca8  1  0.41841500  0.48275000  0.43152100  1
  Ca  Ca9  1  0.68508200  0.94941600  0.44818800  1
  Ca  Ca10  1  0.83724900  0.64508200  0.41014600  1
  Ca  Ca11  1  0.17058200  0.97841600  0.49347900  1
  Ca  Ca12  1  0.01841500  0.28275000  0.53152100  1
  Ca  Ca13  1  0.28508200  0.74941600  0.54818800  1
  Ca  Ca14  1  0.43724900  0.44508200  0.51014600  1
  Ca  Ca15  1  0.77058200  0.77841600  0.59347900  1
  Ca  Ca16  1  0.61841500  0.08275000  0.63152100  1
  Ca  Ca17  1  0.88508200  0.54941600  0.64818800  1
  Ca  Ca18  1  0.03724900  0.24508200  0.61014600  1
  Ca  Ca19  1  0.37058200  0.57841600  0.69347900  1
  Ca  Ca20  1  0.21841500  0.88275000  0.73152100  1
  Ca  Ca21  1  0.63724900  0.04508200  0.71014600  1
  Mg  Mg22  1  0.06156200  0.19645600  0.22956300  1
  Mg  Mg23  1  0.09767100  0.63018600  0.26269800  1
  Mg  Mg24  1  0.59172200  0.63018600  0.26269800  1
  Mg  Mg25  1  0.86394100  0.09764600  0.27896800  1
  Mg  Mg26  1  0.92783200  0.46391600  0.22083300  1
  Mg  Mg27  1  0.72783200  0.86391600  0.27083300  1
  Mg  Mg28  1  0.79410200  0.73137600  0.21210300  1
  Mg  Mg29  1  0.35799300  0.09764600  0.27896800  1
  Mg  Mg30  1  0.66156200  0.99645600  0.32956300  1
  Mg  Mg31  1  0.69767100  0.43018600  0.36269800  1
  Mg  Mg32  1  0.19172200  0.43018600  0.36269800  1
  Mg  Mg33  1  0.46394100  0.89764600  0.37896800  1
  Mg  Mg34  1  0.52783200  0.26391600  0.32083300  1
  Mg  Mg35  1  0.32783200  0.66391600  0.37083300  1
  Mg  Mg36  1  0.39410200  0.53137600  0.31210300  1
  Mg  Mg37  1  0.95799300  0.89764600  0.37896800  1
  Mg  Mg38  1  0.26156200  0.79645600  0.42956300  1
  Mg  Mg39  1  0.29767100  0.23018600  0.46269800  1
  Mg  Mg40  1  0.79172200  0.23018600  0.46269800  1
  Mg  Mg41  1  0.06394100  0.69764600  0.47896800  1
  Mg  Mg42  1  0.12783200  0.06391600  0.42083300  1
  Mg  Mg43  1  0.92783200  0.46391600  0.47083300  1
  Mg  Mg44  1  0.99410200  0.33137600  0.41210300  1
  Mg  Mg45  1  0.55799300  0.69764600  0.47896800  1
  Mg  Mg46  1  0.86156200  0.59645600  0.52956300  1
  Mg  Mg47  1  0.89767100  0.03018600  0.56269800  1
  Mg  Mg48  1  0.39172200  0.03018600  0.56269800  1
  Mg  Mg49  1  0.66394100  0.49764600  0.57896800  1
  Mg  Mg50  1  0.72783200  0.86391600  0.52083300  1
  Mg  Mg51  1  0.52783200  0.26391600  0.57083300  1
  Mg  Mg52  1  0.59410200  0.13137600  0.51210300  1
  Mg  Mg53  1  0.15799300  0.49764600  0.57896800  1
  Mg  Mg54  1  0.46156200  0.39645600  0.62956300  1
  Mg  Mg55  1  0.49767100  0.83018600  0.66269800  1
  Mg  Mg56  1  0.99172200  0.83018600  0.66269800  1
  Mg  Mg57  1  0.26394100  0.29764600  0.67896800  1
  Mg  Mg58  1  0.32783200  0.66391600  0.62083300  1
  Mg  Mg59  1  0.12783200  0.06391600  0.67083300  1
  Mg  Mg60  1  0.19410200  0.93137600  0.61210300  1
  Mg  Mg61  1  0.75799300  0.29764600  0.67896800  1
  Mg  Mg62  1  0.06156200  0.19645600  0.72956300  1
  Mg  Mg63  1  0.92783200  0.46391600  0.72083300  1
  Mg  Mg64  1  0.79410200  0.73137600  0.71210300  1
