# generated using pymatgen
data_Mg19Zn9
_symmetry_space_group_name_H-M   'P 1'
_cell_length_a   5.81388121
_cell_length_b   7.92196437
_cell_length_c   41.46277500
_cell_angle_alpha   90.88177323
_cell_angle_beta   93.29618556
_cell_angle_gamma   95.99281037
_symmetry_Int_Tables_number   1
_chemical_formula_structural   Mg19Zn9
_chemical_formula_sum   'Mg38 Zn18'
_cell_volume   1895.64749741
_cell_formula_units_Z   2
loop_
 _symmetry_equiv_pos_site_id
 _symmetry_equiv_pos_as_xyz
  1  'x, y, z'
loop_
 _atom_site_type_symbol
 _atom_site_label
 _atom_site_symmetry_multiplicity
 _atom_site_fract_x
 _atom_site_fract_y
 _atom_site_fract_z
 _atom_site_occupancy
  Mg  Mg0  1  0.19280300  0.44309300  0.24914800  1
  Mg  Mg1  1  0.76931700  0.03607400  0.23001900  1
  Mg  Mg2  1  0.94280300  0.50559300  0.31164800  1
  Mg  Mg3  1  0.11413000  0.83338000  0.26881600  1
  Mg  Mg4  1  0.59798900  0.70828700  0.27285100  1
  Mg  Mg5  1  0.51931700  0.09857400  0.29251900  1
  Mg  Mg6  1  0.69280300  0.56809300  0.37414800  1
  Mg  Mg7  1  0.86413000  0.89588000  0.33131600  1
  Mg  Mg8  1  0.34798900  0.77078700  0.33535100  1
  Mg  Mg9  1  0.26931700  0.16107400  0.35501900  1
  Mg  Mg10  1  0.44280300  0.63059300  0.43664800  1
  Mg  Mg11  1  0.61413000  0.95838000  0.39381600  1
  Mg  Mg12  1  0.09798900  0.83328700  0.39785100  1
  Mg  Mg13  1  0.01931700  0.22357400  0.41751900  1
  Mg  Mg14  1  0.19280300  0.69309300  0.49914800  1
  Mg  Mg15  1  0.36413000  0.02088000  0.45631600  1
  Mg  Mg16  1  0.84798900  0.89578700  0.46035100  1
  Mg  Mg17  1  0.76931700  0.28607400  0.48001900  1
  Mg  Mg18  1  0.94280300  0.75559300  0.56164800  1
  Mg  Mg19  1  0.11413000  0.08338000  0.51881600  1
  Mg  Mg20  1  0.59798900  0.95828700  0.52285100  1
  Mg  Mg21  1  0.51931700  0.34857400  0.54251900  1
  Mg  Mg22  1  0.69280300  0.81809300  0.62414800  1
  Mg  Mg23  1  0.86413000  0.14588000  0.58131600  1
  Mg  Mg24  1  0.34798900  0.02078700  0.58535100  1
  Mg  Mg25  1  0.26931700  0.41107400  0.60501900  1
  Mg  Mg26  1  0.44280300  0.88059300  0.68664800  1
  Mg  Mg27  1  0.61413000  0.20838000  0.64381600  1
  Mg  Mg28  1  0.09798900  0.08328700  0.64785100  1
  Mg  Mg29  1  0.01931700  0.47357400  0.66751900  1
  Mg  Mg30  1  0.19280300  0.94309300  0.74914800  1
  Mg  Mg31  1  0.36413000  0.27088000  0.70631600  1
  Mg  Mg32  1  0.84798900  0.14578700  0.71035100  1
  Mg  Mg33  1  0.76931700  0.53607400  0.73001900  1
  Mg  Mg34  1  0.94280300  0.00559300  0.81164800  1
  Mg  Mg35  1  0.11413000  0.33338000  0.76881600  1
  Mg  Mg36  1  0.59798900  0.20828700  0.77285100  1
  Mg  Mg37  1  0.51931700  0.59857400  0.79251900  1
  Zn  Zn38  1  0.02916500  0.17490100  0.29005700  1
  Zn  Zn39  1  0.68295400  0.36676500  0.25161000  1
  Zn  Zn40  1  0.77916500  0.23740100  0.35255700  1
  Zn  Zn41  1  0.43295400  0.42926500  0.31411000  1
  Zn  Zn42  1  0.52916500  0.29990100  0.41505700  1
  Zn  Zn43  1  0.18295400  0.49176500  0.37661000  1
  Zn  Zn44  1  0.27916500  0.36240100  0.47755700  1
  Zn  Zn45  1  0.93295400  0.55426500  0.43911000  1
  Zn  Zn46  1  0.02916500  0.42490100  0.54005700  1
  Zn  Zn47  1  0.68295400  0.61676500  0.50161000  1
  Zn  Zn48  1  0.77916500  0.48740100  0.60255700  1
  Zn  Zn49  1  0.43295400  0.67926500  0.56411000  1
  Zn  Zn50  1  0.52916500  0.54990100  0.66505700  1
  Zn  Zn51  1  0.18295400  0.74176500  0.62661000  1
  Zn  Zn52  1  0.27916500  0.61240100  0.72755700  1
  Zn  Zn53  1  0.93295400  0.80426500  0.68911000  1
  Zn  Zn54  1  0.02916500  0.67490100  0.79005700  1
  Zn  Zn55  1  0.68295400  0.86676500  0.75161000  1
