# generated using pymatgen
data_Mg2Ir3
_symmetry_space_group_name_H-M   'P 1'
_cell_length_a   5.24707500
_cell_length_b   19.59900374
_cell_length_c   48.70839900
_cell_angle_alpha   93.84872638
_cell_angle_beta   90.00000000
_cell_angle_gamma   90.00000000
_symmetry_Int_Tables_number   1
_chemical_formula_structural   Mg2Ir3
_chemical_formula_sum   'Mg80 Ir120'
_cell_volume   4997.75050797
_cell_formula_units_Z   40
loop_
 _symmetry_equiv_pos_site_id
 _symmetry_equiv_pos_as_xyz
  1  'x, y, z'
loop_
 _atom_site_type_symbol
 _atom_site_label
 _atom_site_symmetry_multiplicity
 _atom_site_fract_x
 _atom_site_fract_y
 _atom_site_fract_z
 _atom_site_occupancy
  Mg  Mg0  1  0.50000000  0.78922300  0.17575400  1
  Mg  Mg1  1  0.00000000  0.87744300  0.32424600  1
  Mg  Mg2  1  0.00000000  0.65102300  0.26312300  1
  Mg  Mg3  1  0.50000000  0.01564300  0.23687700  1
  Mg  Mg4  1  0.50000000  0.85805100  0.23395800  1
  Mg  Mg5  1  1.00000000  0.80861500  0.26604200  1
  Mg  Mg6  1  0.50000000  0.06060200  0.30496900  1
  Mg  Mg7  1  0.00000000  0.60606500  0.19503100  1
  Mg  Mg8  1  0.50000000  0.58943400  0.23506800  1
  Mg  Mg9  1  0.00000000  0.07723300  0.26493200  1
  Mg  Mg10  1  0.00000000  0.37255700  0.25908800  1
  Mg  Mg11  1  0.50000000  0.29411000  0.24091200  1
  Mg  Mg12  1  0.50000000  0.06769000  0.17978900  1
  Mg  Mg13  1  0.00000000  0.59897700  0.32021100  1
  Mg  Mg14  1  1.00000000  0.44138500  0.31729100  1
  Mg  Mg15  1  0.50000000  0.22528200  0.18270900  1
  Mg  Mg16  1  1.00000000  0.47726900  0.22163600  1
  Mg  Mg17  1  0.50000000  0.18939800  0.27836400  1
  Mg  Mg18  1  1.00000000  0.17276700  0.31840200  1
  Mg  Mg19  1  0.50000000  0.49390000  0.18159800  1
  Mg  Mg20  1  0.50000000  0.95589000  0.34242100  1
  Mg  Mg21  1  0.00000000  0.04411000  0.49091200  1
  Mg  Mg22  1  0.00000000  0.81769000  0.42978900  1
  Mg  Mg23  1  0.50000000  0.18231000  0.40354400  1
  Mg  Mg24  1  0.50000000  0.02471800  0.40062500  1
  Mg  Mg25  1  0.00000000  0.97528200  0.43270900  1
  Mg  Mg26  1  0.50000000  0.22726900  0.47163600  1
  Mg  Mg27  1  0.00000000  0.77273100  0.36169800  1
  Mg  Mg28  1  0.50000000  0.75610000  0.40173500  1
  Mg  Mg29  1  0.00000000  0.24390000  0.43159800  1
  Mg  Mg30  1  0.00000000  0.53922300  0.42575400  1
  Mg  Mg31  1  0.50000000  0.46077700  0.40757900  1
  Mg  Mg32  1  0.50000000  0.23435700  0.34645600  1
  Mg  Mg33  1  1.00000000  0.76564300  0.48687700  1
  Mg  Mg34  1  0.00000000  0.60805100  0.48395800  1
  Mg  Mg35  1  0.50000000  0.39194900  0.34937500  1
  Mg  Mg36  1  0.00000000  0.64393500  0.38830200  1
  Mg  Mg37  1  0.50000000  0.35606500  0.44503100  1
  Mg  Mg38  1  0.00000000  0.33943400  0.48506800  1
  Mg  Mg39  1  0.50000000  0.66056600  0.34826500  1
  Mg  Mg40  1  0.50000000  0.12255700  0.50908800  1
  Mg  Mg41  1  0.00000000  0.21077700  0.65757900  1
  Mg  Mg42  1  0.00000000  0.98435700  0.59645600  1
  Mg  Mg43  1  0.50000000  0.34897700  0.57021100  1
  Mg  Mg44  1  0.50000000  0.19138500  0.56729100  1
  Mg  Mg45  1  0.00000000  0.14194900  0.59937500  1
  Mg  Mg46  1  0.50000000  0.39393500  0.63830200  1
  Mg  Mg47  1  1.00000000  0.93939800  0.52836400  1
  Mg  Mg48  1  0.50000000  0.92276700  0.56840200  1
  Mg  Mg49  1  1.00000000  0.41056600  0.59826500  1
  Mg  Mg50  1  0.00000000  0.70589000  0.59242100  1
  Mg  Mg51  1  0.50000000  0.62744300  0.57424600  1
  Mg  Mg52  1  0.50000000  0.40102300  0.51312300  1
  Mg  Mg53  1  0.00000000  0.93231000  0.65354400  1
  Mg  Mg54  1  0.00000000  0.77471800  0.65062500  1
  Mg  Mg55  1  0.50000000  0.55861500  0.51604200  1
  Mg  Mg56  1  1.00000000  0.81060200  0.55496900  1
  Mg  Mg57  1  0.50000000  0.52273100  0.61169800  1
  Mg  Mg58  1  0.00000000  0.50610000  0.65173500  1
  Mg  Mg59  1  0.50000000  0.82723300  0.51493200  1
  Mg  Mg60  1  0.50000000  0.28922300  0.67575400  1
  Mg  Mg61  1  1.00000000  0.37744300  0.82424600  1
  Mg  Mg62  1  0.00000000  0.15102300  0.76312300  1
  Mg  Mg63  1  0.50000000  0.51564300  0.73687700  1
  Mg  Mg64  1  0.50000000  0.35805100  0.73395800  1
  Mg  Mg65  1  0.00000000  0.30861500  0.76604200  1
  Mg  Mg66  1  0.50000000  0.56060200  0.80496900  1
  Mg  Mg67  1  1.00000000  0.10606500  0.69503100  1
  Mg  Mg68  1  0.50000000  0.08943400  0.73506800  1
  Mg  Mg69  1  0.00000000  0.57723300  0.76493200  1
  Mg  Mg70  1  1.00000000  0.87255700  0.75908800  1
  Mg  Mg71  1  0.50000000  0.79411000  0.74091200  1
  Mg  Mg72  1  0.50000000  0.56769000  0.67978900  1
  Mg  Mg73  1  1.00000000  0.09897700  0.82021100  1
  Mg  Mg74  1  1.00000000  0.94138500  0.81729100  1
  Mg  Mg75  1  0.50000000  0.72528200  0.68270900  1
  Mg  Mg76  1  1.00000000  0.97726900  0.72163600  1
  Mg  Mg77  1  0.50000000  0.68939800  0.77836400  1
  Mg  Mg78  1  1.00000000  0.67276700  0.81840200  1
  Mg  Mg79  1  0.50000000  0.99390000  0.68159800  1
  Ir  Ir80  1  1.00000000  0.02045200  0.31824000  1
  Ir  Ir81  1  0.50000000  0.64621400  0.18176000  1
  Ir  Ir82  1  0.75048700  0.71987400  0.21859700  1
  Ir  Ir83  1  0.74951300  0.94679200  0.28140300  1
  Ir  Ir84  1  0.25048700  0.94679200  0.28140300  1
  Ir  Ir85  1  0.24951300  0.71987400  0.21859700  1
  Ir  Ir86  1  0.00000000  0.04166700  0.20833300  1
  Ir  Ir87  1  0.50000000  0.84547400  0.29617700  1
  Ir  Ir88  1  0.00000000  0.82119300  0.20382300  1
  Ir  Ir89  1  0.50000000  0.73267100  0.26350900  1
  Ir  Ir90  1  1.00000000  0.93399600  0.23649100  1
  Ir  Ir91  1  0.73393800  0.93201200  0.18944600  1
  Ir  Ir92  1  0.76606200  0.73465500  0.31055400  1
  Ir  Ir93  1  0.23393800  0.73465500  0.31055400  1
  Ir  Ir94  1  0.26606200  0.93201200  0.18944600  1
  Ir  Ir95  1  0.50000000  0.43711900  0.23490700  1
  Ir  Ir96  1  0.00000000  0.22954800  0.26509300  1
  Ir  Ir97  1  0.25048700  0.30320800  0.30193100  1
  Ir  Ir98  1  0.24951300  0.36345900  0.19806900  1
  Ir  Ir99  1  0.75048700  0.36345900  0.19806900  1
  Ir  Ir100  1  0.74951300  0.30320800  0.30193100  1
  Ir  Ir101  1  0.50000000  0.62500000  0.29166700  1
  Ir  Ir102  1  0.00000000  0.26214000  0.21284300  1
  Ir  Ir103  1  0.50000000  0.40452600  0.28715700  1
  Ir  Ir104  1  1.00000000  0.14933800  0.18017600  1
  Ir  Ir105  1  0.50000000  0.51732900  0.31982400  1
  Ir  Ir106  1  0.23393800  0.51534500  0.27277900  1
  Ir  Ir107  1  0.26606200  0.15132200  0.22722100  1
  Ir  Ir108  1  0.73393800  0.15132200  0.22722100  1
  Ir  Ir109  1  0.76606200  0.51534500  0.27277900  1
  Ir  Ir110  1  1.00000000  0.18711900  0.48490700  1
  Ir  Ir111  1  0.50000000  0.81288100  0.34842600  1
  Ir  Ir112  1  0.75048700  0.88654100  0.38526400  1
  Ir  Ir113  1  0.74951300  0.11345900  0.44806900  1
  Ir  Ir114  1  0.25048700  0.11345900  0.44806900  1
  Ir  Ir115  1  0.24951300  0.88654100  0.38526400  1
  Ir  Ir116  1  0.00000000  0.20833300  0.37500000  1
  Ir  Ir117  1  0.50000000  0.01214000  0.46284300  1
  Ir  Ir118  1  0.00000000  0.98786000  0.37049000  1
  Ir  Ir119  1  0.50000000  0.89933800  0.43017600  1
  Ir  Ir120  1  1.00000000  0.10066200  0.40315700  1
  Ir  Ir121  1  0.73393800  0.09867800  0.35611200  1
  Ir  Ir122  1  0.76606200  0.90132200  0.47722100  1
  Ir  Ir123  1  0.23393800  0.90132200  0.47722100  1
  Ir  Ir124  1  0.26606200  0.09867800  0.35611200  1
  Ir  Ir125  1  0.50000000  0.60378600  0.40157400  1
  Ir  Ir126  1  0.00000000  0.39621400  0.43176000  1
  Ir  Ir127  1  0.25048700  0.46987400  0.46859700  1
  Ir  Ir128  1  0.24951300  0.53012600  0.36473600  1
  Ir  Ir129  1  0.75048700  0.53012600  0.36473600  1
  Ir  Ir130  1  0.74951300  0.46987400  0.46859700  1
  Ir  Ir131  1  0.50000000  0.79166700  0.45833300  1
  Ir  Ir132  1  1.00000000  0.42880700  0.37951000  1
  Ir  Ir133  1  0.50000000  0.57119300  0.45382300  1
  Ir  Ir134  1  1.00000000  0.31600400  0.34684300  1
  Ir  Ir135  1  0.50000000  0.68399600  0.48649100  1
  Ir  Ir136  1  0.23393800  0.68201200  0.43944600  1
  Ir  Ir137  1  0.26606200  0.31798800  0.39388800  1
  Ir  Ir138  1  0.73393800  0.31798800  0.39388800  1
  Ir  Ir139  1  0.76606200  0.68201200  0.43944600  1
  Ir  Ir140  1  0.00000000  0.35378600  0.65157400  1
  Ir  Ir141  1  0.50000000  0.97954800  0.51509300  1
  Ir  Ir142  1  0.75048700  0.05320800  0.55193100  1
  Ir  Ir143  1  0.74951300  0.28012600  0.61473600  1
  Ir  Ir144  1  0.25048700  0.28012600  0.61473600  1
  Ir  Ir145  1  0.24951300  0.05320800  0.55193100  1
  Ir  Ir146  1  0.00000000  0.37500000  0.54166700  1
  Ir  Ir147  1  0.50000000  0.17880700  0.62951000  1
  Ir  Ir148  1  1.00000000  0.15452600  0.53715700  1
  Ir  Ir149  1  0.50000000  0.06600400  0.59684300  1
  Ir  Ir150  1  1.00000000  0.26732900  0.56982400  1
  Ir  Ir151  1  0.73393800  0.26534500  0.52277900  1
  Ir  Ir152  1  0.76606200  0.06798800  0.64388800  1
  Ir  Ir153  1  0.23393800  0.06798800  0.64388800  1
  Ir  Ir154  1  0.26606200  0.26534500  0.52277900  1
  Ir  Ir155  1  0.50000000  0.77045200  0.56824000  1
  Ir  Ir156  1  0.00000000  0.56288100  0.59842600  1
  Ir  Ir157  1  0.25048700  0.63654100  0.63526400  1
  Ir  Ir158  1  0.24951300  0.69679200  0.53140300  1
  Ir  Ir159  1  0.75048700  0.69679200  0.53140300  1
  Ir  Ir160  1  0.74951300  0.63654100  0.63526400  1
  Ir  Ir161  1  0.50000000  0.95833300  0.62500000  1
  Ir  Ir162  1  1.00000000  0.59547400  0.54617700  1
  Ir  Ir163  1  0.50000000  0.73786000  0.62049000  1
  Ir  Ir164  1  1.00000000  0.48267100  0.51350900  1
  Ir  Ir165  1  0.50000000  0.85066200  0.65315700  1
  Ir  Ir166  1  0.23393800  0.84867800  0.60611200  1
  Ir  Ir167  1  0.26606200  0.48465500  0.56055400  1
  Ir  Ir168  1  0.73393800  0.48465500  0.56055400  1
  Ir  Ir169  1  0.76606200  0.84867800  0.60611200  1
  Ir  Ir170  1  0.00000000  0.52045200  0.81824000  1
  Ir  Ir171  1  0.50000000  0.14621400  0.68176000  1
  Ir  Ir172  1  0.75048700  0.21987400  0.71859700  1
  Ir  Ir173  1  0.74951300  0.44679200  0.78140300  1
  Ir  Ir174  1  0.25048700  0.44679200  0.78140300  1
  Ir  Ir175  1  0.24951300  0.21987400  0.71859700  1
  Ir  Ir176  1  0.00000000  0.54166700  0.70833300  1
  Ir  Ir177  1  0.50000000  0.34547400  0.79617700  1
  Ir  Ir178  1  0.00000000  0.32119300  0.70382300  1
  Ir  Ir179  1  0.50000000  0.23267100  0.76350900  1
  Ir  Ir180  1  0.00000000  0.43399600  0.73649100  1
  Ir  Ir181  1  0.73393800  0.43201200  0.68944600  1
  Ir  Ir182  1  0.76606200  0.23465500  0.81055400  1
  Ir  Ir183  1  0.23393800  0.23465500  0.81055400  1
  Ir  Ir184  1  0.26606200  0.43201200  0.68944600  1
  Ir  Ir185  1  0.50000000  0.93711900  0.73490700  1
  Ir  Ir186  1  1.00000000  0.72954800  0.76509300  1
  Ir  Ir187  1  0.25048700  0.80320800  0.80193100  1
  Ir  Ir188  1  0.24951300  0.86345900  0.69806900  1
  Ir  Ir189  1  0.75048700  0.86345900  0.69806900  1
  Ir  Ir190  1  0.74951300  0.80320800  0.80193100  1
  Ir  Ir191  1  0.50000000  0.12500000  0.79166700  1
  Ir  Ir192  1  0.00000000  0.76214000  0.71284300  1
  Ir  Ir193  1  0.50000000  0.90452600  0.78715700  1
  Ir  Ir194  1  0.00000000  0.64933800  0.68017600  1
  Ir  Ir195  1  0.50000000  0.01732900  0.81982400  1
  Ir  Ir196  1  0.23393800  0.01534500  0.77277900  1
  Ir  Ir197  1  0.26606200  0.65132200  0.72722100  1
  Ir  Ir198  1  0.73393800  0.65132200  0.72722100  1
  Ir  Ir199  1  0.76606200  0.01534500  0.77277900  1
