# generated using pymatgen
data_Mg58Ir81
_symmetry_space_group_name_H-M   'P 1'
_cell_length_a   9.72091561
_cell_length_b   10.02721097
_cell_length_c   44.35051200
_cell_angle_alpha   96.44506080
_cell_angle_beta   93.67631499
_cell_angle_gamma   75.98716788
_symmetry_Int_Tables_number   1
_chemical_formula_structural   Mg58Ir81
_chemical_formula_sum   'Mg58 Ir81'
_cell_volume   4164.79217447
_cell_formula_units_Z   1
loop_
 _symmetry_equiv_pos_site_id
 _symmetry_equiv_pos_as_xyz
  1  'x, y, z'
loop_
 _atom_site_type_symbol
 _atom_site_label
 _atom_site_symmetry_multiplicity
 _atom_site_fract_x
 _atom_site_fract_y
 _atom_site_fract_z
 _atom_site_occupancy
  Mg  Mg0  1  0.26872400  0.63712100  0.70845300  1
  Mg  Mg1  1  0.18727600  0.92372900  0.74754700  1
  Mg  Mg2  1  0.82000800  0.34574200  0.71087400  1
  Mg  Mg3  1  0.63599200  0.21510800  0.74512600  1
  Mg  Mg4  1  0.32489500  0.38204100  0.74337500  1
  Mg  Mg5  1  0.13110500  0.17880900  0.71262500  1
  Mg  Mg6  1  0.78610500  0.64710600  0.74404100  1
  Mg  Mg7  1  0.66989500  0.91374400  0.71195900  1
  Mg  Mg8  1  0.16872400  0.33712100  0.60845300  1
  Mg  Mg9  1  0.08727600  0.62372900  0.64754700  1
  Mg  Mg10  1  0.72000800  0.04574200  0.61087400  1
  Mg  Mg11  1  0.53599200  0.91510800  0.64512600  1
  Mg  Mg12  1  0.22489500  0.08204100  0.64337500  1
  Mg  Mg13  1  0.03110500  0.87880900  0.61262500  1
  Mg  Mg14  1  0.53058100  0.65225600  0.68598100  1
  Mg  Mg15  1  0.82541900  0.60859400  0.67001900  1
  Mg  Mg16  1  0.68610500  0.34710600  0.64404100  1
  Mg  Mg17  1  0.56989500  0.61374400  0.61195900  1
  Mg  Mg18  1  0.06872400  0.03712100  0.50845300  1
  Mg  Mg19  1  0.98727600  0.32372900  0.54754700  1
  Mg  Mg20  1  0.62000800  0.74574200  0.51087400  1
  Mg  Mg21  1  0.43599200  0.61510800  0.54512600  1
  Mg  Mg22  1  0.12489500  0.78204100  0.54337500  1
  Mg  Mg23  1  0.93110500  0.57880900  0.51262500  1
  Mg  Mg24  1  0.43058100  0.35225600  0.58598100  1
  Mg  Mg25  1  0.72541900  0.30859400  0.57001900  1
  Mg  Mg26  1  0.58610500  0.04710600  0.54404100  1
  Mg  Mg27  1  0.46989500  0.31374400  0.51195900  1
  Mg  Mg28  1  0.96872400  0.73712100  0.40845300  1
  Mg  Mg29  1  0.88727600  0.02372900  0.44754700  1
  Mg  Mg30  1  0.52000800  0.44574200  0.41087400  1
  Mg  Mg31  1  0.33599200  0.31510800  0.44512600  1
  Mg  Mg32  1  0.02489500  0.48204100  0.44337500  1
  Mg  Mg33  1  0.83110500  0.27880900  0.41262500  1
  Mg  Mg34  1  0.33058100  0.05225600  0.48598100  1
  Mg  Mg35  1  0.62541900  0.00859400  0.47001900  1
  Mg  Mg36  1  0.48610500  0.74710600  0.44404100  1
  Mg  Mg37  1  0.36989500  0.01374400  0.41195900  1
  Mg  Mg38  1  0.86872400  0.43712100  0.30845300  1
  Mg  Mg39  1  0.78727600  0.72372900  0.34754700  1
  Mg  Mg40  1  0.42000800  0.14574200  0.31087400  1
  Mg  Mg41  1  0.23599200  0.01510800  0.34512600  1
  Mg  Mg42  1  0.92489500  0.18204100  0.34337500  1
  Mg  Mg43  1  0.73110500  0.97880900  0.31262500  1
  Mg  Mg44  1  0.23058100  0.75225600  0.38598100  1
  Mg  Mg45  1  0.52541900  0.70859400  0.37001900  1
  Mg  Mg46  1  0.38610500  0.44710600  0.34404100  1
  Mg  Mg47  1  0.26989500  0.71374400  0.31195900  1
  Mg  Mg48  1  0.76872400  0.13712100  0.20845300  1
  Mg  Mg49  1  0.68727600  0.42372900  0.24754700  1
  Mg  Mg50  1  0.32000800  0.84574200  0.21087400  1
  Mg  Mg51  1  0.13599200  0.71510800  0.24512600  1
  Mg  Mg52  1  0.82489500  0.88204100  0.24337500  1
  Mg  Mg53  1  0.63110500  0.67880900  0.21262500  1
  Mg  Mg54  1  0.13058100  0.45225600  0.28598100  1
  Mg  Mg55  1  0.42541900  0.40859400  0.27001900  1
  Mg  Mg56  1  0.28610500  0.14710600  0.24404100  1
  Mg  Mg57  1  0.16989500  0.41374400  0.21195900  1
  Ir  Ir58  1  0.48170100  0.79993700  0.74394400  1
  Ir  Ir59  1  0.97429900  0.76091300  0.71205600  1
  Ir  Ir60  1  0.04499700  0.49422600  0.70911000  1
  Ir  Ir61  1  0.41100300  0.06662400  0.74689000  1
  Ir  Ir62  1  0.89747400  0.04014800  0.71593900  1
  Ir  Ir63  1  0.55852600  0.52070200  0.74006100  1
  Ir  Ir64  1  0.38170100  0.49993700  0.64394400  1
  Ir  Ir65  1  0.87429900  0.46091300  0.61205600  1
  Ir  Ir66  1  0.94499700  0.19422600  0.60911000  1
  Ir  Ir67  1  0.31100300  0.76662400  0.64689000  1
  Ir  Ir68  1  0.36090600  0.91633100  0.69679300  1
  Ir  Ir69  1  0.99509400  0.34451900  0.65920700  1
  Ir  Ir70  1  0.67800000  0.13042500  0.67800000  1
  Ir  Ir71  1  0.11263300  0.89552000  0.68070600  1
  Ir  Ir72  1  0.24336700  0.36533000  0.67529400  1
  Ir  Ir73  1  0.93276200  0.11285700  0.66110600  1
  Ir  Ir74  1  0.42323800  0.14799300  0.69489400  1
  Ir  Ir75  1  0.51173800  0.38033900  0.69327400  1
  Ir  Ir76  1  0.84426200  0.88051100  0.66272600  1
  Ir  Ir77  1  0.79747400  0.74014800  0.61593900  1
  Ir  Ir78  1  0.45852600  0.22070200  0.64006100  1
  Ir  Ir79  1  0.28170100  0.19993700  0.54394400  1
  Ir  Ir80  1  0.77429900  0.16091300  0.51205600  1
  Ir  Ir81  1  0.84499700  0.89422600  0.50911000  1
  Ir  Ir82  1  0.21100300  0.46662400  0.54689000  1
  Ir  Ir83  1  0.26090600  0.61633100  0.59679300  1
  Ir  Ir84  1  0.89509400  0.04451900  0.55920700  1
  Ir  Ir85  1  0.57800000  0.83042500  0.57800000  1
  Ir  Ir86  1  0.01263300  0.59552000  0.58070600  1
  Ir  Ir87  1  0.14336700  0.06533000  0.57529400  1
  Ir  Ir88  1  0.83276200  0.81285700  0.56110600  1
  Ir  Ir89  1  0.32323800  0.84799300  0.59489400  1
  Ir  Ir90  1  0.41173800  0.08033900  0.59327400  1
  Ir  Ir91  1  0.74426200  0.58051100  0.56272600  1
  Ir  Ir92  1  0.69747400  0.44014800  0.51593900  1
  Ir  Ir93  1  0.35852600  0.92070200  0.54006100  1
  Ir  Ir94  1  0.18170100  0.89993700  0.44394400  1
  Ir  Ir95  1  0.67429900  0.86091300  0.41205600  1
  Ir  Ir96  1  0.74499700  0.59422600  0.40911000  1
  Ir  Ir97  1  0.11100300  0.16662400  0.44689000  1
  Ir  Ir98  1  0.16090600  0.31633100  0.49679300  1
  Ir  Ir99  1  0.79509400  0.74451900  0.45920700  1
  Ir  Ir100  1  0.47800000  0.53042500  0.47800000  1
  Ir  Ir101  1  0.91263300  0.29552000  0.48070600  1
  Ir  Ir102  1  0.04336700  0.76533000  0.47529400  1
  Ir  Ir103  1  0.73276200  0.51285700  0.46110600  1
  Ir  Ir104  1  0.22323800  0.54799300  0.49489400  1
  Ir  Ir105  1  0.31173800  0.78033900  0.49327400  1
  Ir  Ir106  1  0.64426200  0.28051100  0.46272600  1
  Ir  Ir107  1  0.59747400  0.14014800  0.41593900  1
  Ir  Ir108  1  0.25852600  0.62070200  0.44006100  1
  Ir  Ir109  1  0.08170100  0.59993700  0.34394400  1
  Ir  Ir110  1  0.57429900  0.56091300  0.31205600  1
  Ir  Ir111  1  0.64499700  0.29422600  0.30911000  1
  Ir  Ir112  1  0.01100300  0.86662400  0.34689000  1
  Ir  Ir113  1  0.06090600  0.01633100  0.39679300  1
  Ir  Ir114  1  0.69509400  0.44451900  0.35920700  1
  Ir  Ir115  1  0.37800000  0.23042500  0.37800000  1
  Ir  Ir116  1  0.81263300  0.99552000  0.38070600  1
  Ir  Ir117  1  0.94336700  0.46533000  0.37529400  1
  Ir  Ir118  1  0.63276200  0.21285700  0.36110600  1
  Ir  Ir119  1  0.12323800  0.24799300  0.39489400  1
  Ir  Ir120  1  0.21173800  0.48033900  0.39327400  1
  Ir  Ir121  1  0.54426200  0.98051100  0.36272600  1
  Ir  Ir122  1  0.49747400  0.84014800  0.31593900  1
  Ir  Ir123  1  0.15852600  0.32070200  0.34006100  1
  Ir  Ir124  1  0.98170100  0.29993700  0.24394400  1
  Ir  Ir125  1  0.47429900  0.26091300  0.21205600  1
  Ir  Ir126  1  0.54499700  0.99422600  0.20911000  1
  Ir  Ir127  1  0.91100300  0.56662400  0.24689000  1
  Ir  Ir128  1  0.96090600  0.71633100  0.29679300  1
  Ir  Ir129  1  0.59509400  0.14451900  0.25920700  1
  Ir  Ir130  1  0.27800000  0.93042500  0.27800000  1
  Ir  Ir131  1  0.71263300  0.69552000  0.28070600  1
  Ir  Ir132  1  0.84336700  0.16533000  0.27529400  1
  Ir  Ir133  1  0.53276200  0.91285700  0.26110600  1
  Ir  Ir134  1  0.02323800  0.94799300  0.29489400  1
  Ir  Ir135  1  0.11173800  0.18033900  0.29327400  1
  Ir  Ir136  1  0.44426200  0.68051100  0.26272600  1
  Ir  Ir137  1  0.39747400  0.54014800  0.21593900  1
  Ir  Ir138  1  0.05852600  0.02070200  0.24006100  1
