# generated using pymatgen
data_Y8Mg3
_symmetry_space_group_name_H-M   'P 1'
_cell_length_a   3.72656800
_cell_length_b   5.49634900
_cell_length_c   51.51559500
_cell_angle_alpha   90.00000000
_cell_angle_beta   90.00000000
_cell_angle_gamma   90.00000000
_symmetry_Int_Tables_number   1
_chemical_formula_structural   Y8Mg3
_chemical_formula_sum   'Y16 Mg6'
_cell_volume   1055.16911733
_cell_formula_units_Z   2
loop_
 _symmetry_equiv_pos_site_id
 _symmetry_equiv_pos_as_xyz
  1  'x, y, z'
loop_
 _atom_site_type_symbol
 _atom_site_label
 _atom_site_symmetry_multiplicity
 _atom_site_fract_x
 _atom_site_fract_y
 _atom_site_fract_z
 _atom_site_occupancy
  Y  Y0  1  0.50000000  0.25000000  0.16907400  1
  Y  Y1  1  0.00000000  0.25000000  0.22982300  1
  Y  Y2  1  0.00000000  0.75000000  0.27537000  1
  Y  Y3  1  0.50000000  0.75000000  0.21462200  1
  Y  Y4  1  0.00000000  0.25000000  0.33574100  1
  Y  Y5  1  0.50000000  0.25000000  0.39648900  1
  Y  Y6  1  0.50000000  0.75000000  0.44203700  1
  Y  Y7  1  0.00000000  0.75000000  0.38128800  1
  Y  Y8  1  0.50000000  0.25000000  0.50240800  1
  Y  Y9  1  0.00000000  0.25000000  0.56315600  1
  Y  Y10  1  0.00000000  0.75000000  0.60870400  1
  Y  Y11  1  0.50000000  0.75000000  0.54795500  1
  Y  Y12  1  0.00000000  0.25000000  0.66907400  1
  Y  Y13  1  0.50000000  0.25000000  0.72982300  1
  Y  Y14  1  0.50000000  0.75000000  0.77537000  1
  Y  Y15  1  0.00000000  0.75000000  0.71462200  1
  Mg  Mg16  1  0.50000000  0.25000000  0.28304500  1
  Mg  Mg17  1  0.00000000  0.75000000  0.49473200  1
  Mg  Mg18  1  0.00000000  0.25000000  0.44971200  1
  Mg  Mg19  1  0.50000000  0.75000000  0.32806600  1
  Mg  Mg20  1  0.50000000  0.25000000  0.61637900  1
  Mg  Mg21  1  0.50000000  0.75000000  0.66139900  1
