# generated using pymatgen
data_Mg8In3
_symmetry_space_group_name_H-M   'P 1'
_cell_length_a   6.31272300
_cell_length_b   7.10486100
_cell_length_c   58.65194500
_cell_angle_alpha   90.00000000
_cell_angle_beta   90.00000000
_cell_angle_gamma   90.00000000
_symmetry_Int_Tables_number   1
_chemical_formula_structural   Mg8In3
_chemical_formula_sum   'Mg32 In12'
_cell_volume   2630.59952577
_cell_formula_units_Z   4
loop_
 _symmetry_equiv_pos_site_id
 _symmetry_equiv_pos_as_xyz
  1  'x, y, z'
loop_
 _atom_site_type_symbol
 _atom_site_label
 _atom_site_symmetry_multiplicity
 _atom_site_fract_x
 _atom_site_fract_y
 _atom_site_fract_z
 _atom_site_occupancy
  Mg  Mg0  1  0.25000000  0.50000000  0.49107100  1
  Mg  Mg1  1  0.75000000  0.50000000  0.49107100  1
  Mg  Mg2  1  0.50000000  0.66542200  0.38734100  1
  Mg  Mg3  1  1.00000000  0.83457800  0.46980200  1
  Mg  Mg4  1  0.50000000  0.16542200  0.46980200  1
  Mg  Mg5  1  0.00000000  0.33457800  0.38734100  1
  Mg  Mg6  1  0.75000000  0.00000000  0.36607100  1
  Mg  Mg7  1  0.25000000  0.00000000  0.36607100  1
  Mg  Mg8  1  0.25000000  0.50000000  0.43192900  1
  Mg  Mg9  1  0.75000000  0.00000000  0.42521300  1
  Mg  Mg10  1  0.25000000  0.00000000  0.42521300  1
  Mg  Mg11  1  0.75000000  0.50000000  0.43192900  1
  Mg  Mg12  1  1.00000000  0.16542200  0.51234100  1
  Mg  Mg13  1  0.50000000  0.33457800  0.59480200  1
  Mg  Mg14  1  1.00000000  0.66542200  0.59480200  1
  Mg  Mg15  1  0.50000000  0.83457800  0.51234100  1
  Mg  Mg16  1  0.25000000  0.50000000  0.74107100  1
  Mg  Mg17  1  0.75000000  0.50000000  0.74107100  1
  Mg  Mg18  1  0.75000000  0.00000000  0.55692900  1
  Mg  Mg19  1  0.25000000  0.50000000  0.55021300  1
  Mg  Mg20  1  0.75000000  0.50000000  0.55021300  1
  Mg  Mg21  1  0.25000000  0.00000000  0.55692900  1
  Mg  Mg22  1  0.50000000  0.66542200  0.63734100  1
  Mg  Mg23  1  1.00000000  0.83457800  0.71980200  1
  Mg  Mg24  1  0.50000000  0.16542200  0.71980200  1
  Mg  Mg25  1  0.00000000  0.33457800  0.63734100  1
  Mg  Mg26  1  0.75000000  0.00000000  0.61607100  1
  Mg  Mg27  1  0.25000000  0.00000000  0.61607100  1
  Mg  Mg28  1  0.25000000  0.50000000  0.68192900  1
  Mg  Mg29  1  0.75000000  0.00000000  0.67521300  1
  Mg  Mg30  1  0.25000000  0.00000000  0.67521300  1
  Mg  Mg31  1  0.75000000  0.50000000  0.68192900  1
  In  In32  1  0.50000000  0.26117200  0.39658100  1
  In  In33  1  1.00000000  0.23882800  0.46056200  1
  In  In34  1  0.50000000  0.76117200  0.46056200  1
  In  In35  1  0.00000000  0.73882800  0.39658100  1
  In  In36  1  1.00000000  0.76117200  0.52158100  1
  In  In37  1  0.50000000  0.73882800  0.58556200  1
  In  In38  1  0.00000000  0.26117200  0.58556200  1
  In  In39  1  0.50000000  0.23882800  0.52158100  1
  In  In40  1  0.50000000  0.26117200  0.64658100  1
  In  In41  1  1.00000000  0.23882800  0.71056200  1
  In  In42  1  0.50000000  0.76117200  0.71056200  1
  In  In43  1  0.00000000  0.73882800  0.64658100  1
