# generated using pymatgen
data_Mg23Ga9
_symmetry_space_group_name_H-M   'P 1'
_cell_length_a   6.11035770
_cell_length_b   8.32987912
_cell_length_c   49.12638700
_cell_angle_alpha   87.82435891
_cell_angle_beta   86.43446658
_cell_angle_gamma   68.48323149
_symmetry_Int_Tables_number   1
_chemical_formula_structural   Mg23Ga9
_chemical_formula_sum   'Mg46 Ga18'
_cell_volume   2321.39293914
_cell_formula_units_Z   2
loop_
 _symmetry_equiv_pos_site_id
 _symmetry_equiv_pos_as_xyz
  1  'x, y, z'
loop_
 _atom_site_type_symbol
 _atom_site_label
 _atom_site_symmetry_multiplicity
 _atom_site_fract_x
 _atom_site_fract_y
 _atom_site_fract_z
 _atom_site_occupancy
  Mg  Mg0  1  0.43792800  0.90093000  0.72321400  1
  Mg  Mg1  1  0.93792800  0.90093000  0.72321400  1
  Mg  Mg2  1  0.61394400  0.51956200  0.75255000  1
  Mg  Mg3  1  0.26191200  0.28229800  0.69387800  1
  Mg  Mg4  1  0.76191200  0.28229800  0.69387800  1
  Mg  Mg5  1  0.11394400  0.51956200  0.75255000  1
  Mg  Mg6  1  0.83608200  0.63735800  0.69047800  1
  Mg  Mg7  1  0.78977300  0.78950300  0.63095100  1
  Mg  Mg8  1  0.21205900  0.90607400  0.66980800  1
  Mg  Mg9  1  0.41379600  0.52078600  0.65162100  1
  Mg  Mg10  1  0.68792800  0.52593000  0.59821400  1
  Mg  Mg11  1  0.18792800  0.52593000  0.59821400  1
  Mg  Mg12  1  0.86394400  0.14456200  0.62755000  1
  Mg  Mg13  1  0.51191200  0.90729800  0.56887800  1
  Mg  Mg14  1  0.01191200  0.90729800  0.56887800  1
  Mg  Mg15  1  0.36394400  0.14456200  0.62755000  1
  Mg  Mg16  1  0.08608200  0.26235800  0.56547800  1
  Mg  Mg17  1  0.03977300  0.41450300  0.50595100  1
  Mg  Mg18  1  0.46205900  0.53107400  0.54480800  1
  Mg  Mg19  1  0.66379600  0.14578600  0.52662100  1
  Mg  Mg20  1  0.93792800  0.15093000  0.47321400  1
  Mg  Mg21  1  0.43792800  0.15093000  0.47321400  1
  Mg  Mg22  1  0.11394400  0.76956200  0.50255000  1
  Mg  Mg23  1  0.76191200  0.53229800  0.44387800  1
  Mg  Mg24  1  0.26191200  0.53229800  0.44387800  1
  Mg  Mg25  1  0.61394400  0.76956200  0.50255000  1
  Mg  Mg26  1  0.33608200  0.88735800  0.44047800  1
  Mg  Mg27  1  0.28977300  0.03950300  0.38095100  1
  Mg  Mg28  1  0.71205900  0.15607400  0.41980800  1
  Mg  Mg29  1  0.91379600  0.77078600  0.40162100  1
  Mg  Mg30  1  0.18792800  0.77593000  0.34821400  1
  Mg  Mg31  1  0.68792800  0.77593000  0.34821400  1
  Mg  Mg32  1  0.36394400  0.39456200  0.37755000  1
  Mg  Mg33  1  0.01191200  0.15729800  0.31887800  1
  Mg  Mg34  1  0.51191200  0.15729800  0.31887800  1
  Mg  Mg35  1  0.86394400  0.39456200  0.37755000  1
  Mg  Mg36  1  0.58608200  0.51235800  0.31547800  1
  Mg  Mg37  1  0.53977300  0.66450300  0.25595100  1
  Mg  Mg38  1  0.96205900  0.78107400  0.29480800  1
  Mg  Mg39  1  0.16379600  0.39578600  0.27662100  1
  Mg  Mg40  1  0.43792800  0.40093000  0.22321400  1
  Mg  Mg41  1  0.93792800  0.40093000  0.22321400  1
  Mg  Mg42  1  0.61394400  0.01956200  0.25255000  1
  Mg  Mg43  1  0.26191200  0.78229800  0.19387800  1
  Mg  Mg44  1  0.76191200  0.78229800  0.19387800  1
  Mg  Mg45  1  0.11394400  0.01956200  0.25255000  1
  Ga  Ga46  1  0.03125900  0.19714000  0.74034200  1
  Ga  Ga47  1  0.34459600  0.60472100  0.70608700  1
  Ga  Ga48  1  0.96487900  0.42429600  0.64594500  1
  Ga  Ga49  1  0.66097600  0.00256400  0.67548300  1
  Ga  Ga50  1  0.28125900  0.82214000  0.61534200  1
  Ga  Ga51  1  0.59459600  0.22972100  0.58108700  1
  Ga  Ga52  1  0.21487900  0.04929600  0.52094500  1
  Ga  Ga53  1  0.91097600  0.62756400  0.55048300  1
  Ga  Ga54  1  0.53125900  0.44714000  0.49034200  1
  Ga  Ga55  1  0.84459600  0.85472100  0.45608700  1
  Ga  Ga56  1  0.46487900  0.67429600  0.39594500  1
  Ga  Ga57  1  0.16097600  0.25256400  0.42548300  1
  Ga  Ga58  1  0.78125900  0.07214000  0.36534200  1
  Ga  Ga59  1  0.09459600  0.47972100  0.33108700  1
  Ga  Ga60  1  0.71487900  0.29929600  0.27094500  1
  Ga  Ga61  1  0.41097600  0.87756400  0.30048300  1
  Ga  Ga62  1  0.03125900  0.69714000  0.24034200  1
  Ga  Ga63  1  0.34459600  0.10472100  0.20608700  1
