# generated using pymatgen
data_Mg19Tl7
_symmetry_space_group_name_H-M   'P 1'
_cell_length_a   6.32911700
_cell_length_b   14.72674100
_cell_length_c   50.02036700
_cell_angle_alpha   90.00000000
_cell_angle_beta   90.00000000
_cell_angle_gamma   90.00000000
_symmetry_Int_Tables_number   1
_chemical_formula_structural   Mg19Tl7
_chemical_formula_sum   'Mg76 Tl28'
_cell_volume   4662.26169329
_cell_formula_units_Z   4
loop_
 _symmetry_equiv_pos_site_id
 _symmetry_equiv_pos_as_xyz
  1  'x, y, z'
loop_
 _atom_site_type_symbol
 _atom_site_label
 _atom_site_symmetry_multiplicity
 _atom_site_fract_x
 _atom_site_fract_y
 _atom_site_fract_z
 _atom_site_occupancy
  Mg  Mg0  1  0.00000000  0.91505100  0.31829100  1
  Mg  Mg1  1  0.25000000  0.73536000  0.34183700  1
  Mg  Mg2  1  0.75000000  0.00000000  0.27040800  1
  Mg  Mg3  1  0.50000000  0.58494900  0.29395400  1
  Mg  Mg4  1  0.25000000  0.76464000  0.27040800  1
  Mg  Mg5  1  0.75000000  0.76464000  0.27040800  1
  Mg  Mg6  1  0.75000000  0.73536000  0.34183700  1
  Mg  Mg7  1  0.25000000  0.00000000  0.27040800  1
  Mg  Mg8  1  0.75000000  0.23536000  0.27040800  1
  Mg  Mg9  1  0.25000000  0.50000000  0.34183700  1
  Mg  Mg10  1  0.50000000  0.08494900  0.31829100  1
  Mg  Mg11  1  0.75000000  0.26464000  0.34183700  1
  Mg  Mg12  1  0.25000000  0.26464000  0.34183700  1
  Mg  Mg13  1  0.25000000  0.23536000  0.27040800  1
  Mg  Mg14  1  0.00000000  0.41505100  0.29395400  1
  Mg  Mg15  1  0.75000000  0.50000000  0.34183700  1
  Mg  Mg16  1  0.00000000  0.91505100  0.46114800  1
  Mg  Mg17  1  0.25000000  0.73536000  0.48469400  1
  Mg  Mg18  1  0.75000000  0.00000000  0.41326500  1
  Mg  Mg19  1  0.00000000  0.58494900  0.38972000  1
  Mg  Mg20  1  0.50000000  0.58494900  0.43681100  1
  Mg  Mg21  1  0.25000000  0.76464000  0.41326500  1
  Mg  Mg22  1  0.75000000  0.76464000  0.41326500  1
  Mg  Mg23  1  0.75000000  0.73536000  0.48469400  1
  Mg  Mg24  1  0.50000000  0.91505100  0.36538200  1
  Mg  Mg25  1  0.25000000  0.00000000  0.41326500  1
  Mg  Mg26  1  0.50000000  0.41505100  0.38972000  1
  Mg  Mg27  1  0.75000000  0.23536000  0.41326500  1
  Mg  Mg28  1  0.25000000  0.50000000  0.48469400  1
  Mg  Mg29  1  0.50000000  0.08494900  0.46114800  1
  Mg  Mg30  1  0.00000000  0.08494900  0.36538200  1
  Mg  Mg31  1  0.75000000  0.26464000  0.48469400  1
  Mg  Mg32  1  0.25000000  0.26464000  0.48469400  1
  Mg  Mg33  1  0.25000000  0.23536000  0.41326500  1
  Mg  Mg34  1  0.00000000  0.41505100  0.43681100  1
  Mg  Mg35  1  0.75000000  0.50000000  0.48469400  1
  Mg  Mg36  1  0.00000000  0.91505100  0.60400500  1
  Mg  Mg37  1  0.25000000  0.73536000  0.62755100  1
  Mg  Mg38  1  0.75000000  0.00000000  0.55612200  1
  Mg  Mg39  1  0.00000000  0.58494900  0.53257700  1
  Mg  Mg40  1  0.50000000  0.58494900  0.57966800  1
  Mg  Mg41  1  0.25000000  0.76464000  0.55612200  1
  Mg  Mg42  1  0.75000000  0.76464000  0.55612200  1
  Mg  Mg43  1  0.75000000  0.73536000  0.62755100  1
  Mg  Mg44  1  0.50000000  0.91505100  0.50823900  1
  Mg  Mg45  1  0.25000000  0.00000000  0.55612200  1
  Mg  Mg46  1  0.50000000  0.41505100  0.53257700  1
  Mg  Mg47  1  0.75000000  0.23536000  0.55612200  1
  Mg  Mg48  1  0.25000000  0.50000000  0.62755100  1
  Mg  Mg49  1  0.50000000  0.08494900  0.60400500  1
  Mg  Mg50  1  0.00000000  0.08494900  0.50823900  1
  Mg  Mg51  1  0.75000000  0.26464000  0.62755100  1
  Mg  Mg52  1  0.25000000  0.26464000  0.62755100  1
  Mg  Mg53  1  0.25000000  0.23536000  0.55612200  1
  Mg  Mg54  1  0.00000000  0.41505100  0.57966800  1
  Mg  Mg55  1  0.75000000  0.50000000  0.62755100  1
  Mg  Mg56  1  0.00000000  0.91505100  0.74686300  1
  Mg  Mg57  1  0.25000000  0.73536000  0.77040800  1
  Mg  Mg58  1  0.75000000  0.00000000  0.69898000  1
  Mg  Mg59  1  0.00000000  0.58494900  0.67543400  1
  Mg  Mg60  1  0.50000000  0.58494900  0.72252500  1
  Mg  Mg61  1  0.25000000  0.76464000  0.69898000  1
  Mg  Mg62  1  0.75000000  0.76464000  0.69898000  1
  Mg  Mg63  1  0.75000000  0.73536000  0.77040800  1
  Mg  Mg64  1  0.50000000  0.91505100  0.65109700  1
  Mg  Mg65  1  0.25000000  0.00000000  0.69898000  1
  Mg  Mg66  1  0.50000000  0.41505100  0.67543400  1
  Mg  Mg67  1  0.75000000  0.23536000  0.69898000  1
  Mg  Mg68  1  0.25000000  0.50000000  0.77040800  1
  Mg  Mg69  1  0.50000000  0.08494900  0.74686300  1
  Mg  Mg70  1  0.00000000  0.08494900  0.65109700  1
  Mg  Mg71  1  0.75000000  0.26464000  0.77040800  1
  Mg  Mg72  1  0.25000000  0.26464000  0.77040800  1
  Mg  Mg73  1  0.25000000  0.23536000  0.69898000  1
  Mg  Mg74  1  0.00000000  0.41505100  0.72252500  1
  Mg  Mg75  1  0.75000000  0.50000000  0.77040800  1
  Tl  Tl76  1  0.50000000  0.87817000  0.30802800  1
  Tl  Tl77  1  0.00000000  0.62183000  0.30421700  1
  Tl  Tl78  1  0.00000000  0.12183000  0.30802800  1
  Tl  Tl79  1  0.50000000  0.37817000  0.30421700  1
  Tl  Tl80  1  0.50000000  0.62183000  0.37945600  1
  Tl  Tl81  1  0.50000000  0.87817000  0.45088500  1
  Tl  Tl82  1  0.00000000  0.62183000  0.44707400  1
  Tl  Tl83  1  0.00000000  0.87817000  0.37564600  1
  Tl  Tl84  1  0.00000000  0.12183000  0.45088500  1
  Tl  Tl85  1  0.00000000  0.37817000  0.37945600  1
  Tl  Tl86  1  0.50000000  0.12183000  0.37564600  1
  Tl  Tl87  1  0.50000000  0.37817000  0.44707400  1
  Tl  Tl88  1  0.50000000  0.62183000  0.52231400  1
  Tl  Tl89  1  0.50000000  0.87817000  0.59374200  1
  Tl  Tl90  1  0.00000000  0.62183000  0.58993100  1
  Tl  Tl91  1  0.00000000  0.87817000  0.51850300  1
  Tl  Tl92  1  0.00000000  0.12183000  0.59374200  1
  Tl  Tl93  1  0.00000000  0.37817000  0.52231400  1
  Tl  Tl94  1  0.50000000  0.12183000  0.51850300  1
  Tl  Tl95  1  0.50000000  0.37817000  0.58993100  1
  Tl  Tl96  1  0.50000000  0.62183000  0.66517100  1
  Tl  Tl97  1  0.50000000  0.87817000  0.73659900  1
  Tl  Tl98  1  0.00000000  0.62183000  0.73278900  1
  Tl  Tl99  1  0.00000000  0.87817000  0.66136000  1
  Tl  Tl100  1  0.00000000  0.12183000  0.73659900  1
  Tl  Tl101  1  0.00000000  0.37817000  0.66517100  1
  Tl  Tl102  1  0.50000000  0.12183000  0.66136000  1
  Tl  Tl103  1  0.50000000  0.37817000  0.73278900  1
