# generated using pymatgen
data_MgAu3
_symmetry_space_group_name_H-M   'P 1'
_cell_length_a   5.98733200
_cell_length_b   10.43041261
_cell_length_c   47.91433000
_cell_angle_alpha   90.00000000
_cell_angle_beta   90.00000000
_cell_angle_gamma   106.67922430
_symmetry_Int_Tables_number   1
_chemical_formula_structural   MgAu3
_chemical_formula_sum   'Mg22 Au66'
_cell_volume   2866.37162269
_cell_formula_units_Z   22
loop_
 _symmetry_equiv_pos_site_id
 _symmetry_equiv_pos_as_xyz
  1  'x, y, z'
loop_
 _atom_site_type_symbol
 _atom_site_label
 _atom_site_symmetry_multiplicity
 _atom_site_fract_x
 _atom_site_fract_y
 _atom_site_fract_z
 _atom_site_occupancy
  Mg  Mg0  1  0.12386400  0.24772800  0.27516000  1
  Mg  Mg1  1  0.87613600  0.75227200  0.27484000  1
  Mg  Mg2  1  0.87613600  0.75227200  0.37516000  1
  Mg  Mg3  1  0.12386400  0.24772800  0.37484000  1
  Mg  Mg4  1  0.46274000  0.92547900  0.32500000  1
  Mg  Mg5  1  0.53726000  0.07452100  0.22500000  1
  Mg  Mg6  1  0.71024100  0.42048200  0.32500000  1
  Mg  Mg7  1  0.28975900  0.57951800  0.22500000  1
  Mg  Mg8  1  0.12386400  0.24772800  0.47516000  1
  Mg  Mg9  1  0.87613600  0.75227200  0.47484000  1
  Mg  Mg10  1  0.87613600  0.75227200  0.57516000  1
  Mg  Mg11  1  0.12386400  0.24772800  0.57484000  1
  Mg  Mg12  1  0.46274000  0.92547900  0.52500000  1
  Mg  Mg13  1  0.53726000  0.07452100  0.42500000  1
  Mg  Mg14  1  0.71024100  0.42048200  0.52500000  1
  Mg  Mg15  1  0.28975900  0.57951800  0.42500000  1
  Mg  Mg16  1  0.12386400  0.24772800  0.67516000  1
  Mg  Mg17  1  0.87613600  0.75227200  0.67484000  1
  Mg  Mg18  1  0.46274000  0.92547900  0.72500000  1
  Mg  Mg19  1  0.53726000  0.07452100  0.62500000  1
  Mg  Mg20  1  0.71024100  0.42048200  0.72500000  1
  Mg  Mg21  1  0.28975900  0.57951800  0.62500000  1
  Au  Au22  1  0.25112200  0.00000000  0.37500000  1
  Au  Au23  1  0.74887800  0.00000000  0.27500000  1
  Au  Au24  1  0.74887800  0.00000000  0.37500000  1
  Au  Au25  1  0.25112200  0.00000000  0.27500000  1
  Au  Au26  1  0.37396200  0.74792400  0.37489000  1
  Au  Au27  1  0.62603800  0.25207600  0.37511000  1
  Au  Au28  1  0.62603800  0.25207600  0.27489000  1
  Au  Au29  1  0.37396200  0.74792400  0.27511000  1
  Au  Au30  1  0.41121400  0.32651400  0.22500000  1
  Au  Au31  1  0.08470000  0.67348600  0.32500000  1
  Au  Au32  1  0.58878600  0.67348600  0.32500000  1
  Au  Au33  1  0.91530000  0.32651400  0.22500000  1
  Au  Au34  1  0.16344100  0.82598400  0.22500000  1
  Au  Au35  1  0.33745700  0.17401600  0.32500000  1
  Au  Au36  1  0.83655900  0.17401600  0.32500000  1
  Au  Au37  1  0.66254300  0.82598400  0.22500000  1
  Au  Au38  1  0.00000000  0.50000000  0.27500000  1
  Au  Au39  1  0.50000000  0.50000000  0.27500000  1
  Au  Au40  1  0.00000000  0.50000000  0.37500000  1
  Au  Au41  1  0.50000000  0.50000000  0.37500000  1
  Au  Au42  1  0.21177600  0.42355200  0.32500000  1
  Au  Au43  1  0.78822400  0.57644800  0.22500000  1
  Au  Au44  1  0.95941500  0.91883100  0.32500000  1
  Au  Au45  1  0.04058500  0.08116900  0.22500000  1
  Au  Au46  1  0.25112200  0.00000000  0.57500000  1
  Au  Au47  1  0.74887800  0.00000000  0.47500000  1
  Au  Au48  1  0.74887800  0.00000000  0.57500000  1
  Au  Au49  1  0.25112200  0.00000000  0.47500000  1
  Au  Au50  1  0.37396200  0.74792400  0.57489000  1
  Au  Au51  1  0.62603800  0.25207600  0.57511000  1
  Au  Au52  1  0.62603800  0.25207600  0.47489000  1
  Au  Au53  1  0.37396200  0.74792400  0.47511000  1
  Au  Au54  1  0.41121400  0.32651400  0.42500000  1
  Au  Au55  1  0.08470000  0.67348600  0.52500000  1
  Au  Au56  1  0.58878600  0.67348600  0.52500000  1
  Au  Au57  1  0.91530000  0.32651400  0.42500000  1
  Au  Au58  1  0.16344100  0.82598400  0.42500000  1
  Au  Au59  1  0.33745700  0.17401600  0.52500000  1
  Au  Au60  1  0.83655900  0.17401600  0.52500000  1
  Au  Au61  1  0.66254300  0.82598400  0.42500000  1
  Au  Au62  1  0.00000000  0.50000000  0.47500000  1
  Au  Au63  1  0.50000000  0.50000000  0.47500000  1
  Au  Au64  1  0.00000000  0.50000000  0.57500000  1
  Au  Au65  1  0.50000000  0.50000000  0.57500000  1
  Au  Au66  1  0.21177600  0.42355200  0.52500000  1
  Au  Au67  1  0.78822400  0.57644800  0.42500000  1
  Au  Au68  1  0.95941500  0.91883100  0.52500000  1
  Au  Au69  1  0.04058500  0.08116900  0.42500000  1
  Au  Au70  1  0.74887800  0.00000000  0.67500000  1
  Au  Au71  1  0.25112200  0.00000000  0.67500000  1
  Au  Au72  1  0.62603800  0.25207600  0.67489000  1
  Au  Au73  1  0.37396200  0.74792400  0.67511000  1
  Au  Au74  1  0.41121400  0.32651400  0.62500000  1
  Au  Au75  1  0.08470000  0.67348600  0.72500000  1
  Au  Au76  1  0.58878600  0.67348600  0.72500000  1
  Au  Au77  1  0.91530000  0.32651400  0.62500000  1
  Au  Au78  1  0.16344100  0.82598400  0.62500000  1
  Au  Au79  1  0.33745700  0.17401600  0.72500000  1
  Au  Au80  1  0.83655900  0.17401600  0.72500000  1
  Au  Au81  1  0.66254300  0.82598400  0.62500000  1
  Au  Au82  1  0.00000000  0.50000000  0.67500000  1
  Au  Au83  1  0.50000000  0.50000000  0.67500000  1
  Au  Au84  1  0.21177600  0.42355200  0.72500000  1
  Au  Au85  1  0.78822400  0.57644800  0.62500000  1
  Au  Au86  1  0.95941500  0.91883100  0.72500000  1
  Au  Au87  1  0.04058500  0.08116900  0.62500000  1
