# generated using pymatgen
data_Ba6Mg49
_symmetry_space_group_name_H-M   'P 1'
_cell_length_a   10.57648963
_cell_length_b   15.70975700
_cell_length_c   46.10185000
_cell_angle_alpha   90.00000000
_cell_angle_beta   96.58677793
_cell_angle_gamma   90.00000000
_symmetry_Int_Tables_number   1
_chemical_formula_structural   Ba6Mg49
_chemical_formula_sum   'Ba18 Mg147'
_cell_volume   7609.44884752
_cell_formula_units_Z   3
loop_
 _symmetry_equiv_pos_site_id
 _symmetry_equiv_pos_as_xyz
  1  'x, y, z'
loop_
 _atom_site_type_symbol
 _atom_site_label
 _atom_site_symmetry_multiplicity
 _atom_site_fract_x
 _atom_site_fract_y
 _atom_site_fract_z
 _atom_site_occupancy
  Ba  Ba0  1  0.57482800  0.00363400  0.24386000  1
  Ba  Ba1  1  0.57482800  0.32969900  0.24386000  1
  Ba  Ba2  1  0.64149400  0.33696800  0.37719300  1
  Ba  Ba3  1  0.64149400  0.66303200  0.37719300  1
  Ba  Ba4  1  0.10816100  0.67030100  0.31052600  1
  Ba  Ba5  1  0.10816100  0.99636600  0.31052600  1
  Ba  Ba6  1  0.17482800  0.00363400  0.44386000  1
  Ba  Ba7  1  0.17482800  0.32969900  0.44386000  1
  Ba  Ba8  1  0.24149400  0.33696800  0.57719300  1
  Ba  Ba9  1  0.24149400  0.66303200  0.57719300  1
  Ba  Ba10  1  0.70816100  0.67030100  0.51052600  1
  Ba  Ba11  1  0.70816100  0.99636600  0.51052600  1
  Ba  Ba12  1  0.77482800  0.00363400  0.64386000  1
  Ba  Ba13  1  0.77482800  0.32969900  0.64386000  1
  Ba  Ba14  1  0.84149400  0.33696800  0.77719300  1
  Ba  Ba15  1  0.84149400  0.66303200  0.77719300  1
  Ba  Ba16  1  0.30816100  0.67030100  0.71052600  1
  Ba  Ba17  1  0.30816100  0.99636600  0.71052600  1
  Mg  Mg18  1  0.92448300  0.00000000  0.23569900  1
  Mg  Mg19  1  0.60854100  0.17998800  0.31128700  1
  Mg  Mg20  1  0.33883100  0.15334500  0.27757300  1
  Mg  Mg21  1  0.57482800  0.76345300  0.24386000  1
  Mg  Mg22  1  0.21701100  0.00000000  0.23569900  1
  Mg  Mg23  1  0.75850600  0.00000000  0.31868700  1
  Mg  Mg24  1  0.57482800  0.56988000  0.24386000  1
  Mg  Mg25  1  0.81563300  0.33333300  0.31052600  1
  Mg  Mg26  1  0.37482800  0.16666700  0.34386000  1
  Mg  Mg27  1  0.46597700  0.00000000  0.31868700  1
  Mg  Mg28  1  0.14111400  0.15334500  0.37643200  1
  Mg  Mg29  1  0.84453800  0.15334500  0.27757300  1
  Mg  Mg30  1  0.60816100  0.83333300  0.31052600  1
  Mg  Mg31  1  0.40068900  0.33333300  0.31052600  1
  Mg  Mg32  1  0.87482800  0.16666700  0.34386000  1
  Mg  Mg33  1  0.99115000  0.33333300  0.36903200  1
  Mg  Mg34  1  0.07520800  0.51332200  0.24462100  1
  Mg  Mg35  1  0.64149400  0.09678600  0.37719300  1
  Mg  Mg36  1  0.28367800  0.33333300  0.36903200  1
  Mg  Mg37  1  0.22517200  0.33333300  0.25202100  1
  Mg  Mg38  1  0.37178400  0.51332200  0.34347900  1
  Mg  Mg39  1  0.64149400  0.90321400  0.37719300  1
  Mg  Mg40  1  0.28230000  0.66666700  0.24386000  1
  Mg  Mg41  1  0.84149400  0.50000000  0.27719300  1
  Mg  Mg42  1  0.93264400  0.33333300  0.25202100  1
  Mg  Mg43  1  0.87749100  0.51332200  0.34347900  1
  Mg  Mg44  1  0.60778100  0.48667800  0.30976500  1
  Mg  Mg45  1  0.07482800  0.16666700  0.24386000  1
  Mg  Mg46  1  0.86735600  0.66666700  0.24386000  1
  Mg  Mg47  1  0.34149400  0.50000000  0.27719300  1
  Mg  Mg48  1  0.45781600  0.66666700  0.30236500  1
  Mg  Mg49  1  0.14187500  0.84665500  0.37795400  1
  Mg  Mg50  1  0.87216500  0.82001200  0.34424000  1
  Mg  Mg51  1  0.10816100  0.43012000  0.31052600  1
  Mg  Mg52  1  0.75034500  0.66666700  0.30236500  1
  Mg  Mg53  1  0.29183900  0.66666700  0.38535400  1
  Mg  Mg54  1  0.83845100  0.84665500  0.27681300  1
  Mg  Mg55  1  0.10816100  0.23654700  0.31052600  1
  Mg  Mg56  1  0.34896600  0.00000000  0.37719300  1
  Mg  Mg57  1  0.99931100  0.66666700  0.38535400  1
  Mg  Mg58  1  0.34415700  0.84665500  0.27681300  1
  Mg  Mg59  1  0.07444700  0.82001200  0.24309900  1
  Mg  Mg60  1  0.37787100  0.82001200  0.34424000  1
  Mg  Mg61  1  0.14149400  0.50000000  0.37719300  1
  Mg  Mg62  1  0.93402300  0.00000000  0.37719300  1
  Mg  Mg63  1  0.52448300  0.00000000  0.43569900  1
  Mg  Mg64  1  0.20854100  0.17998800  0.51128700  1
  Mg  Mg65  1  0.93883100  0.15334500  0.47757300  1
  Mg  Mg66  1  0.17482800  0.76345300  0.44386000  1
  Mg  Mg67  1  0.81701100  0.00000000  0.43569900  1
  Mg  Mg68  1  0.35850600  0.00000000  0.51868700  1
  Mg  Mg69  1  0.90511800  0.17998800  0.41014600  1
  Mg  Mg70  1  0.17482800  0.56988000  0.44386000  1
  Mg  Mg71  1  0.41563300  0.33333300  0.51052600  1
  Mg  Mg72  1  0.97482800  0.16666700  0.54386000  1
  Mg  Mg73  1  0.06597700  0.00000000  0.51868700  1
  Mg  Mg74  1  0.41082400  0.17998800  0.41014600  1
  Mg  Mg75  1  0.74111400  0.15334500  0.57643200  1
  Mg  Mg76  1  0.44453800  0.15334500  0.47757300  1
  Mg  Mg77  1  0.20816100  0.83333300  0.51052600  1
  Mg  Mg78  1  0.00068900  0.33333300  0.51052600  1
  Mg  Mg79  1  0.47482800  0.16666700  0.54386000  1
  Mg  Mg80  1  0.59115000  0.33333300  0.56903200  1
  Mg  Mg81  1  0.67520800  0.51332200  0.44462100  1
  Mg  Mg82  1  0.40549800  0.48667800  0.41090700  1
  Mg  Mg83  1  0.24149400  0.09678600  0.57719300  1
  Mg  Mg84  1  0.88367800  0.33333300  0.56903200  1
  Mg  Mg85  1  0.82517200  0.33333300  0.45202100  1
  Mg  Mg86  1  0.97178400  0.51332200  0.54347900  1
  Mg  Mg87  1  0.24149400  0.90321400  0.57719300  1
  Mg  Mg88  1  0.88230000  0.66666700  0.44386000  1
  Mg  Mg89  1  0.44149400  0.50000000  0.47719300  1
  Mg  Mg90  1  0.53264400  0.33333300  0.45202100  1
  Mg  Mg91  1  0.47749100  0.51332200  0.54347900  1
  Mg  Mg92  1  0.20778100  0.48667800  0.50976500  1
  Mg  Mg93  1  0.91120500  0.48667800  0.41090700  1
  Mg  Mg94  1  0.67482800  0.16666700  0.44386000  1
  Mg  Mg95  1  0.46735600  0.66666700  0.44386000  1
  Mg  Mg96  1  0.94149400  0.50000000  0.47719300  1
  Mg  Mg97  1  0.05781600  0.66666700  0.50236500  1
  Mg  Mg98  1  0.74187500  0.84665500  0.57795400  1
  Mg  Mg99  1  0.47216500  0.82001200  0.54424000  1
  Mg  Mg100  1  0.70816100  0.43012000  0.51052600  1
  Mg  Mg101  1  0.35034500  0.66666700  0.50236500  1
  Mg  Mg102  1  0.89183900  0.66666700  0.58535400  1
  Mg  Mg103  1  0.43845100  0.84665500  0.47681300  1
  Mg  Mg104  1  0.70816100  0.23654700  0.51052600  1
  Mg  Mg105  1  0.94896600  0.00000000  0.57719300  1
  Mg  Mg106  1  0.90816100  0.83333300  0.41052600  1
  Mg  Mg107  1  0.59931100  0.66666700  0.58535400  1
  Mg  Mg108  1  0.94415700  0.84665500  0.47681300  1
  Mg  Mg109  1  0.67444700  0.82001200  0.44309900  1
  Mg  Mg110  1  0.97787100  0.82001200  0.54424000  1
  Mg  Mg111  1  0.74149400  0.50000000  0.57719300  1
  Mg  Mg112  1  0.53402300  0.00000000  0.57719300  1
  Mg  Mg113  1  0.40816100  0.83333300  0.41052600  1
  Mg  Mg114  1  0.12448300  0.00000000  0.63569900  1
  Mg  Mg115  1  0.80854100  0.17998800  0.71128700  1
  Mg  Mg116  1  0.53883100  0.15334500  0.67757300  1
  Mg  Mg117  1  0.77482800  0.76345300  0.64386000  1
  Mg  Mg118  1  0.41701100  0.00000000  0.63569900  1
  Mg  Mg119  1  0.95850600  0.00000000  0.71868700  1
  Mg  Mg120  1  0.50511800  0.17998800  0.61014600  1
  Mg  Mg121  1  0.77482800  0.56988000  0.64386000  1
  Mg  Mg122  1  0.01563300  0.33333300  0.71052600  1
  Mg  Mg123  1  0.57482800  0.16666700  0.74386000  1
  Mg  Mg124  1  0.66597700  0.00000000  0.71868700  1
  Mg  Mg125  1  0.01082400  0.17998800  0.61014600  1
  Mg  Mg126  1  0.34111400  0.15334500  0.77643200  1
  Mg  Mg127  1  0.04453800  0.15334500  0.67757300  1
  Mg  Mg128  1  0.80816100  0.83333300  0.71052600  1
  Mg  Mg129  1  0.60068900  0.33333300  0.71052600  1
  Mg  Mg130  1  0.07482800  0.16666700  0.74386000  1
  Mg  Mg131  1  0.19115000  0.33333300  0.76903200  1
  Mg  Mg132  1  0.27520800  0.51332200  0.64462100  1
  Mg  Mg133  1  0.00549800  0.48667800  0.61090700  1
  Mg  Mg134  1  0.84149400  0.09678600  0.77719300  1
  Mg  Mg135  1  0.48367800  0.33333300  0.76903200  1
  Mg  Mg136  1  0.42517200  0.33333300  0.65202100  1
  Mg  Mg137  1  0.57178400  0.51332200  0.74347900  1
  Mg  Mg138  1  0.84149400  0.90321400  0.77719300  1
  Mg  Mg139  1  0.48230000  0.66666700  0.64386000  1
  Mg  Mg140  1  0.04149400  0.50000000  0.67719300  1
  Mg  Mg141  1  0.13264400  0.33333300  0.65202100  1
  Mg  Mg142  1  0.07749100  0.51332200  0.74347900  1
  Mg  Mg143  1  0.80778100  0.48667800  0.70976500  1
  Mg  Mg144  1  0.51120500  0.48667800  0.61090700  1
  Mg  Mg145  1  0.27482800  0.16666700  0.64386000  1
  Mg  Mg146  1  0.06735600  0.66666700  0.64386000  1
  Mg  Mg147  1  0.54149400  0.50000000  0.67719300  1
  Mg  Mg148  1  0.65781600  0.66666700  0.70236500  1
  Mg  Mg149  1  0.34187500  0.84665500  0.77795400  1
  Mg  Mg150  1  0.07216500  0.82001200  0.74424000  1
  Mg  Mg151  1  0.30816100  0.43012000  0.71052600  1
  Mg  Mg152  1  0.95034500  0.66666700  0.70236500  1
  Mg  Mg153  1  0.49183900  0.66666700  0.78535400  1
  Mg  Mg154  1  0.03845100  0.84665500  0.67681300  1
  Mg  Mg155  1  0.30816100  0.23654700  0.71052600  1
  Mg  Mg156  1  0.54896600  0.00000000  0.77719300  1
  Mg  Mg157  1  0.50816100  0.83333300  0.61052600  1
  Mg  Mg158  1  0.19931100  0.66666700  0.78535400  1
  Mg  Mg159  1  0.54415700  0.84665500  0.67681300  1
  Mg  Mg160  1  0.27444700  0.82001200  0.64309900  1
  Mg  Mg161  1  0.57787100  0.82001200  0.74424000  1
  Mg  Mg162  1  0.34149400  0.50000000  0.77719300  1
  Mg  Mg163  1  0.13402300  0.00000000  0.77719300  1
  Mg  Mg164  1  0.00816100  0.83333300  0.61052600  1
