# generated using pymatgen
data_Tb2Mg
_symmetry_space_group_name_H-M   'P 1'
_cell_length_a   3.69476200
_cell_length_b   12.84429300
_cell_length_c   44.33714800
_cell_angle_alpha   90.00000000
_cell_angle_beta   90.00000000
_cell_angle_gamma   90.00000000
_symmetry_Int_Tables_number   1
_chemical_formula_structural   Tb2Mg
_chemical_formula_sum   'Tb28 Mg14'
_cell_volume   2104.09055020
_cell_formula_units_Z   14
loop_
 _symmetry_equiv_pos_site_id
 _symmetry_equiv_pos_as_xyz
  1  'x, y, z'
loop_
 _atom_site_type_symbol
 _atom_site_label
 _atom_site_symmetry_multiplicity
 _atom_site_fract_x
 _atom_site_fract_y
 _atom_site_fract_z
 _atom_site_occupancy
  Tb  Tb0  1  0.00000000  0.34009900  0.27083300  1
  Tb  Tb1  1  0.50000000  0.15990100  0.22916700  1
  Tb  Tb2  1  0.50000000  0.84009900  0.22916700  1
  Tb  Tb3  1  1.00000000  0.65990100  0.27083300  1
  Tb  Tb4  1  0.00000000  0.34009900  0.35416700  1
  Tb  Tb5  1  0.50000000  0.15990100  0.31250000  1
  Tb  Tb6  1  0.50000000  0.84009900  0.31250000  1
  Tb  Tb7  1  1.00000000  0.65990100  0.35416700  1
  Tb  Tb8  1  0.00000000  0.34009900  0.43750000  1
  Tb  Tb9  1  0.50000000  0.15990100  0.39583300  1
  Tb  Tb10  1  0.50000000  0.84009900  0.39583300  1
  Tb  Tb11  1  1.00000000  0.65990100  0.43750000  1
  Tb  Tb12  1  0.00000000  0.34009900  0.52083300  1
  Tb  Tb13  1  0.50000000  0.15990100  0.47916700  1
  Tb  Tb14  1  0.50000000  0.84009900  0.47916700  1
  Tb  Tb15  1  0.00000000  0.65990100  0.52083300  1
  Tb  Tb16  1  0.00000000  0.34009900  0.60416700  1
  Tb  Tb17  1  0.50000000  0.15990100  0.56250000  1
  Tb  Tb18  1  0.50000000  0.84009900  0.56250000  1
  Tb  Tb19  1  1.00000000  0.65990100  0.60416700  1
  Tb  Tb20  1  0.00000000  0.34009900  0.68750000  1
  Tb  Tb21  1  0.50000000  0.15990100  0.64583300  1
  Tb  Tb22  1  0.50000000  0.84009900  0.64583300  1
  Tb  Tb23  1  1.00000000  0.65990100  0.68750000  1
  Tb  Tb24  1  0.00000000  0.34009900  0.77083300  1
  Tb  Tb25  1  0.50000000  0.15990100  0.72916700  1
  Tb  Tb26  1  0.50000000  0.84009900  0.72916700  1
  Tb  Tb27  1  1.00000000  0.65990100  0.77083300  1
  Mg  Mg28  1  0.00000000  0.00000000  0.27083300  1
  Mg  Mg29  1  0.50000000  0.50000000  0.22916700  1
  Mg  Mg30  1  0.00000000  0.00000000  0.35416700  1
  Mg  Mg31  1  0.50000000  0.50000000  0.31250000  1
  Mg  Mg32  1  0.00000000  0.00000000  0.43750000  1
  Mg  Mg33  1  0.50000000  0.50000000  0.39583300  1
  Mg  Mg34  1  0.00000000  0.00000000  0.52083300  1
  Mg  Mg35  1  0.50000000  0.50000000  0.47916700  1
  Mg  Mg36  1  0.00000000  0.00000000  0.60416700  1
  Mg  Mg37  1  0.50000000  0.50000000  0.56250000  1
  Mg  Mg38  1  0.00000000  0.00000000  0.68750000  1
  Mg  Mg39  1  0.50000000  0.50000000  0.64583300  1
  Mg  Mg40  1  0.00000000  0.00000000  0.77083300  1
  Mg  Mg41  1  0.50000000  0.50000000  0.72916700  1
