# generated using pymatgen
data_LiMg2
_symmetry_space_group_name_H-M   'P 1'
_cell_length_a   3.05132800
_cell_length_b   17.58176747
_cell_length_c   48.62272600
_cell_angle_alpha   93.50325111
_cell_angle_beta   90.00000000
_cell_angle_gamma   90.00000000
_symmetry_Int_Tables_number   1
_chemical_formula_structural   LiMg2
_chemical_formula_sum   'Li24 Mg48'
_cell_volume   2603.62491512
_cell_formula_units_Z   24
loop_
 _symmetry_equiv_pos_site_id
 _symmetry_equiv_pos_as_xyz
  1  'x, y, z'
loop_
 _atom_site_type_symbol
 _atom_site_label
 _atom_site_symmetry_multiplicity
 _atom_site_fract_x
 _atom_site_fract_y
 _atom_site_fract_z
 _atom_site_occupancy
  Li  Li0  1  0.50000000  0.94739900  0.26140000  1
  Li  Li1  1  0.00000000  0.65260100  0.23860000  1
  Li  Li2  1  0.00000000  0.39739900  0.21140000  1
  Li  Li3  1  0.50000000  0.20260100  0.28860000  1
  Li  Li4  1  0.50000000  0.04739900  0.36140000  1
  Li  Li5  1  0.00000000  0.75260100  0.33860000  1
  Li  Li6  1  0.00000000  0.49739900  0.31140000  1
  Li  Li7  1  0.50000000  0.30260100  0.38860000  1
  Li  Li8  1  0.50000000  0.14739900  0.46140000  1
  Li  Li9  1  0.00000000  0.85260100  0.43860000  1
  Li  Li10  1  1.00000000  0.59739900  0.41140000  1
  Li  Li11  1  0.50000000  0.40260100  0.48860000  1
  Li  Li12  1  0.50000000  0.24739900  0.56140000  1
  Li  Li13  1  0.00000000  0.95260100  0.53860000  1
  Li  Li14  1  0.00000000  0.69739900  0.51140000  1
  Li  Li15  1  0.50000000  0.50260100  0.58860000  1
  Li  Li16  1  0.50000000  0.34739900  0.66140000  1
  Li  Li17  1  0.00000000  0.05260100  0.63860000  1
  Li  Li18  1  0.00000000  0.79739900  0.61140000  1
  Li  Li19  1  0.50000000  0.60260100  0.68860000  1
  Li  Li20  1  0.50000000  0.44739900  0.76140000  1
  Li  Li21  1  0.00000000  0.15260100  0.73860000  1
  Li  Li22  1  1.00000000  0.89739900  0.71140000  1
  Li  Li23  1  0.50000000  0.70260100  0.78860000  1
  Mg  Mg24  1  0.00000000  0.79617700  0.27820300  1
  Mg  Mg25  1  0.50000000  0.64601800  0.29488700  1
  Mg  Mg26  1  0.50000000  0.80382300  0.22179700  1
  Mg  Mg27  1  0.00000000  0.95398200  0.20511300  1
  Mg  Mg28  1  0.50000000  0.24617700  0.22820300  1
  Mg  Mg29  1  0.00000000  0.09601800  0.24488700  1
  Mg  Mg30  1  0.00000000  0.35382300  0.27179700  1
  Mg  Mg31  1  0.50000000  0.50398200  0.25511300  1
  Mg  Mg32  1  0.00000000  0.89617700  0.37820300  1
  Mg  Mg33  1  0.50000000  0.74601800  0.39488700  1
  Mg  Mg34  1  0.50000000  0.90382300  0.32179700  1
  Mg  Mg35  1  0.00000000  0.05398200  0.30511300  1
  Mg  Mg36  1  0.50000000  0.34617700  0.32820300  1
  Mg  Mg37  1  0.00000000  0.19601800  0.34488700  1
  Mg  Mg38  1  0.00000000  0.45382300  0.37179700  1
  Mg  Mg39  1  0.50000000  0.60398200  0.35511300  1
  Mg  Mg40  1  0.00000000  0.99617700  0.47820300  1
  Mg  Mg41  1  0.50000000  0.84601800  0.49488700  1
  Mg  Mg42  1  0.50000000  0.00382300  0.42179700  1
  Mg  Mg43  1  0.00000000  0.15398200  0.40511300  1
  Mg  Mg44  1  0.50000000  0.44617700  0.42820300  1
  Mg  Mg45  1  1.00000000  0.29601800  0.44488700  1
  Mg  Mg46  1  0.00000000  0.55382300  0.47179700  1
  Mg  Mg47  1  0.50000000  0.70398200  0.45511300  1
  Mg  Mg48  1  0.00000000  0.09617700  0.57820300  1
  Mg  Mg49  1  0.50000000  0.94601800  0.59488700  1
  Mg  Mg50  1  0.50000000  0.10382300  0.52179700  1
  Mg  Mg51  1  0.00000000  0.25398200  0.50511300  1
  Mg  Mg52  1  0.50000000  0.54617700  0.52820300  1
  Mg  Mg53  1  0.00000000  0.39601800  0.54488700  1
  Mg  Mg54  1  0.00000000  0.65382300  0.57179700  1
  Mg  Mg55  1  0.50000000  0.80398200  0.55511300  1
  Mg  Mg56  1  0.00000000  0.19617700  0.67820300  1
  Mg  Mg57  1  0.50000000  0.04601800  0.69488700  1
  Mg  Mg58  1  0.50000000  0.20382300  0.62179700  1
  Mg  Mg59  1  0.00000000  0.35398200  0.60511300  1
  Mg  Mg60  1  0.50000000  0.64617700  0.62820300  1
  Mg  Mg61  1  0.00000000  0.49601800  0.64488700  1
  Mg  Mg62  1  0.00000000  0.75382300  0.67179700  1
  Mg  Mg63  1  0.50000000  0.90398200  0.65511300  1
  Mg  Mg64  1  0.00000000  0.29617700  0.77820300  1
  Mg  Mg65  1  0.50000000  0.14601800  0.79488700  1
  Mg  Mg66  1  0.50000000  0.30382300  0.72179700  1
  Mg  Mg67  1  1.00000000  0.45398200  0.70511300  1
  Mg  Mg68  1  0.50000000  0.74617700  0.72820300  1
  Mg  Mg69  1  0.00000000  0.59601800  0.74488700  1
  Mg  Mg70  1  0.00000000  0.85382300  0.77179700  1
  Mg  Mg71  1  0.50000000  0.00398200  0.75511300  1
