# generated using pymatgen
data_Mg3Cd
_symmetry_space_group_name_H-M   'P 1'
_cell_length_a   6.30670400
_cell_length_b   6.30670411
_cell_length_c   40.98052500
_cell_angle_alpha   90.00000000
_cell_angle_beta   90.00000000
_cell_angle_gamma   119.99999945
_symmetry_Int_Tables_number   1
_chemical_formula_structural   Mg3Cd
_chemical_formula_sum   'Mg30 Cd10'
_cell_volume   1411.60456983
_cell_formula_units_Z   10
loop_
 _symmetry_equiv_pos_site_id
 _symmetry_equiv_pos_as_xyz
  1  'x, y, z'
loop_
 _atom_site_type_symbol
 _atom_site_label
 _atom_site_symmetry_multiplicity
 _atom_site_fract_x
 _atom_site_fract_y
 _atom_site_fract_z
 _atom_site_occupancy
  Mg  Mg0  1  0.16796600  0.33593300  0.28125000  1
  Mg  Mg1  1  0.66406700  0.83203400  0.28125000  1
  Mg  Mg2  1  0.16796600  0.83203400  0.28125000  1
  Mg  Mg3  1  0.83203400  0.66406700  0.21875000  1
  Mg  Mg4  1  0.33593300  0.16796600  0.21875000  1
  Mg  Mg5  1  0.83203400  0.16796600  0.21875000  1
  Mg  Mg6  1  0.16796600  0.33593300  0.40625000  1
  Mg  Mg7  1  0.66406700  0.83203400  0.40625000  1
  Mg  Mg8  1  0.16796600  0.83203400  0.40625000  1
  Mg  Mg9  1  0.83203400  0.66406700  0.34375000  1
  Mg  Mg10  1  0.33593300  0.16796600  0.34375000  1
  Mg  Mg11  1  0.83203400  0.16796600  0.34375000  1
  Mg  Mg12  1  0.16796600  0.33593300  0.53125000  1
  Mg  Mg13  1  0.66406700  0.83203400  0.53125000  1
  Mg  Mg14  1  0.16796600  0.83203400  0.53125000  1
  Mg  Mg15  1  0.83203400  0.66406700  0.46875000  1
  Mg  Mg16  1  0.33593300  0.16796600  0.46875000  1
  Mg  Mg17  1  0.83203400  0.16796600  0.46875000  1
  Mg  Mg18  1  0.16796600  0.33593300  0.65625000  1
  Mg  Mg19  1  0.66406700  0.83203400  0.65625000  1
  Mg  Mg20  1  0.16796600  0.83203400  0.65625000  1
  Mg  Mg21  1  0.83203400  0.66406700  0.59375000  1
  Mg  Mg22  1  0.33593300  0.16796600  0.59375000  1
  Mg  Mg23  1  0.83203400  0.16796600  0.59375000  1
  Mg  Mg24  1  0.16796600  0.33593300  0.78125000  1
  Mg  Mg25  1  0.66406700  0.83203400  0.78125000  1
  Mg  Mg26  1  0.16796600  0.83203400  0.78125000  1
  Mg  Mg27  1  0.83203400  0.66406700  0.71875000  1
  Mg  Mg28  1  0.33593300  0.16796600  0.71875000  1
  Mg  Mg29  1  0.83203400  0.16796600  0.71875000  1
  Cd  Cd30  1  0.66666700  0.33333300  0.28125000  1
  Cd  Cd31  1  0.33333300  0.66666700  0.21875000  1
  Cd  Cd32  1  0.66666700  0.33333300  0.40625000  1
  Cd  Cd33  1  0.33333300  0.66666700  0.34375000  1
  Cd  Cd34  1  0.66666700  0.33333300  0.53125000  1
  Cd  Cd35  1  0.33333300  0.66666700  0.46875000  1
  Cd  Cd36  1  0.66666700  0.33333300  0.65625000  1
  Cd  Cd37  1  0.33333300  0.66666700  0.59375000  1
  Cd  Cd38  1  0.66666700  0.33333300  0.78125000  1
  Cd  Cd39  1  0.33333300  0.66666700  0.71875000  1
