# generated using pymatgen
data_Ce2Mg
_symmetry_space_group_name_H-M   'P 1'
_cell_length_a   3.15985600
_cell_length_b   5.24483100
_cell_length_c   55.55029700
_cell_angle_alpha   90.00000000
_cell_angle_beta   90.00000000
_cell_angle_gamma   90.00000000
_symmetry_Int_Tables_number   1
_chemical_formula_structural   Ce2Mg
_chemical_formula_sum   'Ce16 Mg8'
_cell_volume   920.63011178
_cell_formula_units_Z   8
loop_
 _symmetry_equiv_pos_site_id
 _symmetry_equiv_pos_as_xyz
  1  'x, y, z'
loop_
 _atom_site_type_symbol
 _atom_site_label
 _atom_site_symmetry_multiplicity
 _atom_site_fract_x
 _atom_site_fract_y
 _atom_site_fract_z
 _atom_site_occupancy
  Ce  Ce0  1  0.00000000  0.75000000  0.20992400  1
  Ce  Ce1  1  0.50000000  0.75000000  0.26564500  1
  Ce  Ce2  1  0.00000000  0.25000000  0.23435500  1
  Ce  Ce3  1  0.50000000  0.25000000  0.29007600  1
  Ce  Ce4  1  0.50000000  0.75000000  0.37659100  1
  Ce  Ce5  1  0.00000000  0.75000000  0.43231200  1
  Ce  Ce6  1  0.50000000  0.25000000  0.40102200  1
  Ce  Ce7  1  0.00000000  0.25000000  0.45674300  1
  Ce  Ce8  1  0.00000000  0.75000000  0.54325700  1
  Ce  Ce9  1  0.50000000  0.75000000  0.59897800  1
  Ce  Ce10  1  0.00000000  0.25000000  0.56768800  1
  Ce  Ce11  1  0.50000000  0.25000000  0.62340900  1
  Ce  Ce12  1  0.50000000  0.75000000  0.70992400  1
  Ce  Ce13  1  0.00000000  0.75000000  0.76564500  1
  Ce  Ce14  1  0.50000000  0.25000000  0.73435500  1
  Ce  Ce15  1  0.00000000  0.25000000  0.79007600  1
  Mg  Mg16  1  0.00000000  0.75000000  0.31967900  1
  Mg  Mg17  1  0.50000000  0.25000000  0.18032100  1
  Mg  Mg18  1  0.50000000  0.75000000  0.48634600  1
  Mg  Mg19  1  0.00000000  0.25000000  0.34698800  1
  Mg  Mg20  1  0.00000000  0.75000000  0.65301200  1
  Mg  Mg21  1  0.50000000  0.25000000  0.51365400  1
  Mg  Mg22  1  0.50000000  0.75000000  0.81967900  1
  Mg  Mg23  1  0.00000000  0.25000000  0.68032100  1
