# generated using pymatgen
data_Mg40Zn69
_symmetry_space_group_name_H-M   'P 1'
_cell_length_a   5.07402229
_cell_length_b   14.70723601
_cell_length_c   50.49845100
_cell_angle_alpha   88.21601723
_cell_angle_beta   89.67566990
_cell_angle_gamma   90.29193359
_symmetry_Int_Tables_number   1
_chemical_formula_structural   Mg40Zn69
_chemical_formula_sum   'Mg40 Zn69'
_cell_volume   3766.49971225
_cell_formula_units_Z   1
loop_
 _symmetry_equiv_pos_site_id
 _symmetry_equiv_pos_as_xyz
  1  'x, y, z'
loop_
 _atom_site_type_symbol
 _atom_site_label
 _atom_site_symmetry_multiplicity
 _atom_site_fract_x
 _atom_site_fract_y
 _atom_site_fract_z
 _atom_site_occupancy
  Mg  Mg0  1  0.50210400  0.03913200  0.31047600  1
  Mg  Mg1  1  0.99931700  0.05558500  0.48041900  1
  Mg  Mg2  1  0.00794200  0.55182900  0.34528200  1
  Mg  Mg3  1  0.00549400  0.01625100  0.27675900  1
  Mg  Mg4  1  0.00414500  0.39187600  0.25539800  1
  Mg  Mg5  1  0.50600800  0.86658600  0.35478900  1
  Mg  Mg6  1  0.00176800  0.35479100  0.31809300  1
  Mg  Mg7  1  0.50131000  0.73715100  0.46869600  1
  Mg  Mg8  1  0.50258200  0.23635800  0.33688600  1
  Mg  Mg9  1  0.50265900  0.36152600  0.49005700  1
  Mg  Mg10  1  0.49886200  0.20157400  0.40017200  1
  Mg  Mg11  1  0.00422200  0.51704500  0.40856800  1
  Mg  Mg12  1  0.00200100  0.85019200  0.49432500  1
  Mg  Mg13  1  0.50309900  0.67092900  0.32732800  1
  Mg  Mg14  1  0.00370500  0.08247300  0.41812600  1
  Mg  Mg15  1  0.50503700  0.39861200  0.42736100  1
  Mg  Mg16  1  0.00470100  0.71427000  0.43497900  1
  Mg  Mg17  1  0.00079700  0.88681700  0.39066500  1
  Mg  Mg18  1  0.50748800  0.69781800  0.26503600  1
  Mg  Mg19  1  0.50480300  0.90321100  0.25113000  1
  Mg  Mg20  1  0.00210400  0.78913200  0.56047600  1
  Mg  Mg21  1  0.49931700  0.80558500  0.73041900  1
  Mg  Mg22  1  0.50794200  0.30182900  0.59528200  1
  Mg  Mg23  1  0.50549400  0.76625100  0.52675900  1
  Mg  Mg24  1  0.50414500  0.14187600  0.50539800  1
  Mg  Mg25  1  0.00600800  0.61658600  0.60478900  1
  Mg  Mg26  1  0.50176800  0.10479100  0.56809300  1
  Mg  Mg27  1  0.00131000  0.48715100  0.71869600  1
  Mg  Mg28  1  0.00258200  0.98635800  0.58688600  1
  Mg  Mg29  1  0.00265900  0.11152600  0.74005700  1
  Mg  Mg30  1  0.99886200  0.95157400  0.65017200  1
  Mg  Mg31  1  0.50422200  0.26704500  0.65856800  1
  Mg  Mg32  1  0.50200100  0.60019200  0.74432500  1
  Mg  Mg33  1  0.00309900  0.42092900  0.57732800  1
  Mg  Mg34  1  0.50370500  0.83247300  0.66812600  1
  Mg  Mg35  1  0.00503700  0.14861200  0.67736100  1
  Mg  Mg36  1  0.50470100  0.46427000  0.68497900  1
  Mg  Mg37  1  0.50079700  0.63681700  0.64066500  1
  Mg  Mg38  1  0.00748800  0.44781800  0.51503600  1
  Mg  Mg39  1  0.00480300  0.65321100  0.50113000  1
  Zn  Zn40  1  0.49930100  0.37171300  0.28542600  1
  Zn  Zn41  1  0.50267300  0.94325300  0.48878800  1
  Zn  Zn42  1  0.00691500  0.21724600  0.36933000  1
  Zn  Zn43  1  0.25279500  0.53957300  0.46154400  1
  Zn  Zn44  1  0.74855900  0.21957800  0.45308600  1
  Zn  Zn45  1  0.75045000  0.21607300  0.28288700  1
  Zn  Zn46  1  0.75340200  0.37670100  0.37272700  1
  Zn  Zn47  1  0.00750400  0.38169000  0.46002900  1
  Zn  Zn48  1  0.50420800  0.98253700  0.40398500  1
  Zn  Zn49  1  0.25183500  0.53384300  0.29246300  1
  Zn  Zn50  1  0.74999400  0.05994300  0.36500900  1
  Zn  Zn51  1  0.00252700  0.95320800  0.33302400  1
  Zn  Zn52  1  0.50381800  0.45103800  0.33199200  1
  Zn  Zn53  1  0.00891100  0.68628300  0.29552300  1
  Zn  Zn54  1  0.00413200  0.81014900  0.25666700  1
  Zn  Zn55  1  0.00259600  0.77086500  0.34146900  1
  Zn  Zn56  1  0.26255500  0.84911800  0.30065300  1
  Zn  Zn57  1  0.25496900  0.21955900  0.45299200  1
  Zn  Zn58  1  0.75635500  0.53733000  0.46256700  1
  Zn  Zn59  1  0.00298600  0.30236500  0.41346300  1
  Zn  Zn60  1  0.24424900  0.90428400  0.44480100  1
  Zn  Zn61  1  0.75824500  0.53382400  0.29236900  1
  Zn  Zn62  1  0.25340200  0.37670100  0.37272700  1
  Zn  Zn63  1  0.99785200  0.14144500  0.32344600  1
  Zn  Zn64  1  0.25405600  0.05904100  0.36538500  1
  Zn  Zn65  1  0.74915500  0.85159700  0.29999300  1
  Zn  Zn66  1  0.50895300  0.61195800  0.42200900  1
  Zn  Zn67  1  0.75764900  0.90180500  0.44546200  1
  Zn  Zn68  1  0.49789300  0.06711900  0.44993200  1
  Zn  Zn69  1  0.25274800  0.69436100  0.38006900  1
  Zn  Zn70  1  0.25401000  0.21382900  0.28391000  1
  Zn  Zn71  1  0.00340200  0.25170100  0.49772700  1
  Zn  Zn72  1  0.75681100  0.69345900  0.38044600  1
  Zn  Zn73  1  0.50427700  0.80019400  0.41243000  1
  Zn  Zn74  1  0.49989000  0.53615600  0.37612400  1
  Zn  Zn75  1  0.99930100  0.12171300  0.53542600  1
  Zn  Zn76  1  0.00267300  0.69325300  0.73878800  1
  Zn  Zn77  1  0.50691500  0.96724600  0.61933000  1
  Zn  Zn78  1  0.75279500  0.28957300  0.71154400  1
  Zn  Zn79  1  0.24855900  0.96957800  0.70308600  1
  Zn  Zn80  1  0.25045000  0.96607300  0.53288700  1
  Zn  Zn81  1  0.25340200  0.12670100  0.62272700  1
  Zn  Zn82  1  0.50750400  0.13169000  0.71002900  1
  Zn  Zn83  1  0.00420800  0.73253700  0.65398500  1
  Zn  Zn84  1  0.75183500  0.28384300  0.54246300  1
  Zn  Zn85  1  0.24999400  0.80994300  0.61500900  1
  Zn  Zn86  1  0.50252700  0.70320800  0.58302400  1
  Zn  Zn87  1  0.00381800  0.20103800  0.58199200  1
  Zn  Zn88  1  0.50891100  0.43628300  0.54552300  1
  Zn  Zn89  1  0.50413200  0.56014900  0.50666700  1
  Zn  Zn90  1  0.50259600  0.52086500  0.59146900  1
  Zn  Zn91  1  0.76255500  0.59911800  0.55065300  1
  Zn  Zn92  1  0.75496900  0.96955900  0.70299200  1
  Zn  Zn93  1  0.25635500  0.28733000  0.71256700  1
  Zn  Zn94  1  0.50298600  0.05236500  0.66346300  1
  Zn  Zn95  1  0.74424900  0.65428400  0.69480100  1
  Zn  Zn96  1  0.25824500  0.28382400  0.54236900  1
  Zn  Zn97  1  0.75340200  0.12670100  0.62272700  1
  Zn  Zn98  1  0.49785200  0.89144500  0.57344600  1
  Zn  Zn99  1  0.75405600  0.80904100  0.61538500  1
  Zn  Zn100  1  0.24915500  0.60159700  0.54999300  1
  Zn  Zn101  1  0.00895300  0.36195800  0.67200900  1
  Zn  Zn102  1  0.25764900  0.65180500  0.69546200  1
  Zn  Zn103  1  0.99789300  0.81711900  0.69993200  1
  Zn  Zn104  1  0.75274800  0.44436100  0.63006900  1
  Zn  Zn105  1  0.75401000  0.96382900  0.53391000  1
  Zn  Zn106  1  0.25681100  0.44345900  0.63044600  1
  Zn  Zn107  1  0.00427700  0.55019400  0.66243000  1
  Zn  Zn108  1  0.99989000  0.28615600  0.62612400  1
