# generated using pymatgen
data_Mg130Zn227
_symmetry_space_group_name_H-M   'P 1'
_cell_length_a   15.05205963
_cell_length_b   15.58232832
_cell_length_c   44.40935000
_cell_angle_alpha   95.28205411
_cell_angle_beta   87.96000798
_cell_angle_gamma   92.33702888
_symmetry_Int_Tables_number   1
_chemical_formula_structural   Mg130Zn227
_chemical_formula_sum   'Mg130 Zn227'
_cell_volume   10357.87463183
_cell_formula_units_Z   1
loop_
 _symmetry_equiv_pos_site_id
 _symmetry_equiv_pos_as_xyz
  1  'x, y, z'
loop_
 _atom_site_type_symbol
 _atom_site_label
 _atom_site_symmetry_multiplicity
 _atom_site_fract_x
 _atom_site_fract_y
 _atom_site_fract_z
 _atom_site_occupancy
  Mg  Mg0  1  0.60739400  0.82901400  0.25182600  1
  Mg  Mg1  1  0.05548900  0.70655200  0.18789200  1
  Mg  Mg2  1  0.51583700  0.30534600  0.22799100  1
  Mg  Mg3  1  0.78671400  0.90783900  0.22959900  1
  Mg  Mg4  1  0.91302300  0.57400700  0.20916800  1
  Mg  Mg5  1  0.45587600  0.97011600  0.23895700  1
  Mg  Mg6  1  0.55304100  0.49379700  0.26376700  1
  Mg  Mg7  1  0.93901700  0.95502700  0.26957400  1
  Mg  Mg8  1  0.57131100  0.64015800  0.21704600  1
  Mg  Mg9  1  0.99452700  0.37976800  0.19909700  1
  Mg  Mg10  1  0.20989500  0.55752000  0.27118300  1
  Mg  Mg11  1  0.33623800  0.31361700  0.19121900  1
  Mg  Mg12  1  0.98070600  0.88846000  0.19747100  1
  Mg  Mg13  1  0.67648600  0.24861600  0.18357500  1
  Mg  Mg14  1  0.23106300  0.70515900  0.22469000  1
  Mg  Mg15  1  0.17269100  0.36906900  0.23540700  1
  Mg  Mg16  1  0.11833800  0.03385100  0.24734800  1
  Mg  Mg17  1  0.26985500  0.89275000  0.26021600  1
  Mg  Mg18  1  0.85206100  0.24722300  0.22037200  1
  Mg  Mg19  1  0.92684300  0.06531400  0.21079300  1
  Mg  Mg20  1  0.42557500  0.73810500  0.34273500  1
  Mg  Mg21  1  0.87367000  0.61564300  0.27880200  1
  Mg  Mg22  1  0.33401800  0.21443700  0.31890000  1
  Mg  Mg23  1  0.60489600  0.81693000  0.32050800  1
  Mg  Mg24  1  0.73120500  0.48309800  0.30007700  1
  Mg  Mg25  1  0.27405800  0.87920700  0.32986600  1
  Mg  Mg26  1  0.37122200  0.40288800  0.35467600  1
  Mg  Mg27  1  0.75719900  0.86411800  0.36048400  1
  Mg  Mg28  1  0.38949300  0.54924900  0.30795500  1
  Mg  Mg29  1  0.81270800  0.28885900  0.29000600  1
  Mg  Mg30  1  0.02807700  0.46661100  0.36209200  1
  Mg  Mg31  1  0.15442000  0.22270700  0.28212800  1
  Mg  Mg32  1  0.79888800  0.79755100  0.28838000  1
  Mg  Mg33  1  0.49466800  0.15770700  0.27448400  1
  Mg  Mg34  1  0.04924500  0.61425000  0.31559900  1
  Mg  Mg35  1  0.99087200  0.27815900  0.32631600  1
  Mg  Mg36  1  0.93652000  0.94294200  0.33825700  1
  Mg  Mg37  1  0.08803700  0.80184100  0.35112500  1
  Mg  Mg38  1  0.67024300  0.15631300  0.31128100  1
  Mg  Mg39  1  0.74502500  0.97440500  0.30170300  1
  Mg  Mg40  1  0.24375700  0.64719600  0.43364400  1
  Mg  Mg41  1  0.69185200  0.52473400  0.36971100  1
  Mg  Mg42  1  0.15220000  0.12352800  0.40980900  1
  Mg  Mg43  1  0.42307800  0.72602000  0.41141700  1
  Mg  Mg44  1  0.54938600  0.39218900  0.39098600  1
  Mg  Mg45  1  0.09224000  0.78829800  0.42077500  1
  Mg  Mg46  1  0.18940400  0.31197900  0.44558500  1
  Mg  Mg47  1  0.57538100  0.77320900  0.45139300  1
  Mg  Mg48  1  0.20767500  0.45834000  0.39886400  1
  Mg  Mg49  1  0.63089000  0.19795000  0.38091500  1
  Mg  Mg50  1  0.84625800  0.37570200  0.45300100  1
  Mg  Mg51  1  0.97260200  0.13179800  0.37303700  1
  Mg  Mg52  1  0.61707000  0.70664200  0.37928900  1
  Mg  Mg53  1  0.31285000  0.06679700  0.36539300  1
  Mg  Mg54  1  0.86742700  0.52334100  0.40650800  1
  Mg  Mg55  1  0.80905400  0.18725000  0.41722500  1
  Mg  Mg56  1  0.75470100  0.85203300  0.42916600  1
  Mg  Mg57  1  0.90621900  0.71093200  0.44203500  1
  Mg  Mg58  1  0.48842400  0.06540400  0.40219000  1
  Mg  Mg59  1  0.56320700  0.88349600  0.39261200  1
  Mg  Mg60  1  0.06193900  0.55628700  0.52455300  1
  Mg  Mg61  1  0.51003400  0.43382500  0.46062000  1
  Mg  Mg62  1  0.97038200  0.03261900  0.50071800  1
  Mg  Mg63  1  0.24125900  0.63511100  0.50232600  1
  Mg  Mg64  1  0.36756800  0.30128000  0.48189500  1
  Mg  Mg65  1  0.91042200  0.69738800  0.51168500  1
  Mg  Mg66  1  0.00758600  0.22107000  0.53649400  1
  Mg  Mg67  1  0.39356300  0.68230000  0.54230200  1
  Mg  Mg68  1  0.02585600  0.36743100  0.48977300  1
  Mg  Mg69  1  0.44907200  0.10704100  0.47182400  1
  Mg  Mg70  1  0.66444000  0.28479200  0.54391000  1
  Mg  Mg71  1  0.79078400  0.04088900  0.46394600  1
  Mg  Mg72  1  0.43525200  0.61573300  0.47019800  1
  Mg  Mg73  1  0.13103200  0.97588800  0.45630200  1
  Mg  Mg74  1  0.68560900  0.43243200  0.49741700  1
  Mg  Mg75  1  0.62723600  0.09634100  0.50813400  1
  Mg  Mg76  1  0.57288300  0.76112400  0.52007500  1
  Mg  Mg77  1  0.72440100  0.62002300  0.53294400  1
  Mg  Mg78  1  0.30660600  0.97449500  0.49309900  1
  Mg  Mg79  1  0.38138900  0.79258700  0.48352100  1
  Mg  Mg80  1  0.88012100  0.46537800  0.61546200  1
  Mg  Mg81  1  0.32821600  0.34291600  0.55152900  1
  Mg  Mg82  1  0.78856400  0.94171000  0.59162700  1
  Mg  Mg83  1  0.05944100  0.54420200  0.59323500  1
  Mg  Mg84  1  0.18575000  0.21037000  0.57280400  1
  Mg  Mg85  1  0.72860300  0.60647900  0.60259400  1
  Mg  Mg86  1  0.82576800  0.13016100  0.62740300  1
  Mg  Mg87  1  0.21174500  0.59139100  0.63321100  1
  Mg  Mg88  1  0.84403800  0.27652200  0.58068200  1
  Mg  Mg89  1  0.26725400  0.01613200  0.56273300  1
  Mg  Mg90  1  0.48262200  0.19388300  0.63481900  1
  Mg  Mg91  1  0.60896600  0.94998000  0.55485500  1
  Mg  Mg92  1  0.25343300  0.52482400  0.56110700  1
  Mg  Mg93  1  0.94921300  0.88497900  0.54721100  1
  Mg  Mg94  1  0.50379100  0.34152300  0.58832600  1
  Mg  Mg95  1  0.44541800  0.00543200  0.59904300  1
  Mg  Mg96  1  0.39106500  0.67021500  0.61098400  1
  Mg  Mg97  1  0.54258200  0.52911400  0.62385300  1
  Mg  Mg98  1  0.12478800  0.88358600  0.58400800  1
  Mg  Mg99  1  0.19957100  0.70167800  0.57443000  1
  Mg  Mg100  1  0.69830300  0.37446900  0.70637100  1
  Mg  Mg101  1  0.14639800  0.25200700  0.64243800  1
  Mg  Mg102  1  0.60674600  0.85080000  0.68253600  1
  Mg  Mg103  1  0.87762300  0.45329300  0.68414500  1
  Mg  Mg104  1  0.00393200  0.11946100  0.66371300  1
  Mg  Mg105  1  0.54678500  0.51557000  0.69350300  1
  Mg  Mg106  1  0.64395000  0.03925200  0.71831200  1
  Mg  Mg107  1  0.02992600  0.50048200  0.72412000  1
  Mg  Mg108  1  0.66222000  0.18561300  0.67159100  1
  Mg  Mg109  1  0.08543600  0.92522200  0.65364200  1
  Mg  Mg110  1  0.30080400  0.10297400  0.72572800  1
  Mg  Mg111  1  0.42714800  0.85907100  0.64576400  1
  Mg  Mg112  1  0.07161500  0.43391500  0.65201600  1
  Mg  Mg113  1  0.76739500  0.79407000  0.63812000  1
  Mg  Mg114  1  0.32197200  0.25061400  0.67923500  1
  Mg  Mg115  1  0.26360000  0.91452300  0.68995200  1
  Mg  Mg116  1  0.20924700  0.57930600  0.70189300  1
  Mg  Mg117  1  0.36076400  0.43820400  0.71476200  1
  Mg  Mg118  1  0.94297000  0.79267700  0.67491700  1
  Mg  Mg119  1  0.01775200  0.61076900  0.66533900  1
  Mg  Mg120  1  0.96458000  0.16109800  0.73334700  1
  Mg  Mg121  1  0.82211400  0.02855200  0.75462200  1
  Mg  Mg122  1  0.48040200  0.09470400  0.76250000  1
  Mg  Mg123  1  0.90361800  0.83431300  0.74455100  1
  Mg  Mg124  1  0.24532900  0.76816200  0.73667300  1
  Mg  Mg125  1  0.88979700  0.34300600  0.74292600  1
  Mg  Mg126  1  0.58557700  0.70316100  0.72902900  1
  Mg  Mg127  1  0.14015400  0.15970500  0.77014400  1
  Mg  Mg128  1  0.76115200  0.70176800  0.76582700  1
  Mg  Mg129  1  0.83593400  0.51986000  0.75624800  1
  Zn  Zn130  1  0.73567100  0.53552300  0.23778700  1
  Zn  Zn131  1  0.92194100  0.76047900  0.23792800  1
  Zn  Zn132  1  0.38923200  0.60067400  0.24319800  1
  Zn  Zn133  1  0.05923100  0.20556000  0.22377000  1
  Zn  Zn134  1  0.11425700  0.54461000  0.21317400  1
  Zn  Zn135  1  0.75996000  0.70076900  0.23072000  1
  Zn  Zn136  1  0.36286600  0.43143300  0.24958700  1
  Zn  Zn137  1  0.99006000  0.32734300  0.26138700  1
  Zn  Zn138  1  0.34246000  0.84665300  0.19727300  1
  Zn  Zn139  1  0.70096400  0.36307600  0.24106600  1
  Zn  Zn140  1  0.50752200  0.81280000  0.19269500  1
  Zn  Zn141  1  0.62126200  0.94442100  0.19979500  1
  Zn  Zn142  1  0.62391700  0.44688700  0.20053200  1
  Zn  Zn143  1  0.67616800  0.20129700  0.24734500  1
  Zn  Zn144  1  0.80379100  0.10238700  0.26124600  1
  Zn  Zn145  1  0.56508900  0.10712200  0.21099100  1
  Zn  Zn146  1  0.73789900  0.07445800  0.20621800  1
  Zn  Zn147  1  0.02476700  0.49979000  0.25810700  1
  Zn  Zn148  1  0.96577100  0.16209700  0.26845400  1
  Zn  Zn149  1  0.28363200  0.50688800  0.20773300  1
  Zn  Zn150  1  0.16965100  0.87931700  0.20204600  1
  Zn  Zn151  1  0.79329200  0.40916500  0.19509100  1
  Zn  Zn152  1  0.45377500  0.47688700  0.20413200  1
  Zn  Zn153  1  0.68075900  0.77635500  0.18920300  1
  Zn  Zn154  1  0.41616100  0.76839900  0.23762300  1
  Zn  Zn155  1  0.64680500  0.02577200  0.25308600  1
  Zn  Zn156  1  0.22679100  0.17742000  0.21906200  1
  Zn  Zn157  1  0.07892600  0.83709400  0.24608700  1
  Zn  Zn158  1  0.04956400  0.66156800  0.25182800  1
  Zn  Zn159  1  0.30957000  0.09446700  0.26155000  1
  Zn  Zn160  1  0.84831900  0.74821400  0.18449400  1
  Zn  Zn161  1  0.86286600  0.43143300  0.24958700  1
  Zn  Zn162  1  0.40002800  0.14097400  0.21556900  1
  Zn  Zn163  1  0.28628800  0.00935400  0.20847000  1
  Zn  Zn164  1  0.33649900  0.26219200  0.25597600  1
  Zn  Zn165  1  0.55385300  0.44461400  0.32869600  1
  Zn  Zn166  1  0.74012300  0.66957000  0.32883700  1
  Zn  Zn167  1  0.20741400  0.50976500  0.33410700  1
  Zn  Zn168  1  0.87741300  0.11465100  0.31467900  1
  Zn  Zn169  1  0.93243900  0.45370100  0.30408300  1
  Zn  Zn170  1  0.57814200  0.60986000  0.32162900  1
  Zn  Zn171  1  0.18104700  0.34052400  0.34049600  1
  Zn  Zn172  1  0.80824200  0.23643400  0.35229600  1
  Zn  Zn173  1  0.16064200  0.75574300  0.28818200  1
  Zn  Zn174  1  0.51914600  0.27216700  0.33197600  1
  Zn  Zn175  1  0.32570400  0.72189100  0.28360500  1
  Zn  Zn176  1  0.43944300  0.85351200  0.29070400  1
  Zn  Zn177  1  0.44209900  0.35597800  0.29144100  1
  Zn  Zn178  1  0.49434900  0.11038800  0.33825400  1
  Zn  Zn179  1  0.62197200  0.01147700  0.35215500  1
  Zn  Zn180  1  0.38327100  0.01621300  0.30190000  1
  Zn  Zn181  1  0.55608100  0.98354900  0.29712800  1
  Zn  Zn182  1  0.84294900  0.40888100  0.34901600  1
  Zn  Zn183  1  0.78395300  0.07118800  0.35936300  1
  Zn  Zn184  1  0.10181400  0.41597900  0.29864200  1
  Zn  Zn185  1  0.98783300  0.78840800  0.29295500  1
  Zn  Zn186  1  0.61147400  0.31825600  0.28600000  1
  Zn  Zn187  1  0.27195700  0.38597800  0.29504100  1
  Zn  Zn188  1  0.49894100  0.68544500  0.28011200  1
  Zn  Zn189  1  0.23434300  0.67748900  0.32853200  1
  Zn  Zn190  1  0.46498700  0.93486300  0.34399500  1
  Zn  Zn191  1  0.04497300  0.08651100  0.30997100  1
  Zn  Zn192  1  0.89710800  0.74618400  0.33699700  1
  Zn  Zn193  1  0.86774500  0.57065900  0.34273700  1
  Zn  Zn194  1  0.12775200  0.00355800  0.35245900  1
  Zn  Zn195  1  0.66650000  0.65730500  0.27540400  1
  Zn  Zn196  1  0.68104700  0.34052400  0.34049600  1
  Zn  Zn197  1  0.21820900  0.05006500  0.30647800  1
  Zn  Zn198  1  0.10447000  0.91844500  0.29937900  1
  Zn  Zn199  1  0.15468100  0.17128300  0.34688500  1
  Zn  Zn200  1  0.37203500  0.35370400  0.41960500  1
  Zn  Zn201  1  0.55830400  0.57866100  0.41974600  1
  Zn  Zn202  1  0.02559600  0.41885600  0.42501600  1
  Zn  Zn203  1  0.69559400  0.02374200  0.40558800  1
  Zn  Zn204  1  0.75062100  0.36279200  0.39499200  1
  Zn  Zn205  1  0.39632400  0.51895000  0.41253800  1
  Zn  Zn206  1  0.99922900  0.24961500  0.43140500  1
  Zn  Zn207  1  0.62642400  0.14552500  0.44320500  1
  Zn  Zn208  1  0.97882400  0.66483400  0.37909100  1
  Zn  Zn209  1  0.33732800  0.18125800  0.42288500  1
  Zn  Zn210  1  0.14388500  0.63098200  0.37451400  1
  Zn  Zn211  1  0.25762500  0.76260300  0.38161300  1
  Zn  Zn212  1  0.26028100  0.26506800  0.38235000  1
  Zn  Zn213  1  0.31253100  0.01947900  0.42916300  1
  Zn  Zn214  1  0.44015400  0.92056800  0.44306400  1
  Zn  Zn215  1  0.20145300  0.92530400  0.39280900  1
  Zn  Zn216  1  0.37426200  0.89264000  0.38803700  1
  Zn  Zn217  1  0.66113100  0.31797200  0.43992500  1
  Zn  Zn218  1  0.60213400  0.98027900  0.45027200  1
  Zn  Zn219  1  0.91999600  0.32507000  0.38955100  1
  Zn  Zn220  1  0.80601400  0.69749900  0.38386400  1
  Zn  Zn221  1  0.42965600  0.22734600  0.37690900  1
  Zn  Zn222  1  0.09013800  0.29506900  0.38595000  1
  Zn  Zn223  1  0.31712200  0.59453600  0.37102100  1
  Zn  Zn224  1  0.05252500  0.58658000  0.41944100  1
  Zn  Zn225  1  0.28316900  0.84395400  0.43490400  1
  Zn  Zn226  1  0.86315400  0.99560200  0.40088000  1
  Zn  Zn227  1  0.71529000  0.65527500  0.42790600  1
  Zn  Zn228  1  0.68592700  0.47975000  0.43364700  1
  Zn  Zn229  1  0.94593400  0.91264900  0.44336800  1
  Zn  Zn230  1  0.48468200  0.56639600  0.36631300  1
  Zn  Zn231  1  0.49922900  0.24961500  0.43140500  1
  Zn  Zn232  1  0.03639100  0.95915600  0.39738700  1
  Zn  Zn233  1  0.92265100  0.82753600  0.39028800  1
  Zn  Zn234  1  0.97286300  0.08037400  0.43779400  1
  Zn  Zn235  1  0.19021700  0.26279500  0.51051400  1
  Zn  Zn236  1  0.37648600  0.48775200  0.51065500  1
  Zn  Zn237  1  0.84377700  0.32794700  0.51592500  1
  Zn  Zn238  1  0.51377600  0.93283300  0.49649700  1
  Zn  Zn239  1  0.56880300  0.27188300  0.48590100  1
  Zn  Zn240  1  0.21450600  0.42804100  0.50344700  1
  Zn  Zn241  1  0.81741100  0.15870600  0.52231400  1
  Zn  Zn242  1  0.44460600  0.05461600  0.53411400  1
  Zn  Zn243  1  0.79700600  0.57392500  0.47000100  1
  Zn  Zn244  1  0.15550900  0.09034900  0.51379400  1
  Zn  Zn245  1  0.96206700  0.54007300  0.46542300  1
  Zn  Zn246  1  0.07580700  0.67169400  0.47252200  1
  Zn  Zn247  1  0.07846300  0.17415900  0.47325900  1
  Zn  Zn248  1  0.13071300  0.92857000  0.52007200  1
  Zn  Zn249  1  0.25833600  0.82965900  0.53397300  1
  Zn  Zn250  1  0.01963500  0.83439500  0.48371800  1
  Zn  Zn251  1  0.19244400  0.80173100  0.47894600  1
  Zn  Zn252  1  0.47931300  0.22706200  0.53083400  1
  Zn  Zn253  1  0.42031600  0.88937000  0.54118100  1
  Zn  Zn254  1  0.73817800  0.23416100  0.48046000  1
  Zn  Zn255  1  0.62419600  0.60658900  0.47477300  1
  Zn  Zn256  1  0.24783800  0.13643700  0.46781800  1
  Zn  Zn257  1  0.90832000  0.20416000  0.47686000  1
  Zn  Zn258  1  0.13530400  0.50362700  0.46193000  1
  Zn  Zn259  1  0.87070700  0.49567100  0.51035100  1
  Zn  Zn260  1  0.10135000  0.75304500  0.52581300  1
  Zn  Zn261  1  0.68133600  0.90469300  0.49178900  1
  Zn  Zn262  1  0.53347200  0.56436600  0.51881500  1
  Zn  Zn263  1  0.50410900  0.38884100  0.52455600  1
  Zn  Zn264  1  0.76411600  0.82174000  0.53427800  1
  Zn  Zn265  1  0.30286400  0.47548700  0.45722200  1
  Zn  Zn266  1  0.31741100  0.15870600  0.52231400  1
  Zn  Zn267  1  0.85457300  0.86824700  0.48829600  1
  Zn  Zn268  1  0.74083300  0.73662700  0.48119700  1
  Zn  Zn269  1  0.79104500  0.98946400  0.52870300  1
  Zn  Zn270  1  0.00839800  0.17188600  0.60142300  1
  Zn  Zn271  1  0.19466800  0.39684300  0.60156400  1
  Zn  Zn272  1  0.66195900  0.23703800  0.60683400  1
  Zn  Zn273  1  0.33195800  0.84192400  0.58740600  1
  Zn  Zn274  1  0.38698400  0.18097400  0.57681000  1
  Zn  Zn275  1  0.03268800  0.33713200  0.59435600  1
  Zn  Zn276  1  0.63559300  0.06779600  0.61322300  1
  Zn  Zn277  1  0.26278700  0.96370700  0.62502300  1
  Zn  Zn278  1  0.61518700  0.48301600  0.56091000  1
  Zn  Zn279  1  0.97369100  0.99944000  0.60470300  1
  Zn  Zn280  1  0.78024900  0.44916400  0.55633200  1
  Zn  Zn281  1  0.89398900  0.58078500  0.56343100  1
  Zn  Zn282  1  0.89664400  0.08325000  0.56416800  1
  Zn  Zn283  1  0.94889500  0.83766100  0.61098200  1
  Zn  Zn284  1  0.07651800  0.73875000  0.62488200  1
  Zn  Zn285  1  0.83781700  0.74348600  0.57462800  1
  Zn  Zn286  1  0.01062600  0.71082200  0.56985500  1
  Zn  Zn287  1  0.29749400  0.13615300  0.62174300  1
  Zn  Zn288  1  0.23849800  0.79846100  0.63209000  1
  Zn  Zn289  1  0.55636000  0.14325200  0.57136900  1
  Zn  Zn290  1  0.44237800  0.51568000  0.56568200  1
  Zn  Zn291  1  0.06601900  0.04552800  0.55872700  1
  Zn  Zn292  1  0.72650200  0.11325100  0.56776900  1
  Zn  Zn293  1  0.95348600  0.41271800  0.55283900  1
  Zn  Zn294  1  0.68888800  0.40476200  0.60126000  1
  Zn  Zn295  1  0.91953200  0.66213600  0.61672200  1
  Zn  Zn296  1  0.49951800  0.81378400  0.58269800  1
  Zn  Zn297  1  0.35165400  0.47345700  0.60972400  1
  Zn  Zn298  1  0.32229100  0.29793200  0.61546500  1
  Zn  Zn299  1  0.58229700  0.73083100  0.62518700  1
  Zn  Zn300  1  0.12104600  0.38457800  0.54813100  1
  Zn  Zn301  1  0.13559300  0.06779600  0.61322300  1
  Zn  Zn302  1  0.67275500  0.77733800  0.57920500  1
  Zn  Zn303  1  0.55901500  0.64571700  0.57210600  1
  Zn  Zn304  1  0.60922600  0.89855500  0.61961200  1
  Zn  Zn305  1  0.82658000  0.08097700  0.69233200  1
  Zn  Zn306  1  0.01285000  0.30593400  0.69247300  1
  Zn  Zn307  1  0.48014100  0.14612800  0.69774300  1
  Zn  Zn308  1  0.15014000  0.75101500  0.67831500  1
  Zn  Zn309  1  0.20516600  0.09006500  0.66771900  1
  Zn  Zn310  1  0.85087000  0.24622300  0.68526500  1
  Zn  Zn311  1  0.45377500  0.97688700  0.70413200  1
  Zn  Zn312  1  0.08096900  0.87279800  0.71593200  1
  Zn  Zn313  1  0.43336900  0.39210700  0.65181900  1
  Zn  Zn314  1  0.79187300  0.90853000  0.69561200  1
  Zn  Zn315  1  0.59843100  0.35825500  0.64724100  1
  Zn  Zn316  1  0.71217100  0.48987500  0.65434000  1
  Zn  Zn317  1  0.71482600  0.99234100  0.65507700  1
  Zn  Zn318  1  0.76707700  0.74675200  0.70189100  1
  Zn  Zn319  1  0.89470000  0.64784100  0.71579100  1
  Zn  Zn320  1  0.65599800  0.65257700  0.66553700  1
  Zn  Zn321  1  0.82880800  0.61991300  0.66076400  1
  Zn  Zn322  1  0.11567600  0.04524400  0.71265300  1
  Zn  Zn323  1  0.05668000  0.70755200  0.72299900  1
  Zn  Zn324  1  0.37454100  0.05234300  0.66227800  1
  Zn  Zn325  1  0.26056000  0.42477100  0.65659100  1
  Zn  Zn326  1  0.88420100  0.95461900  0.64963600  1
  Zn  Zn327  1  0.54468400  0.02234200  0.65867800  1
  Zn  Zn328  1  0.77166800  0.32180900  0.64374800  1
  Zn  Zn329  1  0.50707000  0.31385300  0.69216900  1
  Zn  Zn330  1  0.73771400  0.57122700  0.70763200  1
  Zn  Zn331  1  0.31770000  0.72287500  0.67360700  1
  Zn  Zn332  1  0.16983500  0.38254800  0.70063300  1
  Zn  Zn333  1  0.14047300  0.20702300  0.70637400  1
  Zn  Zn334  1  0.40047900  0.63992200  0.71609600  1
  Zn  Zn335  1  0.93922800  0.29366900  0.63904000  1
  Zn  Zn336  1  0.95377500  0.97688700  0.70413200  1
  Zn  Zn337  1  0.49093700  0.68642900  0.67011400  1
  Zn  Zn338  1  0.37719700  0.55480800  0.66301500  1
  Zn  Zn339  1  0.42740800  0.80764600  0.71052100  1
  Zn  Zn340  1  0.96832200  0.66010600  0.76922500  1
  Zn  Zn341  1  0.02334800  0.99915600  0.75862800  1
  Zn  Zn342  1  0.25155100  0.30119800  0.74272800  1
  Zn  Zn343  1  0.41661300  0.26734600  0.73815000  1
  Zn  Zn344  1  0.53035300  0.39896600  0.74524900  1
  Zn  Zn345  1  0.53300800  0.90143200  0.74598600  1
  Zn  Zn346  1  0.47418000  0.56166800  0.75644600  1
  Zn  Zn347  1  0.64699000  0.52900300  0.75167300  1
  Zn  Zn348  1  0.19272300  0.96143400  0.75318700  1
  Zn  Zn349  1  0.07874200  0.33386200  0.74750100  1
  Zn  Zn350  1  0.70238300  0.86371000  0.74054500  1
  Zn  Zn351  1  0.36286600  0.93143300  0.74958700  1
  Zn  Zn352  1  0.58985000  0.23090000  0.73465700  1
  Zn  Zn353  1  0.13588200  0.63196600  0.76451600  1
  Zn  Zn354  1  0.75741000  0.20276000  0.72994900  1
  Zn  Zn355  1  0.30911900  0.59552000  0.76102400  1
  Zn  Zn356  1  0.19537900  0.46389900  0.75392400  1
