# generated using pymatgen
data_Li4Mg
_symmetry_space_group_name_H-M   'P 1'
_cell_length_a   5.31167075
_cell_length_b   38.27865090
_cell_length_c   41.48547500
_cell_angle_alpha   92.03635659
_cell_angle_beta   86.32950214
_cell_angle_gamma   86.02152896
_symmetry_Int_Tables_number   1
_chemical_formula_structural   Li4Mg
_chemical_formula_sum   'Li204 Mg51'
_cell_volume   8390.61563564
_cell_formula_units_Z   51
loop_
 _symmetry_equiv_pos_site_id
 _symmetry_equiv_pos_as_xyz
  1  'x, y, z'
loop_
 _atom_site_type_symbol
 _atom_site_label
 _atom_site_symmetry_multiplicity
 _atom_site_fract_x
 _atom_site_fract_y
 _atom_site_fract_z
 _atom_site_occupancy
  Li  Li0  1  0.93648700  0.93201300  0.21353100  1
  Li  Li1  1  0.30391600  0.86625700  0.21109600  1
  Li  Li2  1  0.67139200  0.80041000  0.20865700  1
  Li  Li3  1  0.03882100  0.73465400  0.20622200  1
  Li  Li4  1  0.61549900  0.26534600  0.18884000  1
  Li  Li5  1  0.98292900  0.19959000  0.18640500  1
  Li  Li6  1  0.83188600  0.13374300  0.22100300  1
  Li  Li7  1  0.19931500  0.06798700  0.21856700  1
  Li  Li8  1  0.77599300  0.59868000  0.20118600  1
  Li  Li9  1  0.14342300  0.53292300  0.19875000  1
  Li  Li10  1  0.51089800  0.46707700  0.19631100  1
  Li  Li11  1  0.87832800  0.40132000  0.19387600  1
  Li  Li12  1  0.41796900  0.93201300  0.25056800  1
  Li  Li13  1  0.78539800  0.86625700  0.24813300  1
  Li  Li14  1  0.15287400  0.80041000  0.24569400  1
  Li  Li15  1  0.52030300  0.73465400  0.24325900  1
  Li  Li16  1  0.09698100  0.26534600  0.22587700  1
  Li  Li17  1  0.46441000  0.19959000  0.22344200  1
  Li  Li18  1  0.31336800  0.13374300  0.25804000  1
  Li  Li19  1  0.68079700  0.06798700  0.25560400  1
  Li  Li20  1  0.25747500  0.59868000  0.23822300  1
  Li  Li21  1  0.62490400  0.53292300  0.23578700  1
  Li  Li22  1  0.99238000  0.46707700  0.23334900  1
  Li  Li23  1  0.35980900  0.40132000  0.23091300  1
  Li  Li24  1  0.89945000  0.93201300  0.28760500  1
  Li  Li25  1  0.26687900  0.86625700  0.28517000  1
  Li  Li26  1  0.63435500  0.80041000  0.28273100  1
  Li  Li27  1  0.00178400  0.73465400  0.28029600  1
  Li  Li28  1  0.57846200  0.26534600  0.26291400  1
  Li  Li29  1  0.94589200  0.19959000  0.26047900  1
  Li  Li30  1  0.79484900  0.13374300  0.29507700  1
  Li  Li31  1  0.16227800  0.06798700  0.29264100  1
  Li  Li32  1  0.73895600  0.59868000  0.27526000  1
  Li  Li33  1  0.10638500  0.53292300  0.27282400  1
  Li  Li34  1  0.47386100  0.46707700  0.27038600  1
  Li  Li35  1  0.84129100  0.40132000  0.26795000  1
  Li  Li36  1  0.38093200  0.93201300  0.32464200  1
  Li  Li37  1  0.74836100  0.86625700  0.32220700  1
  Li  Li38  1  0.11583700  0.80041000  0.31976800  1
  Li  Li39  1  0.48326600  0.73465400  0.31733300  1
  Li  Li40  1  0.05994400  0.26534600  0.29995100  1
  Li  Li41  1  0.42737300  0.19959000  0.29751600  1
  Li  Li42  1  0.27633100  0.13374300  0.33211400  1
  Li  Li43  1  0.64376000  0.06798700  0.32967900  1
  Li  Li44  1  0.22043800  0.59868000  0.31229700  1
  Li  Li45  1  0.58786700  0.53292300  0.30986100  1
  Li  Li46  1  0.95534300  0.46707700  0.30742300  1
  Li  Li47  1  0.32277200  0.40132000  0.30498700  1
  Li  Li48  1  0.86241300  0.93201300  0.36167900  1
  Li  Li49  1  0.22984200  0.86625700  0.35924400  1
  Li  Li50  1  0.59731800  0.80041000  0.35680500  1
  Li  Li51  1  0.96474700  0.73465400  0.35437000  1
  Li  Li52  1  0.54142500  0.26534600  0.33698800  1
  Li  Li53  1  0.90885500  0.19959000  0.33455300  1
  Li  Li54  1  0.75781200  0.13374300  0.36915100  1
  Li  Li55  1  0.12524100  0.06798700  0.36671600  1
  Li  Li56  1  0.70191900  0.59868000  0.34933400  1
  Li  Li57  1  0.06934800  0.53292300  0.34689800  1
  Li  Li58  1  0.43682400  0.46707700  0.34446000  1
  Li  Li59  1  0.80425400  0.40132000  0.34202400  1
  Li  Li60  1  0.34389500  0.93201300  0.39871700  1
  Li  Li61  1  0.71132400  0.86625700  0.39628100  1
  Li  Li62  1  0.07880000  0.80041000  0.39384200  1
  Li  Li63  1  0.44622900  0.73465400  0.39140700  1
  Li  Li64  1  0.02290700  0.26534600  0.37402500  1
  Li  Li65  1  0.39033600  0.19959000  0.37159000  1
  Li  Li66  1  0.23929400  0.13374300  0.40618800  1
  Li  Li67  1  0.60672300  0.06798700  0.40375300  1
  Li  Li68  1  0.18340100  0.59868000  0.38637100  1
  Li  Li69  1  0.55083000  0.53292300  0.38393500  1
  Li  Li70  1  0.91830600  0.46707700  0.38149700  1
  Li  Li71  1  0.28573500  0.40132000  0.37906100  1
  Li  Li72  1  0.82537600  0.93201300  0.43575400  1
  Li  Li73  1  0.19280500  0.86625700  0.43331800  1
  Li  Li74  1  0.56028100  0.80041000  0.43087900  1
  Li  Li75  1  0.92771000  0.73465400  0.42844400  1
  Li  Li76  1  0.50438800  0.26534600  0.41106200  1
  Li  Li77  1  0.87181800  0.19959000  0.40862700  1
  Li  Li78  1  0.72077500  0.13374300  0.44322500  1
  Li  Li79  1  0.08820400  0.06798700  0.44079000  1
  Li  Li80  1  0.66488200  0.59868000  0.42340800  1
  Li  Li81  1  0.03231100  0.53292300  0.42097200  1
  Li  Li82  1  0.39978700  0.46707700  0.41853400  1
  Li  Li83  1  0.76721700  0.40132000  0.41609800  1
  Li  Li84  1  0.30685800  0.93201300  0.47279100  1
  Li  Li85  1  0.67428700  0.86625700  0.47035500  1
  Li  Li86  1  0.04176300  0.80041000  0.46791600  1
  Li  Li87  1  0.40919200  0.73465400  0.46548100  1
  Li  Li88  1  0.98587000  0.26534600  0.44809900  1
  Li  Li89  1  0.35329900  0.19959000  0.44566400  1
  Li  Li90  1  0.20225600  0.13374300  0.48026200  1
  Li  Li91  1  0.56968600  0.06798700  0.47782700  1
  Li  Li92  1  0.14636400  0.59868000  0.46044500  1
  Li  Li93  1  0.51379300  0.53292300  0.45801000  1
  Li  Li94  1  0.88126900  0.46707700  0.45557100  1
  Li  Li95  1  0.24869800  0.40132000  0.45313500  1
  Li  Li96  1  0.78833900  0.93201300  0.50982800  1
  Li  Li97  1  0.15576800  0.86625700  0.50739200  1
  Li  Li98  1  0.52324400  0.80041000  0.50495300  1
  Li  Li99  1  0.89067300  0.73465400  0.50251800  1
  Li  Li100  1  0.46735100  0.26534600  0.48513600  1
  Li  Li101  1  0.83478100  0.19959000  0.48270100  1
  Li  Li102  1  0.68373800  0.13374300  0.51729900  1
  Li  Li103  1  0.05116700  0.06798700  0.51486400  1
  Li  Li104  1  0.62784500  0.59868000  0.49748200  1
  Li  Li105  1  0.99527400  0.53292300  0.49504700  1
  Li  Li106  1  0.36275000  0.46707700  0.49260800  1
  Li  Li107  1  0.73018000  0.40132000  0.49017200  1
  Li  Li108  1  0.26982000  0.93201300  0.54686500  1
  Li  Li109  1  0.63725000  0.86625700  0.54442900  1
  Li  Li110  1  0.00472600  0.80041000  0.54199000  1
  Li  Li111  1  0.37215500  0.73465400  0.53955500  1
  Li  Li112  1  0.94883300  0.26534600  0.52217300  1
  Li  Li113  1  0.31626200  0.19959000  0.51973800  1
  Li  Li114  1  0.16521900  0.13374300  0.55433600  1
  Li  Li115  1  0.53264900  0.06798700  0.55190100  1
  Li  Li116  1  0.10932700  0.59868000  0.53451900  1
  Li  Li117  1  0.47675600  0.53292300  0.53208400  1
  Li  Li118  1  0.84423200  0.46707700  0.52964500  1
  Li  Li119  1  0.21166100  0.40132000  0.52720900  1
  Li  Li120  1  0.75130200  0.93201300  0.58390200  1
  Li  Li121  1  0.11873100  0.86625700  0.58146600  1
  Li  Li122  1  0.48620700  0.80041000  0.57902800  1
  Li  Li123  1  0.85363600  0.73465400  0.57659200  1
  Li  Li124  1  0.43031400  0.26534600  0.55921000  1
  Li  Li125  1  0.79774400  0.19959000  0.55677500  1
  Li  Li126  1  0.64670100  0.13374300  0.59137300  1
  Li  Li127  1  0.01413000  0.06798700  0.58893800  1
  Li  Li128  1  0.59080800  0.59868000  0.57155600  1
  Li  Li129  1  0.95823700  0.53292300  0.56912100  1
  Li  Li130  1  0.32571300  0.46707700  0.56668200  1
  Li  Li131  1  0.69314200  0.40132000  0.56424600  1
  Li  Li132  1  0.23278300  0.93201300  0.62093900  1
  Li  Li133  1  0.60021300  0.86625700  0.61850300  1
  Li  Li134  1  0.96768900  0.80041000  0.61606500  1
  Li  Li135  1  0.33511800  0.73465400  0.61362900  1
  Li  Li136  1  0.91179600  0.26534600  0.59624700  1
  Li  Li137  1  0.27922500  0.19959000  0.59381200  1
  Li  Li138  1  0.12818200  0.13374300  0.62841000  1
  Li  Li139  1  0.49561200  0.06798700  0.62597500  1
  Li  Li140  1  0.07229000  0.59868000  0.60859300  1
  Li  Li141  1  0.43971900  0.53292300  0.60615800  1
  Li  Li142  1  0.80719500  0.46707700  0.60371900  1
  Li  Li143  1  0.17462400  0.40132000  0.60128300  1
  Li  Li144  1  0.71426500  0.93201300  0.65797600  1
  Li  Li145  1  0.08169400  0.86625700  0.65554000  1
  Li  Li146  1  0.44917000  0.80041000  0.65310200  1
  Li  Li147  1  0.81659900  0.73465400  0.65066600  1
  Li  Li148  1  0.39327700  0.26534600  0.63328400  1
  Li  Li149  1  0.76070600  0.19959000  0.63084900  1
  Li  Li150  1  0.60966400  0.13374300  0.66544700  1
  Li  Li151  1  0.97709300  0.06798700  0.66301200  1
  Li  Li152  1  0.55377100  0.59868000  0.64563000  1
  Li  Li153  1  0.92120000  0.53292300  0.64319500  1
  Li  Li154  1  0.28867600  0.46707700  0.64075600  1
  Li  Li155  1  0.65610500  0.40132000  0.63832100  1
  Li  Li156  1  0.19574600  0.93201300  0.69501300  1
  Li  Li157  1  0.56317600  0.86625700  0.69257700  1
  Li  Li158  1  0.93065200  0.80041000  0.69013900  1
  Li  Li159  1  0.29808100  0.73465400  0.68770300  1
  Li  Li160  1  0.87475900  0.26534600  0.67032100  1
  Li  Li161  1  0.24218800  0.19959000  0.66788600  1
  Li  Li162  1  0.09114500  0.13374300  0.70248400  1
  Li  Li163  1  0.45857500  0.06798700  0.70004900  1
  Li  Li164  1  0.03525300  0.59868000  0.68266700  1
  Li  Li165  1  0.40268200  0.53292300  0.68023200  1
  Li  Li166  1  0.77015800  0.46707700  0.67779300  1
  Li  Li167  1  0.13758700  0.40132000  0.67535800  1
  Li  Li168  1  0.67722800  0.93201300  0.73205000  1
  Li  Li169  1  0.04465700  0.86625700  0.72961400  1
  Li  Li170  1  0.41213300  0.80041000  0.72717600  1
  Li  Li171  1  0.77956200  0.73465400  0.72474000  1
  Li  Li172  1  0.35624000  0.26534600  0.70735900  1
  Li  Li173  1  0.72366900  0.19959000  0.70492300  1
  Li  Li174  1  0.57262700  0.13374300  0.73952100  1
  Li  Li175  1  0.94005600  0.06798700  0.73708600  1
  Li  Li176  1  0.51673400  0.59868000  0.71970400  1
  Li  Li177  1  0.88416300  0.53292300  0.71726900  1
  Li  Li178  1  0.25163900  0.46707700  0.71483000  1
  Li  Li179  1  0.61906800  0.40132000  0.71239500  1
  Li  Li180  1  0.15870900  0.93201300  0.76908700  1
  Li  Li181  1  0.52613900  0.86625700  0.76665100  1
  Li  Li182  1  0.89361500  0.80041000  0.76421300  1
  Li  Li183  1  0.26104400  0.73465400  0.76177700  1
  Li  Li184  1  0.83772200  0.26534600  0.74439600  1
  Li  Li185  1  0.20515100  0.19959000  0.74196000  1
  Li  Li186  1  0.05410800  0.13374300  0.77655800  1
  Li  Li187  1  0.42153800  0.06798700  0.77412300  1
  Li  Li188  1  0.99821600  0.59868000  0.75674100  1
  Li  Li189  1  0.36564500  0.53292300  0.75430600  1
  Li  Li190  1  0.73312100  0.46707700  0.75186700  1
  Li  Li191  1  0.10055000  0.40132000  0.74943200  1
  Li  Li192  1  0.64019100  0.93201300  0.80612400  1
  Li  Li193  1  0.00762000  0.86625700  0.80368900  1
  Li  Li194  1  0.37509600  0.80041000  0.80125000  1
  Li  Li195  1  0.74252500  0.73465400  0.79881400  1
  Li  Li196  1  0.31920300  0.26534600  0.78143300  1
  Li  Li197  1  0.68663200  0.19959000  0.77899700  1
  Li  Li198  1  0.53559000  0.13374300  0.81359500  1
  Li  Li199  1  0.90301900  0.06798700  0.81116000  1
  Li  Li200  1  0.47969700  0.59868000  0.79377800  1
  Li  Li201  1  0.84712600  0.53292300  0.79134300  1
  Li  Li202  1  0.21460200  0.46707700  0.78890400  1
  Li  Li203  1  0.58203100  0.40132000  0.78646900  1
  Mg  Mg204  1  0.56790100  0.00000000  0.21604900  1
  Mg  Mg205  1  0.24691400  0.33333300  0.19135800  1
  Mg  Mg206  1  0.40740700  0.66666700  0.20370400  1
  Mg  Mg207  1  0.04938300  0.00000000  0.25308600  1
  Mg  Mg208  1  0.72839500  0.33333300  0.22839500  1
  Mg  Mg209  1  0.88888900  0.66666700  0.24074100  1
  Mg  Mg210  1  0.53086400  0.00000000  0.29012300  1
  Mg  Mg211  1  0.20987700  0.33333300  0.26543200  1
  Mg  Mg212  1  0.37037000  0.66666700  0.27777800  1
  Mg  Mg213  1  0.01234600  0.00000000  0.32716000  1
  Mg  Mg214  1  0.69135800  0.33333300  0.30246900  1
  Mg  Mg215  1  0.85185200  0.66666700  0.31481500  1
  Mg  Mg216  1  0.49382700  0.00000000  0.36419800  1
  Mg  Mg217  1  0.17284000  0.33333300  0.33950600  1
  Mg  Mg218  1  0.33333300  0.66666700  0.35185200  1
  Mg  Mg219  1  0.97530900  0.00000000  0.40123500  1
  Mg  Mg220  1  0.65432100  0.33333300  0.37654300  1
  Mg  Mg221  1  0.81481500  0.66666700  0.38888900  1
  Mg  Mg222  1  0.45679000  0.00000000  0.43827200  1
  Mg  Mg223  1  0.13580200  0.33333300  0.41358000  1
  Mg  Mg224  1  0.29629600  0.66666700  0.42592600  1
  Mg  Mg225  1  0.93827200  0.00000000  0.47530900  1
  Mg  Mg226  1  0.61728400  0.33333300  0.45061700  1
  Mg  Mg227  1  0.77777800  0.66666700  0.46296300  1
  Mg  Mg228  1  0.41975300  0.00000000  0.51234600  1
  Mg  Mg229  1  0.09876500  0.33333300  0.48765400  1
  Mg  Mg230  1  0.25925900  0.66666700  0.50000000  1
  Mg  Mg231  1  0.90123500  0.00000000  0.54938300  1
  Mg  Mg232  1  0.58024700  0.33333300  0.52469100  1
  Mg  Mg233  1  0.74074100  0.66666700  0.53703700  1
  Mg  Mg234  1  0.38271600  0.00000000  0.58642000  1
  Mg  Mg235  1  0.06172800  0.33333300  0.56172800  1
  Mg  Mg236  1  0.22222200  0.66666700  0.57407400  1
  Mg  Mg237  1  0.86419800  0.00000000  0.62345700  1
  Mg  Mg238  1  0.54321000  0.33333300  0.59876500  1
  Mg  Mg239  1  0.70370400  0.66666700  0.61111100  1
  Mg  Mg240  1  0.34567900  0.00000000  0.66049400  1
  Mg  Mg241  1  0.02469100  0.33333300  0.63580200  1
  Mg  Mg242  1  0.18518500  0.66666700  0.64814800  1
  Mg  Mg243  1  0.82716000  0.00000000  0.69753100  1
  Mg  Mg244  1  0.50617300  0.33333300  0.67284000  1
  Mg  Mg245  1  0.66666700  0.66666700  0.68518500  1
  Mg  Mg246  1  0.30864200  0.00000000  0.73456800  1
  Mg  Mg247  1  0.98765400  0.33333300  0.70987700  1
  Mg  Mg248  1  0.14814800  0.66666700  0.72222200  1
  Mg  Mg249  1  0.79012300  0.00000000  0.77160500  1
  Mg  Mg250  1  0.46913600  0.33333300  0.74691400  1
  Mg  Mg251  1  0.62963000  0.66666700  0.75925900  1
  Mg  Mg252  1  0.27160500  0.00000000  0.80864200  1
  Mg  Mg253  1  0.95061700  0.33333300  0.78395100  1
  Mg  Mg254  1  0.11111100  0.66666700  0.79629600  1
