# generated using pymatgen
data_Mg13P50
_symmetry_space_group_name_H-M   'P 1'
_cell_length_a   7.59593140
_cell_length_b   7.29415453
_cell_length_c   43.61493600
_cell_angle_alpha   89.71196281
_cell_angle_beta   86.14110133
_cell_angle_gamma   83.88680126
_symmetry_Int_Tables_number   1
_chemical_formula_structural   Mg13P50
_chemical_formula_sum   'Mg13 P50'
_cell_volume   2397.32981822
_cell_formula_units_Z   1
loop_
 _symmetry_equiv_pos_site_id
 _symmetry_equiv_pos_as_xyz
  1  'x, y, z'
loop_
 _atom_site_type_symbol
 _atom_site_label
 _atom_site_symmetry_multiplicity
 _atom_site_fract_x
 _atom_site_fract_y
 _atom_site_fract_z
 _atom_site_occupancy
  Mg  Mg0  1  0.92846600  0.42920300  0.27916700  1
  Mg  Mg1  1  0.84513300  0.92920300  0.36250000  1
  Mg  Mg2  1  0.38679900  0.67920300  0.32083300  1
  Mg  Mg3  1  0.76179900  0.42920300  0.44583300  1
  Mg  Mg4  1  0.30346600  0.17920300  0.40416700  1
  Mg  Mg5  1  0.67846600  0.92920300  0.52916700  1
  Mg  Mg6  1  0.22013300  0.67920300  0.48750000  1
  Mg  Mg7  1  0.59513300  0.42920300  0.61250000  1
  Mg  Mg8  1  0.13679900  0.17920300  0.57083300  1
  Mg  Mg9  1  0.51179900  0.92920300  0.69583300  1
  Mg  Mg10  1  0.05346600  0.67920300  0.65416700  1
  Mg  Mg11  1  0.42846600  0.42920300  0.77916700  1
  Mg  Mg12  1  0.97013300  0.17920300  0.73750000  1
  P  P13  1  0.02756500  0.03496200  0.27960800  1
  P  P14  1  0.82936800  0.82344400  0.27872500  1
  P  P15  1  0.63688600  0.90956400  0.31706800  1
  P  P16  1  0.64375100  0.40661000  0.31756000  1
  P  P17  1  0.13671300  0.44884200  0.32459900  1
  P  P18  1  0.12984800  0.95179600  0.32410600  1
  P  P19  1  0.26963300  0.18185000  0.33846000  1
  P  P20  1  0.94423100  0.53496200  0.36294100  1
  P  P21  1  0.50396600  0.17655600  0.30320700  1
  P  P22  1  0.74603400  0.32344400  0.36205900  1
  P  P23  1  0.55355300  0.40956400  0.40040100  1
  P  P24  1  0.56041800  0.90661000  0.40089400  1
  P  P25  1  0.05337900  0.94884200  0.40793200  1
  P  P26  1  0.04651400  0.45179600  0.40744000  1
  P  P27  1  0.18630000  0.68185000  0.42179300  1
  P  P28  1  0.86089800  0.03496200  0.44627500  1
  P  P29  1  0.42063200  0.67655600  0.38654000  1
  P  P30  1  0.66270100  0.82344400  0.44539200  1
  P  P31  1  0.47022000  0.90956400  0.48373500  1
  P  P32  1  0.47708500  0.40661000  0.48422700  1
  P  P33  1  0.97004600  0.44884200  0.49126500  1
  P  P34  1  0.96318100  0.95179600  0.49077300  1
  P  P35  1  0.10296700  0.18185000  0.50512600  1
  P  P36  1  0.77756500  0.53496200  0.52960800  1
  P  P37  1  0.33729900  0.17655600  0.46987400  1
  P  P38  1  0.57936800  0.32344400  0.52872500  1
  P  P39  1  0.38688600  0.40956400  0.56706800  1
  P  P40  1  0.39375100  0.90661000  0.56756000  1
  P  P41  1  0.88671300  0.94884200  0.57459900  1
  P  P42  1  0.87984800  0.45179600  0.57410600  1
  P  P43  1  0.01963300  0.68185000  0.58846000  1
  P  P44  1  0.69423100  0.03496200  0.61294100  1
  P  P45  1  0.25396600  0.67655600  0.55320700  1
  P  P46  1  0.49603400  0.82344400  0.61205900  1
  P  P47  1  0.30355300  0.90956400  0.65040100  1
  P  P48  1  0.31041800  0.40661000  0.65089400  1
  P  P49  1  0.80337900  0.44884200  0.65793200  1
  P  P50  1  0.79651400  0.95179600  0.65744000  1
  P  P51  1  0.93630000  0.18185000  0.67179300  1
  P  P52  1  0.61089800  0.53496200  0.69627500  1
  P  P53  1  0.17063200  0.17655600  0.63654000  1
  P  P54  1  0.41270100  0.32344400  0.69539200  1
  P  P55  1  0.22022000  0.40956400  0.73373500  1
  P  P56  1  0.22708500  0.90661000  0.73422700  1
  P  P57  1  0.72004600  0.94884200  0.74126500  1
  P  P58  1  0.71318100  0.45179600  0.74077300  1
  P  P59  1  0.85296700  0.68185000  0.75512600  1
  P  P60  1  0.52756500  0.03496200  0.77960800  1
  P  P61  1  0.08729900  0.67655600  0.71987400  1
  P  P62  1  0.32936800  0.82344400  0.77872500  1
