# generated using pymatgen
data_MgGa
_symmetry_space_group_name_H-M   'P 1'
_cell_length_a   5.53544100
_cell_length_b   10.67256900
_cell_length_c   53.36284700
_cell_angle_alpha   90.00000000
_cell_angle_beta   90.00000000
_cell_angle_gamma   90.00000000
_symmetry_Int_Tables_number   1
_chemical_formula_structural   MgGa
_chemical_formula_sum   'Mg48 Ga48'
_cell_volume   3152.53697761
_cell_formula_units_Z   48
loop_
 _symmetry_equiv_pos_site_id
 _symmetry_equiv_pos_as_xyz
  1  'x, y, z'
loop_
 _atom_site_type_symbol
 _atom_site_label
 _atom_site_symmetry_multiplicity
 _atom_site_fract_x
 _atom_site_fract_y
 _atom_site_fract_z
 _atom_site_occupancy
  Mg  Mg0  1  0.23214000  0.57271500  0.22357500  1
  Mg  Mg1  1  0.76786000  0.63212400  0.26454300  1
  Mg  Mg2  1  0.76786000  0.36787600  0.23545700  1
  Mg  Mg3  1  0.23214000  0.42728500  0.27642500  1
  Mg  Mg4  1  0.01786000  0.57271500  0.32357500  1
  Mg  Mg5  1  0.98214000  0.13212400  0.26454300  1
  Mg  Mg6  1  0.98214000  0.86787600  0.23545700  1
  Mg  Mg7  1  0.01786000  0.42728500  0.37642500  1
  Mg  Mg8  1  0.73214000  0.07271500  0.32357500  1
  Mg  Mg9  1  0.26786000  0.13212400  0.36454300  1
  Mg  Mg10  1  0.26786000  0.86787600  0.33545700  1
  Mg  Mg11  1  0.73214000  0.92728500  0.37642500  1
  Mg  Mg12  1  0.51786000  0.07271500  0.22357500  1
  Mg  Mg13  1  0.48214000  0.63212400  0.36454300  1
  Mg  Mg14  1  0.48214000  0.36787600  0.33545700  1
  Mg  Mg15  1  0.51786000  0.92728500  0.27642500  1
  Mg  Mg16  1  0.23214000  0.57271500  0.42357500  1
  Mg  Mg17  1  0.76786000  0.63212400  0.46454300  1
  Mg  Mg18  1  0.76786000  0.36787600  0.43545700  1
  Mg  Mg19  1  0.23214000  0.42728500  0.47642500  1
  Mg  Mg20  1  0.01786000  0.57271500  0.52357500  1
  Mg  Mg21  1  0.98214000  0.13212400  0.46454300  1
  Mg  Mg22  1  0.98214000  0.86787600  0.43545700  1
  Mg  Mg23  1  0.01786000  0.42728500  0.57642500  1
  Mg  Mg24  1  0.73214000  0.07271500  0.52357500  1
  Mg  Mg25  1  0.26786000  0.13212400  0.56454300  1
  Mg  Mg26  1  0.26786000  0.86787600  0.53545700  1
  Mg  Mg27  1  0.73214000  0.92728500  0.57642500  1
  Mg  Mg28  1  0.51786000  0.07271500  0.42357500  1
  Mg  Mg29  1  0.48214000  0.63212400  0.56454300  1
  Mg  Mg30  1  0.48214000  0.36787600  0.53545700  1
  Mg  Mg31  1  0.51786000  0.92728500  0.47642500  1
  Mg  Mg32  1  0.23214000  0.57271500  0.62357500  1
  Mg  Mg33  1  0.76786000  0.63212400  0.66454300  1
  Mg  Mg34  1  0.76786000  0.36787600  0.63545700  1
  Mg  Mg35  1  0.23214000  0.42728500  0.67642500  1
  Mg  Mg36  1  0.01786000  0.57271500  0.72357500  1
  Mg  Mg37  1  0.98214000  0.13212400  0.66454300  1
  Mg  Mg38  1  0.98214000  0.86787600  0.63545700  1
  Mg  Mg39  1  0.01786000  0.42728500  0.77642500  1
  Mg  Mg40  1  0.73214000  0.07271500  0.72357500  1
  Mg  Mg41  1  0.26786000  0.13212400  0.76454300  1
  Mg  Mg42  1  0.26786000  0.86787600  0.73545700  1
  Mg  Mg43  1  0.73214000  0.92728500  0.77642500  1
  Mg  Mg44  1  0.51786000  0.07271500  0.62357500  1
  Mg  Mg45  1  0.48214000  0.63212400  0.76454300  1
  Mg  Mg46  1  0.48214000  0.36787600  0.73545700  1
  Mg  Mg47  1  0.51786000  0.92728500  0.67642500  1
  Ga  Ga48  1  0.50580500  0.39299600  0.38974800  1
  Ga  Ga49  1  0.25580500  0.69874100  0.27140100  1
  Ga  Ga50  1  0.25580500  0.30125900  0.22859900  1
  Ga  Ga51  1  0.50580500  0.60700400  0.31025200  1
  Ga  Ga52  1  0.74419500  0.39299600  0.28974800  1
  Ga  Ga53  1  0.49419500  0.19874100  0.27140100  1
  Ga  Ga54  1  0.49419500  0.80125900  0.22859900  1
  Ga  Ga55  1  0.74419500  0.60700400  0.21025200  1
  Ga  Ga56  1  0.00580500  0.89299600  0.28974800  1
  Ga  Ga57  1  0.75580500  0.19874100  0.37140100  1
  Ga  Ga58  1  0.75580500  0.80125900  0.32859900  1
  Ga  Ga59  1  0.00580500  0.10700400  0.21025200  1
  Ga  Ga60  1  0.24419500  0.89299600  0.38974800  1
  Ga  Ga61  1  0.99419500  0.69874100  0.37140100  1
  Ga  Ga62  1  0.99419500  0.30125900  0.32859900  1
  Ga  Ga63  1  0.24419500  0.10700400  0.31025200  1
  Ga  Ga64  1  0.50580500  0.39299600  0.58974800  1
  Ga  Ga65  1  0.25580500  0.69874100  0.47140100  1
  Ga  Ga66  1  0.25580500  0.30125900  0.42859900  1
  Ga  Ga67  1  0.50580500  0.60700400  0.51025200  1
  Ga  Ga68  1  0.74419500  0.39299600  0.48974800  1
  Ga  Ga69  1  0.49419500  0.19874100  0.47140100  1
  Ga  Ga70  1  0.49419500  0.80125900  0.42859900  1
  Ga  Ga71  1  0.74419500  0.60700400  0.41025200  1
  Ga  Ga72  1  0.00580500  0.89299600  0.48974800  1
  Ga  Ga73  1  0.75580500  0.19874100  0.57140100  1
  Ga  Ga74  1  0.75580500  0.80125900  0.52859900  1
  Ga  Ga75  1  0.00580500  0.10700400  0.41025200  1
  Ga  Ga76  1  0.24419500  0.89299600  0.58974800  1
  Ga  Ga77  1  0.99419500  0.69874100  0.57140100  1
  Ga  Ga78  1  0.99419500  0.30125900  0.52859900  1
  Ga  Ga79  1  0.24419500  0.10700400  0.51025200  1
  Ga  Ga80  1  0.50580500  0.39299600  0.78974800  1
  Ga  Ga81  1  0.25580500  0.69874100  0.67140100  1
  Ga  Ga82  1  0.25580500  0.30125900  0.62859900  1
  Ga  Ga83  1  0.50580500  0.60700400  0.71025200  1
  Ga  Ga84  1  0.74419500  0.39299600  0.68974800  1
  Ga  Ga85  1  0.49419500  0.19874100  0.67140100  1
  Ga  Ga86  1  0.49419500  0.80125900  0.62859900  1
  Ga  Ga87  1  0.74419500  0.60700400  0.61025200  1
  Ga  Ga88  1  0.00580500  0.89299600  0.68974800  1
  Ga  Ga89  1  0.75580500  0.19874100  0.77140100  1
  Ga  Ga90  1  0.75580500  0.80125900  0.72859900  1
  Ga  Ga91  1  0.00580500  0.10700400  0.61025200  1
  Ga  Ga92  1  0.24419500  0.89299600  0.78974800  1
  Ga  Ga93  1  0.99419500  0.69874100  0.77140100  1
  Ga  Ga94  1  0.99419500  0.30125900  0.72859900  1
  Ga  Ga95  1  0.24419500  0.10700400  0.71025200  1
