# generated using pymatgen
data_Mg4Hg7
_symmetry_space_group_name_H-M   'P 1'
_cell_length_a   6.17056499
_cell_length_b   7.04379350
_cell_length_c   43.77768600
_cell_angle_alpha   85.82328324
_cell_angle_beta   86.21546991
_cell_angle_gamma   71.79623259
_symmetry_Int_Tables_number   1
_chemical_formula_structural   Mg4Hg7
_chemical_formula_sum   'Mg16 Hg28'
_cell_volume   1800.85112327
_cell_formula_units_Z   4
loop_
 _symmetry_equiv_pos_site_id
 _symmetry_equiv_pos_as_xyz
  1  'x, y, z'
loop_
 _atom_site_type_symbol
 _atom_site_label
 _atom_site_symmetry_multiplicity
 _atom_site_fract_x
 _atom_site_fract_y
 _atom_site_fract_z
 _atom_site_occupancy
  Mg  Mg0  1  0.85437700  0.32518700  0.74436700  1
  Mg  Mg1  1  0.89168200  0.80178400  0.74281300  1
  Mg  Mg2  1  0.70053000  0.40211000  0.66744400  1
  Mg  Mg3  1  0.73783600  0.87870700  0.66588900  1
  Mg  Mg4  1  0.54668400  0.47903300  0.59052100  1
  Mg  Mg5  1  0.58399000  0.95563000  0.58896600  1
  Mg  Mg6  1  0.39283800  0.55595600  0.51359800  1
  Mg  Mg7  1  0.43014400  0.03255300  0.51204300  1
  Mg  Mg8  1  0.23899200  0.63287900  0.43667500  1
  Mg  Mg9  1  0.27629700  0.10947600  0.43512000  1
  Mg  Mg10  1  0.08514600  0.70980200  0.35975200  1
  Mg  Mg11  1  0.12245100  0.18639900  0.35819700  1
  Mg  Mg12  1  0.93130000  0.78672500  0.28282800  1
  Mg  Mg13  1  0.96860500  0.26332200  0.28127400  1
  Mg  Mg14  1  0.77745300  0.86364800  0.20590500  1
  Mg  Mg15  1  0.81475900  0.34024500  0.20435100  1
  Hg  Hg16  1  0.51721300  0.16293200  0.71674900  1
  Hg  Hg17  1  0.07499900  0.04096100  0.69350800  1
  Hg  Hg18  1  0.49938800  0.68869200  0.71749100  1
  Hg  Hg19  1  0.09282500  0.51520200  0.69276500  1
  Hg  Hg20  1  0.36336700  0.23985500  0.63982600  1
  Hg  Hg21  1  0.92115300  0.11788400  0.61658500  1
  Hg  Hg22  1  0.34554200  0.76561500  0.64056800  1
  Hg  Hg23  1  0.93897900  0.59212500  0.61584200  1
  Hg  Hg24  1  0.20952100  0.31677900  0.56290300  1
  Hg  Hg25  1  0.76730700  0.19480800  0.53966200  1
  Hg  Hg26  1  0.19169500  0.84253800  0.56364500  1
  Hg  Hg27  1  0.78513200  0.66904800  0.53891900  1
  Hg  Hg28  1  0.05567500  0.39370200  0.48598000  1
  Hg  Hg29  1  0.61346100  0.27173100  0.46273800  1
  Hg  Hg30  1  0.03784900  0.91946100  0.48672200  1
  Hg  Hg31  1  0.63128600  0.74597100  0.46199600  1
  Hg  Hg32  1  0.90182900  0.47062500  0.40905600  1
  Hg  Hg33  1  0.45961500  0.34865400  0.38581500  1
  Hg  Hg34  1  0.88400300  0.99638400  0.40979900  1
  Hg  Hg35  1  0.47744000  0.82289400  0.38507300  1
  Hg  Hg36  1  0.74798300  0.54754800  0.33213300  1
  Hg  Hg37  1  0.30576800  0.42557700  0.30889200  1
  Hg  Hg38  1  0.73015700  0.07330700  0.33287600  1
  Hg  Hg39  1  0.32359400  0.89981700  0.30815000  1
  Hg  Hg40  1  0.59413600  0.62447100  0.25521000  1
  Hg  Hg41  1  0.15192200  0.50250000  0.23196900  1
  Hg  Hg42  1  0.57631100  0.15023000  0.25595300  1
  Hg  Hg43  1  0.16974800  0.97674000  0.23122600  1
