# generated using pymatgen
data_Mg7B27
_symmetry_space_group_name_H-M   'P 1'
_cell_length_a   5.48489200
_cell_length_b   8.63140273
_cell_length_c   41.64186800
_cell_angle_alpha   88.27871752
_cell_angle_beta   90.00000000
_cell_angle_gamma   90.00000000
_symmetry_Int_Tables_number   1
_chemical_formula_structural   Mg7B27
_chemical_formula_sum   'Mg28 B108'
_cell_volume   1970.53273726
_cell_formula_units_Z   4
loop_
 _symmetry_equiv_pos_site_id
 _symmetry_equiv_pos_as_xyz
  1  'x, y, z'
loop_
 _atom_site_type_symbol
 _atom_site_label
 _atom_site_symmetry_multiplicity
 _atom_site_fract_x
 _atom_site_fract_y
 _atom_site_fract_z
 _atom_site_occupancy
  Mg  Mg0  1  0.45432300  0.38107100  0.27161700  1
  Mg  Mg1  1  0.54567700  0.31702000  0.20111000  1
  Mg  Mg2  1  0.95432300  0.81702000  0.20111000  1
  Mg  Mg3  1  0.04567700  0.88107100  0.27161700  1
  Mg  Mg4  1  0.45432300  0.10834400  0.36252600  1
  Mg  Mg5  1  0.54567700  0.04429200  0.29201900  1
  Mg  Mg6  1  0.95432300  0.54429200  0.29201900  1
  Mg  Mg7  1  0.04567700  0.60834400  0.36252600  1
  Mg  Mg8  1  0.45432300  0.83561700  0.45343500  1
  Mg  Mg9  1  0.54567700  0.77156500  0.38292900  1
  Mg  Mg10  1  0.95432300  0.27156500  0.38292900  1
  Mg  Mg11  1  0.04567700  0.33561700  0.45343500  1
  Mg  Mg12  1  0.45432300  0.56289000  0.54434400  1
  Mg  Mg13  1  0.54567700  0.49883800  0.47383800  1
  Mg  Mg14  1  0.95432300  0.99883800  0.47383800  1
  Mg  Mg15  1  0.04567700  0.06289000  0.54434400  1
  Mg  Mg16  1  0.45432300  0.29016200  0.63525300  1
  Mg  Mg17  1  0.54567700  0.22611100  0.56474700  1
  Mg  Mg18  1  0.95432300  0.72611100  0.56474700  1
  Mg  Mg19  1  0.04567700  0.79016200  0.63525300  1
  Mg  Mg20  1  0.45432300  0.01743500  0.72616200  1
  Mg  Mg21  1  0.54567700  0.95338300  0.65565600  1
  Mg  Mg22  1  0.95432300  0.45338300  0.65565600  1
  Mg  Mg23  1  0.04567700  0.51743500  0.72616200  1
  Mg  Mg24  1  0.45432300  0.74470800  0.81707100  1
  Mg  Mg25  1  0.54567700  0.68065600  0.74656500  1
  Mg  Mg26  1  0.95432300  0.18065600  0.74656500  1
  Mg  Mg27  1  0.04567700  0.24470800  0.81707100  1
  B  B28  1  0.77761600  0.02900100  0.22760800  1
  B  B29  1  0.22238400  0.66909000  0.24511900  1
  B  B30  1  0.27761600  0.16909000  0.24511900  1
  B  B31  1  0.72238400  0.52900100  0.22760800  1
  B  B32  1  0.94662700  0.17399700  0.24573300  1
  B  B33  1  0.05337300  0.52409400  0.22699500  1
  B  B34  1  0.44662700  0.02409400  0.22699500  1
  B  B35  1  0.55337300  0.67399700  0.24573300  1
  B  B36  1  0.36767100  0.81888700  0.22534300  1
  B  B37  1  0.86767100  0.37920400  0.24738400  1
  B  B38  1  0.63232900  0.87920400  0.24738400  1
  B  B39  1  0.13232900  0.31888700  0.22534300  1
  B  B40  1  0.77761600  0.75627400  0.31851700  1
  B  B41  1  0.22238400  0.39636300  0.33602800  1
  B  B42  1  0.27761600  0.89636300  0.33602800  1
  B  B43  1  0.72238400  0.25627400  0.31851700  1
  B  B44  1  0.94662700  0.90127000  0.33664200  1
  B  B45  1  0.05337300  0.25136600  0.31790400  1
  B  B46  1  0.44662700  0.75136600  0.31790400  1
  B  B47  1  0.55337300  0.40127000  0.33664200  1
  B  B48  1  0.36767100  0.54616000  0.31625200  1
  B  B49  1  0.63232900  0.77447900  0.28229200  1
  B  B50  1  0.86767100  0.10647700  0.33829300  1
  B  B51  1  0.13232900  0.15088400  0.28134400  1
  B  B52  1  0.63232900  0.60647700  0.33829300  1
  B  B53  1  0.36767100  0.65088400  0.28134400  1
  B  B54  1  0.13232900  0.04616000  0.31625200  1
  B  B55  1  0.86767100  0.27447900  0.28229200  1
  B  B56  1  0.77761600  0.48354600  0.40942600  1
  B  B57  1  0.22238400  0.12363600  0.42693700  1
  B  B58  1  0.27761600  0.62363600  0.42693700  1
  B  B59  1  0.72238400  0.98354600  0.40942600  1
  B  B60  1  0.94662700  0.62854300  0.42755100  1
  B  B61  1  0.05337300  0.97863900  0.40881300  1
  B  B62  1  0.44662700  0.47863900  0.40881300  1
  B  B63  1  0.55337300  0.12854300  0.42755100  1
  B  B64  1  0.36767100  0.27343200  0.40716100  1
  B  B65  1  0.63232900  0.50175200  0.37320100  1
  B  B66  1  0.86767100  0.83375000  0.42920200  1
  B  B67  1  0.13232900  0.87815700  0.37225300  1
  B  B68  1  0.63232900  0.33375000  0.42920200  1
  B  B69  1  0.36767100  0.37815700  0.37225300  1
  B  B70  1  0.13232900  0.77343200  0.40716100  1
  B  B71  1  0.86767100  0.00175200  0.37320100  1
  B  B72  1  0.77761600  0.21081900  0.50033500  1
  B  B73  1  0.22238400  0.85090800  0.51784600  1
  B  B74  1  0.27761600  0.35090800  0.51784600  1
  B  B75  1  0.72238400  0.71081900  0.50033500  1
  B  B76  1  0.94662700  0.35581500  0.51846000  1
  B  B77  1  0.05337300  0.70591200  0.49972200  1
  B  B78  1  0.44662700  0.20591200  0.49972200  1
  B  B79  1  0.55337300  0.85581500  0.51846000  1
  B  B80  1  0.36767100  0.00070500  0.49807000  1
  B  B81  1  0.63232900  0.22902500  0.46411000  1
  B  B82  1  0.86767100  0.56102200  0.52011100  1
  B  B83  1  0.13232900  0.60543000  0.46316200  1
  B  B84  1  0.63232900  0.06102200  0.52011100  1
  B  B85  1  0.36767100  0.10543000  0.46316200  1
  B  B86  1  0.13232900  0.50070500  0.49807000  1
  B  B87  1  0.86767100  0.72902500  0.46411000  1
  B  B88  1  0.77761600  0.93809200  0.59124400  1
  B  B89  1  0.22238400  0.57818100  0.60875600  1
  B  B90  1  0.27761600  0.07818100  0.60875600  1
  B  B91  1  0.72238400  0.43809200  0.59124400  1
  B  B92  1  0.94662700  0.08308800  0.60936900  1
  B  B93  1  0.05337300  0.43318500  0.59063100  1
  B  B94  1  0.44662700  0.93318500  0.59063100  1
  B  B95  1  0.55337300  0.58308800  0.60936900  1
  B  B96  1  0.36767100  0.72797800  0.58898000  1
  B  B97  1  0.63232900  0.95629800  0.55502000  1
  B  B98  1  0.86767100  0.28829500  0.61102000  1
  B  B99  1  0.13232900  0.33270300  0.55407100  1
  B  B100  1  0.63232900  0.78829500  0.61102000  1
  B  B101  1  0.36767100  0.83270300  0.55407100  1
  B  B102  1  0.13232900  0.22797800  0.58898000  1
  B  B103  1  0.86767100  0.45629800  0.55502000  1
  B  B104  1  0.77761600  0.66536500  0.68215400  1
  B  B105  1  0.22238400  0.30545400  0.69966500  1
  B  B106  1  0.27761600  0.80545400  0.69966500  1
  B  B107  1  0.72238400  0.16536500  0.68215400  1
  B  B108  1  0.94662700  0.81036100  0.70027800  1
  B  B109  1  0.05337300  0.16045700  0.68154000  1
  B  B110  1  0.44662700  0.66045700  0.68154000  1
  B  B111  1  0.55337300  0.31036100  0.70027800  1
  B  B112  1  0.36767100  0.45525100  0.67988900  1
  B  B113  1  0.63232900  0.68357000  0.64592900  1
  B  B114  1  0.86767100  0.01556800  0.70193000  1
  B  B115  1  0.13232900  0.05997500  0.64498000  1
  B  B116  1  0.63232900  0.51556800  0.70193000  1
  B  B117  1  0.36767100  0.55997500  0.64498000  1
  B  B118  1  0.13232900  0.95525100  0.67988900  1
  B  B119  1  0.86767100  0.18357000  0.64592900  1
  B  B120  1  0.77761600  0.39263700  0.77306300  1
  B  B121  1  0.22238400  0.03272700  0.79057400  1
  B  B122  1  0.27761600  0.53272700  0.79057400  1
  B  B123  1  0.72238400  0.89263700  0.77306300  1
  B  B124  1  0.94662700  0.53763400  0.79118700  1
  B  B125  1  0.05337300  0.88773000  0.77244900  1
  B  B126  1  0.44662700  0.38773000  0.77244900  1
  B  B127  1  0.55337300  0.03763400  0.79118700  1
  B  B128  1  0.36767100  0.18252300  0.77079800  1
  B  B129  1  0.63232900  0.41084300  0.73683800  1
  B  B130  1  0.86767100  0.74284000  0.79283900  1
  B  B131  1  0.13232900  0.78724800  0.73589000  1
  B  B132  1  0.63232900  0.24284000  0.79283900  1
  B  B133  1  0.36767100  0.28724800  0.73589000  1
  B  B134  1  0.13232900  0.68252300  0.77079800  1
  B  B135  1  0.86767100  0.91084300  0.73683800  1
