# generated using pymatgen
data_Ba8Mg19
_symmetry_space_group_name_H-M   'P 1'
_cell_length_a   6.58888000
_cell_length_b   10.85988700
_cell_length_c   45.64909800
_cell_angle_alpha   90.00000000
_cell_angle_beta   90.00000000
_cell_angle_gamma   90.00000000
_symmetry_Int_Tables_number   1
_chemical_formula_structural   Ba8Mg19
_chemical_formula_sum   'Ba16 Mg38'
_cell_volume   3266.39802936
_cell_formula_units_Z   2
loop_
 _symmetry_equiv_pos_site_id
 _symmetry_equiv_pos_as_xyz
  1  'x, y, z'
loop_
 _atom_site_type_symbol
 _atom_site_label
 _atom_site_symmetry_multiplicity
 _atom_site_fract_x
 _atom_site_fract_y
 _atom_site_fract_z
 _atom_site_occupancy
  Ba  Ba0  1  0.62270000  0.94166300  0.36458300  1
  Ba  Ba1  1  0.12270000  0.44166300  0.32291700  1
  Ba  Ba2  1  0.12270000  0.05833700  0.32291700  1
  Ba  Ba3  1  0.62270000  0.55833700  0.36458300  1
  Ba  Ba4  1  0.12270000  0.94166300  0.48958300  1
  Ba  Ba5  1  0.62270000  0.44166300  0.44791700  1
  Ba  Ba6  1  0.62270000  0.05833700  0.44791700  1
  Ba  Ba7  1  0.12270000  0.55833700  0.48958300  1
  Ba  Ba8  1  0.62270000  0.94166300  0.61458300  1
  Ba  Ba9  1  0.12270000  0.44166300  0.57291700  1
  Ba  Ba10  1  0.12270000  0.05833700  0.57291700  1
  Ba  Ba11  1  0.62270000  0.55833700  0.61458300  1
  Ba  Ba12  1  0.12270000  0.94166300  0.73958300  1
  Ba  Ba13  1  0.62270000  0.44166300  0.69791700  1
  Ba  Ba14  1  0.62270000  0.05833700  0.69791700  1
  Ba  Ba15  1  0.12270000  0.55833700  0.73958300  1
  Mg  Mg16  1  0.86810000  0.75000000  0.30170000  1
  Mg  Mg17  1  0.37730000  0.75000000  0.30170000  1
  Mg  Mg18  1  0.86810000  0.25000000  0.26080000  1
  Mg  Mg19  1  0.62270000  0.50000000  0.28125000  1
  Mg  Mg20  1  0.62270000  0.00000000  0.28125000  1
  Mg  Mg21  1  0.37730000  0.25000000  0.26080000  1
  Mg  Mg22  1  0.62270000  0.25000000  0.32215000  1
  Mg  Mg23  1  0.36810000  0.75000000  0.42670000  1
  Mg  Mg24  1  0.87730000  0.75000000  0.42670000  1
  Mg  Mg25  1  0.36810000  0.25000000  0.38580000  1
  Mg  Mg26  1  0.12270000  0.50000000  0.40625000  1
  Mg  Mg27  1  0.12270000  0.00000000  0.40625000  1
  Mg  Mg28  1  0.12270000  0.75000000  0.36535000  1
  Mg  Mg29  1  0.87730000  0.25000000  0.38580000  1
  Mg  Mg30  1  0.12270000  0.25000000  0.44715000  1
  Mg  Mg31  1  0.86810000  0.75000000  0.55170000  1
  Mg  Mg32  1  0.37730000  0.75000000  0.55170000  1
  Mg  Mg33  1  0.86810000  0.25000000  0.51080000  1
  Mg  Mg34  1  0.62270000  0.50000000  0.53125000  1
  Mg  Mg35  1  0.62270000  0.00000000  0.53125000  1
  Mg  Mg36  1  0.62270000  0.75000000  0.49035000  1
  Mg  Mg37  1  0.37730000  0.25000000  0.51080000  1
  Mg  Mg38  1  0.62270000  0.25000000  0.57215000  1
  Mg  Mg39  1  0.36810000  0.75000000  0.67670000  1
  Mg  Mg40  1  0.87730000  0.75000000  0.67670000  1
  Mg  Mg41  1  0.36810000  0.25000000  0.63580000  1
  Mg  Mg42  1  0.12270000  0.50000000  0.65625000  1
  Mg  Mg43  1  0.12270000  0.00000000  0.65625000  1
  Mg  Mg44  1  0.12270000  0.75000000  0.61535000  1
  Mg  Mg45  1  0.87730000  0.25000000  0.63580000  1
  Mg  Mg46  1  0.12270000  0.25000000  0.69715000  1
  Mg  Mg47  1  0.86810000  0.75000000  0.80170000  1
  Mg  Mg48  1  0.37730000  0.75000000  0.80170000  1
  Mg  Mg49  1  0.86810000  0.25000000  0.76080000  1
  Mg  Mg50  1  0.62270000  0.50000000  0.78125000  1
  Mg  Mg51  1  0.62270000  0.00000000  0.78125000  1
  Mg  Mg52  1  0.62270000  0.75000000  0.74035000  1
  Mg  Mg53  1  0.37730000  0.25000000  0.76080000  1
