# generated using pymatgen
data_CeMg2
_symmetry_space_group_name_H-M   'P 1'
_cell_length_a   3.18877500
_cell_length_b   18.55768369
_cell_length_c   50.11430100
_cell_angle_alpha   94.53326837
_cell_angle_beta   90.00000000
_cell_angle_gamma   90.00000000
_symmetry_Int_Tables_number   1
_chemical_formula_structural   CeMg2
_chemical_formula_sum   'Ce24 Mg48'
_cell_volume   2956.30031137
_cell_formula_units_Z   24
loop_
 _symmetry_equiv_pos_site_id
 _symmetry_equiv_pos_as_xyz
  1  'x, y, z'
loop_
 _atom_site_type_symbol
 _atom_site_label
 _atom_site_symmetry_multiplicity
 _atom_site_fract_x
 _atom_site_fract_y
 _atom_site_fract_z
 _atom_site_occupancy
  Ce  Ce0  1  1.00000000  0.63488700  0.29612400  1
  Ce  Ce1  1  0.50000000  0.96511300  0.20387600  1
  Ce  Ce2  1  0.50000000  0.08488700  0.24612400  1
  Ce  Ce3  1  0.00000000  0.51511300  0.25387600  1
  Ce  Ce4  1  0.00000000  0.73488700  0.39612400  1
  Ce  Ce5  1  0.50000000  0.06511300  0.30387600  1
  Ce  Ce6  1  0.50000000  0.18488700  0.34612400  1
  Ce  Ce7  1  0.00000000  0.61511300  0.35387600  1
  Ce  Ce8  1  0.00000000  0.83488700  0.49612400  1
  Ce  Ce9  1  0.50000000  0.16511300  0.40387600  1
  Ce  Ce10  1  0.50000000  0.28488700  0.44612400  1
  Ce  Ce11  1  0.00000000  0.71511300  0.45387600  1
  Ce  Ce12  1  1.00000000  0.93488700  0.59612400  1
  Ce  Ce13  1  0.50000000  0.26511300  0.50387600  1
  Ce  Ce14  1  0.50000000  0.38488700  0.54612400  1
  Ce  Ce15  1  0.00000000  0.81511300  0.55387600  1
  Ce  Ce16  1  0.00000000  0.03488700  0.69612400  1
  Ce  Ce17  1  0.50000000  0.36511300  0.60387600  1
  Ce  Ce18  1  0.50000000  0.48488700  0.64612400  1
  Ce  Ce19  1  0.00000000  0.91511300  0.65387600  1
  Ce  Ce20  1  0.00000000  0.13488700  0.79612400  1
  Ce  Ce21  1  0.50000000  0.46511300  0.70387600  1
  Ce  Ce22  1  0.50000000  0.58488700  0.74612400  1
  Ce  Ce23  1  0.00000000  0.01511300  0.75387600  1
  Mg  Mg24  1  0.00000000  0.93696600  0.26255900  1
  Mg  Mg25  1  0.50000000  0.79603200  0.27821900  1
  Mg  Mg26  1  0.00000000  0.80396800  0.22178100  1
  Mg  Mg27  1  0.50000000  0.66303400  0.23744100  1
  Mg  Mg28  1  0.50000000  0.38696600  0.21255900  1
  Mg  Mg29  1  0.00000000  0.24603200  0.22821900  1
  Mg  Mg30  1  0.50000000  0.35396800  0.27178100  1
  Mg  Mg31  1  0.00000000  0.21303400  0.28744100  1
  Mg  Mg32  1  0.00000000  0.03696600  0.36255900  1
  Mg  Mg33  1  0.50000000  0.89603200  0.37821900  1
  Mg  Mg34  1  1.00000000  0.90396800  0.32178100  1
  Mg  Mg35  1  0.50000000  0.76303400  0.33744100  1
  Mg  Mg36  1  0.50000000  0.48696600  0.31255900  1
  Mg  Mg37  1  0.00000000  0.34603200  0.32821900  1
  Mg  Mg38  1  0.50000000  0.45396800  0.37178100  1
  Mg  Mg39  1  0.00000000  0.31303400  0.38744100  1
  Mg  Mg40  1  0.00000000  0.13696600  0.46255900  1
  Mg  Mg41  1  0.50000000  0.99603200  0.47821900  1
  Mg  Mg42  1  1.00000000  0.00396800  0.42178100  1
  Mg  Mg43  1  0.50000000  0.86303400  0.43744100  1
  Mg  Mg44  1  0.50000000  0.58696600  0.41255900  1
  Mg  Mg45  1  0.00000000  0.44603200  0.42821900  1
  Mg  Mg46  1  0.50000000  0.55396800  0.47178100  1
  Mg  Mg47  1  0.00000000  0.41303400  0.48744100  1
  Mg  Mg48  1  0.00000000  0.23696600  0.56255900  1
  Mg  Mg49  1  0.50000000  0.09603200  0.57821900  1
  Mg  Mg50  1  0.00000000  0.10396800  0.52178100  1
  Mg  Mg51  1  0.50000000  0.96303400  0.53744100  1
  Mg  Mg52  1  0.50000000  0.68696600  0.51255900  1
  Mg  Mg53  1  1.00000000  0.54603200  0.52821900  1
  Mg  Mg54  1  0.50000000  0.65396800  0.57178100  1
  Mg  Mg55  1  0.00000000  0.51303400  0.58744100  1
  Mg  Mg56  1  0.00000000  0.33696600  0.66255900  1
  Mg  Mg57  1  0.50000000  0.19603200  0.67821900  1
  Mg  Mg58  1  0.00000000  0.20396800  0.62178100  1
  Mg  Mg59  1  0.50000000  0.06303400  0.63744100  1
  Mg  Mg60  1  0.50000000  0.78696600  0.61255900  1
  Mg  Mg61  1  0.00000000  0.64603200  0.62821900  1
  Mg  Mg62  1  0.50000000  0.75396800  0.67178100  1
  Mg  Mg63  1  0.00000000  0.61303400  0.68744100  1
  Mg  Mg64  1  0.00000000  0.43696600  0.76255900  1
  Mg  Mg65  1  0.50000000  0.29603200  0.77821900  1
  Mg  Mg66  1  0.00000000  0.30396800  0.72178100  1
  Mg  Mg67  1  0.50000000  0.16303400  0.73744100  1
  Mg  Mg68  1  0.50000000  0.88696600  0.71255900  1
  Mg  Mg69  1  0.00000000  0.74603200  0.72821900  1
  Mg  Mg70  1  0.50000000  0.85396800  0.77178100  1
  Mg  Mg71  1  0.00000000  0.71303400  0.78744100  1
