# generated using pymatgen
data_Mg9Si5
_symmetry_space_group_name_H-M   'P 1'
_cell_length_a   12.41651900
_cell_length_b   14.27249660
_cell_length_c   44.74766500
_cell_angle_alpha   90.16648621
_cell_angle_beta   90.00000000
_cell_angle_gamma   64.21593671
_symmetry_Int_Tables_number   1
_chemical_formula_structural   Mg9Si5
_chemical_formula_sum   'Mg144 Si80'
_cell_volume   7140.40101402
_cell_formula_units_Z   16
loop_
 _symmetry_equiv_pos_site_id
 _symmetry_equiv_pos_as_xyz
  1  'x, y, z'
loop_
 _atom_site_type_symbol
 _atom_site_label
 _atom_site_symmetry_multiplicity
 _atom_site_fract_x
 _atom_site_fract_y
 _atom_site_fract_z
 _atom_site_occupancy
  Mg  Mg0  1  0.92451200  0.05631000  0.21895600  1
  Mg  Mg1  1  0.51444000  0.55552000  0.21974500  1
  Mg  Mg2  1  0.14101500  0.53890400  0.23636100  1
  Mg  Mg3  1  0.55164000  0.07578700  0.19947900  1
  Mg  Mg4  1  0.17821400  0.05917100  0.21609400  1
  Mg  Mg5  1  0.76814200  0.55838100  0.21688400  1
  Mg  Mg6  1  0.61394900  0.86676700  0.24258300  1
  Mg  Mg7  1  0.02402100  0.36755700  0.24179300  1
  Mg  Mg8  1  0.39744700  0.38417300  0.22517800  1
  Mg  Mg9  1  0.98682200  0.84729000  0.26206000  1
  Mg  Mg10  1  0.36024700  0.86390600  0.24544400  1
  Mg  Mg11  1  0.77031900  0.36469600  0.24465500  1
  Mg  Mg12  1  0.04986600  0.74627600  0.19603200  1
  Mg  Mg13  1  0.66611400  0.23998500  0.20232300  1
  Mg  Mg14  1  0.26836700  0.23706000  0.20524800  1
  Mg  Mg15  1  0.27009400  0.68601700  0.25629100  1
  Mg  Mg16  1  0.87234700  0.68309200  0.25921600  1
  Mg  Mg17  1  0.48859600  0.17680100  0.26550600  1
  Mg  Mg18  1  0.46297400  0.97938600  0.29587900  1
  Mg  Mg19  1  0.05290200  0.47859700  0.29666800  1
  Mg  Mg20  1  0.67947600  0.46198100  0.31328400  1
  Mg  Mg21  1  0.09010100  0.99886300  0.27640200  1
  Mg  Mg22  1  0.71667600  0.98224800  0.29301700  1
  Mg  Mg23  1  0.30660400  0.48145800  0.29380700  1
  Mg  Mg24  1  0.15241100  0.78984400  0.31950600  1
  Mg  Mg25  1  0.56248300  0.29063400  0.31871600  1
  Mg  Mg26  1  0.93590800  0.30724900  0.30210100  1
  Mg  Mg27  1  0.52528300  0.77036700  0.33898300  1
  Mg  Mg28  1  0.89870900  0.78698300  0.32236700  1
  Mg  Mg29  1  0.30878100  0.28777200  0.32157800  1
  Mg  Mg30  1  0.58832800  0.66935200  0.27295500  1
  Mg  Mg31  1  0.20457600  0.16306200  0.27924600  1
  Mg  Mg32  1  0.80682900  0.16013700  0.28217100  1
  Mg  Mg33  1  0.80855600  0.60909400  0.33321400  1
  Mg  Mg34  1  0.41080900  0.60616900  0.33613900  1
  Mg  Mg35  1  0.02705700  0.09987800  0.34242900  1
  Mg  Mg36  1  0.00143500  0.90246300  0.37280200  1
  Mg  Mg37  1  0.59136300  0.40167400  0.37359200  1
  Mg  Mg38  1  0.21793800  0.38505800  0.39020700  1
  Mg  Mg39  1  0.62856300  0.92194000  0.35332500  1
  Mg  Mg40  1  0.25513700  0.90532500  0.36994000  1
  Mg  Mg41  1  0.84506500  0.40453500  0.37073000  1
  Mg  Mg42  1  0.69087200  0.71292100  0.39642900  1
  Mg  Mg43  1  0.10094400  0.21371100  0.39563900  1
  Mg  Mg44  1  0.47437000  0.23032600  0.37902400  1
  Mg  Mg45  1  0.06374500  0.69344400  0.41590600  1
  Mg  Mg46  1  0.43717000  0.71006000  0.39929000  1
  Mg  Mg47  1  0.84724200  0.21084900  0.39850100  1
  Mg  Mg48  1  0.12678900  0.59242900  0.34987800  1
  Mg  Mg49  1  0.74303700  0.08613900  0.35616900  1
  Mg  Mg50  1  0.34529000  0.08321400  0.35909400  1
  Mg  Mg51  1  0.34701700  0.53217100  0.41013700  1
  Mg  Mg52  1  0.94927100  0.52924600  0.41306200  1
  Mg  Mg53  1  0.56551900  0.02295500  0.41935200  1
  Mg  Mg54  1  0.53989700  0.82554000  0.44972500  1
  Mg  Mg55  1  0.12982500  0.32475100  0.45051500  1
  Mg  Mg56  1  0.75639900  0.30813500  0.46713000  1
  Mg  Mg57  1  0.16702400  0.84501700  0.43024800  1
  Mg  Mg58  1  0.79359900  0.82840200  0.44686300  1
  Mg  Mg59  1  0.38352700  0.32761200  0.44765300  1
  Mg  Mg60  1  0.22933400  0.63599800  0.47335200  1
  Mg  Mg61  1  0.63940600  0.13678800  0.47256200  1
  Mg  Mg62  1  0.01283100  0.15340300  0.45594700  1
  Mg  Mg63  1  0.60220600  0.61652100  0.49282900  1
  Mg  Mg64  1  0.97563200  0.63313700  0.47621300  1
  Mg  Mg65  1  0.38570400  0.13392600  0.47542400  1
  Mg  Mg66  1  0.66525100  0.51550600  0.42680100  1
  Mg  Mg67  1  0.28149900  0.00921600  0.43309200  1
  Mg  Mg68  1  0.88375200  0.00629100  0.43601700  1
  Mg  Mg69  1  0.88547900  0.45524800  0.48706000  1
  Mg  Mg70  1  0.48773200  0.45232300  0.48998500  1
  Mg  Mg71  1  0.10398000  0.94603200  0.49627600  1
  Mg  Mg72  1  0.07835800  0.74861700  0.52664800  1
  Mg  Mg73  1  0.66828600  0.24782800  0.52743800  1
  Mg  Mg74  1  0.29486100  0.23121200  0.54405300  1
  Mg  Mg75  1  0.70548600  0.76809400  0.50717100  1
  Mg  Mg76  1  0.33206000  0.75147900  0.52378700  1
  Mg  Mg77  1  0.92198800  0.25068900  0.52457600  1
  Mg  Mg78  1  0.76779500  0.55907500  0.55027500  1
  Mg  Mg79  1  0.17786700  0.05986500  0.54948500  1
  Mg  Mg80  1  0.55129300  0.07648000  0.53287000  1
  Mg  Mg81  1  0.14066800  0.53959800  0.56975200  1
  Mg  Mg82  1  0.51409300  0.55621400  0.55313700  1
  Mg  Mg83  1  0.92416500  0.05700300  0.55234700  1
  Mg  Mg84  1  0.20371200  0.43858300  0.50372400  1
  Mg  Mg85  1  0.81996000  0.93229200  0.51001500  1
  Mg  Mg86  1  0.42221300  0.92936800  0.51294000  1
  Mg  Mg87  1  0.42394000  0.37832500  0.56398300  1
  Mg  Mg88  1  0.02619400  0.37540000  0.56690800  1
  Mg  Mg89  1  0.64244200  0.86910900  0.57319900  1
  Mg  Mg90  1  0.61682000  0.67169400  0.60357100  1
  Mg  Mg91  1  0.20674800  0.17090500  0.60436100  1
  Mg  Mg92  1  0.83332200  0.15428900  0.62097600  1
  Mg  Mg93  1  0.24394800  0.69117100  0.58409400  1
  Mg  Mg94  1  0.87052200  0.67455600  0.60071000  1
  Mg  Mg95  1  0.46045000  0.17376600  0.60149900  1
  Mg  Mg96  1  0.30625700  0.48215200  0.62719800  1
  Mg  Mg97  1  0.71632900  0.98294200  0.62640800  1
  Mg  Mg98  1  0.08975500  0.99955700  0.60979300  1
  Mg  Mg99  1  0.67912900  0.46267500  0.64667500  1
  Mg  Mg100  1  0.05255500  0.47929100  0.63006000  1
  Mg  Mg101  1  0.46262700  0.98008000  0.62927000  1
  Mg  Mg102  1  0.74217400  0.36166000  0.58064800  1
  Mg  Mg103  1  0.35842200  0.85536900  0.58693800  1
  Mg  Mg104  1  0.96067500  0.85244500  0.58986300  1
  Mg  Mg105  1  0.96240200  0.30140200  0.64090600  1
  Mg  Mg106  1  0.56465500  0.29847700  0.64383100  1
  Mg  Mg107  1  0.18090300  0.79218600  0.65012200  1
  Mg  Mg108  1  0.15528100  0.59477100  0.68049400  1
  Mg  Mg109  1  0.74520900  0.09398100  0.68128400  1
  Mg  Mg110  1  0.37178400  0.07736600  0.69789900  1
  Mg  Mg111  1  0.78240900  0.61424800  0.66101700  1
  Mg  Mg112  1  0.40898400  0.59763300  0.67763300  1
  Mg  Mg113  1  0.99891200  0.09684300  0.67842200  1
  Mg  Mg114  1  0.84471900  0.40522900  0.70412100  1
  Mg  Mg115  1  0.25479100  0.90601900  0.70333200  1
  Mg  Mg116  1  0.62821600  0.92263400  0.68671600  1
  Mg  Mg117  1  0.21759100  0.38575200  0.72359800  1
  Mg  Mg118  1  0.59101600  0.40236700  0.70698300  1
  Mg  Mg119  1  0.00108800  0.90315700  0.70619300  1
  Mg  Mg120  1  0.28063500  0.28473700  0.65757100  1
  Mg  Mg121  1  0.89688300  0.77844600  0.66386100  1
  Mg  Mg122  1  0.49913700  0.77552200  0.66678600  1
  Mg  Mg123  1  0.50086300  0.22447800  0.71782900  1
  Mg  Mg124  1  0.10311700  0.22155400  0.72075400  1
  Mg  Mg125  1  0.71936500  0.71526300  0.72704500  1
  Mg  Mg126  1  0.69374300  0.51784800  0.75741700  1
  Mg  Mg127  1  0.28367100  0.01705800  0.75820700  1
  Mg  Mg128  1  0.91024500  0.00044300  0.77482200  1
  Mg  Mg129  1  0.32087100  0.53732500  0.73794000  1
  Mg  Mg130  1  0.94744500  0.52070900  0.75455600  1
  Mg  Mg131  1  0.53737300  0.01992000  0.75534500  1
  Mg  Mg132  1  0.38318000  0.32830600  0.78104400  1
  Mg  Mg133  1  0.79325200  0.82909500  0.78025500  1
  Mg  Mg134  1  0.16667800  0.84571100  0.76363900  1
  Mg  Mg135  1  0.75605200  0.30882900  0.80052100  1
  Mg  Mg136  1  0.12947800  0.32544400  0.78390600  1
  Mg  Mg137  1  0.53955000  0.82623400  0.78311600  1
  Mg  Mg138  1  0.81909700  0.20781400  0.73449400  1
  Mg  Mg139  1  0.43534500  0.70152300  0.74078400  1
  Mg  Mg140  1  0.03759800  0.69859800  0.74370900  1
  Mg  Mg141  1  0.03932500  0.14755500  0.79475200  1
  Mg  Mg142  1  0.64157800  0.14463100  0.79767700  1
  Mg  Mg143  1  0.25782600  0.63834000  0.80396800  1
  Si  Si144  1  0.81550400  0.86899200  0.22305700  1
  Si  Si145  1  0.58473500  0.33053100  0.26151900  1
  Si  Si146  1  0.72295800  0.05408500  0.23848100  1
  Si  Si147  1  0.95372700  0.59254600  0.20002000  1
  Si  Si148  1  0.55128200  0.73076900  0.21153800  1
  Si  Si149  1  0.98717900  0.19230800  0.25000000  1
  Si  Si150  1  0.29296500  0.58073700  0.19903600  1
  Si  Si151  1  0.39552900  0.04227500  0.23749700  1
  Si  Si152  1  0.24549700  0.34234000  0.26250300  1
  Si  Si153  1  0.14293300  0.88080200  0.22404100  1
  Si  Si154  1  0.35396500  0.79206900  0.29998000  1
  Si  Si155  1  0.12319600  0.25360800  0.33844200  1
  Si  Si156  1  0.26141900  0.97716200  0.31540500  1
  Si  Si157  1  0.49218800  0.51562300  0.27694300  1
  Si  Si158  1  0.08974400  0.65384600  0.28846200  1
  Si  Si159  1  0.52564100  0.11538500  0.32692300  1
  Si  Si160  1  0.83142600  0.50381400  0.27595900  1
  Si  Si161  1  0.93399100  0.96535200  0.31442000  1
  Si  Si162  1  0.78395800  0.26541700  0.33942600  1
  Si  Si163  1  0.68139400  0.80387800  0.30096400  1
  Si  Si164  1  0.89242700  0.71514600  0.37690300  1
  Si  Si165  1  0.66165800  0.17668400  0.41536500  1
  Si  Si166  1  0.79988100  0.90023900  0.39232800  1
  Si  Si167  1  0.03065000  0.43870000  0.35386600  1
  Si  Si168  1  0.62820500  0.57692300  0.36538500  1
  Si  Si169  1  0.06410300  0.03846200  0.40384600  1
  Si  Si170  1  0.36988800  0.42689100  0.35288200  1
  Si  Si171  1  0.47245200  0.88842900  0.39134300  1
  Si  Si172  1  0.32242000  0.18849400  0.41634900  1
  Si  Si173  1  0.21985600  0.72695500  0.37788700  1
  Si  Si174  1  0.43088900  0.63822300  0.45382600  1
  Si  Si175  1  0.20011900  0.09976100  0.49228800  1
  Si  Si176  1  0.33834200  0.82331600  0.46925100  1
  Si  Si177  1  0.56911100  0.36177700  0.43078900  1
  Si  Si178  1  0.16666700  0.50000000  0.44230800  1
  Si  Si179  1  0.60256400  0.96153800  0.48076900  1
  Si  Si180  1  0.90834900  0.34996800  0.42980500  1
  Si  Si181  1  0.01091400  0.81150600  0.46826700  1
  Si  Si182  1  0.86088100  0.11157100  0.49327200  1
  Si  Si183  1  0.75831700  0.65003200  0.45481000  1
  Si  Si184  1  0.96935000  0.56130000  0.53074900  1
  Si  Si185  1  0.73858100  0.02283800  0.56921100  1
  Si  Si186  1  0.87680400  0.74639200  0.54617400  1
  Si  Si187  1  0.10757300  0.28485400  0.50771200  1
  Si  Si188  1  0.70512800  0.42307700  0.51923100  1
  Si  Si189  1  0.14102600  0.88461500  0.55769200  1
  Si  Si190  1  0.44681100  0.27304500  0.50672800  1
  Si  Si191  1  0.54937500  0.73458300  0.54519000  1
  Si  Si192  1  0.39934300  0.03464800  0.57019500  1
  Si  Si193  1  0.29677900  0.57310900  0.53173300  1
  Si  Si194  1  0.50781200  0.48437700  0.60767200  1
  Si  Si195  1  0.27704200  0.94591500  0.64613400  1
  Si  Si196  1  0.41526500  0.66946900  0.62309700  1
  Si  Si197  1  0.64603500  0.20793100  0.58463500  1
  Si  Si198  1  0.24359000  0.34615400  0.59615400  1
  Si  Si199  1  0.67948700  0.80769200  0.63461500  1
  Si  Si200  1  0.98527300  0.19612200  0.58365100  1
  Si  Si201  1  0.08783700  0.65766000  0.62211300  1
  Si  Si202  1  0.93780400  0.95772500  0.64711800  1
  Si  Si203  1  0.83524000  0.49618600  0.60865700  1
  Si  Si204  1  0.04627300  0.40745400  0.68459500  1
  Si  Si205  1  0.81550400  0.86899200  0.72305700  1
  Si  Si206  1  0.95372700  0.59254600  0.70002000  1
  Si  Si207  1  0.18449600  0.13100800  0.66155800  1
  Si  Si208  1  0.78205100  0.26923100  0.67307700  1
  Si  Si209  1  0.21794900  0.73076900  0.71153800  1
  Si  Si210  1  0.52373400  0.11919800  0.66057400  1
  Si  Si211  1  0.62629800  0.58073700  0.69903600  1
  Si  Si212  1  0.47626600  0.88080200  0.72404100  1
  Si  Si213  1  0.37370200  0.41926300  0.68558000  1
  Si  Si214  1  0.58473500  0.33053100  0.76151900  1
  Si  Si215  1  0.35396500  0.79206900  0.79998000  1
  Si  Si216  1  0.49218800  0.51562300  0.77694300  1
  Si  Si217  1  0.72295800  0.05408500  0.73848100  1
  Si  Si218  1  0.32051300  0.19230800  0.75000000  1
  Si  Si219  1  0.75641000  0.65384600  0.78846200  1
  Si  Si220  1  0.06219600  0.04227500  0.73749700  1
  Si  Si221  1  0.16476000  0.50381400  0.77595900  1
  Si  Si222  1  0.01472700  0.80387800  0.80096400  1
  Si  Si223  1  0.91216300  0.34234000  0.76250300  1
