# generated using pymatgen
data_MgHg2
_symmetry_space_group_name_H-M   'P 1'
_cell_length_a   3.51707082
_cell_length_b   6.17056525
_cell_length_c   46.67761500
_cell_angle_alpha   87.41388910
_cell_angle_beta   87.84092992
_cell_angle_gamma   73.44188491
_symmetry_Int_Tables_number   1
_chemical_formula_structural   MgHg2
_chemical_formula_sum   'Mg8 Hg16'
_cell_volume   969.68915151
_cell_formula_units_Z   8
loop_
 _symmetry_equiv_pos_site_id
 _symmetry_equiv_pos_as_xyz
  1  'x, y, z'
loop_
 _atom_site_type_symbol
 _atom_site_label
 _atom_site_symmetry_multiplicity
 _atom_site_fract_x
 _atom_site_fract_y
 _atom_site_fract_z
 _atom_site_occupancy
  Mg  Mg0  1  0.97260700  0.30656900  0.74821700  1
  Mg  Mg1  1  0.88453600  0.55057300  0.68035400  1
  Mg  Mg2  1  0.82974900  0.73514100  0.60536000  1
  Mg  Mg3  1  0.74167900  0.97914500  0.53749700  1
  Mg  Mg4  1  0.68689200  0.16371200  0.46250300  1
  Mg  Mg5  1  0.59882200  0.40771600  0.39464000  1
  Mg  Mg6  1  0.54403500  0.59228400  0.31964600  1
  Mg  Mg7  1  0.45596500  0.83628800  0.25178300  1
  Hg  Hg8  1  0.64069500  0.94326900  0.77534200  1
  Hg  Hg9  1  0.21644800  0.91387400  0.65322900  1
  Hg  Hg10  1  0.57513600  0.14960100  0.70012700  1
  Hg  Hg11  1  0.28200700  0.70754100  0.72844400  1
  Hg  Hg12  1  0.49783800  0.37184000  0.63248500  1
  Hg  Hg13  1  0.07359100  0.34244600  0.51037200  1
  Hg  Hg14  1  0.43227800  0.57817300  0.55727000  1
  Hg  Hg15  1  0.13915000  0.13611300  0.58558700  1
  Hg  Hg16  1  0.35498000  0.80041100  0.48962800  1
  Hg  Hg17  1  0.93073400  0.77101700  0.36751500  1
  Hg  Hg18  1  0.28942100  0.00674400  0.41441300  1
  Hg  Hg19  1  0.99629300  0.56468400  0.44273000  1
  Hg  Hg20  1  0.21212300  0.22898300  0.34677100  1
  Hg  Hg21  1  0.78787700  0.19958900  0.22465800  1
  Hg  Hg22  1  0.14656400  0.43531600  0.27155600  1
  Hg  Hg23  1  0.85343600  0.99325600  0.29987300  1
