# generated using pymatgen
data_LaMg13
_symmetry_space_group_name_H-M   'P 1'
_cell_length_a   7.89430435
_cell_length_b   7.89430387
_cell_length_c   41.19217000
_cell_angle_alpha   89.77228393
_cell_angle_beta   89.77228395
_cell_angle_gamma   81.87253169
_symmetry_Int_Tables_number   1
_chemical_formula_structural   LaMg13
_chemical_formula_sum   'La4 Mg52'
_cell_volume   2541.27845959
_cell_formula_units_Z   4
loop_
 _symmetry_equiv_pos_site_id
 _symmetry_equiv_pos_as_xyz
  1  'x, y, z'
loop_
 _atom_site_type_symbol
 _atom_site_label
 _atom_site_symmetry_multiplicity
 _atom_site_fract_x
 _atom_site_fract_y
 _atom_site_fract_z
 _atom_site_occupancy
  La  La0  1  0.14338600  0.14338600  0.73076900  1
  La  La1  1  0.39338600  0.39338600  0.60576900  1
  La  La2  1  0.64338600  0.64338600  0.48076900  1
  La  La3  1  0.89338600  0.89338600  0.35576900  1
  Mg  Mg4  1  0.51838600  0.01838600  0.79326900  1
  Mg  Mg5  1  0.64338600  0.14338600  0.73076900  1
  Mg  Mg6  1  0.14338600  0.64338600  0.73076900  1
  Mg  Mg7  1  0.01838600  0.51838600  0.79326900  1
  Mg  Mg8  1  0.79047800  0.49629500  0.73076900  1
  Mg  Mg9  1  0.49629500  0.79047800  0.73076900  1
  Mg  Mg10  1  0.40806800  0.40806800  0.77488300  1
  Mg  Mg11  1  0.87870500  0.87870500  0.68665600  1
  Mg  Mg12  1  0.23238800  0.80438500  0.79326900  1
  Mg  Mg13  1  0.80438500  0.23238800  0.79326900  1
  Mg  Mg14  1  0.85788600  0.85788600  0.76651900  1
  Mg  Mg15  1  0.42888700  0.42888700  0.69501900  1
  Mg  Mg16  1  0.76838600  0.26838600  0.66826900  1
  Mg  Mg17  1  0.89338600  0.39338600  0.60576900  1
  Mg  Mg18  1  0.39338600  0.89338600  0.60576900  1
  Mg  Mg19  1  0.26838600  0.76838600  0.66826900  1
  Mg  Mg20  1  0.04047800  0.74629500  0.60576900  1
  Mg  Mg21  1  0.74629500  0.04047800  0.60576900  1
  Mg  Mg22  1  0.65806800  0.65806800  0.64988300  1
  Mg  Mg23  1  0.12870500  0.12870500  0.56165600  1
  Mg  Mg24  1  0.48238800  0.05438500  0.66826900  1
  Mg  Mg25  1  0.05438500  0.48238800  0.66826900  1
  Mg  Mg26  1  0.10788600  0.10788600  0.64151900  1
  Mg  Mg27  1  0.67888700  0.67888700  0.57001900  1
  Mg  Mg28  1  0.01838600  0.51838600  0.54326900  1
  Mg  Mg29  1  0.14338600  0.64338600  0.48076900  1
  Mg  Mg30  1  0.64338600  0.14338600  0.48076900  1
  Mg  Mg31  1  0.51838600  0.01838600  0.54326900  1
  Mg  Mg32  1  0.29047800  0.99629500  0.48076900  1
  Mg  Mg33  1  0.99629500  0.29047800  0.48076900  1
  Mg  Mg34  1  0.90806800  0.90806800  0.52488300  1
  Mg  Mg35  1  0.37870500  0.37870500  0.43665600  1
  Mg  Mg36  1  0.73238800  0.30438500  0.54326900  1
  Mg  Mg37  1  0.30438500  0.73238800  0.54326900  1
  Mg  Mg38  1  0.35788600  0.35788600  0.51651900  1
  Mg  Mg39  1  0.92888700  0.92888700  0.44501900  1
  Mg  Mg40  1  0.26838600  0.76838600  0.41826900  1
  Mg  Mg41  1  0.39338600  0.89338600  0.35576900  1
  Mg  Mg42  1  0.89338600  0.39338600  0.35576900  1
  Mg  Mg43  1  0.76838600  0.26838600  0.41826900  1
  Mg  Mg44  1  0.54047800  0.24629500  0.35576900  1
  Mg  Mg45  1  0.24629500  0.54047800  0.35576900  1
  Mg  Mg46  1  0.15806800  0.15806800  0.39988300  1
  Mg  Mg47  1  0.62870500  0.62870500  0.31165600  1
  Mg  Mg48  1  0.98238800  0.55438500  0.41826900  1
  Mg  Mg49  1  0.55438500  0.98238800  0.41826900  1
  Mg  Mg50  1  0.60788600  0.60788600  0.39151900  1
  Mg  Mg51  1  0.17888700  0.17888700  0.32001900  1
  Mg  Mg52  1  0.51838600  0.01838600  0.29326900  1
  Mg  Mg53  1  0.01838600  0.51838600  0.29326900  1
  Mg  Mg54  1  0.23238800  0.80438500  0.29326900  1
  Mg  Mg55  1  0.80438500  0.23238800  0.29326900  1
