# generated using pymatgen
data_Mg2Au
_symmetry_space_group_name_H-M   'P 1'
_cell_length_a   6.30829800
_cell_length_b   8.57805800
_cell_length_c   43.87714400
_cell_angle_alpha   90.00000000
_cell_angle_beta   90.00000000
_cell_angle_gamma   90.00000000
_symmetry_Int_Tables_number   1
_chemical_formula_structural   Mg2Au
_chemical_formula_sum   'Mg48 Au24'
_cell_volume   2374.32152940
_cell_formula_units_Z   24
loop_
 _symmetry_equiv_pos_site_id
 _symmetry_equiv_pos_as_xyz
  1  'x, y, z'
loop_
 _atom_site_type_symbol
 _atom_site_label
 _atom_site_symmetry_multiplicity
 _atom_site_fract_x
 _atom_site_fract_y
 _atom_site_fract_z
 _atom_site_occupancy
  Mg  Mg0  1  0.16681800  0.05361800  0.77500000  1
  Mg  Mg1  1  0.66681800  0.44638200  0.77500000  1
  Mg  Mg2  1  0.83318200  0.94638200  0.72500000  1
  Mg  Mg3  1  0.33318200  0.55361800  0.72500000  1
  Mg  Mg4  1  0.53839600  0.80647600  0.77500000  1
  Mg  Mg5  1  0.03839600  0.69352400  0.77500000  1
  Mg  Mg6  1  0.46160400  0.19352400  0.72500000  1
  Mg  Mg7  1  0.96160400  0.30647600  0.72500000  1
  Mg  Mg8  1  0.16681800  0.05361800  0.67500000  1
  Mg  Mg9  1  0.66681800  0.44638200  0.67500000  1
  Mg  Mg10  1  0.83318200  0.94638200  0.62500000  1
  Mg  Mg11  1  0.33318200  0.55361800  0.62500000  1
  Mg  Mg12  1  0.53839600  0.80647600  0.67500000  1
  Mg  Mg13  1  0.03839600  0.69352400  0.67500000  1
  Mg  Mg14  1  0.46160400  0.19352400  0.62500000  1
  Mg  Mg15  1  0.96160400  0.30647600  0.62500000  1
  Mg  Mg16  1  0.16681800  0.05361800  0.57500000  1
  Mg  Mg17  1  0.66681800  0.44638200  0.57500000  1
  Mg  Mg18  1  0.83318200  0.94638200  0.52500000  1
  Mg  Mg19  1  0.33318200  0.55361800  0.52500000  1
  Mg  Mg20  1  0.53839600  0.80647600  0.57500000  1
  Mg  Mg21  1  0.03839600  0.69352400  0.57500000  1
  Mg  Mg22  1  0.46160400  0.19352400  0.52500000  1
  Mg  Mg23  1  0.96160400  0.30647600  0.52500000  1
  Mg  Mg24  1  0.16681800  0.05361800  0.47500000  1
  Mg  Mg25  1  0.66681800  0.44638200  0.47500000  1
  Mg  Mg26  1  0.83318200  0.94638200  0.42500000  1
  Mg  Mg27  1  0.33318200  0.55361800  0.42500000  1
  Mg  Mg28  1  0.53839600  0.80647600  0.47500000  1
  Mg  Mg29  1  0.03839600  0.69352400  0.47500000  1
  Mg  Mg30  1  0.46160400  0.19352400  0.42500000  1
  Mg  Mg31  1  0.96160400  0.30647600  0.42500000  1
  Mg  Mg32  1  0.16681800  0.05361800  0.37500000  1
  Mg  Mg33  1  0.66681800  0.44638200  0.37500000  1
  Mg  Mg34  1  0.83318200  0.94638200  0.32500000  1
  Mg  Mg35  1  0.33318200  0.55361800  0.32500000  1
  Mg  Mg36  1  0.53839600  0.80647600  0.37500000  1
  Mg  Mg37  1  0.03839600  0.69352400  0.37500000  1
  Mg  Mg38  1  0.46160400  0.19352400  0.32500000  1
  Mg  Mg39  1  0.96160400  0.30647600  0.32500000  1
  Mg  Mg40  1  0.16681800  0.05361800  0.27500000  1
  Mg  Mg41  1  0.66681800  0.44638200  0.27500000  1
  Mg  Mg42  1  0.83318200  0.94638200  0.22500000  1
  Mg  Mg43  1  0.33318200  0.55361800  0.22500000  1
  Mg  Mg44  1  0.53839600  0.80647600  0.27500000  1
  Mg  Mg45  1  0.03839600  0.69352400  0.27500000  1
  Mg  Mg46  1  0.46160400  0.19352400  0.22500000  1
  Mg  Mg47  1  0.96160400  0.30647600  0.22500000  1
  Au  Au48  1  0.73655600  0.12928600  0.77500000  1
  Au  Au49  1  0.23655600  0.37071400  0.77500000  1
  Au  Au50  1  0.26344400  0.87071400  0.72500000  1
  Au  Au51  1  0.76344400  0.62928600  0.72500000  1
  Au  Au52  1  0.73655600  0.12928600  0.67500000  1
  Au  Au53  1  0.23655600  0.37071400  0.67500000  1
  Au  Au54  1  0.26344400  0.87071400  0.62500000  1
  Au  Au55  1  0.76344400  0.62928600  0.62500000  1
  Au  Au56  1  0.73655600  0.12928600  0.57500000  1
  Au  Au57  1  0.23655600  0.37071400  0.57500000  1
  Au  Au58  1  0.26344400  0.87071400  0.52500000  1
  Au  Au59  1  0.76344400  0.62928600  0.52500000  1
  Au  Au60  1  0.73655600  0.12928600  0.47500000  1
  Au  Au61  1  0.23655600  0.37071400  0.47500000  1
  Au  Au62  1  0.26344400  0.87071400  0.42500000  1
  Au  Au63  1  0.76344400  0.62928600  0.42500000  1
  Au  Au64  1  0.73655600  0.12928600  0.37500000  1
  Au  Au65  1  0.23655600  0.37071400  0.37500000  1
  Au  Au66  1  0.26344400  0.87071400  0.32500000  1
  Au  Au67  1  0.76344400  0.62928600  0.32500000  1
  Au  Au68  1  0.73655600  0.12928600  0.27500000  1
  Au  Au69  1  0.23655600  0.37071400  0.27500000  1
  Au  Au70  1  0.26344400  0.87071400  0.22500000  1
  Au  Au71  1  0.76344400  0.62928600  0.22500000  1
