# generated using pymatgen
data_Mg25Ir6
_symmetry_space_group_name_H-M   'P 1'
_cell_length_a   8.24582600
_cell_length_b   9.82944229
_cell_length_c   49.03777500
_cell_angle_alpha   90.00000000
_cell_angle_beta   90.00000000
_cell_angle_gamma   106.23813566
_symmetry_Int_Tables_number   1
_chemical_formula_structural   Mg25Ir6
_chemical_formula_sum   'Mg100 Ir24'
_cell_volume   3816.04764390
_cell_formula_units_Z   4
loop_
 _symmetry_equiv_pos_site_id
 _symmetry_equiv_pos_as_xyz
  1  'x, y, z'
loop_
 _atom_site_type_symbol
 _atom_site_label
 _atom_site_symmetry_multiplicity
 _atom_site_fract_x
 _atom_site_fract_y
 _atom_site_fract_z
 _atom_site_occupancy
  Mg  Mg0  1  0.77796400  0.83389300  0.76041700  1
  Mg  Mg1  1  0.52796400  0.08389300  0.67708300  1
  Mg  Mg2  1  0.27796400  0.33389300  0.76041700  1
  Mg  Mg3  1  0.27796400  0.83389300  0.76041700  1
  Mg  Mg4  1  0.02796400  0.08389300  0.67708300  1
  Mg  Mg5  1  0.77796400  0.33389300  0.76041700  1
  Mg  Mg6  1  0.96169300  0.13508000  0.73832600  1
  Mg  Mg7  1  0.27796400  0.08389300  0.72126400  1
  Mg  Mg8  1  0.59423500  0.03270600  0.73832600  1
  Mg  Mg9  1  0.59423500  0.53270600  0.78250700  1
  Mg  Mg10  1  0.27796400  0.58389300  0.79956900  1
  Mg  Mg11  1  0.96169300  0.63508000  0.78250700  1
  Mg  Mg12  1  0.77796400  0.58389300  0.67708300  1
  Mg  Mg13  1  0.27796400  0.58389300  0.67708300  1
  Mg  Mg14  1  0.69405000  0.34612900  0.82510700  1
  Mg  Mg15  1  0.53496800  0.86888200  0.80936500  1
  Mg  Mg16  1  0.09089700  0.53666800  0.73011100  1
  Mg  Mg17  1  0.46503200  0.63111800  0.73011100  1
  Mg  Mg18  1  0.02096100  0.29890400  0.80936500  1
  Mg  Mg19  1  0.86187800  0.82165700  0.82510700  1
  Mg  Mg20  1  0.86187800  0.32165700  0.69572600  1
  Mg  Mg21  1  0.02096100  0.79890400  0.71146800  1
  Mg  Mg22  1  0.46503200  0.13111800  0.79072300  1
  Mg  Mg23  1  0.09089700  0.03666800  0.79072300  1
  Mg  Mg24  1  0.53496800  0.36888200  0.71146800  1
  Mg  Mg25  1  0.69405000  0.84612900  0.69572600  1
  Mg  Mg26  1  0.27796400  0.33389300  0.59375000  1
  Mg  Mg27  1  0.02796400  0.58389300  0.51041700  1
  Mg  Mg28  1  0.77796400  0.83389300  0.59375000  1
  Mg  Mg29  1  0.77796400  0.33389300  0.59375000  1
  Mg  Mg30  1  0.52796400  0.58389300  0.51041700  1
  Mg  Mg31  1  0.27796400  0.83389300  0.59375000  1
  Mg  Mg32  1  0.46169300  0.63508000  0.57166000  1
  Mg  Mg33  1  0.77796400  0.58389300  0.55459700  1
  Mg  Mg34  1  0.09423500  0.53270600  0.57166000  1
  Mg  Mg35  1  0.09423500  0.03270600  0.61584000  1
  Mg  Mg36  1  0.77796400  0.08389300  0.63290300  1
  Mg  Mg37  1  0.46169300  0.13508000  0.61584000  1
  Mg  Mg38  1  0.27796400  0.08389300  0.51041700  1
  Mg  Mg39  1  0.77796400  0.08389300  0.51041700  1
  Mg  Mg40  1  0.19405000  0.84612900  0.65844000  1
  Mg  Mg41  1  0.03496800  0.36888200  0.64269900  1
  Mg  Mg42  1  0.59089700  0.03666800  0.56344400  1
  Mg  Mg43  1  0.96503200  0.13111800  0.56344400  1
  Mg  Mg44  1  0.52096100  0.79890400  0.64269900  1
  Mg  Mg45  1  0.36187800  0.32165700  0.65844000  1
  Mg  Mg46  1  0.36187800  0.82165700  0.52906000  1
  Mg  Mg47  1  0.52096100  0.29890400  0.54480100  1
  Mg  Mg48  1  0.96503200  0.63111800  0.62405600  1
  Mg  Mg49  1  0.59089700  0.53666800  0.62405600  1
  Mg  Mg50  1  0.03496800  0.86888200  0.54480100  1
  Mg  Mg51  1  0.19405000  0.34612900  0.52906000  1
  Mg  Mg52  1  0.77796400  0.83389300  0.42708300  1
  Mg  Mg53  1  0.52796400  0.08389300  0.34375000  1
  Mg  Mg54  1  0.27796400  0.33389300  0.42708300  1
  Mg  Mg55  1  0.27796400  0.83389300  0.42708300  1
  Mg  Mg56  1  0.02796400  0.08389300  0.34375000  1
  Mg  Mg57  1  0.77796400  0.33389300  0.42708300  1
  Mg  Mg58  1  0.96169300  0.13508000  0.40499300  1
  Mg  Mg59  1  0.27796400  0.08389300  0.38793100  1
  Mg  Mg60  1  0.59423500  0.03270600  0.40499300  1
  Mg  Mg61  1  0.59423500  0.53270600  0.44917400  1
  Mg  Mg62  1  0.27796400  0.58389300  0.46623600  1
  Mg  Mg63  1  0.96169300  0.63508000  0.44917400  1
  Mg  Mg64  1  0.77796400  0.58389300  0.34375000  1
  Mg  Mg65  1  0.27796400  0.58389300  0.34375000  1
  Mg  Mg66  1  0.69405000  0.34612900  0.49177400  1
  Mg  Mg67  1  0.53496800  0.86888200  0.47603200  1
  Mg  Mg68  1  0.09089700  0.53666800  0.39677700  1
  Mg  Mg69  1  0.46503200  0.63111800  0.39677700  1
  Mg  Mg70  1  0.02096100  0.29890400  0.47603200  1
  Mg  Mg71  1  0.86187800  0.82165700  0.49177400  1
  Mg  Mg72  1  0.86187800  0.32165700  0.36239300  1
  Mg  Mg73  1  0.02096100  0.79890400  0.37813500  1
  Mg  Mg74  1  0.46503200  0.13111800  0.45738900  1
  Mg  Mg75  1  0.09089700  0.03666800  0.45738900  1
  Mg  Mg76  1  0.53496800  0.36888200  0.37813500  1
  Mg  Mg77  1  0.69405000  0.84612900  0.36239300  1
  Mg  Mg78  1  0.27796400  0.33389300  0.26041700  1
  Mg  Mg79  1  0.77796400  0.83389300  0.26041700  1
  Mg  Mg80  1  0.77796400  0.33389300  0.26041700  1
  Mg  Mg81  1  0.27796400  0.83389300  0.26041700  1
  Mg  Mg82  1  0.46169300  0.63508000  0.23832600  1
  Mg  Mg83  1  0.77796400  0.58389300  0.22126400  1
  Mg  Mg84  1  0.09423500  0.53270600  0.23832600  1
  Mg  Mg85  1  0.09423500  0.03270600  0.28250700  1
  Mg  Mg86  1  0.77796400  0.08389300  0.29956900  1
  Mg  Mg87  1  0.46169300  0.13508000  0.28250700  1
  Mg  Mg88  1  0.19405000  0.84612900  0.32510700  1
  Mg  Mg89  1  0.03496800  0.36888200  0.30936500  1
  Mg  Mg90  1  0.59089700  0.03666800  0.23011100  1
  Mg  Mg91  1  0.96503200  0.13111800  0.23011100  1
  Mg  Mg92  1  0.52096100  0.79890400  0.30936500  1
  Mg  Mg93  1  0.36187800  0.32165700  0.32510700  1
  Mg  Mg94  1  0.36187800  0.82165700  0.19572600  1
  Mg  Mg95  1  0.52096100  0.29890400  0.21146800  1
  Mg  Mg96  1  0.96503200  0.63111800  0.29072300  1
  Mg  Mg97  1  0.59089700  0.53666800  0.29072300  1
  Mg  Mg98  1  0.03496800  0.86888200  0.21146800  1
  Mg  Mg99  1  0.19405000  0.34612900  0.19572600  1
  Ir  Ir100  1  0.19163900  0.32491700  0.70585800  1
  Ir  Ir101  1  0.77796400  0.08389300  0.78620000  1
  Ir  Ir102  1  0.36429000  0.84286900  0.70585800  1
  Ir  Ir103  1  0.36429000  0.34286900  0.81497500  1
  Ir  Ir104  1  0.77796400  0.58389300  0.73463400  1
  Ir  Ir105  1  0.19163900  0.82491700  0.81497500  1
  Ir  Ir106  1  0.69163900  0.82491700  0.53919200  1
  Ir  Ir107  1  0.27796400  0.58389300  0.61953300  1
  Ir  Ir108  1  0.86429000  0.34286900  0.53919200  1
  Ir  Ir109  1  0.86429000  0.84286900  0.64830800  1
  Ir  Ir110  1  0.27796400  0.08389300  0.56796700  1
  Ir  Ir111  1  0.69163900  0.32491700  0.64830800  1
  Ir  Ir112  1  0.19163900  0.32491700  0.37252500  1
  Ir  Ir113  1  0.77796400  0.08389300  0.45286600  1
  Ir  Ir114  1  0.36429000  0.84286900  0.37252500  1
  Ir  Ir115  1  0.36429000  0.34286900  0.48164200  1
  Ir  Ir116  1  0.77796400  0.58389300  0.40130000  1
  Ir  Ir117  1  0.19163900  0.82491700  0.48164200  1
  Ir  Ir118  1  0.69163900  0.82491700  0.20585800  1
  Ir  Ir119  1  0.27796400  0.58389300  0.28620000  1
  Ir  Ir120  1  0.86429000  0.34286900  0.20585800  1
  Ir  Ir121  1  0.86429000  0.84286900  0.31497500  1
  Ir  Ir122  1  0.27796400  0.08389300  0.23463400  1
  Ir  Ir123  1  0.69163900  0.32491700  0.31497500  1
