# generated using pymatgen
data_La24Mg193
_symmetry_space_group_name_H-M   'P 1'
_cell_length_a   14.48655054
_cell_length_b   14.48655091
_cell_length_c   46.20124100
_cell_angle_alpha   88.97401161
_cell_angle_beta   91.02598842
_cell_angle_gamma   103.21378408
_symmetry_Int_Tables_number   1
_chemical_formula_structural   La24Mg193
_chemical_formula_sum   'La24 Mg193'
_cell_volume   9436.62924609
_cell_formula_units_Z   1
loop_
 _symmetry_equiv_pos_site_id
 _symmetry_equiv_pos_as_xyz
  1  'x, y, z'
loop_
 _atom_site_type_symbol
 _atom_site_label
 _atom_site_symmetry_multiplicity
 _atom_site_fract_x
 _atom_site_fract_y
 _atom_site_fract_z
 _atom_site_occupancy
  La  La0  1  0.94548700  0.38784600  0.26052600  1
  La  La1  1  0.41215400  0.25451300  0.21052600  1
  La  La2  1  0.07882000  0.92118000  0.21052600  1
  La  La3  1  0.27882000  0.72118000  0.26052600  1
  La  La4  1  0.34548700  0.98784600  0.36052600  1
  La  La5  1  0.81215400  0.85451300  0.31052600  1
  La  La6  1  0.47882000  0.52118000  0.31052600  1
  La  La7  1  0.67882000  0.32118000  0.36052600  1
  La  La8  1  0.74548700  0.58784600  0.46052600  1
  La  La9  1  0.21215400  0.45451300  0.41052600  1
  La  La10  1  0.87882000  0.12118000  0.41052600  1
  La  La11  1  0.07882000  0.92118000  0.46052600  1
  La  La12  1  0.14548700  0.18784600  0.56052600  1
  La  La13  1  0.61215400  0.05451300  0.51052600  1
  La  La14  1  0.27882000  0.72118000  0.51052600  1
  La  La15  1  0.47882000  0.52118000  0.56052600  1
  La  La16  1  0.54548700  0.78784600  0.66052600  1
  La  La17  1  0.01215400  0.65451300  0.61052600  1
  La  La18  1  0.67882000  0.32118000  0.61052600  1
  La  La19  1  0.87882000  0.12118000  0.66052600  1
  La  La20  1  0.94548700  0.38784600  0.76052600  1
  La  La21  1  0.41215400  0.25451300  0.71052600  1
  La  La22  1  0.07882000  0.92118000  0.71052600  1
  La  La23  1  0.27882000  0.72118000  0.76052600  1
  Mg  Mg24  1  0.35473400  0.48304300  0.23894900  1
  Mg  Mg25  1  0.85740000  0.98037700  0.23628300  1
  Mg  Mg26  1  0.54940100  0.77504500  0.28761600  1
  Mg  Mg27  1  0.02495500  0.65059900  0.23761600  1
  Mg  Mg28  1  0.55148700  0.11517900  0.24536000  1
  Mg  Mg29  1  0.68482100  0.64851300  0.19536000  1
  Mg  Mg30  1  0.80615300  0.52718000  0.22569300  1
  Mg  Mg31  1  0.67282000  0.99384700  0.27569300  1
  Mg  Mg32  1  0.37882000  0.12118000  0.28552600  1
  Mg  Mg33  1  0.67882000  0.82118000  0.23552600  1
  Mg  Mg34  1  0.87882000  0.12118000  0.28552600  1
  Mg  Mg35  1  0.67882000  0.32118000  0.23552600  1
  Mg  Mg36  1  0.87882000  0.62118000  0.28552600  1
  Mg  Mg37  1  0.17882000  0.32118000  0.23552600  1
  Mg  Mg38  1  0.15433200  0.51719900  0.22078100  1
  Mg  Mg39  1  0.86794200  0.76909600  0.23992400  1
  Mg  Mg40  1  0.56521000  0.46928300  0.24138300  1
  Mg  Mg41  1  0.79243100  0.17307600  0.22966900  1
  Mg  Mg42  1  0.48969900  0.87326300  0.23112900  1
  Mg  Mg43  1  0.32673700  0.31030100  0.28112900  1
  Mg  Mg44  1  0.68280100  0.64566800  0.27078100  1
  Mg  Mg45  1  0.20330900  0.12516000  0.25027200  1
  Mg  Mg46  1  0.02692400  0.00756900  0.27966900  1
  Mg  Mg47  1  0.33071700  0.63479000  0.19138300  1
  Mg  Mg48  1  0.43090400  0.93205800  0.28992400  1
  Mg  Mg49  1  0.67484000  0.99669100  0.20027200  1
  Mg  Mg50  1  0.04068400  0.79709300  0.28210400  1
  Mg  Mg51  1  0.00290700  0.15931600  0.23210400  1
  Mg  Mg52  1  0.20824000  0.46731400  0.28343700  1
  Mg  Mg53  1  0.33268600  0.99176000  0.23343700  1
  Mg  Mg54  1  0.53801800  0.29975900  0.28477000  1
  Mg  Mg55  1  0.71695700  0.44526600  0.28894900  1
  Mg  Mg56  1  0.21962300  0.94260000  0.28628300  1
  Mg  Mg57  1  0.50024100  0.66198200  0.23477000  1
  Mg  Mg58  1  0.75473400  0.08304300  0.33894900  1
  Mg  Mg59  1  0.25740000  0.58037700  0.33628300  1
  Mg  Mg60  1  0.94940100  0.37504500  0.38761600  1
  Mg  Mg61  1  0.42495500  0.25059900  0.33761600  1
  Mg  Mg62  1  0.95148700  0.71517900  0.34536000  1
  Mg  Mg63  1  0.08482100  0.24851300  0.29536000  1
  Mg  Mg64  1  0.20615300  0.12718000  0.32569300  1
  Mg  Mg65  1  0.07282000  0.59384700  0.37569300  1
  Mg  Mg66  1  0.77882000  0.72118000  0.38552600  1
  Mg  Mg67  1  0.07882000  0.42118000  0.33552600  1
  Mg  Mg68  1  0.27882000  0.72118000  0.38552600  1
  Mg  Mg69  1  0.07882000  0.92118000  0.33552600  1
  Mg  Mg70  1  0.27882000  0.22118000  0.38552600  1
  Mg  Mg71  1  0.57882000  0.92118000  0.33552600  1
  Mg  Mg72  1  0.55433200  0.11719900  0.32078100  1
  Mg  Mg73  1  0.26794200  0.36909600  0.33992400  1
  Mg  Mg74  1  0.96521000  0.06928300  0.34138300  1
  Mg  Mg75  1  0.19243100  0.77307600  0.32966900  1
  Mg  Mg76  1  0.88969900  0.47326300  0.33112900  1
  Mg  Mg77  1  0.72673700  0.91030100  0.38112900  1
  Mg  Mg78  1  0.08280100  0.24566800  0.37078100  1
  Mg  Mg79  1  0.60330900  0.72516000  0.35027200  1
  Mg  Mg80  1  0.42692400  0.60756900  0.37966900  1
  Mg  Mg81  1  0.73071700  0.23479000  0.29138300  1
  Mg  Mg82  1  0.83090400  0.53205800  0.38992400  1
  Mg  Mg83  1  0.07484000  0.59669100  0.30027200  1
  Mg  Mg84  1  0.44068400  0.39709300  0.38210400  1
  Mg  Mg85  1  0.40290700  0.75931600  0.33210400  1
  Mg  Mg86  1  0.60824000  0.06731400  0.38343700  1
  Mg  Mg87  1  0.73268600  0.59176000  0.33343700  1
  Mg  Mg88  1  0.93801800  0.89975900  0.38477000  1
  Mg  Mg89  1  0.11695700  0.04526600  0.38894900  1
  Mg  Mg90  1  0.61962300  0.54260000  0.38628300  1
  Mg  Mg91  1  0.90024100  0.26198200  0.33477000  1
  Mg  Mg92  1  0.15473400  0.68304300  0.43894900  1
  Mg  Mg93  1  0.65740000  0.18037700  0.43628300  1
  Mg  Mg94  1  0.34940100  0.97504500  0.48761600  1
  Mg  Mg95  1  0.82495500  0.85059900  0.43761600  1
  Mg  Mg96  1  0.35148700  0.31517900  0.44536000  1
  Mg  Mg97  1  0.48482100  0.84851300  0.39536000  1
  Mg  Mg98  1  0.60615300  0.72718000  0.42569300  1
  Mg  Mg99  1  0.47282000  0.19384700  0.47569300  1
  Mg  Mg100  1  0.17882000  0.32118000  0.48552600  1
  Mg  Mg101  1  0.47882000  0.02118000  0.43552600  1
  Mg  Mg102  1  0.67882000  0.32118000  0.48552600  1
  Mg  Mg103  1  0.47882000  0.52118000  0.43552600  1
  Mg  Mg104  1  0.67882000  0.82118000  0.48552600  1
  Mg  Mg105  1  0.97882000  0.52118000  0.43552600  1
  Mg  Mg106  1  0.95433200  0.71719900  0.42078100  1
  Mg  Mg107  1  0.66794200  0.96909600  0.43992400  1
  Mg  Mg108  1  0.36521000  0.66928300  0.44138300  1
  Mg  Mg109  1  0.59243100  0.37307600  0.42966900  1
  Mg  Mg110  1  0.28969900  0.07326300  0.43112900  1
  Mg  Mg111  1  0.12673700  0.51030100  0.48112900  1
  Mg  Mg112  1  0.48280100  0.84566800  0.47078100  1
  Mg  Mg113  1  0.00330900  0.32516000  0.45027200  1
  Mg  Mg114  1  0.82692400  0.20756900  0.47966900  1
  Mg  Mg115  1  0.13071700  0.83479000  0.39138300  1
  Mg  Mg116  1  0.23090400  0.13205800  0.48992400  1
  Mg  Mg117  1  0.47484000  0.19669100  0.40027200  1
  Mg  Mg118  1  0.84068400  0.99709300  0.48210400  1
  Mg  Mg119  1  0.80290700  0.35931600  0.43210400  1
  Mg  Mg120  1  0.00824000  0.66731400  0.48343700  1
  Mg  Mg121  1  0.13268600  0.19176000  0.43343700  1
  Mg  Mg122  1  0.33801800  0.49975900  0.48477000  1
  Mg  Mg123  1  0.51695700  0.64526600  0.48894900  1
  Mg  Mg124  1  0.01962300  0.14260000  0.48628300  1
  Mg  Mg125  1  0.30024100  0.86198200  0.43477000  1
  Mg  Mg126  1  0.55473400  0.28304300  0.53894900  1
  Mg  Mg127  1  0.05740000  0.78037700  0.53628300  1
  Mg  Mg128  1  0.74940100  0.57504500  0.58761600  1
  Mg  Mg129  1  0.22495500  0.45059900  0.53761600  1
  Mg  Mg130  1  0.75148700  0.91517900  0.54536000  1
  Mg  Mg131  1  0.88482100  0.44851300  0.49536000  1
  Mg  Mg132  1  0.00615300  0.32718000  0.52569300  1
  Mg  Mg133  1  0.87282000  0.79384700  0.57569300  1
  Mg  Mg134  1  0.57882000  0.92118000  0.58552600  1
  Mg  Mg135  1  0.87882000  0.62118000  0.53552600  1
  Mg  Mg136  1  0.07882000  0.92118000  0.58552600  1
  Mg  Mg137  1  0.87882000  0.12118000  0.53552600  1
  Mg  Mg138  1  0.07882000  0.42118000  0.58552600  1
  Mg  Mg139  1  0.37882000  0.12118000  0.53552600  1
  Mg  Mg140  1  0.35433200  0.31719900  0.52078100  1
  Mg  Mg141  1  0.06794200  0.56909600  0.53992400  1
  Mg  Mg142  1  0.76521000  0.26928300  0.54138300  1
  Mg  Mg143  1  0.99243100  0.97307600  0.52966900  1
  Mg  Mg144  1  0.68969900  0.67326300  0.53112900  1
  Mg  Mg145  1  0.52673700  0.11030100  0.58112900  1
  Mg  Mg146  1  0.88280100  0.44566800  0.57078100  1
  Mg  Mg147  1  0.40330900  0.92516000  0.55027200  1
  Mg  Mg148  1  0.22692400  0.80756900  0.57966900  1
  Mg  Mg149  1  0.53071700  0.43479000  0.49138300  1
  Mg  Mg150  1  0.63090400  0.73205800  0.58992400  1
  Mg  Mg151  1  0.87484000  0.79669100  0.50027200  1
  Mg  Mg152  1  0.24068400  0.59709300  0.58210400  1
  Mg  Mg153  1  0.20290700  0.95931600  0.53210400  1
  Mg  Mg154  1  0.40824000  0.26731400  0.58343700  1
  Mg  Mg155  1  0.53268600  0.79176000  0.53343700  1
  Mg  Mg156  1  0.73801800  0.09975900  0.58477000  1
  Mg  Mg157  1  0.91695700  0.24526600  0.58894900  1
  Mg  Mg158  1  0.41962300  0.74260000  0.58628300  1
  Mg  Mg159  1  0.70024100  0.46198200  0.53477000  1
  Mg  Mg160  1  0.95473400  0.88304300  0.63894900  1
  Mg  Mg161  1  0.45740000  0.38037700  0.63628300  1
  Mg  Mg162  1  0.14940100  0.17504500  0.68761600  1
  Mg  Mg163  1  0.62495500  0.05059900  0.63761600  1
  Mg  Mg164  1  0.15148700  0.51517900  0.64536000  1
  Mg  Mg165  1  0.28482100  0.04851300  0.59536000  1
  Mg  Mg166  1  0.40615300  0.92718000  0.62569300  1
  Mg  Mg167  1  0.27282000  0.39384700  0.67569300  1
  Mg  Mg168  1  0.97882000  0.52118000  0.68552600  1
  Mg  Mg169  1  0.27882000  0.22118000  0.63552600  1
  Mg  Mg170  1  0.47882000  0.52118000  0.68552600  1
  Mg  Mg171  1  0.27882000  0.72118000  0.63552600  1
  Mg  Mg172  1  0.47882000  0.02118000  0.68552600  1
  Mg  Mg173  1  0.77882000  0.72118000  0.63552600  1
  Mg  Mg174  1  0.75433200  0.91719900  0.62078100  1
  Mg  Mg175  1  0.46794200  0.16909600  0.63992400  1
  Mg  Mg176  1  0.16521000  0.86928300  0.64138300  1
  Mg  Mg177  1  0.39243100  0.57307600  0.62966900  1
  Mg  Mg178  1  0.08969900  0.27326300  0.63112900  1
  Mg  Mg179  1  0.92673700  0.71030100  0.68112900  1
  Mg  Mg180  1  0.28280100  0.04566800  0.67078100  1
  Mg  Mg181  1  0.80330900  0.52516000  0.65027200  1
  Mg  Mg182  1  0.62692400  0.40756900  0.67966900  1
  Mg  Mg183  1  0.93071700  0.03479000  0.59138300  1
  Mg  Mg184  1  0.03090400  0.33205800  0.68992400  1
  Mg  Mg185  1  0.27484000  0.39669100  0.60027200  1
  Mg  Mg186  1  0.64068400  0.19709300  0.68210400  1
  Mg  Mg187  1  0.60290700  0.55931600  0.63210400  1
  Mg  Mg188  1  0.80824000  0.86731400  0.68343700  1
  Mg  Mg189  1  0.93268600  0.39176000  0.63343700  1
  Mg  Mg190  1  0.13801800  0.69975900  0.68477000  1
  Mg  Mg191  1  0.31695700  0.84526600  0.68894900  1
  Mg  Mg192  1  0.81962300  0.34260000  0.68628300  1
  Mg  Mg193  1  0.10024100  0.06198200  0.63477000  1
  Mg  Mg194  1  0.35473400  0.48304300  0.73894900  1
  Mg  Mg195  1  0.85740000  0.98037700  0.73628300  1
  Mg  Mg196  1  0.02495500  0.65059900  0.73761600  1
  Mg  Mg197  1  0.55148700  0.11517900  0.74536000  1
  Mg  Mg198  1  0.68482100  0.64851300  0.69536000  1
  Mg  Mg199  1  0.80615300  0.52718000  0.72569300  1
  Mg  Mg200  1  0.67282000  0.99384700  0.77569300  1
  Mg  Mg201  1  0.67882000  0.82118000  0.73552600  1
  Mg  Mg202  1  0.67882000  0.32118000  0.73552600  1
  Mg  Mg203  1  0.17882000  0.32118000  0.73552600  1
  Mg  Mg204  1  0.15433200  0.51719900  0.72078100  1
  Mg  Mg205  1  0.86794200  0.76909600  0.73992400  1
  Mg  Mg206  1  0.56521000  0.46928300  0.74138300  1
  Mg  Mg207  1  0.79243100  0.17307600  0.72966900  1
  Mg  Mg208  1  0.48969900  0.87326300  0.73112900  1
  Mg  Mg209  1  0.68280100  0.64566800  0.77078100  1
  Mg  Mg210  1  0.20330900  0.12516000  0.75027200  1
  Mg  Mg211  1  0.02692400  0.00756900  0.77966900  1
  Mg  Mg212  1  0.33071700  0.63479000  0.69138300  1
  Mg  Mg213  1  0.67484000  0.99669100  0.70027200  1
  Mg  Mg214  1  0.00290700  0.15931600  0.73210400  1
  Mg  Mg215  1  0.33268600  0.99176000  0.73343700  1
  Mg  Mg216  1  0.50024100  0.66198200  0.73477000  1
