# generated using pymatgen
data_Mg5Pt33
_symmetry_space_group_name_H-M   'P 1'
_cell_length_a   5.61828200
_cell_length_b   7.94545000
_cell_length_c   44.94625400
_cell_angle_alpha   90.00000000
_cell_angle_beta   90.00000000
_cell_angle_gamma   90.00000000
_symmetry_Int_Tables_number   1
_chemical_formula_structural   Mg5Pt33
_chemical_formula_sum   'Mg10 Pt66'
_cell_volume   2006.39083271
_cell_formula_units_Z   2
loop_
 _symmetry_equiv_pos_site_id
 _symmetry_equiv_pos_as_xyz
  1  'x, y, z'
loop_
 _atom_site_type_symbol
 _atom_site_label
 _atom_site_symmetry_multiplicity
 _atom_site_fract_x
 _atom_site_fract_y
 _atom_site_fract_z
 _atom_site_occupancy
  Mg  Mg0  1  0.87500000  0.00000000  0.29687500  1
  Mg  Mg1  1  0.37500000  0.50000000  0.23437500  1
  Mg  Mg2  1  0.87500000  0.00000000  0.42187500  1
  Mg  Mg3  1  0.37500000  0.50000000  0.35937500  1
  Mg  Mg4  1  0.87500000  0.00000000  0.54687500  1
  Mg  Mg5  1  0.37500000  0.50000000  0.48437500  1
  Mg  Mg6  1  0.87500000  0.00000000  0.67187500  1
  Mg  Mg7  1  0.37500000  0.50000000  0.60937500  1
  Mg  Mg8  1  0.87500000  0.00000000  0.79687500  1
  Mg  Mg9  1  0.37500000  0.50000000  0.73437500  1
  Pt  Pt10  1  0.62500000  0.25000000  0.26562500  1
  Pt  Pt11  1  0.87500000  0.00000000  0.23437500  1
  Pt  Pt12  1  0.37500000  0.00000000  0.29687500  1
  Pt  Pt13  1  0.12500000  0.25000000  0.26562500  1
  Pt  Pt14  1  0.37500000  0.00000000  0.23437500  1
  Pt  Pt15  1  0.62500000  0.75000000  0.26562500  1
  Pt  Pt16  1  0.37500000  0.50000000  0.29687500  1
  Pt  Pt17  1  0.87500000  0.50000000  0.23437500  1
  Pt  Pt18  1  0.12500000  0.75000000  0.26562500  1
  Pt  Pt19  1  0.87500000  0.50000000  0.29687500  1
  Pt  Pt20  1  0.12500000  0.25000000  0.32812500  1
  Pt  Pt21  1  0.62500000  0.25000000  0.39062500  1
  Pt  Pt22  1  0.87500000  0.00000000  0.35937500  1
  Pt  Pt23  1  0.37500000  0.00000000  0.42187500  1
  Pt  Pt24  1  0.62500000  0.25000000  0.32812500  1
  Pt  Pt25  1  0.12500000  0.25000000  0.39062500  1
  Pt  Pt26  1  0.37500000  0.00000000  0.35937500  1
  Pt  Pt27  1  0.62500000  0.75000000  0.39062500  1
  Pt  Pt28  1  0.12500000  0.75000000  0.32812500  1
  Pt  Pt29  1  0.37500000  0.50000000  0.42187500  1
  Pt  Pt30  1  0.87500000  0.50000000  0.35937500  1
  Pt  Pt31  1  0.12500000  0.75000000  0.39062500  1
  Pt  Pt32  1  0.62500000  0.75000000  0.32812500  1
  Pt  Pt33  1  0.87500000  0.50000000  0.42187500  1
  Pt  Pt34  1  0.12500000  0.25000000  0.45312500  1
  Pt  Pt35  1  0.62500000  0.25000000  0.51562500  1
  Pt  Pt36  1  0.87500000  0.00000000  0.48437500  1
  Pt  Pt37  1  0.37500000  0.00000000  0.54687500  1
  Pt  Pt38  1  0.62500000  0.25000000  0.45312500  1
  Pt  Pt39  1  0.12500000  0.25000000  0.51562500  1
  Pt  Pt40  1  0.37500000  0.00000000  0.48437500  1
  Pt  Pt41  1  0.62500000  0.75000000  0.51562500  1
  Pt  Pt42  1  0.12500000  0.75000000  0.45312500  1
  Pt  Pt43  1  0.37500000  0.50000000  0.54687500  1
  Pt  Pt44  1  0.87500000  0.50000000  0.48437500  1
  Pt  Pt45  1  0.12500000  0.75000000  0.51562500  1
  Pt  Pt46  1  0.62500000  0.75000000  0.45312500  1
  Pt  Pt47  1  0.87500000  0.50000000  0.54687500  1
  Pt  Pt48  1  0.12500000  0.25000000  0.57812500  1
  Pt  Pt49  1  0.62500000  0.25000000  0.64062500  1
  Pt  Pt50  1  0.87500000  0.00000000  0.60937500  1
  Pt  Pt51  1  0.37500000  0.00000000  0.67187500  1
  Pt  Pt52  1  0.62500000  0.25000000  0.57812500  1
  Pt  Pt53  1  0.12500000  0.25000000  0.64062500  1
  Pt  Pt54  1  0.37500000  0.00000000  0.60937500  1
  Pt  Pt55  1  0.62500000  0.75000000  0.64062500  1
  Pt  Pt56  1  0.12500000  0.75000000  0.57812500  1
  Pt  Pt57  1  0.37500000  0.50000000  0.67187500  1
  Pt  Pt58  1  0.87500000  0.50000000  0.60937500  1
  Pt  Pt59  1  0.12500000  0.75000000  0.64062500  1
  Pt  Pt60  1  0.62500000  0.75000000  0.57812500  1
  Pt  Pt61  1  0.87500000  0.50000000  0.67187500  1
  Pt  Pt62  1  0.12500000  0.25000000  0.70312500  1
  Pt  Pt63  1  0.62500000  0.25000000  0.76562500  1
  Pt  Pt64  1  0.87500000  0.00000000  0.73437500  1
  Pt  Pt65  1  0.37500000  0.00000000  0.79687500  1
  Pt  Pt66  1  0.62500000  0.25000000  0.70312500  1
  Pt  Pt67  1  0.12500000  0.25000000  0.76562500  1
  Pt  Pt68  1  0.37500000  0.00000000  0.73437500  1
  Pt  Pt69  1  0.62500000  0.75000000  0.76562500  1
  Pt  Pt70  1  0.12500000  0.75000000  0.70312500  1
  Pt  Pt71  1  0.37500000  0.50000000  0.79687500  1
  Pt  Pt72  1  0.87500000  0.50000000  0.73437500  1
  Pt  Pt73  1  0.12500000  0.75000000  0.76562500  1
  Pt  Pt74  1  0.62500000  0.75000000  0.70312500  1
  Pt  Pt75  1  0.87500000  0.50000000  0.79687500  1
