# generated using pymatgen
data_Mg3Pd5
_symmetry_space_group_name_H-M   'P 1'
_cell_length_a   6.99934465
_cell_length_b   10.69961100
_cell_length_c   44.14461900
_cell_angle_alpha   90.00000000
_cell_angle_beta   89.32713813
_cell_angle_gamma   90.00000000
_symmetry_Int_Tables_number   1
_chemical_formula_structural   Mg3Pd5
_chemical_formula_sum   'Mg45 Pd75'
_cell_volume   3305.77424548
_cell_formula_units_Z   15
loop_
 _symmetry_equiv_pos_site_id
 _symmetry_equiv_pos_as_xyz
  1  'x, y, z'
loop_
 _atom_site_type_symbol
 _atom_site_label
 _atom_site_symmetry_multiplicity
 _atom_site_fract_x
 _atom_site_fract_y
 _atom_site_fract_z
 _atom_site_occupancy
  Mg  Mg0  1  0.71153800  0.50000000  0.25000000  1
  Mg  Mg1  1  0.40384600  0.00000000  0.21153800  1
  Mg  Mg2  1  0.80467700  0.86253400  0.19914200  1
  Mg  Mg3  1  0.00301500  0.13746600  0.22393500  1
  Mg  Mg4  1  0.31070800  0.36253400  0.26239600  1
  Mg  Mg5  1  0.11236900  0.63746600  0.23760400  1
  Mg  Mg6  1  0.32692300  0.50000000  0.32692300  1
  Mg  Mg7  1  0.01923100  0.00000000  0.28846200  1
  Mg  Mg8  1  0.42006100  0.86253400  0.27606500  1
  Mg  Mg9  1  0.61840000  0.13746600  0.30085800  1
  Mg  Mg10  1  0.92609200  0.36253400  0.33931900  1
  Mg  Mg11  1  0.72775400  0.63746600  0.31452700  1
  Mg  Mg12  1  0.94230800  0.50000000  0.40384600  1
  Mg  Mg13  1  0.63461500  0.00000000  0.36538500  1
  Mg  Mg14  1  0.03544600  0.86253400  0.35298800  1
  Mg  Mg15  1  0.23378500  0.13746600  0.37778100  1
  Mg  Mg16  1  0.54147700  0.36253400  0.41624200  1
  Mg  Mg17  1  0.34313800  0.63746600  0.39145000  1
  Mg  Mg18  1  0.55769200  0.50000000  0.48076900  1
  Mg  Mg19  1  0.25000000  0.00000000  0.44230800  1
  Mg  Mg20  1  0.65083100  0.86253400  0.42991200  1
  Mg  Mg21  1  0.84916900  0.13746600  0.45470400  1
  Mg  Mg22  1  0.15686200  0.36253400  0.49316500  1
  Mg  Mg23  1  0.95852300  0.63746600  0.46837300  1
  Mg  Mg24  1  0.17307700  0.50000000  0.55769200  1
  Mg  Mg25  1  0.86538500  0.00000000  0.51923100  1
  Mg  Mg26  1  0.26621500  0.86253400  0.50683500  1
  Mg  Mg27  1  0.46455400  0.13746600  0.53162700  1
  Mg  Mg28  1  0.77224600  0.36253400  0.57008800  1
  Mg  Mg29  1  0.57390800  0.63746600  0.54529600  1
  Mg  Mg30  1  0.78846200  0.50000000  0.63461500  1
  Mg  Mg31  1  0.48076900  0.00000000  0.59615400  1
  Mg  Mg32  1  0.88160000  0.86253400  0.58375800  1
  Mg  Mg33  1  0.07993900  0.13746600  0.60855000  1
  Mg  Mg34  1  0.38763100  0.36253400  0.64701200  1
  Mg  Mg35  1  0.18929200  0.63746600  0.62221900  1
  Mg  Mg36  1  0.40384600  0.50000000  0.71153800  1
  Mg  Mg37  1  0.09615400  0.00000000  0.67307700  1
  Mg  Mg38  1  0.49698500  0.86253400  0.66068100  1
  Mg  Mg39  1  0.69532300  0.13746600  0.68547300  1
  Mg  Mg40  1  0.00301500  0.36253400  0.72393500  1
  Mg  Mg41  1  0.80467700  0.63746600  0.69914200  1
  Mg  Mg42  1  0.71153800  0.00000000  0.75000000  1
  Mg  Mg43  1  0.11236900  0.86253400  0.73760400  1
  Mg  Mg44  1  0.31070800  0.13746600  0.76239600  1
  Pd  Pd45  1  0.79633500  0.61114300  0.19810000  1
  Pd  Pd46  1  0.01135700  0.38885700  0.22497700  1
  Pd  Pd47  1  0.31904900  0.11114300  0.26343900  1
  Pd  Pd48  1  0.10402800  0.88885700  0.23656100  1
  Pd  Pd49  1  0.47242400  0.75616100  0.22011100  1
  Pd  Pd50  1  0.33526800  0.24383900  0.20296600  1
  Pd  Pd51  1  0.64296000  0.25616100  0.24142800  1
  Pd  Pd52  1  0.78011700  0.74383900  0.25857200  1
  Pd  Pd53  1  0.71153800  0.00000000  0.25000000  1
  Pd  Pd54  1  0.40384600  0.50000000  0.21153800  1
  Pd  Pd55  1  0.41172000  0.61114300  0.27502300  1
  Pd  Pd56  1  0.62674100  0.38885700  0.30190000  1
  Pd  Pd57  1  0.93443400  0.11114300  0.34036200  1
  Pd  Pd58  1  0.71941200  0.88885700  0.31348400  1
  Pd  Pd59  1  0.08780900  0.75616100  0.29703400  1
  Pd  Pd60  1  0.95065300  0.24383900  0.27988900  1
  Pd  Pd61  1  0.25834500  0.25616100  0.31835100  1
  Pd  Pd62  1  0.39550100  0.74383900  0.33549500  1
  Pd  Pd63  1  0.32692300  0.00000000  0.32692300  1
  Pd  Pd64  1  0.01923100  0.50000000  0.28846200  1
  Pd  Pd65  1  0.02710500  0.61114300  0.35194600  1
  Pd  Pd66  1  0.24212600  0.38885700  0.37882300  1
  Pd  Pd67  1  0.54981800  0.11114300  0.41728500  1
  Pd  Pd68  1  0.33479700  0.88885700  0.39040700  1
  Pd  Pd69  1  0.70319400  0.75616100  0.37395700  1
  Pd  Pd70  1  0.56603700  0.24383900  0.35681200  1
  Pd  Pd71  1  0.87372900  0.25616100  0.39527400  1
  Pd  Pd72  1  0.01088600  0.74383900  0.41241800  1
  Pd  Pd73  1  0.94230800  0.00000000  0.40384600  1
  Pd  Pd74  1  0.63461500  0.50000000  0.36538500  1
  Pd  Pd75  1  0.64248900  0.61114300  0.42886900  1
  Pd  Pd76  1  0.85751100  0.38885700  0.45574700  1
  Pd  Pd77  1  0.16520300  0.11114300  0.49420800  1
  Pd  Pd78  1  0.95018200  0.88885700  0.46733000  1
  Pd  Pd79  1  0.31857800  0.75616100  0.45088000  1
  Pd  Pd80  1  0.18142200  0.24383900  0.43373500  1
  Pd  Pd81  1  0.48911400  0.25616100  0.47219700  1
  Pd  Pd82  1  0.62627100  0.74383900  0.48934200  1
  Pd  Pd83  1  0.55769200  0.00000000  0.48076900  1
  Pd  Pd84  1  0.25000000  0.50000000  0.44230800  1
  Pd  Pd85  1  0.25787400  0.61114300  0.50579200  1
  Pd  Pd86  1  0.47289500  0.38885700  0.53267000  1
  Pd  Pd87  1  0.78058800  0.11114300  0.57113100  1
  Pd  Pd88  1  0.56556600  0.88885700  0.54425300  1
  Pd  Pd89  1  0.93396300  0.75616100  0.52780300  1
  Pd  Pd90  1  0.79680600  0.24383900  0.51065800  1
  Pd  Pd91  1  0.10449900  0.25616100  0.54912000  1
  Pd  Pd92  1  0.24165500  0.74383900  0.56626500  1
  Pd  Pd93  1  0.17307700  0.00000000  0.55769200  1
  Pd  Pd94  1  0.86538500  0.50000000  0.51923100  1
  Pd  Pd95  1  0.87325900  0.61114300  0.58271500  1
  Pd  Pd96  1  0.08828000  0.38885700  0.60959300  1
  Pd  Pd97  1  0.39597200  0.11114300  0.64805400  1
  Pd  Pd98  1  0.18095100  0.88885700  0.62117700  1
  Pd  Pd99  1  0.54934700  0.75616100  0.60472600  1
  Pd  Pd100  1  0.41219100  0.24383900  0.58758200  1
  Pd  Pd101  1  0.71988300  0.25616100  0.62604300  1
  Pd  Pd102  1  0.85704000  0.74383900  0.64318800  1
  Pd  Pd103  1  0.78846200  0.00000000  0.63461500  1
  Pd  Pd104  1  0.48076900  0.50000000  0.59615400  1
  Pd  Pd105  1  0.48864300  0.61114300  0.65963800  1
  Pd  Pd106  1  0.70366500  0.38885700  0.68651600  1
  Pd  Pd107  1  0.01135700  0.11114300  0.72497700  1
  Pd  Pd108  1  0.79633500  0.88885700  0.69810000  1
  Pd  Pd109  1  0.16473200  0.75616100  0.68164900  1
  Pd  Pd110  1  0.02757600  0.24383900  0.66450500  1
  Pd  Pd111  1  0.33526800  0.25616100  0.70296600  1
  Pd  Pd112  1  0.47242400  0.74383900  0.72011100  1
  Pd  Pd113  1  0.40384600  0.00000000  0.71153800  1
  Pd  Pd114  1  0.09615400  0.50000000  0.67307700  1
  Pd  Pd115  1  0.10402800  0.61114300  0.73656100  1
  Pd  Pd116  1  0.31904900  0.38885700  0.76343900  1
  Pd  Pd117  1  0.78011700  0.75616100  0.75857200  1
  Pd  Pd118  1  0.64296000  0.24383900  0.74142800  1
  Pd  Pd119  1  0.71153800  0.50000000  0.75000000  1
