# generated using pymatgen
data_La2Mg19
_symmetry_space_group_name_H-M   'P 1'
_cell_length_a   10.38875242
_cell_length_b   10.09623600
_cell_length_c   45.28352000
_cell_angle_alpha   90.00000000
_cell_angle_beta   96.58677761
_cell_angle_gamma   90.00000000
_symmetry_Int_Tables_number   1
_chemical_formula_structural   La2Mg19
_chemical_formula_sum   'La8 Mg76'
_cell_volume   4718.31467942
_cell_formula_units_Z   4
loop_
 _symmetry_equiv_pos_site_id
 _symmetry_equiv_pos_as_xyz
  1  'x, y, z'
loop_
 _atom_site_type_symbol
 _atom_site_label
 _atom_site_symmetry_multiplicity
 _atom_site_fract_x
 _atom_site_fract_y
 _atom_site_fract_z
 _atom_site_occupancy
  La  La0  1  0.27081500  0.75000000  0.38771900  1
  La  La1  1  0.20414800  0.25000000  0.25438600  1
  La  La2  1  0.73748200  0.25000000  0.32105300  1
  La  La3  1  0.73748200  0.75000000  0.32105300  1
  La  La4  1  0.87081500  0.75000000  0.58771900  1
  La  La5  1  0.80414800  0.25000000  0.45438600  1
  La  La6  1  0.33748200  0.25000000  0.52105300  1
  La  La7  1  0.33748200  0.75000000  0.52105300  1
  Mg  Mg8  1  0.47792500  0.02089500  0.28860800  1
  Mg  Mg9  1  0.76992600  0.02089500  0.38594200  1
  Mg  Mg10  1  0.96459400  0.02089500  0.28860800  1
  Mg  Mg11  1  0.51036900  0.52089500  0.35349700  1
  Mg  Mg12  1  0.20414800  0.59833400  0.25438600  1
  Mg  Mg13  1  0.27081500  0.09833400  0.38771900  1
  Mg  Mg14  1  0.27081500  0.40166600  0.38771900  1
  Mg  Mg15  1  0.20414800  0.90166600  0.25438600  1
  Mg  Mg16  1  0.23748200  0.50000000  0.32105300  1
  Mg  Mg17  1  0.93748200  0.00000000  0.22105300  1
  Mg  Mg18  1  0.43748200  0.00000000  0.22105300  1
  Mg  Mg19  1  0.43748200  0.50000000  0.22105300  1
  Mg  Mg20  1  0.93748200  0.50000000  0.22105300  1
  Mg  Mg21  1  0.23748200  0.00000000  0.32105300  1
  Mg  Mg22  1  0.38831700  0.75000000  0.31415400  1
  Mg  Mg23  1  0.57160100  0.25000000  0.38674600  1
  Mg  Mg24  1  0.55419800  0.25000000  0.24846000  1
  Mg  Mg25  1  0.32076600  0.75000000  0.19364500  1
  Mg  Mg26  1  0.90336200  0.75000000  0.25535900  1
  Mg  Mg27  1  0.39521500  0.25000000  0.32795100  1
  Mg  Mg28  1  0.84817300  0.25000000  0.24846000  1
  Mg  Mg29  1  0.08664700  0.25000000  0.32795100  1
  Mg  Mg30  1  0.96905600  0.25000000  0.38674600  1
  Mg  Mg31  1  0.50590700  0.75000000  0.25535900  1
  Mg  Mg32  1  0.07974800  0.75000000  0.31415400  1
  Mg  Mg33  1  0.02679000  0.75000000  0.19364500  1
  Mg  Mg34  1  0.76992600  0.47910500  0.38594200  1
  Mg  Mg35  1  0.99703800  0.97910500  0.35349700  1
  Mg  Mg36  1  0.51036900  0.97910500  0.35349700  1
  Mg  Mg37  1  0.96459400  0.47910500  0.28860800  1
  Mg  Mg38  1  0.47792500  0.47910500  0.28860800  1
  Mg  Mg39  1  0.70503700  0.52089500  0.25616300  1
  Mg  Mg40  1  0.99703800  0.52089500  0.35349700  1
  Mg  Mg41  1  0.70503700  0.97910500  0.25616300  1
  Mg  Mg42  1  0.07792500  0.02089500  0.48860800  1
  Mg  Mg43  1  0.36992600  0.02089500  0.58594200  1
  Mg  Mg44  1  0.56459400  0.02089500  0.48860800  1
  Mg  Mg45  1  0.11036900  0.52089500  0.55349700  1
  Mg  Mg46  1  0.80414800  0.59833400  0.45438600  1
  Mg  Mg47  1  0.87081500  0.09833400  0.58771900  1
  Mg  Mg48  1  0.87081500  0.40166600  0.58771900  1
  Mg  Mg49  1  0.80414800  0.90166600  0.45438600  1
  Mg  Mg50  1  0.83748200  0.50000000  0.52105300  1
  Mg  Mg51  1  0.53748200  0.00000000  0.42105300  1
  Mg  Mg52  1  0.03748200  0.00000000  0.42105300  1
  Mg  Mg53  1  0.03748200  0.50000000  0.42105300  1
  Mg  Mg54  1  0.53748200  0.50000000  0.42105300  1
  Mg  Mg55  1  0.83748200  0.00000000  0.52105300  1
  Mg  Mg56  1  0.98831700  0.75000000  0.51415400  1
  Mg  Mg57  1  0.17160100  0.25000000  0.58674600  1
  Mg  Mg58  1  0.15419800  0.25000000  0.44846000  1
  Mg  Mg59  1  0.92076600  0.75000000  0.39364500  1
  Mg  Mg60  1  0.50336200  0.75000000  0.45535900  1
  Mg  Mg61  1  0.99521500  0.25000000  0.52795100  1
  Mg  Mg62  1  0.44817300  0.25000000  0.44846000  1
  Mg  Mg63  1  0.68664700  0.25000000  0.52795100  1
  Mg  Mg64  1  0.56905600  0.25000000  0.58674600  1
  Mg  Mg65  1  0.10590700  0.75000000  0.45535900  1
  Mg  Mg66  1  0.67974800  0.75000000  0.51415400  1
  Mg  Mg67  1  0.62679000  0.75000000  0.39364500  1
  Mg  Mg68  1  0.36992600  0.47910500  0.58594200  1
  Mg  Mg69  1  0.59703800  0.97910500  0.55349700  1
  Mg  Mg70  1  0.11036900  0.97910500  0.55349700  1
  Mg  Mg71  1  0.56459400  0.47910500  0.48860800  1
  Mg  Mg72  1  0.07792500  0.47910500  0.48860800  1
  Mg  Mg73  1  0.30503700  0.52089500  0.45616300  1
  Mg  Mg74  1  0.59703800  0.52089500  0.55349700  1
  Mg  Mg75  1  0.30503700  0.97910500  0.45616300  1
  Mg  Mg76  1  0.13748200  0.00000000  0.62105300  1
  Mg  Mg77  1  0.63748200  0.00000000  0.62105300  1
  Mg  Mg78  1  0.63748200  0.50000000  0.62105300  1
  Mg  Mg79  1  0.13748200  0.50000000  0.62105300  1
  Mg  Mg80  1  0.75419800  0.25000000  0.64846000  1
  Mg  Mg81  1  0.52076600  0.75000000  0.59364500  1
  Mg  Mg82  1  0.04817300  0.25000000  0.64846000  1
  Mg  Mg83  1  0.22679000  0.75000000  0.59364500  1
