# generated using pymatgen
data_Mg7Ag2
_symmetry_space_group_name_H-M   'P 1'
_cell_length_a   4.93092000
_cell_length_b   6.16428200
_cell_length_c   42.70739800
_cell_angle_alpha   90.00000000
_cell_angle_beta   90.00000000
_cell_angle_gamma   90.00000000
_symmetry_Int_Tables_number   1
_chemical_formula_structural   Mg7Ag2
_chemical_formula_sum   'Mg28 Ag8'
_cell_volume   1298.11619227
_cell_formula_units_Z   4
loop_
 _symmetry_equiv_pos_site_id
 _symmetry_equiv_pos_as_xyz
  1  'x, y, z'
loop_
 _atom_site_type_symbol
 _atom_site_label
 _atom_site_symmetry_multiplicity
 _atom_site_fract_x
 _atom_site_fract_y
 _atom_site_fract_z
 _atom_site_occupancy
  Mg  Mg0  1  0.75000000  0.36969700  0.25988600  1
  Mg  Mg1  1  0.75000000  0.88242500  0.25988600  1
  Mg  Mg2  1  0.25000000  0.36969700  0.30261400  1
  Mg  Mg3  1  0.25000000  0.88242500  0.30261400  1
  Mg  Mg4  1  0.75000000  0.62606100  0.32397700  1
  Mg  Mg5  1  0.75000000  0.86969700  0.38488600  1
  Mg  Mg6  1  0.75000000  0.38242500  0.38488600  1
  Mg  Mg7  1  0.25000000  0.86969700  0.42761400  1
  Mg  Mg8  1  0.25000000  0.38242500  0.42761400  1
  Mg  Mg9  1  0.25000000  0.12606100  0.36352300  1
  Mg  Mg10  1  0.75000000  0.12606100  0.44897700  1
  Mg  Mg11  1  0.75000000  0.36969700  0.50988600  1
  Mg  Mg12  1  0.75000000  0.88242500  0.50988600  1
  Mg  Mg13  1  0.25000000  0.36969700  0.55261400  1
  Mg  Mg14  1  0.25000000  0.88242500  0.55261400  1
  Mg  Mg15  1  0.25000000  0.62606100  0.48852300  1
  Mg  Mg16  1  0.75000000  0.62606100  0.57397700  1
  Mg  Mg17  1  0.75000000  0.86969700  0.63488600  1
  Mg  Mg18  1  0.75000000  0.38242500  0.63488600  1
  Mg  Mg19  1  0.25000000  0.86969700  0.67761400  1
  Mg  Mg20  1  0.25000000  0.38242500  0.67761400  1
  Mg  Mg21  1  0.25000000  0.12606100  0.61352300  1
  Mg  Mg22  1  0.75000000  0.12606100  0.69897700  1
  Mg  Mg23  1  0.75000000  0.36969700  0.75988600  1
  Mg  Mg24  1  0.75000000  0.88242500  0.75988600  1
  Mg  Mg25  1  0.25000000  0.36969700  0.80261400  1
  Mg  Mg26  1  0.25000000  0.88242500  0.80261400  1
  Mg  Mg27  1  0.25000000  0.62606100  0.73852300  1
  Ag  Ag28  1  0.75000000  0.12606100  0.32291700  1
  Ag  Ag29  1  0.25000000  0.62606100  0.36458300  1
  Ag  Ag30  1  0.75000000  0.62606100  0.44791700  1
  Ag  Ag31  1  0.25000000  0.12606100  0.48958300  1
  Ag  Ag32  1  0.75000000  0.12606100  0.57291700  1
  Ag  Ag33  1  0.25000000  0.62606100  0.61458300  1
  Ag  Ag34  1  0.75000000  0.62606100  0.69791700  1
  Ag  Ag35  1  0.25000000  0.12606100  0.73958300  1
