# generated using pymatgen
data_Mg47Au24
_symmetry_space_group_name_H-M   'P 1'
_cell_length_a   4.38771400
_cell_length_b   20.77822484
_cell_length_c   46.87993600
_cell_angle_alpha   90.57431790
_cell_angle_beta   90.00000000
_cell_angle_gamma   90.00000000
_symmetry_Int_Tables_number   1
_chemical_formula_structural   Mg47Au24
_chemical_formula_sum   'Mg94 Au48'
_cell_volume   4273.77785998
_cell_formula_units_Z   2
loop_
 _symmetry_equiv_pos_site_id
 _symmetry_equiv_pos_as_xyz
  1  'x, y, z'
loop_
 _atom_site_type_symbol
 _atom_site_label
 _atom_site_symmetry_multiplicity
 _atom_site_fract_x
 _atom_site_fract_y
 _atom_site_fract_z
 _atom_site_occupancy
  Mg  Mg0  1  0.75000000  0.03910500  0.17996700  1
  Mg  Mg1  1  0.75000000  0.38971400  0.32935800  1
  Mg  Mg2  1  0.25000000  0.79679300  0.31077300  1
  Mg  Mg3  1  0.25000000  0.27951700  0.32805000  1
  Mg  Mg4  1  0.75000000  0.31574500  0.23533600  1
  Mg  Mg5  1  0.75000000  0.83308900  0.21799200  1
  Mg  Mg6  1  0.25000000  0.52015300  0.25540400  1
  Mg  Mg7  1  0.25000000  0.00280800  0.27274900  1
  Mg  Mg8  1  0.75000000  0.59453700  0.29208600  1
  Mg  Mg9  1  0.75000000  0.11353400  0.27308900  1
  Mg  Mg10  1  0.25000000  0.24136100  0.19865500  1
  Mg  Mg11  1  0.25000000  0.72236400  0.21765200  1
  Mg  Mg12  1  0.75000000  0.01650800  0.32548500  1
  Mg  Mg13  1  0.75000000  0.61718000  0.22481400  1
  Mg  Mg14  1  0.25000000  0.81938900  0.16525500  1
  Mg  Mg15  1  0.25000000  0.21871800  0.26592700  1
  Mg  Mg16  1  0.75000000  0.46040400  0.21571800  1
  Mg  Mg17  1  0.75000000  0.89683100  0.27929100  1
  Mg  Mg18  1  0.25000000  0.37549400  0.27502300  1
  Mg  Mg19  1  0.25000000  0.93906700  0.21145000  1
  Mg  Mg20  1  0.75000000  0.73902600  0.27121200  1
  Mg  Mg21  1  0.75000000  0.34173700  0.16850100  1
  Mg  Mg22  1  0.25000000  0.09687200  0.21952800  1
  Mg  Mg23  1  0.25000000  0.49416100  0.32223900  1
  Mg  Mg24  1  0.75000000  0.87243800  0.34663400  1
  Mg  Mg25  1  0.75000000  0.22304800  0.49602400  1
  Mg  Mg26  1  0.25000000  0.63012600  0.47744000  1
  Mg  Mg27  1  0.25000000  0.11285000  0.49471600  1
  Mg  Mg28  1  0.75000000  0.14907800  0.40200300  1
  Mg  Mg29  1  0.75000000  0.66642300  0.38465800  1
  Mg  Mg30  1  0.25000000  0.35348700  0.42207100  1
  Mg  Mg31  1  0.25000000  0.83614200  0.43941600  1
  Mg  Mg32  1  0.75000000  0.42787000  0.45875300  1
  Mg  Mg33  1  0.75000000  0.94686700  0.43975600  1
  Mg  Mg34  1  0.25000000  0.07469400  0.36532100  1
  Mg  Mg35  1  0.25000000  0.55569800  0.38431800  1
  Mg  Mg36  1  0.75000000  0.84984200  0.49215200  1
  Mg  Mg37  1  0.75000000  0.45051300  0.39148000  1
  Mg  Mg38  1  0.25000000  0.65272300  0.33192200  1
  Mg  Mg39  1  0.25000000  0.05205100  0.43259400  1
  Mg  Mg40  1  0.75000000  0.29373700  0.38238400  1
  Mg  Mg41  1  0.75000000  0.73016500  0.44595700  1
  Mg  Mg42  1  0.25000000  0.20882700  0.44169000  1
  Mg  Mg43  1  0.25000000  0.77240000  0.37811700  1
  Mg  Mg44  1  0.75000000  0.57235900  0.43787900  1
  Mg  Mg45  1  0.75000000  0.17507000  0.33516800  1
  Mg  Mg46  1  0.25000000  0.93020500  0.38619500  1
  Mg  Mg47  1  0.25000000  0.32749500  0.48890600  1
  Mg  Mg48  1  0.75000000  0.70577100  0.51330100  1
  Mg  Mg49  1  0.75000000  0.05638100  0.66269100  1
  Mg  Mg50  1  0.25000000  0.46346000  0.64410700  1
  Mg  Mg51  1  0.25000000  0.94618300  0.66138300  1
  Mg  Mg52  1  0.75000000  0.98241100  0.56867000  1
  Mg  Mg53  1  0.75000000  0.49975600  0.55132500  1
  Mg  Mg54  1  0.25000000  0.18682000  0.58873800  1
  Mg  Mg55  1  0.25000000  0.66947500  0.60608300  1
  Mg  Mg56  1  0.75000000  0.26120300  0.62541900  1
  Mg  Mg57  1  0.75000000  0.78020000  0.60642200  1
  Mg  Mg58  1  0.25000000  0.90802800  0.53198800  1
  Mg  Mg59  1  0.25000000  0.38903100  0.55098500  1
  Mg  Mg60  1  0.75000000  0.68317500  0.65881900  1
  Mg  Mg61  1  0.75000000  0.28384700  0.55814700  1
  Mg  Mg62  1  0.25000000  0.48605600  0.49858900  1
  Mg  Mg63  1  0.25000000  0.88538400  0.59926000  1
  Mg  Mg64  1  0.75000000  0.12707100  0.54905100  1
  Mg  Mg65  1  0.75000000  0.56349800  0.61262400  1
  Mg  Mg66  1  0.25000000  0.04216000  0.60835600  1
  Mg  Mg67  1  0.25000000  0.60573300  0.54478400  1
  Mg  Mg68  1  0.75000000  0.40569200  0.60454600  1
  Mg  Mg69  1  0.75000000  0.00840300  0.50183500  1
  Mg  Mg70  1  0.25000000  0.76353900  0.55286200  1
  Mg  Mg71  1  0.25000000  0.16082800  0.65557300  1
  Mg  Mg72  1  0.75000000  0.53910500  0.67996700  1
  Mg  Mg73  1  0.25000000  0.29679300  0.81077300  1
  Mg  Mg74  1  0.75000000  0.81574500  0.73533600  1
  Mg  Mg75  1  0.75000000  0.33308900  0.71799200  1
  Mg  Mg76  1  0.25000000  0.02015300  0.75540400  1
  Mg  Mg77  1  0.25000000  0.50280800  0.77274900  1
  Mg  Mg78  1  0.75000000  0.09453700  0.79208600  1
  Mg  Mg79  1  0.75000000  0.61353400  0.77308900  1
  Mg  Mg80  1  0.25000000  0.74136100  0.69865500  1
  Mg  Mg81  1  0.25000000  0.22236400  0.71765200  1
  Mg  Mg82  1  0.75000000  0.51650800  0.82548500  1
  Mg  Mg83  1  0.75000000  0.11718000  0.72481400  1
  Mg  Mg84  1  0.25000000  0.31938900  0.66525500  1
  Mg  Mg85  1  0.25000000  0.71871800  0.76592700  1
  Mg  Mg86  1  0.75000000  0.96040400  0.71571800  1
  Mg  Mg87  1  0.75000000  0.39683100  0.77929100  1
  Mg  Mg88  1  0.25000000  0.87549400  0.77502300  1
  Mg  Mg89  1  0.25000000  0.43906700  0.71145000  1
  Mg  Mg90  1  0.75000000  0.23902600  0.77121200  1
  Mg  Mg91  1  0.75000000  0.84173700  0.66850100  1
  Mg  Mg92  1  0.25000000  0.59687200  0.71952800  1
  Mg  Mg93  1  0.25000000  0.99416100  0.82223900  1
  Au  Au94  1  0.75000000  0.90635600  0.16935500  1
  Au  Au95  1  0.75000000  0.28352800  0.29218300  1
  Au  Au96  1  0.25000000  0.92954100  0.32138600  1
  Au  Au97  1  0.25000000  0.55237000  0.19855700  1
  Au  Au98  1  0.75000000  0.46273100  0.28050000  1
  Au  Au99  1  0.75000000  0.00635300  0.23687800  1
  Au  Au100  1  0.25000000  0.37316700  0.21024100  1
  Au  Au101  1  0.25000000  0.82954500  0.25386300  1
  Au  Au102  1  0.75000000  0.18391300  0.22365900  1
  Au  Au103  1  0.75000000  0.72573900  0.18183300  1
  Au  Au104  1  0.25000000  0.65198500  0.26708200  1
  Au  Au105  1  0.25000000  0.11015900  0.30890800  1
  Au  Au106  1  0.75000000  0.73969000  0.33602100  1
  Au  Au107  1  0.75000000  0.11686100  0.45885000  1
  Au  Au108  1  0.25000000  0.76287500  0.48805300  1
  Au  Au109  1  0.25000000  0.38570300  0.36522400  1
  Au  Au110  1  0.75000000  0.29606400  0.44716700  1
  Au  Au111  1  0.75000000  0.83968600  0.40354500  1
  Au  Au112  1  0.25000000  0.20650000  0.37690700  1
  Au  Au113  1  0.25000000  0.66287800  0.42053000  1
  Au  Au114  1  0.75000000  0.01724600  0.39032500  1
  Au  Au115  1  0.75000000  0.55907200  0.34850000  1
  Au  Au116  1  0.25000000  0.48531800  0.43374900  1
  Au  Au117  1  0.25000000  0.94349200  0.47557400  1
  Au  Au118  1  0.75000000  0.57302300  0.50268800  1
  Au  Au119  1  0.75000000  0.95019400  0.62551700  1
  Au  Au120  1  0.25000000  0.59620800  0.65471900  1
  Au  Au121  1  0.25000000  0.21903700  0.53189100  1
  Au  Au122  1  0.75000000  0.12939700  0.61383300  1
  Au  Au123  1  0.75000000  0.67302000  0.57021100  1
  Au  Au124  1  0.25000000  0.03983400  0.54357400  1
  Au  Au125  1  0.25000000  0.49621100  0.58719600  1
  Au  Au126  1  0.75000000  0.85058000  0.55699200  1
  Au  Au127  1  0.75000000  0.39240500  0.51516600  1
  Au  Au128  1  0.25000000  0.31865100  0.60041500  1
  Au  Au129  1  0.25000000  0.77682600  0.64224100  1
  Au  Au130  1  0.75000000  0.40635600  0.66935500  1
  Au  Au131  1  0.75000000  0.78352800  0.79218300  1
  Au  Au132  1  0.25000000  0.42954100  0.82138600  1
  Au  Au133  1  0.25000000  0.05237000  0.69855700  1
  Au  Au134  1  0.75000000  0.96273100  0.78050000  1
  Au  Au135  1  0.75000000  0.50635300  0.73687800  1
  Au  Au136  1  0.25000000  0.87316700  0.71024100  1
  Au  Au137  1  0.25000000  0.32954500  0.75386300  1
  Au  Au138  1  0.75000000  0.68391300  0.72365900  1
  Au  Au139  1  0.75000000  0.22573900  0.68183300  1
  Au  Au140  1  0.25000000  0.15198500  0.76708200  1
  Au  Au141  1  0.25000000  0.61015900  0.80890800  1
