# generated using pymatgen
data_Lu23Mg7
_symmetry_space_group_name_H-M   'P 1'
_cell_length_a   5.47453400
_cell_length_b   11.91468022
_cell_length_c   45.10825100
_cell_angle_alpha   97.58909117
_cell_angle_beta   90.00000000
_cell_angle_gamma   90.00000000
_symmetry_Int_Tables_number   1
_chemical_formula_structural   Lu23Mg7
_chemical_formula_sum   'Lu46 Mg14'
_cell_volume   2916.51801628
_cell_formula_units_Z   2
loop_
 _symmetry_equiv_pos_site_id
 _symmetry_equiv_pos_as_xyz
  1  'x, y, z'
loop_
 _atom_site_type_symbol
 _atom_site_label
 _atom_site_symmetry_multiplicity
 _atom_site_fract_x
 _atom_site_fract_y
 _atom_site_fract_z
 _atom_site_occupancy
  Lu  Lu0  1  0.25000000  0.71904000  0.21130500  1
  Lu  Lu1  1  0.25000000  0.21927400  0.21177200  1
  Lu  Lu2  1  0.25000000  0.48686800  0.25000000  1
  Lu  Lu3  1  0.75000000  0.82222800  0.25000000  1
  Lu  Lu4  1  0.75000000  0.55136000  0.21130500  1
  Lu  Lu5  1  0.75000000  0.05159400  0.21177200  1
  Lu  Lu6  1  0.25000000  0.25750200  0.28822800  1
  Lu  Lu7  1  0.25000000  0.75773500  0.28869500  1
  Lu  Lu8  1  0.25000000  0.02532900  0.32692300  1
  Lu  Lu9  1  0.75000000  0.36068900  0.32692300  1
  Lu  Lu10  1  0.75000000  0.08982200  0.28822800  1
  Lu  Lu11  1  0.75000000  0.59005500  0.28869500  1
  Lu  Lu12  1  0.25000000  0.79596300  0.36515100  1
  Lu  Lu13  1  0.25000000  0.29619700  0.36561800  1
  Lu  Lu14  1  0.25000000  0.56379100  0.40384600  1
  Lu  Lu15  1  0.75000000  0.89915100  0.40384600  1
  Lu  Lu16  1  0.75000000  0.62828300  0.36515100  1
  Lu  Lu17  1  0.75000000  0.12851700  0.36561800  1
  Lu  Lu18  1  0.25000000  0.33442500  0.44207400  1
  Lu  Lu19  1  0.25000000  0.83465900  0.44254200  1
  Lu  Lu20  1  0.25000000  0.10225200  0.48076900  1
  Lu  Lu21  1  0.75000000  0.43761200  0.48076900  1
  Lu  Lu22  1  0.75000000  0.16674500  0.44207400  1
  Lu  Lu23  1  0.75000000  0.66697800  0.44254200  1
  Lu  Lu24  1  0.25000000  0.87288600  0.51899700  1
  Lu  Lu25  1  0.25000000  0.37312000  0.51946500  1
  Lu  Lu26  1  0.25000000  0.64071400  0.55769200  1
  Lu  Lu27  1  0.75000000  0.97607400  0.55769200  1
  Lu  Lu28  1  0.75000000  0.70520600  0.51899700  1
  Lu  Lu29  1  0.75000000  0.20544000  0.51946500  1
  Lu  Lu30  1  0.25000000  0.41134800  0.59592000  1
  Lu  Lu31  1  0.25000000  0.91158200  0.59638800  1
  Lu  Lu32  1  0.25000000  0.17917500  0.63461500  1
  Lu  Lu33  1  0.75000000  0.51453500  0.63461500  1
  Lu  Lu34  1  0.75000000  0.24366800  0.59592000  1
  Lu  Lu35  1  0.75000000  0.74390200  0.59638800  1
  Lu  Lu36  1  0.25000000  0.94980900  0.67284300  1
  Lu  Lu37  1  0.25000000  0.45004300  0.67331100  1
  Lu  Lu38  1  0.25000000  0.71763700  0.71153800  1
  Lu  Lu39  1  0.75000000  0.05299700  0.71153800  1
  Lu  Lu40  1  0.75000000  0.78212900  0.67284300  1
  Lu  Lu41  1  0.75000000  0.28236300  0.67331100  1
  Lu  Lu42  1  0.25000000  0.48827100  0.74976600  1
  Lu  Lu43  1  0.25000000  0.98850500  0.75023400  1
  Lu  Lu44  1  0.75000000  0.32059100  0.74976600  1
  Lu  Lu45  1  0.75000000  0.82082500  0.75023400  1
  Mg  Mg46  1  0.25000000  0.98788100  0.25000000  1
  Mg  Mg47  1  0.75000000  0.32121400  0.25000000  1
  Mg  Mg48  1  0.25000000  0.52634300  0.32692300  1
  Mg  Mg49  1  0.75000000  0.85967600  0.32692300  1
  Mg  Mg50  1  0.25000000  0.06480400  0.40384600  1
  Mg  Mg51  1  0.75000000  0.39813700  0.40384600  1
  Mg  Mg52  1  0.25000000  0.60326600  0.48076900  1
  Mg  Mg53  1  0.75000000  0.93659900  0.48076900  1
  Mg  Mg54  1  0.25000000  0.14172700  0.55769200  1
  Mg  Mg55  1  0.75000000  0.47506100  0.55769200  1
  Mg  Mg56  1  0.25000000  0.68018900  0.63461500  1
  Mg  Mg57  1  0.75000000  0.01352200  0.63461500  1
  Mg  Mg58  1  0.25000000  0.21865000  0.71153800  1
  Mg  Mg59  1  0.75000000  0.55198400  0.71153800  1
