# generated using pymatgen
data_Mg11Au6
_symmetry_space_group_name_H-M   'P 1'
_cell_length_a   4.38771400
_cell_length_b   8.57805800
_cell_length_c   56.77467900
_cell_angle_alpha   90.00000000
_cell_angle_beta   90.00000000
_cell_angle_gamma   90.00000000
_symmetry_Int_Tables_number   1
_chemical_formula_structural   Mg11Au6
_chemical_formula_sum   'Mg44 Au24'
_cell_volume   2136.88906874
_cell_formula_units_Z   4
loop_
 _symmetry_equiv_pos_site_id
 _symmetry_equiv_pos_as_xyz
  1  'x, y, z'
loop_
 _atom_site_type_symbol
 _atom_site_label
 _atom_site_symmetry_multiplicity
 _atom_site_fract_x
 _atom_site_fract_y
 _atom_site_fract_z
 _atom_site_occupancy
  Mg  Mg0  1  0.25000000  0.94817100  0.46289700  1
  Mg  Mg1  1  0.25000000  0.55182900  0.29623100  1
  Mg  Mg2  1  0.75000000  0.05182900  0.50006600  1
  Mg  Mg3  1  0.75000000  0.44817100  0.33339900  1
  Mg  Mg4  1  0.25000000  0.94796500  0.35222800  1
  Mg  Mg5  1  0.25000000  0.55203500  0.18556100  1
  Mg  Mg6  1  0.75000000  0.05203500  0.27740200  1
  Mg  Mg7  1  0.75000000  0.44796500  0.44406900  1
  Mg  Mg8  1  0.25000000  0.94300900  0.24038000  1
  Mg  Mg9  1  0.25000000  0.55699100  0.40704700  1
  Mg  Mg10  1  0.75000000  0.05699100  0.38924900  1
  Mg  Mg11  1  0.75000000  0.44300900  0.22258300  1
  Mg  Mg12  1  0.25000000  0.19798500  0.42192300  1
  Mg  Mg13  1  0.25000000  0.30201500  0.25525700  1
  Mg  Mg14  1  0.75000000  0.80201500  0.20770600  1
  Mg  Mg15  1  0.75000000  0.69798500  0.37437300  1
  Mg  Mg16  1  0.25000000  0.19071800  0.31054700  1
  Mg  Mg17  1  0.25000000  0.30928200  0.47721400  1
  Mg  Mg18  1  0.75000000  0.80928200  0.31908200  1
  Mg  Mg19  1  0.75000000  0.69071800  0.48574900  1
  Mg  Mg20  1  0.25000000  0.19186700  0.19917500  1
  Mg  Mg21  1  0.25000000  0.30813300  0.36584200  1
  Mg  Mg22  1  0.75000000  0.80813300  0.43045400  1
  Mg  Mg23  1  0.75000000  0.69186700  0.26378800  1
  Mg  Mg24  1  0.25000000  0.55182900  0.62956400  1
  Mg  Mg25  1  0.75000000  0.44817100  0.66673200  1
  Mg  Mg26  1  0.25000000  0.94796500  0.68556100  1
  Mg  Mg27  1  0.25000000  0.55203500  0.51889400  1
  Mg  Mg28  1  0.75000000  0.05203500  0.61073500  1
  Mg  Mg29  1  0.75000000  0.44796500  0.77740200  1
  Mg  Mg30  1  0.25000000  0.94300900  0.57371400  1
  Mg  Mg31  1  0.25000000  0.55699100  0.74038000  1
  Mg  Mg32  1  0.75000000  0.05699100  0.72258300  1
  Mg  Mg33  1  0.75000000  0.44300900  0.55591600  1
  Mg  Mg34  1  0.25000000  0.19798500  0.75525700  1
  Mg  Mg35  1  0.25000000  0.30201500  0.58859000  1
  Mg  Mg36  1  0.75000000  0.80201500  0.54104000  1
  Mg  Mg37  1  0.75000000  0.69798500  0.70770600  1
  Mg  Mg38  1  0.25000000  0.19071800  0.64388100  1
  Mg  Mg39  1  0.75000000  0.80928200  0.65241600  1
  Mg  Mg40  1  0.25000000  0.19186700  0.53250900  1
  Mg  Mg41  1  0.25000000  0.30813300  0.69917500  1
  Mg  Mg42  1  0.75000000  0.80813300  0.76378800  1
  Mg  Mg43  1  0.75000000  0.69186700  0.59712100  1
  Au  Au44  1  0.25000000  0.86848600  0.17735100  1
  Au  Au45  1  0.25000000  0.63151400  0.34401800  1
  Au  Au46  1  0.75000000  0.13151400  0.45227900  1
  Au  Au47  1  0.75000000  0.36848600  0.28561200  1
  Au  Au48  1  0.25000000  0.86913300  0.28817800  1
  Au  Au49  1  0.25000000  0.63086700  0.45484400  1
  Au  Au50  1  0.75000000  0.13086700  0.34145200  1
  Au  Au51  1  0.75000000  0.36913300  0.17478500  1
  Au  Au52  1  0.25000000  0.87452300  0.40006400  1
  Au  Au53  1  0.25000000  0.62547700  0.23339700  1
  Au  Au54  1  0.75000000  0.12547700  0.22956600  1
  Au  Au55  1  0.75000000  0.37452300  0.39623200  1
  Au  Au56  1  0.25000000  0.86848600  0.51068400  1
  Au  Au57  1  0.25000000  0.63151400  0.67735100  1
  Au  Au58  1  0.75000000  0.13151400  0.78561200  1
  Au  Au59  1  0.75000000  0.36848600  0.61894500  1
  Au  Au60  1  0.25000000  0.86913300  0.62151100  1
  Au  Au61  1  0.25000000  0.63086700  0.78817800  1
  Au  Au62  1  0.75000000  0.13086700  0.67478500  1
  Au  Au63  1  0.75000000  0.36913300  0.50811900  1
  Au  Au64  1  0.25000000  0.87452300  0.73339700  1
  Au  Au65  1  0.25000000  0.62547700  0.56673100  1
  Au  Au66  1  0.75000000  0.12547700  0.56289900  1
  Au  Au67  1  0.75000000  0.37452300  0.72956600  1
