# generated using pymatgen
data_Ba4Mg35
_symmetry_space_group_name_H-M   'P 1'
_cell_length_a   18.31901762
_cell_length_b   18.93828385
_cell_length_c   41.24323200
_cell_angle_alpha   80.05199511
_cell_angle_beta   77.16846902
_cell_angle_gamma   61.07591055
_symmetry_Int_Tables_number   1
_chemical_formula_structural   Ba4Mg35
_chemical_formula_sum   'Ba28 Mg245'
_cell_volume   12175.11810506
_cell_formula_units_Z   7
loop_
 _symmetry_equiv_pos_site_id
 _symmetry_equiv_pos_as_xyz
  1  'x, y, z'
loop_
 _atom_site_type_symbol
 _atom_site_label
 _atom_site_symmetry_multiplicity
 _atom_site_fract_x
 _atom_site_fract_y
 _atom_site_fract_z
 _atom_site_occupancy
  Ba  Ba0  1  0.19545300  0.88583100  0.29979600  1
  Ba  Ba1  1  0.53242100  0.29613800  0.21555400  1
  Ba  Ba2  1  0.86212000  0.30249800  0.21646300  1
  Ba  Ba3  1  0.69908800  0.58780400  0.25722100  1
  Ba  Ba4  1  0.02878700  0.59416400  0.25813000  1
  Ba  Ba5  1  0.86575400  0.87947100  0.29888800  1
  Ba  Ba6  1  0.69545300  0.76083100  0.42479600  1
  Ba  Ba7  1  0.03242100  0.17113800  0.34055400  1
  Ba  Ba8  1  0.36212000  0.17749800  0.34146300  1
  Ba  Ba9  1  0.19908800  0.46280400  0.38222100  1
  Ba  Ba10  1  0.52878700  0.46916400  0.38313000  1
  Ba  Ba11  1  0.36575400  0.75447100  0.42388800  1
  Ba  Ba12  1  0.19545300  0.63583100  0.54979600  1
  Ba  Ba13  1  0.53242100  0.04613800  0.46555400  1
  Ba  Ba14  1  0.86212000  0.05249800  0.46646300  1
  Ba  Ba15  1  0.69908800  0.33780400  0.50722100  1
  Ba  Ba16  1  0.02878700  0.34416400  0.50813000  1
  Ba  Ba17  1  0.86575400  0.62947100  0.54888800  1
  Ba  Ba18  1  0.69545300  0.51083100  0.67479600  1
  Ba  Ba19  1  0.03242100  0.92113800  0.59055400  1
  Ba  Ba20  1  0.36212000  0.92749800  0.59146300  1
  Ba  Ba21  1  0.19908800  0.21280400  0.63222100  1
  Ba  Ba22  1  0.52878700  0.21916400  0.63313000  1
  Ba  Ba23  1  0.36575400  0.50447100  0.67388800  1
  Ba  Ba24  1  0.53242100  0.79613800  0.71555400  1
  Ba  Ba25  1  0.86212000  0.80249800  0.71646300  1
  Ba  Ba26  1  0.69908800  0.08780400  0.75722100  1
  Ba  Ba27  1  0.02878700  0.09416400  0.75813000  1
  Mg  Mg28  1  0.88434000  0.97108500  0.21090800  1
  Mg  Mg29  1  0.52299200  0.10192700  0.26005400  1
  Mg  Mg30  1  0.45202900  0.14182800  0.19351000  1
  Mg  Mg31  1  0.31554400  0.67567200  0.26977400  1
  Mg  Mg32  1  0.03060400  0.93451900  0.24747400  1
  Mg  Mg33  1  0.67686800  0.91921700  0.26277600  1
  Mg  Mg34  1  0.02299200  0.10335400  0.25862700  1
  Mg  Mg35  1  0.41233000  0.50629600  0.24557700  1
  Mg  Mg36  1  0.55100600  0.21088400  0.30444300  1
  Mg  Mg37  1  0.36393700  0.09098400  0.25767500  1
  Mg  Mg38  1  0.53060400  0.95578300  0.22621000  1
  Mg  Mg39  1  0.77584500  0.16514100  0.19684100  1
  Mg  Mg40  1  0.20488200  0.08004100  0.25529700  1
  Mg  Mg41  1  0.70488200  0.07861500  0.25672400  1
  Mg  Mg42  1  0.69727100  0.79931800  0.21600900  1
  Mg  Mg43  1  0.34353500  0.26275200  0.25257500  1
  Mg  Mg44  1  0.11393700  0.15348400  0.19517500  1
  Mg  Mg45  1  0.05100600  0.26275200  0.25257500  1
  Mg  Mg46  1  0.68965900  0.39359400  0.30172100  1
  Mg  Mg47  1  0.61869600  0.43349500  0.23517700  1
  Mg  Mg48  1  0.98221100  0.09233900  0.18644000  1
  Mg  Mg49  1  0.19727100  0.22618600  0.28914100  1
  Mg  Mg50  1  0.84353500  0.21088400  0.30444300  1
  Mg  Mg51  1  0.18965900  0.39502100  0.30029400  1
  Mg  Mg52  1  0.57899700  0.79796300  0.28724400  1
  Mg  Mg53  1  0.21767300  0.62755000  0.22110900  1
  Mg  Mg54  1  0.53060400  0.38265100  0.29934200  1
  Mg  Mg55  1  0.69727100  0.24745000  0.26787700  1
  Mg  Mg56  1  0.94251200  0.45680700  0.23850700  1
  Mg  Mg57  1  0.37154900  0.37170800  0.29696400  1
  Mg  Mg58  1  0.87154900  0.37028100  0.29839000  1
  Mg  Mg59  1  0.86393700  0.09098400  0.25767500  1
  Mg  Mg60  1  0.51020100  0.55441800  0.29424100  1
  Mg  Mg61  1  0.28060400  0.44515100  0.23684200  1
  Mg  Mg62  1  0.21767300  0.55441800  0.29424100  1
  Mg  Mg63  1  0.35632500  0.81026100  0.21838700  1
  Mg  Mg64  1  0.78536200  0.72516100  0.27684400  1
  Mg  Mg65  1  0.14887700  0.38400600  0.22810700  1
  Mg  Mg66  1  0.86393700  0.64285200  0.20580700  1
  Mg  Mg67  1  0.51020100  0.62755000  0.22110900  1
  Mg  Mg68  1  0.85632500  0.81168700  0.21696100  1
  Mg  Mg69  1  0.24566400  0.21462900  0.20391000  1
  Mg  Mg70  1  0.38434000  0.91921700  0.26277600  1
  Mg  Mg71  1  0.19727100  0.79931800  0.21600900  1
  Mg  Mg72  1  0.36393700  0.66411600  0.18454300  1
  Mg  Mg73  1  0.10917900  0.74847400  0.28017400  1
  Mg  Mg74  1  0.03821600  0.78837500  0.21363000  1
  Mg  Mg75  1  0.53821600  0.78694800  0.21505700  1
  Mg  Mg76  1  0.03060400  0.38265100  0.29934200  1
  Mg  Mg77  1  0.17686800  0.97108500  0.21090800  1
  Mg  Mg78  1  0.44727100  0.73681800  0.27850900  1
  Mg  Mg79  1  0.38434000  0.84608500  0.33590800  1
  Mg  Mg80  1  0.02299200  0.97692700  0.38505400  1
  Mg  Mg81  1  0.95202900  0.01682800  0.31851000  1
  Mg  Mg82  1  0.81554400  0.55067200  0.39477400  1
  Mg  Mg83  1  0.53060400  0.80951900  0.37247400  1
  Mg  Mg84  1  0.17686800  0.79421700  0.38777600  1
  Mg  Mg85  1  0.52299200  0.97835400  0.38362700  1
  Mg  Mg86  1  0.91233000  0.38129600  0.37057700  1
  Mg  Mg87  1  0.05100600  0.08588400  0.42944300  1
  Mg  Mg88  1  0.86393700  0.96598400  0.38267500  1
  Mg  Mg89  1  0.03060400  0.83078300  0.35121000  1
  Mg  Mg90  1  0.27584500  0.04014100  0.32184100  1
  Mg  Mg91  1  0.70488200  0.95504100  0.38029700  1
  Mg  Mg92  1  0.20488200  0.95361500  0.38172400  1
  Mg  Mg93  1  0.19727100  0.67431800  0.34100900  1
  Mg  Mg94  1  0.84353500  0.13775200  0.37757500  1
  Mg  Mg95  1  0.61393700  0.02848400  0.32017500  1
  Mg  Mg96  1  0.55100600  0.13775200  0.37757500  1
  Mg  Mg97  1  0.18965900  0.26859400  0.42672100  1
  Mg  Mg98  1  0.11869600  0.30849500  0.36017700  1
  Mg  Mg99  1  0.48221100  0.96733900  0.31144000  1
  Mg  Mg100  1  0.69727100  0.10118600  0.41414100  1
  Mg  Mg101  1  0.34353500  0.08588400  0.42944300  1
  Mg  Mg102  1  0.68965900  0.27002100  0.42529400  1
  Mg  Mg103  1  0.07899700  0.67296300  0.41224400  1
  Mg  Mg104  1  0.71767300  0.50255000  0.34610900  1
  Mg  Mg105  1  0.03060400  0.25765100  0.42434200  1
  Mg  Mg106  1  0.19727100  0.12245000  0.39287700  1
  Mg  Mg107  1  0.44251200  0.33180700  0.36350700  1
  Mg  Mg108  1  0.87154900  0.24670800  0.42196400  1
  Mg  Mg109  1  0.37154900  0.24528100  0.42339000  1
  Mg  Mg110  1  0.36393700  0.96598400  0.38267500  1
  Mg  Mg111  1  0.01020100  0.42941800  0.41924100  1
  Mg  Mg112  1  0.78060400  0.32015100  0.36184200  1
  Mg  Mg113  1  0.71767300  0.42941800  0.41924100  1
  Mg  Mg114  1  0.85632500  0.68526100  0.34338700  1
  Mg  Mg115  1  0.28536200  0.60016100  0.40184400  1
  Mg  Mg116  1  0.64887700  0.25900600  0.35310700  1
  Mg  Mg117  1  0.36393700  0.51785200  0.33080700  1
  Mg  Mg118  1  0.01020100  0.50255000  0.34610900  1
  Mg  Mg119  1  0.35632500  0.68668700  0.34196100  1
  Mg  Mg120  1  0.74566400  0.08962900  0.32891000  1
  Mg  Mg121  1  0.88434000  0.79421700  0.38777600  1
  Mg  Mg122  1  0.69727100  0.67431800  0.34100900  1
  Mg  Mg123  1  0.86393700  0.53911600  0.30954300  1
  Mg  Mg124  1  0.60917900  0.62347400  0.40517400  1
  Mg  Mg125  1  0.53821600  0.66337500  0.33863000  1
  Mg  Mg126  1  0.03821600  0.66194800  0.34005700  1
  Mg  Mg127  1  0.53060400  0.25765100  0.42434200  1
  Mg  Mg128  1  0.67686800  0.84608500  0.33590800  1
  Mg  Mg129  1  0.94727100  0.61181800  0.40350900  1
  Mg  Mg130  1  0.88434000  0.72108500  0.46090800  1
  Mg  Mg131  1  0.52299200  0.85192700  0.51005400  1
  Mg  Mg132  1  0.45202900  0.89182800  0.44351000  1
  Mg  Mg133  1  0.31554400  0.42567200  0.51977400  1
  Mg  Mg134  1  0.03060400  0.68451900  0.49747400  1
  Mg  Mg135  1  0.67686800  0.66921700  0.51277600  1
  Mg  Mg136  1  0.02299200  0.85335400  0.50862700  1
  Mg  Mg137  1  0.41233000  0.25629600  0.49557700  1
  Mg  Mg138  1  0.55100600  0.96088400  0.55444300  1
  Mg  Mg139  1  0.36393700  0.84098400  0.50767500  1
  Mg  Mg140  1  0.53060400  0.70578300  0.47621000  1
  Mg  Mg141  1  0.77584500  0.91514100  0.44684100  1
  Mg  Mg142  1  0.20488200  0.83004100  0.50529700  1
  Mg  Mg143  1  0.70488200  0.82861500  0.50672400  1
  Mg  Mg144  1  0.69727100  0.54931800  0.46600900  1
  Mg  Mg145  1  0.34353500  0.01275200  0.50257500  1
  Mg  Mg146  1  0.11393700  0.90348400  0.44517500  1
  Mg  Mg147  1  0.05100600  0.01275200  0.50257500  1
  Mg  Mg148  1  0.68965900  0.14359400  0.55172100  1
  Mg  Mg149  1  0.61869600  0.18349500  0.48517700  1
  Mg  Mg150  1  0.98221100  0.84233900  0.43644000  1
  Mg  Mg151  1  0.19727100  0.97618600  0.53914100  1
  Mg  Mg152  1  0.84353500  0.96088400  0.55444300  1
  Mg  Mg153  1  0.18965900  0.14502100  0.55029400  1
  Mg  Mg154  1  0.57899700  0.54796300  0.53724400  1
  Mg  Mg155  1  0.21767300  0.37755000  0.47110900  1
  Mg  Mg156  1  0.53060400  0.13265100  0.54934200  1
  Mg  Mg157  1  0.69727100  0.99745000  0.51787700  1
  Mg  Mg158  1  0.94251200  0.20680700  0.48850700  1
  Mg  Mg159  1  0.37154900  0.12170800  0.54696400  1
  Mg  Mg160  1  0.87154900  0.12028100  0.54839000  1
  Mg  Mg161  1  0.86393700  0.84098400  0.50767500  1
  Mg  Mg162  1  0.51020100  0.30441800  0.54424100  1
  Mg  Mg163  1  0.28060400  0.19515100  0.48684200  1
  Mg  Mg164  1  0.21767300  0.30441800  0.54424100  1
  Mg  Mg165  1  0.35632500  0.56026100  0.46838700  1
  Mg  Mg166  1  0.78536200  0.47516100  0.52684400  1
  Mg  Mg167  1  0.14887700  0.13400600  0.47810700  1
  Mg  Mg168  1  0.86393700  0.39285200  0.45580700  1
  Mg  Mg169  1  0.51020100  0.37755000  0.47110900  1
  Mg  Mg170  1  0.85632500  0.56168700  0.46696100  1
  Mg  Mg171  1  0.24566400  0.96462900  0.45391000  1
  Mg  Mg172  1  0.38434000  0.66921700  0.51277600  1
  Mg  Mg173  1  0.19727100  0.54931800  0.46600900  1
  Mg  Mg174  1  0.36393700  0.41411600  0.43454300  1
  Mg  Mg175  1  0.10917900  0.49847400  0.53017400  1
  Mg  Mg176  1  0.03821600  0.53837500  0.46363000  1
  Mg  Mg177  1  0.53821600  0.53694800  0.46505700  1
  Mg  Mg178  1  0.03060400  0.13265100  0.54934200  1
  Mg  Mg179  1  0.17686800  0.72108500  0.46090800  1
  Mg  Mg180  1  0.44727100  0.48681800  0.52850900  1
  Mg  Mg181  1  0.38434000  0.59608500  0.58590800  1
  Mg  Mg182  1  0.02299200  0.72692700  0.63505400  1
  Mg  Mg183  1  0.95202900  0.76682800  0.56851000  1
  Mg  Mg184  1  0.81554400  0.30067200  0.64477400  1
  Mg  Mg185  1  0.53060400  0.55951900  0.62247400  1
  Mg  Mg186  1  0.17686800  0.54421700  0.63777600  1
  Mg  Mg187  1  0.52299200  0.72835400  0.63362700  1
  Mg  Mg188  1  0.91233000  0.13129600  0.62057700  1
  Mg  Mg189  1  0.05100600  0.83588400  0.67944300  1
  Mg  Mg190  1  0.86393700  0.71598400  0.63267500  1
  Mg  Mg191  1  0.03060400  0.58078300  0.60121000  1
  Mg  Mg192  1  0.27584500  0.79014100  0.57184100  1
  Mg  Mg193  1  0.70488200  0.70504100  0.63029700  1
  Mg  Mg194  1  0.20488200  0.70361500  0.63172400  1
  Mg  Mg195  1  0.19727100  0.42431800  0.59100900  1
  Mg  Mg196  1  0.84353500  0.88775200  0.62757500  1
  Mg  Mg197  1  0.61393700  0.77848400  0.57017500  1
  Mg  Mg198  1  0.55100600  0.88775200  0.62757500  1
  Mg  Mg199  1  0.18965900  0.01859400  0.67672100  1
  Mg  Mg200  1  0.11869600  0.05849500  0.61017700  1
  Mg  Mg201  1  0.48221100  0.71733900  0.56144000  1
  Mg  Mg202  1  0.69727100  0.85118600  0.66414100  1
  Mg  Mg203  1  0.34353500  0.83588400  0.67944300  1
  Mg  Mg204  1  0.68965900  0.02002100  0.67529400  1
  Mg  Mg205  1  0.07899700  0.42296300  0.66224400  1
  Mg  Mg206  1  0.71767300  0.25255000  0.59610900  1
  Mg  Mg207  1  0.03060400  0.00765100  0.67434200  1
  Mg  Mg208  1  0.19727100  0.87245000  0.64287700  1
  Mg  Mg209  1  0.44251200  0.08180700  0.61350700  1
  Mg  Mg210  1  0.87154900  0.99670800  0.67196400  1
  Mg  Mg211  1  0.37154900  0.99528100  0.67339000  1
  Mg  Mg212  1  0.36393700  0.71598400  0.63267500  1
  Mg  Mg213  1  0.01020100  0.17941800  0.66924100  1
  Mg  Mg214  1  0.78060400  0.07015100  0.61184200  1
  Mg  Mg215  1  0.71767300  0.17941800  0.66924100  1
  Mg  Mg216  1  0.85632500  0.43526100  0.59338700  1
  Mg  Mg217  1  0.28536200  0.35016100  0.65184400  1
  Mg  Mg218  1  0.64887700  0.00900600  0.60310700  1
  Mg  Mg219  1  0.36393700  0.26785200  0.58080700  1
  Mg  Mg220  1  0.01020100  0.25255000  0.59610900  1
  Mg  Mg221  1  0.35632500  0.43668700  0.59196100  1
  Mg  Mg222  1  0.74566400  0.83962900  0.57891000  1
  Mg  Mg223  1  0.88434000  0.54421700  0.63777600  1
  Mg  Mg224  1  0.69727100  0.42431800  0.59100900  1
  Mg  Mg225  1  0.86393700  0.28911600  0.55954300  1
  Mg  Mg226  1  0.60917900  0.37347400  0.65517400  1
  Mg  Mg227  1  0.53821600  0.41337500  0.58863000  1
  Mg  Mg228  1  0.03821600  0.41194800  0.59005700  1
  Mg  Mg229  1  0.53060400  0.00765100  0.67434200  1
  Mg  Mg230  1  0.67686800  0.59608500  0.58590800  1
  Mg  Mg231  1  0.94727100  0.36181800  0.65350900  1
  Mg  Mg232  1  0.88434000  0.47108500  0.71090800  1
  Mg  Mg233  1  0.52299200  0.60192700  0.76005400  1
  Mg  Mg234  1  0.45202900  0.64182800  0.69351000  1
  Mg  Mg235  1  0.31554400  0.17567200  0.76977400  1
  Mg  Mg236  1  0.03060400  0.43451900  0.74747400  1
  Mg  Mg237  1  0.67686800  0.41921700  0.76277600  1
  Mg  Mg238  1  0.02299200  0.60335400  0.75862700  1
  Mg  Mg239  1  0.41233000  0.00629600  0.74557700  1
  Mg  Mg240  1  0.36393700  0.59098400  0.75767500  1
  Mg  Mg241  1  0.53060400  0.45578300  0.72621000  1
  Mg  Mg242  1  0.77584500  0.66514100  0.69684100  1
  Mg  Mg243  1  0.20488200  0.58004100  0.75529700  1
  Mg  Mg244  1  0.70488200  0.57861500  0.75672400  1
  Mg  Mg245  1  0.69727100  0.29931800  0.71600900  1
  Mg  Mg246  1  0.34353500  0.76275200  0.75257500  1
  Mg  Mg247  1  0.11393700  0.65348400  0.69517500  1
  Mg  Mg248  1  0.05100600  0.76275200  0.75257500  1
  Mg  Mg249  1  0.61869600  0.93349500  0.73517700  1
  Mg  Mg250  1  0.98221100  0.59233900  0.68644000  1
  Mg  Mg251  1  0.19727100  0.72618600  0.78914100  1
  Mg  Mg252  1  0.57899700  0.29796300  0.78724400  1
  Mg  Mg253  1  0.21767300  0.12755000  0.72110900  1
  Mg  Mg254  1  0.69727100  0.74745000  0.76787700  1
  Mg  Mg255  1  0.94251200  0.95680700  0.73850700  1
  Mg  Mg256  1  0.86393700  0.59098400  0.75767500  1
  Mg  Mg257  1  0.28060400  0.94515100  0.73684200  1
  Mg  Mg258  1  0.35632500  0.31026100  0.71838700  1
  Mg  Mg259  1  0.78536200  0.22516100  0.77684400  1
  Mg  Mg260  1  0.14887700  0.88400600  0.72810700  1
  Mg  Mg261  1  0.86393700  0.14285200  0.70580700  1
  Mg  Mg262  1  0.51020100  0.12755000  0.72110900  1
  Mg  Mg263  1  0.85632500  0.31168700  0.71696100  1
  Mg  Mg264  1  0.24566400  0.71462900  0.70391000  1
  Mg  Mg265  1  0.38434000  0.41921700  0.76277600  1
  Mg  Mg266  1  0.19727100  0.29931800  0.71600900  1
  Mg  Mg267  1  0.36393700  0.16411600  0.68454300  1
  Mg  Mg268  1  0.10917900  0.24847400  0.78017400  1
  Mg  Mg269  1  0.03821600  0.28837500  0.71363000  1
  Mg  Mg270  1  0.53821600  0.28694800  0.71505700  1
  Mg  Mg271  1  0.17686800  0.47108500  0.71090800  1
  Mg  Mg272  1  0.44727100  0.23681800  0.77850900  1
