# generated using pymatgen
data_Mg26Zn43
_symmetry_space_group_name_H-M   'P 1'
_cell_length_a   5.07402237
_cell_length_b   17.20699092
_cell_length_c   54.58155700
_cell_angle_alpha   87.89733091
_cell_angle_beta   92.22235669
_cell_angle_gamma   98.42726965
_symmetry_Int_Tables_number   1
_chemical_formula_structural   Mg26Zn43
_chemical_formula_sum   'Mg52 Zn86'
_cell_volume   4708.12472958
_cell_formula_units_Z   2
loop_
 _symmetry_equiv_pos_site_id
 _symmetry_equiv_pos_as_xyz
  1  'x, y, z'
loop_
 _atom_site_type_symbol
 _atom_site_label
 _atom_site_symmetry_multiplicity
 _atom_site_fract_x
 _atom_site_fract_y
 _atom_site_fract_z
 _atom_site_occupancy
  Mg  Mg0  1  0.45041700  0.44774200  0.37925400  1
  Mg  Mg1  1  0.10752400  0.83193500  0.29759900  1
  Mg  Mg2  1  0.90202800  0.35983700  0.36360000  1
  Mg  Mg3  1  0.02387800  0.65389600  0.32069300  1
  Mg  Mg4  1  0.81073500  0.21463700  0.33458200  1
  Mg  Mg5  1  0.52731600  0.62418100  0.35565500  1
  Mg  Mg6  1  0.60523900  0.74253900  0.40058300  1
  Mg  Mg7  1  0.18544800  0.95029300  0.34252700  1
  Mg  Mg8  1  0.36991600  0.33884600  0.32735100  1
  Mg  Mg9  1  0.68888500  0.92057700  0.37748900  1
  Mg  Mg10  1  0.26234600  0.12673100  0.31892800  1
  Mg  Mg11  1  0.34284800  0.23562700  0.37083000  1
  Mg  Mg12  1  0.25041700  0.84774200  0.57925400  1
  Mg  Mg13  1  0.18884100  0.83148800  0.47792900  1
  Mg  Mg14  1  0.90752400  0.23193500  0.49759900  1
  Mg  Mg15  1  0.70202800  0.75983700  0.56360000  1
  Mg  Mg16  1  0.74589800  0.93821600  0.47565800  1
  Mg  Mg17  1  0.48185100  0.44170400  0.44035100  1
  Mg  Mg18  1  0.82387800  0.05389600  0.52069300  1
  Mg  Mg19  1  0.61073500  0.61463700  0.53458200  1
  Mg  Mg20  1  0.32731600  0.02418100  0.55565500  1
  Mg  Mg21  1  0.76686500  0.03625700  0.42252400  1
  Mg  Mg22  1  0.40523900  0.14253900  0.60058300  1
  Mg  Mg23  1  0.98544800  0.35029300  0.54252700  1
  Mg  Mg24  1  0.16991600  0.73884600  0.52735100  1
  Mg  Mg25  1  0.40136500  0.26389600  0.46300600  1
  Mg  Mg26  1  0.11139800  0.71057800  0.43517600  1
  Mg  Mg27  1  0.48888500  0.32057700  0.57748900  1
  Mg  Mg28  1  0.06234600  0.52673100  0.51892800  1
  Mg  Mg29  1  0.03091200  0.53276900  0.45783100  1
  Mg  Mg30  1  0.32392300  0.14298500  0.42025300  1
  Mg  Mg31  1  0.14284800  0.63562700  0.57083000  1
  Mg  Mg32  1  0.05041700  0.24774200  0.77925400  1
  Mg  Mg33  1  0.98884100  0.23148800  0.67792900  1
  Mg  Mg34  1  0.70752400  0.63193500  0.69759900  1
  Mg  Mg35  1  0.50202800  0.15983700  0.76360000  1
  Mg  Mg36  1  0.54589800  0.33821600  0.67565800  1
  Mg  Mg37  1  0.28185100  0.84170400  0.64035100  1
  Mg  Mg38  1  0.62387800  0.45389600  0.72069300  1
  Mg  Mg39  1  0.41073500  0.01463700  0.73458200  1
  Mg  Mg40  1  0.12731600  0.42418100  0.75565500  1
  Mg  Mg41  1  0.56686500  0.43625700  0.62252400  1
  Mg  Mg42  1  0.20523900  0.54253900  0.80058300  1
  Mg  Mg43  1  0.78544800  0.75029300  0.74252700  1
  Mg  Mg44  1  0.96991600  0.13884600  0.72735100  1
  Mg  Mg45  1  0.20136500  0.66389600  0.66300600  1
  Mg  Mg46  1  0.91139800  0.11057800  0.63517600  1
  Mg  Mg47  1  0.28888500  0.72057700  0.77748900  1
  Mg  Mg48  1  0.86234600  0.92673100  0.71892800  1
  Mg  Mg49  1  0.83091200  0.93276900  0.65783100  1
  Mg  Mg50  1  0.12392300  0.54298500  0.62025300  1
  Mg  Mg51  1  0.94284800  0.03562700  0.77083000  1
  Zn  Zn52  1  0.47906100  0.59218100  0.29770800  1
  Zn  Zn53  1  0.88144700  0.38250100  0.30541700  1
  Zn  Zn54  1  0.07324700  0.68409000  0.37894400  1
  Zn  Zn55  1  0.51269200  0.08035800  0.36980700  1
  Zn  Zn56  1  0.69552700  0.49321100  0.32731300  1
  Zn  Zn57  1  0.85638200  0.78723700  0.34909100  1
  Zn  Zn58  1  0.23370300  0.98229300  0.40047400  1
  Zn  Zn59  1  0.56463500  0.74222100  0.30978200  1
  Zn  Zn60  1  0.83131600  0.19197200  0.39276500  1
  Zn  Zn61  1  0.01723600  0.08126200  0.37086900  1
  Zn  Zn62  1  0.14812800  0.83225300  0.38839900  1
  Zn  Zn63  1  0.35638200  0.78723700  0.34909100  1
  Zn  Zn64  1  0.98478600  0.53766400  0.36657300  1
  Zn  Zn65  1  0.72797700  0.03680900  0.33160800  1
  Zn  Zn66  1  0.20007100  0.49411600  0.32837500  1
  Zn  Zn67  1  0.63951600  0.89038400  0.31923800  1
  Zn  Zn68  1  0.27906100  0.99218100  0.49770800  1
  Zn  Zn69  1  0.68144700  0.78250100  0.50541700  1
  Zn  Zn70  1  0.87324700  0.08409000  0.57894400  1
  Zn  Zn71  1  0.31269200  0.48035800  0.56980700  1
  Zn  Zn72  1  0.93261600  0.86975200  0.42873100  1
  Zn  Zn73  1  0.49552700  0.89321100  0.52731300  1
  Zn  Zn74  1  0.65638200  0.18723700  0.54909100  1
  Zn  Zn75  1  0.03370300  0.38229300  0.60047400  1
  Zn  Zn76  1  0.57211600  0.61950600  0.44667900  1
  Zn  Zn77  1  0.07387300  0.10494000  0.46950400  1
  Zn  Zn78  1  0.77881600  0.58020200  0.40781100  1
  Zn  Zn79  1  0.96522400  0.44579400  0.40996800  1
  Zn  Zn80  1  0.36463500  0.14222100  0.50978200  1
  Zn  Zn81  1  0.86572000  0.20313600  0.44085200  1
  Zn  Zn82  1  0.63131600  0.59197200  0.59276500  1
  Zn  Zn83  1  0.94064700  0.35496700  0.45150300  1
  Zn  Zn84  1  0.15911400  0.31212400  0.41136300  1
  Zn  Zn85  1  0.43889100  0.86953400  0.42867800  1
  Zn  Zn86  1  0.81723600  0.48126200  0.57086900  1
  Zn  Zn87  1  0.94812800  0.23225300  0.58839900  1
  Zn  Zn88  1  0.35364900  0.66234900  0.48681900  1
  Zn  Zn89  1  0.58014700  0.10472100  0.46945100  1
  Zn  Zn90  1  0.15638200  0.18723700  0.54909100  1
  Zn  Zn91  1  0.78478600  0.93766400  0.56657300  1
  Zn  Zn92  1  0.28322400  0.58048800  0.40821800  1
  Zn  Zn93  1  0.64528600  0.31215800  0.41047100  1
  Zn  Zn94  1  0.52797700  0.43680900  0.53160800  1
  Zn  Zn95  1  0.86747700  0.66231500  0.48771100  1
  Zn  Zn96  1  0.64704300  0.77133800  0.45733000  1
  Zn  Zn97  1  0.22953900  0.39398500  0.48996400  1
  Zn  Zn98  1  0.00007100  0.89411600  0.52837500  1
  Zn  Zn99  1  0.25638200  0.98723700  0.44909100  1
  Zn  Zn100  1  0.73394800  0.39427200  0.49037000  1
  Zn  Zn101  1  0.54754000  0.52867900  0.48821400  1
  Zn  Zn102  1  0.43951600  0.29038400  0.51923800  1
  Zn  Zn103  1  0.07906100  0.39218100  0.69770800  1
  Zn  Zn104  1  0.48144700  0.18250100  0.70541700  1
  Zn  Zn105  1  0.67324700  0.48409000  0.77894400  1
  Zn  Zn106  1  0.11269200  0.88035800  0.76980700  1
  Zn  Zn107  1  0.73261600  0.26975200  0.62873100  1
  Zn  Zn108  1  0.29552700  0.29321100  0.72731300  1
  Zn  Zn109  1  0.45638200  0.58723700  0.74909100  1
  Zn  Zn110  1  0.83370300  0.78229300  0.80047400  1
  Zn  Zn111  1  0.37211600  0.01950600  0.64667900  1
  Zn  Zn112  1  0.87387300  0.50494000  0.66950400  1
  Zn  Zn113  1  0.57881600  0.98020200  0.60781100  1
  Zn  Zn114  1  0.76522400  0.84579400  0.60996800  1
  Zn  Zn115  1  0.16463500  0.54222100  0.70978200  1
  Zn  Zn116  1  0.66572000  0.60313600  0.64085200  1
  Zn  Zn117  1  0.43131600  0.99197200  0.79276500  1
  Zn  Zn118  1  0.74064700  0.75496700  0.65150300  1
  Zn  Zn119  1  0.95911400  0.71212400  0.61136300  1
  Zn  Zn120  1  0.23889100  0.26953400  0.62867800  1
  Zn  Zn121  1  0.61723600  0.88126200  0.77086900  1
  Zn  Zn122  1  0.74812800  0.63225300  0.78839900  1
  Zn  Zn123  1  0.15364900  0.06234900  0.68681900  1
  Zn  Zn124  1  0.38014700  0.50472100  0.66945100  1
  Zn  Zn125  1  0.95638200  0.58723700  0.74909100  1
  Zn  Zn126  1  0.58478600  0.33766400  0.76657300  1
  Zn  Zn127  1  0.08322400  0.98048800  0.60821800  1
  Zn  Zn128  1  0.44528600  0.71215800  0.61047100  1
  Zn  Zn129  1  0.32797700  0.83680900  0.73160800  1
  Zn  Zn130  1  0.66747700  0.06231500  0.68771100  1
  Zn  Zn131  1  0.44704300  0.17133800  0.65733000  1
  Zn  Zn132  1  0.02953900  0.79398500  0.68996400  1
  Zn  Zn133  1  0.80007100  0.29411600  0.72837500  1
  Zn  Zn134  1  0.05638200  0.38723700  0.64909100  1
  Zn  Zn135  1  0.53394800  0.79427200  0.69037000  1
  Zn  Zn136  1  0.34754000  0.92867900  0.68821400  1
  Zn  Zn137  1  0.23951600  0.69038400  0.71923800  1
