# generated using pymatgen
data_CaMg3
_symmetry_space_group_name_H-M   'P 1'
_cell_length_a   6.85063189
_cell_length_b   8.66046516
_cell_length_c   43.61539000
_cell_angle_alpha   92.92720358
_cell_angle_beta   94.50433414
_cell_angle_gamma   66.70210760
_symmetry_Int_Tables_number   1
_chemical_formula_structural   CaMg3
_chemical_formula_sum   'Ca14 Mg42'
_cell_volume   2368.78240900
_cell_formula_units_Z   14
loop_
 _symmetry_equiv_pos_site_id
 _symmetry_equiv_pos_as_xyz
  1  'x, y, z'
loop_
 _atom_site_type_symbol
 _atom_site_label
 _atom_site_symmetry_multiplicity
 _atom_site_fract_x
 _atom_site_fract_y
 _atom_site_fract_z
 _atom_site_occupancy
  Ca  Ca0  1  0.25757600  0.52272700  0.21969700  1
  Ca  Ca1  1  0.56060600  0.93181800  0.23484800  1
  Ca  Ca2  1  0.07575800  0.97727300  0.31060600  1
  Ca  Ca3  1  0.37878800  0.38636400  0.32575800  1
  Ca  Ca4  1  0.89393900  0.43181800  0.40151500  1
  Ca  Ca5  1  0.19697000  0.84090900  0.41666700  1
  Ca  Ca6  1  0.71212100  0.88636400  0.49242400  1
  Ca  Ca7  1  0.01515200  0.29545500  0.50757600  1
  Ca  Ca8  1  0.53030300  0.34090900  0.58333300  1
  Ca  Ca9  1  0.83333300  0.75000000  0.59848500  1
  Ca  Ca10  1  0.34848500  0.79545500  0.67424200  1
  Ca  Ca11  1  0.65151500  0.20454500  0.68939400  1
  Ca  Ca12  1  0.16666700  0.25000000  0.76515200  1
  Ca  Ca13  1  0.46969700  0.65909100  0.78030300  1
  Mg  Mg14  1  0.15571000  0.25328700  0.26460400  1
  Mg  Mg15  1  0.76141100  0.51615300  0.22079300  1
  Mg  Mg16  1  0.67378900  0.25328700  0.26460400  1
  Mg  Mg17  1  0.14439300  0.20125800  0.18994200  1
  Mg  Mg18  1  0.66247200  0.20125800  0.18994200  1
  Mg  Mg19  1  0.05677100  0.93839200  0.23375300  1
  Mg  Mg20  1  0.97389100  0.70783300  0.35551300  1
  Mg  Mg21  1  0.57959300  0.97069800  0.31170200  1
  Mg  Mg22  1  0.49197100  0.70783300  0.35551300  1
  Mg  Mg23  1  0.96257500  0.65580400  0.28085100  1
  Mg  Mg24  1  0.48065400  0.65580400  0.28085100  1
  Mg  Mg25  1  0.87495300  0.39293800  0.32466200  1
  Mg  Mg26  1  0.79207300  0.16237800  0.44642200  1
  Mg  Mg27  1  0.39777400  0.42524400  0.40261100  1
  Mg  Mg28  1  0.31015200  0.16237800  0.44642200  1
  Mg  Mg29  1  0.78075700  0.11034900  0.37176000  1
  Mg  Mg30  1  0.29883600  0.11034900  0.37176000  1
  Mg  Mg31  1  0.69313500  0.84748300  0.41557100  1
  Mg  Mg32  1  0.61025500  0.61692300  0.53733100  1
  Mg  Mg33  1  0.21595600  0.87978900  0.49352000  1
  Mg  Mg34  1  0.12833400  0.61692300  0.53733100  1
  Mg  Mg35  1  0.59893900  0.56489500  0.46266900  1
  Mg  Mg36  1  0.11701800  0.56489500  0.46266900  1
  Mg  Mg37  1  0.51131700  0.30202900  0.50648000  1
  Mg  Mg38  1  0.42843700  0.07146900  0.62824000  1
  Mg  Mg39  1  0.03413800  0.33433500  0.58442900  1
  Mg  Mg40  1  0.94651600  0.07146900  0.62824000  1
  Mg  Mg41  1  0.41712000  0.01944000  0.55357800  1
  Mg  Mg42  1  0.93520000  0.01944000  0.55357800  1
  Mg  Mg43  1  0.32949800  0.75657400  0.59738900  1
  Mg  Mg44  1  0.24661900  0.52601400  0.71914900  1
  Mg  Mg45  1  0.85232000  0.78888000  0.67533800  1
  Mg  Mg46  1  0.76469800  0.52601400  0.71914900  1
  Mg  Mg47  1  0.23530200  0.47398600  0.64448700  1
  Mg  Mg48  1  0.75338100  0.47398600  0.64448700  1
  Mg  Mg49  1  0.14768000  0.21112000  0.68829800  1
  Mg  Mg50  1  0.06480000  0.98056000  0.81005800  1
  Mg  Mg51  1  0.67050200  0.24342600  0.76624700  1
  Mg  Mg52  1  0.58288000  0.98056000  0.81005800  1
  Mg  Mg53  1  0.05348400  0.92853100  0.73539600  1
  Mg  Mg54  1  0.57156300  0.92853100  0.73539600  1
  Mg  Mg55  1  0.96586200  0.66566500  0.77920700  1
