# generated using pymatgen
data_Ba16Mg33
_symmetry_space_group_name_H-M   'P 1'
_cell_length_a   6.58888000
_cell_length_b   12.70238114
_cell_length_c   40.54514400
_cell_angle_alpha   85.48813798
_cell_angle_beta   90.00000000
_cell_angle_gamma   74.96814132
_symmetry_Int_Tables_number   1
_chemical_formula_structural   Ba16Mg33
_chemical_formula_sum   'Ba16 Mg33'
_cell_volume   3266.39809970
_cell_formula_units_Z   1
loop_
 _symmetry_equiv_pos_site_id
 _symmetry_equiv_pos_as_xyz
  1  'x, y, z'
loop_
 _atom_site_type_symbol
 _atom_site_label
 _atom_site_symmetry_multiplicity
 _atom_site_fract_x
 _atom_site_fract_y
 _atom_site_fract_z
 _atom_site_occupancy
  Ba  Ba0  1  0.27823500  0.90493000  0.20625000  1
  Ba  Ba1  1  0.54906800  0.36326400  0.22708300  1
  Ba  Ba2  1  0.31781500  0.82577000  0.30416700  1
  Ba  Ba3  1  0.04698200  0.36743600  0.28333400  1
  Ba  Ba4  1  0.90323500  0.65493000  0.33125000  1
  Ba  Ba5  1  0.17406800  0.11326400  0.35208300  1
  Ba  Ba6  1  0.94281500  0.57577000  0.42916700  1
  Ba  Ba7  1  0.67198200  0.11743600  0.40833400  1
  Ba  Ba8  1  0.52823500  0.40493000  0.45625000  1
  Ba  Ba9  1  0.79906800  0.86326400  0.47708300  1
  Ba  Ba10  1  0.56781500  0.32577000  0.55416700  1
  Ba  Ba11  1  0.29698200  0.86743600  0.53333400  1
  Ba  Ba12  1  0.15323500  0.15493000  0.58125000  1
  Ba  Ba13  1  0.42406800  0.61326400  0.60208300  1
  Ba  Ba14  1  0.19281500  0.07577000  0.67916700  1
  Ba  Ba15  1  0.92198200  0.61743600  0.65833400  1
  Mg  Mg16  1  0.12017500  0.22105000  0.20235800  1
  Mg  Mg17  1  0.15762500  0.63695000  0.24440800  1
  Mg  Mg18  1  0.66682500  0.63695000  0.24440800  1
  Mg  Mg19  1  0.92922500  0.09375000  0.26600800  1
  Mg  Mg20  1  0.98552500  0.49035000  0.19270800  1
  Mg  Mg21  1  0.79802500  0.86535000  0.25520800  1
  Mg  Mg22  1  0.47587500  0.50965000  0.30805800  1
  Mg  Mg23  1  0.43842500  0.09375000  0.26600800  1
  Mg  Mg24  1  0.74517500  0.97105000  0.32735800  1
  Mg  Mg25  1  0.78262500  0.38695000  0.36940800  1
  Mg  Mg26  1  0.29182500  0.38695000  0.36940800  1
  Mg  Mg27  1  0.55422500  0.84375000  0.39100800  1
  Mg  Mg28  1  0.61052500  0.24035000  0.31770800  1
  Mg  Mg29  1  0.42302500  0.61535000  0.38020800  1
  Mg  Mg30  1  0.10087500  0.25965000  0.43305800  1
  Mg  Mg31  1  0.06342500  0.84375000  0.39100800  1
  Mg  Mg32  1  0.37017500  0.72105000  0.45235800  1
  Mg  Mg33  1  0.40762500  0.13695000  0.49440800  1
  Mg  Mg34  1  0.91682500  0.13695000  0.49440800  1
  Mg  Mg35  1  0.17922500  0.59375000  0.51600800  1
  Mg  Mg36  1  0.23552500  0.99035000  0.44270800  1
  Mg  Mg37  1  0.04802500  0.36535000  0.50520800  1
  Mg  Mg38  1  0.72587500  0.00965000  0.55805800  1
  Mg  Mg39  1  0.68842500  0.59375000  0.51600800  1
  Mg  Mg40  1  0.99517500  0.47105000  0.57735800  1
  Mg  Mg41  1  0.03262500  0.88695000  0.61940800  1
  Mg  Mg42  1  0.54182500  0.88695000  0.61940800  1
  Mg  Mg43  1  0.80422500  0.34375000  0.64100800  1
  Mg  Mg44  1  0.86052500  0.74035000  0.56770800  1
  Mg  Mg45  1  0.67302500  0.11535000  0.63020800  1
  Mg  Mg46  1  0.35087500  0.75965000  0.68305800  1
  Mg  Mg47  1  0.31342500  0.34375000  0.64100800  1
  Mg  Mg48  1  0.48552500  0.49035000  0.69270800  1
