# generated using pymatgen
data_Mg5Pd2
_symmetry_space_group_name_H-M   'P 1'
_cell_length_a   8.83883700
_cell_length_b   8.02302000
_cell_length_c   45.92794300
_cell_angle_alpha   90.00000000
_cell_angle_beta   90.00000000
_cell_angle_gamma   90.00000000
_symmetry_Int_Tables_number   1
_chemical_formula_structural   Mg5Pd2
_chemical_formula_sum   'Mg80 Pd32'
_cell_volume   3256.94177521
_cell_formula_units_Z   16
loop_
 _symmetry_equiv_pos_site_id
 _symmetry_equiv_pos_as_xyz
  1  'x, y, z'
loop_
 _atom_site_type_symbol
 _atom_site_label
 _atom_site_symmetry_multiplicity
 _atom_site_fract_x
 _atom_site_fract_y
 _atom_site_fract_z
 _atom_site_occupancy
  Mg  Mg0  1  0.46267500  0.93540600  0.21807500  1
  Mg  Mg1  1  0.75000000  0.93540600  0.31385000  1
  Mg  Mg2  1  0.03732500  0.93540600  0.21807500  1
  Mg  Mg3  1  0.03732500  0.06459400  0.28192500  1
  Mg  Mg4  1  0.75000000  0.06459400  0.18615000  1
  Mg  Mg5  1  0.46267500  0.06459400  0.28192500  1
  Mg  Mg6  1  0.03732500  0.43540600  0.28192500  1
  Mg  Mg7  1  0.75000000  0.43540600  0.18615000  1
  Mg  Mg8  1  0.46267500  0.43540600  0.28192500  1
  Mg  Mg9  1  0.46267500  0.56459400  0.21807500  1
  Mg  Mg10  1  0.75000000  0.56459400  0.31385000  1
  Mg  Mg11  1  0.03732500  0.56459400  0.21807500  1
  Mg  Mg12  1  0.44152400  0.75000000  0.32683600  1
  Mg  Mg13  1  0.25000000  0.75000000  0.26299500  1
  Mg  Mg14  1  0.05847600  0.75000000  0.32683600  1
  Mg  Mg15  1  0.05847600  0.25000000  0.17316400  1
  Mg  Mg16  1  0.25000000  0.25000000  0.23700500  1
  Mg  Mg17  1  0.44152400  0.25000000  0.17316400  1
  Mg  Mg18  1  0.75000000  0.00000000  0.25000000  1
  Mg  Mg19  1  0.75000000  0.50000000  0.25000000  1
  Mg  Mg20  1  0.96267500  0.93540600  0.38474200  1
  Mg  Mg21  1  0.25000000  0.93540600  0.48051700  1
  Mg  Mg22  1  0.53732500  0.93540600  0.38474200  1
  Mg  Mg23  1  0.53732500  0.06459400  0.44859200  1
  Mg  Mg24  1  0.25000000  0.06459400  0.35281700  1
  Mg  Mg25  1  0.96267500  0.06459400  0.44859200  1
  Mg  Mg26  1  0.53732500  0.43540600  0.44859200  1
  Mg  Mg27  1  0.25000000  0.43540600  0.35281700  1
  Mg  Mg28  1  0.96267500  0.43540600  0.44859200  1
  Mg  Mg29  1  0.96267500  0.56459400  0.38474200  1
  Mg  Mg30  1  0.25000000  0.56459400  0.48051700  1
  Mg  Mg31  1  0.53732500  0.56459400  0.38474200  1
  Mg  Mg32  1  0.94152400  0.75000000  0.49350300  1
  Mg  Mg33  1  0.75000000  0.75000000  0.42966100  1
  Mg  Mg34  1  0.55847600  0.75000000  0.49350300  1
  Mg  Mg35  1  0.55847600  0.25000000  0.33983100  1
  Mg  Mg36  1  0.75000000  0.25000000  0.40367200  1
  Mg  Mg37  1  0.94152400  0.25000000  0.33983100  1
  Mg  Mg38  1  0.25000000  0.00000000  0.41666700  1
  Mg  Mg39  1  0.25000000  0.50000000  0.41666700  1
  Mg  Mg40  1  0.46267500  0.93540600  0.55140800  1
  Mg  Mg41  1  0.75000000  0.93540600  0.64718300  1
  Mg  Mg42  1  0.03732500  0.93540600  0.55140800  1
  Mg  Mg43  1  0.03732500  0.06459400  0.61525800  1
  Mg  Mg44  1  0.75000000  0.06459400  0.51948300  1
  Mg  Mg45  1  0.46267500  0.06459400  0.61525800  1
  Mg  Mg46  1  0.03732500  0.43540600  0.61525800  1
  Mg  Mg47  1  0.75000000  0.43540600  0.51948300  1
  Mg  Mg48  1  0.46267500  0.43540600  0.61525800  1
  Mg  Mg49  1  0.46267500  0.56459400  0.55140800  1
  Mg  Mg50  1  0.75000000  0.56459400  0.64718300  1
  Mg  Mg51  1  0.03732500  0.56459400  0.55140800  1
  Mg  Mg52  1  0.44152400  0.75000000  0.66016900  1
  Mg  Mg53  1  0.25000000  0.75000000  0.59632800  1
  Mg  Mg54  1  0.05847600  0.75000000  0.66016900  1
  Mg  Mg55  1  0.05847600  0.25000000  0.50649700  1
  Mg  Mg56  1  0.25000000  0.25000000  0.57033900  1
  Mg  Mg57  1  0.44152400  0.25000000  0.50649700  1
  Mg  Mg58  1  0.75000000  0.00000000  0.58333300  1
  Mg  Mg59  1  0.75000000  0.50000000  0.58333300  1
  Mg  Mg60  1  0.96267500  0.93540600  0.71807500  1
  Mg  Mg61  1  0.25000000  0.93540600  0.81385000  1
  Mg  Mg62  1  0.53732500  0.93540600  0.71807500  1
  Mg  Mg63  1  0.53732500  0.06459400  0.78192500  1
  Mg  Mg64  1  0.25000000  0.06459400  0.68615000  1
  Mg  Mg65  1  0.96267500  0.06459400  0.78192500  1
  Mg  Mg66  1  0.53732500  0.43540600  0.78192500  1
  Mg  Mg67  1  0.25000000  0.43540600  0.68615000  1
  Mg  Mg68  1  0.96267500  0.43540600  0.78192500  1
  Mg  Mg69  1  0.96267500  0.56459400  0.71807500  1
  Mg  Mg70  1  0.25000000  0.56459400  0.81385000  1
  Mg  Mg71  1  0.53732500  0.56459400  0.71807500  1
  Mg  Mg72  1  0.94152400  0.75000000  0.82683600  1
  Mg  Mg73  1  0.75000000  0.75000000  0.76299500  1
  Mg  Mg74  1  0.55847600  0.75000000  0.82683600  1
  Mg  Mg75  1  0.55847600  0.25000000  0.67316400  1
  Mg  Mg76  1  0.75000000  0.25000000  0.73700500  1
  Mg  Mg77  1  0.94152400  0.25000000  0.67316400  1
  Mg  Mg78  1  0.25000000  0.00000000  0.75000000  1
  Mg  Mg79  1  0.25000000  0.50000000  0.75000000  1
  Pd  Pd80  1  0.93686500  0.75000000  0.27076300  1
  Pd  Pd81  1  0.75000000  0.75000000  0.20847400  1
  Pd  Pd82  1  0.56313500  0.75000000  0.27076300  1
  Pd  Pd83  1  0.56313500  0.25000000  0.22923700  1
  Pd  Pd84  1  0.75000000  0.25000000  0.29152600  1
  Pd  Pd85  1  0.93686500  0.25000000  0.22923700  1
  Pd  Pd86  1  0.25000000  0.75000000  0.19444400  1
  Pd  Pd87  1  0.25000000  0.25000000  0.30555600  1
  Pd  Pd88  1  0.43686500  0.75000000  0.43742900  1
  Pd  Pd89  1  0.25000000  0.75000000  0.37514100  1
  Pd  Pd90  1  0.06313500  0.75000000  0.43742900  1
  Pd  Pd91  1  0.06313500  0.25000000  0.39590400  1
  Pd  Pd92  1  0.25000000  0.25000000  0.45819200  1
  Pd  Pd93  1  0.43686500  0.25000000  0.39590400  1
  Pd  Pd94  1  0.75000000  0.75000000  0.36111100  1
  Pd  Pd95  1  0.75000000  0.25000000  0.47222200  1
  Pd  Pd96  1  0.93686500  0.75000000  0.60409600  1
  Pd  Pd97  1  0.75000000  0.75000000  0.54180800  1
  Pd  Pd98  1  0.56313500  0.75000000  0.60409600  1
  Pd  Pd99  1  0.56313500  0.25000000  0.56257100  1
  Pd  Pd100  1  0.75000000  0.25000000  0.62485900  1
  Pd  Pd101  1  0.93686500  0.25000000  0.56257100  1
  Pd  Pd102  1  0.25000000  0.75000000  0.52777800  1
  Pd  Pd103  1  0.25000000  0.25000000  0.63888900  1
  Pd  Pd104  1  0.43686500  0.75000000  0.77076300  1
  Pd  Pd105  1  0.25000000  0.75000000  0.70847400  1
  Pd  Pd106  1  0.06313500  0.75000000  0.77076300  1
  Pd  Pd107  1  0.06313500  0.25000000  0.72923700  1
  Pd  Pd108  1  0.25000000  0.25000000  0.79152600  1
  Pd  Pd109  1  0.43686500  0.25000000  0.72923700  1
  Pd  Pd110  1  0.75000000  0.75000000  0.69444400  1
  Pd  Pd111  1  0.75000000  0.25000000  0.80555600  1
