# generated using pymatgen
data_MgGa2
_symmetry_space_group_name_H-M   'P 1'
_cell_length_a   4.34920128
_cell_length_b   7.12476600
_cell_length_c   41.48873900
_cell_angle_alpha   90.00000000
_cell_angle_beta   93.00449044
_cell_angle_gamma   90.00000000
_symmetry_Int_Tables_number   1
_chemical_formula_structural   MgGa2
_chemical_formula_sum   'Mg14 Ga28'
_cell_volume   1283.84610835
_cell_formula_units_Z   14
loop_
 _symmetry_equiv_pos_site_id
 _symmetry_equiv_pos_as_xyz
  1  'x, y, z'
loop_
 _atom_site_type_symbol
 _atom_site_label
 _atom_site_symmetry_multiplicity
 _atom_site_fract_x
 _atom_site_fract_y
 _atom_site_fract_z
 _atom_site_occupancy
  Mg  Mg0  1  0.77272700  0.25000000  0.22727300  1
  Mg  Mg1  1  0.77272700  0.75000000  0.22727300  1
  Mg  Mg2  1  0.31818200  0.25000000  0.31818200  1
  Mg  Mg3  1  0.31818200  0.75000000  0.31818200  1
  Mg  Mg4  1  0.86363600  0.25000000  0.40909100  1
  Mg  Mg5  1  0.86363600  0.75000000  0.40909100  1
  Mg  Mg6  1  0.40909100  0.25000000  0.50000000  1
  Mg  Mg7  1  0.40909100  0.75000000  0.50000000  1
  Mg  Mg8  1  0.95454500  0.25000000  0.59090900  1
  Mg  Mg9  1  0.95454500  0.75000000  0.59090900  1
  Mg  Mg10  1  0.50000000  0.25000000  0.68181800  1
  Mg  Mg11  1  0.50000000  0.75000000  0.68181800  1
  Mg  Mg12  1  0.04545500  0.25000000  0.77272700  1
  Mg  Mg13  1  0.04545500  0.75000000  0.77272700  1
  Ga  Ga14  1  0.28787900  0.05226800  0.25757600  1
  Ga  Ga15  1  0.25757600  0.55226800  0.19697000  1
  Ga  Ga16  1  0.28787900  0.44773200  0.25757600  1
  Ga  Ga17  1  0.25757600  0.94773200  0.19697000  1
  Ga  Ga18  1  0.83333300  0.05226800  0.34848500  1
  Ga  Ga19  1  0.80303000  0.55226800  0.28787900  1
  Ga  Ga20  1  0.83333300  0.44773200  0.34848500  1
  Ga  Ga21  1  0.80303000  0.94773200  0.28787900  1
  Ga  Ga22  1  0.37878800  0.05226800  0.43939400  1
  Ga  Ga23  1  0.34848500  0.55226800  0.37878800  1
  Ga  Ga24  1  0.37878800  0.44773200  0.43939400  1
  Ga  Ga25  1  0.34848500  0.94773200  0.37878800  1
  Ga  Ga26  1  0.92424200  0.05226800  0.53030300  1
  Ga  Ga27  1  0.89393900  0.55226800  0.46969700  1
  Ga  Ga28  1  0.92424200  0.44773200  0.53030300  1
  Ga  Ga29  1  0.89393900  0.94773200  0.46969700  1
  Ga  Ga30  1  0.46969700  0.05226800  0.62121200  1
  Ga  Ga31  1  0.43939400  0.55226800  0.56060600  1
  Ga  Ga32  1  0.46969700  0.44773200  0.62121200  1
  Ga  Ga33  1  0.43939400  0.94773200  0.56060600  1
  Ga  Ga34  1  0.01515200  0.05226800  0.71212100  1
  Ga  Ga35  1  0.98484800  0.55226800  0.65151500  1
  Ga  Ga36  1  0.01515200  0.44773200  0.71212100  1
  Ga  Ga37  1  0.98484800  0.94773200  0.65151500  1
  Ga  Ga38  1  0.56060600  0.05226800  0.80303000  1
  Ga  Ga39  1  0.53030300  0.55226800  0.74242400  1
  Ga  Ga40  1  0.56060600  0.44773200  0.80303000  1
  Ga  Ga41  1  0.53030300  0.94773200  0.74242400  1
