# generated using pymatgen
data_Mg9Zn17
_symmetry_space_group_name_H-M   'P 1'
_cell_length_a   5.07402260
_cell_length_b   13.26606241
_cell_length_c   57.00757700
_cell_angle_alpha   92.18610401
_cell_angle_beta   87.66012493
_cell_angle_gamma   100.62858194
_symmetry_Int_Tables_number   1
_chemical_formula_structural   Mg9Zn17
_chemical_formula_sum   'Mg36 Zn68'
_cell_volume   3766.49990850
_cell_formula_units_Z   4
loop_
 _symmetry_equiv_pos_site_id
 _symmetry_equiv_pos_as_xyz
  1  'x, y, z'
loop_
 _atom_site_type_symbol
 _atom_site_label
 _atom_site_symmetry_multiplicity
 _atom_site_fract_x
 _atom_site_fract_y
 _atom_site_fract_z
 _atom_site_occupancy
  Mg  Mg0  1  0.16767700  0.54088100  0.46131900  1
  Mg  Mg1  1  0.37717700  0.90770800  0.41472000  1
  Mg  Mg2  1  0.72910100  0.53853000  0.32444300  1
  Mg  Mg3  1  0.71757000  0.66159900  0.47546800  1
  Mg  Mg4  1  0.85020800  0.83561100  0.38690200  1
  Mg  Mg5  1  0.04308700  0.33156800  0.49337700  1
  Mg  Mg6  1  0.73359600  0.59122900  0.38050000  1
  Mg  Mg7  1  0.81609000  0.87206200  0.49725900  1
  Mg  Mg8  1  0.17028600  0.49114800  0.40541000  1
  Mg  Mg9  1  0.93345300  0.94805000  0.33582500  1
  Mg  Mg10  1  0.05456000  0.24513000  0.39828400  1
  Mg  Mg11  1  0.61337500  0.29251300  0.31731800  1
  Mg  Mg12  1  0.29880800  0.80421100  0.46259200  1
  Mg  Mg13  1  0.29513900  0.63563400  0.29915600  1
  Mg  Mg14  1  0.48852200  0.14802600  0.42357100  1
  Mg  Mg15  1  0.05006400  0.19243100  0.34222800  1
  Mg  Mg16  1  0.61598400  0.24278000  0.26140900  1
  Mg  Mg17  1  0.49057300  0.20209200  0.47935000  1
  Mg  Mg18  1  0.40648400  0.87595200  0.30800700  1
  Mg  Mg19  1  0.48485300  0.97944900  0.26013600  1
  Mg  Mg20  1  0.91767700  0.29088100  0.71131900  1
  Mg  Mg21  1  0.12717700  0.65770800  0.66472000  1
  Mg  Mg22  1  0.47910100  0.28853000  0.57444300  1
  Mg  Mg23  1  0.60020800  0.58561100  0.63690200  1
  Mg  Mg24  1  0.48359600  0.34122900  0.63050000  1
  Mg  Mg25  1  0.92028600  0.24114800  0.65541000  1
  Mg  Mg26  1  0.68345300  0.69805000  0.58582500  1
  Mg  Mg27  1  0.80456000  0.99513000  0.64828400  1
  Mg  Mg28  1  0.36337500  0.04251300  0.56731800  1
  Mg  Mg29  1  0.04880800  0.55421100  0.71259200  1
  Mg  Mg30  1  0.04513900  0.38563400  0.54915600  1
  Mg  Mg31  1  0.23852200  0.89802600  0.67357100  1
  Mg  Mg32  1  0.80006400  0.94243100  0.59222800  1
  Mg  Mg33  1  0.36598400  0.99278000  0.51140900  1
  Mg  Mg34  1  0.15648400  0.62595200  0.55800700  1
  Mg  Mg35  1  0.23485300  0.72944900  0.51013600  1
  Zn  Zn36  1  0.29746200  0.71796300  0.38443600  1
  Zn  Zn37  1  0.83109200  0.84824100  0.44071100  1
  Zn  Zn38  1  0.60439900  0.36470600  0.40207700  1
  Zn  Zn39  1  0.27772600  0.09948400  0.29844100  1
  Zn  Zn40  1  0.71676500  0.05120400  0.38055500  1
  Zn  Zn41  1  0.01184600  0.68857400  0.42398100  1
  Zn  Zn42  1  0.89183000  0.39183000  0.36136400  1
  Zn  Zn43  1  0.48619900  0.06569700  0.33829100  1
  Zn  Zn44  1  0.98778100  0.17607100  0.45209000  1
  Zn  Zn45  1  0.57314600  0.73210700  0.34214400  1
  Zn  Zn46  1  0.82955700  0.34158500  0.44248300  1
  Zn  Zn47  1  0.60631300  0.43484400  0.47716300  1
  Zn  Zn48  1  0.23128600  0.56317200  0.35296300  1
  Zn  Zn49  1  0.84882500  0.75874300  0.30326900  1
  Zn  Zn50  1  0.95256900  0.93542000  0.28201700  1
  Zn  Zn51  1  0.79587900  0.60758900  0.27063700  1
  Zn  Zn52  1  0.62691200  0.78021300  0.26127800  1
  Zn  Zn53  1  0.21051500  0.05155300  0.38058300  1
  Zn  Zn54  1  0.77181500  0.09508700  0.29874600  1
  Zn  Zn55  1  0.55237500  0.22048900  0.36976400  1
  Zn  Zn56  1  0.15674900  0.00344800  0.46144900  1
  Zn  Zn57  1  0.06689600  0.73245600  0.34217300  1
  Zn  Zn58  1  0.39183000  0.39183000  0.36136400  1
  Zn  Zn59  1  0.67480900  0.51782100  0.43249800  1
  Zn  Zn60  1  0.32461000  0.33994800  0.44261400  1
  Zn  Zn61  1  0.14208600  0.78330900  0.26082300  1
  Zn  Zn62  1  0.10885200  0.26584000  0.29022900  1
  Zn  Zn63  1  0.64157400  0.00035200  0.46190400  1
  Zn  Zn64  1  0.93483500  0.02491700  0.41945800  1
  Zn  Zn65  1  0.45905000  0.44371200  0.28011300  1
  Zn  Zn66  1  0.50593500  0.68417600  0.42428600  1
  Zn  Zn67  1  0.39183000  0.89183000  0.36136400  1
  Zn  Zn68  1  0.95410400  0.44207600  0.28024500  1
  Zn  Zn69  1  0.92734800  0.09881700  0.49556500  1
  Zn  Zn70  1  0.17926200  0.41895500  0.32065100  1
  Zn  Zn71  1  0.04746200  0.46796300  0.63443600  1
  Zn  Zn72  1  0.58109200  0.59824100  0.69071100  1
  Zn  Zn73  1  0.35439900  0.11470600  0.65207700  1
  Zn  Zn74  1  0.02772600  0.84948400  0.54844100  1
  Zn  Zn75  1  0.46676500  0.80120400  0.63055500  1
  Zn  Zn76  1  0.76184600  0.43857400  0.67398100  1
  Zn  Zn77  1  0.64183000  0.14183000  0.61136400  1
  Zn  Zn78  1  0.23619900  0.81569700  0.58829100  1
  Zn  Zn79  1  0.73778100  0.92607100  0.70209000  1
  Zn  Zn80  1  0.32314600  0.48210700  0.59214400  1
  Zn  Zn81  1  0.57955700  0.09158500  0.69248300  1
  Zn  Zn82  1  0.98128600  0.31317200  0.60296300  1
  Zn  Zn83  1  0.59882500  0.50874300  0.55326900  1
  Zn  Zn84  1  0.70256900  0.68542000  0.53201700  1
  Zn  Zn85  1  0.54587900  0.35758900  0.52063700  1
  Zn  Zn86  1  0.37691200  0.53021300  0.51127800  1
  Zn  Zn87  1  0.96051500  0.80155300  0.63058300  1
  Zn  Zn88  1  0.52181500  0.84508700  0.54874600  1
  Zn  Zn89  1  0.30237500  0.97048900  0.61976400  1
  Zn  Zn90  1  0.90674900  0.75344800  0.71144900  1
  Zn  Zn91  1  0.81689600  0.48245600  0.59217300  1
  Zn  Zn92  1  0.14183000  0.14183000  0.61136400  1
  Zn  Zn93  1  0.42480900  0.26782100  0.68249800  1
  Zn  Zn94  1  0.07461000  0.08994800  0.69261400  1
  Zn  Zn95  1  0.89208600  0.53330900  0.51082300  1
  Zn  Zn96  1  0.85885200  0.01584000  0.54022900  1
  Zn  Zn97  1  0.39157400  0.75035200  0.71190400  1
  Zn  Zn98  1  0.68483500  0.77491700  0.66945800  1
  Zn  Zn99  1  0.20905000  0.19371200  0.53011300  1
  Zn  Zn100  1  0.25593500  0.43417600  0.67428600  1
  Zn  Zn101  1  0.14183000  0.64183000  0.61136400  1
  Zn  Zn102  1  0.70410400  0.19207600  0.53024500  1
  Zn  Zn103  1  0.92926200  0.16895500  0.57065100  1
