# generated using pymatgen
data_Yb2Mg
_symmetry_space_group_name_H-M   'P 1'
_cell_length_a   6.97474268
_cell_length_b   9.47017927
_cell_length_c   43.76977500
_cell_angle_alpha   87.38801216
_cell_angle_beta   89.35373178
_cell_angle_gamma   83.84723935
_symmetry_Int_Tables_number   1
_chemical_formula_structural   Yb2Mg
_chemical_formula_sum   'Yb36 Mg18'
_cell_volume   2871.38447292
_cell_formula_units_Z   18
loop_
 _symmetry_equiv_pos_site_id
 _symmetry_equiv_pos_as_xyz
  1  'x, y, z'
loop_
 _atom_site_type_symbol
 _atom_site_label
 _atom_site_symmetry_multiplicity
 _atom_site_fract_x
 _atom_site_fract_y
 _atom_site_fract_z
 _atom_site_occupancy
  Yb  Yb0  1  0.29505500  0.37444700  0.81016500  1
  Yb  Yb1  1  0.38332900  0.77860300  0.78809600  1
  Yb  Yb2  1  0.99065900  0.05412400  0.76126400  1
  Yb  Yb3  1  0.90238600  0.64996900  0.78333200  1
  Yb  Yb4  1  0.58077000  0.44587600  0.73873600  1
  Yb  Yb5  1  0.66904300  0.85003100  0.71666800  1
  Yb  Yb6  1  0.27637300  0.12555300  0.68983500  1
  Yb  Yb7  1  0.18810000  0.72139700  0.71190400  1
  Yb  Yb8  1  0.86648400  0.51730400  0.66730800  1
  Yb  Yb9  1  0.95475700  0.92146000  0.64523900  1
  Yb  Yb10  1  0.56208700  0.19698200  0.61840700  1
  Yb  Yb11  1  0.47381400  0.79282600  0.64047500  1
  Yb  Yb12  1  0.15219800  0.58873300  0.59587900  1
  Yb  Yb13  1  0.24047200  0.99288900  0.57381100  1
  Yb  Yb14  1  0.84780200  0.26841000  0.54697800  1
  Yb  Yb15  1  0.75952800  0.86425400  0.56904600  1
  Yb  Yb16  1  0.43791300  0.66016100  0.52445000  1
  Yb  Yb17  1  0.52618600  0.06431700  0.50238200  1
  Yb  Yb18  1  0.13351600  0.33983900  0.47555000  1
  Yb  Yb19  1  0.04524300  0.93568300  0.49761800  1
  Yb  Yb20  1  0.72362700  0.73159000  0.45302200  1
  Yb  Yb21  1  0.81190000  0.13574600  0.43095400  1
  Yb  Yb22  1  0.41923000  0.41126700  0.40412100  1
  Yb  Yb23  1  0.33095700  0.00711100  0.42618900  1
  Yb  Yb24  1  0.00934100  0.80301800  0.38159300  1
  Yb  Yb25  1  0.09761400  0.20717400  0.35952500  1
  Yb  Yb26  1  0.70494500  0.48269600  0.33269200  1
  Yb  Yb27  1  0.61667100  0.07854000  0.35476100  1
  Yb  Yb28  1  0.29505500  0.87444700  0.31016500  1
  Yb  Yb29  1  0.38332900  0.27860300  0.28809600  1
  Yb  Yb30  1  0.99065900  0.55412400  0.26126400  1
  Yb  Yb31  1  0.90238600  0.14996900  0.28333200  1
  Yb  Yb32  1  0.58077000  0.94587600  0.23873600  1
  Yb  Yb33  1  0.66904300  0.35003100  0.21666800  1
  Yb  Yb34  1  0.27637300  0.62555300  0.18983500  1
  Yb  Yb35  1  0.18810000  0.22139700  0.21190400  1
  Mg  Mg36  1  0.48128400  0.11740700  0.76360800  1
  Mg  Mg37  1  0.80443100  0.31116400  0.80782100  1
  Mg  Mg38  1  0.76699800  0.18883600  0.69217900  1
  Mg  Mg39  1  0.09014500  0.38259300  0.73639200  1
  Mg  Mg40  1  0.05271200  0.26026400  0.62075100  1
  Mg  Mg41  1  0.37585900  0.45402100  0.66496400  1
  Mg  Mg42  1  0.33842600  0.33169300  0.54932200  1
  Mg  Mg43  1  0.66157400  0.52545000  0.59353500  1
  Mg  Mg44  1  0.62414100  0.40312200  0.47789300  1
  Mg  Mg45  1  0.94728800  0.59687800  0.52210700  1
  Mg  Mg46  1  0.90985500  0.47455000  0.40646500  1
  Mg  Mg47  1  0.23300200  0.66830700  0.45067800  1
  Mg  Mg48  1  0.19556900  0.54597900  0.33503600  1
  Mg  Mg49  1  0.51871600  0.73973600  0.37924900  1
  Mg  Mg50  1  0.48128400  0.61740700  0.26360800  1
  Mg  Mg51  1  0.80443100  0.81116400  0.30782100  1
  Mg  Mg52  1  0.76699800  0.68883600  0.19217900  1
  Mg  Mg53  1  0.09014500  0.88259300  0.23639200  1
