# generated using pymatgen
data_LaMg11
_symmetry_space_group_name_H-M   'P 1'
_cell_length_a   11.92732881
_cell_length_b   11.92732880
_cell_length_c   46.09632100
_cell_angle_alpha   89.73063412
_cell_angle_beta   90.26936588
_cell_angle_gamma   104.34315546
_symmetry_Int_Tables_number   1
_chemical_formula_structural   LaMg11
_chemical_formula_sum   'La12 Mg132'
_cell_volume   6353.19626827
_cell_formula_units_Z   12
loop_
 _symmetry_equiv_pos_site_id
 _symmetry_equiv_pos_as_xyz
  1  'x, y, z'
loop_
 _atom_site_type_symbol
 _atom_site_label
 _atom_site_symmetry_multiplicity
 _atom_site_fract_x
 _atom_site_fract_y
 _atom_site_fract_z
 _atom_site_occupancy
  La  La0  1  0.18529100  0.81470900  0.29807700  1
  La  La1  1  0.58529100  0.41470900  0.24807700  1
  La  La2  1  0.38529100  0.61470900  0.39807700  1
  La  La3  1  0.78529100  0.21470900  0.34807700  1
  La  La4  1  0.58529100  0.41470900  0.49807700  1
  La  La5  1  0.98529100  0.01470900  0.44807700  1
  La  La6  1  0.78529100  0.21470900  0.59807700  1
  La  La7  1  0.18529100  0.81470900  0.54807700  1
  La  La8  1  0.98529100  0.01470900  0.69807700  1
  La  La9  1  0.38529100  0.61470900  0.64807700  1
  La  La10  1  0.18529100  0.81470900  0.79807700  1
  La  La11  1  0.58529100  0.41470900  0.74807700  1
  Mg  Mg12  1  0.88529100  0.11470900  0.27307700  1
  Mg  Mg13  1  0.38529100  0.11470900  0.27307700  1
  Mg  Mg14  1  0.11470900  0.53238300  0.26278600  1
  Mg  Mg15  1  0.30296400  0.34412800  0.28336800  1
  Mg  Mg16  1  0.12809100  0.08591000  0.26947700  1
  Mg  Mg17  1  0.85649200  0.35750900  0.27667700  1
  Mg  Mg18  1  0.38529100  0.61470900  0.27307700  1
  Mg  Mg19  1  0.88529100  0.61470900  0.27307700  1
  Mg  Mg20  1  0.65587200  0.69703600  0.28336800  1
  Mg  Mg21  1  0.46761700  0.88529100  0.26278600  1
  Mg  Mg22  1  0.64249100  0.14350800  0.27667700  1
  Mg  Mg23  1  0.91409000  0.87190900  0.26947700  1
  Mg  Mg24  1  0.08529100  0.91470900  0.37307700  1
  Mg  Mg25  1  0.98529100  0.01470900  0.32307700  1
  Mg  Mg26  1  0.48529100  0.01470900  0.32307700  1
  Mg  Mg27  1  0.58529100  0.91470900  0.37307700  1
  Mg  Mg28  1  0.25587200  0.09703600  0.33336800  1
  Mg  Mg29  1  0.31470900  0.33238300  0.36278600  1
  Mg  Mg30  1  0.06761700  0.28529100  0.31278600  1
  Mg  Mg31  1  0.50296400  0.14412800  0.38336800  1
  Mg  Mg32  1  0.24249100  0.54350800  0.32667700  1
  Mg  Mg33  1  0.32809100  0.88591000  0.36947700  1
  Mg  Mg34  1  0.51409000  0.27190900  0.31947700  1
  Mg  Mg35  1  0.05649200  0.15750900  0.37667700  1
  Mg  Mg36  1  0.48529100  0.51470900  0.32307700  1
  Mg  Mg37  1  0.58529100  0.41470900  0.37307700  1
  Mg  Mg38  1  0.08529100  0.41470900  0.37307700  1
  Mg  Mg39  1  0.98529100  0.51470900  0.32307700  1
  Mg  Mg40  1  0.85587200  0.49703600  0.38336800  1
  Mg  Mg41  1  0.71470900  0.93238300  0.31278600  1
  Mg  Mg42  1  0.66761700  0.68529100  0.36278600  1
  Mg  Mg43  1  0.90296400  0.74412800  0.33336800  1
  Mg  Mg44  1  0.84249100  0.94350800  0.37667700  1
  Mg  Mg45  1  0.72809100  0.48591000  0.31947700  1
  Mg  Mg46  1  0.11409000  0.67190900  0.36947700  1
  Mg  Mg47  1  0.45649200  0.75750900  0.32667700  1
  Mg  Mg48  1  0.28529100  0.71470900  0.47307700  1
  Mg  Mg49  1  0.18529100  0.81470900  0.42307700  1
  Mg  Mg50  1  0.68529100  0.81470900  0.42307700  1
  Mg  Mg51  1  0.78529100  0.71470900  0.47307700  1
  Mg  Mg52  1  0.45587200  0.89703600  0.43336800  1
  Mg  Mg53  1  0.51470900  0.13238300  0.46278600  1
  Mg  Mg54  1  0.26761700  0.08529100  0.41278600  1
  Mg  Mg55  1  0.70296400  0.94412800  0.48336800  1
  Mg  Mg56  1  0.44249100  0.34350800  0.42667700  1
  Mg  Mg57  1  0.52809100  0.68591000  0.46947700  1
  Mg  Mg58  1  0.71409000  0.07190900  0.41947700  1
  Mg  Mg59  1  0.25649200  0.95750900  0.47667700  1
  Mg  Mg60  1  0.68529100  0.31470900  0.42307700  1
  Mg  Mg61  1  0.78529100  0.21470900  0.47307700  1
  Mg  Mg62  1  0.28529100  0.21470900  0.47307700  1
  Mg  Mg63  1  0.18529100  0.31470900  0.42307700  1
  Mg  Mg64  1  0.05587200  0.29703600  0.48336800  1
  Mg  Mg65  1  0.91470900  0.73238300  0.41278600  1
  Mg  Mg66  1  0.86761700  0.48529100  0.46278600  1
  Mg  Mg67  1  0.10296400  0.54412800  0.43336800  1
  Mg  Mg68  1  0.04249100  0.74350800  0.47667700  1
  Mg  Mg69  1  0.92809100  0.28591000  0.41947700  1
  Mg  Mg70  1  0.31409000  0.47190900  0.46947700  1
  Mg  Mg71  1  0.65649200  0.55750900  0.42667700  1
  Mg  Mg72  1  0.48529100  0.51470900  0.57307700  1
  Mg  Mg73  1  0.38529100  0.61470900  0.52307700  1
  Mg  Mg74  1  0.88529100  0.61470900  0.52307700  1
  Mg  Mg75  1  0.98529100  0.51470900  0.57307700  1
  Mg  Mg76  1  0.65587200  0.69703600  0.53336800  1
  Mg  Mg77  1  0.71470900  0.93238300  0.56278600  1
  Mg  Mg78  1  0.46761700  0.88529100  0.51278600  1
  Mg  Mg79  1  0.90296400  0.74412800  0.58336800  1
  Mg  Mg80  1  0.64249100  0.14350800  0.52667700  1
  Mg  Mg81  1  0.72809100  0.48591000  0.56947700  1
  Mg  Mg82  1  0.91409000  0.87190900  0.51947700  1
  Mg  Mg83  1  0.45649200  0.75750900  0.57667700  1
  Mg  Mg84  1  0.88529100  0.11470900  0.52307700  1
  Mg  Mg85  1  0.98529100  0.01470900  0.57307700  1
  Mg  Mg86  1  0.48529100  0.01470900  0.57307700  1
  Mg  Mg87  1  0.38529100  0.11470900  0.52307700  1
  Mg  Mg88  1  0.25587200  0.09703600  0.58336800  1
  Mg  Mg89  1  0.11470900  0.53238300  0.51278600  1
  Mg  Mg90  1  0.06761700  0.28529100  0.56278600  1
  Mg  Mg91  1  0.30296400  0.34412800  0.53336800  1
  Mg  Mg92  1  0.24249100  0.54350800  0.57667700  1
  Mg  Mg93  1  0.12809100  0.08591000  0.51947700  1
  Mg  Mg94  1  0.51409000  0.27190900  0.56947700  1
  Mg  Mg95  1  0.85649200  0.35750900  0.52667700  1
  Mg  Mg96  1  0.68529100  0.31470900  0.67307700  1
  Mg  Mg97  1  0.58529100  0.41470900  0.62307700  1
  Mg  Mg98  1  0.08529100  0.41470900  0.62307700  1
  Mg  Mg99  1  0.18529100  0.31470900  0.67307700  1
  Mg  Mg100  1  0.85587200  0.49703600  0.63336800  1
  Mg  Mg101  1  0.91470900  0.73238300  0.66278600  1
  Mg  Mg102  1  0.66761700  0.68529100  0.61278600  1
  Mg  Mg103  1  0.10296400  0.54412800  0.68336800  1
  Mg  Mg104  1  0.84249100  0.94350800  0.62667700  1
  Mg  Mg105  1  0.92809100  0.28591000  0.66947700  1
  Mg  Mg106  1  0.11409000  0.67190900  0.61947700  1
  Mg  Mg107  1  0.65649200  0.55750900  0.67667700  1
  Mg  Mg108  1  0.08529100  0.91470900  0.62307700  1
  Mg  Mg109  1  0.18529100  0.81470900  0.67307700  1
  Mg  Mg110  1  0.68529100  0.81470900  0.67307700  1
  Mg  Mg111  1  0.58529100  0.91470900  0.62307700  1
  Mg  Mg112  1  0.45587200  0.89703600  0.68336800  1
  Mg  Mg113  1  0.31470900  0.33238300  0.61278600  1
  Mg  Mg114  1  0.26761700  0.08529100  0.66278600  1
  Mg  Mg115  1  0.50296400  0.14412800  0.63336800  1
  Mg  Mg116  1  0.44249100  0.34350800  0.67667700  1
  Mg  Mg117  1  0.32809100  0.88591000  0.61947700  1
  Mg  Mg118  1  0.71409000  0.07190900  0.66947700  1
  Mg  Mg119  1  0.05649200  0.15750900  0.62667700  1
  Mg  Mg120  1  0.88529100  0.11470900  0.77307700  1
  Mg  Mg121  1  0.78529100  0.21470900  0.72307700  1
  Mg  Mg122  1  0.28529100  0.21470900  0.72307700  1
  Mg  Mg123  1  0.38529100  0.11470900  0.77307700  1
  Mg  Mg124  1  0.05587200  0.29703600  0.73336800  1
  Mg  Mg125  1  0.11470900  0.53238300  0.76278600  1
  Mg  Mg126  1  0.86761700  0.48529100  0.71278600  1
  Mg  Mg127  1  0.30296400  0.34412800  0.78336800  1
  Mg  Mg128  1  0.04249100  0.74350800  0.72667700  1
  Mg  Mg129  1  0.12809100  0.08591000  0.76947700  1
  Mg  Mg130  1  0.31409000  0.47190900  0.71947700  1
  Mg  Mg131  1  0.85649200  0.35750900  0.77667700  1
  Mg  Mg132  1  0.28529100  0.71470900  0.72307700  1
  Mg  Mg133  1  0.38529100  0.61470900  0.77307700  1
  Mg  Mg134  1  0.88529100  0.61470900  0.77307700  1
  Mg  Mg135  1  0.78529100  0.71470900  0.72307700  1
  Mg  Mg136  1  0.65587200  0.69703600  0.78336800  1
  Mg  Mg137  1  0.51470900  0.13238300  0.71278600  1
  Mg  Mg138  1  0.46761700  0.88529100  0.76278600  1
  Mg  Mg139  1  0.70296400  0.94412800  0.73336800  1
  Mg  Mg140  1  0.64249100  0.14350800  0.77667700  1
  Mg  Mg141  1  0.52809100  0.68591000  0.71947700  1
  Mg  Mg142  1  0.91409000  0.87190900  0.76947700  1
  Mg  Mg143  1  0.25649200  0.95750900  0.72667700  1
