# generated using pymatgen
data_Mg4Se9
_symmetry_space_group_name_H-M   'P 1'
_cell_length_a   9.22042958
_cell_length_b   9.22042937
_cell_length_c   41.74727100
_cell_angle_alpha   83.65980880
_cell_angle_beta   83.65980894
_cell_angle_gamma   60.00000207
_symmetry_Int_Tables_number   1
_chemical_formula_structural   Mg4Se9
_chemical_formula_sum   'Mg24 Se54'
_cell_volume   3048.60503768
_cell_formula_units_Z   6
loop_
 _symmetry_equiv_pos_site_id
 _symmetry_equiv_pos_as_xyz
  1  'x, y, z'
loop_
 _atom_site_type_symbol
 _atom_site_label
 _atom_site_symmetry_multiplicity
 _atom_site_fract_x
 _atom_site_fract_y
 _atom_site_fract_z
 _atom_site_occupancy
  Mg  Mg0  1  0.24073500  0.74073500  0.25000000  1
  Mg  Mg1  1  0.74073500  0.24073500  0.25000000  1
  Mg  Mg2  1  0.24073500  0.24073500  0.25000000  1
  Mg  Mg3  1  0.74073500  0.74073500  0.25000000  1
  Mg  Mg4  1  0.87709900  0.37709900  0.34090900  1
  Mg  Mg5  1  0.37709900  0.87709900  0.34090900  1
  Mg  Mg6  1  0.87709900  0.87709900  0.34090900  1
  Mg  Mg7  1  0.37709900  0.37709900  0.34090900  1
  Mg  Mg8  1  0.51346300  0.01346300  0.43181800  1
  Mg  Mg9  1  0.01346300  0.51346300  0.43181800  1
  Mg  Mg10  1  0.51346300  0.51346300  0.43181800  1
  Mg  Mg11  1  0.01346300  0.01346300  0.43181800  1
  Mg  Mg12  1  0.14982600  0.64982600  0.52272700  1
  Mg  Mg13  1  0.64982600  0.14982600  0.52272700  1
  Mg  Mg14  1  0.14982600  0.14982600  0.52272700  1
  Mg  Mg15  1  0.64982600  0.64982600  0.52272700  1
  Mg  Mg16  1  0.78619000  0.28619000  0.61363600  1
  Mg  Mg17  1  0.28619000  0.78619000  0.61363600  1
  Mg  Mg18  1  0.78619000  0.78619000  0.61363600  1
  Mg  Mg19  1  0.28619000  0.28619000  0.61363600  1
  Mg  Mg20  1  0.42255300  0.92255300  0.70454500  1
  Mg  Mg21  1  0.92255300  0.42255300  0.70454500  1
  Mg  Mg22  1  0.42255300  0.42255300  0.70454500  1
  Mg  Mg23  1  0.92255300  0.92255300  0.70454500  1
  Se  Se24  1  0.85478800  0.35478800  0.19486500  1
  Se  Se25  1  0.35478800  0.06776600  0.19486500  1
  Se  Se26  1  0.06776600  0.85478800  0.19486500  1
  Se  Se27  1  0.41287300  0.41287300  0.23358800  1
  Se  Se28  1  0.99031900  0.49031900  0.21422600  1
  Se  Se29  1  0.49031900  0.77734100  0.21422600  1
  Se  Se30  1  0.77734100  0.99031900  0.21422600  1
  Se  Se31  1  0.06859800  0.06859800  0.26641200  1
  Se  Se32  1  0.49115100  0.99115100  0.28577400  1
  Se  Se33  1  0.99115100  0.70412900  0.28577400  1
  Se  Se34  1  0.70412900  0.49115100  0.28577400  1
  Se  Se35  1  0.04923600  0.04923600  0.32449700  1
  Se  Se36  1  0.62668300  0.12668300  0.30513500  1
  Se  Se37  1  0.12668300  0.41370500  0.30513500  1
  Se  Se38  1  0.41370500  0.62668300  0.30513500  1
  Se  Se39  1  0.70496200  0.70496200  0.35732100  1
  Se  Se40  1  0.12751500  0.62751500  0.37668300  1
  Se  Se41  1  0.62751500  0.34049300  0.37668300  1
  Se  Se42  1  0.34049300  0.12751500  0.37668300  1
  Se  Se43  1  0.68560000  0.68560000  0.41540600  1
  Se  Se44  1  0.26304600  0.76304600  0.39604400  1
  Se  Se45  1  0.76304600  0.05006800  0.39604400  1
  Se  Se46  1  0.05006800  0.26304600  0.39604400  1
  Se  Se47  1  0.34132500  0.34132500  0.44823000  1
  Se  Se48  1  0.76387900  0.26387900  0.46759200  1
  Se  Se49  1  0.26387900  0.97685700  0.46759200  1
  Se  Se50  1  0.97685700  0.76387900  0.46759200  1
  Se  Se51  1  0.32196400  0.32196400  0.50631500  1
  Se  Se52  1  0.89941000  0.39941000  0.48695400  1
  Se  Se53  1  0.39941000  0.68643200  0.48695400  1
  Se  Se54  1  0.68643200  0.89941000  0.48695400  1
  Se  Se55  1  0.97768900  0.97768900  0.53913900  1
  Se  Se56  1  0.40024200  0.90024200  0.55850100  1
  Se  Se57  1  0.90024200  0.61322000  0.55850100  1
  Se  Se58  1  0.61322000  0.40024200  0.55850100  1
  Se  Se59  1  0.95832700  0.95832700  0.59722400  1
  Se  Se60  1  0.53577400  0.03577400  0.57786300  1
  Se  Se61  1  0.03577400  0.32279600  0.57786300  1
  Se  Se62  1  0.32279600  0.53577400  0.57786300  1
  Se  Se63  1  0.61405200  0.61405200  0.63004800  1
  Se  Se64  1  0.03660600  0.53660600  0.64941000  1
  Se  Se65  1  0.53660600  0.24958400  0.64941000  1
  Se  Se66  1  0.24958400  0.03660600  0.64941000  1
  Se  Se67  1  0.59469100  0.59469100  0.68813300  1
  Se  Se68  1  0.17213700  0.67213700  0.66877200  1
  Se  Se69  1  0.67213700  0.95915900  0.66877200  1
  Se  Se70  1  0.95915900  0.17213700  0.66877200  1
  Se  Se71  1  0.25041600  0.25041600  0.72095800  1
  Se  Se72  1  0.67297000  0.17297000  0.74031900  1
  Se  Se73  1  0.17297000  0.88594800  0.74031900  1
  Se  Se74  1  0.88594800  0.67297000  0.74031900  1
  Se  Se75  1  0.80850100  0.30850100  0.75968100  1
  Se  Se76  1  0.30850100  0.59552300  0.75968100  1
  Se  Se77  1  0.59552300  0.80850100  0.75968100  1
