# generated using pymatgen
data_Mg19Si11
_symmetry_space_group_name_H-M   'P 1'
_cell_length_a   7.16868100
_cell_length_b   14.27249566
_cell_length_c   44.68541400
_cell_angle_alpha   83.39369965
_cell_angle_beta   90.00000000
_cell_angle_gamma   75.45524452
_symmetry_Int_Tables_number   1
_chemical_formula_structural   Mg19Si11
_chemical_formula_sum   'Mg76 Si44'
_cell_volume   4394.09300978
_cell_formula_units_Z   4
loop_
 _symmetry_equiv_pos_site_id
 _symmetry_equiv_pos_as_xyz
  1  'x, y, z'
loop_
 _atom_site_type_symbol
 _atom_site_label
 _atom_site_symmetry_multiplicity
 _atom_site_fract_x
 _atom_site_fract_y
 _atom_site_fract_z
 _atom_site_occupancy
  Mg  Mg0  1  0.93400800  0.98269600  0.23811000  1
  Mg  Mg1  1  0.37282400  0.37879600  0.29006000  1
  Mg  Mg2  1  0.29044100  0.50636200  0.22627700  1
  Mg  Mg3  1  0.35557300  0.92356300  0.26767700  1
  Mg  Mg4  1  0.27319100  0.05112900  0.20389400  1
  Mg  Mg5  1  0.71200700  0.44722900  0.25584400  1
  Mg  Mg6  1  0.58672500  0.69779300  0.29760400  1
  Mg  Mg7  1  0.14790900  0.30169300  0.24565400  1
  Mg  Mg8  1  0.23029200  0.17412600  0.30943700  1
  Mg  Mg9  1  0.16515900  0.75692600  0.26803700  1
  Mg  Mg10  1  0.62254200  0.87936000  0.20682100  1
  Mg  Mg11  1  0.80872600  0.23326000  0.27987100  1
  Mg  Mg12  1  0.02900200  0.72119300  0.20238300  1
  Mg  Mg13  1  0.52257500  0.11424600  0.25585600  1
  Mg  Mg14  1  0.98554400  0.00969100  0.30813400  1
  Mg  Mg15  1  0.53518900  0.67079800  0.22758100  1
  Mg  Mg16  1  0.99815800  0.56624200  0.27985800  1
  Mg  Mg17  1  0.86673100  0.20929600  0.20833100  1
  Mg  Mg18  1  0.55900800  0.73269600  0.36311000  1
  Mg  Mg19  1  0.99782400  0.12879600  0.41506000  1
  Mg  Mg20  1  0.91544100  0.25636200  0.35127700  1
  Mg  Mg21  1  0.98057300  0.67356300  0.39267700  1
  Mg  Mg22  1  0.89819100  0.80112900  0.32889400  1
  Mg  Mg23  1  0.33700700  0.19722900  0.38084400  1
  Mg  Mg24  1  0.21172500  0.44779300  0.42260400  1
  Mg  Mg25  1  0.77290900  0.05169300  0.37065400  1
  Mg  Mg26  1  0.85529200  0.92412600  0.43443700  1
  Mg  Mg27  1  0.79015900  0.50692600  0.39303700  1
  Mg  Mg28  1  0.24754200  0.62936000  0.33182100  1
  Mg  Mg29  1  0.43372600  0.98326000  0.40487100  1
  Mg  Mg30  1  0.65400200  0.47119300  0.32738300  1
  Mg  Mg31  1  0.14757500  0.86424600  0.38085600  1
  Mg  Mg32  1  0.61054400  0.75969100  0.43313400  1
  Mg  Mg33  1  0.16018900  0.42079800  0.35258100  1
  Mg  Mg34  1  0.62315800  0.31624200  0.40485800  1
  Mg  Mg35  1  0.49173100  0.95929600  0.33333100  1
  Mg  Mg36  1  0.18400800  0.48269600  0.48811000  1
  Mg  Mg37  1  0.62282400  0.87879600  0.54006000  1
  Mg  Mg38  1  0.54044100  0.00636200  0.47627700  1
  Mg  Mg39  1  0.60557300  0.42356300  0.51767700  1
  Mg  Mg40  1  0.52319100  0.55112900  0.45389400  1
  Mg  Mg41  1  0.96200700  0.94722900  0.50584400  1
  Mg  Mg42  1  0.83672500  0.19779300  0.54760400  1
  Mg  Mg43  1  0.39790900  0.80169300  0.49565400  1
  Mg  Mg44  1  0.48029200  0.67412600  0.55943700  1
  Mg  Mg45  1  0.41515900  0.25692600  0.51803700  1
  Mg  Mg46  1  0.87254200  0.37936000  0.45682100  1
  Mg  Mg47  1  0.05872600  0.73326000  0.52987100  1
  Mg  Mg48  1  0.27900200  0.22119300  0.45238300  1
  Mg  Mg49  1  0.77257500  0.61424600  0.50585600  1
  Mg  Mg50  1  0.23554400  0.50969100  0.55813400  1
  Mg  Mg51  1  0.78518900  0.17079800  0.47758100  1
  Mg  Mg52  1  0.24815800  0.06624200  0.52985800  1
  Mg  Mg53  1  0.11673100  0.70929600  0.45833100  1
  Mg  Mg54  1  0.80900800  0.23269600  0.61311000  1
  Mg  Mg55  1  0.24782400  0.62879600  0.66506000  1
  Mg  Mg56  1  0.16544100  0.75636200  0.60127700  1
  Mg  Mg57  1  0.23057300  0.17356300  0.64267700  1
  Mg  Mg58  1  0.14819100  0.30112900  0.57889400  1
  Mg  Mg59  1  0.58700700  0.69722900  0.63084400  1
  Mg  Mg60  1  0.46172500  0.94779300  0.67260400  1
  Mg  Mg61  1  0.02290900  0.55169300  0.62065400  1
  Mg  Mg62  1  0.10529200  0.42412600  0.68443700  1
  Mg  Mg63  1  0.04015900  0.00692600  0.64303700  1
  Mg  Mg64  1  0.49754200  0.12936000  0.58182100  1
  Mg  Mg65  1  0.68372600  0.48326000  0.65487100  1
  Mg  Mg66  1  0.90400200  0.97119300  0.57738300  1
  Mg  Mg67  1  0.39757500  0.36424600  0.63085600  1
  Mg  Mg68  1  0.86054400  0.25969100  0.68313400  1
  Mg  Mg69  1  0.41018900  0.92079800  0.60258100  1
  Mg  Mg70  1  0.87315800  0.81624200  0.65485800  1
  Mg  Mg71  1  0.74173100  0.45929600  0.58333100  1
  Mg  Mg72  1  0.77319100  0.05112900  0.70389400  1
  Mg  Mg73  1  0.12254200  0.87936000  0.70682100  1
  Mg  Mg74  1  0.52900200  0.72119300  0.70238300  1
  Mg  Mg75  1  0.36673100  0.20929600  0.70833100  1
  Si  Si76  1  0.79796300  0.76505000  0.25532500  1
  Si  Si77  1  0.98546300  0.39005000  0.19282500  1
  Si  Si78  1  0.72276900  0.91543800  0.28038900  1
  Si  Si79  1  0.91026900  0.54043800  0.21788900  1
  Si  Si80  1  0.39578300  0.56941100  0.27827400  1
  Si  Si81  1  0.12495000  0.11107800  0.25744000  1
  Si  Si82  1  0.99840000  0.36417600  0.29962400  1
  Si  Si83  1  0.64423400  0.07251000  0.19545700  1
  Si  Si84  1  0.52233200  0.31631200  0.23609100  1
  Si  Si85  1  0.25149900  0.85797900  0.21525700  1
  Si  Si86  1  0.42296300  0.51505000  0.38032500  1
  Si  Si87  1  0.61046300  0.14005000  0.31782500  1
  Si  Si88  1  0.34776900  0.66543800  0.40538900  1
  Si  Si89  1  0.53526900  0.29043800  0.34288900  1
  Si  Si90  1  0.02078300  0.31941100  0.40327400  1
  Si  Si91  1  0.74995000  0.86107800  0.38244000  1
  Si  Si92  1  0.62340000  0.11417600  0.42462400  1
  Si  Si93  1  0.26923400  0.82251000  0.32045700  1
  Si  Si94  1  0.14733200  0.06631200  0.36109100  1
  Si  Si95  1  0.87649900  0.60797900  0.34025700  1
  Si  Si96  1  0.04796300  0.26505000  0.50532500  1
  Si  Si97  1  0.23546300  0.89005000  0.44282500  1
  Si  Si98  1  0.97276900  0.41543800  0.53038900  1
  Si  Si99  1  0.16026900  0.04043800  0.46788900  1
  Si  Si100  1  0.64578300  0.06941100  0.52827400  1
  Si  Si101  1  0.37495000  0.61107800  0.50744000  1
  Si  Si102  1  0.24840000  0.86417600  0.54962400  1
  Si  Si103  1  0.89423400  0.57251000  0.44545700  1
  Si  Si104  1  0.77233200  0.81631200  0.48609100  1
  Si  Si105  1  0.50149900  0.35797900  0.46525700  1
  Si  Si106  1  0.67296300  0.01505000  0.63032500  1
  Si  Si107  1  0.86046300  0.64005000  0.56782500  1
  Si  Si108  1  0.59776900  0.16543800  0.65538900  1
  Si  Si109  1  0.78526900  0.79043800  0.59288900  1
  Si  Si110  1  0.27078300  0.81941100  0.65327400  1
  Si  Si111  1  0.99995000  0.36107800  0.63244000  1
  Si  Si112  1  0.87340000  0.61417600  0.67462400  1
  Si  Si113  1  0.51923400  0.32251000  0.57045700  1
  Si  Si114  1  0.39733200  0.56631200  0.61109100  1
  Si  Si115  1  0.12649900  0.10797900  0.59025700  1
  Si  Si116  1  0.48546300  0.39005000  0.69282500  1
  Si  Si117  1  0.41026900  0.54043800  0.71788900  1
  Si  Si118  1  0.14423400  0.07251000  0.69545700  1
  Si  Si119  1  0.75149900  0.85797900  0.71525700  1
