# generated using pymatgen
data_Mg9Si5
_symmetry_space_group_name_H-M   'P 1'
_cell_length_a   7.16868100
_cell_length_b   14.27249566
_cell_length_c   44.68541400
_cell_angle_alpha   83.39369965
_cell_angle_beta   90.00000000
_cell_angle_gamma   75.45524452
_symmetry_Int_Tables_number   1
_chemical_formula_structural   Mg9Si5
_chemical_formula_sum   'Mg90 Si50'
_cell_volume   4394.09300978
_cell_formula_units_Z   10
loop_
 _symmetry_equiv_pos_site_id
 _symmetry_equiv_pos_as_xyz
  1  'x, y, z'
loop_
 _atom_site_type_symbol
 _atom_site_label
 _atom_site_symmetry_multiplicity
 _atom_site_fract_x
 _atom_site_fract_y
 _atom_site_fract_z
 _atom_site_occupancy
  Mg  Mg0  1  0.98614100  0.01745200  0.22025300  1
  Mg  Mg1  1  0.42495700  0.41355200  0.27220300  1
  Mg  Mg2  1  0.34257500  0.54111800  0.20842000  1
  Mg  Mg3  1  0.40770700  0.95831800  0.24982000  1
  Mg  Mg4  1  0.95032400  0.83588500  0.31103600  1
  Mg  Mg5  1  0.76414000  0.48198500  0.23798600  1
  Mg  Mg6  1  0.63885900  0.73254800  0.27974700  1
  Mg  Mg7  1  0.20004300  0.33644800  0.22779700  1
  Mg  Mg8  1  0.28242500  0.20888200  0.29158000  1
  Mg  Mg9  1  0.21729300  0.79168200  0.25018000  1
  Mg  Mg10  1  0.67467600  0.91411500  0.18896400  1
  Mg  Mg11  1  0.86086000  0.26801500  0.26201400  1
  Mg  Mg12  1  0.70613600  0.50594900  0.30952600  1
  Mg  Mg13  1  0.57470800  0.14900200  0.23799900  1
  Mg  Mg14  1  0.03767800  0.04444700  0.29027700  1
  Mg  Mg15  1  0.58732200  0.70555300  0.20972300  1
  Mg  Mg16  1  0.05029200  0.60099800  0.26200100  1
  Mg  Mg17  1  0.91886400  0.24405100  0.19047400  1
  Mg  Mg18  1  0.61114100  0.76745200  0.34525300  1
  Mg  Mg19  1  0.04995700  0.16355200  0.39720300  1
  Mg  Mg20  1  0.96757500  0.29111800  0.33342000  1
  Mg  Mg21  1  0.03270700  0.70831800  0.37482000  1
  Mg  Mg22  1  0.57532400  0.58588500  0.43603600  1
  Mg  Mg23  1  0.38914000  0.23198500  0.36298600  1
  Mg  Mg24  1  0.26385900  0.48254800  0.40474700  1
  Mg  Mg25  1  0.82504300  0.08644800  0.35279700  1
  Mg  Mg26  1  0.90742500  0.95888200  0.41658000  1
  Mg  Mg27  1  0.84229300  0.54168200  0.37518000  1
  Mg  Mg28  1  0.29967600  0.66411500  0.31396400  1
  Mg  Mg29  1  0.48586000  0.01801500  0.38701400  1
  Mg  Mg30  1  0.33113600  0.25594900  0.43452600  1
  Mg  Mg31  1  0.19970800  0.89900200  0.36299900  1
  Mg  Mg32  1  0.66267800  0.79444700  0.41527700  1
  Mg  Mg33  1  0.21232200  0.45555300  0.33472300  1
  Mg  Mg34  1  0.67529200  0.35099800  0.38700100  1
  Mg  Mg35  1  0.54386400  0.99405100  0.31547400  1
  Mg  Mg36  1  0.23614100  0.51745200  0.47025300  1
  Mg  Mg37  1  0.67495700  0.91355200  0.52220300  1
  Mg  Mg38  1  0.59257500  0.04111800  0.45842000  1
  Mg  Mg39  1  0.65770700  0.45831800  0.49982000  1
  Mg  Mg40  1  0.20032400  0.33588500  0.56103600  1
  Mg  Mg41  1  0.01414000  0.98198500  0.48798600  1
  Mg  Mg42  1  0.88885900  0.23254800  0.52974700  1
  Mg  Mg43  1  0.45004300  0.83644800  0.47779700  1
  Mg  Mg44  1  0.53242500  0.70888200  0.54158000  1
  Mg  Mg45  1  0.46729300  0.29168200  0.50018000  1
  Mg  Mg46  1  0.92467600  0.41411500  0.43896400  1
  Mg  Mg47  1  0.11086000  0.76801500  0.51201400  1
  Mg  Mg48  1  0.95613600  0.00594900  0.55952600  1
  Mg  Mg49  1  0.82470800  0.64900200  0.48799900  1
  Mg  Mg50  1  0.28767800  0.54444700  0.54027700  1
  Mg  Mg51  1  0.83732200  0.20555300  0.45972300  1
  Mg  Mg52  1  0.30029200  0.10099800  0.51200100  1
  Mg  Mg53  1  0.16886400  0.74405100  0.44047400  1
  Mg  Mg54  1  0.86114100  0.26745200  0.59525300  1
  Mg  Mg55  1  0.29995700  0.66355200  0.64720300  1
  Mg  Mg56  1  0.21757500  0.79111800  0.58342000  1
  Mg  Mg57  1  0.28270700  0.20831800  0.62482000  1
  Mg  Mg58  1  0.82532400  0.08588500  0.68603600  1
  Mg  Mg59  1  0.63914000  0.73198500  0.61298600  1
  Mg  Mg60  1  0.51385900  0.98254800  0.65474700  1
  Mg  Mg61  1  0.07504300  0.58644800  0.60279700  1
  Mg  Mg62  1  0.15742500  0.45888200  0.66658000  1
  Mg  Mg63  1  0.09229300  0.04168200  0.62518000  1
  Mg  Mg64  1  0.54967600  0.16411500  0.56396400  1
  Mg  Mg65  1  0.73586000  0.51801500  0.63701400  1
  Mg  Mg66  1  0.58113600  0.75594900  0.68452600  1
  Mg  Mg67  1  0.44970800  0.39900200  0.61299900  1
  Mg  Mg68  1  0.91267800  0.29444700  0.66527700  1
  Mg  Mg69  1  0.46232200  0.95555300  0.58472300  1
  Mg  Mg70  1  0.92529200  0.85099800  0.63700100  1
  Mg  Mg71  1  0.79386400  0.49405100  0.56547400  1
  Mg  Mg72  1  0.48614100  0.01745200  0.72025300  1
  Mg  Mg73  1  0.92495700  0.41355200  0.77220300  1
  Mg  Mg74  1  0.84257500  0.54111800  0.70842000  1
  Mg  Mg75  1  0.90770700  0.95831800  0.74982000  1
  Mg  Mg76  1  0.45032400  0.83588500  0.81103600  1
  Mg  Mg77  1  0.26414000  0.48198500  0.73798600  1
  Mg  Mg78  1  0.13885900  0.73254800  0.77974700  1
  Mg  Mg79  1  0.70004300  0.33644800  0.72779700  1
  Mg  Mg80  1  0.78242500  0.20888200  0.79158000  1
  Mg  Mg81  1  0.71729300  0.79168200  0.75018000  1
  Mg  Mg82  1  0.17467600  0.91411500  0.68896400  1
  Mg  Mg83  1  0.36086000  0.26801500  0.76201400  1
  Mg  Mg84  1  0.20613600  0.50594900  0.80952600  1
  Mg  Mg85  1  0.07470800  0.14900200  0.73799900  1
  Mg  Mg86  1  0.53767800  0.04444700  0.79027700  1
  Mg  Mg87  1  0.08732200  0.70555300  0.70972300  1
  Mg  Mg88  1  0.55029200  0.60099800  0.76200100  1
  Mg  Mg89  1  0.41886400  0.24405100  0.69047400  1
  Si  Si90  1  0.85009700  0.79980600  0.23746800  1
  Si  Si91  1  0.66259700  0.17480600  0.29996800  1
  Si  Si92  1  0.77490300  0.95019400  0.26253200  1
  Si  Si93  1  0.96240300  0.57519400  0.20003200  1
  Si  Si94  1  0.44791700  0.60416700  0.26041700  1
  Si  Si95  1  0.17708300  0.14583300  0.23958300  1
  Si  Si96  1  0.05053400  0.39893200  0.28176600  1
  Si  Si97  1  0.32136700  0.85726500  0.30260000  1
  Si  Si98  1  0.57446600  0.35106800  0.21823400  1
  Si  Si99  1  0.30363300  0.89273500  0.19740000  1
  Si  Si100  1  0.47509700  0.54980600  0.36246800  1
  Si  Si101  1  0.28759700  0.92480600  0.42496800  1
  Si  Si102  1  0.39990300  0.70019400  0.38753200  1
  Si  Si103  1  0.58740300  0.32519400  0.32503200  1
  Si  Si104  1  0.07291700  0.35416700  0.38541700  1
  Si  Si105  1  0.80208300  0.89583300  0.36458300  1
  Si  Si106  1  0.67553400  0.14893200  0.40676600  1
  Si  Si107  1  0.94636700  0.60726500  0.42760000  1
  Si  Si108  1  0.19946600  0.10106800  0.34323400  1
  Si  Si109  1  0.92863300  0.64273500  0.32240000  1
  Si  Si110  1  0.10009700  0.29980600  0.48746800  1
  Si  Si111  1  0.91259700  0.67480600  0.54996800  1
  Si  Si112  1  0.02490300  0.45019400  0.51253200  1
  Si  Si113  1  0.21240300  0.07519400  0.45003200  1
  Si  Si114  1  0.69791700  0.10416700  0.51041700  1
  Si  Si115  1  0.42708300  0.64583300  0.48958300  1
  Si  Si116  1  0.30053400  0.89893200  0.53176600  1
  Si  Si117  1  0.57136700  0.35726500  0.55260000  1
  Si  Si118  1  0.82446600  0.85106800  0.46823400  1
  Si  Si119  1  0.55363300  0.39273500  0.44740000  1
  Si  Si120  1  0.72509700  0.04980600  0.61246800  1
  Si  Si121  1  0.53759700  0.42480600  0.67496800  1
  Si  Si122  1  0.64990300  0.20019400  0.63753200  1
  Si  Si123  1  0.83740300  0.82519400  0.57503200  1
  Si  Si124  1  0.32291700  0.85416700  0.63541700  1
  Si  Si125  1  0.05208300  0.39583300  0.61458300  1
  Si  Si126  1  0.92553400  0.64893200  0.65676600  1
  Si  Si127  1  0.19636700  0.10726500  0.67760000  1
  Si  Si128  1  0.44946600  0.60106800  0.59323400  1
  Si  Si129  1  0.17863300  0.14273500  0.57240000  1
  Si  Si130  1  0.35009700  0.79980600  0.73746800  1
  Si  Si131  1  0.16259700  0.17480600  0.79996800  1
  Si  Si132  1  0.27490300  0.95019400  0.76253200  1
  Si  Si133  1  0.46240300  0.57519400  0.70003200  1
  Si  Si134  1  0.94791700  0.60416700  0.76041700  1
  Si  Si135  1  0.67708300  0.14583300  0.73958300  1
  Si  Si136  1  0.55053400  0.39893200  0.78176600  1
  Si  Si137  1  0.82136700  0.85726500  0.80260000  1
  Si  Si138  1  0.07446600  0.35106800  0.71823400  1
  Si  Si139  1  0.80363300  0.89273500  0.69740000  1
