# generated using pymatgen
data_MgGa
_symmetry_space_group_name_H-M   'P 1'
_cell_length_a   8.03816789
_cell_length_b   8.03816859
_cell_length_c   49.15939500
_cell_angle_alpha   88.74412318
_cell_angle_beta   88.74412307
_cell_angle_gamma   83.19111861
_symmetry_Int_Tables_number   1
_chemical_formula_structural   MgGa
_chemical_formula_sum   'Mg46 Ga46'
_cell_volume   3152.53743401
_cell_formula_units_Z   46
loop_
 _symmetry_equiv_pos_site_id
 _symmetry_equiv_pos_as_xyz
  1  'x, y, z'
loop_
 _atom_site_type_symbol
 _atom_site_label
 _atom_site_symmetry_multiplicity
 _atom_site_fract_x
 _atom_site_fract_y
 _atom_site_fract_z
 _atom_site_occupancy
  Mg  Mg0  1  0.87080900  0.72537900  0.76499800  1
  Mg  Mg1  1  0.60635300  0.87060000  0.70548500  1
  Mg  Mg2  1  0.93677700  0.08220700  0.73857400  1
  Mg  Mg3  1  0.31366500  0.16823500  0.73642600  1
  Mg  Mg4  1  0.64408800  0.37984100  0.76951500  1
  Mg  Mg5  1  0.37963300  0.52506300  0.71000200  1
  Mg  Mg6  1  0.67080900  0.52537900  0.66499800  1
  Mg  Mg7  1  0.98694400  0.72269700  0.69094200  1
  Mg  Mg8  1  0.40635300  0.67060000  0.60548500  1
  Mg  Mg9  1  0.73677700  0.88220700  0.63857400  1
  Mg  Mg10  1  0.11366500  0.96823500  0.63642600  1
  Mg  Mg11  1  0.44408800  0.17984100  0.66951500  1
  Mg  Mg12  1  0.06349700  0.32774400  0.68405800  1
  Mg  Mg13  1  0.17963300  0.32506300  0.61000200  1
  Mg  Mg14  1  0.47080900  0.32537900  0.56499800  1
  Mg  Mg15  1  0.78694400  0.52269700  0.59094200  1
  Mg  Mg16  1  0.20635300  0.47060000  0.50548500  1
  Mg  Mg17  1  0.53677700  0.68220700  0.53857400  1
  Mg  Mg18  1  0.91366500  0.76823500  0.53642600  1
  Mg  Mg19  1  0.24408800  0.97984100  0.56951500  1
  Mg  Mg20  1  0.86349700  0.12774400  0.58405800  1
  Mg  Mg21  1  0.97963300  0.12506300  0.51000200  1
  Mg  Mg22  1  0.27080900  0.12537900  0.46499800  1
  Mg  Mg23  1  0.58694400  0.32269700  0.49094200  1
  Mg  Mg24  1  0.00635300  0.27060000  0.40548500  1
  Mg  Mg25  1  0.33677700  0.48220700  0.43857400  1
  Mg  Mg26  1  0.71366500  0.56823500  0.43642600  1
  Mg  Mg27  1  0.04408800  0.77984100  0.46951500  1
  Mg  Mg28  1  0.66349700  0.92774400  0.48405800  1
  Mg  Mg29  1  0.77963300  0.92506300  0.41000200  1
  Mg  Mg30  1  0.07080900  0.92537900  0.36499800  1
  Mg  Mg31  1  0.38694400  0.12269700  0.39094200  1
  Mg  Mg32  1  0.80635300  0.07060000  0.30548500  1
  Mg  Mg33  1  0.13677700  0.28220700  0.33857400  1
  Mg  Mg34  1  0.51366500  0.36823500  0.33642600  1
  Mg  Mg35  1  0.84408800  0.57984100  0.36951500  1
  Mg  Mg36  1  0.46349700  0.72774400  0.38405800  1
  Mg  Mg37  1  0.57963300  0.72506300  0.31000200  1
  Mg  Mg38  1  0.87080900  0.72537900  0.26499800  1
  Mg  Mg39  1  0.18694400  0.92269700  0.29094200  1
  Mg  Mg40  1  0.60635300  0.87060000  0.20548500  1
  Mg  Mg41  1  0.93677700  0.08220700  0.23857400  1
  Mg  Mg42  1  0.31366500  0.16823500  0.23642600  1
  Mg  Mg43  1  0.64408800  0.37984100  0.26951500  1
  Mg  Mg44  1  0.26349700  0.52774400  0.28405800  1
  Mg  Mg45  1  0.37963300  0.52506300  0.21000200  1
  Ga  Ga46  1  0.50104900  0.71505700  0.75454500  1
  Ga  Ga47  1  0.18340400  0.78592200  0.73871900  1
  Ga  Ga48  1  0.61471600  0.01219800  0.76012000  1
  Ga  Ga49  1  0.63572600  0.23824400  0.71488000  1
  Ga  Ga50  1  0.06703800  0.46451900  0.73628100  1
  Ga  Ga51  1  0.74939300  0.53538500  0.72045500  1
  Ga  Ga52  1  0.30104900  0.51505700  0.65454500  1
  Ga  Ga53  1  0.98340400  0.58592200  0.63871900  1
  Ga  Ga54  1  0.41471600  0.81219800  0.66012000  1
  Ga  Ga55  1  0.19707100  0.98306300  0.69429400  1
  Ga  Ga56  1  0.85337000  0.06737900  0.68070600  1
  Ga  Ga57  1  0.43572600  0.03824400  0.61488000  1
  Ga  Ga58  1  0.86703800  0.26451900  0.63628100  1
  Ga  Ga59  1  0.54939300  0.33538500  0.62045500  1
  Ga  Ga60  1  0.10104900  0.31505700  0.55454500  1
  Ga  Ga61  1  0.78340400  0.38592200  0.53871900  1
  Ga  Ga62  1  0.21471600  0.61219800  0.56012000  1
  Ga  Ga63  1  0.99707100  0.78306300  0.59429400  1
  Ga  Ga64  1  0.65337000  0.86737900  0.58070600  1
  Ga  Ga65  1  0.23572600  0.83824400  0.51488000  1
  Ga  Ga66  1  0.66703800  0.06451900  0.53628100  1
  Ga  Ga67  1  0.34939300  0.13538500  0.52045500  1
  Ga  Ga68  1  0.90104900  0.11505700  0.45454500  1
  Ga  Ga69  1  0.58340400  0.18592200  0.43871900  1
  Ga  Ga70  1  0.01471600  0.41219800  0.46012000  1
  Ga  Ga71  1  0.79707100  0.58306300  0.49429400  1
  Ga  Ga72  1  0.45337000  0.66737900  0.48070600  1
  Ga  Ga73  1  0.03572600  0.63824400  0.41488000  1
  Ga  Ga74  1  0.46703800  0.86451900  0.43628100  1
  Ga  Ga75  1  0.14939300  0.93538500  0.42045500  1
  Ga  Ga76  1  0.70104900  0.91505700  0.35454500  1
  Ga  Ga77  1  0.38340400  0.98592200  0.33871900  1
  Ga  Ga78  1  0.81471600  0.21219800  0.36012000  1
  Ga  Ga79  1  0.59707100  0.38306300  0.39429400  1
  Ga  Ga80  1  0.25337000  0.46737900  0.38070600  1
  Ga  Ga81  1  0.83572600  0.43824400  0.31488000  1
  Ga  Ga82  1  0.26703800  0.66451900  0.33628100  1
  Ga  Ga83  1  0.94939300  0.73538500  0.32045500  1
  Ga  Ga84  1  0.50104900  0.71505700  0.25454500  1
  Ga  Ga85  1  0.18340400  0.78592200  0.23871900  1
  Ga  Ga86  1  0.61471600  0.01219800  0.26012000  1
  Ga  Ga87  1  0.39707100  0.18306300  0.29429400  1
  Ga  Ga88  1  0.05337000  0.26737900  0.28070600  1
  Ga  Ga89  1  0.63572600  0.23824400  0.21488000  1
  Ga  Ga90  1  0.06703800  0.46451900  0.23628100  1
  Ga  Ga91  1  0.74939300  0.53538500  0.22045500  1
