# generated using pymatgen
data_Y3Mg
_symmetry_space_group_name_H-M   'P 1'
_cell_length_a   3.83113900
_cell_length_b   11.49119000
_cell_length_c   43.99291100
_cell_angle_alpha   90.00000000
_cell_angle_beta   90.00000000
_cell_angle_gamma   90.00000000
_symmetry_Int_Tables_number   1
_chemical_formula_structural   Y3Mg
_chemical_formula_sum   'Y30 Mg10'
_cell_volume   1936.75914269
_cell_formula_units_Z   10
loop_
 _symmetry_equiv_pos_site_id
 _symmetry_equiv_pos_as_xyz
  1  'x, y, z'
loop_
 _atom_site_type_symbol
 _atom_site_label
 _atom_site_symmetry_multiplicity
 _atom_site_fract_x
 _atom_site_fract_y
 _atom_site_fract_z
 _atom_site_occupancy
  Y  Y0  1  0.50000000  0.00000000  0.21875000  1
  Y  Y1  1  0.50000000  0.77390600  0.28125000  1
  Y  Y2  1  0.00000000  0.72609400  0.21875000  1
  Y  Y3  1  0.00000000  0.50000000  0.28125000  1
  Y  Y4  1  0.00000000  0.27390600  0.21875000  1
  Y  Y5  1  0.50000000  0.22609400  0.28125000  1
  Y  Y6  1  0.50000000  0.00000000  0.34375000  1
  Y  Y7  1  0.50000000  0.77390600  0.40625000  1
  Y  Y8  1  0.00000000  0.72609400  0.34375000  1
  Y  Y9  1  1.00000000  0.50000000  0.40625000  1
  Y  Y10  1  0.00000000  0.27390600  0.34375000  1
  Y  Y11  1  0.50000000  0.22609400  0.40625000  1
  Y  Y12  1  0.50000000  0.00000000  0.46875000  1
  Y  Y13  1  0.50000000  0.77390600  0.53125000  1
  Y  Y14  1  0.00000000  0.72609400  0.46875000  1
  Y  Y15  1  0.00000000  0.50000000  0.53125000  1
  Y  Y16  1  0.00000000  0.27390600  0.46875000  1
  Y  Y17  1  0.50000000  0.22609400  0.53125000  1
  Y  Y18  1  0.50000000  0.00000000  0.59375000  1
  Y  Y19  1  0.50000000  0.77390600  0.65625000  1
  Y  Y20  1  1.00000000  0.72609400  0.59375000  1
  Y  Y21  1  0.00000000  0.50000000  0.65625000  1
  Y  Y22  1  0.00000000  0.27390600  0.59375000  1
  Y  Y23  1  0.50000000  0.22609400  0.65625000  1
  Y  Y24  1  0.50000000  0.00000000  0.71875000  1
  Y  Y25  1  0.50000000  0.77390600  0.78125000  1
  Y  Y26  1  0.00000000  0.72609400  0.71875000  1
  Y  Y27  1  0.00000000  0.50000000  0.78125000  1
  Y  Y28  1  0.00000000  0.27390600  0.71875000  1
  Y  Y29  1  0.50000000  0.22609400  0.78125000  1
  Mg  Mg30  1  0.00000000  0.00000000  0.28125000  1
  Mg  Mg31  1  0.50000000  0.50000000  0.21875000  1
  Mg  Mg32  1  0.00000000  0.00000000  0.40625000  1
  Mg  Mg33  1  0.50000000  0.50000000  0.34375000  1
  Mg  Mg34  1  0.00000000  0.00000000  0.53125000  1
  Mg  Mg35  1  0.50000000  0.50000000  0.46875000  1
  Mg  Mg36  1  0.00000000  0.00000000  0.65625000  1
  Mg  Mg37  1  0.50000000  0.50000000  0.59375000  1
  Mg  Mg38  1  0.00000000  0.00000000  0.78125000  1
  Mg  Mg39  1  0.50000000  0.50000000  0.71875000  1
