# generated using pymatgen
data_Sr4Mg41
_symmetry_space_group_name_H-M   'P 1'
_cell_length_a   10.60291300
_cell_length_b   14.66206680
_cell_length_c   47.66603800
_cell_angle_alpha   92.42755603
_cell_angle_beta   90.00000000
_cell_angle_gamma   68.80296164
_symmetry_Int_Tables_number   1
_chemical_formula_structural   Sr4Mg41
_chemical_formula_sum   'Sr12 Mg123'
_cell_volume   6901.70350145
_cell_formula_units_Z   3
loop_
 _symmetry_equiv_pos_site_id
 _symmetry_equiv_pos_as_xyz
  1  'x, y, z'
loop_
 _atom_site_type_symbol
 _atom_site_label
 _atom_site_symmetry_multiplicity
 _atom_site_fract_x
 _atom_site_fract_y
 _atom_site_fract_z
 _atom_site_occupancy
  Sr  Sr0  1  0.43068100  0.13863700  0.33709300  1
  Sr  Sr1  1  0.14496700  0.71006600  0.31328300  1
  Sr  Sr2  1  0.71639600  0.56720900  0.36090200  1
  Sr  Sr3  1  0.85925300  0.28149500  0.28947400  1
  Sr  Sr4  1  0.14496700  0.71006600  0.47995000  1
  Sr  Sr5  1  0.85925300  0.28149500  0.45614000  1
  Sr  Sr6  1  0.43068100  0.13863700  0.50375900  1
  Sr  Sr7  1  0.57353800  0.85292300  0.43233100  1
  Sr  Sr8  1  0.85925300  0.28149500  0.62280700  1
  Sr  Sr9  1  0.57353800  0.85292300  0.59899700  1
  Sr  Sr10  1  0.14496700  0.71006600  0.64661700  1
  Sr  Sr11  1  0.28782400  0.42435200  0.57518800  1
  Mg  Mg12  1  0.13794500  0.72410900  0.23245400  1
  Mg  Mg13  1  0.99336200  0.50723500  0.30474600  1
  Mg  Mg14  1  0.49940200  0.50723500  0.30474600  1
  Mg  Mg15  1  0.20678500  0.08038900  0.28036100  1
  Mg  Mg16  1  0.33122300  0.33755300  0.22015500  1
  Mg  Mg17  1  0.61693800  0.76612500  0.24396500  1
  Mg  Mg18  1  0.53013900  0.93972200  0.28736400  1
  Mg  Mg19  1  0.24442500  0.51115000  0.26355400  1
  Mg  Mg20  1  0.43068100  0.13863700  0.25375900  1
  Mg  Mg21  1  0.93068100  0.63863700  0.25375900  1
  Mg  Mg22  1  0.43068100  0.63863700  0.25375900  1
  Mg  Mg23  1  0.28782400  0.92435200  0.32518800  1
  Mg  Mg24  1  0.78782400  0.92435200  0.32518800  1
  Mg  Mg25  1  0.28782400  0.42435200  0.32518800  1
  Mg  Mg26  1  0.50429700  0.29736700  0.28418300  1
  Mg  Mg27  1  0.87121700  0.85499300  0.26497400  1
  Mg  Mg28  1  0.49233200  0.72386800  0.30868300  1
  Mg  Mg29  1  0.08331600  0.12483600  0.34169300  1
  Mg  Mg30  1  0.99014500  0.42228100  0.24254500  1
  Mg  Mg31  1  0.66302600  0.97990800  0.22333600  1
  Mg  Mg32  1  0.78380000  0.72386800  0.30868300  1
  Mg  Mg33  1  0.35706600  0.97990800  0.22333600  1
  Mg  Mg34  1  0.27378900  0.85499300  0.26497400  1
  Mg  Mg35  1  0.58757300  0.42228100  0.24254500  1
  Mg  Mg36  1  0.19833700  0.29736700  0.28418300  1
  Mg  Mg37  1  0.79184800  0.12483600  0.34169300  1
  Mg  Mg38  1  0.65457700  0.19688500  0.22715800  1
  Mg  Mg39  1  0.58228600  0.34146800  0.34563000  1
  Mg  Mg40  1  0.72341700  0.55316500  0.27506500  1
  Mg  Mg41  1  0.00740600  0.98518800  0.29772400  1
  Mg  Mg42  1  0.14853700  0.19688500  0.22715800  1
  Mg  Mg43  1  0.71282500  0.08038900  0.28036100  1
  Mg  Mg44  1  0.56824200  0.86351500  0.35265200  1
  Mg  Mg45  1  0.07624600  0.34146800  0.34563000  1
  Mg  Mg46  1  0.85223100  0.29553800  0.37531100  1
  Mg  Mg47  1  0.70764800  0.07866400  0.44760300  1
  Mg  Mg48  1  0.21368800  0.07866400  0.44760300  1
  Mg  Mg49  1  0.92107100  0.65181800  0.42321800  1
  Mg  Mg50  1  0.04550900  0.90898200  0.36301200  1
  Mg  Mg51  1  0.33122300  0.33755300  0.38682200  1
  Mg  Mg52  1  0.24442500  0.51115000  0.43022100  1
  Mg  Mg53  1  0.95871100  0.08257900  0.40641100  1
  Mg  Mg54  1  0.14496700  0.71006600  0.39661700  1
  Mg  Mg55  1  0.64496700  0.21006600  0.39661700  1
  Mg  Mg56  1  0.14496700  0.21006600  0.39661700  1
  Mg  Mg57  1  0.00211000  0.49578000  0.46804500  1
  Mg  Mg58  1  0.50211000  0.49578000  0.46804500  1
  Mg  Mg59  1  0.00211000  0.99578000  0.46804500  1
  Mg  Mg60  1  0.21858300  0.86879500  0.42704000  1
  Mg  Mg61  1  0.58550300  0.42642200  0.40783100  1
  Mg  Mg62  1  0.20661800  0.29529600  0.45154000  1
  Mg  Mg63  1  0.79760200  0.69626400  0.48455000  1
  Mg  Mg64  1  0.70443100  0.99371000  0.38540200  1
  Mg  Mg65  1  0.37731200  0.55133700  0.36619300  1
  Mg  Mg66  1  0.49808600  0.29529600  0.45154000  1
  Mg  Mg67  1  0.07135100  0.55133700  0.36619300  1
  Mg  Mg68  1  0.98807500  0.42642200  0.40783100  1
  Mg  Mg69  1  0.30185900  0.99371000  0.38540200  1
  Mg  Mg70  1  0.91262200  0.86879500  0.42704000  1
  Mg  Mg71  1  0.50613400  0.69626400  0.48455000  1
  Mg  Mg72  1  0.36886300  0.76831400  0.37001500  1
  Mg  Mg73  1  0.29657200  0.91289700  0.48848800  1
  Mg  Mg74  1  0.43770300  0.12459400  0.41792200  1
  Mg  Mg75  1  0.72169200  0.55661700  0.44058100  1
  Mg  Mg76  1  0.86282300  0.76831400  0.37001500  1
  Mg  Mg77  1  0.42711100  0.65181800  0.42321800  1
  Mg  Mg78  1  0.28252800  0.43494400  0.49550900  1
  Mg  Mg79  1  0.79053200  0.91289700  0.48848800  1
  Mg  Mg80  1  0.56651700  0.86696700  0.51816800  1
  Mg  Mg81  1  0.42193400  0.65009200  0.59046000  1
  Mg  Mg82  1  0.92797400  0.65009200  0.59046000  1
  Mg  Mg83  1  0.63535700  0.22324700  0.56607500  1
  Mg  Mg84  1  0.75979500  0.48041000  0.50586900  1
  Mg  Mg85  1  0.04550900  0.90898200  0.52967900  1
  Mg  Mg86  1  0.95871100  0.08257900  0.57307800  1
  Mg  Mg87  1  0.67299600  0.65400700  0.54926900  1
  Mg  Mg88  1  0.85925300  0.28149500  0.53947400  1
  Mg  Mg89  1  0.35925300  0.78149500  0.53947400  1
  Mg  Mg90  1  0.85925300  0.78149500  0.53947400  1
  Mg  Mg91  1  0.71639600  0.06720900  0.61090200  1
  Mg  Mg92  1  0.21639600  0.06720900  0.61090200  1
  Mg  Mg93  1  0.71639600  0.56720900  0.61090200  1
  Mg  Mg94  1  0.93286800  0.44022400  0.56989700  1
  Mg  Mg95  1  0.29978900  0.99785100  0.55068800  1
  Mg  Mg96  1  0.92090400  0.86672500  0.59439700  1
  Mg  Mg97  1  0.51188700  0.26769300  0.62740800  1
  Mg  Mg98  1  0.41871700  0.56513800  0.52825900  1
  Mg  Mg99  1  0.09159700  0.12276500  0.50905000  1
  Mg  Mg100  1  0.21237200  0.86672500  0.59439700  1
  Mg  Mg101  1  0.78563700  0.12276500  0.50905000  1
  Mg  Mg102  1  0.70236100  0.99785100  0.55068800  1
  Mg  Mg103  1  0.01614500  0.56513800  0.52825900  1
  Mg  Mg104  1  0.62690800  0.44022400  0.56989700  1
  Mg  Mg105  1  0.22042000  0.26769300  0.62740800  1
  Mg  Mg106  1  0.08314900  0.33974200  0.51287200  1
  Mg  Mg107  1  0.01085700  0.48432500  0.63134500  1
  Mg  Mg108  1  0.15198900  0.69602200  0.56077900  1
  Mg  Mg109  1  0.43597700  0.12804500  0.58343800  1
  Mg  Mg110  1  0.57710900  0.33974200  0.51287200  1
  Mg  Mg111  1  0.14139700  0.22324700  0.56607500  1
  Mg  Mg112  1  0.99681400  0.00637200  0.63836600  1
  Mg  Mg113  1  0.50481700  0.48432500  0.63134500  1
  Mg  Mg114  1  0.28080200  0.43839500  0.66102600  1
  Mg  Mg115  1  0.34964200  0.79467500  0.70893200  1
  Mg  Mg116  1  0.47408100  0.05183900  0.64872600  1
  Mg  Mg117  1  0.75979500  0.48041000  0.67253600  1
  Mg  Mg118  1  0.67299600  0.65400700  0.71593500  1
  Mg  Mg119  1  0.38728200  0.22543600  0.69212600  1
  Mg  Mg120  1  0.57353800  0.85292300  0.68233100  1
  Mg  Mg121  1  0.07353800  0.35292300  0.68233100  1
  Mg  Mg122  1  0.57353800  0.35292300  0.68233100  1
  Mg  Mg123  1  0.64715400  0.01165200  0.71275400  1
  Mg  Mg124  1  0.01407500  0.56927900  0.69354500  1
  Mg  Mg125  1  0.13300200  0.13656700  0.67111600  1
  Mg  Mg126  1  0.80588300  0.69419400  0.65190700  1
  Mg  Mg127  1  0.49992300  0.69419400  0.65190700  1
  Mg  Mg128  1  0.41664600  0.56927900  0.69354500  1
  Mg  Mg129  1  0.73043100  0.13656700  0.67111600  1
  Mg  Mg130  1  0.34119400  0.01165200  0.71275400  1
  Mg  Mg131  1  0.79743500  0.91117100  0.65572900  1
  Mg  Mg132  1  0.86627400  0.26745100  0.70363600  1
  Mg  Mg133  1  0.29139400  0.91117100  0.65572900  1
  Mg  Mg134  1  0.85568200  0.79467500  0.70893200  1
