# generated using pymatgen
data_Mg106Zn195
_symmetry_space_group_name_H-M   'P 1'
_cell_length_a   13.26606221
_cell_length_b   15.53344873
_cell_length_c   48.04736100
_cell_angle_alpha   89.05057746
_cell_angle_beta   95.72936823
_cell_angle_gamma   107.07914806
_symmetry_Int_Tables_number   1
_chemical_formula_structural   Mg106Zn195
_chemical_formula_sum   'Mg106 Zn195'
_cell_volume   9416.24909417
_cell_formula_units_Z   1
loop_
 _symmetry_equiv_pos_site_id
 _symmetry_equiv_pos_as_xyz
  1  'x, y, z'
loop_
 _atom_site_type_symbol
 _atom_site_label
 _atom_site_symmetry_multiplicity
 _atom_site_fract_x
 _atom_site_fract_y
 _atom_site_fract_z
 _atom_site_occupancy
  Mg  Mg0  1  0.06923400  0.77428600  0.25889100  1
  Mg  Mg1  1  0.88387300  0.03309400  0.27470600  1
  Mg  Mg2  1  0.11612700  0.12357200  0.27802100  1
  Mg  Mg3  1  0.68159700  0.33849700  0.28535700  1
  Mg  Mg4  1  0.31840300  0.81816900  0.26737100  1
  Mg  Mg5  1  0.93076600  0.38238000  0.29383600  1
  Mg  Mg6  1  0.74900600  0.02575100  0.32396200  1
  Mg  Mg7  1  0.06923400  0.87428600  0.35889100  1
  Mg  Mg8  1  0.60977900  0.47545300  0.32116700  1
  Mg  Mg9  1  0.88387300  0.13309400  0.37470600  1
  Mg  Mg10  1  0.96931900  0.71866400  0.31454000  1
  Mg  Mg11  1  0.57175100  0.13190800  0.30188500  1
  Mg  Mg12  1  0.71853500  0.68331300  0.30479900  1
  Mg  Mg13  1  0.11612700  0.22357200  0.37802100  1
  Mg  Mg14  1  0.64336400  0.81914900  0.34099500  1
  Mg  Mg15  1  0.03068100  0.53800200  0.33818700  1
  Mg  Mg16  1  0.39022100  0.78121200  0.33156000  1
  Mg  Mg17  1  0.35663600  0.43751700  0.31173200  1
  Mg  Mg18  1  0.01360900  0.04357400  0.33669300  1
  Mg  Mg19  1  0.68159700  0.43849700  0.38535700  1
  Mg  Mg20  1  0.31840300  0.91816900  0.36737100  1
  Mg  Mg21  1  0.28146500  0.57335300  0.34792800  1
  Mg  Mg22  1  0.25099400  0.23091400  0.32876600  1
  Mg  Mg23  1  0.42824900  0.12475800  0.35084200  1
  Mg  Mg24  1  0.93076600  0.48238000  0.39383600  1
  Mg  Mg25  1  0.98639100  0.21309200  0.31603400  1
  Mg  Mg26  1  0.74900600  0.12575100  0.42396200  1
  Mg  Mg27  1  0.06923400  0.97428600  0.45889100  1
  Mg  Mg28  1  0.60977900  0.57545300  0.42116700  1
  Mg  Mg29  1  0.88387300  0.23309400  0.47470600  1
  Mg  Mg30  1  0.96931900  0.81866400  0.41454000  1
  Mg  Mg31  1  0.57175100  0.23190800  0.40188500  1
  Mg  Mg32  1  0.71853500  0.78331300  0.40479900  1
  Mg  Mg33  1  0.11612700  0.32357200  0.47802100  1
  Mg  Mg34  1  0.64336400  0.91914900  0.44099500  1
  Mg  Mg35  1  0.03068100  0.63800200  0.43818700  1
  Mg  Mg36  1  0.39022100  0.88121200  0.43156000  1
  Mg  Mg37  1  0.35663600  0.53751700  0.41173200  1
  Mg  Mg38  1  0.01360900  0.14357400  0.43669300  1
  Mg  Mg39  1  0.68159700  0.53849700  0.48535700  1
  Mg  Mg40  1  0.31840300  0.01816900  0.46737100  1
  Mg  Mg41  1  0.28146500  0.67335300  0.44792800  1
  Mg  Mg42  1  0.25099400  0.33091400  0.42876600  1
  Mg  Mg43  1  0.42824900  0.22475800  0.45084200  1
  Mg  Mg44  1  0.93076600  0.58238000  0.49383600  1
  Mg  Mg45  1  0.98639100  0.31309200  0.41603400  1
  Mg  Mg46  1  0.74900600  0.22575100  0.52396200  1
  Mg  Mg47  1  0.06923400  0.07428600  0.55889100  1
  Mg  Mg48  1  0.60977900  0.67545300  0.52116700  1
  Mg  Mg49  1  0.88387300  0.33309400  0.57470600  1
  Mg  Mg50  1  0.96931900  0.91866400  0.51454000  1
  Mg  Mg51  1  0.57175100  0.33190800  0.50188500  1
  Mg  Mg52  1  0.71853500  0.88331300  0.50479900  1
  Mg  Mg53  1  0.11612700  0.42357200  0.57802100  1
  Mg  Mg54  1  0.64336400  0.01914900  0.54099500  1
  Mg  Mg55  1  0.03068100  0.73800200  0.53818700  1
  Mg  Mg56  1  0.39022100  0.98121200  0.53156000  1
  Mg  Mg57  1  0.35663600  0.63751700  0.51173200  1
  Mg  Mg58  1  0.01360900  0.24357400  0.53669300  1
  Mg  Mg59  1  0.68159700  0.63849700  0.58535700  1
  Mg  Mg60  1  0.31840300  0.11816900  0.56737100  1
  Mg  Mg61  1  0.28146500  0.77335300  0.54792800  1
  Mg  Mg62  1  0.25099400  0.43091400  0.52876600  1
  Mg  Mg63  1  0.42824900  0.32475800  0.55084200  1
  Mg  Mg64  1  0.93076600  0.68238000  0.59383600  1
  Mg  Mg65  1  0.98639100  0.41309200  0.51603400  1
  Mg  Mg66  1  0.74900600  0.32575100  0.62396200  1
  Mg  Mg67  1  0.06923400  0.17428600  0.65889100  1
  Mg  Mg68  1  0.60977900  0.77545300  0.62116700  1
  Mg  Mg69  1  0.88387300  0.43309400  0.67470600  1
  Mg  Mg70  1  0.96931900  0.01866400  0.61454000  1
  Mg  Mg71  1  0.57175100  0.43190800  0.60188500  1
  Mg  Mg72  1  0.71853500  0.98331300  0.60479900  1
  Mg  Mg73  1  0.11612700  0.52357200  0.67802100  1
  Mg  Mg74  1  0.64336400  0.11914900  0.64099500  1
  Mg  Mg75  1  0.03068100  0.83800200  0.63818700  1
  Mg  Mg76  1  0.39022100  0.08121200  0.63156000  1
  Mg  Mg77  1  0.35663600  0.73751700  0.61173200  1
  Mg  Mg78  1  0.01360900  0.34357400  0.63669300  1
  Mg  Mg79  1  0.68159700  0.73849700  0.68535700  1
  Mg  Mg80  1  0.31840300  0.21816900  0.66737100  1
  Mg  Mg81  1  0.28146500  0.87335300  0.64792800  1
  Mg  Mg82  1  0.25099400  0.53091400  0.62876600  1
  Mg  Mg83  1  0.42824900  0.42475800  0.65084200  1
  Mg  Mg84  1  0.93076600  0.78238000  0.69383600  1
  Mg  Mg85  1  0.98639100  0.51309200  0.61603400  1
  Mg  Mg86  1  0.74900600  0.42575100  0.72396200  1
  Mg  Mg87  1  0.06923400  0.27428600  0.75889100  1
  Mg  Mg88  1  0.60977900  0.87545300  0.72116700  1
  Mg  Mg89  1  0.88387300  0.53309400  0.77470600  1
  Mg  Mg90  1  0.96931900  0.11866400  0.71454000  1
  Mg  Mg91  1  0.57175100  0.53190800  0.70188500  1
  Mg  Mg92  1  0.71853500  0.08331300  0.70479900  1
  Mg  Mg93  1  0.11612700  0.62357200  0.77802100  1
  Mg  Mg94  1  0.64336400  0.21914900  0.74099500  1
  Mg  Mg95  1  0.03068100  0.93800200  0.73818700  1
  Mg  Mg96  1  0.39022100  0.18121200  0.73156000  1
  Mg  Mg97  1  0.35663600  0.83751700  0.71173200  1
  Mg  Mg98  1  0.01360900  0.44357400  0.73669300  1
  Mg  Mg99  1  0.68159700  0.83849700  0.78535700  1
  Mg  Mg100  1  0.31840300  0.31816900  0.76737100  1
  Mg  Mg101  1  0.28146500  0.97335300  0.74792800  1
  Mg  Mg102  1  0.25099400  0.63091400  0.72876600  1
  Mg  Mg103  1  0.42824900  0.52475800  0.75084200  1
  Mg  Mg104  1  0.93076600  0.88238000  0.79383600  1
  Mg  Mg105  1  0.98639100  0.61309200  0.71603400  1
  Zn  Zn106  1  0.84920500  0.65426400  0.26000500  1
  Zn  Zn107  1  0.03575800  0.91584200  0.29648600  1
  Zn  Zn108  1  0.51358900  0.75022800  0.28540700  1
  Zn  Zn109  1  0.14473200  0.33411000  0.28383000  1
  Zn  Zn110  1  0.15079500  0.50240200  0.29272200  1
  Zn  Zn111  1  0.53087400  0.92224600  0.29580100  1
  Zn  Zn112  1  0.65881200  0.02823800  0.26307200  1
  Zn  Zn113  1  0.66294100  0.53119700  0.26282900  1
  Zn  Zn114  1  0.96424200  0.24082300  0.25624200  1
  Zn  Zn115  1  0.33705900  0.62546800  0.28989800  1
  Zn  Zn116  1  0.50000000  0.57833300  0.27636400  1
  Zn  Zn117  1  0.69712500  0.86982800  0.28332100  1
  Zn  Zn118  1  0.79093800  0.18135900  0.28155100  1
  Zn  Zn119  1  0.30287500  0.28683800  0.26940600  1
  Zn  Zn120  1  0.20906200  0.97530700  0.27117600  1
  Zn  Zn121  1  0.85526800  0.82255600  0.26889700  1
  Zn  Zn122  1  0.00000000  0.57833300  0.27636400  1
  Zn  Zn123  1  0.46912600  0.23442000  0.25692700  1
  Zn  Zn124  1  0.34118800  0.12842800  0.28965500  1
  Zn  Zn125  1  0.48641100  0.40643800  0.26732100  1
  Zn  Zn126  1  0.84920500  0.75426400  0.36000500  1
  Zn  Zn127  1  0.03575800  0.01584200  0.39648600  1
  Zn  Zn128  1  0.51358900  0.85022800  0.38540700  1
  Zn  Zn129  1  0.14473200  0.43411000  0.38383000  1
  Zn  Zn130  1  0.17856500  0.68183300  0.30310000  1
  Zn  Zn131  1  0.85936100  0.87201800  0.31958000  1
  Zn  Zn132  1  0.50000000  0.62833300  0.32636400  1
  Zn  Zn133  1  0.15079500  0.60240200  0.39272200  1
  Zn  Zn134  1  0.37496700  0.97361600  0.30874100  1
  Zn  Zn135  1  0.82105800  0.52535300  0.30026100  1
  Zn  Zn136  1  0.53087400  0.02224600  0.39580100  1
  Zn  Zn137  1  0.65881200  0.12823800  0.36307200  1
  Zn  Zn138  1  0.66294100  0.63119700  0.36282900  1
  Zn  Zn139  1  0.80881900  0.40908300  0.33949100  1
  Zn  Zn140  1  0.96424200  0.34082300  0.35624200  1
  Zn  Zn141  1  0.62503300  0.28305000  0.34398700  1
  Zn  Zn142  1  0.78829600  0.23152400  0.32989700  1
  Zn  Zn143  1  0.17894200  0.73131300  0.35246600  1
  Zn  Zn144  1  0.14063900  0.38464800  0.33314700  1
  Zn  Zn145  1  0.33705900  0.72546800  0.38989800  1
  Zn  Zn146  1  0.21170400  0.02514200  0.32283000  1
  Zn  Zn147  1  0.82143500  0.57483300  0.34962700  1
  Zn  Zn148  1  0.50000000  0.67833300  0.37636400  1
  Zn  Zn149  1  0.69712500  0.96982800  0.38332100  1
  Zn  Zn150  1  0.52936800  0.97223800  0.34526600  1
  Zn  Zn151  1  0.79093800  0.28135900  0.38155100  1
  Zn  Zn152  1  0.30287500  0.38683800  0.36940600  1
  Zn  Zn153  1  0.20906200  0.07530700  0.37117600  1
  Zn  Zn154  1  0.19118100  0.84758200  0.31323600  1
  Zn  Zn155  1  0.47063200  0.28442800  0.30746100  1
  Zn  Zn156  1  0.85526800  0.92255600  0.36889700  1
  Zn  Zn157  1  0.00000000  0.67833300  0.37636400  1
  Zn  Zn158  1  0.46912600  0.33442000  0.35692700  1
  Zn  Zn159  1  0.34118800  0.22842800  0.38965500  1
  Zn  Zn160  1  0.48641100  0.50643800  0.36732100  1
  Zn  Zn161  1  0.84920500  0.85426400  0.46000500  1
  Zn  Zn162  1  0.03575800  0.11584200  0.49648600  1
  Zn  Zn163  1  0.51358900  0.95022800  0.48540700  1
  Zn  Zn164  1  0.14473200  0.53411000  0.48383000  1
  Zn  Zn165  1  0.17856500  0.78183300  0.40310000  1
  Zn  Zn166  1  0.85936100  0.97201800  0.41958000  1
  Zn  Zn167  1  0.50000000  0.72833300  0.42636400  1
  Zn  Zn168  1  0.15079500  0.70240200  0.49272200  1
  Zn  Zn169  1  0.37496700  0.07361600  0.40874100  1
  Zn  Zn170  1  0.82105800  0.62535300  0.40026100  1
  Zn  Zn171  1  0.53087400  0.12224600  0.49580100  1
  Zn  Zn172  1  0.65881200  0.22823800  0.46307200  1
  Zn  Zn173  1  0.66294100  0.73119700  0.46282900  1
  Zn  Zn174  1  0.80881900  0.50908300  0.43949100  1
  Zn  Zn175  1  0.96424200  0.44082300  0.45624200  1
  Zn  Zn176  1  0.62503300  0.38305000  0.44398700  1
  Zn  Zn177  1  0.78829600  0.33152400  0.42989700  1
  Zn  Zn178  1  0.17894200  0.83131300  0.45246600  1
  Zn  Zn179  1  0.14063900  0.48464800  0.43314700  1
  Zn  Zn180  1  0.33705900  0.82546800  0.48989800  1
  Zn  Zn181  1  0.21170400  0.12514200  0.42283000  1
  Zn  Zn182  1  0.82143500  0.67483300  0.44962700  1
  Zn  Zn183  1  0.50000000  0.77833300  0.47636400  1
  Zn  Zn184  1  0.69712500  0.06982800  0.48332100  1
  Zn  Zn185  1  0.52936800  0.07223800  0.44526600  1
  Zn  Zn186  1  0.79093800  0.38135900  0.48155100  1
  Zn  Zn187  1  0.30287500  0.48683800  0.46940600  1
  Zn  Zn188  1  0.20906200  0.17530700  0.47117600  1
  Zn  Zn189  1  0.19118100  0.94758200  0.41323600  1
  Zn  Zn190  1  0.47063200  0.38442800  0.40746100  1
  Zn  Zn191  1  0.85526800  0.02255600  0.46889700  1
  Zn  Zn192  1  0.00000000  0.77833300  0.47636400  1
  Zn  Zn193  1  0.46912600  0.43442000  0.45692700  1
  Zn  Zn194  1  0.34118800  0.32842800  0.48965500  1
  Zn  Zn195  1  0.48641100  0.60643800  0.46732100  1
  Zn  Zn196  1  0.84920500  0.95426400  0.56000500  1
  Zn  Zn197  1  0.03575800  0.21584200  0.59648600  1
  Zn  Zn198  1  0.51358900  0.05022800  0.58540700  1
  Zn  Zn199  1  0.14473200  0.63411000  0.58383000  1
  Zn  Zn200  1  0.17856500  0.88183300  0.50310000  1
  Zn  Zn201  1  0.85936100  0.07201800  0.51958000  1
  Zn  Zn202  1  0.50000000  0.82833300  0.52636400  1
  Zn  Zn203  1  0.15079500  0.80240200  0.59272200  1
  Zn  Zn204  1  0.37496700  0.17361600  0.50874100  1
  Zn  Zn205  1  0.82105800  0.72535300  0.50026100  1
  Zn  Zn206  1  0.53087400  0.22224600  0.59580100  1
  Zn  Zn207  1  0.65881200  0.32823800  0.56307200  1
  Zn  Zn208  1  0.66294100  0.83119700  0.56282900  1
  Zn  Zn209  1  0.80881900  0.60908300  0.53949100  1
  Zn  Zn210  1  0.96424200  0.54082300  0.55624200  1
  Zn  Zn211  1  0.62503300  0.48305000  0.54398700  1
  Zn  Zn212  1  0.78829600  0.43152400  0.52989700  1
  Zn  Zn213  1  0.17894200  0.93131300  0.55246600  1
  Zn  Zn214  1  0.14063900  0.58464800  0.53314700  1
  Zn  Zn215  1  0.33705900  0.92546800  0.58989800  1
  Zn  Zn216  1  0.21170400  0.22514200  0.52283000  1
  Zn  Zn217  1  0.82143500  0.77483300  0.54962700  1
  Zn  Zn218  1  0.50000000  0.87833300  0.57636400  1
  Zn  Zn219  1  0.69712500  0.16982800  0.58332100  1
  Zn  Zn220  1  0.52936800  0.17223800  0.54526600  1
  Zn  Zn221  1  0.79093800  0.48135900  0.58155100  1
  Zn  Zn222  1  0.30287500  0.58683800  0.56940600  1
  Zn  Zn223  1  0.20906200  0.27530700  0.57117600  1
  Zn  Zn224  1  0.19118100  0.04758200  0.51323600  1
  Zn  Zn225  1  0.47063200  0.48442800  0.50746100  1
  Zn  Zn226  1  0.85526800  0.12255600  0.56889700  1
  Zn  Zn227  1  0.00000000  0.87833300  0.57636400  1
  Zn  Zn228  1  0.46912600  0.53442000  0.55692700  1
  Zn  Zn229  1  0.34118800  0.42842800  0.58965500  1
  Zn  Zn230  1  0.48641100  0.70643800  0.56732100  1
  Zn  Zn231  1  0.84920500  0.05426400  0.66000500  1
  Zn  Zn232  1  0.03575800  0.31584200  0.69648600  1
  Zn  Zn233  1  0.51358900  0.15022800  0.68540700  1
  Zn  Zn234  1  0.14473200  0.73411000  0.68383000  1
  Zn  Zn235  1  0.17856500  0.98183300  0.60310000  1
  Zn  Zn236  1  0.85936100  0.17201800  0.61958000  1
  Zn  Zn237  1  0.50000000  0.92833300  0.62636400  1
  Zn  Zn238  1  0.15079500  0.90240200  0.69272200  1
  Zn  Zn239  1  0.37496700  0.27361600  0.60874100  1
  Zn  Zn240  1  0.82105800  0.82535300  0.60026100  1
  Zn  Zn241  1  0.53087400  0.32224600  0.69580100  1
  Zn  Zn242  1  0.65881200  0.42823800  0.66307200  1
  Zn  Zn243  1  0.66294100  0.93119700  0.66282900  1
  Zn  Zn244  1  0.80881900  0.70908300  0.63949100  1
  Zn  Zn245  1  0.96424200  0.64082300  0.65624200  1
  Zn  Zn246  1  0.62503300  0.58305000  0.64398700  1
  Zn  Zn247  1  0.78829600  0.53152400  0.62989700  1
  Zn  Zn248  1  0.17894200  0.03131300  0.65246600  1
  Zn  Zn249  1  0.14063900  0.68464800  0.63314700  1
  Zn  Zn250  1  0.33705900  0.02546800  0.68989800  1
  Zn  Zn251  1  0.21170400  0.32514200  0.62283000  1
  Zn  Zn252  1  0.82143500  0.87483300  0.64962700  1
  Zn  Zn253  1  0.50000000  0.97833300  0.67636400  1
  Zn  Zn254  1  0.69712500  0.26982800  0.68332100  1
  Zn  Zn255  1  0.52936800  0.27223800  0.64526600  1
  Zn  Zn256  1  0.79093800  0.58135900  0.68155100  1
  Zn  Zn257  1  0.30287500  0.68683800  0.66940600  1
  Zn  Zn258  1  0.20906200  0.37530700  0.67117600  1
  Zn  Zn259  1  0.19118100  0.14758200  0.61323600  1
  Zn  Zn260  1  0.47063200  0.58442800  0.60746100  1
  Zn  Zn261  1  0.85526800  0.22255600  0.66889700  1
  Zn  Zn262  1  0.00000000  0.97833300  0.67636400  1
  Zn  Zn263  1  0.46912600  0.63442000  0.65692700  1
  Zn  Zn264  1  0.34118800  0.52842800  0.68965500  1
  Zn  Zn265  1  0.48641100  0.80643800  0.66732100  1
  Zn  Zn266  1  0.84920500  0.15426400  0.76000500  1
  Zn  Zn267  1  0.03575800  0.41584200  0.79648600  1
  Zn  Zn268  1  0.51358900  0.25022800  0.78540700  1
  Zn  Zn269  1  0.14473200  0.83411000  0.78383000  1
  Zn  Zn270  1  0.17856500  0.08183300  0.70310000  1
  Zn  Zn271  1  0.85936100  0.27201800  0.71958000  1
  Zn  Zn272  1  0.50000000  0.02833300  0.72636400  1
  Zn  Zn273  1  0.15079500  0.00240200  0.79272200  1
  Zn  Zn274  1  0.37496700  0.37361600  0.70874100  1
  Zn  Zn275  1  0.82105800  0.92535300  0.70026100  1
  Zn  Zn276  1  0.53087400  0.42224600  0.79580100  1
  Zn  Zn277  1  0.65881200  0.52823800  0.76307200  1
  Zn  Zn278  1  0.66294100  0.03119700  0.76282900  1
  Zn  Zn279  1  0.80881900  0.80908300  0.73949100  1
  Zn  Zn280  1  0.96424200  0.74082300  0.75624200  1
  Zn  Zn281  1  0.62503300  0.68305000  0.74398700  1
  Zn  Zn282  1  0.78829600  0.63152400  0.72989700  1
  Zn  Zn283  1  0.17894200  0.13131300  0.75246600  1
  Zn  Zn284  1  0.14063900  0.78464800  0.73314700  1
  Zn  Zn285  1  0.33705900  0.12546800  0.78989800  1
  Zn  Zn286  1  0.21170400  0.42514200  0.72283000  1
  Zn  Zn287  1  0.82143500  0.97483300  0.74962700  1
  Zn  Zn288  1  0.50000000  0.07833300  0.77636400  1
  Zn  Zn289  1  0.69712500  0.36982800  0.78332100  1
  Zn  Zn290  1  0.52936800  0.37223800  0.74526600  1
  Zn  Zn291  1  0.79093800  0.68135900  0.78155100  1
  Zn  Zn292  1  0.30287500  0.78683800  0.76940600  1
  Zn  Zn293  1  0.20906200  0.47530700  0.77117600  1
  Zn  Zn294  1  0.19118100  0.24758200  0.71323600  1
  Zn  Zn295  1  0.47063200  0.68442800  0.70746100  1
  Zn  Zn296  1  0.85526800  0.32255600  0.76889700  1
  Zn  Zn297  1  0.00000000  0.07833300  0.77636400  1
  Zn  Zn298  1  0.46912600  0.73442000  0.75692700  1
  Zn  Zn299  1  0.34118800  0.62842800  0.78965500  1
  Zn  Zn300  1  0.48641100  0.90643800  0.76732100  1
