# generated using pymatgen
data_Ho11Mg4
_symmetry_space_group_name_H-M   'P 1'
_cell_length_a   3.50036600
_cell_length_b   9.53334000
_cell_length_c   45.50475500
_cell_angle_alpha   90.00000000
_cell_angle_beta   90.00000000
_cell_angle_gamma   90.00000000
_symmetry_Int_Tables_number   1
_chemical_formula_structural   Ho11Mg4
_chemical_formula_sum   'Ho22 Mg8'
_cell_volume   1518.50182891
_cell_formula_units_Z   2
loop_
 _symmetry_equiv_pos_site_id
 _symmetry_equiv_pos_as_xyz
  1  'x, y, z'
loop_
 _atom_site_type_symbol
 _atom_site_label
 _atom_site_symmetry_multiplicity
 _atom_site_fract_x
 _atom_site_fract_y
 _atom_site_fract_z
 _atom_site_occupancy
  Ho  Ho0  1  0.00000000  0.50000000  0.25000000  1
  Ho  Ho1  1  0.50000000  0.76087400  0.28846200  1
  Ho  Ho2  1  0.00000000  0.50000000  0.32692300  1
  Ho  Ho3  1  0.50000000  0.23912600  0.28846200  1
  Ho  Ho4  1  0.50000000  0.76087400  0.36538500  1
  Ho  Ho5  1  0.00000000  0.50000000  0.40384600  1
  Ho  Ho6  1  0.50000000  0.23912600  0.36538500  1
  Ho  Ho7  1  0.50000000  0.76087400  0.44230800  1
  Ho  Ho8  1  0.00000000  0.50000000  0.48076900  1
  Ho  Ho9  1  0.50000000  0.23912600  0.44230800  1
  Ho  Ho10  1  0.50000000  0.76087400  0.51923100  1
  Ho  Ho11  1  0.00000000  0.50000000  0.55769200  1
  Ho  Ho12  1  0.50000000  0.23912600  0.51923100  1
  Ho  Ho13  1  0.50000000  0.76087400  0.59615400  1
  Ho  Ho14  1  0.00000000  0.50000000  0.63461500  1
  Ho  Ho15  1  0.50000000  0.23912600  0.59615400  1
  Ho  Ho16  1  0.50000000  0.76087400  0.67307700  1
  Ho  Ho17  1  0.00000000  0.50000000  0.71153800  1
  Ho  Ho18  1  0.50000000  0.23912600  0.67307700  1
  Ho  Ho19  1  0.50000000  0.76087400  0.75000000  1
  Ho  Ho20  1  0.00000000  0.50000000  0.78846200  1
  Ho  Ho21  1  0.50000000  0.23912600  0.75000000  1
  Mg  Mg22  1  0.00000000  0.00000000  0.25000000  1
  Mg  Mg23  1  0.00000000  0.00000000  0.32692300  1
  Mg  Mg24  1  0.00000000  0.00000000  0.40384600  1
  Mg  Mg25  1  0.00000000  0.00000000  0.48076900  1
  Mg  Mg26  1  0.00000000  0.00000000  0.55769200  1
  Mg  Mg27  1  0.00000000  0.00000000  0.63461500  1
  Mg  Mg28  1  0.00000000  0.00000000  0.71153800  1
  Mg  Mg29  1  0.00000000  0.00000000  0.78846200  1
