# generated using pymatgen
data_Mg5Zn9
_symmetry_space_group_name_H-M   'P 1'
_cell_length_a   15.05205970
_cell_length_b   15.53344962
_cell_length_c   44.08704400
_cell_angle_alpha   96.16286714
_cell_angle_beta   84.01794547
_cell_angle_gamma   68.44884142
_symmetry_Int_Tables_number   1
_chemical_formula_structural   Mg5Zn9
_chemical_formula_sum   'Mg100 Zn180'
_cell_volume   9416.24976546
_cell_formula_units_Z   20
loop_
 _symmetry_equiv_pos_site_id
 _symmetry_equiv_pos_as_xyz
  1  'x, y, z'
loop_
 _atom_site_type_symbol
 _atom_site_label
 _atom_site_symmetry_multiplicity
 _atom_site_fract_x
 _atom_site_fract_y
 _atom_site_fract_z
 _atom_site_occupancy
  Mg  Mg0  1  0.78088200  0.13205600  0.23204700  1
  Mg  Mg1  1  0.13415800  0.35149900  0.26509400  1
  Mg  Mg2  1  0.65837300  0.69627700  0.24876400  1
  Mg  Mg3  1  0.95151800  0.11122700  0.26781600  1
  Mg  Mg4  1  0.98858600  0.41711200  0.21943700  1
  Mg  Mg5  1  0.64343000  0.04362500  0.27184900  1
  Mg  Mg6  1  0.77262100  0.47754100  0.25425600  1
  Mg  Mg7  1  0.15723200  0.99752300  0.24127500  1
  Mg  Mg8  1  0.66877000  0.34922300  0.22557700  1
  Mg  Mg9  1  0.12016400  0.69163800  0.28965300  1
  Mg  Mg10  1  0.45037700  0.41247300  0.26032700  1
  Mg  Mg11  1  0.43998000  0.75952800  0.28351400  1
  Mg  Mg12  1  0.10629400  0.18777300  0.29285500  1
  Mg  Mg13  1  0.75881900  0.82605100  0.27739300  1
  Mg  Mg14  1  0.34993100  0.28269900  0.23169800  1
  Mg  Mg15  1  0.33612900  0.63120900  0.25483500  1
  Mg  Mg16  1  0.32786800  0.97669400  0.27704400  1
  Mg  Mg17  1  0.46532000  0.06512500  0.23724200  1
  Mg  Mg18  1  0.97459200  0.75725100  0.24399700  1
  Mg  Mg19  1  0.00245600  0.92097700  0.21623600  1
  Mg  Mg20  1  0.88088200  0.23205600  0.33204700  1
  Mg  Mg21  1  0.23415800  0.45149900  0.36509400  1
  Mg  Mg22  1  0.75837300  0.79627700  0.34876400  1
  Mg  Mg23  1  0.05151800  0.21122700  0.36781600  1
  Mg  Mg24  1  0.08858600  0.51711200  0.31943700  1
  Mg  Mg25  1  0.74343000  0.14362500  0.37184900  1
  Mg  Mg26  1  0.87262100  0.57754100  0.35425600  1
  Mg  Mg27  1  0.25723200  0.09752300  0.34127500  1
  Mg  Mg28  1  0.76877000  0.44922300  0.32557700  1
  Mg  Mg29  1  0.22016400  0.79163800  0.38965300  1
  Mg  Mg30  1  0.55037700  0.51247300  0.36032700  1
  Mg  Mg31  1  0.53998000  0.85952800  0.38351400  1
  Mg  Mg32  1  0.20629400  0.28777300  0.39285500  1
  Mg  Mg33  1  0.85881900  0.92605100  0.37739300  1
  Mg  Mg34  1  0.44993100  0.38269900  0.33169800  1
  Mg  Mg35  1  0.43612900  0.73120900  0.35483500  1
  Mg  Mg36  1  0.42786800  0.07669400  0.37704400  1
  Mg  Mg37  1  0.56532000  0.16512500  0.33724200  1
  Mg  Mg38  1  0.07459200  0.85725100  0.34399700  1
  Mg  Mg39  1  0.10245600  0.02097700  0.31623600  1
  Mg  Mg40  1  0.98088200  0.33205600  0.43204700  1
  Mg  Mg41  1  0.33415800  0.55149900  0.46509400  1
  Mg  Mg42  1  0.85837300  0.89627700  0.44876400  1
  Mg  Mg43  1  0.15151800  0.31122700  0.46781600  1
  Mg  Mg44  1  0.18858600  0.61711200  0.41943700  1
  Mg  Mg45  1  0.84343000  0.24362500  0.47184900  1
  Mg  Mg46  1  0.97262100  0.67754100  0.45425600  1
  Mg  Mg47  1  0.35723200  0.19752300  0.44127500  1
  Mg  Mg48  1  0.86877000  0.54922300  0.42557700  1
  Mg  Mg49  1  0.32016400  0.89163800  0.48965300  1
  Mg  Mg50  1  0.65037700  0.61247300  0.46032700  1
  Mg  Mg51  1  0.63998000  0.95952800  0.48351400  1
  Mg  Mg52  1  0.30629400  0.38777300  0.49285500  1
  Mg  Mg53  1  0.95881900  0.02605100  0.47739300  1
  Mg  Mg54  1  0.54993100  0.48269900  0.43169800  1
  Mg  Mg55  1  0.53612900  0.83120900  0.45483500  1
  Mg  Mg56  1  0.52786800  0.17669400  0.47704400  1
  Mg  Mg57  1  0.66532000  0.26512500  0.43724200  1
  Mg  Mg58  1  0.17459200  0.95725100  0.44399700  1
  Mg  Mg59  1  0.20245600  0.12097700  0.41623600  1
  Mg  Mg60  1  0.08088200  0.43205600  0.53204700  1
  Mg  Mg61  1  0.43415800  0.65149900  0.56509400  1
  Mg  Mg62  1  0.95837300  0.99627700  0.54876400  1
  Mg  Mg63  1  0.25151800  0.41122700  0.56781600  1
  Mg  Mg64  1  0.28858600  0.71711200  0.51943700  1
  Mg  Mg65  1  0.94343000  0.34362500  0.57184900  1
  Mg  Mg66  1  0.07262100  0.77754100  0.55425600  1
  Mg  Mg67  1  0.45723200  0.29752300  0.54127500  1
  Mg  Mg68  1  0.96877000  0.64922300  0.52557700  1
  Mg  Mg69  1  0.42016400  0.99163800  0.58965300  1
  Mg  Mg70  1  0.75037700  0.71247300  0.56032700  1
  Mg  Mg71  1  0.73998000  0.05952800  0.58351400  1
  Mg  Mg72  1  0.40629400  0.48777300  0.59285500  1
  Mg  Mg73  1  0.05881900  0.12605100  0.57739300  1
  Mg  Mg74  1  0.64993100  0.58269900  0.53169800  1
  Mg  Mg75  1  0.63612900  0.93120900  0.55483500  1
  Mg  Mg76  1  0.62786800  0.27669400  0.57704400  1
  Mg  Mg77  1  0.76532000  0.36512500  0.53724200  1
  Mg  Mg78  1  0.27459200  0.05725100  0.54399700  1
  Mg  Mg79  1  0.30245600  0.22097700  0.51623600  1
  Mg  Mg80  1  0.18088200  0.53205600  0.63204700  1
  Mg  Mg81  1  0.53415800  0.75149900  0.66509400  1
  Mg  Mg82  1  0.05837300  0.09627700  0.64876400  1
  Mg  Mg83  1  0.35151800  0.51122700  0.66781600  1
  Mg  Mg84  1  0.38858600  0.81711200  0.61943700  1
  Mg  Mg85  1  0.04343000  0.44362500  0.67184900  1
  Mg  Mg86  1  0.17262100  0.87754100  0.65425600  1
  Mg  Mg87  1  0.55723200  0.39752300  0.64127500  1
  Mg  Mg88  1  0.06877000  0.74922300  0.62557700  1
  Mg  Mg89  1  0.52016400  0.09163800  0.68965300  1
  Mg  Mg90  1  0.85037700  0.81247300  0.66032700  1
  Mg  Mg91  1  0.83998000  0.15952800  0.68351400  1
  Mg  Mg92  1  0.50629400  0.58777300  0.69285500  1
  Mg  Mg93  1  0.15881900  0.22605100  0.67739300  1
  Mg  Mg94  1  0.74993100  0.68269900  0.63169800  1
  Mg  Mg95  1  0.73612900  0.03120900  0.65483500  1
  Mg  Mg96  1  0.72786800  0.37669400  0.67704400  1
  Mg  Mg97  1  0.86532000  0.46512500  0.63724200  1
  Mg  Mg98  1  0.37459200  0.15725100  0.64399700  1
  Mg  Mg99  1  0.40245600  0.32097700  0.61623600  1
  Zn  Zn100  1  0.93501800  0.49352300  0.28598400  1
  Zn  Zn101  1  0.06643500  0.21329000  0.23084800  1
  Zn  Zn102  1  0.60756200  0.43112100  0.29414400  1
  Zn  Zn103  1  0.17716700  0.78412500  0.23260600  1
  Zn  Zn104  1  0.18834800  0.43301800  0.20995300  1
  Zn  Zn105  1  0.88458300  0.27475400  0.22539300  1
  Zn  Zn106  1  0.55437500  0.55437500  0.25454500  1
  Zn  Zn107  1  0.17373200  0.61522700  0.22310700  1
  Zn  Zn108  1  0.45946900  0.22159500  0.28467200  1
  Zn  Zn109  1  0.86943000  0.62524900  0.24854200  1
  Zn  Zn110  1  0.61272400  0.25737400  0.28202100  1
  Zn  Zn111  1  0.66059800  0.03858900  0.20195600  1
  Zn  Zn112  1  0.66455700  0.53521600  0.20178600  1
  Zn  Zn113  1  0.81918400  0.74274300  0.21053600  1
  Zn  Zn114  1  0.04231500  0.89546000  0.27824300  1
  Zn  Zn115  1  0.64928100  0.88715500  0.22441900  1
  Zn  Zn116  1  0.81030800  0.92235500  0.22218200  1
  Zn  Zn117  1  0.23932000  0.48350100  0.26054900  1
  Zn  Zn118  1  0.22416700  0.83399600  0.28369800  1
  Zn  Zn119  1  0.34419300  0.47353400  0.20730500  1
  Zn  Zn120  1  0.29844200  0.18639500  0.28690900  1
  Zn  Zn121  1  0.92040300  0.67573200  0.29913800  1
  Zn  Zn122  1  0.50437500  0.50437500  0.20454500  1
  Zn  Zn123  1  0.77483000  0.29316700  0.27787500  1
  Zn  Zn124  1  0.56190400  0.20753300  0.23270600  1
  Zn  Zn125  1  0.86103100  0.97225500  0.27026400  1
  Zn  Zn126  1  0.33392000  0.81558300  0.23121500  1
  Zn  Zn127  1  0.24771900  0.13649500  0.23882700  1
  Zn  Zn128  1  0.28956600  0.36600800  0.29855500  1
  Zn  Zn129  1  0.54684600  0.90121700  0.27638500  1
  Zn  Zn130  1  0.93158300  0.32462500  0.27648500  1
  Zn  Zn131  1  0.05437500  0.55437500  0.25454500  1
  Zn  Zn132  1  0.49602600  0.85137600  0.22707000  1
  Zn  Zn133  1  0.34815200  0.97016100  0.20713500  1
  Zn  Zn134  1  0.50118800  0.67762900  0.21494700  1
  Zn  Zn135  1  0.03501800  0.59352300  0.38598400  1
  Zn  Zn136  1  0.16643500  0.31329000  0.33084800  1
  Zn  Zn137  1  0.70756200  0.53112100  0.39414400  1
  Zn  Zn138  1  0.27716700  0.88412500  0.33260600  1
  Zn  Zn139  1  0.28834800  0.53301800  0.30995300  1
  Zn  Zn140  1  0.98458300  0.37475400  0.32539300  1
  Zn  Zn141  1  0.65437500  0.65437500  0.35454500  1
  Zn  Zn142  1  0.27373200  0.71522700  0.32310700  1
  Zn  Zn143  1  0.55946900  0.32159500  0.38467200  1
  Zn  Zn144  1  0.96943000  0.72524900  0.34854200  1
  Zn  Zn145  1  0.71272400  0.35737400  0.38202100  1
  Zn  Zn146  1  0.76059800  0.13858900  0.30195600  1
  Zn  Zn147  1  0.76455700  0.63521600  0.30178600  1
  Zn  Zn148  1  0.91918400  0.84274300  0.31053600  1
  Zn  Zn149  1  0.14231500  0.99546000  0.37824300  1
  Zn  Zn150  1  0.74928100  0.98715500  0.32441900  1
  Zn  Zn151  1  0.91030800  0.02235500  0.32218200  1
  Zn  Zn152  1  0.33932000  0.58350100  0.36054900  1
  Zn  Zn153  1  0.32416700  0.93399600  0.38369800  1
  Zn  Zn154  1  0.44419300  0.57353400  0.30730500  1
  Zn  Zn155  1  0.39844200  0.28639500  0.38690900  1
  Zn  Zn156  1  0.02040300  0.77573200  0.39913800  1
  Zn  Zn157  1  0.60437500  0.60437500  0.30454500  1
  Zn  Zn158  1  0.87483000  0.39316700  0.37787500  1
  Zn  Zn159  1  0.66190400  0.30753300  0.33270600  1
  Zn  Zn160  1  0.96103100  0.07225500  0.37026400  1
  Zn  Zn161  1  0.43392000  0.91558300  0.33121500  1
  Zn  Zn162  1  0.34771900  0.23649500  0.33882700  1
  Zn  Zn163  1  0.38956600  0.46600800  0.39855500  1
  Zn  Zn164  1  0.64684600  0.00121700  0.37638500  1
  Zn  Zn165  1  0.03158300  0.42462500  0.37648500  1
  Zn  Zn166  1  0.15437500  0.65437500  0.35454500  1
  Zn  Zn167  1  0.59602600  0.95137600  0.32707000  1
  Zn  Zn168  1  0.44815200  0.07016100  0.30713500  1
  Zn  Zn169  1  0.60118800  0.77762900  0.31494700  1
  Zn  Zn170  1  0.13501800  0.69352300  0.48598400  1
  Zn  Zn171  1  0.26643500  0.41329000  0.43084800  1
  Zn  Zn172  1  0.80756200  0.63112100  0.49414400  1
  Zn  Zn173  1  0.37716700  0.98412500  0.43260600  1
  Zn  Zn174  1  0.38834800  0.63301800  0.40995300  1
  Zn  Zn175  1  0.08458300  0.47475400  0.42539300  1
  Zn  Zn176  1  0.75437500  0.75437500  0.45454500  1
  Zn  Zn177  1  0.37373200  0.81522700  0.42310700  1
  Zn  Zn178  1  0.65946900  0.42159500  0.48467200  1
  Zn  Zn179  1  0.06943000  0.82524900  0.44854200  1
  Zn  Zn180  1  0.81272400  0.45737400  0.48202100  1
  Zn  Zn181  1  0.86059800  0.23858900  0.40195600  1
  Zn  Zn182  1  0.86455700  0.73521600  0.40178600  1
  Zn  Zn183  1  0.01918400  0.94274300  0.41053600  1
  Zn  Zn184  1  0.24231500  0.09546000  0.47824300  1
  Zn  Zn185  1  0.84928100  0.08715500  0.42441900  1
  Zn  Zn186  1  0.01030800  0.12235500  0.42218200  1
  Zn  Zn187  1  0.43932000  0.68350100  0.46054900  1
  Zn  Zn188  1  0.42416700  0.03399600  0.48369800  1
  Zn  Zn189  1  0.54419300  0.67353400  0.40730500  1
  Zn  Zn190  1  0.49844200  0.38639500  0.48690900  1
  Zn  Zn191  1  0.12040300  0.87573200  0.49913800  1
  Zn  Zn192  1  0.70437500  0.70437500  0.40454500  1
  Zn  Zn193  1  0.97483000  0.49316700  0.47787500  1
  Zn  Zn194  1  0.76190400  0.40753300  0.43270600  1
  Zn  Zn195  1  0.06103100  0.17225500  0.47026400  1
  Zn  Zn196  1  0.53392000  0.01558300  0.43121500  1
  Zn  Zn197  1  0.44771900  0.33649500  0.43882700  1
  Zn  Zn198  1  0.48956600  0.56600800  0.49855500  1
  Zn  Zn199  1  0.74684600  0.10121700  0.47638500  1
  Zn  Zn200  1  0.13158300  0.52462500  0.47648500  1
  Zn  Zn201  1  0.25437500  0.75437500  0.45454500  1
  Zn  Zn202  1  0.69602600  0.05137600  0.42707000  1
  Zn  Zn203  1  0.54815200  0.17016100  0.40713500  1
  Zn  Zn204  1  0.70118800  0.87762900  0.41494700  1
  Zn  Zn205  1  0.23501800  0.79352300  0.58598400  1
  Zn  Zn206  1  0.36643500  0.51329000  0.53084800  1
  Zn  Zn207  1  0.90756200  0.73112100  0.59414400  1
  Zn  Zn208  1  0.47716700  0.08412500  0.53260600  1
  Zn  Zn209  1  0.48834800  0.73301800  0.50995300  1
  Zn  Zn210  1  0.18458300  0.57475400  0.52539300  1
  Zn  Zn211  1  0.85437500  0.85437500  0.55454500  1
  Zn  Zn212  1  0.47373200  0.91522700  0.52310700  1
  Zn  Zn213  1  0.75946900  0.52159500  0.58467200  1
  Zn  Zn214  1  0.16943000  0.92524900  0.54854200  1
  Zn  Zn215  1  0.91272400  0.55737400  0.58202100  1
  Zn  Zn216  1  0.96059800  0.33858900  0.50195600  1
  Zn  Zn217  1  0.96455700  0.83521600  0.50178600  1
  Zn  Zn218  1  0.11918400  0.04274300  0.51053600  1
  Zn  Zn219  1  0.34231500  0.19546000  0.57824300  1
  Zn  Zn220  1  0.94928100  0.18715500  0.52441900  1
  Zn  Zn221  1  0.11030800  0.22235500  0.52218200  1
  Zn  Zn222  1  0.53932000  0.78350100  0.56054900  1
  Zn  Zn223  1  0.52416700  0.13399600  0.58369800  1
  Zn  Zn224  1  0.64419300  0.77353400  0.50730500  1
  Zn  Zn225  1  0.59844200  0.48639500  0.58690900  1
  Zn  Zn226  1  0.22040300  0.97573200  0.59913800  1
  Zn  Zn227  1  0.80437500  0.80437500  0.50454500  1
  Zn  Zn228  1  0.07483000  0.59316700  0.57787500  1
  Zn  Zn229  1  0.86190400  0.50753300  0.53270600  1
  Zn  Zn230  1  0.16103100  0.27225500  0.57026400  1
  Zn  Zn231  1  0.63392000  0.11558300  0.53121500  1
  Zn  Zn232  1  0.54771900  0.43649500  0.53882700  1
  Zn  Zn233  1  0.58956600  0.66600800  0.59855500  1
  Zn  Zn234  1  0.84684600  0.20121700  0.57638500  1
  Zn  Zn235  1  0.23158300  0.62462500  0.57648500  1
  Zn  Zn236  1  0.35437500  0.85437500  0.55454500  1
  Zn  Zn237  1  0.79602600  0.15137600  0.52707000  1
  Zn  Zn238  1  0.64815200  0.27016100  0.50713500  1
  Zn  Zn239  1  0.80118800  0.97762900  0.51494700  1
  Zn  Zn240  1  0.33501800  0.89352300  0.68598400  1
  Zn  Zn241  1  0.46643500  0.61329000  0.63084800  1
  Zn  Zn242  1  0.00756200  0.83112100  0.69414400  1
  Zn  Zn243  1  0.57716700  0.18412500  0.63260600  1
  Zn  Zn244  1  0.58834800  0.83301800  0.60995300  1
  Zn  Zn245  1  0.28458300  0.67475400  0.62539300  1
  Zn  Zn246  1  0.95437500  0.95437500  0.65454500  1
  Zn  Zn247  1  0.57373200  0.01522700  0.62310700  1
  Zn  Zn248  1  0.85946900  0.62159500  0.68467200  1
  Zn  Zn249  1  0.26943000  0.02524900  0.64854200  1
  Zn  Zn250  1  0.01272400  0.65737400  0.68202100  1
  Zn  Zn251  1  0.06059800  0.43858900  0.60195600  1
  Zn  Zn252  1  0.06455700  0.93521600  0.60178600  1
  Zn  Zn253  1  0.21918400  0.14274300  0.61053600  1
  Zn  Zn254  1  0.44231500  0.29546000  0.67824300  1
  Zn  Zn255  1  0.04928100  0.28715500  0.62441900  1
  Zn  Zn256  1  0.21030800  0.32235500  0.62218200  1
  Zn  Zn257  1  0.63932000  0.88350100  0.66054900  1
  Zn  Zn258  1  0.62416700  0.23399600  0.68369800  1
  Zn  Zn259  1  0.74419300  0.87353400  0.60730500  1
  Zn  Zn260  1  0.69844200  0.58639500  0.68690900  1
  Zn  Zn261  1  0.32040300  0.07573200  0.69913800  1
  Zn  Zn262  1  0.90437500  0.90437500  0.60454500  1
  Zn  Zn263  1  0.17483000  0.69316700  0.67787500  1
  Zn  Zn264  1  0.96190400  0.60753300  0.63270600  1
  Zn  Zn265  1  0.26103100  0.37225500  0.67026400  1
  Zn  Zn266  1  0.73392000  0.21558300  0.63121500  1
  Zn  Zn267  1  0.64771900  0.53649500  0.63882700  1
  Zn  Zn268  1  0.68956600  0.76600800  0.69855500  1
  Zn  Zn269  1  0.94684600  0.30121700  0.67638500  1
  Zn  Zn270  1  0.33158300  0.72462500  0.67648500  1
  Zn  Zn271  1  0.45437500  0.95437500  0.65454500  1
  Zn  Zn272  1  0.89602600  0.25137600  0.62707000  1
  Zn  Zn273  1  0.74815200  0.37016100  0.60713500  1
  Zn  Zn274  1  0.90118800  0.07762900  0.61494700  1
  Zn  Zn275  1  0.16059800  0.53858900  0.70195600  1
  Zn  Zn276  1  0.16455700  0.03521600  0.70178600  1
  Zn  Zn277  1  0.84419300  0.97353400  0.70730500  1
  Zn  Zn278  1  0.00437500  0.00437500  0.70454500  1
  Zn  Zn279  1  0.84815200  0.47016100  0.70713500  1
