# generated using pymatgen
data_Dy22Mg7
_symmetry_space_group_name_H-M   'P 1'
_cell_length_a   3.55906300
_cell_length_b   10.01189404
_cell_length_c   43.39335100
_cell_angle_alpha   85.27249872
_cell_angle_beta   90.00000000
_cell_angle_gamma   90.00000000
_symmetry_Int_Tables_number   1
_chemical_formula_structural   Dy22Mg7
_chemical_formula_sum   'Dy22 Mg7'
_cell_volume   1540.97323574
_cell_formula_units_Z   1
loop_
 _symmetry_equiv_pos_site_id
 _symmetry_equiv_pos_as_xyz
  1  'x, y, z'
loop_
 _atom_site_type_symbol
 _atom_site_label
 _atom_site_symmetry_multiplicity
 _atom_site_fract_x
 _atom_site_fract_y
 _atom_site_fract_z
 _atom_site_occupancy
  Dy  Dy0  1  0.50000000  0.62610500  0.26050900  1
  Dy  Dy1  1  0.00000000  0.48166300  0.20192300  1
  Dy  Dy2  1  0.50000000  0.18337400  0.22026100  1
  Dy  Dy3  1  0.50000000  0.47225900  0.33743200  1
  Dy  Dy4  1  0.00000000  0.32781600  0.27884600  1
  Dy  Dy5  1  0.50000000  0.02952800  0.29718400  1
  Dy  Dy6  1  0.50000000  0.31841200  0.41435500  1
  Dy  Dy7  1  0.00000000  0.17397000  0.35576900  1
  Dy  Dy8  1  0.50000000  0.87568200  0.37410700  1
  Dy  Dy9  1  0.50000000  0.16456600  0.49127800  1
  Dy  Dy10  1  1.00000000  0.02012400  0.43269200  1
  Dy  Dy11  1  0.50000000  0.72183600  0.45103000  1
  Dy  Dy12  1  0.50000000  0.01072000  0.56820100  1
  Dy  Dy13  1  1.00000000  0.86627800  0.50961500  1
  Dy  Dy14  1  0.50000000  0.56799000  0.52795300  1
  Dy  Dy15  1  0.50000000  0.85687400  0.64512400  1
  Dy  Dy16  1  0.00000000  0.71243200  0.58653800  1
  Dy  Dy17  1  0.50000000  0.41414300  0.60487600  1
  Dy  Dy18  1  0.50000000  0.70302800  0.72204700  1
  Dy  Dy19  1  0.00000000  0.55858600  0.66346200  1
  Dy  Dy20  1  0.50000000  0.26029700  0.68179900  1
  Dy  Dy21  1  0.00000000  0.40473900  0.74038500  1
  Mg  Mg22  1  0.00000000  0.90473900  0.24038500  1
  Mg  Mg23  1  0.00000000  0.75089300  0.31730800  1
  Mg  Mg24  1  0.00000000  0.59704700  0.39423100  1
  Mg  Mg25  1  1.00000000  0.44320100  0.47115400  1
  Mg  Mg26  1  1.00000000  0.28935500  0.54807700  1
  Mg  Mg27  1  0.00000000  0.13550900  0.62500000  1
  Mg  Mg28  1  0.00000000  0.98166300  0.70192300  1
