# generated using pymatgen
data_Ce2Mg
_symmetry_space_group_name_H-M   'P 1'
_cell_length_a   5.24483100
_cell_length_b   18.51676600
_cell_length_c   41.07812700
_cell_angle_alpha   90.00000000
_cell_angle_beta   90.00000000
_cell_angle_gamma   90.00000000
_symmetry_Int_Tables_number   1
_chemical_formula_structural   Ce2Mg
_chemical_formula_sum   'Ce64 Mg32'
_cell_volume   3989.39712575
_cell_formula_units_Z   32
loop_
 _symmetry_equiv_pos_site_id
 _symmetry_equiv_pos_as_xyz
  1  'x, y, z'
loop_
 _atom_site_type_symbol
 _atom_site_label
 _atom_site_symmetry_multiplicity
 _atom_site_fract_x
 _atom_site_fract_y
 _atom_site_fract_z
 _atom_site_occupancy
  Ce  Ce0  1  0.25000000  0.87022800  0.25000000  1
  Ce  Ce1  1  0.25000000  0.70306500  0.21153800  1
  Ce  Ce2  1  0.75000000  0.79693500  0.25000000  1
  Ce  Ce3  1  0.75000000  0.62977200  0.21153800  1
  Ce  Ce4  1  0.25000000  0.37022800  0.21153800  1
  Ce  Ce5  1  0.25000000  0.20306500  0.25000000  1
  Ce  Ce6  1  0.75000000  0.29693500  0.21153800  1
  Ce  Ce7  1  0.75000000  0.12977200  0.25000000  1
  Ce  Ce8  1  0.25000000  0.87022800  0.32692300  1
  Ce  Ce9  1  0.25000000  0.70306500  0.28846200  1
  Ce  Ce10  1  0.75000000  0.79693500  0.32692300  1
  Ce  Ce11  1  0.75000000  0.62977200  0.28846200  1
  Ce  Ce12  1  0.25000000  0.37022800  0.28846200  1
  Ce  Ce13  1  0.25000000  0.20306500  0.32692300  1
  Ce  Ce14  1  0.75000000  0.29693500  0.28846200  1
  Ce  Ce15  1  0.75000000  0.12977200  0.32692300  1
  Ce  Ce16  1  0.25000000  0.87022800  0.40384600  1
  Ce  Ce17  1  0.25000000  0.70306500  0.36538500  1
  Ce  Ce18  1  0.75000000  0.79693500  0.40384600  1
  Ce  Ce19  1  0.75000000  0.62977200  0.36538500  1
  Ce  Ce20  1  0.25000000  0.37022800  0.36538500  1
  Ce  Ce21  1  0.25000000  0.20306500  0.40384600  1
  Ce  Ce22  1  0.75000000  0.29693500  0.36538500  1
  Ce  Ce23  1  0.75000000  0.12977200  0.40384600  1
  Ce  Ce24  1  0.25000000  0.87022800  0.48076900  1
  Ce  Ce25  1  0.25000000  0.70306500  0.44230800  1
  Ce  Ce26  1  0.75000000  0.79693500  0.48076900  1
  Ce  Ce27  1  0.75000000  0.62977200  0.44230800  1
  Ce  Ce28  1  0.25000000  0.37022800  0.44230800  1
  Ce  Ce29  1  0.25000000  0.20306500  0.48076900  1
  Ce  Ce30  1  0.75000000  0.29693500  0.44230800  1
  Ce  Ce31  1  0.75000000  0.12977200  0.48076900  1
  Ce  Ce32  1  0.25000000  0.87022800  0.55769200  1
  Ce  Ce33  1  0.25000000  0.70306500  0.51923100  1
  Ce  Ce34  1  0.75000000  0.79693500  0.55769200  1
  Ce  Ce35  1  0.75000000  0.62977200  0.51923100  1
  Ce  Ce36  1  0.25000000  0.37022800  0.51923100  1
  Ce  Ce37  1  0.25000000  0.20306500  0.55769200  1
  Ce  Ce38  1  0.75000000  0.29693500  0.51923100  1
  Ce  Ce39  1  0.75000000  0.12977200  0.55769200  1
  Ce  Ce40  1  0.25000000  0.87022800  0.63461500  1
  Ce  Ce41  1  0.25000000  0.70306500  0.59615400  1
  Ce  Ce42  1  0.75000000  0.79693500  0.63461500  1
  Ce  Ce43  1  0.75000000  0.62977200  0.59615400  1
  Ce  Ce44  1  0.25000000  0.37022800  0.59615400  1
  Ce  Ce45  1  0.25000000  0.20306500  0.63461500  1
  Ce  Ce46  1  0.75000000  0.29693500  0.59615400  1
  Ce  Ce47  1  0.75000000  0.12977200  0.63461500  1
  Ce  Ce48  1  0.25000000  0.87022800  0.71153800  1
  Ce  Ce49  1  0.25000000  0.70306500  0.67307700  1
  Ce  Ce50  1  0.75000000  0.79693500  0.71153800  1
  Ce  Ce51  1  0.75000000  0.62977200  0.67307700  1
  Ce  Ce52  1  0.25000000  0.37022800  0.67307700  1
  Ce  Ce53  1  0.25000000  0.20306500  0.71153800  1
  Ce  Ce54  1  0.75000000  0.29693500  0.67307700  1
  Ce  Ce55  1  0.75000000  0.12977200  0.71153800  1
  Ce  Ce56  1  0.25000000  0.87022800  0.78846200  1
  Ce  Ce57  1  0.25000000  0.70306500  0.75000000  1
  Ce  Ce58  1  0.75000000  0.79693500  0.78846200  1
  Ce  Ce59  1  0.75000000  0.62977200  0.75000000  1
  Ce  Ce60  1  0.25000000  0.37022800  0.75000000  1
  Ce  Ce61  1  0.25000000  0.20306500  0.78846200  1
  Ce  Ce62  1  0.75000000  0.29693500  0.75000000  1
  Ce  Ce63  1  0.75000000  0.12977200  0.78846200  1
  Mg  Mg64  1  0.25000000  0.54096300  0.25000000  1
  Mg  Mg65  1  0.75000000  0.95903700  0.21153800  1
  Mg  Mg66  1  0.25000000  0.04096300  0.21153800  1
  Mg  Mg67  1  0.75000000  0.45903700  0.25000000  1
  Mg  Mg68  1  0.25000000  0.54096300  0.32692300  1
  Mg  Mg69  1  0.75000000  0.95903700  0.28846200  1
  Mg  Mg70  1  0.25000000  0.04096300  0.28846200  1
  Mg  Mg71  1  0.75000000  0.45903700  0.32692300  1
  Mg  Mg72  1  0.25000000  0.54096300  0.40384600  1
  Mg  Mg73  1  0.75000000  0.95903700  0.36538500  1
  Mg  Mg74  1  0.25000000  0.04096300  0.36538500  1
  Mg  Mg75  1  0.75000000  0.45903700  0.40384600  1
  Mg  Mg76  1  0.25000000  0.54096300  0.48076900  1
  Mg  Mg77  1  0.75000000  0.95903700  0.44230800  1
  Mg  Mg78  1  0.25000000  0.04096300  0.44230800  1
  Mg  Mg79  1  0.75000000  0.45903700  0.48076900  1
  Mg  Mg80  1  0.25000000  0.54096300  0.55769200  1
  Mg  Mg81  1  0.75000000  0.95903700  0.51923100  1
  Mg  Mg82  1  0.25000000  0.04096300  0.51923100  1
  Mg  Mg83  1  0.75000000  0.45903700  0.55769200  1
  Mg  Mg84  1  0.25000000  0.54096300  0.63461500  1
  Mg  Mg85  1  0.75000000  0.95903700  0.59615400  1
  Mg  Mg86  1  0.25000000  0.04096300  0.59615400  1
  Mg  Mg87  1  0.75000000  0.45903700  0.63461500  1
  Mg  Mg88  1  0.25000000  0.54096300  0.71153800  1
  Mg  Mg89  1  0.75000000  0.95903700  0.67307700  1
  Mg  Mg90  1  0.25000000  0.04096300  0.67307700  1
  Mg  Mg91  1  0.75000000  0.45903700  0.71153800  1
  Mg  Mg92  1  0.25000000  0.54096300  0.78846200  1
  Mg  Mg93  1  0.75000000  0.95903700  0.75000000  1
  Mg  Mg94  1  0.25000000  0.04096300  0.75000000  1
  Mg  Mg95  1  0.75000000  0.45903700  0.78846200  1
