# generated using pymatgen
data_Ba16Mg35
_symmetry_space_group_name_H-M   'P 1'
_cell_length_a   6.58888000
_cell_length_b   12.70238114
_cell_length_c   40.54514400
_cell_angle_alpha   85.48813798
_cell_angle_beta   90.00000000
_cell_angle_gamma   74.96814132
_symmetry_Int_Tables_number   1
_chemical_formula_structural   Ba16Mg35
_chemical_formula_sum   'Ba16 Mg35'
_cell_volume   3266.39809970
_cell_formula_units_Z   1
loop_
 _symmetry_equiv_pos_site_id
 _symmetry_equiv_pos_as_xyz
  1  'x, y, z'
loop_
 _atom_site_type_symbol
 _atom_site_label
 _atom_site_symmetry_multiplicity
 _atom_site_fract_x
 _atom_site_fract_y
 _atom_site_fract_z
 _atom_site_occupancy
  Ba  Ba0  1  0.25792300  0.89138900  0.21666600  1
  Ba  Ba1  1  0.52875600  0.34972300  0.23750000  1
  Ba  Ba2  1  0.29750300  0.81222900  0.31458400  1
  Ba  Ba3  1  0.02667000  0.35389500  0.29375000  1
  Ba  Ba4  1  0.88292300  0.64138900  0.34166600  1
  Ba  Ba5  1  0.15375600  0.09972300  0.36250000  1
  Ba  Ba6  1  0.92250300  0.56222900  0.43958400  1
  Ba  Ba7  1  0.65167000  0.10389500  0.41875000  1
  Ba  Ba8  1  0.50792300  0.39138900  0.46666600  1
  Ba  Ba9  1  0.77875600  0.84972300  0.48750000  1
  Ba  Ba10  1  0.54750300  0.31222900  0.56458400  1
  Ba  Ba11  1  0.27667000  0.85389500  0.54375000  1
  Ba  Ba12  1  0.13292300  0.14138900  0.59166600  1
  Ba  Ba13  1  0.40375600  0.59972300  0.61250000  1
  Ba  Ba14  1  0.17250300  0.06222900  0.68958400  1
  Ba  Ba15  1  0.90167000  0.60389500  0.66875000  1
  Mg  Mg16  1  0.09986300  0.20750900  0.21277500  1
  Mg  Mg17  1  0.13731300  0.62340900  0.25482500  1
  Mg  Mg18  1  0.64651400  0.62340900  0.25482500  1
  Mg  Mg19  1  0.90891300  0.08020900  0.27642500  1
  Mg  Mg20  1  0.96521300  0.47680900  0.20312500  1
  Mg  Mg21  1  0.77771300  0.85180900  0.26562500  1
  Mg  Mg22  1  0.83056300  0.74610900  0.19347500  1
  Mg  Mg23  1  0.41811400  0.08020900  0.27642500  1
  Mg  Mg24  1  0.72486300  0.95750900  0.33777500  1
  Mg  Mg25  1  0.76231300  0.37340900  0.37982500  1
  Mg  Mg26  1  0.27151400  0.37340900  0.37982500  1
  Mg  Mg27  1  0.53391300  0.83020900  0.40142500  1
  Mg  Mg28  1  0.59021300  0.22680900  0.32812500  1
  Mg  Mg29  1  0.40271300  0.60180900  0.39062500  1
  Mg  Mg30  1  0.45556300  0.49610900  0.31847500  1
  Mg  Mg31  1  0.04311400  0.83020900  0.40142500  1
  Mg  Mg32  1  0.34986300  0.70750900  0.46277500  1
  Mg  Mg33  1  0.38731300  0.12340900  0.50482500  1
  Mg  Mg34  1  0.89651400  0.12340900  0.50482500  1
  Mg  Mg35  1  0.15891300  0.58020900  0.52642500  1
  Mg  Mg36  1  0.21521300  0.97680900  0.45312500  1
  Mg  Mg37  1  0.02771300  0.35180900  0.51562500  1
  Mg  Mg38  1  0.08056300  0.24610900  0.44347500  1
  Mg  Mg39  1  0.66811400  0.58020900  0.52642500  1
  Mg  Mg40  1  0.97486300  0.45750900  0.58777500  1
  Mg  Mg41  1  0.01231300  0.87340900  0.62982500  1
  Mg  Mg42  1  0.52151400  0.87340900  0.62982500  1
  Mg  Mg43  1  0.78391300  0.33020900  0.65142500  1
  Mg  Mg44  1  0.84021300  0.72680900  0.57812500  1
  Mg  Mg45  1  0.65271300  0.10180900  0.64062500  1
  Mg  Mg46  1  0.70556300  0.99610900  0.56847500  1
  Mg  Mg47  1  0.29311400  0.33020900  0.65142500  1
  Mg  Mg48  1  0.59986300  0.20750900  0.71277500  1
  Mg  Mg49  1  0.46521300  0.47680900  0.70312500  1
  Mg  Mg50  1  0.33056300  0.74610900  0.69347500  1
