# generated using pymatgen
data_Pm2Mg
_symmetry_space_group_name_H-M   'P 1'
_cell_length_a   3.81728300
_cell_length_b   5.62611600
_cell_length_c   52.19210500
_cell_angle_alpha   90.00000000
_cell_angle_beta   90.00000000
_cell_angle_gamma   90.00000000
_symmetry_Int_Tables_number   1
_chemical_formula_structural   Pm2Mg
_chemical_formula_sum   'Pm16 Mg8'
_cell_volume   1120.90254067
_cell_formula_units_Z   8
loop_
 _symmetry_equiv_pos_site_id
 _symmetry_equiv_pos_as_xyz
  1  'x, y, z'
loop_
 _atom_site_type_symbol
 _atom_site_label
 _atom_site_symmetry_multiplicity
 _atom_site_fract_x
 _atom_site_fract_y
 _atom_site_fract_z
 _atom_site_occupancy
  Pm  Pm0  1  1.00000000  0.75000000  0.19606200  1
  Pm  Pm1  1  0.50000000  0.75000000  0.25669400  1
  Pm  Pm2  1  0.50000000  0.25000000  0.30393800  1
  Pm  Pm3  1  0.00000000  0.25000000  0.24330600  1
  Pm  Pm4  1  0.50000000  0.75000000  0.36272900  1
  Pm  Pm5  1  0.00000000  0.75000000  0.42336100  1
  Pm  Pm6  1  0.00000000  0.25000000  0.47060500  1
  Pm  Pm7  1  0.50000000  0.25000000  0.40997200  1
  Pm  Pm8  1  0.00000000  0.75000000  0.52939500  1
  Pm  Pm9  1  0.50000000  0.75000000  0.59002800  1
  Pm  Pm10  1  0.50000000  0.25000000  0.63727100  1
  Pm  Pm11  1  0.00000000  0.25000000  0.57663900  1
  Pm  Pm12  1  0.50000000  0.75000000  0.69606200  1
  Pm  Pm13  1  0.00000000  0.75000000  0.75669400  1
  Pm  Pm14  1  1.00000000  0.25000000  0.80393800  1
  Pm  Pm15  1  0.50000000  0.25000000  0.74330600  1
  Mg  Mg16  1  0.00000000  0.75000000  0.31026800  1
  Mg  Mg17  1  0.50000000  0.25000000  0.18973200  1
  Mg  Mg18  1  0.50000000  0.75000000  0.47693400  1
  Mg  Mg19  1  1.00000000  0.25000000  0.35639900  1
  Mg  Mg20  1  0.00000000  0.75000000  0.64360100  1
  Mg  Mg21  1  0.50000000  0.25000000  0.52306600  1
  Mg  Mg22  1  0.50000000  0.75000000  0.81026800  1
  Mg  Mg23  1  0.00000000  0.25000000  0.68973200  1
