# generated using pymatgen
data_Mg37Pd63
_symmetry_space_group_name_H-M   'P 1'
_cell_length_a   5.51609600
_cell_length_b   11.53452198
_cell_length_c   44.28962500
_cell_angle_alpha   83.04139460
_cell_angle_beta   90.00000000
_cell_angle_gamma   90.00000000
_symmetry_Int_Tables_number   1
_chemical_formula_structural   Mg37Pd63
_chemical_formula_sum   'Mg37 Pd63'
_cell_volume   2797.19369366
_cell_formula_units_Z   1
loop_
 _symmetry_equiv_pos_site_id
 _symmetry_equiv_pos_as_xyz
  1  'x, y, z'
loop_
 _atom_site_type_symbol
 _atom_site_label
 _atom_site_symmetry_multiplicity
 _atom_site_fract_x
 _atom_site_fract_y
 _atom_site_fract_z
 _atom_site_occupancy
  Mg  Mg0  1  0.50000000  0.84078300  0.26136400  1
  Mg  Mg1  1  0.00000000  0.24987400  0.30681800  1
  Mg  Mg2  1  0.50000000  0.65896400  0.35227300  1
  Mg  Mg3  1  0.16115000  0.86234600  0.31931500  1
  Mg  Mg4  1  0.83885000  0.63740100  0.29432100  1
  Mg  Mg5  1  0.33885000  0.45325500  0.27386100  1
  Mg  Mg6  1  0.66115000  0.04649200  0.33977600  1
  Mg  Mg7  1  0.00000000  0.06805500  0.39772700  1
  Mg  Mg8  1  0.50000000  0.47714600  0.44318200  1
  Mg  Mg9  1  0.16115000  0.68052800  0.41022400  1
  Mg  Mg10  1  0.83885000  0.45558300  0.38523000  1
  Mg  Mg11  1  0.33885000  0.27143700  0.36477000  1
  Mg  Mg12  1  0.66115000  0.86467400  0.43068500  1
  Mg  Mg13  1  0.00000000  0.88623700  0.48863600  1
  Mg  Mg14  1  0.50000000  0.29532800  0.53409100  1
  Mg  Mg15  1  0.16115000  0.49871000  0.50113300  1
  Mg  Mg16  1  0.83885000  0.27376500  0.47613900  1
  Mg  Mg17  1  0.33885000  0.08961900  0.45567900  1
  Mg  Mg18  1  0.66115000  0.68285600  0.52159400  1
  Mg  Mg19  1  0.00000000  0.70441900  0.57954500  1
  Mg  Mg20  1  0.50000000  0.11351000  0.62500000  1
  Mg  Mg21  1  0.16115000  0.31689200  0.59204200  1
  Mg  Mg22  1  0.83885000  0.09194700  0.56704900  1
  Mg  Mg23  1  0.33885000  0.90780100  0.54658800  1
  Mg  Mg24  1  0.66115000  0.50103700  0.61250300  1
  Mg  Mg25  1  0.00000000  0.52260100  0.67045500  1
  Mg  Mg26  1  0.50000000  0.93169200  0.71590900  1
  Mg  Mg27  1  0.16115000  0.13507300  0.68295100  1
  Mg  Mg28  1  0.83885000  0.91012800  0.65795800  1
  Mg  Mg29  1  0.33885000  0.72598200  0.63749700  1
  Mg  Mg30  1  0.66115000  0.31921900  0.70341200  1
  Mg  Mg31  1  0.00000000  0.34078300  0.76136400  1
  Mg  Mg32  1  0.50000000  0.74987400  0.80681800  1
  Mg  Mg33  1  0.16115000  0.95325500  0.77386100  1
  Mg  Mg34  1  0.83885000  0.72831000  0.74886700  1
  Mg  Mg35  1  0.33885000  0.54416400  0.72840600  1
  Mg  Mg36  1  0.66115000  0.13740100  0.79432100  1
  Pd  Pd37  1  0.17470500  0.24984800  0.25126000  1
  Pd  Pd38  1  0.82529500  0.43171800  0.27146800  1
  Pd  Pd39  1  0.00000000  0.84078300  0.26136400  1
  Pd  Pd40  1  0.17470500  0.06802900  0.34216900  1
  Pd  Pd41  1  0.82529500  0.24990000  0.36237700  1
  Pd  Pd42  1  0.32529500  0.65893800  0.29671400  1
  Pd  Pd43  1  0.67470500  0.84080900  0.31692200  1
  Pd  Pd44  1  0.38856000  0.04028700  0.28353100  1
  Pd  Pd45  1  0.61144000  0.45946000  0.33010600  1
  Pd  Pd46  1  0.11144000  0.44937800  0.32898500  1
  Pd  Pd47  1  0.88856000  0.05036900  0.28465100  1
  Pd  Pd48  1  1.00000000  0.65896400  0.35227300  1
  Pd  Pd49  1  0.50000000  0.24987400  0.30681800  1
  Pd  Pd50  1  0.17470500  0.88621100  0.43307800  1
  Pd  Pd51  1  0.82529500  0.06808100  0.45328600  1
  Pd  Pd52  1  0.32529500  0.47712000  0.38762300  1
  Pd  Pd53  1  0.67470500  0.65899100  0.40783100  1
  Pd  Pd54  1  0.38856000  0.85846900  0.37444000  1
  Pd  Pd55  1  0.61144000  0.27764200  0.42101500  1
  Pd  Pd56  1  0.11144000  0.26756000  0.41989400  1
  Pd  Pd57  1  0.88856000  0.86855100  0.37556000  1
  Pd  Pd58  1  0.00000000  0.47714600  0.44318200  1
  Pd  Pd59  1  0.50000000  0.06805500  0.39772700  1
  Pd  Pd60  1  0.17470500  0.70439300  0.52398700  1
  Pd  Pd61  1  0.82529500  0.88626300  0.54419500  1
  Pd  Pd62  1  0.32529500  0.29530200  0.47853200  1
  Pd  Pd63  1  0.67470500  0.47717200  0.49874000  1
  Pd  Pd64  1  0.38856000  0.67665100  0.46534900  1
  Pd  Pd65  1  0.61144000  0.09582400  0.51192400  1
  Pd  Pd66  1  0.11144000  0.08574100  0.51080400  1
  Pd  Pd67  1  0.88856000  0.68673300  0.46646900  1
  Pd  Pd68  1  0.00000000  0.29532800  0.53409100  1
  Pd  Pd69  1  0.50000000  0.88623700  0.48863600  1
  Pd  Pd70  1  0.17470500  0.52257500  0.61489600  1
  Pd  Pd71  1  0.82529500  0.70444500  0.63510400  1
  Pd  Pd72  1  0.32529500  0.11348400  0.56944200  1
  Pd  Pd73  1  0.67470500  0.29535400  0.58964900  1
  Pd  Pd74  1  0.38856000  0.49483200  0.55625800  1
  Pd  Pd75  1  0.61144000  0.91400600  0.60283300  1
  Pd  Pd76  1  0.11144000  0.90392300  0.60171300  1
  Pd  Pd77  1  0.88856000  0.50491500  0.55737800  1
  Pd  Pd78  1  0.00000000  0.11351000  0.62500000  1
  Pd  Pd79  1  0.50000000  0.70441900  0.57954500  1
  Pd  Pd80  1  0.17470500  0.34075700  0.70580500  1
  Pd  Pd81  1  0.82529500  0.52262700  0.72601300  1
  Pd  Pd82  1  0.32529500  0.93166600  0.66035100  1
  Pd  Pd83  1  0.67470500  0.11353600  0.68055800  1
  Pd  Pd84  1  0.38856000  0.31301400  0.64716700  1
  Pd  Pd85  1  0.61144000  0.73218700  0.69374200  1
  Pd  Pd86  1  0.11144000  0.72210500  0.69262200  1
  Pd  Pd87  1  0.88856000  0.32309700  0.64828700  1
  Pd  Pd88  1  0.00000000  0.93169200  0.71590900  1
  Pd  Pd89  1  0.50000000  0.52260100  0.67045500  1
  Pd  Pd90  1  0.17470500  0.15893800  0.79671400  1
  Pd  Pd91  1  0.82529500  0.34080900  0.81692200  1
  Pd  Pd92  1  0.32529500  0.74984800  0.75126000  1
  Pd  Pd93  1  0.67470500  0.93171800  0.77146800  1
  Pd  Pd94  1  0.38856000  0.13119600  0.73807600  1
  Pd  Pd95  1  0.61144000  0.55036900  0.78465100  1
  Pd  Pd96  1  0.11144000  0.54028700  0.78353100  1
  Pd  Pd97  1  0.88856000  0.14127800  0.73919600  1
  Pd  Pd98  1  1.00000000  0.74987400  0.80681800  1
  Pd  Pd99  1  0.50000000  0.34078300  0.76136400  1
