# generated using pymatgen
data_La12Mg5
_symmetry_space_group_name_H-M   'P 1'
_cell_length_a   4.00438100
_cell_length_b   4.03112374
_cell_length_c   60.99736100
_cell_angle_alpha   90.29028052
_cell_angle_beta   90.00000000
_cell_angle_gamma   90.00000000
_symmetry_Int_Tables_number   1
_chemical_formula_structural   La12Mg5
_chemical_formula_sum   'La12 Mg5'
_cell_volume   984.61623711
_cell_formula_units_Z   1
loop_
 _symmetry_equiv_pos_site_id
 _symmetry_equiv_pos_as_xyz
  1  'x, y, z'
loop_
 _atom_site_type_symbol
 _atom_site_label
 _atom_site_symmetry_multiplicity
 _atom_site_fract_x
 _atom_site_fract_y
 _atom_site_fract_z
 _atom_site_occupancy
  La  La0  1  0.50000000  0.37711300  0.68574600  1
  La  La1  1  1.00000000  0.88386300  0.64758700  1
  La  La2  1  0.00000000  0.87711300  0.78574600  1
  La  La3  1  0.50000000  0.38386300  0.74758700  1
  La  La4  1  0.50000000  0.37711300  0.48574600  1
  La  La5  1  0.00000000  0.88386300  0.44758700  1
  La  La6  1  1.00000000  0.87711300  0.58574600  1
  La  La7  1  0.50000000  0.38386300  0.54758700  1
  La  La8  1  0.50000000  0.37711300  0.28574600  1
  La  La9  1  0.00000000  0.88386300  0.24758700  1
  La  La10  1  1.00000000  0.87711300  0.38574600  1
  La  La11  1  0.50000000  0.38386300  0.34758700  1
  Mg  Mg12  1  0.00000000  0.88048800  0.71666700  1
  Mg  Mg13  1  0.50000000  0.38048800  0.61666700  1
  Mg  Mg14  1  0.00000000  0.88048800  0.51666700  1
  Mg  Mg15  1  0.50000000  0.38048800  0.41666700  1
  Mg  Mg16  1  0.00000000  0.88048800  0.31666700  1
