# generated using pymatgen
data_La24Mg187
_symmetry_space_group_name_H-M   'P 1'
_cell_length_a   14.48655054
_cell_length_b   14.48655091
_cell_length_c   46.20124100
_cell_angle_alpha   88.97401161
_cell_angle_beta   91.02598842
_cell_angle_gamma   103.21378408
_symmetry_Int_Tables_number   1
_chemical_formula_structural   La24Mg187
_chemical_formula_sum   'La24 Mg187'
_cell_volume   9436.62924609
_cell_formula_units_Z   1
loop_
 _symmetry_equiv_pos_site_id
 _symmetry_equiv_pos_as_xyz
  1  'x, y, z'
loop_
 _atom_site_type_symbol
 _atom_site_label
 _atom_site_symmetry_multiplicity
 _atom_site_fract_x
 _atom_site_fract_y
 _atom_site_fract_z
 _atom_site_occupancy
  La  La0  1  0.88717600  0.44615800  0.25263200  1
  La  La1  1  0.35384200  0.31282400  0.20263200  1
  La  La2  1  0.02050900  0.97949100  0.20263200  1
  La  La3  1  0.22050900  0.77949100  0.25263200  1
  La  La4  1  0.28717600  0.04615800  0.35263200  1
  La  La5  1  0.75384200  0.91282400  0.30263200  1
  La  La6  1  0.42050900  0.57949100  0.30263200  1
  La  La7  1  0.62050900  0.37949100  0.35263200  1
  La  La8  1  0.68717600  0.64615800  0.45263200  1
  La  La9  1  0.15384200  0.51282400  0.40263200  1
  La  La10  1  0.82050900  0.17949100  0.40263200  1
  La  La11  1  0.02050900  0.97949100  0.45263200  1
  La  La12  1  0.08717600  0.24615800  0.55263200  1
  La  La13  1  0.55384200  0.11282400  0.50263200  1
  La  La14  1  0.22050900  0.77949100  0.50263200  1
  La  La15  1  0.42050900  0.57949100  0.55263200  1
  La  La16  1  0.48717600  0.84615800  0.65263200  1
  La  La17  1  0.95384200  0.71282400  0.60263200  1
  La  La18  1  0.62050900  0.37949100  0.60263200  1
  La  La19  1  0.82050900  0.17949100  0.65263200  1
  La  La20  1  0.88717600  0.44615800  0.75263200  1
  La  La21  1  0.35384200  0.31282400  0.70263200  1
  La  La22  1  0.02050900  0.97949100  0.70263200  1
  La  La23  1  0.22050900  0.77949100  0.75263200  1
  Mg  Mg24  1  0.29642200  0.54135500  0.23105400  1
  Mg  Mg25  1  0.79908800  0.03868900  0.22838800  1
  Mg  Mg26  1  0.49109000  0.83335600  0.27972100  1
  Mg  Mg27  1  0.96664400  0.70891000  0.22972100  1
  Mg  Mg28  1  0.49317600  0.17349100  0.23746500  1
  Mg  Mg29  1  0.02650900  0.30682400  0.28746500  1
  Mg  Mg30  1  0.74784200  0.58549100  0.21779800  1
  Mg  Mg31  1  0.61450900  0.05215800  0.26779800  1
  Mg  Mg32  1  0.32050900  0.17949100  0.27763200  1
  Mg  Mg33  1  0.62050900  0.87949100  0.22763200  1
  Mg  Mg34  1  0.82050900  0.17949100  0.27763200  1
  Mg  Mg35  1  0.62050900  0.37949100  0.22763200  1
  Mg  Mg36  1  0.82050900  0.67949100  0.27763200  1
  Mg  Mg37  1  0.12050900  0.37949100  0.22763200  1
  Mg  Mg38  1  0.09602000  0.57551100  0.21288600  1
  Mg  Mg39  1  0.80963000  0.82740800  0.23202900  1
  Mg  Mg40  1  0.50689900  0.52759500  0.23348800  1
  Mg  Mg41  1  0.73411900  0.23138800  0.22177500  1
  Mg  Mg42  1  0.43138800  0.93157500  0.22323400  1
  Mg  Mg43  1  0.26842500  0.36861200  0.27323400  1
  Mg  Mg44  1  0.62448900  0.70398000  0.26288600  1
  Mg  Mg45  1  0.14499800  0.18347100  0.24237700  1
  Mg  Mg46  1  0.96861200  0.06588100  0.27177500  1
  Mg  Mg47  1  0.67240500  0.29310100  0.28348800  1
  Mg  Mg48  1  0.37259200  0.99037000  0.28202900  1
  Mg  Mg49  1  0.01652900  0.65500200  0.29237700  1
  Mg  Mg50  1  0.98237300  0.85540400  0.27420900  1
  Mg  Mg51  1  0.94459600  0.21762700  0.22420900  1
  Mg  Mg52  1  0.14992800  0.52562600  0.27554200  1
  Mg  Mg53  1  0.27437400  0.05007200  0.22554200  1
  Mg  Mg54  1  0.47970600  0.35807100  0.27687500  1
  Mg  Mg55  1  0.65864500  0.50357800  0.28105400  1
  Mg  Mg56  1  0.16131100  0.00091200  0.27838800  1
  Mg  Mg57  1  0.44192900  0.72029400  0.22687500  1
  Mg  Mg58  1  0.69642200  0.14135500  0.33105400  1
  Mg  Mg59  1  0.19908800  0.63868900  0.32838800  1
  Mg  Mg60  1  0.89109000  0.43335600  0.37972100  1
  Mg  Mg61  1  0.36664400  0.30891000  0.32972100  1
  Mg  Mg62  1  0.89317600  0.77349100  0.33746500  1
  Mg  Mg63  1  0.42650900  0.90682400  0.38746500  1
  Mg  Mg64  1  0.14784200  0.18549100  0.31779800  1
  Mg  Mg65  1  0.01450900  0.65215800  0.36779800  1
  Mg  Mg66  1  0.72050900  0.77949100  0.37763200  1
  Mg  Mg67  1  0.02050900  0.47949100  0.32763200  1
  Mg  Mg68  1  0.22050900  0.77949100  0.37763200  1
  Mg  Mg69  1  0.02050900  0.97949100  0.32763200  1
  Mg  Mg70  1  0.22050900  0.27949100  0.37763200  1
  Mg  Mg71  1  0.52050900  0.97949100  0.32763200  1
  Mg  Mg72  1  0.49602000  0.17551100  0.31288600  1
  Mg  Mg73  1  0.20963000  0.42740800  0.33202900  1
  Mg  Mg74  1  0.90689900  0.12759500  0.33348800  1
  Mg  Mg75  1  0.13411900  0.83138800  0.32177500  1
  Mg  Mg76  1  0.83138800  0.53157500  0.32323400  1
  Mg  Mg77  1  0.66842500  0.96861200  0.37323400  1
  Mg  Mg78  1  0.02448900  0.30398000  0.36288600  1
  Mg  Mg79  1  0.54499800  0.78347100  0.34237700  1
  Mg  Mg80  1  0.36861200  0.66588100  0.37177500  1
  Mg  Mg81  1  0.07240500  0.89310100  0.38348800  1
  Mg  Mg82  1  0.77259200  0.59037000  0.38202900  1
  Mg  Mg83  1  0.41652900  0.25500200  0.39237700  1
  Mg  Mg84  1  0.38237300  0.45540400  0.37420900  1
  Mg  Mg85  1  0.34459600  0.81762700  0.32420900  1
  Mg  Mg86  1  0.54992800  0.12562600  0.37554200  1
  Mg  Mg87  1  0.67437400  0.65007200  0.32554200  1
  Mg  Mg88  1  0.87970600  0.95807100  0.37687500  1
  Mg  Mg89  1  0.05864500  0.10357800  0.38105400  1
  Mg  Mg90  1  0.56131100  0.60091200  0.37838800  1
  Mg  Mg91  1  0.84192900  0.32029400  0.32687500  1
  Mg  Mg92  1  0.09642200  0.74135500  0.43105400  1
  Mg  Mg93  1  0.59908800  0.23868900  0.42838800  1
  Mg  Mg94  1  0.29109000  0.03335600  0.47972100  1
  Mg  Mg95  1  0.76664400  0.90891000  0.42972100  1
  Mg  Mg96  1  0.29317600  0.37349100  0.43746500  1
  Mg  Mg97  1  0.82650900  0.50682400  0.48746500  1
  Mg  Mg98  1  0.54784200  0.78549100  0.41779800  1
  Mg  Mg99  1  0.41450900  0.25215800  0.46779800  1
  Mg  Mg100  1  0.12050900  0.37949100  0.47763200  1
  Mg  Mg101  1  0.42050900  0.07949100  0.42763200  1
  Mg  Mg102  1  0.62050900  0.37949100  0.47763200  1
  Mg  Mg103  1  0.42050900  0.57949100  0.42763200  1
  Mg  Mg104  1  0.62050900  0.87949100  0.47763200  1
  Mg  Mg105  1  0.92050900  0.57949100  0.42763200  1
  Mg  Mg106  1  0.89602000  0.77551100  0.41288600  1
  Mg  Mg107  1  0.60963000  0.02740800  0.43202900  1
  Mg  Mg108  1  0.30689900  0.72759500  0.43348800  1
  Mg  Mg109  1  0.53411900  0.43138800  0.42177500  1
  Mg  Mg110  1  0.23138800  0.13157500  0.42323400  1
  Mg  Mg111  1  0.06842500  0.56861200  0.47323400  1
  Mg  Mg112  1  0.42448900  0.90398000  0.46288600  1
  Mg  Mg113  1  0.94499800  0.38347100  0.44237700  1
  Mg  Mg114  1  0.76861200  0.26588100  0.47177500  1
  Mg  Mg115  1  0.47240500  0.49310100  0.48348800  1
  Mg  Mg116  1  0.17259200  0.19037000  0.48202900  1
  Mg  Mg117  1  0.81652900  0.85500200  0.49237700  1
  Mg  Mg118  1  0.78237300  0.05540400  0.47420900  1
  Mg  Mg119  1  0.74459600  0.41762700  0.42420900  1
  Mg  Mg120  1  0.94992800  0.72562600  0.47554200  1
  Mg  Mg121  1  0.07437400  0.25007200  0.42554200  1
  Mg  Mg122  1  0.27970600  0.55807100  0.47687500  1
  Mg  Mg123  1  0.45864500  0.70357800  0.48105400  1
  Mg  Mg124  1  0.96131100  0.20091200  0.47838800  1
  Mg  Mg125  1  0.24192900  0.92029400  0.42687500  1
  Mg  Mg126  1  0.49642200  0.34135500  0.53105400  1
  Mg  Mg127  1  0.99908800  0.83868900  0.52838800  1
  Mg  Mg128  1  0.69109000  0.63335600  0.57972100  1
  Mg  Mg129  1  0.16664400  0.50891000  0.52972100  1
  Mg  Mg130  1  0.69317600  0.97349100  0.53746500  1
  Mg  Mg131  1  0.22650900  0.10682400  0.58746500  1
  Mg  Mg132  1  0.94784200  0.38549100  0.51779800  1
  Mg  Mg133  1  0.81450900  0.85215800  0.56779800  1
  Mg  Mg134  1  0.52050900  0.97949100  0.57763200  1
  Mg  Mg135  1  0.82050900  0.67949100  0.52763200  1
  Mg  Mg136  1  0.02050900  0.97949100  0.57763200  1
  Mg  Mg137  1  0.82050900  0.17949100  0.52763200  1
  Mg  Mg138  1  0.02050900  0.47949100  0.57763200  1
  Mg  Mg139  1  0.32050900  0.17949100  0.52763200  1
  Mg  Mg140  1  0.29602000  0.37551100  0.51288600  1
  Mg  Mg141  1  0.00963000  0.62740800  0.53202900  1
  Mg  Mg142  1  0.70689900  0.32759500  0.53348800  1
  Mg  Mg143  1  0.93411900  0.03138800  0.52177500  1
  Mg  Mg144  1  0.63138800  0.73157500  0.52323400  1
  Mg  Mg145  1  0.46842500  0.16861200  0.57323400  1
  Mg  Mg146  1  0.82448900  0.50398000  0.56288600  1
  Mg  Mg147  1  0.34499800  0.98347100  0.54237700  1
  Mg  Mg148  1  0.16861200  0.86588100  0.57177500  1
  Mg  Mg149  1  0.87240500  0.09310100  0.58348800  1
  Mg  Mg150  1  0.57259200  0.79037000  0.58202900  1
  Mg  Mg151  1  0.21652900  0.45500200  0.59237700  1
  Mg  Mg152  1  0.18237300  0.65540400  0.57420900  1
  Mg  Mg153  1  0.14459600  0.01762700  0.52420900  1
  Mg  Mg154  1  0.34992800  0.32562600  0.57554200  1
  Mg  Mg155  1  0.47437400  0.85007200  0.52554200  1
  Mg  Mg156  1  0.67970600  0.15807100  0.57687500  1
  Mg  Mg157  1  0.85864500  0.30357800  0.58105400  1
  Mg  Mg158  1  0.36131100  0.80091200  0.57838800  1
  Mg  Mg159  1  0.64192900  0.52029400  0.52687500  1
  Mg  Mg160  1  0.89642200  0.94135500  0.63105400  1
  Mg  Mg161  1  0.39908800  0.43868900  0.62838800  1
  Mg  Mg162  1  0.09109000  0.23335600  0.67972100  1
  Mg  Mg163  1  0.56664400  0.10891000  0.62972100  1
  Mg  Mg164  1  0.09317600  0.57349100  0.63746500  1
  Mg  Mg165  1  0.62650900  0.70682400  0.68746500  1
  Mg  Mg166  1  0.34784200  0.98549100  0.61779800  1
  Mg  Mg167  1  0.21450900  0.45215800  0.66779800  1
  Mg  Mg168  1  0.92050900  0.57949100  0.67763200  1
  Mg  Mg169  1  0.22050900  0.27949100  0.62763200  1
  Mg  Mg170  1  0.42050900  0.57949100  0.67763200  1
  Mg  Mg171  1  0.22050900  0.77949100  0.62763200  1
  Mg  Mg172  1  0.42050900  0.07949100  0.67763200  1
  Mg  Mg173  1  0.72050900  0.77949100  0.62763200  1
  Mg  Mg174  1  0.69602000  0.97551100  0.61288600  1
  Mg  Mg175  1  0.40963000  0.22740800  0.63202900  1
  Mg  Mg176  1  0.10689900  0.92759500  0.63348800  1
  Mg  Mg177  1  0.33411900  0.63138800  0.62177500  1
  Mg  Mg178  1  0.03138800  0.33157500  0.62323400  1
  Mg  Mg179  1  0.86842500  0.76861200  0.67323400  1
  Mg  Mg180  1  0.22448900  0.10398000  0.66288600  1
  Mg  Mg181  1  0.74499800  0.58347100  0.64237700  1
  Mg  Mg182  1  0.56861200  0.46588100  0.67177500  1
  Mg  Mg183  1  0.27240500  0.69310100  0.68348800  1
  Mg  Mg184  1  0.97259200  0.39037000  0.68202900  1
  Mg  Mg185  1  0.61652900  0.05500200  0.69237700  1
  Mg  Mg186  1  0.58237300  0.25540400  0.67420900  1
  Mg  Mg187  1  0.54459600  0.61762700  0.62420900  1
  Mg  Mg188  1  0.74992800  0.92562600  0.67554200  1
  Mg  Mg189  1  0.87437400  0.45007200  0.62554200  1
  Mg  Mg190  1  0.07970600  0.75807100  0.67687500  1
  Mg  Mg191  1  0.25864500  0.90357800  0.68105400  1
  Mg  Mg192  1  0.76131100  0.40091200  0.67838800  1
  Mg  Mg193  1  0.04192900  0.12029400  0.62687500  1
  Mg  Mg194  1  0.29642200  0.54135500  0.73105400  1
  Mg  Mg195  1  0.79908800  0.03868900  0.72838800  1
  Mg  Mg196  1  0.96664400  0.70891000  0.72972100  1
  Mg  Mg197  1  0.49317600  0.17349100  0.73746500  1
  Mg  Mg198  1  0.74784200  0.58549100  0.71779800  1
  Mg  Mg199  1  0.62050900  0.87949100  0.72763200  1
  Mg  Mg200  1  0.62050900  0.37949100  0.72763200  1
  Mg  Mg201  1  0.12050900  0.37949100  0.72763200  1
  Mg  Mg202  1  0.09602000  0.57551100  0.71288600  1
  Mg  Mg203  1  0.80963000  0.82740800  0.73202900  1
  Mg  Mg204  1  0.50689900  0.52759500  0.73348800  1
  Mg  Mg205  1  0.73411900  0.23138800  0.72177500  1
  Mg  Mg206  1  0.43138800  0.93157500  0.72323400  1
  Mg  Mg207  1  0.14499800  0.18347100  0.74237700  1
  Mg  Mg208  1  0.94459600  0.21762700  0.72420900  1
  Mg  Mg209  1  0.27437400  0.05007200  0.72554200  1
  Mg  Mg210  1  0.44192900  0.72029400  0.72687500  1
