# generated using pymatgen
data_Sr10Mg49
_symmetry_space_group_name_H-M   'P 1'
_cell_length_a   8.00628353
_cell_length_b   8.00628426
_cell_length_c   42.16048700
_cell_angle_alpha   88.85218051
_cell_angle_beta   91.14781959
_cell_angle_gamma   96.90670018
_symmetry_Int_Tables_number   1
_chemical_formula_structural   Sr10Mg49
_chemical_formula_sum   'Sr10 Mg49'
_cell_volume   2681.93919880
_cell_formula_units_Z   1
loop_
 _symmetry_equiv_pos_site_id
 _symmetry_equiv_pos_as_xyz
  1  'x, y, z'
loop_
 _atom_site_type_symbol
 _atom_site_label
 _atom_site_symmetry_multiplicity
 _atom_site_fract_x
 _atom_site_fract_y
 _atom_site_fract_z
 _atom_site_occupancy
  Sr  Sr0  1  0.09375000  0.90625000  0.21354200  1
  Sr  Sr1  1  0.46875000  0.53125000  0.27604200  1
  Sr  Sr2  1  0.84375000  0.15625000  0.33854200  1
  Sr  Sr3  1  0.21875000  0.78125000  0.40104200  1
  Sr  Sr4  1  0.59375000  0.40625000  0.46354200  1
  Sr  Sr5  1  0.96875000  0.03125000  0.52604200  1
  Sr  Sr6  1  0.34375000  0.65625000  0.58854200  1
  Sr  Sr7  1  0.71875000  0.28125000  0.65104200  1
  Sr  Sr8  1  0.09375000  0.90625000  0.71354200  1
  Sr  Sr9  1  0.46875000  0.53125000  0.77604200  1
  Mg  Mg10  1  0.09375000  0.40625000  0.21354200  1
  Mg  Mg11  1  0.76041700  0.57291700  0.21354200  1
  Mg  Mg12  1  0.59375000  0.90625000  0.21354200  1
  Mg  Mg13  1  0.42708300  0.23958300  0.21354200  1
  Mg  Mg14  1  0.78125000  0.21875000  0.24479200  1
  Mg  Mg15  1  0.46875000  0.03125000  0.27604200  1
  Mg  Mg16  1  0.13541700  0.19791700  0.27604200  1
  Mg  Mg17  1  0.96875000  0.53125000  0.27604200  1
  Mg  Mg18  1  0.80208300  0.86458300  0.27604200  1
  Mg  Mg19  1  0.15625000  0.84375000  0.30729200  1
  Mg  Mg20  1  0.84375000  0.65625000  0.33854200  1
  Mg  Mg21  1  0.51041700  0.82291700  0.33854200  1
  Mg  Mg22  1  0.34375000  0.15625000  0.33854200  1
  Mg  Mg23  1  0.17708300  0.48958300  0.33854200  1
  Mg  Mg24  1  0.53125000  0.46875000  0.36979200  1
  Mg  Mg25  1  0.21875000  0.28125000  0.40104200  1
  Mg  Mg26  1  0.88541700  0.44791700  0.40104200  1
  Mg  Mg27  1  0.71875000  0.78125000  0.40104200  1
  Mg  Mg28  1  0.55208300  0.11458300  0.40104200  1
  Mg  Mg29  1  0.90625000  0.09375000  0.43229200  1
  Mg  Mg30  1  0.59375000  0.90625000  0.46354200  1
  Mg  Mg31  1  0.26041700  0.07291700  0.46354200  1
  Mg  Mg32  1  0.09375000  0.40625000  0.46354200  1
  Mg  Mg33  1  0.92708300  0.73958300  0.46354200  1
  Mg  Mg34  1  0.28125000  0.71875000  0.49479200  1
  Mg  Mg35  1  0.96875000  0.53125000  0.52604200  1
  Mg  Mg36  1  0.63541700  0.69791700  0.52604200  1
  Mg  Mg37  1  0.46875000  0.03125000  0.52604200  1
  Mg  Mg38  1  0.30208300  0.36458300  0.52604200  1
  Mg  Mg39  1  0.65625000  0.34375000  0.55729200  1
  Mg  Mg40  1  0.34375000  0.15625000  0.58854200  1
  Mg  Mg41  1  0.01041700  0.32291700  0.58854200  1
  Mg  Mg42  1  0.84375000  0.65625000  0.58854200  1
  Mg  Mg43  1  0.67708300  0.98958300  0.58854200  1
  Mg  Mg44  1  0.03125000  0.96875000  0.61979200  1
  Mg  Mg45  1  0.71875000  0.78125000  0.65104200  1
  Mg  Mg46  1  0.38541700  0.94791700  0.65104200  1
  Mg  Mg47  1  0.21875000  0.28125000  0.65104200  1
  Mg  Mg48  1  0.05208300  0.61458300  0.65104200  1
  Mg  Mg49  1  0.40625000  0.59375000  0.68229200  1
  Mg  Mg50  1  0.09375000  0.40625000  0.71354200  1
  Mg  Mg51  1  0.76041700  0.57291700  0.71354200  1
  Mg  Mg52  1  0.59375000  0.90625000  0.71354200  1
  Mg  Mg53  1  0.42708300  0.23958300  0.71354200  1
  Mg  Mg54  1  0.78125000  0.21875000  0.74479200  1
  Mg  Mg55  1  0.46875000  0.03125000  0.77604200  1
  Mg  Mg56  1  0.13541700  0.19791700  0.77604200  1
  Mg  Mg57  1  0.96875000  0.53125000  0.77604200  1
  Mg  Mg58  1  0.80208300  0.86458300  0.77604200  1
