# generated using pymatgen
data_Er31Mg10
_symmetry_space_group_name_H-M   'P 1'
_cell_length_a   4.99581679
_cell_length_b   9.91985848
_cell_length_c   43.53611200
_cell_angle_alpha   93.50295194
_cell_angle_beta   93.28918622
_cell_angle_gamma   75.41542315
_symmetry_Int_Tables_number   1
_chemical_formula_structural   Er31Mg10
_chemical_formula_sum   'Er31 Mg10'
_cell_volume   2082.15968513
_cell_formula_units_Z   1
loop_
 _symmetry_equiv_pos_site_id
 _symmetry_equiv_pos_as_xyz
  1  'x, y, z'
loop_
 _atom_site_type_symbol
 _atom_site_label
 _atom_site_symmetry_multiplicity
 _atom_site_fract_x
 _atom_site_fract_y
 _atom_site_fract_z
 _atom_site_occupancy
  Er  Er0  1  0.32714600  0.73767500  0.21579300  1
  Er  Er1  1  0.94238200  0.49279800  0.20138900  1
  Er  Er2  1  0.11317400  0.19236500  0.24254000  1
  Er  Er3  1  0.88270100  0.68211900  0.27134900  1
  Er  Er4  1  0.49793700  0.43724200  0.25694400  1
  Er  Er5  1  0.66872900  0.13681000  0.29809500  1
  Er  Er6  1  0.43825700  0.62656300  0.32690500  1
  Er  Er7  1  0.05349300  0.38168700  0.31250000  1
  Er  Er8  1  0.22428500  0.08125400  0.35365100  1
  Er  Er9  1  0.99381200  0.57100800  0.38246000  1
  Er  Er10  1  0.60904900  0.32613100  0.36805600  1
  Er  Er11  1  0.77984000  0.02569900  0.40920700  1
  Er  Er12  1  0.54936800  0.51545200  0.43801600  1
  Er  Er13  1  0.16460400  0.27057600  0.42361100  1
  Er  Er14  1  0.33539600  0.97014300  0.46476200  1
  Er  Er15  1  0.10492400  0.45989700  0.49357100  1
  Er  Er16  1  0.72016000  0.21502000  0.47916700  1
  Er  Er17  1  0.89095100  0.91458800  0.52031800  1
  Er  Er18  1  0.66047900  0.40434100  0.54912700  1
  Er  Er19  1  0.27571500  0.15946400  0.53472200  1
  Er  Er20  1  0.44650700  0.85903200  0.57587300  1
  Er  Er21  1  0.21603500  0.34878600  0.60468200  1
  Er  Er22  1  0.83127100  0.10390900  0.59027800  1
  Er  Er23  1  0.00206300  0.80347600  0.63142900  1
  Er  Er24  1  0.77159000  0.29323000  0.66023800  1
  Er  Er25  1  0.38682600  0.04835300  0.64583300  1
  Er  Er26  1  0.55761800  0.74792100  0.68698400  1
  Er  Er27  1  0.32714600  0.23767500  0.71579300  1
  Er  Er28  1  0.94238200  0.99279800  0.70138900  1
  Er  Er29  1  0.11317400  0.69236500  0.74254000  1
  Er  Er30  1  0.49793700  0.93724200  0.75694400  1
  Mg  Mg31  1  0.72016000  0.96502000  0.22916700  1
  Mg  Mg32  1  0.27571500  0.90946400  0.28472200  1
  Mg  Mg33  1  0.83127100  0.85390900  0.34027800  1
  Mg  Mg34  1  0.38682600  0.79835300  0.39583300  1
  Mg  Mg35  1  0.94238200  0.74279800  0.45138900  1
  Mg  Mg36  1  0.49793700  0.68724200  0.50694400  1
  Mg  Mg37  1  0.05349300  0.63168700  0.56250000  1
  Mg  Mg38  1  0.60904900  0.57613100  0.61805600  1
  Mg  Mg39  1  0.16460400  0.52057600  0.67361100  1
  Mg  Mg40  1  0.72016000  0.46502000  0.72916700  1
