# generated using pymatgen
data_Mg3As2
_symmetry_space_group_name_H-M   'P 1'
_cell_length_a   10.80375129
_cell_length_b   10.80375121
_cell_length_c   44.54500800
_cell_angle_alpha   94.63715255
_cell_angle_beta   94.63715251
_cell_angle_gamma   109.47122095
_symmetry_Int_Tables_number   1
_chemical_formula_structural   Mg3As2
_chemical_formula_sum   'Mg66 As44'
_cell_volume   4853.68783490
_cell_formula_units_Z   22
loop_
 _symmetry_equiv_pos_site_id
 _symmetry_equiv_pos_as_xyz
  1  'x, y, z'
loop_
 _atom_site_type_symbol
 _atom_site_label
 _atom_site_symmetry_multiplicity
 _atom_site_fract_x
 _atom_site_fract_y
 _atom_site_fract_z
 _atom_site_occupancy
  Mg  Mg0  1  0.05548600  0.48277900  0.32801300  1
  Mg  Mg1  1  0.98226800  0.18117100  0.37369100  1
  Mg  Mg2  1  0.79592900  0.73631100  0.32198700  1
  Mg  Mg3  1  0.54108800  0.94424700  0.22681400  1
  Mg  Mg4  1  0.59189200  0.00159500  0.32187700  1
  Mg  Mg5  1  0.32088000  0.27885200  0.32812300  1
  Mg  Mg6  1  0.67392300  0.34869200  0.28113600  1
  Mg  Mg7  1  0.90438300  0.10383400  0.27982700  1
  Mg  Mg8  1  0.70871900  0.40162500  0.36886400  1
  Mg  Mg9  1  0.46517000  0.63339400  0.37017300  1
  Mg  Mg10  1  0.75859500  0.72311100  0.22318600  1
  Mg  Mg11  1  0.44864200  0.61741400  0.27630900  1
  Mg  Mg12  1  0.78567600  0.22605800  0.22198700  1
  Mg  Mg13  1  0.45889400  0.12766700  0.37630900  1
  Mg  Mg14  1  0.04523400  0.97252700  0.22801300  1
  Mg  Mg15  1  0.30007500  0.76459100  0.32318600  1
  Mg  Mg16  1  0.39252100  0.09142300  0.27369100  1
  Mg  Mg17  1  0.08256700  0.98572600  0.32681400  1
  Mg  Mg18  1  0.97599300  0.67544400  0.37982700  1
  Mg  Mg19  1  0.73244400  0.90721200  0.38113600  1
  Mg  Mg20  1  0.93677900  0.60500300  0.27017300  1
  Mg  Mg21  1  0.16723900  0.36014600  0.26886400  1
  Mg  Mg22  1  0.52028200  0.42998600  0.22187700  1
  Mg  Mg23  1  0.24927100  0.70724200  0.22812300  1
  Mg  Mg24  1  0.65548600  0.08277900  0.52801300  1
  Mg  Mg25  1  0.58226800  0.78117100  0.57369100  1
  Mg  Mg26  1  0.39592900  0.33631100  0.52198700  1
  Mg  Mg27  1  0.14108800  0.54424700  0.42681400  1
  Mg  Mg28  1  0.19189200  0.60159500  0.52187700  1
  Mg  Mg29  1  0.92088000  0.87885200  0.52812300  1
  Mg  Mg30  1  0.27392300  0.94869200  0.48113600  1
  Mg  Mg31  1  0.50438300  0.70383400  0.47982700  1
  Mg  Mg32  1  0.30871900  0.00162500  0.56886400  1
  Mg  Mg33  1  0.06517000  0.23339400  0.57017300  1
  Mg  Mg34  1  0.35859500  0.32311100  0.42318600  1
  Mg  Mg35  1  0.04864200  0.21741400  0.47630900  1
  Mg  Mg36  1  0.38567600  0.82605800  0.42198700  1
  Mg  Mg37  1  0.05889400  0.72766700  0.57630900  1
  Mg  Mg38  1  0.64523400  0.57252700  0.42801300  1
  Mg  Mg39  1  0.90007500  0.36459100  0.52318600  1
  Mg  Mg40  1  0.99252100  0.69142300  0.47369100  1
  Mg  Mg41  1  0.68256700  0.58572600  0.52681400  1
  Mg  Mg42  1  0.57599300  0.27544400  0.57982700  1
  Mg  Mg43  1  0.33244400  0.50721200  0.58113600  1
  Mg  Mg44  1  0.53677900  0.20500300  0.47017300  1
  Mg  Mg45  1  0.76723900  0.96014600  0.46886400  1
  Mg  Mg46  1  0.12028200  0.02998600  0.42187700  1
  Mg  Mg47  1  0.84927100  0.30724200  0.42812300  1
  Mg  Mg48  1  0.25548600  0.68277900  0.72801300  1
  Mg  Mg49  1  0.99592900  0.93631100  0.72198700  1
  Mg  Mg50  1  0.74108800  0.14424700  0.62681400  1
  Mg  Mg51  1  0.79189200  0.20159500  0.72187700  1
  Mg  Mg52  1  0.52088000  0.47885200  0.72812300  1
  Mg  Mg53  1  0.87392300  0.54869200  0.68113600  1
  Mg  Mg54  1  0.10438300  0.30383400  0.67982700  1
  Mg  Mg55  1  0.95859500  0.92311100  0.62318600  1
  Mg  Mg56  1  0.64864200  0.81741400  0.67630900  1
  Mg  Mg57  1  0.98567600  0.42605800  0.62198700  1
  Mg  Mg58  1  0.24523400  0.17252700  0.62801300  1
  Mg  Mg59  1  0.50007500  0.96459100  0.72318600  1
  Mg  Mg60  1  0.59252100  0.29142300  0.67369100  1
  Mg  Mg61  1  0.28256700  0.18572600  0.72681400  1
  Mg  Mg62  1  0.13677900  0.80500300  0.67017300  1
  Mg  Mg63  1  0.36723900  0.56014600  0.66886400  1
  Mg  Mg64  1  0.72028200  0.62998600  0.62187700  1
  Mg  Mg65  1  0.44927100  0.90724200  0.62812300  1
  As  As66  1  0.53383800  0.19558100  0.22941900  1
  As  As67  1  0.04848700  0.73232500  0.32500000  1
  As  As68  1  0.16174400  0.11767500  0.27941900  1
  As  As69  1  0.29267500  0.47651300  0.22500000  1
  As  As70  1  0.47941900  0.89116200  0.37058100  1
  As  As71  1  0.00732500  0.71325600  0.22058100  1
  As  As72  1  0.30732500  0.51325600  0.32058100  1
  As  As73  1  0.79267500  0.97651300  0.22500000  1
  As  As74  1  0.67941900  0.59116200  0.27058100  1
  As  As75  1  0.54848700  0.23232500  0.32500000  1
  As  As76  1  0.96174400  0.41767500  0.37941900  1
  As  As77  1  0.83383800  0.99558100  0.32941900  1
  As  As78  1  0.92058100  0.35441900  0.27500000  1
  As  As79  1  0.72058100  0.65441900  0.37500000  1
  As  As80  1  0.22058100  0.15441900  0.37500000  1
  As  As81  1  0.42058100  0.85441900  0.27500000  1
  As  As82  1  0.13383800  0.79558100  0.42941900  1
  As  As83  1  0.64848700  0.33232500  0.52500000  1
  As  As84  1  0.76174400  0.71767500  0.47941900  1
  As  As85  1  0.89267500  0.07651300  0.42500000  1
  As  As86  1  0.07941900  0.49116200  0.57058100  1
  As  As87  1  0.60732500  0.31325600  0.42058100  1
  As  As88  1  0.90732500  0.11325600  0.52058100  1
  As  As89  1  0.39267500  0.57651300  0.42500000  1
  As  As90  1  0.27941900  0.19116200  0.47058100  1
  As  As91  1  0.14848700  0.83232500  0.52500000  1
  As  As92  1  0.56174400  0.01767500  0.57941900  1
  As  As93  1  0.43383800  0.59558100  0.52941900  1
  As  As94  1  0.52058100  0.95441900  0.47500000  1
  As  As95  1  0.32058100  0.25441900  0.57500000  1
  As  As96  1  0.82058100  0.75441900  0.57500000  1
  As  As97  1  0.02058100  0.45441900  0.47500000  1
  As  As98  1  0.73383800  0.39558100  0.62941900  1
  As  As99  1  0.24848700  0.93232500  0.72500000  1
  As  As100  1  0.36174400  0.31767500  0.67941900  1
  As  As101  1  0.49267500  0.67651300  0.62500000  1
  As  As102  1  0.20732500  0.91325600  0.62058100  1
  As  As103  1  0.50732500  0.71325600  0.72058100  1
  As  As104  1  0.99267500  0.17651300  0.62500000  1
  As  As105  1  0.87941900  0.79116200  0.67058100  1
  As  As106  1  0.74848700  0.43232500  0.72500000  1
  As  As107  1  0.03383800  0.19558100  0.72941900  1
  As  As108  1  0.12058100  0.55441900  0.67500000  1
  As  As109  1  0.62058100  0.05441900  0.67500000  1
