# generated using pymatgen
data_Mg2Cd
_symmetry_space_group_name_H-M   'P 1'
_cell_length_a   6.08289758
_cell_length_b   8.21260687
_cell_length_c   42.73648200
_cell_angle_alpha   91.15721162
_cell_angle_beta   91.74581926
_cell_angle_gamma   95.77864034
_symmetry_Int_Tables_number   1
_chemical_formula_structural   Mg2Cd
_chemical_formula_sum   'Mg40 Cd20'
_cell_volume   2122.54658665
_cell_formula_units_Z   20
loop_
 _symmetry_equiv_pos_site_id
 _symmetry_equiv_pos_as_xyz
  1  'x, y, z'
loop_
 _atom_site_type_symbol
 _atom_site_label
 _atom_site_symmetry_multiplicity
 _atom_site_fract_x
 _atom_site_fract_y
 _atom_site_fract_z
 _atom_site_occupancy
  Mg  Mg0  1  0.17354900  0.09500700  0.20661300  1
  Mg  Mg1  1  0.00621900  0.79819500  0.24844500  1
  Mg  Mg2  1  0.74378100  0.63930500  0.18905500  1
  Mg  Mg3  1  0.57645100  0.34249300  0.23088700  1
  Mg  Mg4  1  0.92354900  0.15750700  0.26911300  1
  Mg  Mg5  1  0.75621900  0.86069500  0.31094500  1
  Mg  Mg6  1  0.49378100  0.70180500  0.25155500  1
  Mg  Mg7  1  0.32645100  0.40499300  0.29338700  1
  Mg  Mg8  1  0.67354900  0.22000700  0.33161300  1
  Mg  Mg9  1  0.50621900  0.92319500  0.37344500  1
  Mg  Mg10  1  0.24378100  0.76430500  0.31405500  1
  Mg  Mg11  1  0.07645100  0.46749300  0.35588700  1
  Mg  Mg12  1  0.42354900  0.28250700  0.39411300  1
  Mg  Mg13  1  0.25621900  0.98569500  0.43594500  1
  Mg  Mg14  1  0.99378100  0.82680500  0.37655500  1
  Mg  Mg15  1  0.82645100  0.52999300  0.41838700  1
  Mg  Mg16  1  0.17354900  0.34500700  0.45661300  1
  Mg  Mg17  1  0.00621900  0.04819500  0.49844500  1
  Mg  Mg18  1  0.74378100  0.88930500  0.43905500  1
  Mg  Mg19  1  0.57645100  0.59249300  0.48088700  1
  Mg  Mg20  1  0.92354900  0.40750700  0.51911300  1
  Mg  Mg21  1  0.75621900  0.11069500  0.56094500  1
  Mg  Mg22  1  0.49378100  0.95180500  0.50155500  1
  Mg  Mg23  1  0.32645100  0.65499300  0.54338700  1
  Mg  Mg24  1  0.67354900  0.47000700  0.58161300  1
  Mg  Mg25  1  0.50621900  0.17319500  0.62344500  1
  Mg  Mg26  1  0.24378100  0.01430500  0.56405500  1
  Mg  Mg27  1  0.07645100  0.71749300  0.60588700  1
  Mg  Mg28  1  0.42354900  0.53250700  0.64411300  1
  Mg  Mg29  1  0.25621900  0.23569500  0.68594500  1
  Mg  Mg30  1  0.99378100  0.07680500  0.62655500  1
  Mg  Mg31  1  0.82645100  0.77999300  0.66838700  1
  Mg  Mg32  1  0.17354900  0.59500700  0.70661300  1
  Mg  Mg33  1  0.00621900  0.29819500  0.74844500  1
  Mg  Mg34  1  0.74378100  0.13930500  0.68905500  1
  Mg  Mg35  1  0.57645100  0.84249300  0.73088700  1
  Mg  Mg36  1  0.92354900  0.65750700  0.76911300  1
  Mg  Mg37  1  0.75621900  0.36069500  0.81094500  1
  Mg  Mg38  1  0.49378100  0.20180500  0.75155500  1
  Mg  Mg39  1  0.32645100  0.90499300  0.79338700  1
  Cd  Cd40  1  0.09045100  0.45099400  0.22738700  1
  Cd  Cd41  1  0.65954900  0.98650600  0.21011300  1
  Cd  Cd42  1  0.84045100  0.51349400  0.28988700  1
  Cd  Cd43  1  0.40954900  0.04900600  0.27261300  1
  Cd  Cd44  1  0.59045100  0.57599400  0.35238700  1
  Cd  Cd45  1  0.15954900  0.11150600  0.33511300  1
  Cd  Cd46  1  0.34045100  0.63849400  0.41488700  1
  Cd  Cd47  1  0.90954900  0.17400600  0.39761300  1
  Cd  Cd48  1  0.09045100  0.70099400  0.47738700  1
  Cd  Cd49  1  0.65954900  0.23650600  0.46011300  1
  Cd  Cd50  1  0.84045100  0.76349400  0.53988700  1
  Cd  Cd51  1  0.40954900  0.29900600  0.52261300  1
  Cd  Cd52  1  0.59045100  0.82599400  0.60238700  1
  Cd  Cd53  1  0.15954900  0.36150600  0.58511300  1
  Cd  Cd54  1  0.34045100  0.88849400  0.66488700  1
  Cd  Cd55  1  0.90954900  0.42400600  0.64761300  1
  Cd  Cd56  1  0.09045100  0.95099400  0.72738700  1
  Cd  Cd57  1  0.65954900  0.48650600  0.71011300  1
  Cd  Cd58  1  0.84045100  0.01349400  0.78988700  1
  Cd  Cd59  1  0.40954900  0.54900600  0.77261300  1
