# generated using pymatgen
data_Mg26Zn49
_symmetry_space_group_name_H-M   'P 1'
_cell_length_a   5.07402229
_cell_length_b   14.70723601
_cell_length_c   50.49845100
_cell_angle_alpha   88.21601723
_cell_angle_beta   89.67566990
_cell_angle_gamma   90.29193359
_symmetry_Int_Tables_number   1
_chemical_formula_structural   Mg26Zn49
_chemical_formula_sum   'Mg26 Zn49'
_cell_volume   3766.49971225
_cell_formula_units_Z   1
loop_
 _symmetry_equiv_pos_site_id
 _symmetry_equiv_pos_as_xyz
  1  'x, y, z'
loop_
 _atom_site_type_symbol
 _atom_site_label
 _atom_site_symmetry_multiplicity
 _atom_site_fract_x
 _atom_site_fract_y
 _atom_site_fract_z
 _atom_site_occupancy
  Mg  Mg0  1  0.16256700  0.86936400  0.48320300  1
  Mg  Mg1  1  0.15978000  0.13581600  0.40314600  1
  Mg  Mg2  1  0.16840500  0.63206000  0.26801000  1
  Mg  Mg3  1  0.66595800  0.84648300  0.44948600  1
  Mg  Mg4  1  0.66460900  0.22210800  0.42812500  1
  Mg  Mg5  1  0.66647100  0.94681700  0.27751700  1
  Mg  Mg6  1  0.66223100  0.18502200  0.49082100  1
  Mg  Mg7  1  0.66177300  0.81738300  0.39142300  1
  Mg  Mg8  1  0.66304500  0.31658900  0.25961400  1
  Mg  Mg9  1  0.66312200  0.44175800  0.41278400  1
  Mg  Mg10  1  0.65932500  0.28180500  0.32289900  1
  Mg  Mg11  1  0.16468600  0.59727600  0.33129500  1
  Mg  Mg12  1  0.16246400  0.93042300  0.41705200  1
  Mg  Mg13  1  0.16356200  0.50116100  0.50005500  1
  Mg  Mg14  1  0.16416800  0.16270400  0.34085400  1
  Mg  Mg15  1  0.66550000  0.47884300  0.35008800  1
  Mg  Mg16  1  0.16516400  0.79450200  0.35770600  1
  Mg  Mg17  1  0.16126000  0.96704800  0.31339200  1
  Mg  Mg18  1  0.16795100  0.52804900  0.43776300  1
  Mg  Mg19  1  0.16526600  0.73344200  0.42385700  1
  Mg  Mg20  1  0.66840500  0.38206000  0.51801000  1
  Mg  Mg21  1  0.16647100  0.69681700  0.52751700  1
  Mg  Mg22  1  0.16304500  0.06658900  0.50961400  1
  Mg  Mg23  1  0.15932500  0.03180500  0.57289900  1
  Mg  Mg24  1  0.66468600  0.34727600  0.58129500  1
  Mg  Mg25  1  0.66126000  0.71704800  0.56339200  1
  Zn  Zn26  1  0.15976400  0.20194400  0.45815300  1
  Zn  Zn27  1  0.66313600  0.02348500  0.41151500  1
  Zn  Zn28  1  0.16737800  0.29747800  0.29205700  1
  Zn  Zn29  1  0.41325800  0.61980500  0.38427200  1
  Zn  Zn30  1  0.90902300  0.29981000  0.37581300  1
  Zn  Zn31  1  0.41091300  0.04630400  0.45561400  1
  Zn  Zn32  1  0.91386500  0.45693300  0.29545500  1
  Zn  Zn33  1  0.16796700  0.46192100  0.38275600  1
  Zn  Zn34  1  0.66467200  0.06276800  0.32671300  1
  Zn  Zn35  1  0.91229800  0.36407400  0.46519000  1
  Zn  Zn36  1  0.91045700  0.14017500  0.28773600  1
  Zn  Zn37  1  0.16299000  0.03344000  0.25575100  1
  Zn  Zn38  1  0.66428100  0.53126900  0.25471900  1
  Zn  Zn39  1  0.66937400  0.51651500  0.46825000  1
  Zn  Zn40  1  0.66459500  0.64038100  0.42939400  1
  Zn  Zn41  1  0.16305900  0.85109700  0.26419600  1
  Zn  Zn42  1  0.92301800  0.67935000  0.47338000  1
  Zn  Zn43  1  0.41543300  0.29979100  0.37571900  1
  Zn  Zn44  1  0.91681800  0.61756100  0.38529500  1
  Zn  Zn45  1  0.16345000  0.38259600  0.33619000  1
  Zn  Zn46  1  0.40471300  0.98451600  0.36752900  1
  Zn  Zn47  1  0.41870800  0.36405600  0.46509600  1
  Zn  Zn48  1  0.41386500  0.45693300  0.29545500  1
  Zn  Zn49  1  0.65831500  0.97167600  0.49617300  1
  Zn  Zn50  1  0.41451900  0.13927300  0.28811200  1
  Zn  Zn51  1  0.40961900  0.68182900  0.47272000  1
  Zn  Zn52  1  0.66941600  0.69218900  0.34473600  1
  Zn  Zn53  1  0.91811200  0.98203700  0.36818900  1
  Zn  Zn54  1  0.65835700  0.14735100  0.37265900  1
  Zn  Zn55  1  0.41321200  0.77459300  0.30279700  1
  Zn  Zn56  1  0.91447300  0.04406100  0.45663700  1
  Zn  Zn57  1  0.16386500  0.33193300  0.42045500  1
  Zn  Zn58  1  0.91727400  0.77369100  0.30317300  1
  Zn  Zn59  1  0.66474100  0.88042600  0.33515800  1
  Zn  Zn60  1  0.66035300  0.61638800  0.29885200  1
  Zn  Zn61  1  0.66737800  0.04747800  0.54205700  1
  Zn  Zn62  1  0.41386500  0.20693300  0.54545500  1
  Zn  Zn63  1  0.16467200  0.81276800  0.57671300  1
  Zn  Zn64  1  0.41045700  0.89017500  0.53773600  1
  Zn  Zn65  1  0.66299000  0.78344000  0.50575100  1
  Zn  Zn66  1  0.16428100  0.28126900  0.50471900  1
  Zn  Zn67  1  0.66305900  0.60109700  0.51419600  1
  Zn  Zn68  1  0.66345000  0.13259600  0.58619000  1
  Zn  Zn69  1  0.91386500  0.20693300  0.54545500  1
  Zn  Zn70  1  0.91451900  0.88927300  0.53811200  1
  Zn  Zn71  1  0.91321200  0.52459300  0.55279700  1
  Zn  Zn72  1  0.41727400  0.52369100  0.55317300  1
  Zn  Zn73  1  0.16474100  0.63042600  0.58515800  1
  Zn  Zn74  1  0.16035300  0.36638800  0.54885200  1
