# generated using pymatgen
data_Pm2Mg
_symmetry_space_group_name_H-M   'P 1'
_cell_length_a   5.62611600
_cell_length_b   17.39736800
_cell_length_c   41.99011100
_cell_angle_alpha   90.00000000
_cell_angle_beta   90.00000000
_cell_angle_gamma   90.00000000
_symmetry_Int_Tables_number   1
_chemical_formula_structural   Pm2Mg
_chemical_formula_sum   'Pm56 Mg28'
_cell_volume   4109.97570797
_cell_formula_units_Z   28
loop_
 _symmetry_equiv_pos_site_id
 _symmetry_equiv_pos_as_xyz
  1  'x, y, z'
loop_
 _atom_site_type_symbol
 _atom_site_label
 _atom_site_symmetry_multiplicity
 _atom_site_fract_x
 _atom_site_fract_y
 _atom_site_fract_z
 _atom_site_occupancy
  Pm  Pm0  1  0.25000000  0.91181400  0.25000000  1
  Pm  Pm1  1  0.25000000  0.72991700  0.20454500  1
  Pm  Pm2  1  0.75000000  0.58818600  0.20454500  1
  Pm  Pm3  1  0.75000000  0.77008300  0.25000000  1
  Pm  Pm4  1  0.25000000  0.41181400  0.20454500  1
  Pm  Pm5  1  0.25000000  0.22991700  0.25000000  1
  Pm  Pm6  1  0.75000000  0.08818600  0.25000000  1
  Pm  Pm7  1  0.75000000  0.27008300  0.20454500  1
  Pm  Pm8  1  0.25000000  0.91181400  0.34090900  1
  Pm  Pm9  1  0.25000000  0.72991700  0.29545500  1
  Pm  Pm10  1  0.75000000  0.58818600  0.29545500  1
  Pm  Pm11  1  0.75000000  0.77008300  0.34090900  1
  Pm  Pm12  1  0.25000000  0.41181400  0.29545500  1
  Pm  Pm13  1  0.25000000  0.22991700  0.34090900  1
  Pm  Pm14  1  0.75000000  0.08818600  0.34090900  1
  Pm  Pm15  1  0.75000000  0.27008300  0.29545500  1
  Pm  Pm16  1  0.25000000  0.91181400  0.43181800  1
  Pm  Pm17  1  0.25000000  0.72991700  0.38636400  1
  Pm  Pm18  1  0.75000000  0.58818600  0.38636400  1
  Pm  Pm19  1  0.75000000  0.77008300  0.43181800  1
  Pm  Pm20  1  0.25000000  0.41181400  0.38636400  1
  Pm  Pm21  1  0.25000000  0.22991700  0.43181800  1
  Pm  Pm22  1  0.75000000  0.08818600  0.43181800  1
  Pm  Pm23  1  0.75000000  0.27008300  0.38636400  1
  Pm  Pm24  1  0.25000000  0.91181400  0.52272700  1
  Pm  Pm25  1  0.25000000  0.72991700  0.47727300  1
  Pm  Pm26  1  0.75000000  0.58818600  0.47727300  1
  Pm  Pm27  1  0.75000000  0.77008300  0.52272700  1
  Pm  Pm28  1  0.25000000  0.41181400  0.47727300  1
  Pm  Pm29  1  0.25000000  0.22991700  0.52272700  1
  Pm  Pm30  1  0.75000000  0.08818600  0.52272700  1
  Pm  Pm31  1  0.75000000  0.27008300  0.47727300  1
  Pm  Pm32  1  0.25000000  0.91181400  0.61363600  1
  Pm  Pm33  1  0.25000000  0.72991700  0.56818200  1
  Pm  Pm34  1  0.75000000  0.58818600  0.56818200  1
  Pm  Pm35  1  0.75000000  0.77008300  0.61363600  1
  Pm  Pm36  1  0.25000000  0.41181400  0.56818200  1
  Pm  Pm37  1  0.25000000  0.22991700  0.61363600  1
  Pm  Pm38  1  0.75000000  0.08818600  0.61363600  1
  Pm  Pm39  1  0.75000000  0.27008300  0.56818200  1
  Pm  Pm40  1  0.25000000  0.91181400  0.70454500  1
  Pm  Pm41  1  0.25000000  0.72991700  0.65909100  1
  Pm  Pm42  1  0.75000000  0.58818600  0.65909100  1
  Pm  Pm43  1  0.75000000  0.77008300  0.70454500  1
  Pm  Pm44  1  0.25000000  0.41181400  0.65909100  1
  Pm  Pm45  1  0.25000000  0.22991700  0.70454500  1
  Pm  Pm46  1  0.75000000  0.08818600  0.70454500  1
  Pm  Pm47  1  0.75000000  0.27008300  0.65909100  1
  Pm  Pm48  1  0.25000000  0.91181400  0.79545500  1
  Pm  Pm49  1  0.25000000  0.72991700  0.75000000  1
  Pm  Pm50  1  0.75000000  0.58818600  0.75000000  1
  Pm  Pm51  1  0.75000000  0.77008300  0.79545500  1
  Pm  Pm52  1  0.25000000  0.41181400  0.75000000  1
  Pm  Pm53  1  0.25000000  0.22991700  0.79545500  1
  Pm  Pm54  1  0.75000000  0.08818600  0.79545500  1
  Pm  Pm55  1  0.75000000  0.27008300  0.75000000  1
  Mg  Mg56  1  0.25000000  0.56919700  0.25000000  1
  Mg  Mg57  1  0.75000000  0.93080300  0.20454500  1
  Mg  Mg58  1  0.25000000  0.06919700  0.20454500  1
  Mg  Mg59  1  0.75000000  0.43080300  0.25000000  1
  Mg  Mg60  1  0.25000000  0.56919700  0.34090900  1
  Mg  Mg61  1  0.75000000  0.93080300  0.29545500  1
  Mg  Mg62  1  0.25000000  0.06919700  0.29545500  1
  Mg  Mg63  1  0.75000000  0.43080300  0.34090900  1
  Mg  Mg64  1  0.25000000  0.56919700  0.43181800  1
  Mg  Mg65  1  0.75000000  0.93080300  0.38636400  1
  Mg  Mg66  1  0.25000000  0.06919700  0.38636400  1
  Mg  Mg67  1  0.75000000  0.43080300  0.43181800  1
  Mg  Mg68  1  0.25000000  0.56919700  0.52272700  1
  Mg  Mg69  1  0.75000000  0.93080300  0.47727300  1
  Mg  Mg70  1  0.25000000  0.06919700  0.47727300  1
  Mg  Mg71  1  0.75000000  0.43080300  0.52272700  1
  Mg  Mg72  1  0.25000000  0.56919700  0.61363600  1
  Mg  Mg73  1  0.75000000  0.93080300  0.56818200  1
  Mg  Mg74  1  0.25000000  0.06919700  0.56818200  1
  Mg  Mg75  1  0.75000000  0.43080300  0.61363600  1
  Mg  Mg76  1  0.25000000  0.56919700  0.70454500  1
  Mg  Mg77  1  0.75000000  0.93080300  0.65909100  1
  Mg  Mg78  1  0.25000000  0.06919700  0.65909100  1
  Mg  Mg79  1  0.75000000  0.43080300  0.70454500  1
  Mg  Mg80  1  0.25000000  0.56919700  0.79545500  1
  Mg  Mg81  1  0.75000000  0.93080300  0.75000000  1
  Mg  Mg82  1  0.25000000  0.06919700  0.75000000  1
  Mg  Mg83  1  0.75000000  0.43080300  0.79545500  1
