# generated using pymatgen
data_Er3Mg2
_symmetry_space_group_name_H-M   'P 1'
_cell_length_a   3.65070000
_cell_length_b   5.42669900
_cell_length_c   51.06088300
_cell_angle_alpha   90.00000000
_cell_angle_beta   90.00000000
_cell_angle_gamma   90.00000000
_symmetry_Int_Tables_number   1
_chemical_formula_structural   Er3Mg2
_chemical_formula_sum   'Er12 Mg8'
_cell_volume   1011.57992034
_cell_formula_units_Z   4
loop_
 _symmetry_equiv_pos_site_id
 _symmetry_equiv_pos_as_xyz
  1  'x, y, z'
loop_
 _atom_site_type_symbol
 _atom_site_label
 _atom_site_symmetry_multiplicity
 _atom_site_fract_x
 _atom_site_fract_y
 _atom_site_fract_z
 _atom_site_occupancy
  Er  Er0  1  0.00000000  0.25000000  0.33693800  1
  Er  Er1  1  0.50000000  0.25000000  0.39657800  1
  Er  Er2  1  0.50000000  0.75000000  0.44084000  1
  Er  Er3  1  1.00000000  0.75000000  0.38120000  1
  Er  Er4  1  0.50000000  0.25000000  0.50360500  1
  Er  Er5  1  0.00000000  0.25000000  0.56324500  1
  Er  Er6  1  1.00000000  0.75000000  0.60750600  1
  Er  Er7  1  0.50000000  0.75000000  0.54786600  1
  Er  Er8  1  0.00000000  0.25000000  0.67027100  1
  Er  Er9  1  0.50000000  0.25000000  0.72991100  1
  Er  Er10  1  0.50000000  0.75000000  0.77417300  1
  Er  Er11  1  0.00000000  0.75000000  0.71453300  1
  Mg  Mg12  1  0.50000000  0.25000000  0.28371500  1
  Mg  Mg13  1  0.00000000  0.75000000  0.49406300  1
  Mg  Mg14  1  0.00000000  0.25000000  0.45038100  1
  Mg  Mg15  1  0.50000000  0.75000000  0.32739600  1
  Mg  Mg16  1  0.50000000  0.25000000  0.61704800  1
  Mg  Mg17  1  0.00000000  0.75000000  0.82739600  1
  Mg  Mg18  1  0.00000000  0.25000000  0.78371500  1
  Mg  Mg19  1  0.50000000  0.75000000  0.66073000  1
