# generated using pymatgen
data_Mg9Ir14
_symmetry_space_group_name_H-M   'P 1'
_cell_length_a   5.24707500
_cell_length_b   19.59900374
_cell_length_c   48.70839900
_cell_angle_alpha   93.84872638
_cell_angle_beta   90.00000000
_cell_angle_gamma   90.00000000
_symmetry_Int_Tables_number   1
_chemical_formula_structural   Mg9Ir14
_chemical_formula_sum   'Mg72 Ir112'
_cell_volume   4997.75050797
_cell_formula_units_Z   8
loop_
 _symmetry_equiv_pos_site_id
 _symmetry_equiv_pos_as_xyz
  1  'x, y, z'
loop_
 _atom_site_type_symbol
 _atom_site_label
 _atom_site_symmetry_multiplicity
 _atom_site_fract_x
 _atom_site_fract_y
 _atom_site_fract_z
 _atom_site_occupancy
  Mg  Mg0  1  0.00000000  0.67659500  0.28978900  1
  Mg  Mg1  1  0.50000000  0.04121500  0.26354400  1
  Mg  Mg2  1  0.50000000  0.88362300  0.26062500  1
  Mg  Mg3  1  0.00000000  0.83418700  0.29270900  1
  Mg  Mg4  1  0.50000000  0.08617400  0.33163600  1
  Mg  Mg5  1  0.00000000  0.63163700  0.22169800  1
  Mg  Mg6  1  0.50000000  0.61500500  0.26173500  1
  Mg  Mg7  1  0.00000000  0.10280500  0.29159800  1
  Mg  Mg8  1  1.00000000  0.39812800  0.28575400  1
  Mg  Mg9  1  0.50000000  0.31968200  0.26757900  1
  Mg  Mg10  1  0.00000000  0.50284000  0.24830200  1
  Mg  Mg11  1  0.50000000  0.21497000  0.30503100  1
  Mg  Mg12  1  0.50000000  0.98146200  0.36908800  1
  Mg  Mg13  1  0.00000000  0.90301500  0.35091200  1
  Mg  Mg14  1  0.00000000  0.84326200  0.45645600  1
  Mg  Mg15  1  0.50000000  0.20788200  0.43021100  1
  Mg  Mg16  1  0.50000000  0.05029000  0.42729100  1
  Mg  Mg17  1  0.00000000  0.00085400  0.45937500  1
  Mg  Mg18  1  0.50000000  0.25284000  0.49830200  1
  Mg  Mg19  1  1.00000000  0.79830300  0.38836400  1
  Mg  Mg20  1  0.50000000  0.78167200  0.42840200  1
  Mg  Mg21  1  0.00000000  0.26947200  0.45826500  1
  Mg  Mg22  1  1.00000000  0.56479500  0.45242100  1
  Mg  Mg23  1  0.50000000  0.48634800  0.43424600  1
  Mg  Mg24  1  0.50000000  0.25992800  0.37312300  1
  Mg  Mg25  1  0.00000000  0.62454800  0.34687700  1
  Mg  Mg26  1  1.00000000  0.46695600  0.34395800  1
  Mg  Mg27  1  0.50000000  0.41752000  0.37604200  1
  Mg  Mg28  1  1.00000000  0.66950700  0.41496900  1
  Mg  Mg29  1  0.50000000  0.38163700  0.47169800  1
  Mg  Mg30  1  1.00000000  0.19833900  0.34506800  1
  Mg  Mg31  1  0.50000000  0.68613800  0.37493200  1
  Mg  Mg32  1  0.50000000  0.14812800  0.53575400  1
  Mg  Mg33  1  0.00000000  0.06968200  0.51757900  1
  Mg  Mg34  1  0.00000000  0.00992800  0.62312300  1
  Mg  Mg35  1  0.50000000  0.37454800  0.59687700  1
  Mg  Mg36  1  0.50000000  0.21695600  0.59395800  1
  Mg  Mg37  1  0.00000000  0.16752000  0.62604200  1
  Mg  Mg38  1  0.50000000  0.41950700  0.66496900  1
  Mg  Mg39  1  0.00000000  0.96497000  0.55503100  1
  Mg  Mg40  1  0.50000000  0.94833900  0.59506800  1
  Mg  Mg41  1  1.00000000  0.43613800  0.62493200  1
  Mg  Mg42  1  0.00000000  0.73146200  0.61908800  1
  Mg  Mg43  1  0.50000000  0.65301500  0.60091200  1
  Mg  Mg44  1  0.50000000  0.42659500  0.53978900  1
  Mg  Mg45  1  1.00000000  0.79121500  0.51354400  1
  Mg  Mg46  1  0.00000000  0.63362300  0.51062500  1
  Mg  Mg47  1  0.50000000  0.58418700  0.54270900  1
  Mg  Mg48  1  1.00000000  0.83617400  0.58163600  1
  Mg  Mg49  1  0.50000000  0.54830300  0.63836400  1
  Mg  Mg50  1  0.00000000  0.36500500  0.51173500  1
  Mg  Mg51  1  0.50000000  0.85280500  0.54159800  1
  Mg  Mg52  1  0.50000000  0.31479500  0.70242100  1
  Mg  Mg53  1  0.00000000  0.23634800  0.68424600  1
  Mg  Mg54  1  0.00000000  0.17659500  0.78978900  1
  Mg  Mg55  1  0.50000000  0.54121500  0.76354400  1
  Mg  Mg56  1  0.50000000  0.38362300  0.76062500  1
  Mg  Mg57  1  0.00000000  0.33418700  0.79270900  1
  Mg  Mg58  1  0.50000000  0.58617400  0.83163600  1
  Mg  Mg59  1  0.00000000  0.13163700  0.72169800  1
  Mg  Mg60  1  0.50000000  0.11500500  0.76173500  1
  Mg  Mg61  1  0.00000000  0.60280500  0.79159800  1
  Mg  Mg62  1  0.00000000  0.89812800  0.78575400  1
  Mg  Mg63  1  0.50000000  0.81968200  0.76757900  1
  Mg  Mg64  1  0.50000000  0.59326200  0.70645600  1
  Mg  Mg65  1  1.00000000  0.95788200  0.68021100  1
  Mg  Mg66  1  0.00000000  0.80029000  0.67729100  1
  Mg  Mg67  1  0.50000000  0.75085400  0.70937500  1
  Mg  Mg68  1  1.00000000  0.00284000  0.74830200  1
  Mg  Mg69  1  0.50000000  0.71497000  0.80503100  1
  Mg  Mg70  1  0.00000000  0.53167200  0.67840200  1
  Mg  Mg71  1  0.50000000  0.01947200  0.70826500  1
  Ir  Ir72  1  0.75048700  0.74544600  0.24526400  1
  Ir  Ir73  1  0.74951300  0.97236400  0.30806900  1
  Ir  Ir74  1  0.25048700  0.97236400  0.30806900  1
  Ir  Ir75  1  0.24951300  0.74544600  0.24526400  1
  Ir  Ir76  1  1.00000000  0.06723800  0.23500000  1
  Ir  Ir77  1  0.50000000  0.87104500  0.32284300  1
  Ir  Ir78  1  1.00000000  0.84676500  0.23049000  1
  Ir  Ir79  1  0.50000000  0.75824300  0.29017600  1
  Ir  Ir80  1  1.00000000  0.95956700  0.26315700  1
  Ir  Ir81  1  0.50000000  0.46269100  0.26157400  1
  Ir  Ir82  1  0.00000000  0.25512000  0.29176000  1
  Ir  Ir83  1  0.25048700  0.32877900  0.32859700  1
  Ir  Ir84  1  0.24951300  0.38903100  0.22473600  1
  Ir  Ir85  1  0.75048700  0.38903100  0.22473600  1
  Ir  Ir86  1  0.74951300  0.32877900  0.32859700  1
  Ir  Ir87  1  0.50000000  0.65057200  0.31833300  1
  Ir  Ir88  1  0.00000000  0.28771200  0.23951000  1
  Ir  Ir89  1  0.50000000  0.43009800  0.31382300  1
  Ir  Ir90  1  0.23393800  0.54091700  0.29944600  1
  Ir  Ir91  1  0.26606200  0.17689400  0.25388800  1
  Ir  Ir92  1  0.73393800  0.17689400  0.25388800  1
  Ir  Ir93  1  0.76606200  0.54091700  0.29944600  1
  Ir  Ir94  1  0.00000000  0.04602400  0.34490700  1
  Ir  Ir95  1  0.50000000  0.83845300  0.37509300  1
  Ir  Ir96  1  0.75048700  0.91211300  0.41193100  1
  Ir  Ir97  1  0.74951300  0.13903100  0.47473600  1
  Ir  Ir98  1  0.25048700  0.13903100  0.47473600  1
  Ir  Ir99  1  0.24951300  0.91211300  0.41193100  1
  Ir  Ir100  1  0.00000000  0.23390500  0.40166700  1
  Ir  Ir101  1  0.50000000  0.03771200  0.48951000  1
  Ir  Ir102  1  0.00000000  0.01343200  0.39715700  1
  Ir  Ir103  1  0.50000000  0.92491000  0.45684300  1
  Ir  Ir104  1  0.00000000  0.12623400  0.42982400  1
  Ir  Ir105  1  0.73393800  0.12425000  0.38277900  1
  Ir  Ir106  1  0.76606200  0.76022700  0.33722100  1
  Ir  Ir107  1  0.23393800  0.76022700  0.33722100  1
  Ir  Ir108  1  0.26606200  0.12425000  0.38277900  1
  Ir  Ir109  1  0.50000000  0.62935700  0.42824000  1
  Ir  Ir110  1  0.00000000  0.42178600  0.45842600  1
  Ir  Ir111  1  0.25048700  0.49544600  0.49526400  1
  Ir  Ir112  1  0.24951300  0.55569700  0.39140300  1
  Ir  Ir113  1  0.75048700  0.55569700  0.39140300  1
  Ir  Ir114  1  0.74951300  0.49544600  0.49526400  1
  Ir  Ir115  1  0.50000000  0.81723800  0.48500000  1
  Ir  Ir116  1  0.00000000  0.45437900  0.40617700  1
  Ir  Ir117  1  0.50000000  0.59676500  0.48049000  1
  Ir  Ir118  1  0.00000000  0.34157600  0.37350900  1
  Ir  Ir119  1  0.50000000  0.54290100  0.34649100  1
  Ir  Ir120  1  0.23393800  0.70758300  0.46611200  1
  Ir  Ir121  1  0.26606200  0.34356000  0.42055400  1
  Ir  Ir122  1  0.73393800  0.34356000  0.42055400  1
  Ir  Ir123  1  0.76606200  0.70758300  0.46611200  1
  Ir  Ir124  1  0.00000000  0.21269100  0.51157400  1
  Ir  Ir125  1  0.50000000  0.00512000  0.54176000  1
  Ir  Ir126  1  0.75048700  0.07877900  0.57859700  1
  Ir  Ir127  1  0.74951300  0.30569700  0.64140300  1
  Ir  Ir128  1  0.25048700  0.30569700  0.64140300  1
  Ir  Ir129  1  0.24951300  0.07877900  0.57859700  1
  Ir  Ir130  1  1.00000000  0.40057200  0.56833300  1
  Ir  Ir131  1  0.50000000  0.20437900  0.65617700  1
  Ir  Ir132  1  0.00000000  0.18009800  0.56382300  1
  Ir  Ir133  1  0.50000000  0.09157600  0.62350900  1
  Ir  Ir134  1  1.00000000  0.29290100  0.59649100  1
  Ir  Ir135  1  0.73393800  0.29091700  0.54944600  1
  Ir  Ir136  1  0.76606200  0.92689400  0.50388800  1
  Ir  Ir137  1  0.23393800  0.92689400  0.50388800  1
  Ir  Ir138  1  0.26606200  0.29091700  0.54944600  1
  Ir  Ir139  1  0.50000000  0.79602400  0.59490700  1
  Ir  Ir140  1  0.00000000  0.58845300  0.62509300  1
  Ir  Ir141  1  0.25048700  0.66211300  0.66193100  1
  Ir  Ir142  1  0.24951300  0.72236400  0.55806900  1
  Ir  Ir143  1  0.75048700  0.72236400  0.55806900  1
  Ir  Ir144  1  0.74951300  0.66211300  0.66193100  1
  Ir  Ir145  1  0.50000000  0.98390500  0.65166700  1
  Ir  Ir146  1  1.00000000  0.62104500  0.57284300  1
  Ir  Ir147  1  0.50000000  0.76343200  0.64715700  1
  Ir  Ir148  1  0.00000000  0.50824300  0.54017600  1
  Ir  Ir149  1  0.50000000  0.70956700  0.51315700  1
  Ir  Ir150  1  0.23393800  0.87425000  0.63277900  1
  Ir  Ir151  1  0.26606200  0.51022700  0.58722100  1
  Ir  Ir152  1  0.73393800  0.51022700  0.58722100  1
  Ir  Ir153  1  0.76606200  0.87425000  0.63277900  1
  Ir  Ir154  1  0.00000000  0.37935700  0.67824000  1
  Ir  Ir155  1  0.50000000  0.17178600  0.70842600  1
  Ir  Ir156  1  0.75048700  0.24544600  0.74526400  1
  Ir  Ir157  1  0.74951300  0.47236400  0.80806900  1
  Ir  Ir158  1  0.25048700  0.47236400  0.80806900  1
  Ir  Ir159  1  0.24951300  0.24544600  0.74526400  1
  Ir  Ir160  1  0.00000000  0.56723800  0.73500000  1
  Ir  Ir161  1  0.50000000  0.37104500  0.82284300  1
  Ir  Ir162  1  0.00000000  0.34676500  0.73049000  1
  Ir  Ir163  1  0.50000000  0.25824300  0.79017600  1
  Ir  Ir164  1  1.00000000  0.45956700  0.76315700  1
  Ir  Ir165  1  0.73393800  0.45758300  0.71611200  1
  Ir  Ir166  1  0.76606200  0.09356000  0.67055400  1
  Ir  Ir167  1  0.23393800  0.09356000  0.67055400  1
  Ir  Ir168  1  0.26606200  0.45758300  0.71611200  1
  Ir  Ir169  1  0.50000000  0.96269100  0.76157400  1
  Ir  Ir170  1  0.00000000  0.75512000  0.79176000  1
  Ir  Ir171  1  0.25048700  0.82877900  0.82859700  1
  Ir  Ir172  1  0.24951300  0.88903100  0.72473600  1
  Ir  Ir173  1  0.75048700  0.88903100  0.72473600  1
  Ir  Ir174  1  0.74951300  0.82877900  0.82859700  1
  Ir  Ir175  1  0.50000000  0.15057200  0.81833300  1
  Ir  Ir176  1  0.00000000  0.78771200  0.73951000  1
  Ir  Ir177  1  0.50000000  0.93009800  0.81382300  1
  Ir  Ir178  1  0.00000000  0.67491000  0.70684300  1
  Ir  Ir179  1  0.50000000  0.87623400  0.67982400  1
  Ir  Ir180  1  0.23393800  0.04091700  0.79944600  1
  Ir  Ir181  1  0.26606200  0.67689400  0.75388800  1
  Ir  Ir182  1  0.73393800  0.67689400  0.75388800  1
  Ir  Ir183  1  0.76606200  0.04091700  0.79944600  1
