# generated using pymatgen
data_La7Mg3
_symmetry_space_group_name_H-M   'P 1'
_cell_length_a   4.03112339
_cell_length_b   6.71963326
_cell_length_c   41.86088400
_cell_angle_alpha   88.80092433
_cell_angle_beta   89.91540209
_cell_angle_gamma   72.82133312
_symmetry_Int_Tables_number   1
_chemical_formula_structural   La7Mg3
_chemical_formula_sum   'La14 Mg6'
_cell_volume   1083.07777252
_cell_formula_units_Z   2
loop_
 _symmetry_equiv_pos_site_id
 _symmetry_equiv_pos_as_xyz
  1  'x, y, z'
loop_
 _atom_site_type_symbol
 _atom_site_label
 _atom_site_symmetry_multiplicity
 _atom_site_fract_x
 _atom_site_fract_y
 _atom_site_fract_z
 _atom_site_occupancy
  La  La0  1  0.62040400  0.40295100  0.22837000  1
  La  La1  1  0.89474700  0.84076600  0.25647900  1
  La  La2  1  0.52949500  0.58476900  0.31927900  1
  La  La3  1  0.80383800  0.02258400  0.34738800  1
  La  La4  1  0.43858600  0.76658800  0.41018800  1
  La  La5  1  0.71292900  0.20440300  0.43829700  1
  La  La6  1  0.34767700  0.94840600  0.50109700  1
  La  La7  1  0.62202000  0.38622100  0.52920600  1
  La  La8  1  0.25676800  0.13022400  0.59200600  1
  La  La9  1  0.53111100  0.56803900  0.62011500  1
  La  La10  1  0.16585900  0.31204200  0.68291500  1
  La  La11  1  0.44020200  0.74985700  0.71102400  1
  La  La12  1  0.07495000  0.49386000  0.77382400  1
  La  La13  1  0.34929300  0.93167500  0.80193300  1
  Mg  Mg14  1  0.21212100  0.21276800  0.28787900  1
  Mg  Mg15  1  0.12121200  0.39458600  0.37878800  1
  Mg  Mg16  1  0.03030300  0.57640400  0.46969700  1
  Mg  Mg17  1  0.93939400  0.75822200  0.56060600  1
  Mg  Mg18  1  0.84848500  0.94004100  0.65151500  1
  Mg  Mg19  1  0.75757600  0.12185900  0.74242400  1
