# generated using pymatgen
data_Mg11Zn6
_symmetry_space_group_name_H-M   'P 1'
_cell_length_a   3.10114600
_cell_length_b   16.29714987
_cell_length_c   46.90763000
_cell_angle_alpha   91.78078140
_cell_angle_beta   90.00000000
_cell_angle_gamma   90.00000000
_symmetry_Int_Tables_number   1
_chemical_formula_structural   Mg11Zn6
_chemical_formula_sum   'Mg44 Zn24'
_cell_volume   2369.55921295
_cell_formula_units_Z   4
loop_
 _symmetry_equiv_pos_site_id
 _symmetry_equiv_pos_as_xyz
  1  'x, y, z'
loop_
 _atom_site_type_symbol
 _atom_site_label
 _atom_site_symmetry_multiplicity
 _atom_site_fract_x
 _atom_site_fract_y
 _atom_site_fract_z
 _atom_site_occupancy
  Mg  Mg0  1  0.00000000  0.97045200  0.26803100  1
  Mg  Mg1  1  0.50000000  0.80367400  0.28656200  1
  Mg  Mg2  1  0.00000000  0.81178100  0.23010500  1
  Mg  Mg3  1  0.50000000  0.64500300  0.24863600  1
  Mg  Mg4  1  0.50000000  0.42045200  0.21803100  1
  Mg  Mg5  1  0.00000000  0.25367400  0.23656200  1
  Mg  Mg6  1  0.50000000  0.36178100  0.28010500  1
  Mg  Mg7  1  0.00000000  0.19500300  0.29863600  1
  Mg  Mg8  1  0.00000000  0.07045200  0.36803100  1
  Mg  Mg9  1  0.50000000  0.90367400  0.38656200  1
  Mg  Mg10  1  0.00000000  0.91178100  0.33010500  1
  Mg  Mg11  1  0.50000000  0.74500300  0.34863600  1
  Mg  Mg12  1  0.50000000  0.52045200  0.31803100  1
  Mg  Mg13  1  0.00000000  0.35367400  0.33656200  1
  Mg  Mg14  1  0.50000000  0.46178100  0.38010500  1
  Mg  Mg15  1  1.00000000  0.29500300  0.39863600  1
  Mg  Mg16  1  1.00000000  0.17045200  0.46803100  1
  Mg  Mg17  1  0.50000000  0.00367400  0.48656200  1
  Mg  Mg18  1  0.00000000  0.01178100  0.43010500  1
  Mg  Mg19  1  0.50000000  0.84500300  0.44863600  1
  Mg  Mg20  1  0.50000000  0.62045200  0.41803100  1
  Mg  Mg21  1  1.00000000  0.45367400  0.43656200  1
  Mg  Mg22  1  0.50000000  0.56178100  0.48010500  1
  Mg  Mg23  1  0.00000000  0.39500300  0.49863600  1
  Mg  Mg24  1  1.00000000  0.27045200  0.56803100  1
  Mg  Mg25  1  0.50000000  0.10367400  0.58656200  1
  Mg  Mg26  1  0.00000000  0.11178100  0.53010500  1
  Mg  Mg27  1  0.50000000  0.94500300  0.54863600  1
  Mg  Mg28  1  0.50000000  0.72045200  0.51803100  1
  Mg  Mg29  1  0.00000000  0.55367400  0.53656200  1
  Mg  Mg30  1  0.50000000  0.66178100  0.58010500  1
  Mg  Mg31  1  1.00000000  0.49500300  0.59863600  1
  Mg  Mg32  1  0.00000000  0.37045200  0.66803100  1
  Mg  Mg33  1  0.50000000  0.20367400  0.68656200  1
  Mg  Mg34  1  0.00000000  0.21178100  0.63010500  1
  Mg  Mg35  1  0.50000000  0.04500300  0.64863600  1
  Mg  Mg36  1  0.50000000  0.82045200  0.61803100  1
  Mg  Mg37  1  1.00000000  0.65367400  0.63656200  1
  Mg  Mg38  1  0.50000000  0.76178100  0.68010500  1
  Mg  Mg39  1  0.00000000  0.59500300  0.69863600  1
  Mg  Mg40  1  0.00000000  0.31178100  0.73010500  1
  Mg  Mg41  1  0.50000000  0.14500300  0.74863600  1
  Mg  Mg42  1  0.50000000  0.92045200  0.71803100  1
  Mg  Mg43  1  0.00000000  0.75367400  0.73656200  1
  Zn  Zn44  1  0.00000000  0.55954700  0.20257600  1
  Zn  Zn45  1  0.50000000  0.95590800  0.21409100  1
  Zn  Zn46  1  0.50000000  0.10954700  0.25257600  1
  Zn  Zn47  1  0.00000000  0.50590800  0.26409100  1
  Zn  Zn48  1  0.00000000  0.65954700  0.30257600  1
  Zn  Zn49  1  0.50000000  0.05590800  0.31409100  1
  Zn  Zn50  1  0.50000000  0.20954700  0.35257600  1
  Zn  Zn51  1  0.00000000  0.60590800  0.36409100  1
  Zn  Zn52  1  0.00000000  0.75954700  0.40257600  1
  Zn  Zn53  1  0.50000000  0.15590800  0.41409100  1
  Zn  Zn54  1  0.50000000  0.30954700  0.45257600  1
  Zn  Zn55  1  0.00000000  0.70590800  0.46409100  1
  Zn  Zn56  1  0.00000000  0.85954700  0.50257600  1
  Zn  Zn57  1  0.50000000  0.25590800  0.51409100  1
  Zn  Zn58  1  0.50000000  0.40954700  0.55257600  1
  Zn  Zn59  1  0.00000000  0.80590800  0.56409100  1
  Zn  Zn60  1  0.00000000  0.95954700  0.60257600  1
  Zn  Zn61  1  0.50000000  0.35590800  0.61409100  1
  Zn  Zn62  1  0.50000000  0.50954700  0.65257600  1
  Zn  Zn63  1  0.00000000  0.90590800  0.66409100  1
  Zn  Zn64  1  0.00000000  0.05954700  0.70257600  1
  Zn  Zn65  1  0.50000000  0.45590800  0.71409100  1
  Zn  Zn66  1  0.50000000  0.60954700  0.75257600  1
  Zn  Zn67  1  0.00000000  0.00590800  0.76409100  1
