# generated using pymatgen
data_Y11Mg12
_symmetry_space_group_name_H-M   'P 1'
_cell_length_a   5.38094315
_cell_length_b   5.38094244
_cell_length_c   41.85391200
_cell_angle_alpha   93.68565265
_cell_angle_beta   93.68565216
_cell_angle_gamma   59.99999946
_symmetry_Int_Tables_number   1
_chemical_formula_structural   Y11Mg12
_chemical_formula_sum   'Y11 Mg12'
_cell_volume   1046.60721739
_cell_formula_units_Z   1
loop_
 _symmetry_equiv_pos_site_id
 _symmetry_equiv_pos_as_xyz
  1  'x, y, z'
loop_
 _atom_site_type_symbol
 _atom_site_label
 _atom_site_symmetry_multiplicity
 _atom_site_fract_x
 _atom_site_fract_y
 _atom_site_fract_z
 _atom_site_occupancy
  Y  Y0  1  0.76315800  0.76315800  0.22368400  1
  Y  Y1  1  0.44736800  0.44736800  0.27631600  1
  Y  Y2  1  0.13157900  0.13157900  0.32894700  1
  Y  Y3  1  0.81578900  0.81578900  0.38157900  1
  Y  Y4  1  0.50000000  0.50000000  0.43421100  1
  Y  Y5  1  0.18421100  0.18421100  0.48684200  1
  Y  Y6  1  0.86842100  0.86842100  0.53947400  1
  Y  Y7  1  0.55263200  0.55263200  0.59210500  1
  Y  Y8  1  0.23684200  0.23684200  0.64473700  1
  Y  Y9  1  0.92105300  0.92105300  0.69736800  1
  Y  Y10  1  0.60526300  0.60526300  0.75000000  1
  Mg  Mg11  1  0.42105300  0.42105300  0.19736800  1
  Mg  Mg12  1  0.10526300  0.10526300  0.25000000  1
  Mg  Mg13  1  0.78947400  0.78947400  0.30263200  1
  Mg  Mg14  1  0.47368400  0.47368400  0.35526300  1
  Mg  Mg15  1  0.15789500  0.15789500  0.40789500  1
  Mg  Mg16  1  0.84210500  0.84210500  0.46052600  1
  Mg  Mg17  1  0.52631600  0.52631600  0.51315800  1
  Mg  Mg18  1  0.21052600  0.21052600  0.56578900  1
  Mg  Mg19  1  0.89473700  0.89473700  0.61842100  1
  Mg  Mg20  1  0.57894700  0.57894700  0.67105300  1
  Mg  Mg21  1  0.26315800  0.26315800  0.72368400  1
  Mg  Mg22  1  0.94736800  0.94736800  0.77631600  1
