# generated using pymatgen
data_Mg2Cd
_symmetry_space_group_name_H-M   'P 1'
_cell_length_a   6.08289775
_cell_length_b   16.11607500
_cell_length_c   43.35524500
_cell_angle_alpha   90.00000000
_cell_angle_beta   92.81454033
_cell_angle_gamma   90.00000000
_symmetry_Int_Tables_number   1
_chemical_formula_structural   Mg2Cd
_chemical_formula_sum   'Mg80 Cd40'
_cell_volume   4245.09329006
_cell_formula_units_Z   40
loop_
 _symmetry_equiv_pos_site_id
 _symmetry_equiv_pos_as_xyz
  1  'x, y, z'
loop_
 _atom_site_type_symbol
 _atom_site_label
 _atom_site_symmetry_multiplicity
 _atom_site_fract_x
 _atom_site_fract_y
 _atom_site_fract_z
 _atom_site_occupancy
  Mg  Mg0  1  0.18750000  0.55580300  0.20312500  1
  Mg  Mg1  1  0.06250000  0.72512500  0.23437500  1
  Mg  Mg2  1  0.56250000  0.77487500  0.23437500  1
  Mg  Mg3  1  0.68750000  0.94419700  0.20312500  1
  Mg  Mg4  1  0.06250000  0.05580300  0.23437500  1
  Mg  Mg5  1  0.18750000  0.22512500  0.20312500  1
  Mg  Mg6  1  0.68750000  0.27487500  0.20312500  1
  Mg  Mg7  1  0.56250000  0.44419700  0.23437500  1
  Mg  Mg8  1  0.93750000  0.55580300  0.26562500  1
  Mg  Mg9  1  0.81250000  0.72512500  0.29687500  1
  Mg  Mg10  1  0.31250000  0.77487500  0.29687500  1
  Mg  Mg11  1  0.43750000  0.94419700  0.26562500  1
  Mg  Mg12  1  0.81250000  0.05580300  0.29687500  1
  Mg  Mg13  1  0.93750000  0.22512500  0.26562500  1
  Mg  Mg14  1  0.43750000  0.27487500  0.26562500  1
  Mg  Mg15  1  0.31250000  0.44419700  0.29687500  1
  Mg  Mg16  1  0.68750000  0.55580300  0.32812500  1
  Mg  Mg17  1  0.56250000  0.72512500  0.35937500  1
  Mg  Mg18  1  0.06250000  0.77487500  0.35937500  1
  Mg  Mg19  1  0.18750000  0.94419700  0.32812500  1
  Mg  Mg20  1  0.56250000  0.05580300  0.35937500  1
  Mg  Mg21  1  0.68750000  0.22512500  0.32812500  1
  Mg  Mg22  1  0.18750000  0.27487500  0.32812500  1
  Mg  Mg23  1  0.06250000  0.44419700  0.35937500  1
  Mg  Mg24  1  0.43750000  0.55580300  0.39062500  1
  Mg  Mg25  1  0.31250000  0.72512500  0.42187500  1
  Mg  Mg26  1  0.81250000  0.77487500  0.42187500  1
  Mg  Mg27  1  0.93750000  0.94419700  0.39062500  1
  Mg  Mg28  1  0.31250000  0.05580300  0.42187500  1
  Mg  Mg29  1  0.43750000  0.22512500  0.39062500  1
  Mg  Mg30  1  0.93750000  0.27487500  0.39062500  1
  Mg  Mg31  1  0.81250000  0.44419700  0.42187500  1
  Mg  Mg32  1  0.18750000  0.55580300  0.45312500  1
  Mg  Mg33  1  0.06250000  0.72512500  0.48437500  1
  Mg  Mg34  1  0.56250000  0.77487500  0.48437500  1
  Mg  Mg35  1  0.68750000  0.94419700  0.45312500  1
  Mg  Mg36  1  0.06250000  0.05580300  0.48437500  1
  Mg  Mg37  1  0.18750000  0.22512500  0.45312500  1
  Mg  Mg38  1  0.68750000  0.27487500  0.45312500  1
  Mg  Mg39  1  0.56250000  0.44419700  0.48437500  1
  Mg  Mg40  1  0.93750000  0.55580300  0.51562500  1
  Mg  Mg41  1  0.81250000  0.72512500  0.54687500  1
  Mg  Mg42  1  0.31250000  0.77487500  0.54687500  1
  Mg  Mg43  1  0.43750000  0.94419700  0.51562500  1
  Mg  Mg44  1  0.81250000  0.05580300  0.54687500  1
  Mg  Mg45  1  0.93750000  0.22512500  0.51562500  1
  Mg  Mg46  1  0.43750000  0.27487500  0.51562500  1
  Mg  Mg47  1  0.31250000  0.44419700  0.54687500  1
  Mg  Mg48  1  0.68750000  0.55580300  0.57812500  1
  Mg  Mg49  1  0.56250000  0.72512500  0.60937500  1
  Mg  Mg50  1  0.06250000  0.77487500  0.60937500  1
  Mg  Mg51  1  0.18750000  0.94419700  0.57812500  1
  Mg  Mg52  1  0.56250000  0.05580300  0.60937500  1
  Mg  Mg53  1  0.68750000  0.22512500  0.57812500  1
  Mg  Mg54  1  0.18750000  0.27487500  0.57812500  1
  Mg  Mg55  1  0.06250000  0.44419700  0.60937500  1
  Mg  Mg56  1  0.43750000  0.55580300  0.64062500  1
  Mg  Mg57  1  0.31250000  0.72512500  0.67187500  1
  Mg  Mg58  1  0.81250000  0.77487500  0.67187500  1
  Mg  Mg59  1  0.93750000  0.94419700  0.64062500  1
  Mg  Mg60  1  0.31250000  0.05580300  0.67187500  1
  Mg  Mg61  1  0.43750000  0.22512500  0.64062500  1
  Mg  Mg62  1  0.93750000  0.27487500  0.64062500  1
  Mg  Mg63  1  0.81250000  0.44419700  0.67187500  1
  Mg  Mg64  1  0.18750000  0.55580300  0.70312500  1
  Mg  Mg65  1  0.06250000  0.72512500  0.73437500  1
  Mg  Mg66  1  0.56250000  0.77487500  0.73437500  1
  Mg  Mg67  1  0.68750000  0.94419700  0.70312500  1
  Mg  Mg68  1  0.06250000  0.05580300  0.73437500  1
  Mg  Mg69  1  0.18750000  0.22512500  0.70312500  1
  Mg  Mg70  1  0.68750000  0.27487500  0.70312500  1
  Mg  Mg71  1  0.56250000  0.44419700  0.73437500  1
  Mg  Mg72  1  0.93750000  0.55580300  0.76562500  1
  Mg  Mg73  1  0.81250000  0.72512500  0.79687500  1
  Mg  Mg74  1  0.31250000  0.77487500  0.79687500  1
  Mg  Mg75  1  0.43750000  0.94419700  0.76562500  1
  Mg  Mg76  1  0.81250000  0.05580300  0.79687500  1
  Mg  Mg77  1  0.93750000  0.22512500  0.76562500  1
  Mg  Mg78  1  0.43750000  0.27487500  0.76562500  1
  Mg  Mg79  1  0.31250000  0.44419700  0.79687500  1
  Cd  Cd80  1  0.18750000  0.88819600  0.20312500  1
  Cd  Cd81  1  0.68750000  0.61180400  0.20312500  1
  Cd  Cd82  1  0.06250000  0.38819600  0.23437500  1
  Cd  Cd83  1  0.56250000  0.11180400  0.23437500  1
  Cd  Cd84  1  0.93750000  0.88819600  0.26562500  1
  Cd  Cd85  1  0.43750000  0.61180400  0.26562500  1
  Cd  Cd86  1  0.81250000  0.38819600  0.29687500  1
  Cd  Cd87  1  0.31250000  0.11180400  0.29687500  1
  Cd  Cd88  1  0.68750000  0.88819600  0.32812500  1
  Cd  Cd89  1  0.18750000  0.61180400  0.32812500  1
  Cd  Cd90  1  0.56250000  0.38819600  0.35937500  1
  Cd  Cd91  1  0.06250000  0.11180400  0.35937500  1
  Cd  Cd92  1  0.43750000  0.88819600  0.39062500  1
  Cd  Cd93  1  0.93750000  0.61180400  0.39062500  1
  Cd  Cd94  1  0.31250000  0.38819600  0.42187500  1
  Cd  Cd95  1  0.81250000  0.11180400  0.42187500  1
  Cd  Cd96  1  0.18750000  0.88819600  0.45312500  1
  Cd  Cd97  1  0.68750000  0.61180400  0.45312500  1
  Cd  Cd98  1  0.06250000  0.38819600  0.48437500  1
  Cd  Cd99  1  0.56250000  0.11180400  0.48437500  1
  Cd  Cd100  1  0.93750000  0.88819600  0.51562500  1
  Cd  Cd101  1  0.43750000  0.61180400  0.51562500  1
  Cd  Cd102  1  0.81250000  0.38819600  0.54687500  1
  Cd  Cd103  1  0.31250000  0.11180400  0.54687500  1
  Cd  Cd104  1  0.68750000  0.88819600  0.57812500  1
  Cd  Cd105  1  0.18750000  0.61180400  0.57812500  1
  Cd  Cd106  1  0.56250000  0.38819600  0.60937500  1
  Cd  Cd107  1  0.06250000  0.11180400  0.60937500  1
  Cd  Cd108  1  0.43750000  0.88819600  0.64062500  1
  Cd  Cd109  1  0.93750000  0.61180400  0.64062500  1
  Cd  Cd110  1  0.31250000  0.38819600  0.67187500  1
  Cd  Cd111  1  0.81250000  0.11180400  0.67187500  1
  Cd  Cd112  1  0.18750000  0.88819600  0.70312500  1
  Cd  Cd113  1  0.68750000  0.61180400  0.70312500  1
  Cd  Cd114  1  0.06250000  0.38819600  0.73437500  1
  Cd  Cd115  1  0.56250000  0.11180400  0.73437500  1
  Cd  Cd116  1  0.93750000  0.88819600  0.76562500  1
  Cd  Cd117  1  0.43750000  0.61180400  0.76562500  1
  Cd  Cd118  1  0.81250000  0.38819600  0.79687500  1
  Cd  Cd119  1  0.31250000  0.11180400  0.79687500  1
