# generated using pymatgen
data_MgCd3
_symmetry_space_group_name_H-M   'P 1'
_cell_length_a   6.29994100
_cell_length_b   8.11902589
_cell_length_c   44.89839300
_cell_angle_alpha   93.33807398
_cell_angle_beta   90.00000000
_cell_angle_gamma   67.17150525
_symmetry_Int_Tables_number   1
_chemical_formula_structural   MgCd3
_chemical_formula_sum   'Mg14 Cd42'
_cell_volume   2112.41086475
_cell_formula_units_Z   14
loop_
 _symmetry_equiv_pos_site_id
 _symmetry_equiv_pos_as_xyz
  1  'x, y, z'
loop_
 _atom_site_type_symbol
 _atom_site_label
 _atom_site_symmetry_multiplicity
 _atom_site_fract_x
 _atom_site_fract_y
 _atom_site_fract_z
 _atom_site_occupancy
  Mg  Mg0  1  0.64583300  0.70833300  0.21527800  1
  Mg  Mg1  1  0.10416700  0.79166700  0.28472200  1
  Mg  Mg2  1  0.39583300  0.20833300  0.29861100  1
  Mg  Mg3  1  0.85416700  0.29166700  0.36805600  1
  Mg  Mg4  1  0.14583300  0.70833300  0.38194400  1
  Mg  Mg5  1  0.60416700  0.79166700  0.45138900  1
  Mg  Mg6  1  0.89583300  0.20833300  0.46527800  1
  Mg  Mg7  1  0.35416700  0.29166700  0.53472200  1
  Mg  Mg8  1  0.64583300  0.70833300  0.54861100  1
  Mg  Mg9  1  0.10416700  0.79166700  0.61805600  1
  Mg  Mg10  1  0.39583300  0.20833300  0.63194400  1
  Mg  Mg11  1  0.85416700  0.29166700  0.70138900  1
  Mg  Mg12  1  0.14583300  0.70833300  0.71527800  1
  Mg  Mg13  1  0.60416700  0.79166700  0.78472200  1
  Cd  Cd14  1  0.02110200  0.45844100  0.25692700  1
  Cd  Cd15  1  0.72889800  0.04155900  0.24307300  1
  Cd  Cd16  1  0.22954200  0.04155900  0.24307300  1
  Cd  Cd17  1  0.14594100  0.70811900  0.21531400  1
  Cd  Cd18  1  0.52045800  0.45844100  0.25692700  1
  Cd  Cd19  1  0.60405900  0.79188100  0.28468600  1
  Cd  Cd20  1  0.77110200  0.95844100  0.34026000  1
  Cd  Cd21  1  0.47889800  0.54155900  0.32640700  1
  Cd  Cd22  1  0.97954200  0.54155900  0.32640700  1
  Cd  Cd23  1  0.89594100  0.20811900  0.29864700  1
  Cd  Cd24  1  0.27045800  0.95844100  0.34026000  1
  Cd  Cd25  1  0.35405900  0.29188100  0.36802000  1
  Cd  Cd26  1  0.52110200  0.45844100  0.42359300  1
  Cd  Cd27  1  0.22889800  0.04155900  0.40974000  1
  Cd  Cd28  1  0.72954200  0.04155900  0.40974000  1
  Cd  Cd29  1  0.64594100  0.70811900  0.38198000  1
  Cd  Cd30  1  0.02045800  0.45844100  0.42359300  1
  Cd  Cd31  1  0.10405900  0.79188100  0.45135300  1
  Cd  Cd32  1  0.27110200  0.95844100  0.50692700  1
  Cd  Cd33  1  0.97889800  0.54155900  0.49307300  1
  Cd  Cd34  1  0.47954200  0.54155900  0.49307300  1
  Cd  Cd35  1  0.39594100  0.20811900  0.46531400  1
  Cd  Cd36  1  0.77045800  0.95844100  0.50692700  1
  Cd  Cd37  1  0.85405900  0.29188100  0.53468600  1
  Cd  Cd38  1  0.02110200  0.45844100  0.59026000  1
  Cd  Cd39  1  0.72889800  0.04155900  0.57640700  1
  Cd  Cd40  1  0.22954200  0.04155900  0.57640700  1
  Cd  Cd41  1  0.14594100  0.70811900  0.54864700  1
  Cd  Cd42  1  0.52045800  0.45844100  0.59026000  1
  Cd  Cd43  1  0.60405900  0.79188100  0.61802000  1
  Cd  Cd44  1  0.77110200  0.95844100  0.67359300  1
  Cd  Cd45  1  0.47889800  0.54155900  0.65974000  1
  Cd  Cd46  1  0.97954200  0.54155900  0.65974000  1
  Cd  Cd47  1  0.89594100  0.20811900  0.63198000  1
  Cd  Cd48  1  0.27045800  0.95844100  0.67359300  1
  Cd  Cd49  1  0.35405900  0.29188100  0.70135300  1
  Cd  Cd50  1  0.52110200  0.45844100  0.75692700  1
  Cd  Cd51  1  0.22889800  0.04155900  0.74307300  1
  Cd  Cd52  1  0.72954200  0.04155900  0.74307300  1
  Cd  Cd53  1  0.64594100  0.70811900  0.71531400  1
  Cd  Cd54  1  0.02045800  0.45844100  0.75692700  1
  Cd  Cd55  1  0.10405900  0.79188100  0.78468600  1
