# generated using pymatgen
data_Mg12Tl5
_symmetry_space_group_name_H-M   'P 1'
_cell_length_a   7.14576700
_cell_length_b   8.77491584
_cell_length_c   46.68731700
_cell_angle_alpha   94.44679253
_cell_angle_beta   90.00000000
_cell_angle_gamma   114.02718588
_symmetry_Int_Tables_number   1
_chemical_formula_structural   Mg12Tl5
_chemical_formula_sum   'Mg48 Tl20'
_cell_volume   2664.14978339
_cell_formula_units_Z   4
loop_
 _symmetry_equiv_pos_site_id
 _symmetry_equiv_pos_as_xyz
  1  'x, y, z'
loop_
 _atom_site_type_symbol
 _atom_site_label
 _atom_site_symmetry_multiplicity
 _atom_site_fract_x
 _atom_site_fract_y
 _atom_site_fract_z
 _atom_site_occupancy
  Mg  Mg0  1  0.08426400  0.83889100  0.81081000  1
  Mg  Mg1  1  0.85596600  0.71193100  0.69459900  1
  Mg  Mg2  1  0.52502600  0.05005100  0.79017900  1
  Mg  Mg3  1  0.29542500  0.26121200  0.76954700  1
  Mg  Mg4  1  0.02828700  0.38621200  0.70704700  1
  Mg  Mg5  1  0.38158600  0.76317100  0.69825900  1
  Mg  Mg6  1  0.31908600  0.63817100  0.76075900  1
  Mg  Mg7  1  0.79346600  0.58693100  0.75709900  1
  Mg  Mg8  1  0.81712600  0.96389100  0.74831000  1
  Mg  Mg9  1  0.58752600  0.17505100  0.72767900  1
  Mg  Mg10  1  0.20926400  0.08889100  0.68581000  1
  Mg  Mg11  1  0.98096600  0.96193100  0.56959900  1
  Mg  Mg12  1  0.65002600  0.30005100  0.66517900  1
  Mg  Mg13  1  0.42042500  0.51121200  0.64454700  1
  Mg  Mg14  1  0.15328700  0.63621200  0.58204700  1
  Mg  Mg15  1  0.50658600  0.01317100  0.57325900  1
  Mg  Mg16  1  0.44408600  0.88817100  0.63575900  1
  Mg  Mg17  1  0.91846600  0.83693100  0.63209900  1
  Mg  Mg18  1  0.94212600  0.21389100  0.62331000  1
  Mg  Mg19  1  0.71252600  0.42505100  0.60267900  1
  Mg  Mg20  1  0.33426400  0.33889100  0.56081000  1
  Mg  Mg21  1  0.10596600  0.21193100  0.44459900  1
  Mg  Mg22  1  0.77502600  0.55005100  0.54017900  1
  Mg  Mg23  1  0.54542500  0.76121200  0.51954700  1
  Mg  Mg24  1  0.27828700  0.88621200  0.45704700  1
  Mg  Mg25  1  0.63158600  0.26317100  0.44825900  1
  Mg  Mg26  1  0.56908600  0.13817100  0.51075900  1
  Mg  Mg27  1  0.04346600  0.08693100  0.50709900  1
  Mg  Mg28  1  0.06712600  0.46389100  0.49831000  1
  Mg  Mg29  1  0.83752600  0.67505100  0.47767900  1
  Mg  Mg30  1  0.45926400  0.58889100  0.43581000  1
  Mg  Mg31  1  0.23096600  0.46193100  0.31959900  1
  Mg  Mg32  1  0.90002600  0.80005100  0.41517900  1
  Mg  Mg33  1  0.67042500  0.01121200  0.39454700  1
  Mg  Mg34  1  0.40328700  0.13621200  0.33204700  1
  Mg  Mg35  1  0.75658600  0.51317100  0.32325900  1
  Mg  Mg36  1  0.69408600  0.38817100  0.38575900  1
  Mg  Mg37  1  0.16846600  0.33693100  0.38209900  1
  Mg  Mg38  1  0.19212600  0.71389100  0.37331000  1
  Mg  Mg39  1  0.96252600  0.92505100  0.35267900  1
  Mg  Mg40  1  0.58426400  0.83889100  0.31081000  1
  Mg  Mg41  1  0.02502600  0.05005100  0.29017900  1
  Mg  Mg42  1  0.79542500  0.26121200  0.26954700  1
  Mg  Mg43  1  0.52828700  0.38621200  0.20704700  1
  Mg  Mg44  1  0.81908600  0.63817100  0.26075900  1
  Mg  Mg45  1  0.29346600  0.58693100  0.25709900  1
  Mg  Mg46  1  0.31712600  0.96389100  0.24831000  1
  Mg  Mg47  1  0.08752600  0.17505100  0.22767900  1
  Tl  Tl48  1  0.46204000  0.45075400  0.71165700  1
  Tl  Tl49  1  0.18633700  0.89934800  0.74370000  1
  Tl  Tl50  1  0.92621500  0.32575400  0.77415700  1
  Tl  Tl51  1  0.65051200  0.77434800  0.80620000  1
  Tl  Tl52  1  0.58704000  0.70075400  0.58665700  1
  Tl  Tl53  1  0.31133700  0.14934800  0.61870000  1
  Tl  Tl54  1  0.05121500  0.57575400  0.64915700  1
  Tl  Tl55  1  0.77551200  0.02434800  0.68120000  1
  Tl  Tl56  1  0.71204000  0.95075400  0.46165700  1
  Tl  Tl57  1  0.43633700  0.39934800  0.49370000  1
  Tl  Tl58  1  0.17621500  0.82575400  0.52415700  1
  Tl  Tl59  1  0.90051200  0.27434800  0.55620000  1
  Tl  Tl60  1  0.83704000  0.20075400  0.33665700  1
  Tl  Tl61  1  0.56133700  0.64934800  0.36870000  1
  Tl  Tl62  1  0.30121500  0.07575400  0.39915700  1
  Tl  Tl63  1  0.02551200  0.52434800  0.43120000  1
  Tl  Tl64  1  0.96204000  0.45075400  0.21165700  1
  Tl  Tl65  1  0.68633700  0.89934800  0.24370000  1
  Tl  Tl66  1  0.42621500  0.32575400  0.27415700  1
  Tl  Tl67  1  0.15051200  0.77434800  0.30620000  1
