# generated using pymatgen
data_Mg29Hg15
_symmetry_space_group_name_H-M   'P 1'
_cell_length_a   7.97718666
_cell_length_b   9.83847239
_cell_length_c   45.39858300
_cell_angle_alpha   91.26955969
_cell_angle_beta   89.07673454
_cell_angle_gamma   73.25679879
_symmetry_Int_Tables_number   1
_chemical_formula_structural   Mg29Hg15
_chemical_formula_sum   'Mg58 Hg30'
_cell_volume   3410.19980381
_cell_formula_units_Z   2
loop_
 _symmetry_equiv_pos_site_id
 _symmetry_equiv_pos_as_xyz
  1  'x, y, z'
loop_
 _atom_site_type_symbol
 _atom_site_label
 _atom_site_symmetry_multiplicity
 _atom_site_fract_x
 _atom_site_fract_y
 _atom_site_fract_z
 _atom_site_occupancy
  Mg  Mg0  1  0.30206800  0.12879300  0.23811700  1
  Mg  Mg1  1  0.32349400  0.68398800  0.24906300  1
  Mg  Mg2  1  0.93219500  0.27094300  0.20558500  1
  Mg  Mg3  1  0.00105900  0.69568400  0.20467100  1
  Mg  Mg4  1  0.53165800  0.36510000  0.23324500  1
  Mg  Mg5  1  0.09390400  0.44768100  0.25393500  1
  Mg  Mg6  1  0.99351600  0.96998900  0.24278000  1
  Mg  Mg7  1  0.63204600  0.84279200  0.24439900  1
  Mg  Mg8  1  0.99437600  0.97494700  0.31504000  1
  Mg  Mg9  1  0.01580200  0.53014200  0.32598600  1
  Mg  Mg10  1  0.62450300  0.11709700  0.28250800  1
  Mg  Mg11  1  0.69336700  0.54183800  0.28159400  1
  Mg  Mg12  1  0.22396500  0.21125400  0.31016800  1
  Mg  Mg13  1  0.78621200  0.29383500  0.33085800  1
  Mg  Mg14  1  0.68582400  0.81614300  0.31970300  1
  Mg  Mg15  1  0.32435300  0.68894600  0.32132200  1
  Mg  Mg16  1  0.68668300  0.82110100  0.39196300  1
  Mg  Mg17  1  0.70810900  0.37629500  0.40290900  1
  Mg  Mg18  1  0.31681100  0.96325100  0.35943100  1
  Mg  Mg19  1  0.38567400  0.38799200  0.35851800  1
  Mg  Mg20  1  0.91627300  0.05740800  0.38709100  1
  Mg  Mg21  1  0.47852000  0.13998900  0.40778100  1
  Mg  Mg22  1  0.37813200  0.66229700  0.39662600  1
  Mg  Mg23  1  0.01666100  0.53509900  0.39824500  1
  Mg  Mg24  1  0.37899100  0.66725500  0.46888600  1
  Mg  Mg25  1  0.40041700  0.22244900  0.47983200  1
  Mg  Mg26  1  0.00911800  0.80940500  0.43635400  1
  Mg  Mg27  1  0.07798200  0.23414600  0.43544100  1
  Mg  Mg28  1  0.60858100  0.90356200  0.46401400  1
  Mg  Mg29  1  0.17082700  0.98614200  0.48470400  1
  Mg  Mg30  1  0.07043900  0.50845100  0.47355000  1
  Mg  Mg31  1  0.70896900  0.38125300  0.47516800  1
  Mg  Mg32  1  0.07129900  0.51340900  0.54580900  1
  Mg  Mg33  1  0.09272500  0.06860300  0.55675500  1
  Mg  Mg34  1  0.70142600  0.65555800  0.51327700  1
  Mg  Mg35  1  0.77029000  0.08029900  0.51236400  1
  Mg  Mg36  1  0.30088900  0.74971500  0.54093700  1
  Mg  Mg37  1  0.86313500  0.83229600  0.56162700  1
  Mg  Mg38  1  0.76274700  0.35460500  0.55047300  1
  Mg  Mg39  1  0.40127600  0.22740700  0.55209100  1
  Mg  Mg40  1  0.76360600  0.35956200  0.62273200  1
  Mg  Mg41  1  0.78503200  0.91475700  0.63367800  1
  Mg  Mg42  1  0.39373400  0.50171200  0.59020000  1
  Mg  Mg43  1  0.46259700  0.92645300  0.58928700  1
  Mg  Mg44  1  0.99319600  0.59586900  0.61786000  1
  Mg  Mg45  1  0.55544300  0.67845000  0.63855000  1
  Mg  Mg46  1  0.45505500  0.20075900  0.62739600  1
  Mg  Mg47  1  0.09358400  0.07356100  0.62901500  1
  Mg  Mg48  1  0.45591400  0.20571600  0.69965500  1
  Mg  Mg49  1  0.47734000  0.76091100  0.71060100  1
  Mg  Mg50  1  0.08604200  0.34786600  0.66712300  1
  Mg  Mg51  1  0.15490500  0.77260700  0.66621000  1
  Mg  Mg52  1  0.68550400  0.44202300  0.69478300  1
  Mg  Mg53  1  0.24775000  0.52460400  0.71547300  1
  Mg  Mg54  1  0.14736200  0.04691200  0.70431900  1
  Mg  Mg55  1  0.78589200  0.91971500  0.70593800  1
  Mg  Mg56  1  0.77834900  0.19402000  0.74404700  1
  Mg  Mg57  1  0.84721300  0.61876100  0.74313300  1
  Hg  Hg58  1  0.27058800  0.88696300  0.19907300  1
  Hg  Hg59  1  0.66266600  0.07966400  0.21118400  1
  Hg  Hg60  1  0.70384200  0.57051400  0.21575900  1
  Hg  Hg61  1  0.92172000  0.24226700  0.27142100  1
  Hg  Hg62  1  0.96289500  0.73311700  0.27599600  1
  Hg  Hg63  1  0.35497400  0.92581800  0.28810700  1
  Hg  Hg64  1  0.39615000  0.41666800  0.29268200  1
  Hg  Hg65  1  0.61402800  0.08842100  0.34834400  1
  Hg  Hg66  1  0.65520300  0.57927100  0.35291900  1
  Hg  Hg67  1  0.04728200  0.77197200  0.36503000  1
  Hg  Hg68  1  0.08845700  0.26282200  0.36960500  1
  Hg  Hg69  1  0.30633500  0.93457500  0.42526700  1
  Hg  Hg70  1  0.34751100  0.42542500  0.42984200  1
  Hg  Hg71  1  0.73958900  0.61812600  0.44195300  1
  Hg  Hg72  1  0.78076500  0.10897600  0.44652800  1
  Hg  Hg73  1  0.99864300  0.78072800  0.50219000  1
  Hg  Hg74  1  0.03981900  0.27157800  0.50676500  1
  Hg  Hg75  1  0.43189700  0.46428000  0.51887600  1
  Hg  Hg76  1  0.47307300  0.95512900  0.52345100  1
  Hg  Hg77  1  0.69095100  0.62688200  0.57911300  1
  Hg  Hg78  1  0.73212600  0.11773200  0.58368800  1
  Hg  Hg79  1  0.12420500  0.31043300  0.59579900  1
  Hg  Hg80  1  0.16538000  0.80128300  0.60037400  1
  Hg  Hg81  1  0.38325800  0.47303600  0.65603600  1
  Hg  Hg82  1  0.42443400  0.96388600  0.66061100  1
  Hg  Hg83  1  0.81651300  0.15658700  0.67272200  1
  Hg  Hg84  1  0.85768800  0.64743700  0.67729700  1
  Hg  Hg85  1  0.07556600  0.31919000  0.73295900  1
  Hg  Hg86  1  0.11674200  0.81004000  0.73753400  1
  Hg  Hg87  1  0.50882000  0.00274100  0.74964500  1
