# generated using pymatgen
data_Tm2Mg
_symmetry_space_group_name_H-M   'P 1'
_cell_length_a   6.48584137
_cell_length_b   8.80029164
_cell_length_c   44.06083200
_cell_angle_alpha   91.14784900
_cell_angle_beta   93.09533235
_cell_angle_gamma   96.37169691
_symmetry_Int_Tables_number   1
_chemical_formula_structural   Tm2Mg
_chemical_formula_sum   'Tm36 Mg18'
_cell_volume   2494.83370718
_cell_formula_units_Z   18
loop_
 _symmetry_equiv_pos_site_id
 _symmetry_equiv_pos_as_xyz
  1  'x, y, z'
loop_
 _atom_site_type_symbol
 _atom_site_label
 _atom_site_symmetry_multiplicity
 _atom_site_fract_x
 _atom_site_fract_y
 _atom_site_fract_z
 _atom_site_occupancy
  Tm  Tm0  1  0.27642500  0.44157900  0.24339400  1
  Tm  Tm1  1  0.19002000  0.81514200  0.26499500  1
  Tm  Tm2  1  0.85690900  0.02508800  0.22327300  1
  Tm  Tm3  1  0.94331400  0.65152500  0.20167200  1
  Tm  Tm4  1  0.00975800  0.50824600  0.31006000  1
  Tm  Tm5  1  0.92335300  0.88180900  0.33166200  1
  Tm  Tm6  1  0.59024200  0.09175400  0.28994000  1
  Tm  Tm7  1  0.67664700  0.71819100  0.26833800  1
  Tm  Tm8  1  0.74309100  0.57491200  0.37672700  1
  Tm  Tm9  1  0.65668600  0.94847500  0.39832800  1
  Tm  Tm10  1  0.32357500  0.15842100  0.35660600  1
  Tm  Tm11  1  0.40998000  0.78485800  0.33500500  1
  Tm  Tm12  1  0.47642500  0.64157900  0.44339400  1
  Tm  Tm13  1  0.39002000  0.01514200  0.46499500  1
  Tm  Tm14  1  0.05690900  0.22508800  0.42327300  1
  Tm  Tm15  1  0.14331400  0.85152500  0.40167200  1
  Tm  Tm16  1  0.20975800  0.70824600  0.51006000  1
  Tm  Tm17  1  0.12335300  0.08180900  0.53166200  1
  Tm  Tm18  1  0.79024200  0.29175400  0.48994000  1
  Tm  Tm19  1  0.87664700  0.91819100  0.46833800  1
  Tm  Tm20  1  0.94309100  0.77491200  0.57672700  1
  Tm  Tm21  1  0.85668600  0.14847500  0.59832800  1
  Tm  Tm22  1  0.52357500  0.35842100  0.55660600  1
  Tm  Tm23  1  0.60998000  0.98485800  0.53500500  1
  Tm  Tm24  1  0.67642500  0.84157900  0.64339400  1
  Tm  Tm25  1  0.59002000  0.21514200  0.66499500  1
  Tm  Tm26  1  0.25690900  0.42508800  0.62327300  1
  Tm  Tm27  1  0.34331400  0.05152500  0.60167200  1
  Tm  Tm28  1  0.40975800  0.90824600  0.71006000  1
  Tm  Tm29  1  0.32335300  0.28180900  0.73166200  1
  Tm  Tm30  1  0.99024200  0.49175400  0.68994000  1
  Tm  Tm31  1  0.07664700  0.11819100  0.66833800  1
  Tm  Tm32  1  0.14309100  0.97491200  0.77672700  1
  Tm  Tm33  1  0.05668600  0.34847500  0.79832800  1
  Tm  Tm34  1  0.72357500  0.55842100  0.75660600  1
  Tm  Tm35  1  0.80998000  0.18485800  0.73500500  1
  Mg  Mg36  1  0.36672000  0.09621900  0.22082000  1
  Mg  Mg37  1  0.76661400  0.37044800  0.24584700  1
  Mg  Mg38  1  0.10005300  0.16288500  0.28748700  1
  Mg  Mg39  1  0.49994700  0.43711500  0.31251300  1
  Mg  Mg40  1  0.83338600  0.22955200  0.35415300  1
  Mg  Mg41  1  0.23328000  0.50378100  0.37918000  1
  Mg  Mg42  1  0.56672000  0.29621900  0.42082000  1
  Mg  Mg43  1  0.96661400  0.57044800  0.44584700  1
  Mg  Mg44  1  0.30005300  0.36288500  0.48748700  1
  Mg  Mg45  1  0.69994700  0.63711500  0.51251300  1
  Mg  Mg46  1  0.03338600  0.42955200  0.55415300  1
  Mg  Mg47  1  0.43328000  0.70378100  0.57918000  1
  Mg  Mg48  1  0.76672000  0.49621900  0.62082000  1
  Mg  Mg49  1  0.16661400  0.77044800  0.64584700  1
  Mg  Mg50  1  0.50005300  0.56288500  0.68748700  1
  Mg  Mg51  1  0.89994700  0.83711500  0.71251300  1
  Mg  Mg52  1  0.23338600  0.62955200  0.75415300  1
  Mg  Mg53  1  0.63328000  0.90378100  0.77918000  1
