# generated using pymatgen
data_CeMg2
_symmetry_space_group_name_H-M   'P 1'
_cell_length_a   6.10380899
_cell_length_b   17.81290100
_cell_length_c   43.56195700
_cell_angle_alpha   90.00000000
_cell_angle_beta   92.94623763
_cell_angle_gamma   90.00000000
_symmetry_Int_Tables_number   1
_chemical_formula_structural   CeMg2
_chemical_formula_sum   'Ce40 Mg80'
_cell_volume   4730.08061298
_cell_formula_units_Z   40
loop_
 _symmetry_equiv_pos_site_id
 _symmetry_equiv_pos_as_xyz
  1  'x, y, z'
loop_
 _atom_site_type_symbol
 _atom_site_label
 _atom_site_symmetry_multiplicity
 _atom_site_fract_x
 _atom_site_fract_y
 _atom_site_fract_z
 _atom_site_occupancy
  Ce  Ce0  1  0.18750000  0.53876300  0.20312500  1
  Ce  Ce1  1  0.68750000  0.96123700  0.20312500  1
  Ce  Ce2  1  0.06250000  0.03876300  0.23437500  1
  Ce  Ce3  1  0.56250000  0.46123700  0.23437500  1
  Ce  Ce4  1  0.93750000  0.53876300  0.26562500  1
  Ce  Ce5  1  0.43750000  0.96123700  0.26562500  1
  Ce  Ce6  1  0.81250000  0.03876300  0.29687500  1
  Ce  Ce7  1  0.31250000  0.46123700  0.29687500  1
  Ce  Ce8  1  0.68750000  0.53876300  0.32812500  1
  Ce  Ce9  1  0.18750000  0.96123700  0.32812500  1
  Ce  Ce10  1  0.56250000  0.03876300  0.35937500  1
  Ce  Ce11  1  0.06250000  0.46123700  0.35937500  1
  Ce  Ce12  1  0.43750000  0.53876300  0.39062500  1
  Ce  Ce13  1  0.93750000  0.96123700  0.39062500  1
  Ce  Ce14  1  0.31250000  0.03876300  0.42187500  1
  Ce  Ce15  1  0.81250000  0.46123700  0.42187500  1
  Ce  Ce16  1  0.18750000  0.53876300  0.45312500  1
  Ce  Ce17  1  0.68750000  0.96123700  0.45312500  1
  Ce  Ce18  1  0.06250000  0.03876300  0.48437500  1
  Ce  Ce19  1  0.56250000  0.46123700  0.48437500  1
  Ce  Ce20  1  0.93750000  0.53876300  0.51562500  1
  Ce  Ce21  1  0.43750000  0.96123700  0.51562500  1
  Ce  Ce22  1  0.81250000  0.03876300  0.54687500  1
  Ce  Ce23  1  0.31250000  0.46123700  0.54687500  1
  Ce  Ce24  1  0.68750000  0.53876300  0.57812500  1
  Ce  Ce25  1  0.18750000  0.96123700  0.57812500  1
  Ce  Ce26  1  0.56250000  0.03876300  0.60937500  1
  Ce  Ce27  1  0.06250000  0.46123700  0.60937500  1
  Ce  Ce28  1  0.43750000  0.53876300  0.64062500  1
  Ce  Ce29  1  0.93750000  0.96123700  0.64062500  1
  Ce  Ce30  1  0.31250000  0.03876300  0.67187500  1
  Ce  Ce31  1  0.81250000  0.46123700  0.67187500  1
  Ce  Ce32  1  0.18750000  0.53876300  0.70312500  1
  Ce  Ce33  1  0.68750000  0.96123700  0.70312500  1
  Ce  Ce34  1  0.06250000  0.03876300  0.73437500  1
  Ce  Ce35  1  0.56250000  0.46123700  0.73437500  1
  Ce  Ce36  1  0.93750000  0.53876300  0.76562500  1
  Ce  Ce37  1  0.43750000  0.96123700  0.76562500  1
  Ce  Ce38  1  0.81250000  0.03876300  0.79687500  1
  Ce  Ce39  1  0.31250000  0.46123700  0.79687500  1
  Mg  Mg40  1  0.18750000  0.87440700  0.20312500  1
  Mg  Mg41  1  0.06250000  0.71781300  0.23437500  1
  Mg  Mg42  1  0.56250000  0.78218700  0.23437500  1
  Mg  Mg43  1  0.68750000  0.62559300  0.20312500  1
  Mg  Mg44  1  0.06250000  0.37440700  0.23437500  1
  Mg  Mg45  1  0.18750000  0.21781300  0.20312500  1
  Mg  Mg46  1  0.68750000  0.28218700  0.20312500  1
  Mg  Mg47  1  0.56250000  0.12559300  0.23437500  1
  Mg  Mg48  1  0.93750000  0.87440700  0.26562500  1
  Mg  Mg49  1  0.81250000  0.71781300  0.29687500  1
  Mg  Mg50  1  0.31250000  0.78218700  0.29687500  1
  Mg  Mg51  1  0.43750000  0.62559300  0.26562500  1
  Mg  Mg52  1  0.81250000  0.37440700  0.29687500  1
  Mg  Mg53  1  0.93750000  0.21781300  0.26562500  1
  Mg  Mg54  1  0.43750000  0.28218700  0.26562500  1
  Mg  Mg55  1  0.31250000  0.12559300  0.29687500  1
  Mg  Mg56  1  0.68750000  0.87440700  0.32812500  1
  Mg  Mg57  1  0.56250000  0.71781300  0.35937500  1
  Mg  Mg58  1  0.06250000  0.78218700  0.35937500  1
  Mg  Mg59  1  0.18750000  0.62559300  0.32812500  1
  Mg  Mg60  1  0.56250000  0.37440700  0.35937500  1
  Mg  Mg61  1  0.68750000  0.21781300  0.32812500  1
  Mg  Mg62  1  0.18750000  0.28218700  0.32812500  1
  Mg  Mg63  1  0.06250000  0.12559300  0.35937500  1
  Mg  Mg64  1  0.43750000  0.87440700  0.39062500  1
  Mg  Mg65  1  0.31250000  0.71781300  0.42187500  1
  Mg  Mg66  1  0.81250000  0.78218700  0.42187500  1
  Mg  Mg67  1  0.93750000  0.62559300  0.39062500  1
  Mg  Mg68  1  0.31250000  0.37440700  0.42187500  1
  Mg  Mg69  1  0.43750000  0.21781300  0.39062500  1
  Mg  Mg70  1  0.93750000  0.28218700  0.39062500  1
  Mg  Mg71  1  0.81250000  0.12559300  0.42187500  1
  Mg  Mg72  1  0.18750000  0.87440700  0.45312500  1
  Mg  Mg73  1  0.06250000  0.71781300  0.48437500  1
  Mg  Mg74  1  0.56250000  0.78218700  0.48437500  1
  Mg  Mg75  1  0.68750000  0.62559300  0.45312500  1
  Mg  Mg76  1  0.06250000  0.37440700  0.48437500  1
  Mg  Mg77  1  0.18750000  0.21781300  0.45312500  1
  Mg  Mg78  1  0.68750000  0.28218700  0.45312500  1
  Mg  Mg79  1  0.56250000  0.12559300  0.48437500  1
  Mg  Mg80  1  0.93750000  0.87440700  0.51562500  1
  Mg  Mg81  1  0.81250000  0.71781300  0.54687500  1
  Mg  Mg82  1  0.31250000  0.78218700  0.54687500  1
  Mg  Mg83  1  0.43750000  0.62559300  0.51562500  1
  Mg  Mg84  1  0.81250000  0.37440700  0.54687500  1
  Mg  Mg85  1  0.93750000  0.21781300  0.51562500  1
  Mg  Mg86  1  0.43750000  0.28218700  0.51562500  1
  Mg  Mg87  1  0.31250000  0.12559300  0.54687500  1
  Mg  Mg88  1  0.68750000  0.87440700  0.57812500  1
  Mg  Mg89  1  0.56250000  0.71781300  0.60937500  1
  Mg  Mg90  1  0.06250000  0.78218700  0.60937500  1
  Mg  Mg91  1  0.18750000  0.62559300  0.57812500  1
  Mg  Mg92  1  0.56250000  0.37440700  0.60937500  1
  Mg  Mg93  1  0.68750000  0.21781300  0.57812500  1
  Mg  Mg94  1  0.18750000  0.28218700  0.57812500  1
  Mg  Mg95  1  0.06250000  0.12559300  0.60937500  1
  Mg  Mg96  1  0.43750000  0.87440700  0.64062500  1
  Mg  Mg97  1  0.31250000  0.71781300  0.67187500  1
  Mg  Mg98  1  0.81250000  0.78218700  0.67187500  1
  Mg  Mg99  1  0.93750000  0.62559300  0.64062500  1
  Mg  Mg100  1  0.31250000  0.37440700  0.67187500  1
  Mg  Mg101  1  0.43750000  0.21781300  0.64062500  1
  Mg  Mg102  1  0.93750000  0.28218700  0.64062500  1
  Mg  Mg103  1  0.81250000  0.12559300  0.67187500  1
  Mg  Mg104  1  0.18750000  0.87440700  0.70312500  1
  Mg  Mg105  1  0.06250000  0.71781300  0.73437500  1
  Mg  Mg106  1  0.56250000  0.78218700  0.73437500  1
  Mg  Mg107  1  0.68750000  0.62559300  0.70312500  1
  Mg  Mg108  1  0.06250000  0.37440700  0.73437500  1
  Mg  Mg109  1  0.18750000  0.21781300  0.70312500  1
  Mg  Mg110  1  0.68750000  0.28218700  0.70312500  1
  Mg  Mg111  1  0.56250000  0.12559300  0.73437500  1
  Mg  Mg112  1  0.93750000  0.87440700  0.76562500  1
  Mg  Mg113  1  0.81250000  0.71781300  0.79687500  1
  Mg  Mg114  1  0.31250000  0.78218700  0.79687500  1
  Mg  Mg115  1  0.43750000  0.62559300  0.76562500  1
  Mg  Mg116  1  0.81250000  0.37440700  0.79687500  1
  Mg  Mg117  1  0.93750000  0.21781300  0.76562500  1
  Mg  Mg118  1  0.43750000  0.28218700  0.76562500  1
  Mg  Mg119  1  0.31250000  0.12559300  0.79687500  1
