# generated using pymatgen
data_Sr17Mg9
_symmetry_space_group_name_H-M   'P 1'
_cell_length_a   5.83337000
_cell_length_b   15.54546606
_cell_length_c   43.49746700
_cell_angle_alpha   81.01977214
_cell_angle_beta   90.00000000
_cell_angle_gamma   79.18590984
_symmetry_Int_Tables_number   1
_chemical_formula_structural   Sr17Mg9
_chemical_formula_sum   'Sr34 Mg18'
_cell_volume   3825.17262411
_cell_formula_units_Z   2
loop_
 _symmetry_equiv_pos_site_id
 _symmetry_equiv_pos_as_xyz
  1  'x, y, z'
loop_
 _atom_site_type_symbol
 _atom_site_label
 _atom_site_symmetry_multiplicity
 _atom_site_fract_x
 _atom_site_fract_y
 _atom_site_fract_z
 _atom_site_occupancy
  Sr  Sr0  1  0.66253100  0.60393600  0.23724500  1
  Sr  Sr1  1  0.06173400  0.80553100  0.25164400  1
  Sr  Sr2  1  0.92919800  0.07060300  0.27057800  1
  Sr  Sr3  1  0.32840100  0.27219700  0.28497800  1
  Sr  Sr4  1  0.19586400  0.53727000  0.30391100  1
  Sr  Sr5  1  0.59506700  0.73886400  0.31831100  1
  Sr  Sr6  1  0.46253100  0.00393600  0.33724500  1
  Sr  Sr7  1  0.86173400  0.20553100  0.35164400  1
  Sr  Sr8  1  0.72919800  0.47060300  0.37057800  1
  Sr  Sr9  1  0.12840100  0.67219700  0.38497800  1
  Sr  Sr10  1  0.99586400  0.93727000  0.40391100  1
  Sr  Sr11  1  0.39506700  0.13886400  0.41831100  1
  Sr  Sr12  1  0.26253100  0.40393600  0.43724500  1
  Sr  Sr13  1  0.66173400  0.60553100  0.45164400  1
  Sr  Sr14  1  0.52919800  0.87060300  0.47057800  1
  Sr  Sr15  1  0.92840100  0.07219700  0.48497800  1
  Sr  Sr16  1  0.79586400  0.33727000  0.50391100  1
  Sr  Sr17  1  0.19506700  0.53886400  0.51831100  1
  Sr  Sr18  1  0.06253100  0.80393600  0.53724500  1
  Sr  Sr19  1  0.46173400  0.00553100  0.55164400  1
  Sr  Sr20  1  0.32919800  0.27060300  0.57057800  1
  Sr  Sr21  1  0.72840100  0.47219700  0.58497800  1
  Sr  Sr22  1  0.59586400  0.73727000  0.60391100  1
  Sr  Sr23  1  0.99506700  0.93886400  0.61831100  1
  Sr  Sr24  1  0.86253100  0.20393600  0.63724500  1
  Sr  Sr25  1  0.26173400  0.40553100  0.65164400  1
  Sr  Sr26  1  0.12919800  0.67060300  0.67057800  1
  Sr  Sr27  1  0.52840100  0.87219700  0.68497800  1
  Sr  Sr28  1  0.39586400  0.13727000  0.70391100  1
  Sr  Sr29  1  0.79506700  0.33886400  0.71831100  1
  Sr  Sr30  1  0.66253100  0.60393600  0.73724500  1
  Sr  Sr31  1  0.06173400  0.80553100  0.75164400  1
  Sr  Sr32  1  0.92919800  0.07060300  0.77057800  1
  Sr  Sr33  1  0.32840100  0.27219700  0.78497800  1
  Mg  Mg34  1  0.49546600  0.93806700  0.26111100  1
  Mg  Mg35  1  0.22879900  0.47140000  0.22777800  1
  Mg  Mg36  1  0.02879900  0.87140000  0.32777800  1
  Mg  Mg37  1  0.76213300  0.40473300  0.29444400  1
  Mg  Mg38  1  0.56213300  0.80473300  0.39444400  1
  Mg  Mg39  1  0.29546600  0.33806700  0.36111100  1
  Mg  Mg40  1  0.09546600  0.73806700  0.46111100  1
  Mg  Mg41  1  0.82879900  0.27140000  0.42777800  1
  Mg  Mg42  1  0.62879900  0.67140000  0.52777800  1
  Mg  Mg43  1  0.36213300  0.20473300  0.49444400  1
  Mg  Mg44  1  0.16213300  0.60473300  0.59444400  1
  Mg  Mg45  1  0.89546600  0.13806700  0.56111100  1
  Mg  Mg46  1  0.69546600  0.53806700  0.66111100  1
  Mg  Mg47  1  0.42879900  0.07140000  0.62777800  1
  Mg  Mg48  1  0.22879900  0.47140000  0.72777800  1
  Mg  Mg49  1  0.96213300  0.00473300  0.69444400  1
  Mg  Mg50  1  0.76213300  0.40473300  0.79444400  1
  Mg  Mg51  1  0.49546600  0.93806700  0.76111100  1
