# generated using pymatgen
data_Tm2Mg
_symmetry_space_group_name_H-M   'P 1'
_cell_length_a   5.42194500
_cell_length_b   17.23693300
_cell_length_c   46.27097100
_cell_angle_alpha   90.00000000
_cell_angle_beta   90.00000000
_cell_angle_gamma   90.00000000
_symmetry_Int_Tables_number   1
_chemical_formula_structural   Tm2Mg
_chemical_formula_sum   'Tm64 Mg32'
_cell_volume   4324.37865111
_cell_formula_units_Z   32
loop_
 _symmetry_equiv_pos_site_id
 _symmetry_equiv_pos_as_xyz
  1  'x, y, z'
loop_
 _atom_site_type_symbol
 _atom_site_label
 _atom_site_symmetry_multiplicity
 _atom_site_fract_x
 _atom_site_fract_y
 _atom_site_fract_z
 _atom_site_occupancy
  Tm  Tm0  1  0.25000000  0.90090700  0.25000000  1
  Tm  Tm1  1  0.25000000  0.72492700  0.21153800  1
  Tm  Tm2  1  0.75000000  0.59909300  0.21153800  1
  Tm  Tm3  1  0.75000000  0.77507300  0.25000000  1
  Tm  Tm4  1  0.25000000  0.40090700  0.21153800  1
  Tm  Tm5  1  0.25000000  0.22492700  0.25000000  1
  Tm  Tm6  1  0.75000000  0.09909300  0.25000000  1
  Tm  Tm7  1  0.75000000  0.27507300  0.21153800  1
  Tm  Tm8  1  0.25000000  0.90090700  0.32692300  1
  Tm  Tm9  1  0.25000000  0.72492700  0.28846200  1
  Tm  Tm10  1  0.75000000  0.59909300  0.28846200  1
  Tm  Tm11  1  0.75000000  0.77507300  0.32692300  1
  Tm  Tm12  1  0.25000000  0.40090700  0.28846200  1
  Tm  Tm13  1  0.25000000  0.22492700  0.32692300  1
  Tm  Tm14  1  0.75000000  0.09909300  0.32692300  1
  Tm  Tm15  1  0.75000000  0.27507300  0.28846200  1
  Tm  Tm16  1  0.25000000  0.90090700  0.40384600  1
  Tm  Tm17  1  0.25000000  0.72492700  0.36538500  1
  Tm  Tm18  1  0.75000000  0.59909300  0.36538500  1
  Tm  Tm19  1  0.75000000  0.77507300  0.40384600  1
  Tm  Tm20  1  0.25000000  0.40090700  0.36538500  1
  Tm  Tm21  1  0.25000000  0.22492700  0.40384600  1
  Tm  Tm22  1  0.75000000  0.09909300  0.40384600  1
  Tm  Tm23  1  0.75000000  0.27507300  0.36538500  1
  Tm  Tm24  1  0.25000000  0.90090700  0.48076900  1
  Tm  Tm25  1  0.25000000  0.72492700  0.44230800  1
  Tm  Tm26  1  0.75000000  0.59909300  0.44230800  1
  Tm  Tm27  1  0.75000000  0.77507300  0.48076900  1
  Tm  Tm28  1  0.25000000  0.40090700  0.44230800  1
  Tm  Tm29  1  0.25000000  0.22492700  0.48076900  1
  Tm  Tm30  1  0.75000000  0.09909300  0.48076900  1
  Tm  Tm31  1  0.75000000  0.27507300  0.44230800  1
  Tm  Tm32  1  0.25000000  0.90090700  0.55769200  1
  Tm  Tm33  1  0.25000000  0.72492700  0.51923100  1
  Tm  Tm34  1  0.75000000  0.59909300  0.51923100  1
  Tm  Tm35  1  0.75000000  0.77507300  0.55769200  1
  Tm  Tm36  1  0.25000000  0.40090700  0.51923100  1
  Tm  Tm37  1  0.25000000  0.22492700  0.55769200  1
  Tm  Tm38  1  0.75000000  0.09909300  0.55769200  1
  Tm  Tm39  1  0.75000000  0.27507300  0.51923100  1
  Tm  Tm40  1  0.25000000  0.90090700  0.63461500  1
  Tm  Tm41  1  0.25000000  0.72492700  0.59615400  1
  Tm  Tm42  1  0.75000000  0.59909300  0.59615400  1
  Tm  Tm43  1  0.75000000  0.77507300  0.63461500  1
  Tm  Tm44  1  0.25000000  0.40090700  0.59615400  1
  Tm  Tm45  1  0.25000000  0.22492700  0.63461500  1
  Tm  Tm46  1  0.75000000  0.09909300  0.63461500  1
  Tm  Tm47  1  0.75000000  0.27507300  0.59615400  1
  Tm  Tm48  1  0.25000000  0.90090700  0.71153800  1
  Tm  Tm49  1  0.25000000  0.72492700  0.67307700  1
  Tm  Tm50  1  0.75000000  0.59909300  0.67307700  1
  Tm  Tm51  1  0.75000000  0.77507300  0.71153800  1
  Tm  Tm52  1  0.25000000  0.40090700  0.67307700  1
  Tm  Tm53  1  0.25000000  0.22492700  0.71153800  1
  Tm  Tm54  1  0.75000000  0.09909300  0.71153800  1
  Tm  Tm55  1  0.75000000  0.27507300  0.67307700  1
  Tm  Tm56  1  0.25000000  0.90090700  0.78846200  1
  Tm  Tm57  1  0.25000000  0.72492700  0.75000000  1
  Tm  Tm58  1  0.75000000  0.59909300  0.75000000  1
  Tm  Tm59  1  0.75000000  0.77507300  0.78846200  1
  Tm  Tm60  1  0.25000000  0.40090700  0.75000000  1
  Tm  Tm61  1  0.25000000  0.22492700  0.78846200  1
  Tm  Tm62  1  0.75000000  0.09909300  0.78846200  1
  Tm  Tm63  1  0.75000000  0.27507300  0.75000000  1
  Mg  Mg64  1  0.25000000  0.56230100  0.25000000  1
  Mg  Mg65  1  0.75000000  0.93769900  0.21153800  1
  Mg  Mg66  1  0.25000000  0.06230100  0.21153800  1
  Mg  Mg67  1  0.75000000  0.43769900  0.25000000  1
  Mg  Mg68  1  0.25000000  0.56230100  0.32692300  1
  Mg  Mg69  1  0.75000000  0.93769900  0.28846200  1
  Mg  Mg70  1  0.25000000  0.06230100  0.28846200  1
  Mg  Mg71  1  0.75000000  0.43769900  0.32692300  1
  Mg  Mg72  1  0.25000000  0.56230100  0.40384600  1
  Mg  Mg73  1  0.75000000  0.93769900  0.36538500  1
  Mg  Mg74  1  0.25000000  0.06230100  0.36538500  1
  Mg  Mg75  1  0.75000000  0.43769900  0.40384600  1
  Mg  Mg76  1  0.25000000  0.56230100  0.48076900  1
  Mg  Mg77  1  0.75000000  0.93769900  0.44230800  1
  Mg  Mg78  1  0.25000000  0.06230100  0.44230800  1
  Mg  Mg79  1  0.75000000  0.43769900  0.48076900  1
  Mg  Mg80  1  0.25000000  0.56230100  0.55769200  1
  Mg  Mg81  1  0.75000000  0.93769900  0.51923100  1
  Mg  Mg82  1  0.25000000  0.06230100  0.51923100  1
  Mg  Mg83  1  0.75000000  0.43769900  0.55769200  1
  Mg  Mg84  1  0.25000000  0.56230100  0.63461500  1
  Mg  Mg85  1  0.75000000  0.93769900  0.59615400  1
  Mg  Mg86  1  0.25000000  0.06230100  0.59615400  1
  Mg  Mg87  1  0.75000000  0.43769900  0.63461500  1
  Mg  Mg88  1  0.25000000  0.56230100  0.71153800  1
  Mg  Mg89  1  0.75000000  0.93769900  0.67307700  1
  Mg  Mg90  1  0.25000000  0.06230100  0.67307700  1
  Mg  Mg91  1  0.75000000  0.43769900  0.71153800  1
  Mg  Mg92  1  0.25000000  0.56230100  0.78846200  1
  Mg  Mg93  1  0.75000000  0.93769900  0.75000000  1
  Mg  Mg94  1  0.25000000  0.06230100  0.75000000  1
  Mg  Mg95  1  0.75000000  0.43769900  0.78846200  1
