# generated using pymatgen
data_Mg2Au
_symmetry_space_group_name_H-M   'P 1'
_cell_length_a   6.30829800
_cell_length_b   9.63509784
_cell_length_c   43.05516600
_cell_angle_alpha   93.60749084
_cell_angle_beta   90.00000000
_cell_angle_gamma   90.00000000
_symmetry_Int_Tables_number   1
_chemical_formula_structural   Mg2Au
_chemical_formula_sum   'Mg56 Au28'
_cell_volume   2611.75355536
_cell_formula_units_Z   28
loop_
 _symmetry_equiv_pos_site_id
 _symmetry_equiv_pos_as_xyz
  1  'x, y, z'
loop_
 _atom_site_type_symbol
 _atom_site_label
 _atom_site_symmetry_multiplicity
 _atom_site_fract_x
 _atom_site_fract_y
 _atom_site_fract_z
 _atom_site_occupancy
  Mg  Mg0  1  0.16681800  0.09249400  0.74512600  1
  Mg  Mg1  1  0.66681800  0.58932400  0.80032900  1
  Mg  Mg2  1  0.83318200  0.08932400  0.80032900  1
  Mg  Mg3  1  0.33318200  0.59249400  0.74512600  1
  Mg  Mg4  1  0.53839600  0.29470100  0.76759300  1
  Mg  Mg5  1  0.03839600  0.38711700  0.77786100  1
  Mg  Mg6  1  0.46160400  0.88711700  0.77786100  1
  Mg  Mg7  1  0.96160400  0.79470100  0.76759300  1
  Mg  Mg8  1  0.16681800  0.27431300  0.65421700  1
  Mg  Mg9  1  0.66681800  0.77114200  0.70942000  1
  Mg  Mg10  1  0.83318200  0.27114200  0.70942000  1
  Mg  Mg11  1  0.33318200  0.77431300  0.65421700  1
  Mg  Mg12  1  0.53839600  0.47651900  0.67668400  1
  Mg  Mg13  1  0.03839600  0.56893500  0.68695200  1
  Mg  Mg14  1  0.46160400  0.06893500  0.68695200  1
  Mg  Mg15  1  0.96160400  0.97651900  0.67668400  1
  Mg  Mg16  1  0.16681800  0.45613100  0.56330700  1
  Mg  Mg17  1  0.66681800  0.95296000  0.61851100  1
  Mg  Mg18  1  0.83318200  0.45296000  0.61851100  1
  Mg  Mg19  1  0.33318200  0.95613100  0.56330700  1
  Mg  Mg20  1  0.53839600  0.65833700  0.58577500  1
  Mg  Mg21  1  0.03839600  0.75075300  0.59604300  1
  Mg  Mg22  1  0.46160400  0.25075300  0.59604300  1
  Mg  Mg23  1  0.96160400  0.15833700  0.58577500  1
  Mg  Mg24  1  0.16681800  0.63794900  0.47239800  1
  Mg  Mg25  1  0.66681800  0.13477800  0.52760200  1
  Mg  Mg26  1  0.83318200  0.63477800  0.52760200  1
  Mg  Mg27  1  0.33318200  0.13794900  0.47239800  1
  Mg  Mg28  1  0.53839600  0.84015600  0.49486600  1
  Mg  Mg29  1  0.03839600  0.93257200  0.50513400  1
  Mg  Mg30  1  0.46160400  0.43257200  0.50513400  1
  Mg  Mg31  1  0.96160400  0.34015600  0.49486600  1
  Mg  Mg32  1  0.16681800  0.81976700  0.38148900  1
  Mg  Mg33  1  0.66681800  0.31659700  0.43669300  1
  Mg  Mg34  1  0.83318200  0.81659700  0.43669300  1
  Mg  Mg35  1  0.33318200  0.31976700  0.38148900  1
  Mg  Mg36  1  0.53839600  0.02197400  0.40395700  1
  Mg  Mg37  1  0.03839600  0.11439000  0.41422500  1
  Mg  Mg38  1  0.46160400  0.61439000  0.41422500  1
  Mg  Mg39  1  0.96160400  0.52197400  0.40395700  1
  Mg  Mg40  1  0.16681800  0.00158500  0.29058000  1
  Mg  Mg41  1  0.66681800  0.49841500  0.34578300  1
  Mg  Mg42  1  0.83318200  0.99841500  0.34578300  1
  Mg  Mg43  1  0.33318200  0.50158500  0.29058000  1
  Mg  Mg44  1  0.53839600  0.20379200  0.31304800  1
  Mg  Mg45  1  0.03839600  0.29620800  0.32331600  1
  Mg  Mg46  1  0.46160400  0.79620800  0.32331600  1
  Mg  Mg47  1  0.96160400  0.70379200  0.31304800  1
  Mg  Mg48  1  0.16681800  0.18340300  0.19967100  1
  Mg  Mg49  1  0.66681800  0.68023300  0.25487400  1
  Mg  Mg50  1  0.83318200  0.18023300  0.25487400  1
  Mg  Mg51  1  0.33318200  0.68340300  0.19967100  1
  Mg  Mg52  1  0.53839600  0.38561000  0.22213900  1
  Mg  Mg53  1  0.03839600  0.47802600  0.23240700  1
  Mg  Mg54  1  0.46160400  0.97802600  0.23240700  1
  Mg  Mg55  1  0.96160400  0.88561000  0.22213900  1
  Au  Au56  1  0.73655600  0.03058400  0.73824700  1
  Au  Au57  1  0.23655600  0.65123400  0.80720800  1
  Au  Au58  1  0.26344400  0.15123400  0.80720800  1
  Au  Au59  1  0.76344400  0.53058400  0.73824700  1
  Au  Au60  1  0.73655600  0.21240200  0.64733800  1
  Au  Au61  1  0.23655600  0.83305200  0.71629900  1
  Au  Au62  1  0.26344400  0.33305200  0.71629900  1
  Au  Au63  1  0.76344400  0.71240200  0.64733800  1
  Au  Au64  1  0.73655600  0.39422100  0.55642900  1
  Au  Au65  1  0.23655600  0.01487000  0.62539000  1
  Au  Au66  1  0.26344400  0.51487000  0.62539000  1
  Au  Au67  1  0.76344400  0.89422100  0.55642900  1
  Au  Au68  1  0.73655600  0.57603900  0.46551900  1
  Au  Au69  1  0.23655600  0.19668900  0.53448100  1
  Au  Au70  1  0.26344400  0.69668900  0.53448100  1
  Au  Au71  1  0.76344400  0.07603900  0.46551900  1
  Au  Au72  1  0.73655600  0.75785700  0.37461000  1
  Au  Au73  1  0.23655600  0.37850700  0.44357100  1
  Au  Au74  1  0.26344400  0.87850700  0.44357100  1
  Au  Au75  1  0.76344400  0.25785700  0.37461000  1
  Au  Au76  1  0.73655600  0.93967500  0.28370100  1
  Au  Au77  1  0.23655600  0.56032500  0.35266200  1
  Au  Au78  1  0.26344400  0.06032500  0.35266200  1
  Au  Au79  1  0.76344400  0.43967500  0.28370100  1
  Au  Au80  1  0.73655600  0.12149300  0.19279200  1
  Au  Au81  1  0.23655600  0.74214300  0.26175300  1
  Au  Au82  1  0.26344400  0.24214300  0.26175300  1
  Au  Au83  1  0.76344400  0.62149300  0.19279200  1
