# generated using pymatgen
data_Tb40Mg19
_symmetry_space_group_name_H-M   'P 1'
_cell_length_a   5.22518270
_cell_length_b   13.36514585
_cell_length_c   41.32274400
_cell_angle_alpha   84.20480949
_cell_angle_beta   93.62488658
_cell_angle_gamma   78.72735235
_symmetry_Int_Tables_number   1
_chemical_formula_structural   Tb40Mg19
_chemical_formula_sum   'Tb40 Mg19'
_cell_volume   2805.45405345
_cell_formula_units_Z   1
loop_
 _symmetry_equiv_pos_site_id
 _symmetry_equiv_pos_as_xyz
  1  'x, y, z'
loop_
 _atom_site_type_symbol
 _atom_site_label
 _atom_site_symmetry_multiplicity
 _atom_site_fract_x
 _atom_site_fract_y
 _atom_site_fract_z
 _atom_site_occupancy
  Tb  Tb0  1  0.88618500  0.32384000  0.20354800  1
  Tb  Tb1  1  0.46502200  0.15490400  0.19228500  1
  Tb  Tb2  1  0.16743500  0.79259000  0.23479800  1
  Tb  Tb3  1  0.74627200  0.62365400  0.22353500  1
  Tb  Tb4  1  0.44868500  0.26134000  0.26604800  1
  Tb  Tb5  1  0.02752200  0.09240400  0.25478500  1
  Tb  Tb6  1  0.72993500  0.73009000  0.29729800  1
  Tb  Tb7  1  0.30877200  0.56115400  0.28603500  1
  Tb  Tb8  1  0.01118500  0.19884000  0.32854800  1
  Tb  Tb9  1  0.59002200  0.02990400  0.31728500  1
  Tb  Tb10  1  0.29243500  0.66759000  0.35979800  1
  Tb  Tb11  1  0.87127200  0.49865400  0.34853500  1
  Tb  Tb12  1  0.57368500  0.13634000  0.39104800  1
  Tb  Tb13  1  0.15252200  0.96740400  0.37978500  1
  Tb  Tb14  1  0.85493500  0.60509000  0.42229800  1
  Tb  Tb15  1  0.43377200  0.43615400  0.41103500  1
  Tb  Tb16  1  0.13618500  0.07384000  0.45354800  1
  Tb  Tb17  1  0.71502200  0.90490400  0.44228500  1
  Tb  Tb18  1  0.41743500  0.54259000  0.48479800  1
  Tb  Tb19  1  0.99627200  0.37365400  0.47353500  1
  Tb  Tb20  1  0.69868500  0.01134000  0.51604800  1
  Tb  Tb21  1  0.27752200  0.84240400  0.50478500  1
  Tb  Tb22  1  0.97993500  0.48009000  0.54729800  1
  Tb  Tb23  1  0.55877200  0.31115400  0.53603500  1
  Tb  Tb24  1  0.26118500  0.94884000  0.57854800  1
  Tb  Tb25  1  0.84002200  0.77990400  0.56728500  1
  Tb  Tb26  1  0.54243500  0.41759000  0.60979800  1
  Tb  Tb27  1  0.12127200  0.24865400  0.59853500  1
  Tb  Tb28  1  0.82368500  0.88634000  0.64104800  1
  Tb  Tb29  1  0.40252200  0.71740400  0.62978500  1
  Tb  Tb30  1  0.10493500  0.35509000  0.67229800  1
  Tb  Tb31  1  0.68377200  0.18615400  0.66103500  1
  Tb  Tb32  1  0.38618500  0.82384000  0.70354800  1
  Tb  Tb33  1  0.96502200  0.65490400  0.69228500  1
  Tb  Tb34  1  0.66743500  0.29259000  0.73479800  1
  Tb  Tb35  1  0.24627200  0.12365400  0.72353500  1
  Tb  Tb36  1  0.94868500  0.76134000  0.76604800  1
  Tb  Tb37  1  0.52752200  0.59240400  0.75478500  1
  Tb  Tb38  1  0.22993500  0.23009000  0.79729800  1
  Tb  Tb39  1  0.80877200  0.06115400  0.78603500  1
  Mg  Mg40  1  0.59747800  0.94249700  0.24479200  1
  Mg  Mg41  1  0.31622800  0.47374700  0.21354200  1
  Mg  Mg42  1  0.15997800  0.87999700  0.30729200  1
  Mg  Mg43  1  0.87872800  0.41124700  0.27604200  1
  Mg  Mg44  1  0.72247800  0.81749700  0.36979200  1
  Mg  Mg45  1  0.44122800  0.34874700  0.33854200  1
  Mg  Mg46  1  0.28497800  0.75499700  0.43229200  1
  Mg  Mg47  1  0.00372800  0.28624700  0.40104200  1
  Mg  Mg48  1  0.84747800  0.69249700  0.49479200  1
  Mg  Mg49  1  0.56622800  0.22374700  0.46354200  1
  Mg  Mg50  1  0.40997800  0.62999700  0.55729200  1
  Mg  Mg51  1  0.12872800  0.16124700  0.52604200  1
  Mg  Mg52  1  0.97247800  0.56749700  0.61979200  1
  Mg  Mg53  1  0.69122800  0.09874700  0.58854200  1
  Mg  Mg54  1  0.53497800  0.50499700  0.68229200  1
  Mg  Mg55  1  0.25372800  0.03624700  0.65104200  1
  Mg  Mg56  1  0.09747800  0.44249700  0.74479200  1
  Mg  Mg57  1  0.81622800  0.97374700  0.71354200  1
  Mg  Mg58  1  0.37872800  0.91124700  0.77604200  1
