# generated using pymatgen
data_Mg112Ir167
_symmetry_space_group_name_H-M   'P 1'
_cell_length_a   10.02721118
_cell_length_b   18.72038941
_cell_length_c   44.79036200
_cell_angle_alpha   94.03613252
_cell_angle_beta   86.64075209
_cell_angle_gamma   96.01571897
_symmetry_Int_Tables_number   1
_chemical_formula_structural   Mg112Ir167
_chemical_formula_sum   'Mg112 Ir167'
_cell_volume   8329.58426924
_cell_formula_units_Z   1
loop_
 _symmetry_equiv_pos_site_id
 _symmetry_equiv_pos_as_xyz
  1  'x, y, z'
loop_
 _atom_site_type_symbol
 _atom_site_label
 _atom_site_symmetry_multiplicity
 _atom_site_fract_x
 _atom_site_fract_y
 _atom_site_fract_z
 _atom_site_occupancy
  Mg  Mg0  1  0.95398400  0.78013600  0.23746600  1
  Mg  Mg1  1  0.68545700  0.71986400  0.27053400  1
  Mg  Mg2  1  0.31303400  0.55456700  0.21733000  1
  Mg  Mg3  1  0.32640800  0.94543300  0.29067000  1
  Mg  Mg4  1  0.20587600  0.79076000  0.27345100  1
  Mg  Mg5  1  0.43356500  0.70924000  0.23454900  1
  Mg  Mg6  1  0.89620000  0.92230000  0.22921100  1
  Mg  Mg7  1  0.74324200  0.57770000  0.27878900  1
  Mg  Mg8  1  0.02173000  0.52103200  0.24714400  1
  Mg  Mg9  1  0.61771100  0.97896800  0.26085600  1
  Mg  Mg10  1  0.80398400  0.28013600  0.28746600  1
  Mg  Mg11  1  0.83545700  0.21986400  0.22053400  1
  Mg  Mg12  1  0.16303400  0.05456700  0.26733000  1
  Mg  Mg13  1  0.47640800  0.44543300  0.24067000  1
  Mg  Mg14  1  0.35587600  0.29076000  0.22345100  1
  Mg  Mg15  1  0.28356500  0.20924000  0.28454900  1
  Mg  Mg16  1  0.74620000  0.42230000  0.27921100  1
  Mg  Mg17  1  0.89324200  0.07770000  0.22878900  1
  Mg  Mg18  1  0.17173000  0.02103200  0.19714400  1
  Mg  Mg19  1  0.76771100  0.47896800  0.21085600  1
  Mg  Mg20  1  0.65398400  0.78013600  0.33746600  1
  Mg  Mg21  1  0.38545700  0.71986400  0.37053400  1
  Mg  Mg22  1  0.01303400  0.55456700  0.31733000  1
  Mg  Mg23  1  0.02640800  0.94543300  0.39067000  1
  Mg  Mg24  1  0.90587600  0.79076000  0.37345100  1
  Mg  Mg25  1  0.13356500  0.70924000  0.33454900  1
  Mg  Mg26  1  0.59620000  0.92230000  0.32921100  1
  Mg  Mg27  1  0.44324200  0.57770000  0.37878900  1
  Mg  Mg28  1  0.72173000  0.52103200  0.34714400  1
  Mg  Mg29  1  0.31771100  0.97896800  0.36085600  1
  Mg  Mg30  1  0.50398400  0.28013600  0.38746600  1
  Mg  Mg31  1  0.53545700  0.21986400  0.32053400  1
  Mg  Mg32  1  0.86303400  0.05456700  0.36733000  1
  Mg  Mg33  1  0.17640800  0.44543300  0.34067000  1
  Mg  Mg34  1  0.05587600  0.29076000  0.32345100  1
  Mg  Mg35  1  0.98356500  0.20924000  0.38454900  1
  Mg  Mg36  1  0.44620000  0.42230000  0.37921100  1
  Mg  Mg37  1  0.59324200  0.07770000  0.32878900  1
  Mg  Mg38  1  0.87173000  0.02103200  0.29714400  1
  Mg  Mg39  1  0.46771100  0.47896800  0.31085600  1
  Mg  Mg40  1  0.35398400  0.78013600  0.43746600  1
  Mg  Mg41  1  0.08545700  0.71986400  0.47053400  1
  Mg  Mg42  1  0.71303400  0.55456700  0.41733000  1
  Mg  Mg43  1  0.72640800  0.94543300  0.49067000  1
  Mg  Mg44  1  0.60587600  0.79076000  0.47345100  1
  Mg  Mg45  1  0.83356500  0.70924000  0.43454900  1
  Mg  Mg46  1  0.29620000  0.92230000  0.42921100  1
  Mg  Mg47  1  0.14324200  0.57770000  0.47878900  1
  Mg  Mg48  1  0.42173000  0.52103200  0.44714400  1
  Mg  Mg49  1  0.01771100  0.97896800  0.46085600  1
  Mg  Mg50  1  0.20398400  0.28013600  0.48746600  1
  Mg  Mg51  1  0.23545700  0.21986400  0.42053400  1
  Mg  Mg52  1  0.56303400  0.05456700  0.46733000  1
  Mg  Mg53  1  0.87640800  0.44543300  0.44067000  1
  Mg  Mg54  1  0.75587600  0.29076000  0.42345100  1
  Mg  Mg55  1  0.68356500  0.20924000  0.48454900  1
  Mg  Mg56  1  0.14620000  0.42230000  0.47921100  1
  Mg  Mg57  1  0.29324200  0.07770000  0.42878900  1
  Mg  Mg58  1  0.57173000  0.02103200  0.39714400  1
  Mg  Mg59  1  0.16771100  0.47896800  0.41085600  1
  Mg  Mg60  1  0.05398400  0.78013600  0.53746600  1
  Mg  Mg61  1  0.78545700  0.71986400  0.57053400  1
  Mg  Mg62  1  0.41303400  0.55456700  0.51733000  1
  Mg  Mg63  1  0.42640800  0.94543300  0.59067000  1
  Mg  Mg64  1  0.30587600  0.79076000  0.57345100  1
  Mg  Mg65  1  0.53356500  0.70924000  0.53454900  1
  Mg  Mg66  1  0.99620000  0.92230000  0.52921100  1
  Mg  Mg67  1  0.84324200  0.57770000  0.57878900  1
  Mg  Mg68  1  0.12173000  0.52103200  0.54714400  1
  Mg  Mg69  1  0.71771100  0.97896800  0.56085600  1
  Mg  Mg70  1  0.90398400  0.28013600  0.58746600  1
  Mg  Mg71  1  0.93545700  0.21986400  0.52053400  1
  Mg  Mg72  1  0.26303400  0.05456700  0.56733000  1
  Mg  Mg73  1  0.57640800  0.44543300  0.54067000  1
  Mg  Mg74  1  0.45587600  0.29076000  0.52345100  1
  Mg  Mg75  1  0.38356500  0.20924000  0.58454900  1
  Mg  Mg76  1  0.84620000  0.42230000  0.57921100  1
  Mg  Mg77  1  0.99324200  0.07770000  0.52878900  1
  Mg  Mg78  1  0.27173000  0.02103200  0.49714400  1
  Mg  Mg79  1  0.86771100  0.47896800  0.51085600  1
  Mg  Mg80  1  0.75398400  0.78013600  0.63746600  1
  Mg  Mg81  1  0.48545700  0.71986400  0.67053400  1
  Mg  Mg82  1  0.11303400  0.55456700  0.61733000  1
  Mg  Mg83  1  0.12640800  0.94543300  0.69067000  1
  Mg  Mg84  1  0.00587600  0.79076000  0.67345100  1
  Mg  Mg85  1  0.23356500  0.70924000  0.63454900  1
  Mg  Mg86  1  0.69620000  0.92230000  0.62921100  1
  Mg  Mg87  1  0.54324200  0.57770000  0.67878900  1
  Mg  Mg88  1  0.82173000  0.52103200  0.64714400  1
  Mg  Mg89  1  0.41771100  0.97896800  0.66085600  1
  Mg  Mg90  1  0.60398400  0.28013600  0.68746600  1
  Mg  Mg91  1  0.63545700  0.21986400  0.62053400  1
  Mg  Mg92  1  0.96303400  0.05456700  0.66733000  1
  Mg  Mg93  1  0.27640800  0.44543300  0.64067000  1
  Mg  Mg94  1  0.15587600  0.29076000  0.62345100  1
  Mg  Mg95  1  0.08356500  0.20924000  0.68454900  1
  Mg  Mg96  1  0.54620000  0.42230000  0.67921100  1
  Mg  Mg97  1  0.69324200  0.07770000  0.62878900  1
  Mg  Mg98  1  0.97173000  0.02103200  0.59714400  1
  Mg  Mg99  1  0.56771100  0.47896800  0.61085600  1
  Mg  Mg100  1  0.45398400  0.78013600  0.73746600  1
  Mg  Mg101  1  0.81303400  0.55456700  0.71733000  1
  Mg  Mg102  1  0.93356500  0.70924000  0.73454900  1
  Mg  Mg103  1  0.39620000  0.92230000  0.72921100  1
  Mg  Mg104  1  0.52173000  0.52103200  0.74714400  1
  Mg  Mg105  1  0.11771100  0.97896800  0.76085600  1
  Mg  Mg106  1  0.33545700  0.21986400  0.72053400  1
  Mg  Mg107  1  0.97640800  0.44543300  0.74067000  1
  Mg  Mg108  1  0.85587600  0.29076000  0.72345100  1
  Mg  Mg109  1  0.39324200  0.07770000  0.72878900  1
  Mg  Mg110  1  0.67173000  0.02103200  0.69714400  1
  Mg  Mg111  1  0.26771100  0.47896800  0.71085600  1
  Ir  Ir112  1  0.76454500  0.86887800  0.28183200  1
  Ir  Ir113  1  0.87489600  0.63112200  0.22616800  1
  Ir  Ir114  1  0.98024400  0.66794400  0.27700200  1
  Ir  Ir115  1  0.65919700  0.83205600  0.23099800  1
  Ir  Ir116  1  0.50890500  0.83205600  0.28109600  1
  Ir  Ir117  1  0.13053600  0.66794400  0.22690400  1
  Ir  Ir118  1  0.39472100  0.00000000  0.22900000  1
  Ir  Ir119  1  0.71483700  0.71596400  0.20330200  1
  Ir  Ir120  1  0.22460500  0.78403600  0.20469800  1
  Ir  Ir121  1  0.22154000  0.63582800  0.27568800  1
  Ir  Ir122  1  0.41790100  0.86417200  0.23231200  1
  Ir  Ir123  1  0.03167400  0.90923200  0.28198500  1
  Ir  Ir124  1  0.60776700  0.59076800  0.22601500  1
  Ir  Ir125  1  0.46740400  0.59076800  0.27280300  1
  Ir  Ir126  1  0.17203700  0.90923200  0.23519700  1
  Ir  Ir127  1  0.91454500  0.36887800  0.23183200  1
  Ir  Ir128  1  0.72489600  0.13112200  0.27616800  1
  Ir  Ir129  1  0.13024400  0.16794400  0.22700200  1
  Ir  Ir130  1  0.50919700  0.33205600  0.28099800  1
  Ir  Ir131  1  0.65890500  0.33205600  0.23109600  1
  Ir  Ir132  1  0.98053600  0.16794400  0.27690400  1
  Ir  Ir133  1  0.24472100  0.50000000  0.27900000  1
  Ir  Ir134  1  0.56483700  0.21596400  0.25330200  1
  Ir  Ir135  1  0.07460500  0.28403600  0.25469800  1
  Ir  Ir136  1  0.37154000  0.13582800  0.22568800  1
  Ir  Ir137  1  0.26790100  0.36417200  0.28231200  1
  Ir  Ir138  1  0.18167400  0.40923200  0.23198500  1
  Ir  Ir139  1  0.45776700  0.09076800  0.27601500  1
  Ir  Ir140  1  0.61740400  0.09076800  0.22280300  1
  Ir  Ir141  1  0.02203700  0.40923200  0.28519700  1
  Ir  Ir142  1  0.46454500  0.86887800  0.38183200  1
  Ir  Ir143  1  0.57489600  0.63112200  0.32616800  1
  Ir  Ir144  1  0.68024400  0.66794400  0.37700200  1
  Ir  Ir145  1  0.35919700  0.83205600  0.33099800  1
  Ir  Ir146  1  0.20890500  0.83205600  0.38109600  1
  Ir  Ir147  1  0.83053600  0.66794400  0.32690400  1
  Ir  Ir148  1  0.09472100  0.00000000  0.32900000  1
  Ir  Ir149  1  0.41483700  0.71596400  0.30330200  1
  Ir  Ir150  1  0.92460500  0.78403600  0.30469800  1
  Ir  Ir151  1  0.92154000  0.63582800  0.37568800  1
  Ir  Ir152  1  0.11790100  0.86417200  0.33231200  1
  Ir  Ir153  1  0.73167400  0.90923200  0.38198500  1
  Ir  Ir154  1  0.30776700  0.59076800  0.32601500  1
  Ir  Ir155  1  0.16740400  0.59076800  0.37280300  1
  Ir  Ir156  1  0.87203700  0.90923200  0.33519700  1
  Ir  Ir157  1  0.61454500  0.36887800  0.33183200  1
  Ir  Ir158  1  0.42489600  0.13112200  0.37616800  1
  Ir  Ir159  1  0.83024400  0.16794400  0.32700200  1
  Ir  Ir160  1  0.20919700  0.33205600  0.38099800  1
  Ir  Ir161  1  0.35890500  0.33205600  0.33109600  1
  Ir  Ir162  1  0.68053600  0.16794400  0.37690400  1
  Ir  Ir163  1  0.94472100  0.50000000  0.37900000  1
  Ir  Ir164  1  0.26483700  0.21596400  0.35330200  1
  Ir  Ir165  1  0.77460500  0.28403600  0.35469800  1
  Ir  Ir166  1  0.07154000  0.13582800  0.32568800  1
  Ir  Ir167  1  0.96790100  0.36417200  0.38231200  1
  Ir  Ir168  1  0.88167400  0.40923200  0.33198500  1
  Ir  Ir169  1  0.15776700  0.09076800  0.37601500  1
  Ir  Ir170  1  0.31740400  0.09076800  0.32280300  1
  Ir  Ir171  1  0.72203700  0.40923200  0.38519700  1
  Ir  Ir172  1  0.16454500  0.86887800  0.48183200  1
  Ir  Ir173  1  0.27489600  0.63112200  0.42616800  1
  Ir  Ir174  1  0.38024400  0.66794400  0.47700200  1
  Ir  Ir175  1  0.05919700  0.83205600  0.43099800  1
  Ir  Ir176  1  0.90890500  0.83205600  0.48109600  1
  Ir  Ir177  1  0.53053600  0.66794400  0.42690400  1
  Ir  Ir178  1  0.79472100  0.00000000  0.42900000  1
  Ir  Ir179  1  0.11483700  0.71596400  0.40330200  1
  Ir  Ir180  1  0.62460500  0.78403600  0.40469800  1
  Ir  Ir181  1  0.62154000  0.63582800  0.47568800  1
  Ir  Ir182  1  0.81790100  0.86417200  0.43231200  1
  Ir  Ir183  1  0.43167400  0.90923200  0.48198500  1
  Ir  Ir184  1  0.00776700  0.59076800  0.42601500  1
  Ir  Ir185  1  0.86740400  0.59076800  0.47280300  1
  Ir  Ir186  1  0.57203700  0.90923200  0.43519700  1
  Ir  Ir187  1  0.31454500  0.36887800  0.43183200  1
  Ir  Ir188  1  0.12489600  0.13112200  0.47616800  1
  Ir  Ir189  1  0.53024400  0.16794400  0.42700200  1
  Ir  Ir190  1  0.90919700  0.33205600  0.48099800  1
  Ir  Ir191  1  0.05890500  0.33205600  0.43109600  1
  Ir  Ir192  1  0.38053600  0.16794400  0.47690400  1
  Ir  Ir193  1  0.64472100  0.50000000  0.47900000  1
  Ir  Ir194  1  0.96483700  0.21596400  0.45330200  1
  Ir  Ir195  1  0.47460500  0.28403600  0.45469800  1
  Ir  Ir196  1  0.77154000  0.13582800  0.42568800  1
  Ir  Ir197  1  0.66790100  0.36417200  0.48231200  1
  Ir  Ir198  1  0.58167400  0.40923200  0.43198500  1
  Ir  Ir199  1  0.85776700  0.09076800  0.47601500  1
  Ir  Ir200  1  0.01740400  0.09076800  0.42280300  1
  Ir  Ir201  1  0.42203700  0.40923200  0.48519700  1
  Ir  Ir202  1  0.86454500  0.86887800  0.58183200  1
  Ir  Ir203  1  0.97489600  0.63112200  0.52616800  1
  Ir  Ir204  1  0.08024400  0.66794400  0.57700200  1
  Ir  Ir205  1  0.75919700  0.83205600  0.53099800  1
  Ir  Ir206  1  0.60890500  0.83205600  0.58109600  1
  Ir  Ir207  1  0.23053600  0.66794400  0.52690400  1
  Ir  Ir208  1  0.49472100  0.00000000  0.52900000  1
  Ir  Ir209  1  0.81483700  0.71596400  0.50330200  1
  Ir  Ir210  1  0.32460500  0.78403600  0.50469800  1
  Ir  Ir211  1  0.32154000  0.63582800  0.57568800  1
  Ir  Ir212  1  0.51790100  0.86417200  0.53231200  1
  Ir  Ir213  1  0.13167400  0.90923200  0.58198500  1
  Ir  Ir214  1  0.70776700  0.59076800  0.52601500  1
  Ir  Ir215  1  0.56740400  0.59076800  0.57280300  1
  Ir  Ir216  1  0.27203700  0.90923200  0.53519700  1
  Ir  Ir217  1  0.01454500  0.36887800  0.53183200  1
  Ir  Ir218  1  0.82489600  0.13112200  0.57616800  1
  Ir  Ir219  1  0.23024400  0.16794400  0.52700200  1
  Ir  Ir220  1  0.60919700  0.33205600  0.58099800  1
  Ir  Ir221  1  0.75890500  0.33205600  0.53109600  1
  Ir  Ir222  1  0.08053600  0.16794400  0.57690400  1
  Ir  Ir223  1  0.34472100  0.50000000  0.57900000  1
  Ir  Ir224  1  0.66483700  0.21596400  0.55330200  1
  Ir  Ir225  1  0.17460500  0.28403600  0.55469800  1
  Ir  Ir226  1  0.47154000  0.13582800  0.52568800  1
  Ir  Ir227  1  0.36790100  0.36417200  0.58231200  1
  Ir  Ir228  1  0.28167400  0.40923200  0.53198500  1
  Ir  Ir229  1  0.55776700  0.09076800  0.57601500  1
  Ir  Ir230  1  0.71740400  0.09076800  0.52280300  1
  Ir  Ir231  1  0.12203700  0.40923200  0.58519700  1
  Ir  Ir232  1  0.56454500  0.86887800  0.68183200  1
  Ir  Ir233  1  0.67489600  0.63112200  0.62616800  1
  Ir  Ir234  1  0.78024400  0.66794400  0.67700200  1
  Ir  Ir235  1  0.45919700  0.83205600  0.63099800  1
  Ir  Ir236  1  0.30890500  0.83205600  0.68109600  1
  Ir  Ir237  1  0.93053600  0.66794400  0.62690400  1
  Ir  Ir238  1  0.19472100  0.00000000  0.62900000  1
  Ir  Ir239  1  0.51483700  0.71596400  0.60330200  1
  Ir  Ir240  1  0.02460500  0.78403600  0.60469800  1
  Ir  Ir241  1  0.02154000  0.63582800  0.67568800  1
  Ir  Ir242  1  0.21790100  0.86417200  0.63231200  1
  Ir  Ir243  1  0.83167400  0.90923200  0.68198500  1
  Ir  Ir244  1  0.40776700  0.59076800  0.62601500  1
  Ir  Ir245  1  0.26740400  0.59076800  0.67280300  1
  Ir  Ir246  1  0.97203700  0.90923200  0.63519700  1
  Ir  Ir247  1  0.71454500  0.36887800  0.63183200  1
  Ir  Ir248  1  0.52489600  0.13112200  0.67616800  1
  Ir  Ir249  1  0.93024400  0.16794400  0.62700200  1
  Ir  Ir250  1  0.30919700  0.33205600  0.68099800  1
  Ir  Ir251  1  0.45890500  0.33205600  0.63109600  1
  Ir  Ir252  1  0.78053600  0.16794400  0.67690400  1
  Ir  Ir253  1  0.04472100  0.50000000  0.67900000  1
  Ir  Ir254  1  0.36483700  0.21596400  0.65330200  1
  Ir  Ir255  1  0.87460500  0.28403600  0.65469800  1
  Ir  Ir256  1  0.17154000  0.13582800  0.62568800  1
  Ir  Ir257  1  0.06790100  0.36417200  0.68231200  1
  Ir  Ir258  1  0.98167400  0.40923200  0.63198500  1
  Ir  Ir259  1  0.25776700  0.09076800  0.67601500  1
  Ir  Ir260  1  0.41740400  0.09076800  0.62280300  1
  Ir  Ir261  1  0.82203700  0.40923200  0.68519700  1
  Ir  Ir262  1  0.37489600  0.63112200  0.72616800  1
  Ir  Ir263  1  0.15919700  0.83205600  0.73099800  1
  Ir  Ir264  1  0.63053600  0.66794400  0.72690400  1
  Ir  Ir265  1  0.89472100  0.00000000  0.72900000  1
  Ir  Ir266  1  0.21483700  0.71596400  0.70330200  1
  Ir  Ir267  1  0.72460500  0.78403600  0.70469800  1
  Ir  Ir268  1  0.91790100  0.86417200  0.73231200  1
  Ir  Ir269  1  0.10776700  0.59076800  0.72601500  1
  Ir  Ir270  1  0.67203700  0.90923200  0.73519700  1
  Ir  Ir271  1  0.41454500  0.36887800  0.73183200  1
  Ir  Ir272  1  0.63024400  0.16794400  0.72700200  1
  Ir  Ir273  1  0.15890500  0.33205600  0.73109600  1
  Ir  Ir274  1  0.06483700  0.21596400  0.75330200  1
  Ir  Ir275  1  0.57460500  0.28403600  0.75469800  1
  Ir  Ir276  1  0.87154000  0.13582800  0.72568800  1
  Ir  Ir277  1  0.68167400  0.40923200  0.73198500  1
  Ir  Ir278  1  0.11740400  0.09076800  0.72280300  1
