# generated using pymatgen
data_Li7Mg20
_symmetry_space_group_name_H-M   'P 1'
_cell_length_a   4.96990554
_cell_length_b   4.96990578
_cell_length_c   44.72915300
_cell_angle_alpha   86.81526004
_cell_angle_beta   86.81525989
_cell_angle_gamma   59.99999524
_symmetry_Int_Tables_number   1
_chemical_formula_structural   Li7Mg20
_chemical_formula_sum   'Li7 Mg20'
_cell_volume   954.82134858
_cell_formula_units_Z   1
loop_
 _symmetry_equiv_pos_site_id
 _symmetry_equiv_pos_as_xyz
  1  'x, y, z'
loop_
 _atom_site_type_symbol
 _atom_site_label
 _atom_site_symmetry_multiplicity
 _atom_site_fract_x
 _atom_site_fract_y
 _atom_site_fract_z
 _atom_site_occupancy
  Li  Li0  1  0.94318200  0.94318200  0.78409100  1
  Li  Li1  1  0.30681800  0.30681800  0.69318200  1
  Li  Li2  1  0.67045500  0.67045500  0.60227300  1
  Li  Li3  1  0.03409100  0.03409100  0.51136400  1
  Li  Li4  1  0.39772700  0.39772700  0.42045500  1
  Li  Li5  1  0.76136400  0.76136400  0.32954500  1
  Li  Li6  1  0.12500000  0.12500000  0.23863600  1
  Mg  Mg7  1  0.62500000  0.62500000  0.73863600  1
  Mg  Mg8  1  0.28409100  0.28409100  0.76136400  1
  Mg  Mg9  1  0.60227300  0.60227300  0.80681800  1
  Mg  Mg10  1  0.98863600  0.98863600  0.64772700  1
  Mg  Mg11  1  0.64772700  0.64772700  0.67045500  1
  Mg  Mg12  1  0.96590900  0.96590900  0.71590900  1
  Mg  Mg13  1  0.35227300  0.35227300  0.55681800  1
  Mg  Mg14  1  0.01136400  0.01136400  0.57954500  1
  Mg  Mg15  1  0.32954500  0.32954500  0.62500000  1
  Mg  Mg16  1  0.71590900  0.71590900  0.46590900  1
  Mg  Mg17  1  0.37500000  0.37500000  0.48863600  1
  Mg  Mg18  1  0.69318200  0.69318200  0.53409100  1
  Mg  Mg19  1  0.07954500  0.07954500  0.37500000  1
  Mg  Mg20  1  0.73863600  0.73863600  0.39772700  1
  Mg  Mg21  1  0.05681800  0.05681800  0.44318200  1
  Mg  Mg22  1  0.44318200  0.44318200  0.28409100  1
  Mg  Mg23  1  0.10227300  0.10227300  0.30681800  1
  Mg  Mg24  1  0.42045500  0.42045500  0.35227300  1
  Mg  Mg25  1  0.46590900  0.46590900  0.21590900  1
  Mg  Mg26  1  0.78409100  0.78409100  0.26136400  1
