# generated using pymatgen
data_Mg21Pd38
_symmetry_space_group_name_H-M   'P 1'
_cell_length_a   6.99934446
_cell_length_b   11.53452174
_cell_length_c   42.24661500
_cell_angle_alpha   91.81842266
_cell_angle_beta   85.69593602
_cell_angle_gamma   76.70681611
_symmetry_Int_Tables_number   1
_chemical_formula_structural   Mg21Pd38
_chemical_formula_sum   'Mg42 Pd76'
_cell_volume   3305.77428051
_cell_formula_units_Z   2
loop_
 _symmetry_equiv_pos_site_id
 _symmetry_equiv_pos_as_xyz
  1  'x, y, z'
loop_
 _atom_site_type_symbol
 _atom_site_label
 _atom_site_symmetry_multiplicity
 _atom_site_fract_x
 _atom_site_fract_y
 _atom_site_fract_z
 _atom_site_occupancy
  Mg  Mg0  1  0.48963600  0.39792700  0.29326900  1
  Mg  Mg1  1  0.98963600  0.89792700  0.29326900  1
  Mg  Mg2  1  0.53593300  0.01242300  0.31624000  1
  Mg  Mg3  1  0.44333800  0.78343100  0.27029900  1
  Mg  Mg4  1  0.83759500  0.53721500  0.29144700  1
  Mg  Mg5  1  0.14167700  0.25863900  0.29509100  1
  Mg  Mg6  1  0.10502000  0.32100400  0.37019200  1
  Mg  Mg7  1  0.60502000  0.82100400  0.37019200  1
  Mg  Mg8  1  0.15131800  0.93550000  0.39316300  1
  Mg  Mg9  1  0.05872300  0.70650800  0.34722200  1
  Mg  Mg10  1  0.45297900  0.46029200  0.36837000  1
  Mg  Mg11  1  0.75706100  0.18171600  0.37201400  1
  Mg  Mg12  1  0.72040500  0.24408100  0.44711500  1
  Mg  Mg13  1  0.22040500  0.74408100  0.44711500  1
  Mg  Mg14  1  0.76670300  0.85857700  0.47008600  1
  Mg  Mg15  1  0.67410700  0.62958500  0.42414500  1
  Mg  Mg16  1  0.06836400  0.38336900  0.44529400  1
  Mg  Mg17  1  0.37244600  0.10479300  0.44893700  1
  Mg  Mg18  1  0.33578900  0.16715800  0.52403800  1
  Mg  Mg19  1  0.83578900  0.66715800  0.52403800  1
  Mg  Mg20  1  0.38208700  0.78165400  0.54700900  1
  Mg  Mg21  1  0.28949200  0.55266200  0.50106800  1
  Mg  Mg22  1  0.68374800  0.30644600  0.52221700  1
  Mg  Mg23  1  0.98783000  0.02787000  0.52586000  1
  Mg  Mg24  1  0.95117400  0.09023500  0.60096200  1
  Mg  Mg25  1  0.45117400  0.59023500  0.60096200  1
  Mg  Mg26  1  0.99747200  0.70473100  0.62393200  1
  Mg  Mg27  1  0.90487600  0.47573900  0.57799100  1
  Mg  Mg28  1  0.29913300  0.22952300  0.59914000  1
  Mg  Mg29  1  0.60321500  0.95094700  0.60278300  1
  Mg  Mg30  1  0.56655900  0.01331200  0.67788500  1
  Mg  Mg31  1  0.06655900  0.51331200  0.67788500  1
  Mg  Mg32  1  0.61285600  0.62780800  0.70085500  1
  Mg  Mg33  1  0.52026100  0.39881600  0.65491400  1
  Mg  Mg34  1  0.91451800  0.15260000  0.67606300  1
  Mg  Mg35  1  0.21860000  0.87402400  0.67970600  1
  Mg  Mg36  1  0.18194300  0.93638900  0.75480800  1
  Mg  Mg37  1  0.68194300  0.43638900  0.75480800  1
  Mg  Mg38  1  0.22824100  0.55088500  0.77777800  1
  Mg  Mg39  1  0.13564600  0.32189300  0.73183700  1
  Mg  Mg40  1  0.52990200  0.07567700  0.75298600  1
  Mg  Mg41  1  0.83398400  0.79710000  0.75663000  1
  Pd  Pd42  1  0.83220100  0.32035600  0.25969700  1
  Pd  Pd43  1  0.53168500  0.55242100  0.24991800  1
  Pd  Pd44  1  0.84904500  0.69136000  0.24367500  1
  Pd  Pd45  1  0.51484100  0.18141800  0.26594000  1
  Pd  Pd46  1  0.68194300  0.93638900  0.25480800  1
  Pd  Pd47  1  0.18194300  0.43638900  0.25480800  1
  Pd  Pd48  1  0.44758600  0.24343300  0.33662000  1
  Pd  Pd49  1  0.14707000  0.47549800  0.32684100  1
  Pd  Pd50  1  0.73256500  0.77031100  0.30974200  1
  Pd  Pd51  1  0.24670700  0.02554300  0.27679600  1
  Pd  Pd52  1  0.82727300  0.13158100  0.30345400  1
  Pd  Pd53  1  0.15199800  0.66427300  0.28308500  1
  Pd  Pd54  1  0.46443000  0.61443700  0.32059800  1
  Pd  Pd55  1  0.13022600  0.10449500  0.34286300  1
  Pd  Pd56  1  0.29732800  0.85946600  0.33173100  1
  Pd  Pd57  1  0.79732800  0.35946600  0.33173100  1
  Pd  Pd58  1  0.06297100  0.16651000  0.41354300  1
  Pd  Pd59  1  0.76245500  0.39857500  0.40376400  1
  Pd  Pd60  1  0.34794900  0.69338800  0.38666600  1
  Pd  Pd61  1  0.86209100  0.94862000  0.35371900  1
  Pd  Pd62  1  0.44265800  0.05465800  0.38037700  1
  Pd  Pd63  1  0.76738300  0.58735000  0.36000800  1
  Pd  Pd64  1  0.07981400  0.53751400  0.39752100  1
  Pd  Pd65  1  0.74561100  0.02757200  0.41978600  1
  Pd  Pd66  1  0.91271300  0.78254300  0.40865400  1
  Pd  Pd67  1  0.41271300  0.28254300  0.40865400  1
  Pd  Pd68  1  0.67835500  0.08958700  0.49046600  1
  Pd  Pd69  1  0.37783900  0.32165200  0.48068800  1
  Pd  Pd70  1  0.96333400  0.61646500  0.46358900  1
  Pd  Pd71  1  0.47747600  0.87169700  0.43064200  1
  Pd  Pd72  1  0.05804300  0.97773500  0.45730000  1
  Pd  Pd73  1  0.38276700  0.51042700  0.43693100  1
  Pd  Pd74  1  0.69519900  0.46059000  0.47444400  1
  Pd  Pd75  1  0.36099500  0.95064800  0.49670900  1
  Pd  Pd76  1  0.52809700  0.70561900  0.48557700  1
  Pd  Pd77  1  0.02809700  0.20561900  0.48557700  1
  Pd  Pd78  1  0.29374000  0.01266400  0.56738900  1
  Pd  Pd79  1  0.99322400  0.24472900  0.55761100  1
  Pd  Pd80  1  0.57871800  0.53954200  0.54051200  1
  Pd  Pd81  1  0.09286100  0.79477400  0.50756500  1
  Pd  Pd82  1  0.67342700  0.90081200  0.53422300  1
  Pd  Pd83  1  0.99815200  0.43350400  0.51385400  1
  Pd  Pd84  1  0.31058400  0.38366700  0.55136800  1
  Pd  Pd85  1  0.97638000  0.87372500  0.57363200  1
  Pd  Pd86  1  0.14348200  0.62869600  0.56250000  1
  Pd  Pd87  1  0.64348200  0.12869600  0.56250000  1
  Pd  Pd88  1  0.90912400  0.93574100  0.64431200  1
  Pd  Pd89  1  0.60860800  0.16780600  0.63453400  1
  Pd  Pd90  1  0.19410300  0.46261900  0.61743500  1
  Pd  Pd91  1  0.70824500  0.71785100  0.58448800  1
  Pd  Pd92  1  0.28881200  0.82388900  0.61114600  1
  Pd  Pd93  1  0.61353600  0.35658100  0.59077700  1
  Pd  Pd94  1  0.92596800  0.30674400  0.62829100  1
  Pd  Pd95  1  0.59176500  0.79680200  0.65055600  1
  Pd  Pd96  1  0.75886600  0.55177300  0.63942300  1
  Pd  Pd97  1  0.25886600  0.05177300  0.63942300  1
  Pd  Pd98  1  0.52450900  0.85881800  0.72123600  1
  Pd  Pd99  1  0.22399300  0.09088300  0.71145700  1
  Pd  Pd100  1  0.80948800  0.38569600  0.69435800  1
  Pd  Pd101  1  0.32363000  0.64092800  0.66141100  1
  Pd  Pd102  1  0.90419600  0.74696600  0.68806900  1
  Pd  Pd103  1  0.22892100  0.27965800  0.66770000  1
  Pd  Pd104  1  0.54135300  0.22982100  0.70521400  1
  Pd  Pd105  1  0.20714900  0.71987900  0.72747900  1
  Pd  Pd106  1  0.37425100  0.47485000  0.71634600  1
  Pd  Pd107  1  0.87425100  0.97485000  0.71634600  1
  Pd  Pd108  1  0.13989400  0.78189500  0.79815900  1
  Pd  Pd109  1  0.83937800  0.01395900  0.78838000  1
  Pd  Pd110  1  0.42487200  0.30877200  0.77128100  1
  Pd  Pd111  1  0.93901400  0.56400500  0.73833400  1
  Pd  Pd112  1  0.51958100  0.67004300  0.76499200  1
  Pd  Pd113  1  0.84430600  0.20273500  0.74462300  1
  Pd  Pd114  1  0.15673800  0.15289800  0.78213700  1
  Pd  Pd115  1  0.82253400  0.64295600  0.80440200  1
  Pd  Pd116  1  0.98963600  0.39792700  0.79326900  1
  Pd  Pd117  1  0.48963600  0.89792700  0.79326900  1
