# generated using pymatgen
data_Mg28Zn163
_symmetry_space_group_name_H-M   'P 1'
_cell_length_a   8.56229400
_cell_length_b   12.10891200
_cell_length_c   48.43564800
_cell_angle_alpha   90.00000000
_cell_angle_beta   90.00000000
_cell_angle_gamma   90.00000000
_symmetry_Int_Tables_number   1
_chemical_formula_structural   Mg28Zn163
_chemical_formula_sum   'Mg28 Zn163'
_cell_volume   5021.81111185
_cell_formula_units_Z   1
loop_
 _symmetry_equiv_pos_site_id
 _symmetry_equiv_pos_as_xyz
  1  'x, y, z'
loop_
 _atom_site_type_symbol
 _atom_site_label
 _atom_site_symmetry_multiplicity
 _atom_site_fract_x
 _atom_site_fract_y
 _atom_site_fract_z
 _atom_site_occupancy
  Mg  Mg0  1  0.50000000  0.88271700  0.21859100  1
  Mg  Mg1  1  0.00000000  0.33016600  0.28109100  1
  Mg  Mg2  1  0.00000000  0.13271700  0.23172900  1
  Mg  Mg3  1  0.50000000  0.58016600  0.29422900  1
  Mg  Mg4  1  0.50000000  0.38271700  0.34359100  1
  Mg  Mg5  1  0.00000000  0.83016600  0.40609100  1
  Mg  Mg6  1  0.69744900  0.98144200  0.31891000  1
  Mg  Mg7  1  0.00000000  0.63271700  0.35672900  1
  Mg  Mg8  1  0.30255100  0.98144200  0.31891000  1
  Mg  Mg9  1  0.50000000  0.08016600  0.41922900  1
  Mg  Mg10  1  0.50000000  0.88271700  0.46859100  1
  Mg  Mg11  1  0.00000000  0.33016600  0.53109100  1
  Mg  Mg12  1  0.69744900  0.48144200  0.44391000  1
  Mg  Mg13  1  0.00000000  0.13271700  0.48172900  1
  Mg  Mg14  1  0.30255100  0.48144200  0.44391000  1
  Mg  Mg15  1  0.50000000  0.58016600  0.54422900  1
  Mg  Mg16  1  0.50000000  0.38271700  0.59359100  1
  Mg  Mg17  1  0.00000000  0.83016600  0.65609100  1
  Mg  Mg18  1  0.69744900  0.98144200  0.56891000  1
  Mg  Mg19  1  0.00000000  0.63271700  0.60672900  1
  Mg  Mg20  1  0.30255100  0.98144200  0.56891000  1
  Mg  Mg21  1  0.50000000  0.08016600  0.66922900  1
  Mg  Mg22  1  0.50000000  0.88271700  0.71859100  1
  Mg  Mg23  1  0.00000000  0.33016600  0.78109100  1
  Mg  Mg24  1  0.69744900  0.48144200  0.69391000  1
  Mg  Mg25  1  0.00000000  0.13271700  0.73172900  1
  Mg  Mg26  1  0.30255100  0.48144200  0.69391000  1
  Mg  Mg27  1  0.50000000  0.58016600  0.79422900  1
  Zn  Zn28  1  0.50000000  0.23144200  0.25641000  1
  Zn  Zn29  1  0.00000000  0.84462800  0.22811400  1
  Zn  Zn30  1  0.00000000  0.61825500  0.22811400  1
  Zn  Zn31  1  0.77362700  0.73144200  0.25641000  1
  Zn  Zn32  1  0.00000000  0.84462800  0.28470700  1
  Zn  Zn33  1  0.22637300  0.73144200  0.25641000  1
  Zn  Zn34  1  0.00000000  0.61825500  0.28470700  1
  Zn  Zn35  1  0.00000000  0.06025100  0.29920800  1
  Zn  Zn36  1  0.50000000  0.65263200  0.23670800  1
  Zn  Zn37  1  0.50000000  0.81025100  0.27611300  1
  Zn  Zn38  1  0.00000000  0.40263200  0.21361300  1
  Zn  Zn39  1  0.78094500  0.73144200  0.20164600  1
  Zn  Zn40  1  0.78094500  0.73144200  0.31117400  1
  Zn  Zn41  1  0.21905500  0.95049700  0.25641000  1
  Zn  Zn42  1  0.21905500  0.51238600  0.25641000  1
  Zn  Zn43  1  0.21905500  0.73144200  0.31117400  1
  Zn  Zn44  1  0.21905500  0.73144200  0.20164600  1
  Zn  Zn45  1  0.78094500  0.51238600  0.25641000  1
  Zn  Zn46  1  0.78094500  0.95049700  0.25641000  1
  Zn  Zn47  1  0.65815800  0.36524600  0.28986100  1
  Zn  Zn48  1  0.76760900  0.15236300  0.27618000  1
  Zn  Zn49  1  0.50000000  0.17671600  0.30963100  1
  Zn  Zn50  1  0.50000000  0.28616700  0.20318900  1
  Zn  Zn51  1  0.23239100  0.15236300  0.27618000  1
  Zn  Zn52  1  0.50000000  0.44432500  0.24272900  1
  Zn  Zn53  1  0.76760900  0.31052100  0.23664100  1
  Zn  Zn54  1  0.23239100  0.31052100  0.23664100  1
  Zn  Zn55  1  0.50000000  0.01855800  0.27009200  1
  Zn  Zn56  1  0.34184200  0.09763700  0.22295900  1
  Zn  Zn57  1  0.34184200  0.36524600  0.28986100  1
  Zn  Zn58  1  0.65815800  0.09763700  0.22295900  1
  Zn  Zn59  1  0.50000000  0.73144200  0.38141000  1
  Zn  Zn60  1  0.00000000  0.34462800  0.35311400  1
  Zn  Zn61  1  0.00000000  0.11825500  0.35311400  1
  Zn  Zn62  1  0.77362700  0.23144200  0.38141000  1
  Zn  Zn63  1  0.00000000  0.34462800  0.40970700  1
  Zn  Zn64  1  0.22637300  0.23144200  0.38141000  1
  Zn  Zn65  1  0.00000000  0.11825500  0.40970700  1
  Zn  Zn66  1  0.00000000  0.56025100  0.42420800  1
  Zn  Zn67  1  0.50000000  0.15263200  0.36170800  1
  Zn  Zn68  1  0.84238000  0.48144200  0.31891000  1
  Zn  Zn69  1  0.50000000  0.31025100  0.40111300  1
  Zn  Zn70  1  0.15762000  0.48144200  0.31891000  1
  Zn  Zn71  1  0.00000000  0.90263200  0.33861300  1
  Zn  Zn72  1  0.78094500  0.23144200  0.32664600  1
  Zn  Zn73  1  0.78094500  0.23144200  0.43617400  1
  Zn  Zn74  1  0.21905500  0.45049700  0.38141000  1
  Zn  Zn75  1  0.21905500  0.01238600  0.38141000  1
  Zn  Zn76  1  0.21905500  0.23144200  0.43617400  1
  Zn  Zn77  1  0.21905500  0.23144200  0.32664600  1
  Zn  Zn78  1  0.78094500  0.01238600  0.38141000  1
  Zn  Zn79  1  0.78094500  0.45049700  0.38141000  1
  Zn  Zn80  1  0.65815800  0.86524600  0.41486100  1
  Zn  Zn81  1  0.76760900  0.65236300  0.40118000  1
  Zn  Zn82  1  0.50000000  0.67671600  0.43463100  1
  Zn  Zn83  1  0.50000000  0.78616700  0.32818900  1
  Zn  Zn84  1  0.23239100  0.65236300  0.40118000  1
  Zn  Zn85  1  0.50000000  0.94432500  0.36772900  1
  Zn  Zn86  1  0.76760900  0.81052100  0.36164100  1
  Zn  Zn87  1  0.23239100  0.81052100  0.36164100  1
  Zn  Zn88  1  0.50000000  0.51855800  0.39509200  1
  Zn  Zn89  1  0.34184200  0.59763700  0.34795900  1
  Zn  Zn90  1  0.34184200  0.86524600  0.41486100  1
  Zn  Zn91  1  0.65815800  0.59763700  0.34795900  1
  Zn  Zn92  1  0.50000000  0.23144200  0.50641000  1
  Zn  Zn93  1  0.00000000  0.84462800  0.47811400  1
  Zn  Zn94  1  0.00000000  0.61825500  0.47811400  1
  Zn  Zn95  1  0.77362700  0.73144200  0.50641000  1
  Zn  Zn96  1  0.00000000  0.84462800  0.53470700  1
  Zn  Zn97  1  0.22637300  0.73144200  0.50641000  1
  Zn  Zn98  1  1.00000000  0.61825500  0.53470700  1
  Zn  Zn99  1  0.00000000  0.06025100  0.54920800  1
  Zn  Zn100  1  0.50000000  0.65263200  0.48670800  1
  Zn  Zn101  1  0.84238000  0.98144200  0.44391000  1
  Zn  Zn102  1  0.50000000  0.81025100  0.52611300  1
  Zn  Zn103  1  0.15762000  0.98144200  0.44391000  1
  Zn  Zn104  1  0.00000000  0.40263200  0.46361300  1
  Zn  Zn105  1  0.78094500  0.73144200  0.45164600  1
  Zn  Zn106  1  0.78094500  0.73144200  0.56117400  1
  Zn  Zn107  1  0.21905500  0.95049700  0.50641000  1
  Zn  Zn108  1  0.21905500  0.51238600  0.50641000  1
  Zn  Zn109  1  0.21905500  0.73144200  0.56117400  1
  Zn  Zn110  1  0.21905500  0.73144200  0.45164600  1
  Zn  Zn111  1  0.78094500  0.51238600  0.50641000  1
  Zn  Zn112  1  0.78094500  0.95049700  0.50641000  1
  Zn  Zn113  1  0.65815800  0.36524600  0.53986100  1
  Zn  Zn114  1  0.76760900  0.15236300  0.52618000  1
  Zn  Zn115  1  0.50000000  0.17671600  0.55963100  1
  Zn  Zn116  1  0.50000000  0.28616700  0.45318900  1
  Zn  Zn117  1  0.23239100  0.15236300  0.52618000  1
  Zn  Zn118  1  0.50000000  0.44432500  0.49272900  1
  Zn  Zn119  1  0.76760900  0.31052100  0.48664100  1
  Zn  Zn120  1  0.23239100  0.31052100  0.48664100  1
  Zn  Zn121  1  0.50000000  0.01855800  0.52009200  1
  Zn  Zn122  1  0.34184200  0.09763700  0.47295900  1
  Zn  Zn123  1  0.34184200  0.36524600  0.53986100  1
  Zn  Zn124  1  0.65815800  0.09763700  0.47295900  1
  Zn  Zn125  1  0.50000000  0.73144200  0.63141000  1
  Zn  Zn126  1  0.00000000  0.34462800  0.60311400  1
  Zn  Zn127  1  0.00000000  0.11825500  0.60311400  1
  Zn  Zn128  1  0.77362700  0.23144200  0.63141000  1
  Zn  Zn129  1  0.00000000  0.34462800  0.65970700  1
  Zn  Zn130  1  0.22637300  0.23144200  0.63141000  1
  Zn  Zn131  1  0.00000000  0.11825500  0.65970700  1
  Zn  Zn132  1  0.00000000  0.56025100  0.67420800  1
  Zn  Zn133  1  0.50000000  0.15263200  0.61170800  1
  Zn  Zn134  1  0.84238000  0.48144200  0.56891000  1
  Zn  Zn135  1  0.50000000  0.31025100  0.65111300  1
  Zn  Zn136  1  0.15762000  0.48144200  0.56891000  1
  Zn  Zn137  1  0.00000000  0.90263200  0.58861300  1
  Zn  Zn138  1  0.78094500  0.23144200  0.57664600  1
  Zn  Zn139  1  0.78094500  0.23144200  0.68617400  1
  Zn  Zn140  1  0.21905500  0.45049700  0.63141000  1
  Zn  Zn141  1  0.21905500  0.01238600  0.63141000  1
  Zn  Zn142  1  0.21905500  0.23144200  0.68617400  1
  Zn  Zn143  1  0.21905500  0.23144200  0.57664600  1
  Zn  Zn144  1  0.78094500  0.01238600  0.63141000  1
  Zn  Zn145  1  0.78094500  0.45049700  0.63141000  1
  Zn  Zn146  1  0.65815800  0.86524600  0.66486100  1
  Zn  Zn147  1  0.76760900  0.65236300  0.65118000  1
  Zn  Zn148  1  0.50000000  0.67671600  0.68463100  1
  Zn  Zn149  1  0.50000000  0.78616700  0.57818900  1
  Zn  Zn150  1  0.23239100  0.65236300  0.65118000  1
  Zn  Zn151  1  0.50000000  0.94432500  0.61772900  1
  Zn  Zn152  1  0.76760900  0.81052100  0.61164100  1
  Zn  Zn153  1  0.23239100  0.81052100  0.61164100  1
  Zn  Zn154  1  0.50000000  0.51855800  0.64509200  1
  Zn  Zn155  1  0.34184200  0.59763700  0.59795900  1
  Zn  Zn156  1  0.34184200  0.86524600  0.66486100  1
  Zn  Zn157  1  0.65815800  0.59763700  0.59795900  1
  Zn  Zn158  1  0.50000000  0.23144200  0.75641000  1
  Zn  Zn159  1  0.00000000  0.84462800  0.72811400  1
  Zn  Zn160  1  0.00000000  0.61825500  0.72811400  1
  Zn  Zn161  1  0.77362700  0.73144200  0.75641000  1
  Zn  Zn162  1  0.00000000  0.84462800  0.78470700  1
  Zn  Zn163  1  0.22637300  0.73144200  0.75641000  1
  Zn  Zn164  1  0.00000000  0.61825500  0.78470700  1
  Zn  Zn165  1  0.00000000  0.06025100  0.79920800  1
  Zn  Zn166  1  0.50000000  0.65263200  0.73670800  1
  Zn  Zn167  1  0.84238000  0.98144200  0.69391000  1
  Zn  Zn168  1  0.50000000  0.81025100  0.77611300  1
  Zn  Zn169  1  0.15762000  0.98144200  0.69391000  1
  Zn  Zn170  1  0.00000000  0.40263200  0.71361300  1
  Zn  Zn171  1  0.78094500  0.73144200  0.70164600  1
  Zn  Zn172  1  0.78094500  0.73144200  0.81117400  1
  Zn  Zn173  1  0.21905500  0.95049700  0.75641000  1
  Zn  Zn174  1  0.21905500  0.51238600  0.75641000  1
  Zn  Zn175  1  0.21905500  0.73144200  0.81117400  1
  Zn  Zn176  1  0.21905500  0.73144200  0.70164600  1
  Zn  Zn177  1  0.78094500  0.51238600  0.75641000  1
  Zn  Zn178  1  0.78094500  0.95049700  0.75641000  1
  Zn  Zn179  1  0.65815800  0.36524600  0.78986100  1
  Zn  Zn180  1  0.76760900  0.15236300  0.77618000  1
  Zn  Zn181  1  0.50000000  0.17671600  0.80963100  1
  Zn  Zn182  1  0.50000000  0.28616700  0.70318900  1
  Zn  Zn183  1  0.23239100  0.15236300  0.77618000  1
  Zn  Zn184  1  0.50000000  0.44432500  0.74272900  1
  Zn  Zn185  1  0.76760900  0.31052100  0.73664100  1
  Zn  Zn186  1  0.23239100  0.31052100  0.73664100  1
  Zn  Zn187  1  0.50000000  0.01855800  0.77009200  1
  Zn  Zn188  1  0.34184200  0.09763700  0.72295900  1
  Zn  Zn189  1  0.34184200  0.36524600  0.78986100  1
  Zn  Zn190  1  0.65815800  0.09763700  0.72295900  1
