# generated using pymatgen
data_Sm2Mg
_symmetry_space_group_name_H-M   'P 1'
_cell_length_a   6.75892170
_cell_length_b   8.88868581
_cell_length_c   43.28172500
_cell_angle_alpha   91.06630092
_cell_angle_beta   92.20613179
_cell_angle_gamma   96.86865068
_symmetry_Int_Tables_number   1
_chemical_formula_structural   Sm2Mg
_chemical_formula_sum   'Sm36 Mg18'
_cell_volume   2578.99437797
_cell_formula_units_Z   18
loop_
 _symmetry_equiv_pos_site_id
 _symmetry_equiv_pos_as_xyz
  1  'x, y, z'
loop_
 _atom_site_type_symbol
 _atom_site_label
 _atom_site_symmetry_multiplicity
 _atom_site_fract_x
 _atom_site_fract_y
 _atom_site_fract_z
 _atom_site_occupancy
  Sm  Sm0  1  0.06120000  0.40417100  0.22577100  1
  Sm  Sm1  1  0.97042500  0.79144200  0.24846500  1
  Sm  Sm2  1  0.65308600  0.02440000  0.20280000  1
  Sm  Sm3  1  0.74386000  0.63712900  0.18010600  1
  Sm  Sm4  1  0.77548600  0.47560000  0.29720000  1
  Sm  Sm5  1  0.68471100  0.86287100  0.31989400  1
  Sm  Sm6  1  0.36737100  0.09582900  0.27422900  1
  Sm  Sm7  1  0.45814600  0.70855800  0.25153500  1
  Sm  Sm8  1  0.48977100  0.54702900  0.36862900  1
  Sm  Sm9  1  0.39899700  0.93429900  0.39132200  1
  Sm  Sm10  1  0.08165700  0.16725700  0.34565700  1
  Sm  Sm11  1  0.17243200  0.77998700  0.32296300  1
  Sm  Sm12  1  0.20405700  0.61845700  0.44005700  1
  Sm  Sm13  1  0.11328200  0.00572800  0.46275100  1
  Sm  Sm14  1  0.79594300  0.23868600  0.41708600  1
  Sm  Sm15  1  0.88671800  0.85141500  0.39439200  1
  Sm  Sm16  1  0.91834300  0.68988600  0.51148600  1
  Sm  Sm17  1  0.82756800  0.07715600  0.53417900  1
  Sm  Sm18  1  0.51022900  0.31011400  0.48851400  1
  Sm  Sm19  1  0.60100300  0.92284400  0.46582100  1
  Sm  Sm20  1  0.63262900  0.76131400  0.58291400  1
  Sm  Sm21  1  0.54185400  0.14858500  0.60560800  1
  Sm  Sm22  1  0.22451400  0.38154300  0.55994300  1
  Sm  Sm23  1  0.31528900  0.99427200  0.53724900  1
  Sm  Sm24  1  0.34691400  0.83274300  0.65434300  1
  Sm  Sm25  1  0.25614000  0.22001300  0.67703700  1
  Sm  Sm26  1  0.93880000  0.45297100  0.63137100  1
  Sm  Sm27  1  0.02957500  0.06570100  0.60867800  1
  Sm  Sm28  1  0.06120000  0.90417100  0.72577100  1
  Sm  Sm29  1  0.97042500  0.29144200  0.74846500  1
  Sm  Sm30  1  0.65308600  0.52440000  0.70280000  1
  Sm  Sm31  1  0.74386000  0.13712900  0.68010600  1
  Sm  Sm32  1  0.77548600  0.97560000  0.79720000  1
  Sm  Sm33  1  0.68471100  0.36287100  0.81989400  1
  Sm  Sm34  1  0.36737100  0.59582900  0.77422900  1
  Sm  Sm35  1  0.45814600  0.20855800  0.75153500  1
  Mg  Mg36  1  0.15907300  0.06481200  0.20130300  1
  Mg  Mg37  1  0.55521300  0.36376000  0.22726800  1
  Mg  Mg38  1  0.87335800  0.13624000  0.27273200  1
  Mg  Mg39  1  0.26949900  0.43518800  0.29869700  1
  Mg  Mg40  1  0.58764400  0.20766900  0.34416000  1
  Mg  Mg41  1  0.98378500  0.50661700  0.37012500  1
  Mg  Mg42  1  0.30193000  0.27909700  0.41558900  1
  Mg  Mg43  1  0.69807000  0.57804600  0.44155400  1
  Mg  Mg44  1  0.01621500  0.35052600  0.48701800  1
  Mg  Mg45  1  0.41235600  0.64947400  0.51298200  1
  Mg  Mg46  1  0.73050100  0.42195400  0.55844600  1
  Mg  Mg47  1  0.12664200  0.72090300  0.58441100  1
  Mg  Mg48  1  0.44478700  0.49338300  0.62987500  1
  Mg  Mg49  1  0.84092700  0.79233100  0.65584000  1
  Mg  Mg50  1  0.15907300  0.56481200  0.70130300  1
  Mg  Mg51  1  0.55521300  0.86376000  0.72726800  1
  Mg  Mg52  1  0.87335800  0.63624000  0.77273200  1
  Mg  Mg53  1  0.26949900  0.93518800  0.79869700  1
