# generated using pymatgen
data_Mg35P23
_symmetry_space_group_name_H-M   'P 1'
_cell_length_a   10.45363618
_cell_length_b   10.45363687
_cell_length_c   43.10144800
_cell_angle_alpha   94.63714750
_cell_angle_beta   94.63714781
_cell_angle_gamma   109.47122132
_symmetry_Int_Tables_number   1
_chemical_formula_structural   Mg35P23
_chemical_formula_sum   'Mg70 P46'
_cell_volume   4396.93764950
_cell_formula_units_Z   2
loop_
 _symmetry_equiv_pos_site_id
 _symmetry_equiv_pos_as_xyz
  1  'x, y, z'
loop_
 _atom_site_type_symbol
 _atom_site_label
 _atom_site_symmetry_multiplicity
 _atom_site_fract_x
 _atom_site_fract_y
 _atom_site_fract_z
 _atom_site_occupancy
  Mg  Mg0  1  0.56574300  0.37849000  0.23675700  1
  Mg  Mg1  1  0.17890900  0.25819600  0.19655100  1
  Mg  Mg2  1  0.83208700  0.17758800  0.23669200  1
  Mg  Mg3  1  0.37456500  0.72683400  0.34195400  1
  Mg  Mg4  1  0.11138000  0.90491100  0.24330800  1
  Mg  Mg5  1  0.15536500  0.94212700  0.33804600  1
  Mg  Mg6  1  0.93461900  0.48759500  0.19519700  1
  Mg  Mg7  1  0.46288300  0.04893800  0.28480300  1
  Mg  Mg8  1  0.23212900  0.29187400  0.28344900  1
  Mg  Mg9  1  0.04907400  0.63480400  0.39135400  1
  Mg  Mg10  1  0.31221700  0.63850200  0.24324300  1
  Mg  Mg11  1  0.01393400  0.56723600  0.28864600  1
  Mg  Mg12  1  0.40474100  0.23102500  0.34324300  1
  Mg  Mg13  1  0.79157500  0.35132000  0.38344900  1
  Mg  Mg14  1  0.13839700  0.43192800  0.34330800  1
  Mg  Mg15  1  0.59591900  0.88268100  0.23804600  1
  Mg  Mg16  1  0.85910500  0.70460500  0.33669200  1
  Mg  Mg17  1  0.81512000  0.66738900  0.24195400  1
  Mg  Mg18  1  0.03586500  0.12192000  0.38480300  1
  Mg  Mg19  1  0.50760200  0.56057800  0.29519700  1
  Mg  Mg20  1  0.73835500  0.31764100  0.29655100  1
  Mg  Mg21  1  0.52141000  0.57471200  0.38864600  1
  Mg  Mg22  1  0.65826700  0.97101400  0.33675700  1
  Mg  Mg23  1  0.95655000  0.04228000  0.29135400  1
  Mg  Mg24  1  0.16574300  0.97849000  0.43675700  1
  Mg  Mg25  1  0.77890900  0.85819600  0.39655100  1
  Mg  Mg26  1  0.43208700  0.77758800  0.43669200  1
  Mg  Mg27  1  0.97456500  0.32683400  0.54195400  1
  Mg  Mg28  1  0.71138000  0.50491100  0.44330800  1
  Mg  Mg29  1  0.75536500  0.54212700  0.53804600  1
  Mg  Mg30  1  0.53461900  0.08759500  0.39519700  1
  Mg  Mg31  1  0.06288300  0.64893800  0.48480300  1
  Mg  Mg32  1  0.83212900  0.89187400  0.48344900  1
  Mg  Mg33  1  0.64907400  0.23480400  0.59135400  1
  Mg  Mg34  1  0.91221700  0.23850200  0.44324300  1
  Mg  Mg35  1  0.61393400  0.16723600  0.48864600  1
  Mg  Mg36  1  0.00474100  0.83102500  0.54324300  1
  Mg  Mg37  1  0.39157500  0.95132000  0.58344900  1
  Mg  Mg38  1  0.73839700  0.03192800  0.54330800  1
  Mg  Mg39  1  0.19591900  0.48268100  0.43804600  1
  Mg  Mg40  1  0.45910500  0.30460500  0.53669200  1
  Mg  Mg41  1  0.41512000  0.26738900  0.44195400  1
  Mg  Mg42  1  0.63586500  0.72192000  0.58480300  1
  Mg  Mg43  1  0.10760200  0.16057800  0.49519700  1
  Mg  Mg44  1  0.33835500  0.91764100  0.49655100  1
  Mg  Mg45  1  0.12141000  0.17471200  0.58864600  1
  Mg  Mg46  1  0.25826700  0.57101400  0.53675700  1
  Mg  Mg47  1  0.55655000  0.64228000  0.49135400  1
  Mg  Mg48  1  0.76574300  0.57849000  0.63675700  1
  Mg  Mg49  1  0.37890900  0.45819600  0.59655100  1
  Mg  Mg50  1  0.03208700  0.37758800  0.63669200  1
  Mg  Mg51  1  0.57456500  0.92683400  0.74195400  1
  Mg  Mg52  1  0.31138000  0.10491100  0.64330800  1
  Mg  Mg53  1  0.35536500  0.14212700  0.73804600  1
  Mg  Mg54  1  0.13461900  0.68759500  0.59519700  1
  Mg  Mg55  1  0.66288300  0.24893800  0.68480300  1
  Mg  Mg56  1  0.43212900  0.49187400  0.68344900  1
  Mg  Mg57  1  0.51221700  0.83850200  0.64324300  1
  Mg  Mg58  1  0.21393400  0.76723600  0.68864600  1
  Mg  Mg59  1  0.60474100  0.43102500  0.74324300  1
  Mg  Mg60  1  0.99157500  0.55132000  0.78344900  1
  Mg  Mg61  1  0.33839700  0.63192800  0.74330800  1
  Mg  Mg62  1  0.79591900  0.08268100  0.63804600  1
  Mg  Mg63  1  0.05910500  0.90460500  0.73669200  1
  Mg  Mg64  1  0.01512000  0.86738900  0.64195400  1
  Mg  Mg65  1  0.23586500  0.32192000  0.78480300  1
  Mg  Mg66  1  0.70760200  0.76057800  0.69519700  1
  Mg  Mg67  1  0.93835500  0.51764100  0.69655100  1
  Mg  Mg68  1  0.85826700  0.17101400  0.73675700  1
  Mg  Mg69  1  0.15655000  0.24228000  0.69135400  1
  P  P70  1  0.48524200  0.30475800  0.29000000  1
  P  P71  1  0.78524200  0.10475800  0.39000000  1
  P  P72  1  0.28524200  0.60475800  0.39000000  1
  P  P73  1  0.98524200  0.80475800  0.29000000  1
  P  P74  1  0.62572700  0.71903100  0.34475800  1
  P  P75  1  0.72096900  0.06427300  0.28524200  1
  P  P76  1  0.56145300  0.63096900  0.24000000  1
  P  P77  1  0.94951600  0.74524200  0.19475800  1
  P  P78  1  0.90903100  0.47854700  0.34000000  1
  P  P79  1  0.14475800  0.19048400  0.33524200  1
  P  P80  1  0.34475800  0.89048400  0.23524200  1
  P  P81  1  0.24951600  0.54524200  0.29475800  1
  P  P82  1  0.40903100  0.97854700  0.34000000  1
  P  P83  1  0.02096900  0.86427300  0.38524200  1
  P  P84  1  0.06145300  0.13096900  0.24000000  1
  P  P85  1  0.82572700  0.41903100  0.24475800  1
  P  P86  1  0.08524200  0.90475800  0.49000000  1
  P  P87  1  0.38524200  0.70475800  0.59000000  1
  P  P88  1  0.88524200  0.20475800  0.59000000  1
  P  P89  1  0.58524200  0.40475800  0.49000000  1
  P  P90  1  0.22572700  0.31903100  0.54475800  1
  P  P91  1  0.32096900  0.66427300  0.48524200  1
  P  P92  1  0.16145300  0.23096900  0.44000000  1
  P  P93  1  0.54951600  0.34524200  0.39475800  1
  P  P94  1  0.50903100  0.07854700  0.54000000  1
  P  P95  1  0.74475800  0.79048400  0.53524200  1
  P  P96  1  0.94475800  0.49048400  0.43524200  1
  P  P97  1  0.84951600  0.14524200  0.49475800  1
  P  P98  1  0.00903100  0.57854700  0.54000000  1
  P  P99  1  0.62096900  0.46427300  0.58524200  1
  P  P100  1  0.66145300  0.73096900  0.44000000  1
  P  P101  1  0.42572700  0.01903100  0.44475800  1
  P  P102  1  0.68524200  0.50475800  0.69000000  1
  P  P103  1  0.18524200  0.00475800  0.69000000  1
  P  P104  1  0.82572700  0.91903100  0.74475800  1
  P  P105  1  0.92096900  0.26427300  0.68524200  1
  P  P106  1  0.76145300  0.83096900  0.64000000  1
  P  P107  1  0.14951600  0.94524200  0.59475800  1
  P  P108  1  0.10903100  0.67854700  0.74000000  1
  P  P109  1  0.34475800  0.39048400  0.73524200  1
  P  P110  1  0.54475800  0.09048400  0.63524200  1
  P  P111  1  0.44951600  0.74524200  0.69475800  1
  P  P112  1  0.60903100  0.17854700  0.74000000  1
  P  P113  1  0.22096900  0.06427300  0.78524200  1
  P  P114  1  0.26145300  0.33096900  0.64000000  1
  P  P115  1  0.02572700  0.61903100  0.64475800  1
