# generated using pymatgen
data_Mg43Si25
_symmetry_space_group_name_H-M   'P 1'
_cell_length_a   7.16868100
_cell_length_b   12.34156200
_cell_length_c   49.66607700
_cell_angle_alpha   90.00000000
_cell_angle_beta   90.00000000
_cell_angle_gamma   90.00000000
_symmetry_Int_Tables_number   1
_chemical_formula_structural   Mg43Si25
_chemical_formula_sum   'Mg86 Si50'
_cell_volume   4394.09297457
_cell_formula_units_Z   2
loop_
 _symmetry_equiv_pos_site_id
 _symmetry_equiv_pos_as_xyz
  1  'x, y, z'
loop_
 _atom_site_type_symbol
 _atom_site_label
 _atom_site_symmetry_multiplicity
 _atom_site_fract_x
 _atom_site_fract_y
 _atom_site_fract_z
 _atom_site_occupancy
  Mg  Mg0  1  0.92953400  0.08295800  0.21881200  1
  Mg  Mg1  1  0.04780100  0.58295800  0.26947900  1
  Mg  Mg2  1  0.32153300  0.08295800  0.24837900  1
  Mg  Mg3  1  0.43980000  0.58295800  0.29904500  1
  Mg  Mg4  1  0.43980000  0.91704200  0.29904500  1
  Mg  Mg5  1  0.32153300  0.41704200  0.24837900  1
  Mg  Mg6  1  0.04780100  0.91704200  0.26947900  1
  Mg  Mg7  1  0.92953400  0.41704200  0.21881200  1
  Mg  Mg8  1  0.89377700  0.75000000  0.22470400  1
  Mg  Mg9  1  0.58387600  0.25000000  0.21567800  1
  Mg  Mg10  1  0.99456800  0.25000000  0.26795500  1
  Mg  Mg11  1  0.37476600  0.75000000  0.24990200  1
  Mg  Mg12  1  0.78545800  0.75000000  0.30218000  1
  Mg  Mg13  1  0.47555700  0.25000000  0.29315300  1
  Mg  Mg14  1  0.42953400  0.08295800  0.34381200  1
  Mg  Mg15  1  0.06640000  0.58295800  0.33326200  1
  Mg  Mg16  1  0.54780100  0.58295800  0.39447900  1
  Mg  Mg17  1  0.82153300  0.08295800  0.37337900  1
  Mg  Mg18  1  0.80293400  0.08295800  0.30959500  1
  Mg  Mg19  1  0.93980000  0.58295800  0.42404500  1
  Mg  Mg20  1  0.93980000  0.91704200  0.42404500  1
  Mg  Mg21  1  0.80293400  0.41704200  0.30959500  1
  Mg  Mg22  1  0.82153300  0.41704200  0.37337900  1
  Mg  Mg23  1  0.54780100  0.91704200  0.39447900  1
  Mg  Mg24  1  0.06640000  0.91704200  0.33326200  1
  Mg  Mg25  1  0.42953400  0.41704200  0.34381200  1
  Mg  Mg26  1  0.39377700  0.75000000  0.34970400  1
  Mg  Mg27  1  0.08387600  0.25000000  0.34067800  1
  Mg  Mg28  1  0.49456800  0.25000000  0.39295500  1
  Mg  Mg29  1  0.87476600  0.75000000  0.37490200  1
  Mg  Mg30  1  0.28545800  0.75000000  0.42718000  1
  Mg  Mg31  1  0.97555700  0.25000000  0.41815300  1
  Mg  Mg32  1  0.92953400  0.08295800  0.46881200  1
  Mg  Mg33  1  0.56640000  0.58295800  0.45826200  1
  Mg  Mg34  1  0.04780100  0.58295800  0.51947900  1
  Mg  Mg35  1  0.32153300  0.08295800  0.49837900  1
  Mg  Mg36  1  0.30293400  0.08295800  0.43459500  1
  Mg  Mg37  1  0.43980000  0.58295800  0.54904500  1
  Mg  Mg38  1  0.43980000  0.91704200  0.54904500  1
  Mg  Mg39  1  0.30293400  0.41704200  0.43459500  1
  Mg  Mg40  1  0.32153300  0.41704200  0.49837900  1
  Mg  Mg41  1  0.04780100  0.91704200  0.51947900  1
  Mg  Mg42  1  0.56640000  0.91704200  0.45826200  1
  Mg  Mg43  1  0.92953400  0.41704200  0.46881200  1
  Mg  Mg44  1  0.89377700  0.75000000  0.47470400  1
  Mg  Mg45  1  0.58387600  0.25000000  0.46567800  1
  Mg  Mg46  1  0.99456800  0.25000000  0.51795500  1
  Mg  Mg47  1  0.37476600  0.75000000  0.49990200  1
  Mg  Mg48  1  0.78545800  0.75000000  0.55218000  1
  Mg  Mg49  1  0.47555700  0.25000000  0.54315300  1
  Mg  Mg50  1  0.42953400  0.08295800  0.59381200  1
  Mg  Mg51  1  0.06640000  0.58295800  0.58326200  1
  Mg  Mg52  1  0.54780100  0.58295800  0.64447900  1
  Mg  Mg53  1  0.82153300  0.08295800  0.62337900  1
  Mg  Mg54  1  0.80293400  0.08295800  0.55959500  1
  Mg  Mg55  1  0.93980000  0.58295800  0.67404500  1
  Mg  Mg56  1  0.93980000  0.91704200  0.67404500  1
  Mg  Mg57  1  0.80293400  0.41704200  0.55959500  1
  Mg  Mg58  1  0.82153300  0.41704200  0.62337900  1
  Mg  Mg59  1  0.54780100  0.91704200  0.64447900  1
  Mg  Mg60  1  0.06640000  0.91704200  0.58326200  1
  Mg  Mg61  1  0.42953400  0.41704200  0.59381200  1
  Mg  Mg62  1  0.39377700  0.75000000  0.59970400  1
  Mg  Mg63  1  0.08387600  0.25000000  0.59067800  1
  Mg  Mg64  1  0.49456800  0.25000000  0.64295500  1
  Mg  Mg65  1  0.87476600  0.75000000  0.62490200  1
  Mg  Mg66  1  0.28545800  0.75000000  0.67718000  1
  Mg  Mg67  1  0.97555700  0.25000000  0.66815300  1
  Mg  Mg68  1  0.92953400  0.08295800  0.71881200  1
  Mg  Mg69  1  0.56640000  0.58295800  0.70826200  1
  Mg  Mg70  1  0.04780100  0.58295800  0.76947900  1
  Mg  Mg71  1  0.32153300  0.08295800  0.74837900  1
  Mg  Mg72  1  0.30293400  0.08295800  0.68459500  1
  Mg  Mg73  1  0.43980000  0.58295800  0.79904500  1
  Mg  Mg74  1  0.43980000  0.91704200  0.79904500  1
  Mg  Mg75  1  0.30293400  0.41704200  0.68459500  1
  Mg  Mg76  1  0.32153300  0.41704200  0.74837900  1
  Mg  Mg77  1  0.04780100  0.91704200  0.76947900  1
  Mg  Mg78  1  0.56640000  0.91704200  0.70826200  1
  Mg  Mg79  1  0.92953400  0.41704200  0.71881200  1
  Mg  Mg80  1  0.89377700  0.75000000  0.72470400  1
  Mg  Mg81  1  0.58387600  0.25000000  0.71567800  1
  Mg  Mg82  1  0.99456800  0.25000000  0.76795500  1
  Mg  Mg83  1  0.37476600  0.75000000  0.74990200  1
  Mg  Mg84  1  0.78545800  0.75000000  0.80218000  1
  Mg  Mg85  1  0.47555700  0.25000000  0.79315300  1
  Si  Si86  1  0.68466700  0.89974100  0.25892900  1
  Si  Si87  1  0.68466700  0.39974100  0.25892900  1
  Si  Si88  1  0.68466700  0.10025900  0.25892900  1
  Si  Si89  1  0.68466700  0.60025900  0.25892900  1
  Si  Si90  1  0.18466700  0.75000000  0.30059500  1
  Si  Si91  1  0.18466700  0.25000000  0.21726200  1
  Si  Si92  1  0.18466700  0.58746500  0.21726200  1
  Si  Si93  1  0.18466700  0.08746500  0.30059500  1
  Si  Si94  1  0.18466700  0.41253500  0.30059500  1
  Si  Si95  1  0.18466700  0.91253500  0.21726200  1
  Si  Si96  1  0.18466700  0.89974100  0.38392900  1
  Si  Si97  1  0.18466700  0.39974100  0.38392900  1
  Si  Si98  1  0.18466700  0.10025900  0.38392900  1
  Si  Si99  1  0.18466700  0.60025900  0.38392900  1
  Si  Si100  1  0.68466700  0.75000000  0.42559500  1
  Si  Si101  1  0.68466700  0.25000000  0.34226200  1
  Si  Si102  1  0.68466700  0.58746500  0.34226200  1
  Si  Si103  1  0.68466700  0.08746500  0.42559500  1
  Si  Si104  1  0.68466700  0.41253500  0.42559500  1
  Si  Si105  1  0.68466700  0.91253500  0.34226200  1
  Si  Si106  1  0.68466700  0.89974100  0.50892900  1
  Si  Si107  1  0.68466700  0.39974100  0.50892900  1
  Si  Si108  1  0.68466700  0.10025900  0.50892900  1
  Si  Si109  1  0.68466700  0.60025900  0.50892900  1
  Si  Si110  1  0.18466700  0.75000000  0.55059500  1
  Si  Si111  1  0.18466700  0.25000000  0.46726200  1
  Si  Si112  1  0.18466700  0.58746500  0.46726200  1
  Si  Si113  1  0.18466700  0.08746500  0.55059500  1
  Si  Si114  1  0.18466700  0.41253500  0.55059500  1
  Si  Si115  1  0.18466700  0.91253500  0.46726200  1
  Si  Si116  1  0.18466700  0.89974100  0.63392900  1
  Si  Si117  1  0.18466700  0.39974100  0.63392900  1
  Si  Si118  1  0.18466700  0.10025900  0.63392900  1
  Si  Si119  1  0.18466700  0.60025900  0.63392900  1
  Si  Si120  1  0.68466700  0.75000000  0.67559500  1
  Si  Si121  1  0.68466700  0.25000000  0.59226200  1
  Si  Si122  1  0.68466700  0.58746500  0.59226200  1
  Si  Si123  1  0.68466700  0.08746500  0.67559500  1
  Si  Si124  1  0.68466700  0.41253500  0.67559500  1
  Si  Si125  1  0.68466700  0.91253500  0.59226200  1
  Si  Si126  1  0.68466700  0.89974100  0.75892900  1
  Si  Si127  1  0.68466700  0.39974100  0.75892900  1
  Si  Si128  1  0.68466700  0.10025900  0.75892900  1
  Si  Si129  1  0.68466700  0.60025900  0.75892900  1
  Si  Si130  1  0.18466700  0.75000000  0.80059500  1
  Si  Si131  1  0.18466700  0.25000000  0.71726200  1
  Si  Si132  1  0.18466700  0.58746500  0.71726200  1
  Si  Si133  1  0.18466700  0.08746500  0.80059500  1
  Si  Si134  1  0.18466700  0.41253500  0.80059500  1
  Si  Si135  1  0.18466700  0.91253500  0.71726200  1
