# generated using pymatgen
data_LaMg10
_symmetry_space_group_name_H-M   'P 1'
_cell_length_a   10.09623600
_cell_length_b   17.99384600
_cell_length_c   41.55500800
_cell_angle_alpha   90.00000000
_cell_angle_beta   90.00000000
_cell_angle_gamma   90.00000000
_symmetry_Int_Tables_number   1
_chemical_formula_structural   LaMg10
_chemical_formula_sum   'La16 Mg160'
_cell_volume   7549.30311392
_cell_formula_units_Z   16
loop_
 _symmetry_equiv_pos_site_id
 _symmetry_equiv_pos_as_xyz
  1  'x, y, z'
loop_
 _atom_site_type_symbol
 _atom_site_label
 _atom_site_symmetry_multiplicity
 _atom_site_fract_x
 _atom_site_fract_y
 _atom_site_fract_z
 _atom_site_occupancy
  La  La0  1  0.25000000  0.91047600  0.28947400  1
  La  La1  1  0.75000000  0.24380900  0.28947400  1
  La  La2  1  0.75000000  0.57714200  0.28947400  1
  La  La3  1  0.25000000  0.57714200  0.28947400  1
  La  La4  1  0.25000000  0.41047600  0.41447400  1
  La  La5  1  0.75000000  0.74380900  0.41447400  1
  La  La6  1  0.75000000  0.07714200  0.41447400  1
  La  La7  1  0.25000000  0.07714200  0.41447400  1
  La  La8  1  0.25000000  0.91047600  0.53947400  1
  La  La9  1  0.75000000  0.24380900  0.53947400  1
  La  La10  1  0.75000000  0.57714200  0.53947400  1
  La  La11  1  0.25000000  0.57714200  0.53947400  1
  La  La12  1  0.25000000  0.41047600  0.66447400  1
  La  La13  1  0.75000000  0.74380900  0.66447400  1
  La  La14  1  0.75000000  0.07714200  0.66447400  1
  La  La15  1  0.25000000  0.07714200  0.66447400  1
  Mg  Mg16  1  0.97910500  0.15825400  0.22530700  1
  Mg  Mg17  1  0.97910500  0.65825400  0.22864000  1
  Mg  Mg18  1  0.97910500  0.41491900  0.28947400  1
  Mg  Mg19  1  0.47910500  0.73936500  0.28947400  1
  Mg  Mg20  1  0.40166600  0.24380900  0.28947400  1
  Mg  Mg21  1  0.90166600  0.91047600  0.28947400  1
  Mg  Mg22  1  0.59833400  0.91047600  0.28947400  1
  Mg  Mg23  1  0.09833400  0.24380900  0.28947400  1
  Mg  Mg24  1  0.50000000  0.32714200  0.22697400  1
  Mg  Mg25  1  0.00000000  0.82714200  0.22697400  1
  Mg  Mg26  1  1.00000000  0.07714200  0.28947400  1
  Mg  Mg27  1  0.50000000  0.07714200  0.28947400  1
  Mg  Mg28  1  0.50000000  0.82714200  0.22697400  1
  Mg  Mg29  1  0.00000000  0.32714200  0.22697400  1
  Mg  Mg30  1  0.25000000  0.24137700  0.21415600  1
  Mg  Mg31  1  0.75000000  0.75862300  0.25272700  1
  Mg  Mg32  1  0.75000000  0.05989600  0.25090300  1
  Mg  Mg33  1  0.25000000  0.59438900  0.20304500  1
  Mg  Mg34  1  0.25000000  0.89566100  0.20122100  1
  Mg  Mg35  1  0.75000000  0.25862300  0.20122100  1
  Mg  Mg36  1  0.75000000  0.91290800  0.21415600  1
  Mg  Mg37  1  0.75000000  0.41290800  0.23979200  1
  Mg  Mg38  1  0.75000000  0.55989600  0.20304500  1
  Mg  Mg39  1  0.25000000  0.09438900  0.25090300  1
  Mg  Mg40  1  0.25000000  0.39566100  0.25272700  1
  Mg  Mg41  1  0.25000000  0.74137700  0.23979200  1
  Mg  Mg42  1  0.52089500  0.65825400  0.22864000  1
  Mg  Mg43  1  0.02089500  0.49603100  0.22864000  1
  Mg  Mg44  1  0.02089500  0.73936500  0.28947400  1
  Mg  Mg45  1  0.52089500  0.41491900  0.28947400  1
  Mg  Mg46  1  0.52089500  0.15825400  0.22530700  1
  Mg  Mg47  1  0.47910500  0.99603100  0.22530700  1
  Mg  Mg48  1  0.47910500  0.49603100  0.22864000  1
  Mg  Mg49  1  0.02089500  0.99603100  0.22530700  1
  Mg  Mg50  1  0.97910500  0.65825400  0.35030700  1
  Mg  Mg51  1  0.97910500  0.15825400  0.35364000  1
  Mg  Mg52  1  0.97910500  0.91491900  0.41447400  1
  Mg  Mg53  1  0.47910500  0.23936500  0.41447400  1
  Mg  Mg54  1  0.40166600  0.74380900  0.41447400  1
  Mg  Mg55  1  0.90166600  0.41047600  0.41447400  1
  Mg  Mg56  1  0.59833400  0.41047600  0.41447400  1
  Mg  Mg57  1  0.09833400  0.74380900  0.41447400  1
  Mg  Mg58  1  0.50000000  0.82714200  0.35197400  1
  Mg  Mg59  1  0.00000000  0.32714200  0.35197400  1
  Mg  Mg60  1  0.00000000  0.57714200  0.41447400  1
  Mg  Mg61  1  0.50000000  0.57714200  0.41447400  1
  Mg  Mg62  1  0.50000000  0.32714200  0.35197400  1
  Mg  Mg63  1  0.00000000  0.82714200  0.35197400  1
  Mg  Mg64  1  0.25000000  0.74137700  0.33915600  1
  Mg  Mg65  1  0.75000000  0.25862300  0.37772700  1
  Mg  Mg66  1  0.75000000  0.55989600  0.37590300  1
  Mg  Mg67  1  0.25000000  0.09438900  0.32804500  1
  Mg  Mg68  1  0.25000000  0.39566100  0.32622100  1
  Mg  Mg69  1  0.75000000  0.75862300  0.32622100  1
  Mg  Mg70  1  0.75000000  0.41290800  0.33915600  1
  Mg  Mg71  1  0.75000000  0.91290800  0.36479200  1
  Mg  Mg72  1  0.75000000  0.05989600  0.32804500  1
  Mg  Mg73  1  0.25000000  0.59438900  0.37590300  1
  Mg  Mg74  1  0.25000000  0.89566100  0.37772700  1
  Mg  Mg75  1  0.25000000  0.24137700  0.36479200  1
  Mg  Mg76  1  0.52089500  0.15825400  0.35364000  1
  Mg  Mg77  1  0.02089500  0.99603100  0.35364000  1
  Mg  Mg78  1  0.02089500  0.23936500  0.41447400  1
  Mg  Mg79  1  0.52089500  0.91491900  0.41447400  1
  Mg  Mg80  1  0.52089500  0.65825400  0.35030700  1
  Mg  Mg81  1  0.47910500  0.49603100  0.35030700  1
  Mg  Mg82  1  0.47910500  0.99603100  0.35364000  1
  Mg  Mg83  1  0.02089500  0.49603100  0.35030700  1
  Mg  Mg84  1  0.97910500  0.15825400  0.47530700  1
  Mg  Mg85  1  0.97910500  0.65825400  0.47864000  1
  Mg  Mg86  1  0.97910500  0.41491900  0.53947400  1
  Mg  Mg87  1  0.47910500  0.73936500  0.53947400  1
  Mg  Mg88  1  0.40166600  0.24380900  0.53947400  1
  Mg  Mg89  1  0.90166600  0.91047600  0.53947400  1
  Mg  Mg90  1  0.59833400  0.91047600  0.53947400  1
  Mg  Mg91  1  0.09833400  0.24380900  0.53947400  1
  Mg  Mg92  1  0.50000000  0.32714200  0.47697400  1
  Mg  Mg93  1  0.00000000  0.82714200  0.47697400  1
  Mg  Mg94  1  1.00000000  0.07714200  0.53947400  1
  Mg  Mg95  1  0.50000000  0.07714200  0.53947400  1
  Mg  Mg96  1  0.50000000  0.82714200  0.47697400  1
  Mg  Mg97  1  0.00000000  0.32714200  0.47697400  1
  Mg  Mg98  1  0.25000000  0.24137700  0.46415600  1
  Mg  Mg99  1  0.75000000  0.75862300  0.50272700  1
  Mg  Mg100  1  0.75000000  0.05989600  0.50090300  1
  Mg  Mg101  1  0.25000000  0.59438900  0.45304500  1
  Mg  Mg102  1  0.25000000  0.89566100  0.45122100  1
  Mg  Mg103  1  0.75000000  0.25862300  0.45122100  1
  Mg  Mg104  1  0.75000000  0.91290800  0.46415600  1
  Mg  Mg105  1  0.75000000  0.41290800  0.48979200  1
  Mg  Mg106  1  0.75000000  0.55989600  0.45304500  1
  Mg  Mg107  1  0.25000000  0.09438900  0.50090300  1
  Mg  Mg108  1  0.25000000  0.39566100  0.50272700  1
  Mg  Mg109  1  0.25000000  0.74137700  0.48979200  1
  Mg  Mg110  1  0.52089500  0.65825400  0.47864000  1
  Mg  Mg111  1  0.02089500  0.49603100  0.47864000  1
  Mg  Mg112  1  0.02089500  0.73936500  0.53947400  1
  Mg  Mg113  1  0.52089500  0.41491900  0.53947400  1
  Mg  Mg114  1  0.52089500  0.15825400  0.47530700  1
  Mg  Mg115  1  0.47910500  0.99603100  0.47530700  1
  Mg  Mg116  1  0.47910500  0.49603100  0.47864000  1
  Mg  Mg117  1  0.02089500  0.99603100  0.47530700  1
  Mg  Mg118  1  0.97910500  0.65825400  0.60030700  1
  Mg  Mg119  1  0.97910500  0.15825400  0.60364000  1
  Mg  Mg120  1  0.97910500  0.91491900  0.66447400  1
  Mg  Mg121  1  0.47910500  0.23936500  0.66447400  1
  Mg  Mg122  1  0.40166600  0.74380900  0.66447400  1
  Mg  Mg123  1  0.90166600  0.41047600  0.66447400  1
  Mg  Mg124  1  0.59833400  0.41047600  0.66447400  1
  Mg  Mg125  1  0.09833400  0.74380900  0.66447400  1
  Mg  Mg126  1  0.50000000  0.82714200  0.60197400  1
  Mg  Mg127  1  1.00000000  0.32714200  0.60197400  1
  Mg  Mg128  1  0.00000000  0.57714200  0.66447400  1
  Mg  Mg129  1  0.50000000  0.57714200  0.66447400  1
  Mg  Mg130  1  0.50000000  0.32714200  0.60197400  1
  Mg  Mg131  1  0.00000000  0.82714200  0.60197400  1
  Mg  Mg132  1  0.25000000  0.74137700  0.58915600  1
  Mg  Mg133  1  0.75000000  0.25862300  0.62772700  1
  Mg  Mg134  1  0.75000000  0.55989600  0.62590300  1
  Mg  Mg135  1  0.25000000  0.09438900  0.57804500  1
  Mg  Mg136  1  0.25000000  0.39566100  0.57622100  1
  Mg  Mg137  1  0.75000000  0.75862300  0.57622100  1
  Mg  Mg138  1  0.75000000  0.41290800  0.58915600  1
  Mg  Mg139  1  0.75000000  0.91290800  0.61479200  1
  Mg  Mg140  1  0.75000000  0.05989600  0.57804500  1
  Mg  Mg141  1  0.25000000  0.59438900  0.62590300  1
  Mg  Mg142  1  0.25000000  0.89566100  0.62772700  1
  Mg  Mg143  1  0.25000000  0.24137700  0.61479200  1
  Mg  Mg144  1  0.52089500  0.15825400  0.60364000  1
  Mg  Mg145  1  0.02089500  0.99603100  0.60364000  1
  Mg  Mg146  1  0.02089500  0.23936500  0.66447400  1
  Mg  Mg147  1  0.52089500  0.91491900  0.66447400  1
  Mg  Mg148  1  0.52089500  0.65825400  0.60030700  1
  Mg  Mg149  1  0.47910500  0.49603100  0.60030700  1
  Mg  Mg150  1  0.47910500  0.99603100  0.60364000  1
  Mg  Mg151  1  0.02089500  0.49603100  0.60030700  1
  Mg  Mg152  1  0.97910500  0.15825400  0.72530700  1
  Mg  Mg153  1  0.97910500  0.65825400  0.72864000  1
  Mg  Mg154  1  0.50000000  0.32714200  0.72697400  1
  Mg  Mg155  1  0.00000000  0.82714200  0.72697400  1
  Mg  Mg156  1  0.50000000  0.82714200  0.72697400  1
  Mg  Mg157  1  1.00000000  0.32714200  0.72697400  1
  Mg  Mg158  1  0.25000000  0.24137700  0.71415600  1
  Mg  Mg159  1  0.75000000  0.75862300  0.75272700  1
  Mg  Mg160  1  0.75000000  0.05989600  0.75090300  1
  Mg  Mg161  1  0.25000000  0.59438900  0.70304500  1
  Mg  Mg162  1  0.25000000  0.89566100  0.70122100  1
  Mg  Mg163  1  0.75000000  0.25862300  0.70122100  1
  Mg  Mg164  1  0.75000000  0.91290800  0.71415600  1
  Mg  Mg165  1  0.75000000  0.41290800  0.73979200  1
  Mg  Mg166  1  0.75000000  0.55989600  0.70304500  1
  Mg  Mg167  1  0.25000000  0.09438900  0.75090300  1
  Mg  Mg168  1  0.25000000  0.39566100  0.75272700  1
  Mg  Mg169  1  0.25000000  0.74137700  0.73979200  1
  Mg  Mg170  1  0.52089500  0.65825400  0.72864000  1
  Mg  Mg171  1  0.02089500  0.49603100  0.72864000  1
  Mg  Mg172  1  0.52089500  0.15825400  0.72530700  1
  Mg  Mg173  1  0.47910500  0.99603100  0.72530700  1
  Mg  Mg174  1  0.47910500  0.49603100  0.72864000  1
  Mg  Mg175  1  0.02089500  0.99603100  0.72530700  1
