# generated using pymatgen
data_Dy2Mg
_symmetry_space_group_name_H-M   'P 1'
_cell_length_a   5.47816800
_cell_length_b   8.74776954
_cell_length_c   43.36727000
_cell_angle_alpha   90.82850130
_cell_angle_beta   90.00000000
_cell_angle_gamma   90.00000000
_symmetry_Int_Tables_number   1
_chemical_formula_structural   Dy2Mg
_chemical_formula_sum   'Dy28 Mg14'
_cell_volume   2078.01825148
_cell_formula_units_Z   14
loop_
 _symmetry_equiv_pos_site_id
 _symmetry_equiv_pos_as_xyz
  1  'x, y, z'
loop_
 _atom_site_type_symbol
 _atom_site_label
 _atom_site_symmetry_multiplicity
 _atom_site_fract_x
 _atom_site_fract_y
 _atom_site_fract_z
 _atom_site_occupancy
  Dy  Dy0  1  0.25000000  0.61582400  0.78402100  1
  Dy  Dy1  1  0.25000000  0.31173600  0.72732200  1
  Dy  Dy2  1  0.75000000  0.05084300  0.71597900  1
  Dy  Dy3  1  0.75000000  0.35493100  0.77267800  1
  Dy  Dy4  1  0.25000000  0.69915700  0.70068800  1
  Dy  Dy5  1  0.25000000  0.39506900  0.64398900  1
  Dy  Dy6  1  0.75000000  0.13417600  0.63264500  1
  Dy  Dy7  1  0.75000000  0.43826400  0.68934500  1
  Dy  Dy8  1  0.25000000  0.78249100  0.61735500  1
  Dy  Dy9  1  0.25000000  0.47840300  0.56065500  1
  Dy  Dy10  1  0.75000000  0.21750900  0.54931200  1
  Dy  Dy11  1  0.75000000  0.52159700  0.60601100  1
  Dy  Dy12  1  0.25000000  0.86582400  0.53402100  1
  Dy  Dy13  1  0.25000000  0.56173600  0.47732200  1
  Dy  Dy14  1  0.75000000  0.30084300  0.46597900  1
  Dy  Dy15  1  0.75000000  0.60493100  0.52267800  1
  Dy  Dy16  1  0.25000000  0.94915700  0.45068800  1
  Dy  Dy17  1  0.25000000  0.64506900  0.39398900  1
  Dy  Dy18  1  0.75000000  0.38417600  0.38264500  1
  Dy  Dy19  1  0.75000000  0.68826400  0.43934500  1
  Dy  Dy20  1  0.25000000  0.03249100  0.36735500  1
  Dy  Dy21  1  0.25000000  0.72840300  0.31065500  1
  Dy  Dy22  1  0.75000000  0.46750900  0.29931200  1
  Dy  Dy23  1  0.75000000  0.77159700  0.35601100  1
  Dy  Dy24  1  0.25000000  0.11582400  0.28402100  1
  Dy  Dy25  1  0.25000000  0.81173600  0.22732200  1
  Dy  Dy26  1  0.75000000  0.55084300  0.21597900  1
  Dy  Dy27  1  0.75000000  0.85493100  0.27267800  1
  Mg  Mg28  1  0.25000000  0.96182000  0.75558600  1
  Mg  Mg29  1  0.75000000  0.70484600  0.74441400  1
  Mg  Mg30  1  0.25000000  0.04515400  0.67225300  1
  Mg  Mg31  1  0.75000000  0.78818000  0.66108000  1
  Mg  Mg32  1  0.25000000  0.12848700  0.58892000  1
  Mg  Mg33  1  0.75000000  0.87151300  0.57774700  1
  Mg  Mg34  1  0.25000000  0.21182000  0.50558600  1
  Mg  Mg35  1  0.75000000  0.95484600  0.49441400  1
  Mg  Mg36  1  0.25000000  0.29515400  0.42225300  1
  Mg  Mg37  1  0.75000000  0.03818000  0.41108000  1
  Mg  Mg38  1  0.25000000  0.37848700  0.33892000  1
  Mg  Mg39  1  0.75000000  0.12151300  0.32774700  1
  Mg  Mg40  1  0.25000000  0.46182000  0.25558600  1
  Mg  Mg41  1  0.75000000  0.20484600  0.24441400  1
