# generated using pymatgen
data_Mg6Zn31
_symmetry_space_group_name_H-M   'P 1'
_cell_length_a   4.98183600
_cell_length_b   9.38239070
_cell_length_c   50.43080200
_cell_angle_alpha   88.98550828
_cell_angle_beta   90.00000000
_cell_angle_gamma   90.00000000
_symmetry_Int_Tables_number   1
_chemical_formula_structural   Mg6Zn31
_chemical_formula_sum   'Mg12 Zn62'
_cell_volume   2356.84343743
_cell_formula_units_Z   2
loop_
 _symmetry_equiv_pos_site_id
 _symmetry_equiv_pos_as_xyz
  1  'x, y, z'
loop_
 _atom_site_type_symbol
 _atom_site_label
 _atom_site_symmetry_multiplicity
 _atom_site_fract_x
 _atom_site_fract_y
 _atom_site_fract_z
 _atom_site_occupancy
  Mg  Mg0  1  0.50000000  0.38776800  0.49686500  1
  Mg  Mg1  1  1.00000000  0.57969200  0.18369000  1
  Mg  Mg2  1  0.50000000  0.40087000  0.43316800  1
  Mg  Mg3  1  0.00000000  0.56659000  0.24738700  1
  Mg  Mg4  1  0.00000000  0.88776800  0.33019900  1
  Mg  Mg5  1  0.50000000  0.07969200  0.35035700  1
  Mg  Mg6  1  1.00000000  0.90087000  0.26650200  1
  Mg  Mg7  1  0.50000000  0.06659000  0.41405400  1
  Mg  Mg8  1  0.00000000  0.57969200  0.51702300  1
  Mg  Mg9  1  0.00000000  0.56659000  0.58072000  1
  Mg  Mg10  1  0.00000000  0.88776800  0.66353200  1
  Mg  Mg11  1  1.00000000  0.90087000  0.59983500  1
  Zn  Zn12  1  0.50000000  0.73373000  0.42361100  1
  Zn  Zn13  1  0.50000000  0.08009500  0.24586000  1
  Zn  Zn14  1  0.50000000  0.07703700  0.18698500  1
  Zn  Zn15  1  0.50000000  0.57687400  0.21453700  1
  Zn  Zn16  1  1.00000000  0.39058600  0.46601800  1
  Zn  Zn17  1  0.25265100  0.13021300  0.46634300  1
  Zn  Zn18  1  0.24714400  0.63258000  0.46489100  1
  Zn  Zn19  1  0.00000000  0.88736400  0.43469600  1
  Zn  Zn20  1  0.00000000  0.22295000  0.17437900  1
  Zn  Zn21  1  0.74714400  0.33487900  0.21566400  1
  Zn  Zn22  1  0.75285600  0.63258000  0.46489100  1
  Zn  Zn23  1  0.25285600  0.33487900  0.21566400  1
  Zn  Zn24  1  0.75265100  0.83724600  0.21421300  1
  Zn  Zn25  1  1.00000000  0.89042300  0.49357100  1
  Zn  Zn26  1  0.74734900  0.13021300  0.46634300  1
  Zn  Zn27  1  0.24734900  0.83724600  0.21421300  1
  Zn  Zn28  1  1.00000000  0.23373000  0.42361100  1
  Zn  Zn29  1  0.50000000  0.89340600  0.46348100  1
  Zn  Zn30  1  1.00000000  0.07405300  0.21707500  1
  Zn  Zn31  1  0.50000000  0.74451000  0.17284300  1
  Zn  Zn32  1  1.00000000  0.23373000  0.25694400  1
  Zn  Zn33  1  0.00000000  0.58009500  0.41252700  1
  Zn  Zn34  1  0.00000000  0.57703700  0.35365200  1
  Zn  Zn35  1  0.00000000  0.07687400  0.38120400  1
  Zn  Zn36  1  0.50000000  0.89058600  0.29935100  1
  Zn  Zn37  1  0.75265100  0.63021300  0.29967600  1
  Zn  Zn38  1  0.74714400  0.13258000  0.29822500  1
  Zn  Zn39  1  0.50000000  0.38736400  0.26802900  1
  Zn  Zn40  1  0.50000000  0.72295000  0.34104600  1
  Zn  Zn41  1  0.24714400  0.83487900  0.38233100  1
  Zn  Zn42  1  0.25285600  0.13258000  0.29822500  1
  Zn  Zn43  1  0.75285600  0.83487900  0.38233100  1
  Zn  Zn44  1  0.25265100  0.33724600  0.38087900  1
  Zn  Zn45  1  0.50000000  0.39042300  0.32690400  1
  Zn  Zn46  1  0.24734900  0.63021300  0.29967600  1
  Zn  Zn47  1  0.74734900  0.33724600  0.38087900  1
  Zn  Zn48  1  0.50000000  0.73373000  0.25694400  1
  Zn  Zn49  1  0.00000000  0.39340600  0.29681400  1
  Zn  Zn50  1  0.50000000  0.57405300  0.38374100  1
  Zn  Zn51  1  1.00000000  0.24451000  0.33951000  1
  Zn  Zn52  1  0.50000000  0.08009500  0.57919300  1
  Zn  Zn53  1  0.50000000  0.07703700  0.52031800  1
  Zn  Zn54  1  0.50000000  0.57687400  0.54787100  1
  Zn  Zn55  1  1.00000000  0.22295000  0.50771200  1
  Zn  Zn56  1  0.74714400  0.33487900  0.54899700  1
  Zn  Zn57  1  0.25285600  0.33487900  0.54899700  1
  Zn  Zn58  1  0.75265100  0.83724600  0.54754600  1
  Zn  Zn59  1  0.24734900  0.83724600  0.54754600  1
  Zn  Zn60  1  0.00000000  0.07405300  0.55040800  1
  Zn  Zn61  1  0.50000000  0.74451000  0.50617700  1
  Zn  Zn62  1  1.00000000  0.23373000  0.59027800  1
  Zn  Zn63  1  0.50000000  0.89058600  0.63268500  1
  Zn  Zn64  1  0.75265100  0.63021300  0.63301000  1
  Zn  Zn65  1  0.74714400  0.13258000  0.63155800  1
  Zn  Zn66  1  0.50000000  0.38736400  0.60136200  1
  Zn  Zn67  1  0.50000000  0.72295000  0.67437900  1
  Zn  Zn68  1  0.25285600  0.13258000  0.63155800  1
  Zn  Zn69  1  0.50000000  0.39042300  0.66023700  1
  Zn  Zn70  1  0.24734900  0.63021300  0.63301000  1
  Zn  Zn71  1  0.50000000  0.73373000  0.59027800  1
  Zn  Zn72  1  0.00000000  0.39340600  0.63014700  1
  Zn  Zn73  1  1.00000000  0.24451000  0.67284300  1
