# generated using pymatgen
data_La12Mg113
_symmetry_space_group_name_H-M   'P 1'
_cell_length_a   10.38875200
_cell_length_b   14.48655120
_cell_length_c   47.03743100
_cell_angle_alpha   91.51171628
_cell_angle_beta   90.00000000
_cell_angle_gamma   68.98788168
_symmetry_Int_Tables_number   1
_chemical_formula_structural   La12Mg113
_chemical_formula_sum   'La12 Mg113'
_cell_volume   6605.64073251
_cell_formula_units_Z   1
loop_
 _symmetry_equiv_pos_site_id
 _symmetry_equiv_pos_as_xyz
  1  'x, y, z'
loop_
 _atom_site_type_symbol
 _atom_site_label
 _atom_site_symmetry_multiplicity
 _atom_site_fract_x
 _atom_site_fract_y
 _atom_site_fract_z
 _atom_site_occupancy
  La  La0  1  0.45174600  0.09650800  0.31829600  1
  La  La1  1  0.16603200  0.66793600  0.29448600  1
  La  La2  1  0.73746000  0.52507900  0.34210500  1
  La  La3  1  0.88031800  0.23936500  0.27067700  1
  La  La4  1  0.16603200  0.66793600  0.46115300  1
  La  La5  1  0.88031800  0.23936500  0.43734300  1
  La  La6  1  0.45174600  0.09650800  0.48496200  1
  La  La7  1  0.59460300  0.81079300  0.41353400  1
  La  La8  1  0.88031800  0.23936500  0.60401000  1
  La  La9  1  0.59460300  0.81079300  0.58020100  1
  La  La10  1  0.16603200  0.66793600  0.62782000  1
  La  La11  1  0.30888900  0.38222200  0.55639100  1
  Mg  Mg12  1  0.52482300  0.46368600  0.28620100  1
  Mg  Mg13  1  0.15815800  0.68368500  0.21286800  1
  Mg  Mg14  1  0.01149100  0.46368600  0.28620100  1
  Mg  Mg15  1  0.73720400  0.03892300  0.26112200  1
  Mg  Mg16  1  0.06650800  0.86698400  0.34424800  1
  Mg  Mg17  1  0.63793600  0.72412700  0.22520100  1
  Mg  Mg18  1  0.55127000  0.89746000  0.26853400  1
  Mg  Mg19  1  0.26555600  0.46888800  0.24472400  1
  Mg  Mg20  1  0.45174600  0.09650800  0.23496200  1
  Mg  Mg21  1  0.95174600  0.59650800  0.23496200  1
  Mg  Mg22  1  0.45174600  0.59650800  0.23496200  1
  Mg  Mg23  1  0.30888900  0.88222200  0.30639100  1
  Mg  Mg24  1  0.80888900  0.88222200  0.30639100  1
  Mg  Mg25  1  0.30888900  0.38222200  0.30639100  1
  Mg  Mg26  1  0.52721100  0.25414800  0.26574900  1
  Mg  Mg27  1  0.89483300  0.81287800  0.24617200  1
  Mg  Mg28  1  0.51269500  0.68063400  0.29025400  1
  Mg  Mg29  1  0.10508300  0.08381000  0.32252800  1
  Mg  Mg30  1  0.00865900  0.38013700  0.22375300  1
  Mg  Mg31  1  0.39913600  0.51029600  0.34703300  1
  Mg  Mg32  1  0.80667100  0.68063400  0.29025400  1
  Mg  Mg33  1  0.09056700  0.51029600  0.34703300  1
  Mg  Mg34  1  0.29228900  0.81287800  0.24617200  1
  Mg  Mg35  1  0.61120400  0.38013700  0.22375300  1
  Mg  Mg36  1  0.21864200  0.25414800  0.26574900  1
  Mg  Mg37  1  0.81110700  0.08381000  0.32252800  1
  Mg  Mg38  1  0.02724000  0.94552000  0.27832700  1
  Mg  Mg39  1  0.09295500  0.30075800  0.32658100  1
  Mg  Mg40  1  0.60628600  0.30075800  0.32658100  1
  Mg  Mg41  1  0.88057400  0.72552100  0.35166000  1
  Mg  Mg42  1  0.39390500  0.72552100  0.35166000  1
  Mg  Mg43  1  0.59053800  0.81892400  0.33445500  1
  Mg  Mg44  1  0.22387300  0.03892300  0.26112200  1
  Mg  Mg45  1  0.74533500  0.50933100  0.25705700  1
  Mg  Mg46  1  0.23910800  0.03511400  0.42905800  1
  Mg  Mg47  1  0.87244300  0.25511400  0.35572500  1
  Mg  Mg48  1  0.72577700  0.03511400  0.42905800  1
  Mg  Mg49  1  0.45149000  0.61035200  0.40397900  1
  Mg  Mg50  1  0.78079400  0.43841300  0.48710500  1
  Mg  Mg51  1  0.35222200  0.29555600  0.36805800  1
  Mg  Mg52  1  0.26555600  0.46888800  0.41139100  1
  Mg  Mg53  1  0.97984200  0.04031700  0.38758100  1
  Mg  Mg54  1  0.16603200  0.66793600  0.37782000  1
  Mg  Mg55  1  0.66603200  0.16793600  0.37782000  1
  Mg  Mg56  1  0.16603200  0.16793600  0.37782000  1
  Mg  Mg57  1  0.02317500  0.45365100  0.44924800  1
  Mg  Mg58  1  0.52317500  0.45365100  0.44924800  1
  Mg  Mg59  1  0.02317500  0.95365100  0.44924800  1
  Mg  Mg60  1  0.24149600  0.82557600  0.40860600  1
  Mg  Mg61  1  0.60911900  0.38430700  0.38902900  1
  Mg  Mg62  1  0.22698100  0.25206300  0.43311100  1
  Mg  Mg63  1  0.81936900  0.65523800  0.46538600  1
  Mg  Mg64  1  0.72294500  0.95156600  0.36661000  1
  Mg  Mg65  1  0.11342200  0.08172500  0.48989000  1
  Mg  Mg66  1  0.52095600  0.25206300  0.43311100  1
  Mg  Mg67  1  0.80485300  0.08172500  0.48989000  1
  Mg  Mg68  1  0.00657400  0.38430700  0.38902900  1
  Mg  Mg69  1  0.32548900  0.95156600  0.36661000  1
  Mg  Mg70  1  0.93292800  0.82557600  0.40860600  1
  Mg  Mg71  1  0.52539300  0.65523800  0.46538600  1
  Mg  Mg72  1  0.74152600  0.51694800  0.42118400  1
  Mg  Mg73  1  0.80724100  0.87218700  0.46943800  1
  Mg  Mg74  1  0.32057200  0.87218700  0.46943800  1
  Mg  Mg75  1  0.59486000  0.29694900  0.49451700  1
  Mg  Mg76  1  0.10819100  0.29694900  0.49451700  1
  Mg  Mg77  1  0.30482400  0.39035300  0.47731200  1
  Mg  Mg78  1  0.93815800  0.61035200  0.40397900  1
  Mg  Mg79  1  0.45962000  0.08075900  0.39991400  1
  Mg  Mg80  1  0.95339400  0.60654300  0.57191500  1
  Mg  Mg81  1  0.58672900  0.82654200  0.49858200  1
  Mg  Mg82  1  0.44006300  0.60654300  0.57191500  1
  Mg  Mg83  1  0.16577500  0.18178000  0.54683600  1
  Mg  Mg84  1  0.49507900  0.00984200  0.62996300  1
  Mg  Mg85  1  0.06650800  0.86698400  0.51091500  1
  Mg  Mg86  1  0.97984200  0.04031700  0.55424800  1
  Mg  Mg87  1  0.69412700  0.61174500  0.53043800  1
  Mg  Mg88  1  0.88031800  0.23936500  0.52067700  1
  Mg  Mg89  1  0.38031800  0.73936500  0.52067700  1
  Mg  Mg90  1  0.88031800  0.73936500  0.52067700  1
  Mg  Mg91  1  0.73746000  0.02507900  0.59210500  1
  Mg  Mg92  1  0.23746000  0.02507900  0.59210500  1
  Mg  Mg93  1  0.73746000  0.52507900  0.59210500  1
  Mg  Mg94  1  0.95578200  0.39700500  0.55146300  1
  Mg  Mg95  1  0.32340500  0.95573500  0.53188700  1
  Mg  Mg96  1  0.94126600  0.82349200  0.57596800  1
  Mg  Mg97  1  0.53365500  0.22666700  0.60824300  1
  Mg  Mg98  1  0.43723100  0.52299400  0.50946700  1
  Mg  Mg99  1  0.82770800  0.65315300  0.63274700  1
  Mg  Mg100  1  0.23524200  0.82349200  0.57596800  1
  Mg  Mg101  1  0.51913900  0.65315300  0.63274700  1
  Mg  Mg102  1  0.72086000  0.95573500  0.53188700  1
  Mg  Mg103  1  0.03977500  0.52299400  0.50946700  1
  Mg  Mg104  1  0.64721300  0.39700500  0.55146300  1
  Mg  Mg105  1  0.23967900  0.22666700  0.60824300  1
  Mg  Mg106  1  0.45581200  0.08837700  0.56404100  1
  Mg  Mg107  1  0.52152700  0.44361500  0.61229500  1
  Mg  Mg108  1  0.03485800  0.44361500  0.61229500  1
  Mg  Mg109  1  0.30914600  0.86837800  0.63737400  1
  Mg  Mg110  1  0.82247700  0.86837800  0.63737400  1
  Mg  Mg111  1  0.01910900  0.96178100  0.62016900  1
  Mg  Mg112  1  0.65244400  0.18178000  0.54683600  1
  Mg  Mg113  1  0.17390600  0.65218800  0.54277100  1
  Mg  Mg114  1  0.30101500  0.39797100  0.64144000  1
  Mg  Mg115  1  0.78079400  0.43841300  0.65377200  1
  Mg  Mg116  1  0.40841300  0.18317400  0.67329600  1
  Mg  Mg117  1  0.59460300  0.81079300  0.66353400  1
  Mg  Mg118  1  0.09460300  0.31079300  0.66353400  1
  Mg  Mg119  1  0.59460300  0.31079300  0.66353400  1
  Mg  Mg120  1  0.03769000  0.52716400  0.67474400  1
  Mg  Mg121  1  0.15151600  0.09442300  0.65232400  1
  Mg  Mg122  1  0.43514600  0.52716400  0.67474400  1
  Mg  Mg123  1  0.75406100  0.09442300  0.65232400  1
  Mg  Mg124  1  0.88819200  0.22361600  0.68562800  1
