# generated using pymatgen
data_Er2Mg
_symmetry_space_group_name_H-M   'P 1'
_cell_length_a   6.54038706
_cell_length_b   8.70370688
_cell_length_c   44.84936800
_cell_angle_alpha   88.66178197
_cell_angle_beta   85.96648255
_cell_angle_gamma   83.27744677
_symmetry_Int_Tables_number   1
_chemical_formula_structural   Er2Mg
_chemical_formula_sum   'Er36 Mg18'
_cell_volume   2528.94949365
_cell_formula_units_Z   18
loop_
 _symmetry_equiv_pos_site_id
 _symmetry_equiv_pos_as_xyz
  1  'x, y, z'
loop_
 _atom_site_type_symbol
 _atom_site_label
 _atom_site_symmetry_multiplicity
 _atom_site_fract_x
 _atom_site_fract_y
 _atom_site_fract_z
 _atom_site_occupancy
  Er  Er0  1  0.46861700  0.43201900  0.75627700  1
  Er  Er1  1  0.57564400  0.81126400  0.73487100  1
  Er  Er2  1  0.86471600  0.03464800  0.77705700  1
  Er  Er3  1  0.75768900  0.65540300  0.79846200  1
  Er  Er4  1  0.80195100  0.49868600  0.68961000  1
  Er  Er5  1  0.90897800  0.87793000  0.66820400  1
  Er  Er6  1  0.19804900  0.10131400  0.71039000  1
  Er  Er7  1  0.09102200  0.72207000  0.73179600  1
  Er  Er8  1  0.13528400  0.56535200  0.62294300  1
  Er  Er9  1  0.24231100  0.94459700  0.60153800  1
  Er  Er10  1  0.53138300  0.16798100  0.64372300  1
  Er  Er11  1  0.42435600  0.78873600  0.66512900  1
  Er  Er12  1  0.46861700  0.63201900  0.55627700  1
  Er  Er13  1  0.57564400  0.01126400  0.53487100  1
  Er  Er14  1  0.86471600  0.23464800  0.57705700  1
  Er  Er15  1  0.75768900  0.85540300  0.59846200  1
  Er  Er16  1  0.80195100  0.69868600  0.48961000  1
  Er  Er17  1  0.90897800  0.07793000  0.46820400  1
  Er  Er18  1  0.19804900  0.30131400  0.51039000  1
  Er  Er19  1  0.09102200  0.92207000  0.53179600  1
  Er  Er20  1  0.13528400  0.76535200  0.42294300  1
  Er  Er21  1  0.24231100  0.14459700  0.40153800  1
  Er  Er22  1  0.53138300  0.36798100  0.44372300  1
  Er  Er23  1  0.42435600  0.98873600  0.46512900  1
  Er  Er24  1  0.46861700  0.83201900  0.35627700  1
  Er  Er25  1  0.57564400  0.21126400  0.33487100  1
  Er  Er26  1  0.86471600  0.43464800  0.37705700  1
  Er  Er27  1  0.75768900  0.05540300  0.39846200  1
  Er  Er28  1  0.80195100  0.89868600  0.28961000  1
  Er  Er29  1  0.90897800  0.27793000  0.26820400  1
  Er  Er30  1  0.19804900  0.50131400  0.31039000  1
  Er  Er31  1  0.09102200  0.12207000  0.33179600  1
  Er  Er32  1  0.13528400  0.96535200  0.22294300  1
  Er  Er33  1  0.24231100  0.34459700  0.20153800  1
  Er  Er34  1  0.53138300  0.56798100  0.24372300  1
  Er  Er35  1  0.42435600  0.18873600  0.26512900  1
  Mg  Mg36  1  0.35517400  0.08998900  0.77896500  1
  Mg  Mg37  1  0.97815900  0.37667700  0.75436800  1
  Mg  Mg38  1  0.68850800  0.15665600  0.71229800  1
  Mg  Mg39  1  0.31149200  0.44334400  0.68770200  1
  Mg  Mg40  1  0.02184100  0.22332300  0.64563200  1
  Mg  Mg41  1  0.64482600  0.51001100  0.62103500  1
  Mg  Mg42  1  0.35517400  0.28998900  0.57896500  1
  Mg  Mg43  1  0.97815900  0.57667700  0.55436800  1
  Mg  Mg44  1  0.68850800  0.35665600  0.51229800  1
  Mg  Mg45  1  0.31149200  0.64334400  0.48770200  1
  Mg  Mg46  1  0.02184100  0.42332300  0.44563200  1
  Mg  Mg47  1  0.64482600  0.71001100  0.42103500  1
  Mg  Mg48  1  0.35517400  0.48998900  0.37896500  1
  Mg  Mg49  1  0.97815900  0.77667700  0.35436800  1
  Mg  Mg50  1  0.68850800  0.55665600  0.31229800  1
  Mg  Mg51  1  0.31149200  0.84334400  0.28770200  1
  Mg  Mg52  1  0.02184100  0.62332300  0.24563200  1
  Mg  Mg53  1  0.64482600  0.91001100  0.22103500  1
