# generated using pymatgen
data_MgCo2
_symmetry_space_group_name_H-M   'P 1'
_cell_length_a   4.82826400
_cell_length_b   7.88793400
_cell_length_c   41.81399200
_cell_angle_alpha   90.00000000
_cell_angle_beta   90.00000000
_cell_angle_gamma   90.00000000
_symmetry_Int_Tables_number   1
_chemical_formula_structural   MgCo2
_chemical_formula_sum   'Mg24 Co48'
_cell_volume   1592.48704635
_cell_formula_units_Z   24
loop_
 _symmetry_equiv_pos_site_id
 _symmetry_equiv_pos_as_xyz
  1  'x, y, z'
loop_
 _atom_site_type_symbol
 _atom_site_label
 _atom_site_symmetry_multiplicity
 _atom_site_fract_x
 _atom_site_fract_y
 _atom_site_fract_z
 _atom_site_occupancy
  Mg  Mg0  1  0.25000000  0.56324900  0.21666700  1
  Mg  Mg1  1  0.25000000  0.93675100  0.21666700  1
  Mg  Mg2  1  0.25000000  0.06324900  0.28333300  1
  Mg  Mg3  1  0.25000000  0.43675100  0.28333300  1
  Mg  Mg4  1  0.75000000  0.56324900  0.31666700  1
  Mg  Mg5  1  0.75000000  0.93675100  0.31666700  1
  Mg  Mg6  1  0.75000000  0.06324900  0.38333300  1
  Mg  Mg7  1  0.75000000  0.43675100  0.38333300  1
  Mg  Mg8  1  0.25000000  0.56324900  0.41666700  1
  Mg  Mg9  1  0.25000000  0.93675100  0.41666700  1
  Mg  Mg10  1  0.25000000  0.06324900  0.48333300  1
  Mg  Mg11  1  0.25000000  0.43675100  0.48333300  1
  Mg  Mg12  1  0.75000000  0.56324900  0.51666700  1
  Mg  Mg13  1  0.75000000  0.93675100  0.51666700  1
  Mg  Mg14  1  0.75000000  0.06324900  0.58333300  1
  Mg  Mg15  1  0.75000000  0.43675100  0.58333300  1
  Mg  Mg16  1  0.25000000  0.56324900  0.61666700  1
  Mg  Mg17  1  0.25000000  0.93675100  0.61666700  1
  Mg  Mg18  1  0.25000000  0.06324900  0.68333300  1
  Mg  Mg19  1  0.25000000  0.43675100  0.68333300  1
  Mg  Mg20  1  0.75000000  0.56324900  0.71666700  1
  Mg  Mg21  1  0.75000000  0.93675100  0.71666700  1
  Mg  Mg22  1  0.75000000  0.06324900  0.78333300  1
  Mg  Mg23  1  0.75000000  0.43675100  0.78333300  1
  Co  Co24  1  0.75000000  0.50000000  0.25000000  1
  Co  Co25  1  0.49408800  0.75000000  0.26706100  1
  Co  Co26  1  0.00591200  0.75000000  0.26706100  1
  Co  Co27  1  0.75000000  0.75000000  0.21587800  1
  Co  Co28  1  0.75000000  0.00000000  0.25000000  1
  Co  Co29  1  0.75000000  0.25000000  0.28412200  1
  Co  Co30  1  0.49408800  0.25000000  0.23293900  1
  Co  Co31  1  0.00591200  0.25000000  0.23293900  1
  Co  Co32  1  0.25000000  0.50000000  0.35000000  1
  Co  Co33  1  0.99408800  0.75000000  0.36706100  1
  Co  Co34  1  0.50591200  0.75000000  0.36706100  1
  Co  Co35  1  0.25000000  0.75000000  0.31587800  1
  Co  Co36  1  0.25000000  0.00000000  0.35000000  1
  Co  Co37  1  0.25000000  0.25000000  0.38412200  1
  Co  Co38  1  0.99408800  0.25000000  0.33293900  1
  Co  Co39  1  0.50591200  0.25000000  0.33293900  1
  Co  Co40  1  0.75000000  0.50000000  0.45000000  1
  Co  Co41  1  0.49408800  0.75000000  0.46706100  1
  Co  Co42  1  0.00591200  0.75000000  0.46706100  1
  Co  Co43  1  0.75000000  0.75000000  0.41587800  1
  Co  Co44  1  0.75000000  0.00000000  0.45000000  1
  Co  Co45  1  0.75000000  0.25000000  0.48412200  1
  Co  Co46  1  0.49408800  0.25000000  0.43293900  1
  Co  Co47  1  0.00591200  0.25000000  0.43293900  1
  Co  Co48  1  0.25000000  0.50000000  0.55000000  1
  Co  Co49  1  0.99408800  0.75000000  0.56706100  1
  Co  Co50  1  0.50591200  0.75000000  0.56706100  1
  Co  Co51  1  0.25000000  0.75000000  0.51587800  1
  Co  Co52  1  0.25000000  0.00000000  0.55000000  1
  Co  Co53  1  0.25000000  0.25000000  0.58412200  1
  Co  Co54  1  0.99408800  0.25000000  0.53293900  1
  Co  Co55  1  0.50591200  0.25000000  0.53293900  1
  Co  Co56  1  0.75000000  0.50000000  0.65000000  1
  Co  Co57  1  0.49408800  0.75000000  0.66706100  1
  Co  Co58  1  0.00591200  0.75000000  0.66706100  1
  Co  Co59  1  0.75000000  0.75000000  0.61587800  1
  Co  Co60  1  0.75000000  0.00000000  0.65000000  1
  Co  Co61  1  0.75000000  0.25000000  0.68412200  1
  Co  Co62  1  0.49408800  0.25000000  0.63293900  1
  Co  Co63  1  0.00591200  0.25000000  0.63293900  1
  Co  Co64  1  0.25000000  0.50000000  0.75000000  1
  Co  Co65  1  0.99408800  0.75000000  0.76706100  1
  Co  Co66  1  0.50591200  0.75000000  0.76706100  1
  Co  Co67  1  0.25000000  0.75000000  0.71587800  1
  Co  Co68  1  0.25000000  0.00000000  0.75000000  1
  Co  Co69  1  0.25000000  0.25000000  0.78412200  1
  Co  Co70  1  0.99408800  0.25000000  0.73293900  1
  Co  Co71  1  0.50591200  0.25000000  0.73293900  1
