# generated using pymatgen
data_Mg23B157
_symmetry_space_group_name_H-M   'P 1'
_cell_length_a   10.07244113
_cell_length_b   12.05234828
_cell_length_c   43.84258900
_cell_angle_alpha   85.56912893
_cell_angle_beta   87.53461614
_cell_angle_gamma   72.91219278
_symmetry_Int_Tables_number   1
_chemical_formula_structural   Mg23B157
_chemical_formula_sum   'Mg46 B314'
_cell_volume   5071.03078932
_cell_formula_units_Z   2
loop_
 _symmetry_equiv_pos_site_id
 _symmetry_equiv_pos_as_xyz
  1  'x, y, z'
loop_
 _atom_site_type_symbol
 _atom_site_label
 _atom_site_symmetry_multiplicity
 _atom_site_fract_x
 _atom_site_fract_y
 _atom_site_fract_z
 _atom_site_occupancy
  Mg  Mg0  1  0.95805800  0.55537200  0.29375000  1
  Mg  Mg1  1  0.10805800  0.65537200  0.24375000  1
  Mg  Mg2  1  0.11331500  0.08244100  0.28021500  1
  Mg  Mg3  1  0.45280100  0.62830300  0.25728500  1
  Mg  Mg4  1  0.60805800  0.15537200  0.24375000  1
  Mg  Mg5  1  0.45805800  0.05537200  0.29375000  1
  Mg  Mg6  1  0.65805800  0.35537200  0.39375000  1
  Mg  Mg7  1  0.80805800  0.45537200  0.34375000  1
  Mg  Mg8  1  0.81331500  0.88244100  0.38021500  1
  Mg  Mg9  1  0.15280100  0.42830300  0.35728500  1
  Mg  Mg10  1  0.30805800  0.95537200  0.34375000  1
  Mg  Mg11  1  0.15805800  0.85537200  0.39375000  1
  Mg  Mg12  1  0.46331500  0.48244100  0.33021500  1
  Mg  Mg13  1  0.80280100  0.02830300  0.30728500  1
  Mg  Mg14  1  0.35805800  0.15537200  0.49375000  1
  Mg  Mg15  1  0.50805800  0.25537200  0.44375000  1
  Mg  Mg16  1  0.51331500  0.68244100  0.48021500  1
  Mg  Mg17  1  0.85280100  0.22830300  0.45728500  1
  Mg  Mg18  1  0.00805800  0.75537200  0.44375000  1
  Mg  Mg19  1  0.85805800  0.65537200  0.49375000  1
  Mg  Mg20  1  0.16331500  0.28244100  0.43021500  1
  Mg  Mg21  1  0.50280100  0.82830300  0.40728500  1
  Mg  Mg22  1  0.05805800  0.95537200  0.59375000  1
  Mg  Mg23  1  0.20805800  0.05537200  0.54375000  1
  Mg  Mg24  1  0.21331500  0.48244100  0.58021500  1
  Mg  Mg25  1  0.55280100  0.02830300  0.55728500  1
  Mg  Mg26  1  0.70805800  0.55537200  0.54375000  1
  Mg  Mg27  1  0.55805800  0.45537200  0.59375000  1
  Mg  Mg28  1  0.86331500  0.08244100  0.53021500  1
  Mg  Mg29  1  0.20280100  0.62830300  0.50728500  1
  Mg  Mg30  1  0.75805800  0.75537200  0.69375000  1
  Mg  Mg31  1  0.90805800  0.85537200  0.64375000  1
  Mg  Mg32  1  0.91331500  0.28244100  0.68021500  1
  Mg  Mg33  1  0.25280100  0.82830300  0.65728500  1
  Mg  Mg34  1  0.40805800  0.35537200  0.64375000  1
  Mg  Mg35  1  0.25805800  0.25537200  0.69375000  1
  Mg  Mg36  1  0.56331500  0.88244100  0.63021500  1
  Mg  Mg37  1  0.90280100  0.42830300  0.60728500  1
  Mg  Mg38  1  0.45805800  0.55537200  0.79375000  1
  Mg  Mg39  1  0.60805800  0.65537200  0.74375000  1
  Mg  Mg40  1  0.61331500  0.08244100  0.78021500  1
  Mg  Mg41  1  0.95280100  0.62830300  0.75728500  1
  Mg  Mg42  1  0.10805800  0.15537200  0.74375000  1
  Mg  Mg43  1  0.95805800  0.05537200  0.79375000  1
  Mg  Mg44  1  0.26331500  0.68244100  0.73021500  1
  Mg  Mg45  1  0.60280100  0.22830300  0.70728500  1
  B  B46  1  0.32159000  0.94472100  0.29432600  1
  B  B47  1  0.36703000  0.95937300  0.25566700  1
  B  B48  1  0.03430800  0.72480300  0.29288600  1
  B  B49  1  0.04624000  0.87008300  0.29321700  1
  B  B50  1  0.31582800  0.22734300  0.24969800  1
  B  B51  1  0.26373000  0.23483800  0.29010000  1
  B  B52  1  0.98168900  0.94249300  0.25701200  1
  B  B53  1  0.58442700  0.76825100  0.28048800  1
  B  B54  1  0.30238600  0.47590600  0.24740000  1
  B  B55  1  0.25028800  0.48340100  0.28780200  1
  B  B56  1  0.51987600  0.84066100  0.24428300  1
  B  B57  1  0.53180800  0.98594100  0.24461400  1
  B  B58  1  0.19908600  0.75137100  0.28183300  1
  B  B59  1  0.24452600  0.76602300  0.24317400  1
  B  B60  1  0.97159000  0.54472100  0.24432600  1
  B  B61  1  0.86499600  0.45801700  0.25634400  1
  B  B62  1  0.68430800  0.32480300  0.24288600  1
  B  B63  1  0.71614800  0.49315500  0.28292500  1
  B  B64  1  0.69624000  0.47008300  0.24321700  1
  B  B65  1  0.60290500  0.40786000  0.27432900  1
  B  B66  1  0.43118600  0.25426600  0.27815400  1
  B  B67  1  0.90589100  0.71991900  0.26622600  1
  B  B68  1  0.76169700  0.73348300  0.29077800  1
  B  B69  1  0.42502400  0.40471700  0.27590000  1
  B  B70  1  0.14109200  0.30602800  0.26160000  1
  B  B71  1  0.80441900  0.97726100  0.24672200  1
  B  B72  1  0.66022500  0.99082500  0.27127400  1
  B  B73  1  0.13493000  0.45647800  0.25934600  1
  B  B74  1  0.96321100  0.30288400  0.26317100  1
  B  B75  1  0.86987600  0.24066100  0.29428300  1
  B  B76  1  0.84996800  0.21758900  0.25457500  1
  B  B77  1  0.88180800  0.38594100  0.29461400  1
  B  B78  1  0.70112000  0.25272700  0.28115600  1
  B  B79  1  0.59452600  0.16602300  0.29317400  1
  B  B80  1  0.02159000  0.74472100  0.39432600  1
  B  B81  1  0.21499600  0.85801700  0.30634400  1
  B  B82  1  0.06703000  0.75937300  0.35566700  1
  B  B83  1  0.73430800  0.52480300  0.39288600  1
  B  B84  1  0.06614800  0.89315500  0.33292500  1
  B  B85  1  0.74624000  0.67008300  0.39321700  1
  B  B86  1  0.95290500  0.80786000  0.32432900  1
  B  B87  1  0.78118600  0.65426600  0.32815400  1
  B  B88  1  0.25589100  0.11991900  0.31622600  1
  B  B89  1  0.01582800  0.02734300  0.34969800  1
  B  B90  1  0.11169700  0.13348300  0.34077800  1
  B  B91  1  0.96373000  0.03483800  0.39010000  1
  B  B92  1  0.77502400  0.80471700  0.32590000  1
  B  B93  1  0.68168900  0.74249300  0.35701200  1
  B  B94  1  0.28442700  0.56825100  0.38048800  1
  B  B95  1  0.49109200  0.70602800  0.31160000  1
  B  B96  1  0.00238600  0.27590600  0.34740000  1
  B  B97  1  0.15441900  0.37726100  0.29672200  1
  B  B98  1  0.95028800  0.28340100  0.38780200  1
  B  B99  1  0.01022500  0.39082500  0.32127400  1
  B  B100  1  0.48493000  0.85647800  0.30934600  1
  B  B101  1  0.31321100  0.70288400  0.31317100  1
  B  B102  1  0.21987600  0.64066100  0.34428300  1
  B  B103  1  0.19996800  0.61758900  0.30457500  1
  B  B104  1  0.23180800  0.78594100  0.34461400  1
  B  B105  1  0.89908600  0.55137100  0.38183300  1
  B  B106  1  0.05112000  0.65272700  0.33115600  1
  B  B107  1  0.94452600  0.56602300  0.34317400  1
  B  B108  1  0.67159000  0.34472100  0.34432600  1
  B  B109  1  0.56499600  0.25801700  0.35634400  1
  B  B110  1  0.71703000  0.35937300  0.30566700  1
  B  B111  1  0.38430800  0.12480300  0.34288600  1
  B  B112  1  0.41614800  0.29315500  0.38292500  1
  B  B113  1  0.39624000  0.27008300  0.34321700  1
  B  B114  1  0.30290500  0.20786000  0.37432900  1
  B  B115  1  0.13118600  0.05426600  0.37815400  1
  B  B116  1  0.60589100  0.51991900  0.36622600  1
  B  B117  1  0.66582800  0.62734300  0.29969800  1
  B  B118  1  0.46169700  0.53348300  0.39077800  1
  B  B119  1  0.61373000  0.63483800  0.34010000  1
  B  B120  1  0.12502400  0.20471700  0.37590000  1
  B  B121  1  0.33168900  0.34249300  0.30701200  1
  B  B122  1  0.93442700  0.16825100  0.33048800  1
  B  B123  1  0.84109200  0.10602800  0.36160000  1
  B  B124  1  0.65238600  0.87590600  0.29740000  1
  B  B125  1  0.50441900  0.77726100  0.34672200  1
  B  B126  1  0.60028800  0.88340100  0.33780200  1
  B  B127  1  0.36022500  0.79082500  0.37127400  1
  B  B128  1  0.83493000  0.25647800  0.35934600  1
  B  B129  1  0.66321100  0.10288400  0.36317100  1
  B  B130  1  0.56987600  0.04066100  0.39428300  1
  B  B131  1  0.54996800  0.01758900  0.35457500  1
  B  B132  1  0.58180800  0.18594100  0.39461400  1
  B  B133  1  0.54908600  0.15137100  0.33183300  1
  B  B134  1  0.40112000  0.05272700  0.38115600  1
  B  B135  1  0.29452600  0.96602300  0.39317400  1
  B  B136  1  0.72159000  0.54472100  0.49432600  1
  B  B137  1  0.91499600  0.65801700  0.40634400  1
  B  B138  1  0.76703000  0.55937300  0.45566700  1
  B  B139  1  0.43430800  0.32480300  0.49288600  1
  B  B140  1  0.76614800  0.69315500  0.43292500  1
  B  B141  1  0.44624000  0.47008300  0.49321700  1
  B  B142  1  0.65290500  0.60786000  0.42432900  1
  B  B143  1  0.48118600  0.45426600  0.42815400  1
  B  B144  1  0.95589100  0.91991900  0.41622600  1
  B  B145  1  0.71582800  0.82734300  0.44969800  1
  B  B146  1  0.81169700  0.93348300  0.44077800  1
  B  B147  1  0.66373000  0.83483800  0.49010000  1
  B  B148  1  0.47502400  0.60471700  0.42590000  1
  B  B149  1  0.38168900  0.54249300  0.45701200  1
  B  B150  1  0.98442700  0.36825100  0.48048800  1
  B  B151  1  0.19109200  0.50602800  0.41160000  1
  B  B152  1  0.70238600  0.07590600  0.44740000  1
  B  B153  1  0.85441900  0.17726100  0.39672200  1
  B  B154  1  0.65028800  0.08340100  0.48780200  1
  B  B155  1  0.71022500  0.19082500  0.42127400  1
  B  B156  1  0.18493000  0.65647800  0.40934600  1
  B  B157  1  0.01321100  0.50288400  0.41317100  1
  B  B158  1  0.91987600  0.44066100  0.44428300  1
  B  B159  1  0.89996800  0.41758900  0.40457500  1
  B  B160  1  0.93180800  0.58594100  0.44461400  1
  B  B161  1  0.59908600  0.35137100  0.48183300  1
  B  B162  1  0.75112000  0.45272700  0.43115600  1
  B  B163  1  0.64452600  0.36602300  0.44317400  1
  B  B164  1  0.37159000  0.14472100  0.44432600  1
  B  B165  1  0.26499600  0.05801700  0.45634400  1
  B  B166  1  0.41703000  0.15937300  0.40566700  1
  B  B167  1  0.08430800  0.92480300  0.44288600  1
  B  B168  1  0.11614800  0.09315500  0.48292500  1
  B  B169  1  0.09624000  0.07008300  0.44321700  1
  B  B170  1  0.00290500  0.00786000  0.47432900  1
  B  B171  1  0.83118600  0.85426600  0.47815400  1
  B  B172  1  0.30589100  0.31991900  0.46622600  1
  B  B173  1  0.36582800  0.42734300  0.39969800  1
  B  B174  1  0.16169700  0.33348300  0.49077800  1
  B  B175  1  0.31373000  0.43483800  0.44010000  1
  B  B176  1  0.82502400  0.00471700  0.47590000  1
  B  B177  1  0.03168900  0.14249300  0.40701200  1
  B  B178  1  0.63442700  0.96825100  0.43048800  1
  B  B179  1  0.54109200  0.90602800  0.46160000  1
  B  B180  1  0.35238600  0.67590600  0.39740000  1
  B  B181  1  0.20441900  0.57726100  0.44672200  1
  B  B182  1  0.30028800  0.68340100  0.43780200  1
  B  B183  1  0.06022500  0.59082500  0.47127400  1
  B  B184  1  0.53493000  0.05647800  0.45934600  1
  B  B185  1  0.36321100  0.90288400  0.46317100  1
  B  B186  1  0.26987600  0.84066100  0.49428300  1
  B  B187  1  0.24996800  0.81758900  0.45457500  1
  B  B188  1  0.28180800  0.98594100  0.49461400  1
  B  B189  1  0.24908600  0.95137100  0.43183300  1
  B  B190  1  0.10112000  0.85272700  0.48115600  1
  B  B191  1  0.99452600  0.76602300  0.49317400  1
  B  B192  1  0.42159000  0.34472100  0.59432600  1
  B  B193  1  0.61499600  0.45801700  0.50634400  1
  B  B194  1  0.46703000  0.35937300  0.55566700  1
  B  B195  1  0.13430800  0.12480300  0.59288600  1
  B  B196  1  0.46614800  0.49315500  0.53292500  1
  B  B197  1  0.14624000  0.27008300  0.59321700  1
  B  B198  1  0.35290500  0.40786000  0.52432900  1
  B  B199  1  0.18118600  0.25426600  0.52815400  1
  B  B200  1  0.65589100  0.71991900  0.51622600  1
  B  B201  1  0.41582800  0.62734300  0.54969800  1
  B  B202  1  0.51169700  0.73348300  0.54077800  1
  B  B203  1  0.36373000  0.63483800  0.59010000  1
  B  B204  1  0.17502400  0.40471700  0.52590000  1
  B  B205  1  0.08168900  0.34249300  0.55701200  1
  B  B206  1  0.68442700  0.16825100  0.58048800  1
  B  B207  1  0.89109200  0.30602800  0.51160000  1
  B  B208  1  0.40238600  0.87590600  0.54740000  1
  B  B209  1  0.55441900  0.97726100  0.49672200  1
  B  B210  1  0.35028800  0.88340100  0.58780200  1
  B  B211  1  0.41022500  0.99082500  0.52127400  1
  B  B212  1  0.88493000  0.45647800  0.50934600  1
  B  B213  1  0.71321100  0.30288400  0.51317100  1
  B  B214  1  0.61987600  0.24066100  0.54428300  1
  B  B215  1  0.59996800  0.21758900  0.50457500  1
  B  B216  1  0.63180800  0.38594100  0.54461400  1
  B  B217  1  0.29908600  0.15137100  0.58183300  1
  B  B218  1  0.45112000  0.25272700  0.53115600  1
  B  B219  1  0.34452600  0.16602300  0.54317400  1
  B  B220  1  0.07159000  0.94472100  0.54432600  1
  B  B221  1  0.96499600  0.85801700  0.55634400  1
  B  B222  1  0.11703000  0.95937300  0.50566700  1
  B  B223  1  0.78430800  0.72480300  0.54288600  1
  B  B224  1  0.81614800  0.89315500  0.58292500  1
  B  B225  1  0.79624000  0.87008300  0.54321700  1
  B  B226  1  0.70290500  0.80786000  0.57432900  1
  B  B227  1  0.53118600  0.65426600  0.57815400  1
  B  B228  1  0.00589100  0.11991900  0.56622600  1
  B  B229  1  0.06582800  0.22734300  0.49969800  1
  B  B230  1  0.86169700  0.13348300  0.59077800  1
  B  B231  1  0.01373000  0.23483800  0.54010000  1
  B  B232  1  0.52502400  0.80471700  0.57590000  1
  B  B233  1  0.73168900  0.94249300  0.50701200  1
  B  B234  1  0.33442700  0.76825100  0.53048800  1
  B  B235  1  0.24109200  0.70602800  0.56160000  1
  B  B236  1  0.05238600  0.47590600  0.49740000  1
  B  B237  1  0.90441900  0.37726100  0.54672200  1
  B  B238  1  0.00028800  0.48340100  0.53780200  1
  B  B239  1  0.76022500  0.39082500  0.57127400  1
  B  B240  1  0.23493000  0.85647800  0.55934600  1
  B  B241  1  0.06321100  0.70288400  0.56317100  1
  B  B242  1  0.96987600  0.64066100  0.59428300  1
  B  B243  1  0.94996800  0.61758900  0.55457500  1
  B  B244  1  0.98180800  0.78594100  0.59461400  1
  B  B245  1  0.94908600  0.75137100  0.53183300  1
  B  B246  1  0.80112000  0.65272700  0.58115600  1
  B  B247  1  0.69452600  0.56602300  0.59317400  1
  B  B248  1  0.12159000  0.14472100  0.69432600  1
  B  B249  1  0.31499600  0.25801700  0.60634400  1
  B  B250  1  0.16703000  0.15937300  0.65566700  1
  B  B251  1  0.83430800  0.92480300  0.69288600  1
  B  B252  1  0.16614800  0.29315500  0.63292500  1
  B  B253  1  0.84624000  0.07008300  0.69321700  1
  B  B254  1  0.05290500  0.20786000  0.62432900  1
  B  B255  1  0.88118600  0.05426600  0.62815400  1
  B  B256  1  0.35589100  0.51991900  0.61622600  1
  B  B257  1  0.11582800  0.42734300  0.64969800  1
  B  B258  1  0.21169700  0.53348300  0.64077800  1
  B  B259  1  0.06373000  0.43483800  0.69010000  1
  B  B260  1  0.87502400  0.20471700  0.62590000  1
  B  B261  1  0.78168900  0.14249300  0.65701200  1
  B  B262  1  0.38442700  0.96825100  0.68048800  1
  B  B263  1  0.59109200  0.10602800  0.61160000  1
  B  B264  1  0.10238600  0.67590600  0.64740000  1
  B  B265  1  0.25441900  0.77726100  0.59672200  1
  B  B266  1  0.05028800  0.68340100  0.68780200  1
  B  B267  1  0.11022500  0.79082500  0.62127400  1
  B  B268  1  0.58493000  0.25647800  0.60934600  1
  B  B269  1  0.41321100  0.10288400  0.61317100  1
  B  B270  1  0.31987600  0.04066100  0.64428300  1
  B  B271  1  0.29996800  0.01758900  0.60457500  1
  B  B272  1  0.33180800  0.18594100  0.64461400  1
  B  B273  1  0.99908600  0.95137100  0.68183300  1
  B  B274  1  0.15112000  0.05272700  0.63115600  1
  B  B275  1  0.04452600  0.96602300  0.64317400  1
  B  B276  1  0.77159000  0.74472100  0.64432600  1
  B  B277  1  0.66499600  0.65801700  0.65634400  1
  B  B278  1  0.81703000  0.75937300  0.60566700  1
  B  B279  1  0.48430800  0.52480300  0.64288600  1
  B  B280  1  0.51614800  0.69315500  0.68292500  1
  B  B281  1  0.49624000  0.67008300  0.64321700  1
  B  B282  1  0.40290500  0.60786000  0.67432900  1
  B  B283  1  0.23118600  0.45426600  0.67815400  1
  B  B284  1  0.70589100  0.91991900  0.66622600  1
  B  B285  1  0.76582800  0.02734300  0.59969800  1
  B  B286  1  0.56169700  0.93348300  0.69077800  1
  B  B287  1  0.71373000  0.03483800  0.64010000  1
  B  B288  1  0.22502400  0.60471700  0.67590000  1
  B  B289  1  0.43168900  0.74249300  0.60701200  1
  B  B290  1  0.03442700  0.56825100  0.63048800  1
  B  B291  1  0.94109200  0.50602800  0.66160000  1
  B  B292  1  0.75238600  0.27590600  0.59740000  1
  B  B293  1  0.60441900  0.17726100  0.64672200  1
  B  B294  1  0.70028800  0.28340100  0.63780200  1
  B  B295  1  0.46022500  0.19082500  0.67127400  1
  B  B296  1  0.93493000  0.65647800  0.65934600  1
  B  B297  1  0.76321100  0.50288400  0.66317100  1
  B  B298  1  0.66987600  0.44066100  0.69428300  1
  B  B299  1  0.64996800  0.41758900  0.65457500  1
  B  B300  1  0.68180800  0.58594100  0.69461400  1
  B  B301  1  0.64908600  0.55137100  0.63183300  1
  B  B302  1  0.50112000  0.45272700  0.68115600  1
  B  B303  1  0.39452600  0.36602300  0.69317400  1
  B  B304  1  0.82159000  0.94472100  0.79432600  1
  B  B305  1  0.01499600  0.05801700  0.70634400  1
  B  B306  1  0.86703000  0.95937300  0.75566700  1
  B  B307  1  0.53430800  0.72480300  0.79288600  1
  B  B308  1  0.86614800  0.09315500  0.73292500  1
  B  B309  1  0.54624000  0.87008300  0.79321700  1
  B  B310  1  0.75290500  0.00786000  0.72432900  1
  B  B311  1  0.58118600  0.85426600  0.72815400  1
  B  B312  1  0.05589100  0.31991900  0.71622600  1
  B  B313  1  0.81582800  0.22734300  0.74969800  1
  B  B314  1  0.91169700  0.33348300  0.74077800  1
  B  B315  1  0.76373000  0.23483800  0.79010000  1
  B  B316  1  0.57502400  0.00471700  0.72590000  1
  B  B317  1  0.48168900  0.94249300  0.75701200  1
  B  B318  1  0.08442700  0.76825100  0.78048800  1
  B  B319  1  0.29109200  0.90602800  0.71160000  1
  B  B320  1  0.80238600  0.47590600  0.74740000  1
  B  B321  1  0.95441900  0.57726100  0.69672200  1
  B  B322  1  0.75028800  0.48340100  0.78780200  1
  B  B323  1  0.81022500  0.59082500  0.72127400  1
  B  B324  1  0.28493000  0.05647800  0.70934600  1
  B  B325  1  0.11321100  0.90288400  0.71317100  1
  B  B326  1  0.01987600  0.84066100  0.74428300  1
  B  B327  1  0.99996800  0.81758900  0.70457500  1
  B  B328  1  0.03180800  0.98594100  0.74461400  1
  B  B329  1  0.69908600  0.75137100  0.78183300  1
  B  B330  1  0.85112000  0.85272700  0.73115600  1
  B  B331  1  0.74452600  0.76602300  0.74317400  1
  B  B332  1  0.47159000  0.54472100  0.74432600  1
  B  B333  1  0.36499600  0.45801700  0.75634400  1
  B  B334  1  0.51703000  0.55937300  0.70566700  1
  B  B335  1  0.18430800  0.32480300  0.74288600  1
  B  B336  1  0.21614800  0.49315500  0.78292500  1
  B  B337  1  0.19624000  0.47008300  0.74321700  1
  B  B338  1  0.10290500  0.40786000  0.77432900  1
  B  B339  1  0.93118600  0.25426600  0.77815400  1
  B  B340  1  0.40589100  0.71991900  0.76622600  1
  B  B341  1  0.46582800  0.82734300  0.69969800  1
  B  B342  1  0.26169700  0.73348300  0.79077800  1
  B  B343  1  0.41373000  0.83483800  0.74010000  1
  B  B344  1  0.92502400  0.40471700  0.77590000  1
  B  B345  1  0.13168900  0.54249300  0.70701200  1
  B  B346  1  0.73442700  0.36825100  0.73048800  1
  B  B347  1  0.64109200  0.30602800  0.76160000  1
  B  B348  1  0.45238600  0.07590600  0.69740000  1
  B  B349  1  0.30441900  0.97726100  0.74672200  1
  B  B350  1  0.40028800  0.08340100  0.73780200  1
  B  B351  1  0.16022500  0.99082500  0.77127400  1
  B  B352  1  0.63493000  0.45647800  0.75934600  1
  B  B353  1  0.46321100  0.30288400  0.76317100  1
  B  B354  1  0.36987600  0.24066100  0.79428300  1
  B  B355  1  0.34996800  0.21758900  0.75457500  1
  B  B356  1  0.38180800  0.38594100  0.79461400  1
  B  B357  1  0.34908600  0.35137100  0.73183300  1
  B  B358  1  0.20112000  0.25272700  0.78115600  1
  B  B359  1  0.09452600  0.16602300  0.79317400  1
