# generated using pymatgen
data_Tm2Mg
_symmetry_space_group_name_H-M   'P 1'
_cell_length_a   3.55930500
_cell_length_b   18.06956911
_cell_length_c   41.68439200
_cell_angle_alpha   96.96437607
_cell_angle_beta   90.00000000
_cell_angle_gamma   90.00000000
_symmetry_Int_Tables_number   1
_chemical_formula_structural   Tm2Mg
_chemical_formula_sum   'Tm40 Mg20'
_cell_volume   2661.15549663
_cell_formula_units_Z   20
loop_
 _symmetry_equiv_pos_site_id
 _symmetry_equiv_pos_as_xyz
  1  'x, y, z'
loop_
 _atom_site_type_symbol
 _atom_site_label
 _atom_site_symmetry_multiplicity
 _atom_site_fract_x
 _atom_site_fract_y
 _atom_site_fract_z
 _atom_site_occupancy
  Tm  Tm0  1  0.00000000  0.97579400  0.26238700  1
  Tm  Tm1  1  0.50000000  0.82181100  0.28438400  1
  Tm  Tm2  1  0.50000000  0.64920600  0.23761300  1
  Tm  Tm3  1  0.00000000  0.80318900  0.21561600  1
  Tm  Tm4  1  0.50000000  0.41329400  0.19988700  1
  Tm  Tm5  1  0.00000000  0.25931100  0.22188400  1
  Tm  Tm6  1  0.00000000  0.21170600  0.30011300  1
  Tm  Tm7  1  0.50000000  0.36568900  0.27811600  1
  Tm  Tm8  1  0.00000000  0.10079400  0.38738700  1
  Tm  Tm9  1  0.50000000  0.94681100  0.40938400  1
  Tm  Tm10  1  0.50000000  0.77420600  0.36261300  1
  Tm  Tm11  1  0.00000000  0.92818900  0.34061600  1
  Tm  Tm12  1  0.50000000  0.53829400  0.32488700  1
  Tm  Tm13  1  0.00000000  0.38431100  0.34688400  1
  Tm  Tm14  1  0.00000000  0.33670600  0.42511300  1
  Tm  Tm15  1  0.50000000  0.49068900  0.40311600  1
  Tm  Tm16  1  0.00000000  0.22579400  0.51238700  1
  Tm  Tm17  1  0.50000000  0.07181100  0.53438400  1
  Tm  Tm18  1  0.50000000  0.89920600  0.48761300  1
  Tm  Tm19  1  0.00000000  0.05318900  0.46561600  1
  Tm  Tm20  1  0.50000000  0.66329400  0.44988700  1
  Tm  Tm21  1  0.00000000  0.50931100  0.47188400  1
  Tm  Tm22  1  0.00000000  0.46170600  0.55011300  1
  Tm  Tm23  1  0.50000000  0.61568900  0.52811600  1
  Tm  Tm24  1  0.00000000  0.35079400  0.63738700  1
  Tm  Tm25  1  0.50000000  0.19681100  0.65938400  1
  Tm  Tm26  1  0.50000000  0.02420600  0.61261300  1
  Tm  Tm27  1  0.00000000  0.17818900  0.59061600  1
  Tm  Tm28  1  0.50000000  0.78829400  0.57488700  1
  Tm  Tm29  1  0.00000000  0.63431100  0.59688400  1
  Tm  Tm30  1  0.00000000  0.58670600  0.67511300  1
  Tm  Tm31  1  0.50000000  0.74068900  0.65311600  1
  Tm  Tm32  1  0.00000000  0.47579400  0.76238700  1
  Tm  Tm33  1  0.50000000  0.32181100  0.78438400  1
  Tm  Tm34  1  0.50000000  0.14920600  0.73761300  1
  Tm  Tm35  1  0.00000000  0.30318900  0.71561600  1
  Tm  Tm36  1  0.50000000  0.91329400  0.69988700  1
  Tm  Tm37  1  0.00000000  0.75931100  0.72188400  1
  Tm  Tm38  1  0.00000000  0.71170600  0.80011300  1
  Tm  Tm39  1  0.50000000  0.86568900  0.77811600  1
  Mg  Mg40  1  0.00000000  0.67951300  0.30471200  1
  Mg  Mg41  1  0.50000000  0.94548700  0.19528800  1
  Mg  Mg42  1  0.50000000  0.11701300  0.24221200  1
  Mg  Mg43  1  0.00000000  0.50798700  0.25778800  1
  Mg  Mg44  1  0.00000000  0.80451300  0.42971200  1
  Mg  Mg45  1  0.50000000  0.07048700  0.32028800  1
  Mg  Mg46  1  0.50000000  0.24201300  0.36721200  1
  Mg  Mg47  1  0.00000000  0.63298700  0.38278800  1
  Mg  Mg48  1  0.00000000  0.92951300  0.55471200  1
  Mg  Mg49  1  0.50000000  0.19548700  0.44528800  1
  Mg  Mg50  1  0.50000000  0.36701300  0.49221200  1
  Mg  Mg51  1  0.00000000  0.75798700  0.50778800  1
  Mg  Mg52  1  0.00000000  0.05451300  0.67971200  1
  Mg  Mg53  1  0.50000000  0.32048700  0.57028800  1
  Mg  Mg54  1  0.50000000  0.49201300  0.61721200  1
  Mg  Mg55  1  0.00000000  0.88298700  0.63278800  1
  Mg  Mg56  1  0.00000000  0.17951300  0.80471200  1
  Mg  Mg57  1  0.50000000  0.44548700  0.69528800  1
  Mg  Mg58  1  0.50000000  0.61701300  0.74221200  1
  Mg  Mg59  1  0.00000000  0.00798700  0.75778800  1
