# generated using pymatgen
data_Mg2Ag
_symmetry_space_group_name_H-M   'P 1'
_cell_length_a   3.33664900
_cell_length_b   10.75812200
_cell_length_c   43.37643200
_cell_angle_alpha   90.00000000
_cell_angle_beta   90.00000000
_cell_angle_gamma   90.00000000
_symmetry_Int_Tables_number   1
_chemical_formula_structural   Mg2Ag
_chemical_formula_sum   'Mg32 Ag16'
_cell_volume   1557.04374363
_cell_formula_units_Z   16
loop_
 _symmetry_equiv_pos_site_id
 _symmetry_equiv_pos_as_xyz
  1  'x, y, z'
loop_
 _atom_site_type_symbol
 _atom_site_label
 _atom_site_symmetry_multiplicity
 _atom_site_fract_x
 _atom_site_fract_y
 _atom_site_fract_z
 _atom_site_occupancy
  Mg  Mg0  1  0.50000000  0.34797500  0.21153800  1
  Mg  Mg1  1  0.00000000  0.15202500  0.25000000  1
  Mg  Mg2  1  0.00000000  0.84797500  0.25000000  1
  Mg  Mg3  1  0.50000000  0.65202500  0.21153800  1
  Mg  Mg4  1  0.50000000  0.34797500  0.28846200  1
  Mg  Mg5  1  0.00000000  0.15202500  0.32692300  1
  Mg  Mg6  1  0.00000000  0.84797500  0.32692300  1
  Mg  Mg7  1  0.50000000  0.65202500  0.28846200  1
  Mg  Mg8  1  0.50000000  0.34797500  0.36538500  1
  Mg  Mg9  1  0.00000000  0.15202500  0.40384600  1
  Mg  Mg10  1  0.00000000  0.84797500  0.40384600  1
  Mg  Mg11  1  0.50000000  0.65202500  0.36538500  1
  Mg  Mg12  1  0.50000000  0.34797500  0.44230800  1
  Mg  Mg13  1  0.00000000  0.15202500  0.48076900  1
  Mg  Mg14  1  0.00000000  0.84797500  0.48076900  1
  Mg  Mg15  1  0.50000000  0.65202500  0.44230800  1
  Mg  Mg16  1  0.50000000  0.34797500  0.51923100  1
  Mg  Mg17  1  0.00000000  0.15202500  0.55769200  1
  Mg  Mg18  1  0.00000000  0.84797500  0.55769200  1
  Mg  Mg19  1  0.50000000  0.65202500  0.51923100  1
  Mg  Mg20  1  0.50000000  0.34797500  0.59615400  1
  Mg  Mg21  1  0.00000000  0.15202500  0.63461500  1
  Mg  Mg22  1  0.00000000  0.84797500  0.63461500  1
  Mg  Mg23  1  0.50000000  0.65202500  0.59615400  1
  Mg  Mg24  1  0.50000000  0.34797500  0.67307700  1
  Mg  Mg25  1  0.00000000  0.15202500  0.71153800  1
  Mg  Mg26  1  0.00000000  0.84797500  0.71153800  1
  Mg  Mg27  1  0.50000000  0.65202500  0.67307700  1
  Mg  Mg28  1  0.50000000  0.34797500  0.75000000  1
  Mg  Mg29  1  0.00000000  0.15202500  0.78846200  1
  Mg  Mg30  1  0.00000000  0.84797500  0.78846200  1
  Mg  Mg31  1  0.50000000  0.65202500  0.75000000  1
  Ag  Ag32  1  0.50000000  0.00000000  0.21153800  1
  Ag  Ag33  1  0.00000000  0.50000000  0.25000000  1
  Ag  Ag34  1  0.50000000  0.00000000  0.28846200  1
  Ag  Ag35  1  0.00000000  0.50000000  0.32692300  1
  Ag  Ag36  1  0.50000000  0.00000000  0.36538500  1
  Ag  Ag37  1  0.00000000  0.50000000  0.40384600  1
  Ag  Ag38  1  0.50000000  0.00000000  0.44230800  1
  Ag  Ag39  1  0.00000000  0.50000000  0.48076900  1
  Ag  Ag40  1  0.50000000  0.00000000  0.51923100  1
  Ag  Ag41  1  0.00000000  0.50000000  0.55769200  1
  Ag  Ag42  1  0.50000000  0.00000000  0.59615400  1
  Ag  Ag43  1  0.00000000  0.50000000  0.63461500  1
  Ag  Ag44  1  0.50000000  0.00000000  0.67307700  1
  Ag  Ag45  1  0.00000000  0.50000000  0.71153800  1
  Ag  Ag46  1  0.50000000  0.00000000  0.75000000  1
  Ag  Ag47  1  0.00000000  0.50000000  0.78846200  1
