# generated using pymatgen
data_Pm19Mg9
_symmetry_space_group_name_H-M   'P 1'
_cell_length_a   3.81728300
_cell_length_b   18.28446347
_cell_length_c   43.05431600
_cell_angle_alpha   95.91282997
_cell_angle_beta   90.00000000
_cell_angle_gamma   90.00000000
_symmetry_Int_Tables_number   1
_chemical_formula_structural   Pm19Mg9
_chemical_formula_sum   'Pm38 Mg18'
_cell_volume   2989.07326807
_cell_formula_units_Z   2
loop_
 _symmetry_equiv_pos_site_id
 _symmetry_equiv_pos_as_xyz
  1  'x, y, z'
loop_
 _atom_site_type_symbol
 _atom_site_label
 _atom_site_symmetry_multiplicity
 _atom_site_fract_x
 _atom_site_fract_y
 _atom_site_fract_z
 _atom_site_occupancy
  Pm  Pm0  1  1.00000000  0.00521900  0.28185700  1
  Pm  Pm1  1  0.50000000  0.84605900  0.30459400  1
  Pm  Pm2  1  0.50000000  0.65954400  0.25981000  1
  Pm  Pm3  1  0.00000000  0.81870400  0.23707300  1
  Pm  Pm4  1  1.00000000  0.28355900  0.24209400  1
  Pm  Pm5  1  0.50000000  0.38120400  0.29957300  1
  Pm  Pm6  1  0.00000000  0.13021900  0.40685700  1
  Pm  Pm7  1  0.50000000  0.97105900  0.42959400  1
  Pm  Pm8  1  0.50000000  0.78454400  0.38481000  1
  Pm  Pm9  1  0.00000000  0.94370400  0.36207300  1
  Pm  Pm10  1  0.50000000  0.56771900  0.34435700  1
  Pm  Pm11  1  0.00000000  0.40855900  0.36709400  1
  Pm  Pm12  1  0.00000000  0.22204400  0.32231000  1
  Pm  Pm13  1  0.50000000  0.50620400  0.42457300  1
  Pm  Pm14  1  0.00000000  0.25521900  0.53185700  1
  Pm  Pm15  1  0.50000000  0.09605900  0.55459400  1
  Pm  Pm16  1  0.50000000  0.90954400  0.50981000  1
  Pm  Pm17  1  0.00000000  0.06870400  0.48707300  1
  Pm  Pm18  1  0.50000000  0.69271900  0.46935700  1
  Pm  Pm19  1  0.00000000  0.53355900  0.49209400  1
  Pm  Pm20  1  0.00000000  0.34704400  0.44731000  1
  Pm  Pm21  1  0.50000000  0.63120400  0.54957300  1
  Pm  Pm22  1  0.00000000  0.38021900  0.65685700  1
  Pm  Pm23  1  0.50000000  0.22105900  0.67959400  1
  Pm  Pm24  1  0.50000000  0.03454400  0.63481000  1
  Pm  Pm25  1  0.00000000  0.19370400  0.61207300  1
  Pm  Pm26  1  0.50000000  0.81771900  0.59435700  1
  Pm  Pm27  1  0.00000000  0.65855900  0.61709400  1
  Pm  Pm28  1  1.00000000  0.47204400  0.57231000  1
  Pm  Pm29  1  0.50000000  0.75620400  0.67457300  1
  Pm  Pm30  1  0.00000000  0.50521900  0.78185700  1
  Pm  Pm31  1  0.50000000  0.34605900  0.80459400  1
  Pm  Pm32  1  0.50000000  0.15954400  0.75981000  1
  Pm  Pm33  1  0.00000000  0.31870400  0.73707300  1
  Pm  Pm34  1  0.50000000  0.94271900  0.71935700  1
  Pm  Pm35  1  0.00000000  0.78355900  0.74209400  1
  Pm  Pm36  1  0.00000000  0.59704400  0.69731000  1
  Pm  Pm37  1  0.50000000  0.88120400  0.79957300  1
  Mg  Mg38  1  0.50000000  0.14292900  0.26218400  1
  Mg  Mg39  1  0.00000000  0.52183400  0.27948300  1
  Mg  Mg40  1  0.00000000  0.70542900  0.32468400  1
  Mg  Mg41  1  0.50000000  0.08433400  0.34198300  1
  Mg  Mg42  1  0.50000000  0.26792900  0.38718400  1
  Mg  Mg43  1  0.00000000  0.64683400  0.40448300  1
  Mg  Mg44  1  0.00000000  0.83042900  0.44968400  1
  Mg  Mg45  1  0.50000000  0.20933400  0.46698300  1
  Mg  Mg46  1  0.50000000  0.39292900  0.51218400  1
  Mg  Mg47  1  0.00000000  0.77183400  0.52948300  1
  Mg  Mg48  1  0.00000000  0.95542900  0.57468400  1
  Mg  Mg49  1  0.50000000  0.33433400  0.59198300  1
  Mg  Mg50  1  0.50000000  0.51792900  0.63718400  1
  Mg  Mg51  1  0.00000000  0.89683400  0.65448300  1
  Mg  Mg52  1  0.00000000  0.08042900  0.69968400  1
  Mg  Mg53  1  0.50000000  0.45933400  0.71698300  1
  Mg  Mg54  1  0.50000000  0.64292900  0.76218400  1
  Mg  Mg55  1  0.00000000  0.02183400  0.77948300  1
