# generated using pymatgen
data_Mg55Zn91
_symmetry_space_group_name_H-M   'P 1'
_cell_length_a   13.26606221
_cell_length_b   15.53344873
_cell_length_c   48.04736100
_cell_angle_alpha   89.05057746
_cell_angle_beta   95.72936823
_cell_angle_gamma   107.07914806
_symmetry_Int_Tables_number   1
_chemical_formula_structural   Mg55Zn91
_chemical_formula_sum   'Mg110 Zn182'
_cell_volume   9416.24909417
_cell_formula_units_Z   2
loop_
 _symmetry_equiv_pos_site_id
 _symmetry_equiv_pos_as_xyz
  1  'x, y, z'
loop_
 _atom_site_type_symbol
 _atom_site_label
 _atom_site_symmetry_multiplicity
 _atom_site_fract_x
 _atom_site_fract_y
 _atom_site_fract_z
 _atom_site_occupancy
  Mg  Mg0  1  0.74900600  0.91343400  0.21305300  1
  Mg  Mg1  1  0.06923400  0.76196800  0.24798200  1
  Mg  Mg2  1  0.60977900  0.36313600  0.21025800  1
  Mg  Mg3  1  0.88387300  0.02077600  0.26379700  1
  Mg  Mg4  1  0.96931900  0.60634600  0.20363100  1
  Mg  Mg5  1  0.57175100  0.11959000  0.29097600  1
  Mg  Mg6  1  0.71853500  0.67099500  0.29389000  1
  Mg  Mg7  1  0.11612700  0.11125500  0.26711200  1
  Mg  Mg8  1  0.64336400  0.70683100  0.23008600  1
  Mg  Mg9  1  0.03068100  0.42568400  0.22727800  1
  Mg  Mg10  1  0.39022100  0.66889500  0.22065100  1
  Mg  Mg11  1  0.35663600  0.32519900  0.20082300  1
  Mg  Mg12  1  0.01360900  0.93125600  0.22578400  1
  Mg  Mg13  1  0.68159700  0.32617900  0.27444800  1
  Mg  Mg14  1  0.31840300  0.80585100  0.25646200  1
  Mg  Mg15  1  0.28146500  0.46103500  0.23701900  1
  Mg  Mg16  1  0.25099400  0.11859700  0.21785600  1
  Mg  Mg17  1  0.42824900  0.01244000  0.23993300  1
  Mg  Mg18  1  0.93076600  0.37006300  0.28292700  1
  Mg  Mg19  1  0.98639100  0.10077400  0.20512500  1
  Mg  Mg20  1  0.74900600  0.01343400  0.31305300  1
  Mg  Mg21  1  0.06923400  0.86196800  0.34798200  1
  Mg  Mg22  1  0.60977900  0.46313600  0.31025800  1
  Mg  Mg23  1  0.88387300  0.12077600  0.36379700  1
  Mg  Mg24  1  0.96931900  0.70634600  0.30363100  1
  Mg  Mg25  1  0.57175100  0.21959000  0.39097600  1
  Mg  Mg26  1  0.71853500  0.77099500  0.39389000  1
  Mg  Mg27  1  0.11612700  0.21125500  0.36711200  1
  Mg  Mg28  1  0.64336400  0.80683100  0.33008600  1
  Mg  Mg29  1  0.03068100  0.52568400  0.32727800  1
  Mg  Mg30  1  0.39022100  0.76889500  0.32065100  1
  Mg  Mg31  1  0.35663600  0.42519900  0.30082300  1
  Mg  Mg32  1  0.01360900  0.03125600  0.32578400  1
  Mg  Mg33  1  0.68159700  0.42617900  0.37444800  1
  Mg  Mg34  1  0.31840300  0.90585100  0.35646200  1
  Mg  Mg35  1  0.28146500  0.56103500  0.33701900  1
  Mg  Mg36  1  0.25099400  0.21859700  0.31785600  1
  Mg  Mg37  1  0.42824900  0.11244000  0.33993300  1
  Mg  Mg38  1  0.93076600  0.47006300  0.38292700  1
  Mg  Mg39  1  0.98639100  0.20077400  0.30512500  1
  Mg  Mg40  1  0.74900600  0.11343400  0.41305300  1
  Mg  Mg41  1  0.06923400  0.96196800  0.44798200  1
  Mg  Mg42  1  0.60977900  0.56313600  0.41025800  1
  Mg  Mg43  1  0.88387300  0.22077600  0.46379700  1
  Mg  Mg44  1  0.96931900  0.80634600  0.40363100  1
  Mg  Mg45  1  0.57175100  0.31959000  0.49097600  1
  Mg  Mg46  1  0.71853500  0.87099500  0.49389000  1
  Mg  Mg47  1  0.11612700  0.31125500  0.46711200  1
  Mg  Mg48  1  0.64336400  0.90683100  0.43008600  1
  Mg  Mg49  1  0.03068100  0.62568400  0.42727800  1
  Mg  Mg50  1  0.39022100  0.86889500  0.42065100  1
  Mg  Mg51  1  0.35663600  0.52519900  0.40082300  1
  Mg  Mg52  1  0.01360900  0.13125600  0.42578400  1
  Mg  Mg53  1  0.68159700  0.52617900  0.47444800  1
  Mg  Mg54  1  0.31840300  0.00585100  0.45646200  1
  Mg  Mg55  1  0.28146500  0.66103500  0.43701900  1
  Mg  Mg56  1  0.25099400  0.31859700  0.41785600  1
  Mg  Mg57  1  0.42824900  0.21244000  0.43993300  1
  Mg  Mg58  1  0.93076600  0.57006300  0.48292700  1
  Mg  Mg59  1  0.98639100  0.30077400  0.40512500  1
  Mg  Mg60  1  0.74900600  0.21343400  0.51305300  1
  Mg  Mg61  1  0.06923400  0.06196800  0.54798200  1
  Mg  Mg62  1  0.60977900  0.66313600  0.51025800  1
  Mg  Mg63  1  0.88387300  0.32077600  0.56379700  1
  Mg  Mg64  1  0.96931900  0.90634600  0.50363100  1
  Mg  Mg65  1  0.57175100  0.41959000  0.59097600  1
  Mg  Mg66  1  0.71853500  0.97099500  0.59389000  1
  Mg  Mg67  1  0.11612700  0.41125500  0.56711200  1
  Mg  Mg68  1  0.64336400  0.00683100  0.53008600  1
  Mg  Mg69  1  0.03068100  0.72568400  0.52727800  1
  Mg  Mg70  1  0.39022100  0.96889500  0.52065100  1
  Mg  Mg71  1  0.35663600  0.62519900  0.50082300  1
  Mg  Mg72  1  0.01360900  0.23125600  0.52578400  1
  Mg  Mg73  1  0.68159700  0.62617900  0.57444800  1
  Mg  Mg74  1  0.31840300  0.10585100  0.55646200  1
  Mg  Mg75  1  0.28146500  0.76103500  0.53701900  1
  Mg  Mg76  1  0.25099400  0.41859700  0.51785600  1
  Mg  Mg77  1  0.42824900  0.31244000  0.53993300  1
  Mg  Mg78  1  0.93076600  0.67006300  0.58292700  1
  Mg  Mg79  1  0.98639100  0.40077400  0.50512500  1
  Mg  Mg80  1  0.74900600  0.31343400  0.61305300  1
  Mg  Mg81  1  0.06923400  0.16196800  0.64798200  1
  Mg  Mg82  1  0.60977900  0.76313600  0.61025800  1
  Mg  Mg83  1  0.88387300  0.42077600  0.66379700  1
  Mg  Mg84  1  0.96931900  0.00634600  0.60363100  1
  Mg  Mg85  1  0.57175100  0.51959000  0.69097600  1
  Mg  Mg86  1  0.71853500  0.07099500  0.69389000  1
  Mg  Mg87  1  0.11612700  0.51125500  0.66711200  1
  Mg  Mg88  1  0.64336400  0.10683100  0.63008600  1
  Mg  Mg89  1  0.03068100  0.82568400  0.62727800  1
  Mg  Mg90  1  0.39022100  0.06889500  0.62065100  1
  Mg  Mg91  1  0.35663600  0.72519900  0.60082300  1
  Mg  Mg92  1  0.01360900  0.33125600  0.62578400  1
  Mg  Mg93  1  0.68159700  0.72617900  0.67444800  1
  Mg  Mg94  1  0.31840300  0.20585100  0.65646200  1
  Mg  Mg95  1  0.28146500  0.86103500  0.63701900  1
  Mg  Mg96  1  0.25099400  0.51859700  0.61785600  1
  Mg  Mg97  1  0.42824900  0.41244000  0.63993300  1
  Mg  Mg98  1  0.93076600  0.77006300  0.68292700  1
  Mg  Mg99  1  0.98639100  0.50077400  0.60512500  1
  Mg  Mg100  1  0.74900600  0.41343400  0.71305300  1
  Mg  Mg101  1  0.60977900  0.86313600  0.71025800  1
  Mg  Mg102  1  0.96931900  0.10634600  0.70363100  1
  Mg  Mg103  1  0.64336400  0.20683100  0.73008600  1
  Mg  Mg104  1  0.03068100  0.92568400  0.72727800  1
  Mg  Mg105  1  0.39022100  0.16889500  0.72065100  1
  Mg  Mg106  1  0.35663600  0.82519900  0.70082300  1
  Mg  Mg107  1  0.01360900  0.43125600  0.72578400  1
  Mg  Mg108  1  0.25099400  0.61859700  0.71785600  1
  Mg  Mg109  1  0.98639100  0.60077400  0.70512500  1
  Zn  Zn110  1  0.84920500  0.64194600  0.24909600  1
  Zn  Zn111  1  0.03575800  0.90352500  0.28557700  1
  Zn  Zn112  1  0.51358900  0.73791000  0.27449700  1
  Zn  Zn113  1  0.14473200  0.32179200  0.27292100  1
  Zn  Zn114  1  0.17856500  0.66951600  0.29219100  1
  Zn  Zn115  1  0.85936100  0.75970000  0.20867100  1
  Zn  Zn116  1  0.50000000  0.51601500  0.21545500  1
  Zn  Zn117  1  0.15079500  0.49008400  0.28181300  1
  Zn  Zn118  1  0.37496700  0.96129900  0.29783200  1
  Zn  Zn119  1  0.82105800  0.51303500  0.28935200  1
  Zn  Zn120  1  0.53087400  0.90992900  0.28489100  1
  Zn  Zn121  1  0.65881200  0.01592000  0.25216300  1
  Zn  Zn122  1  0.66294100  0.51888000  0.25192000  1
  Zn  Zn123  1  0.80881900  0.29676600  0.22858200  1
  Zn  Zn124  1  0.96424200  0.22850600  0.24533200  1
  Zn  Zn125  1  0.62503300  0.17073200  0.23307700  1
  Zn  Zn126  1  0.78829600  0.11920600  0.21898800  1
  Zn  Zn127  1  0.17894200  0.61899500  0.24155700  1
  Zn  Zn128  1  0.14063900  0.27233000  0.22223800  1
  Zn  Zn129  1  0.33705900  0.61315100  0.27898900  1
  Zn  Zn130  1  0.21170400  0.91282500  0.21192100  1
  Zn  Zn131  1  0.82143500  0.46251500  0.23871800  1
  Zn  Zn132  1  0.50000000  0.56601500  0.26545500  1
  Zn  Zn133  1  0.69712500  0.85751000  0.27241200  1
  Zn  Zn134  1  0.52936800  0.85992000  0.23435700  1
  Zn  Zn135  1  0.79093800  0.16904200  0.27064200  1
  Zn  Zn136  1  0.30287500  0.27452000  0.25849700  1
  Zn  Zn137  1  0.20906200  0.96298900  0.26026700  1
  Zn  Zn138  1  0.19118100  0.73526500  0.20232700  1
  Zn  Zn139  1  0.47063200  0.27211000  0.29655200  1
  Zn  Zn140  1  0.85526800  0.81023800  0.25798800  1
  Zn  Zn141  1  0.00000000  0.56601500  0.26545500  1
  Zn  Zn142  1  0.46912600  0.22210200  0.24601800  1
  Zn  Zn143  1  0.34118800  0.11611100  0.27874600  1
  Zn  Zn144  1  0.48641100  0.39412000  0.25641200  1
  Zn  Zn145  1  0.84920500  0.74194600  0.34909600  1
  Zn  Zn146  1  0.03575800  0.00352500  0.38557700  1
  Zn  Zn147  1  0.51358900  0.83791000  0.37449700  1
  Zn  Zn148  1  0.14473200  0.42179200  0.37292100  1
  Zn  Zn149  1  0.17856500  0.76951600  0.39219100  1
  Zn  Zn150  1  0.85936100  0.85970000  0.30867100  1
  Zn  Zn151  1  0.50000000  0.61601500  0.31545500  1
  Zn  Zn152  1  0.15079500  0.59008400  0.38181300  1
  Zn  Zn153  1  0.37496700  0.06129900  0.39783200  1
  Zn  Zn154  1  0.82105800  0.61303500  0.38935200  1
  Zn  Zn155  1  0.53087400  0.00992900  0.38489100  1
  Zn  Zn156  1  0.65881200  0.11592000  0.35216300  1
  Zn  Zn157  1  0.66294100  0.61888000  0.35192000  1
  Zn  Zn158  1  0.80881900  0.39676600  0.32858200  1
  Zn  Zn159  1  0.96424200  0.32850600  0.34533200  1
  Zn  Zn160  1  0.62503300  0.27073200  0.33307700  1
  Zn  Zn161  1  0.78829600  0.21920600  0.31898800  1
  Zn  Zn162  1  0.17894200  0.71899500  0.34155700  1
  Zn  Zn163  1  0.14063900  0.37233000  0.32223800  1
  Zn  Zn164  1  0.33705900  0.71315100  0.37898900  1
  Zn  Zn165  1  0.21170400  0.01282500  0.31192100  1
  Zn  Zn166  1  0.82143500  0.56251500  0.33871800  1
  Zn  Zn167  1  0.50000000  0.66601500  0.36545500  1
  Zn  Zn168  1  0.69712500  0.95751000  0.37241200  1
  Zn  Zn169  1  0.52936800  0.95992000  0.33435700  1
  Zn  Zn170  1  0.79093800  0.26904200  0.37064200  1
  Zn  Zn171  1  0.30287500  0.37452000  0.35849700  1
  Zn  Zn172  1  0.20906200  0.06298900  0.36026700  1
  Zn  Zn173  1  0.19118100  0.83526500  0.30232700  1
  Zn  Zn174  1  0.47063200  0.37211000  0.39655200  1
  Zn  Zn175  1  0.85526800  0.91023800  0.35798800  1
  Zn  Zn176  1  0.00000000  0.66601500  0.36545500  1
  Zn  Zn177  1  0.46912600  0.32210200  0.34601800  1
  Zn  Zn178  1  0.34118800  0.21611100  0.37874600  1
  Zn  Zn179  1  0.48641100  0.49412000  0.35641200  1
  Zn  Zn180  1  0.84920500  0.84194600  0.44909600  1
  Zn  Zn181  1  0.03575800  0.10352500  0.48557700  1
  Zn  Zn182  1  0.51358900  0.93791000  0.47449700  1
  Zn  Zn183  1  0.14473200  0.52179200  0.47292100  1
  Zn  Zn184  1  0.17856500  0.86951600  0.49219100  1
  Zn  Zn185  1  0.85936100  0.95970000  0.40867100  1
  Zn  Zn186  1  0.50000000  0.71601500  0.41545500  1
  Zn  Zn187  1  0.15079500  0.69008400  0.48181300  1
  Zn  Zn188  1  0.37496700  0.16129900  0.49783200  1
  Zn  Zn189  1  0.82105800  0.71303500  0.48935200  1
  Zn  Zn190  1  0.53087400  0.10992900  0.48489100  1
  Zn  Zn191  1  0.65881200  0.21592000  0.45216300  1
  Zn  Zn192  1  0.66294100  0.71888000  0.45192000  1
  Zn  Zn193  1  0.80881900  0.49676600  0.42858200  1
  Zn  Zn194  1  0.96424200  0.42850600  0.44533200  1
  Zn  Zn195  1  0.62503300  0.37073200  0.43307700  1
  Zn  Zn196  1  0.78829600  0.31920600  0.41898800  1
  Zn  Zn197  1  0.17894200  0.81899500  0.44155700  1
  Zn  Zn198  1  0.14063900  0.47233000  0.42223800  1
  Zn  Zn199  1  0.33705900  0.81315100  0.47898900  1
  Zn  Zn200  1  0.21170400  0.11282500  0.41192100  1
  Zn  Zn201  1  0.82143500  0.66251500  0.43871800  1
  Zn  Zn202  1  0.50000000  0.76601500  0.46545500  1
  Zn  Zn203  1  0.69712500  0.05751000  0.47241200  1
  Zn  Zn204  1  0.52936800  0.05992000  0.43435700  1
  Zn  Zn205  1  0.79093800  0.36904200  0.47064200  1
  Zn  Zn206  1  0.30287500  0.47452000  0.45849700  1
  Zn  Zn207  1  0.20906200  0.16298900  0.46026700  1
  Zn  Zn208  1  0.19118100  0.93526500  0.40232700  1
  Zn  Zn209  1  0.47063200  0.47211000  0.49655200  1
  Zn  Zn210  1  0.85526800  0.01023800  0.45798800  1
  Zn  Zn211  1  0.00000000  0.76601500  0.46545500  1
  Zn  Zn212  1  0.46912600  0.42210200  0.44601800  1
  Zn  Zn213  1  0.34118800  0.31611100  0.47874600  1
  Zn  Zn214  1  0.48641100  0.59412000  0.45641200  1
  Zn  Zn215  1  0.84920500  0.94194600  0.54909600  1
  Zn  Zn216  1  0.03575800  0.20352500  0.58557700  1
  Zn  Zn217  1  0.51358900  0.03791000  0.57449700  1
  Zn  Zn218  1  0.14473200  0.62179200  0.57292100  1
  Zn  Zn219  1  0.17856500  0.96951600  0.59219100  1
  Zn  Zn220  1  0.85936100  0.05970000  0.50867100  1
  Zn  Zn221  1  0.50000000  0.81601500  0.51545500  1
  Zn  Zn222  1  0.15079500  0.79008400  0.58181300  1
  Zn  Zn223  1  0.37496700  0.26129900  0.59783200  1
  Zn  Zn224  1  0.82105800  0.81303500  0.58935200  1
  Zn  Zn225  1  0.53087400  0.20992900  0.58489100  1
  Zn  Zn226  1  0.65881200  0.31592000  0.55216300  1
  Zn  Zn227  1  0.66294100  0.81888000  0.55192000  1
  Zn  Zn228  1  0.80881900  0.59676600  0.52858200  1
  Zn  Zn229  1  0.96424200  0.52850600  0.54533200  1
  Zn  Zn230  1  0.62503300  0.47073200  0.53307700  1
  Zn  Zn231  1  0.78829600  0.41920600  0.51898800  1
  Zn  Zn232  1  0.17894200  0.91899500  0.54155700  1
  Zn  Zn233  1  0.14063900  0.57233000  0.52223800  1
  Zn  Zn234  1  0.33705900  0.91315100  0.57898900  1
  Zn  Zn235  1  0.21170400  0.21282500  0.51192100  1
  Zn  Zn236  1  0.82143500  0.76251500  0.53871800  1
  Zn  Zn237  1  0.50000000  0.86601500  0.56545500  1
  Zn  Zn238  1  0.69712500  0.15751000  0.57241200  1
  Zn  Zn239  1  0.52936800  0.15992000  0.53435700  1
  Zn  Zn240  1  0.79093800  0.46904200  0.57064200  1
  Zn  Zn241  1  0.30287500  0.57452000  0.55849700  1
  Zn  Zn242  1  0.20906200  0.26298900  0.56026700  1
  Zn  Zn243  1  0.19118100  0.03526500  0.50232700  1
  Zn  Zn244  1  0.47063200  0.57211000  0.59655200  1
  Zn  Zn245  1  0.85526800  0.11023800  0.55798800  1
  Zn  Zn246  1  0.00000000  0.86601500  0.56545500  1
  Zn  Zn247  1  0.46912600  0.52210200  0.54601800  1
  Zn  Zn248  1  0.34118800  0.41611100  0.57874600  1
  Zn  Zn249  1  0.48641100  0.69412000  0.55641200  1
  Zn  Zn250  1  0.84920500  0.04194600  0.64909600  1
  Zn  Zn251  1  0.03575800  0.30352500  0.68557700  1
  Zn  Zn252  1  0.51358900  0.13791000  0.67449700  1
  Zn  Zn253  1  0.14473200  0.72179200  0.67292100  1
  Zn  Zn254  1  0.17856500  0.06951600  0.69219100  1
  Zn  Zn255  1  0.85936100  0.15970000  0.60867100  1
  Zn  Zn256  1  0.50000000  0.91601500  0.61545500  1
  Zn  Zn257  1  0.15079500  0.89008400  0.68181300  1
  Zn  Zn258  1  0.37496700  0.36129900  0.69783200  1
  Zn  Zn259  1  0.82105800  0.91303500  0.68935200  1
  Zn  Zn260  1  0.53087400  0.30992900  0.68489100  1
  Zn  Zn261  1  0.65881200  0.41592000  0.65216300  1
  Zn  Zn262  1  0.66294100  0.91888000  0.65192000  1
  Zn  Zn263  1  0.80881900  0.69676600  0.62858200  1
  Zn  Zn264  1  0.96424200  0.62850600  0.64533200  1
  Zn  Zn265  1  0.62503300  0.57073200  0.63307700  1
  Zn  Zn266  1  0.78829600  0.51920600  0.61898800  1
  Zn  Zn267  1  0.17894200  0.01899500  0.64155700  1
  Zn  Zn268  1  0.14063900  0.67233000  0.62223800  1
  Zn  Zn269  1  0.33705900  0.01315100  0.67898900  1
  Zn  Zn270  1  0.21170400  0.31282500  0.61192100  1
  Zn  Zn271  1  0.82143500  0.86251500  0.63871800  1
  Zn  Zn272  1  0.50000000  0.96601500  0.66545500  1
  Zn  Zn273  1  0.69712500  0.25751000  0.67241200  1
  Zn  Zn274  1  0.52936800  0.25992000  0.63435700  1
  Zn  Zn275  1  0.79093800  0.56904200  0.67064200  1
  Zn  Zn276  1  0.30287500  0.67452000  0.65849700  1
  Zn  Zn277  1  0.20906200  0.36298900  0.66026700  1
  Zn  Zn278  1  0.19118100  0.13526500  0.60232700  1
  Zn  Zn279  1  0.47063200  0.67211000  0.69655200  1
  Zn  Zn280  1  0.85526800  0.21023800  0.65798800  1
  Zn  Zn281  1  0.00000000  0.96601500  0.66545500  1
  Zn  Zn282  1  0.46912600  0.62210200  0.64601800  1
  Zn  Zn283  1  0.34118800  0.51611100  0.67874600  1
  Zn  Zn284  1  0.48641100  0.79412000  0.65641200  1
  Zn  Zn285  1  0.85936100  0.25970000  0.70867100  1
  Zn  Zn286  1  0.50000000  0.01601500  0.71545500  1
  Zn  Zn287  1  0.80881900  0.79676600  0.72858200  1
  Zn  Zn288  1  0.78829600  0.61920600  0.71898800  1
  Zn  Zn289  1  0.14063900  0.77233000  0.72223800  1
  Zn  Zn290  1  0.21170400  0.41282500  0.71192100  1
  Zn  Zn291  1  0.19118100  0.23526500  0.70232700  1
