# generated using pymatgen
data_Mg14Pd41
_symmetry_space_group_name_H-M   'P 1'
_cell_length_a   3.99223937
_cell_length_b   8.37818128
_cell_length_c   42.70095100
_cell_angle_alpha   85.92323921
_cell_angle_beta   87.32064953
_cell_angle_gamma   76.21659808
_symmetry_Int_Tables_number   1
_chemical_formula_structural   Mg14Pd41
_chemical_formula_sum   'Mg14 Pd41'
_cell_volume   1382.95503653
_cell_formula_units_Z   1
loop_
 _symmetry_equiv_pos_site_id
 _symmetry_equiv_pos_as_xyz
  1  'x, y, z'
loop_
 _atom_site_type_symbol
 _atom_site_label
 _atom_site_symmetry_multiplicity
 _atom_site_fract_x
 _atom_site_fract_y
 _atom_site_fract_z
 _atom_site_occupancy
  Mg  Mg0  1  0.16358800  0.89453200  0.77829200  1
  Mg  Mg1  1  0.93866300  0.36687500  0.75579900  1
  Mg  Mg2  1  0.25449700  0.80362300  0.68738300  1
  Mg  Mg3  1  0.02957200  0.27596600  0.66489000  1
  Mg  Mg4  1  0.34540700  0.71271300  0.59647400  1
  Mg  Mg5  1  0.12048100  0.18505700  0.57398100  1
  Mg  Mg6  1  0.43631600  0.62180400  0.50556400  1
  Mg  Mg7  1  0.21139000  0.09414800  0.48307200  1
  Mg  Mg8  1  0.52722500  0.53089500  0.41465500  1
  Mg  Mg9  1  0.30229900  0.00323900  0.39216300  1
  Mg  Mg10  1  0.61813400  0.43998600  0.32374600  1
  Mg  Mg11  1  0.39320800  0.91233000  0.30125400  1
  Mg  Mg12  1  0.70904300  0.34907700  0.23283700  1
  Mg  Mg13  1  0.48411700  0.82142100  0.21034500  1
  Pd  Pd14  1  0.55112600  0.13070300  0.76704500  1
  Pd  Pd15  1  0.77839800  0.65343100  0.78977300  1
  Pd  Pd16  1  0.32385300  0.60797600  0.74431800  1
  Pd  Pd17  1  0.39225000  0.41434200  0.80115800  1
  Pd  Pd18  1  0.71000100  0.84706500  0.73293300  1
  Pd  Pd19  1  0.64203500  0.03979400  0.67613600  1
  Pd  Pd20  1  0.09658000  0.08524900  0.72159100  1
  Pd  Pd21  1  0.86930700  0.56252200  0.69886400  1
  Pd  Pd22  1  0.41476200  0.51706700  0.65340900  1
  Pd  Pd23  1  0.48315900  0.32343300  0.71024900  1
  Pd  Pd24  1  0.80091000  0.75615600  0.64202400  1
  Pd  Pd25  1  0.73294400  0.94888500  0.58522700  1
  Pd  Pd26  1  0.18748900  0.99434000  0.63068200  1
  Pd  Pd27  1  0.96021600  0.47161200  0.60795500  1
  Pd  Pd28  1  0.50567100  0.42615800  0.56250000  1
  Pd  Pd29  1  0.57406800  0.23252400  0.61934000  1
  Pd  Pd30  1  0.89181900  0.66524700  0.55111500  1
  Pd  Pd31  1  0.82385300  0.85797600  0.49431800  1
  Pd  Pd32  1  0.27839800  0.90343100  0.53977300  1
  Pd  Pd33  1  0.05112600  0.38070300  0.51704500  1
  Pd  Pd34  1  0.59658000  0.33524900  0.47159100  1
  Pd  Pd35  1  0.66497700  0.14161500  0.52843100  1
  Pd  Pd36  1  0.98272800  0.57433800  0.46020600  1
  Pd  Pd37  1  0.91476200  0.76706700  0.40340900  1
  Pd  Pd38  1  0.36930700  0.81252200  0.44886400  1
  Pd  Pd39  1  0.14203500  0.28979400  0.42613600  1
  Pd  Pd40  1  0.68748900  0.24434000  0.38068200  1
  Pd  Pd41  1  0.75588700  0.05070500  0.43752200  1
  Pd  Pd42  1  0.07363700  0.48342900  0.36929700  1
  Pd  Pd43  1  0.00567100  0.67615800  0.31250000  1
  Pd  Pd44  1  0.46021600  0.72161200  0.35795500  1
  Pd  Pd45  1  0.23294400  0.19888500  0.33522700  1
  Pd  Pd46  1  0.77839800  0.15343100  0.28977300  1
  Pd  Pd47  1  0.84679600  0.95979600  0.34661200  1
  Pd  Pd48  1  0.16454600  0.39251900  0.27838800  1
  Pd  Pd49  1  0.09658000  0.58524900  0.22159100  1
  Pd  Pd50  1  0.55112600  0.63070300  0.26704500  1
  Pd  Pd51  1  0.32385300  0.10797600  0.24431800  1
  Pd  Pd52  1  0.86930700  0.06252200  0.19886400  1
  Pd  Pd53  1  0.93770500  0.86888700  0.25570300  1
  Pd  Pd54  1  0.25545600  0.30161000  0.18747800  1
