# generated using pymatgen
data_NdMg
_symmetry_space_group_name_H-M   'P 1'
_cell_length_a   3.88089900
_cell_length_b   5.48842000
_cell_length_c   43.90735800
_cell_angle_alpha   90.00000000
_cell_angle_beta   90.00000000
_cell_angle_gamma   90.00000000
_symmetry_Int_Tables_number   1
_chemical_formula_structural   NdMg
_chemical_formula_sum   'Nd10 Mg10'
_cell_volume   935.22688740
_cell_formula_units_Z   10
loop_
 _symmetry_equiv_pos_site_id
 _symmetry_equiv_pos_as_xyz
  1  'x, y, z'
loop_
 _atom_site_type_symbol
 _atom_site_label
 _atom_site_symmetry_multiplicity
 _atom_site_fract_x
 _atom_site_fract_y
 _atom_site_fract_z
 _atom_site_occupancy
  Nd  Nd0  1  0.50000000  0.25000000  0.21875000  1
  Nd  Nd1  1  0.50000000  0.75000000  0.28125000  1
  Nd  Nd2  1  0.50000000  0.25000000  0.34375000  1
  Nd  Nd3  1  0.50000000  0.75000000  0.40625000  1
  Nd  Nd4  1  0.50000000  0.25000000  0.46875000  1
  Nd  Nd5  1  0.50000000  0.75000000  0.53125000  1
  Nd  Nd6  1  0.50000000  0.25000000  0.59375000  1
  Nd  Nd7  1  0.50000000  0.75000000  0.65625000  1
  Nd  Nd8  1  0.50000000  0.25000000  0.71875000  1
  Nd  Nd9  1  0.50000000  0.75000000  0.78125000  1
  Mg  Mg10  1  1.00000000  0.75000000  0.21875000  1
  Mg  Mg11  1  0.00000000  0.25000000  0.28125000  1
  Mg  Mg12  1  1.00000000  0.75000000  0.34375000  1
  Mg  Mg13  1  0.00000000  0.25000000  0.40625000  1
  Mg  Mg14  1  1.00000000  0.75000000  0.46875000  1
  Mg  Mg15  1  0.00000000  0.25000000  0.53125000  1
  Mg  Mg16  1  1.00000000  0.75000000  0.59375000  1
  Mg  Mg17  1  0.00000000  0.25000000  0.65625000  1
  Mg  Mg18  1  1.00000000  0.75000000  0.71875000  1
  Mg  Mg19  1  0.00000000  0.25000000  0.78125000  1
