# generated using pymatgen
data_Y12Mg7
_symmetry_space_group_name_H-M   'P 1'
_cell_length_a   5.49634900
_cell_length_b   8.78578790
_cell_length_c   43.70715000
_cell_angle_alpha   90.91524143
_cell_angle_beta   90.00000000
_cell_angle_gamma   90.00000000
_symmetry_Int_Tables_number   1
_chemical_formula_structural   Y12Mg7
_chemical_formula_sum   'Y24 Mg14'
_cell_volume   2110.33835896
_cell_formula_units_Z   2
loop_
 _symmetry_equiv_pos_site_id
 _symmetry_equiv_pos_as_xyz
  1  'x, y, z'
loop_
 _atom_site_type_symbol
 _atom_site_label
 _atom_site_symmetry_multiplicity
 _atom_site_fract_x
 _atom_site_fract_y
 _atom_site_fract_z
 _atom_site_occupancy
  Y  Y0  1  0.25000000  0.72862900  0.67300900  1
  Y  Y1  1  0.25000000  0.33765800  0.69948900  1
  Y  Y2  1  0.75000000  0.07576000  0.68810200  1
  Y  Y3  1  0.75000000  0.46673100  0.66162200  1
  Y  Y4  1  0.25000000  0.81196200  0.58967600  1
  Y  Y5  1  0.25000000  0.42099100  0.61615500  1
  Y  Y6  1  0.75000000  0.15909400  0.60476900  1
  Y  Y7  1  0.75000000  0.55006400  0.57828900  1
  Y  Y8  1  0.25000000  0.89529600  0.50634300  1
  Y  Y9  1  0.25000000  0.50432500  0.53282200  1
  Y  Y10  1  0.75000000  0.24242700  0.52143500  1
  Y  Y11  1  0.75000000  0.63339800  0.49495600  1
  Y  Y12  1  0.25000000  0.97862900  0.42300900  1
  Y  Y13  1  0.25000000  0.58765800  0.44948900  1
  Y  Y14  1  0.75000000  0.32576000  0.43810200  1
  Y  Y15  1  0.75000000  0.71673100  0.41162200  1
  Y  Y16  1  0.25000000  0.06196200  0.33967600  1
  Y  Y17  1  0.25000000  0.67099100  0.36615500  1
  Y  Y18  1  0.75000000  0.40909400  0.35476900  1
  Y  Y19  1  0.75000000  0.80006400  0.32828900  1
  Y  Y20  1  0.25000000  0.14529600  0.25634300  1
  Y  Y21  1  0.25000000  0.75432500  0.28282200  1
  Y  Y22  1  0.75000000  0.49242700  0.27143500  1
  Y  Y23  1  0.75000000  0.88339800  0.24495600  1
  Mg  Mg24  1  0.25000000  0.98996100  0.72785000  1
  Mg  Mg25  1  0.75000000  0.73109500  0.71659500  1
  Mg  Mg26  1  0.25000000  0.07329400  0.64451600  1
  Mg  Mg27  1  0.75000000  0.81442800  0.63326100  1
  Mg  Mg28  1  0.25000000  0.15662700  0.56118300  1
  Mg  Mg29  1  0.75000000  0.89776200  0.54992800  1
  Mg  Mg30  1  0.25000000  0.23996100  0.47785000  1
  Mg  Mg31  1  0.75000000  0.98109500  0.46659500  1
  Mg  Mg32  1  0.25000000  0.32329400  0.39451600  1
  Mg  Mg33  1  0.75000000  0.06442800  0.38326100  1
  Mg  Mg34  1  0.25000000  0.40662700  0.31118300  1
  Mg  Mg35  1  0.75000000  0.14776200  0.29992800  1
  Mg  Mg36  1  0.25000000  0.48996100  0.22785000  1
  Mg  Mg37  1  0.75000000  0.23109500  0.21659500  1
