# generated using pymatgen
data_HoMg5
_symmetry_space_group_name_H-M   'P 1'
_cell_length_a   3.64999800
_cell_length_b   7.17151057
_cell_length_c   56.29675800
_cell_angle_alpha   86.60883805
_cell_angle_beta   90.00000000
_cell_angle_gamma   90.00000000
_symmetry_Int_Tables_number   1
_chemical_formula_structural   HoMg5
_chemical_formula_sum   'Ho6 Mg30'
_cell_volume   1471.04352664
_cell_formula_units_Z   6
loop_
 _symmetry_equiv_pos_site_id
 _symmetry_equiv_pos_as_xyz
  1  'x, y, z'
loop_
 _atom_site_type_symbol
 _atom_site_label
 _atom_site_symmetry_multiplicity
 _atom_site_fract_x
 _atom_site_fract_y
 _atom_site_fract_z
 _atom_site_occupancy
  Ho  Ho0  1  0.50000000  0.04851900  0.35000000  1
  Ho  Ho1  1  0.00000000  0.34851900  0.25000000  1
  Ho  Ho2  1  0.50000000  0.44851900  0.55000000  1
  Ho  Ho3  1  0.00000000  0.74851900  0.45000000  1
  Ho  Ho4  1  0.50000000  0.84851900  0.75000000  1
  Ho  Ho5  1  0.00000000  0.14851900  0.65000000  1
  Mg  Mg6  1  0.50000000  0.07115700  0.28540300  1
  Mg  Mg7  1  0.00000000  0.80512000  0.31558400  1
  Mg  Mg8  1  0.50000000  0.54851900  0.35000000  1
  Mg  Mg9  1  0.50000000  0.59191700  0.28441600  1
  Mg  Mg10  1  0.00000000  0.32588000  0.31459700  1
  Mg  Mg11  1  0.00000000  0.77115700  0.38540300  1
  Mg  Mg12  1  0.50000000  0.10512000  0.21558400  1
  Mg  Mg13  1  0.00000000  0.84851900  0.25000000  1
  Mg  Mg14  1  0.00000000  0.29191700  0.38441600  1
  Mg  Mg15  1  0.50000000  0.62588000  0.21459700  1
  Mg  Mg16  1  0.50000000  0.47115700  0.48540300  1
  Mg  Mg17  1  0.00000000  0.20512000  0.51558400  1
  Mg  Mg18  1  0.50000000  0.94851900  0.55000000  1
  Mg  Mg19  1  0.50000000  0.99191700  0.48441600  1
  Mg  Mg20  1  1.00000000  0.72588000  0.51459700  1
  Mg  Mg21  1  0.00000000  0.17115700  0.58540300  1
  Mg  Mg22  1  0.50000000  0.50512000  0.41558400  1
  Mg  Mg23  1  0.00000000  0.24851900  0.45000000  1
  Mg  Mg24  1  0.00000000  0.69191700  0.58441600  1
  Mg  Mg25  1  0.50000000  0.02588000  0.41459700  1
  Mg  Mg26  1  0.50000000  0.87115700  0.68540300  1
  Mg  Mg27  1  0.00000000  0.60512000  0.71558400  1
  Mg  Mg28  1  0.50000000  0.34851900  0.75000000  1
  Mg  Mg29  1  0.50000000  0.39191700  0.68441600  1
  Mg  Mg30  1  0.00000000  0.12588000  0.71459700  1
  Mg  Mg31  1  0.00000000  0.57115700  0.78540300  1
  Mg  Mg32  1  0.50000000  0.90512000  0.61558400  1
  Mg  Mg33  1  0.00000000  0.64851900  0.65000000  1
  Mg  Mg34  1  0.00000000  0.09191700  0.78441600  1
  Mg  Mg35  1  0.50000000  0.42588000  0.61459700  1
