# generated using pymatgen
data_Mg12Au35
_symmetry_space_group_name_H-M   'P 1'
_cell_length_a   10.43041218
_cell_length_b   11.29953425
_cell_length_c   49.40543900
_cell_angle_alpha   85.63582371
_cell_angle_beta   88.14566253
_cell_angle_gamma   98.74753851
_symmetry_Int_Tables_number   1
_chemical_formula_structural   Mg12Au35
_chemical_formula_sum   'Mg48 Au140'
_cell_volume   5732.74310784
_cell_formula_units_Z   4
loop_
 _symmetry_equiv_pos_site_id
 _symmetry_equiv_pos_as_xyz
  1  'x, y, z'
loop_
 _atom_site_type_symbol
 _atom_site_label
 _atom_site_symmetry_multiplicity
 _atom_site_fract_x
 _atom_site_fract_y
 _atom_site_fract_z
 _atom_site_occupancy
  Mg  Mg0  1  0.39158000  0.66774800  0.74378400  1
  Mg  Mg1  1  0.92105700  0.59454700  0.76871600  1
  Mg  Mg2  1  0.87089700  0.24343000  0.71855700  1
  Mg  Mg3  1  0.44173900  0.01886600  0.79394300  1
  Mg  Mg4  1  0.11052300  0.29497000  0.78497600  1
  Mg  Mg5  1  0.20211300  0.96732600  0.72752400  1
  Mg  Mg6  1  0.58077600  0.36922000  0.76022600  1
  Mg  Mg7  1  0.73186000  0.89307600  0.75227400  1
  Mg  Mg8  1  0.29158000  0.96774800  0.64378400  1
  Mg  Mg9  1  0.82105700  0.89454700  0.66871600  1
  Mg  Mg10  1  0.77089700  0.54343000  0.61855700  1
  Mg  Mg11  1  0.34173900  0.31886600  0.69394300  1
  Mg  Mg12  1  0.01052300  0.59497000  0.68497600  1
  Mg  Mg13  1  0.10211300  0.26732600  0.62752400  1
  Mg  Mg14  1  0.48077600  0.66922000  0.66022600  1
  Mg  Mg15  1  0.63186000  0.19307600  0.65227400  1
  Mg  Mg16  1  0.19158000  0.26774800  0.54378400  1
  Mg  Mg17  1  0.72105700  0.19454700  0.56871600  1
  Mg  Mg18  1  0.67089700  0.84343000  0.51855700  1
  Mg  Mg19  1  0.24173900  0.61886600  0.59394300  1
  Mg  Mg20  1  0.91052300  0.89497000  0.58497600  1
  Mg  Mg21  1  0.00211300  0.56732600  0.52752400  1
  Mg  Mg22  1  0.38077600  0.96922000  0.56022600  1
  Mg  Mg23  1  0.53186000  0.49307600  0.55227400  1
  Mg  Mg24  1  0.09158000  0.56774800  0.44378400  1
  Mg  Mg25  1  0.62105700  0.49454700  0.46871600  1
  Mg  Mg26  1  0.57089700  0.14343000  0.41855700  1
  Mg  Mg27  1  0.14173900  0.91886600  0.49394300  1
  Mg  Mg28  1  0.81052300  0.19497000  0.48497600  1
  Mg  Mg29  1  0.90211300  0.86732600  0.42752400  1
  Mg  Mg30  1  0.28077600  0.26922000  0.46022600  1
  Mg  Mg31  1  0.43186000  0.79307600  0.45227400  1
  Mg  Mg32  1  0.99158000  0.86774800  0.34378400  1
  Mg  Mg33  1  0.52105700  0.79454700  0.36871600  1
  Mg  Mg34  1  0.47089700  0.44343000  0.31855700  1
  Mg  Mg35  1  0.04173900  0.21886600  0.39394300  1
  Mg  Mg36  1  0.71052300  0.49497000  0.38497600  1
  Mg  Mg37  1  0.80211300  0.16732600  0.32752400  1
  Mg  Mg38  1  0.18077600  0.56922000  0.36022600  1
  Mg  Mg39  1  0.33186000  0.09307600  0.35227400  1
  Mg  Mg40  1  0.89158000  0.16774800  0.24378400  1
  Mg  Mg41  1  0.42105700  0.09454700  0.26871600  1
  Mg  Mg42  1  0.37089700  0.74343000  0.21855700  1
  Mg  Mg43  1  0.94173900  0.51886600  0.29394300  1
  Mg  Mg44  1  0.61052300  0.79497000  0.28497600  1
  Mg  Mg45  1  0.70211300  0.46732600  0.22752400  1
  Mg  Mg46  1  0.08077600  0.86922000  0.26022600  1
  Mg  Mg47  1  0.23186000  0.39307600  0.25227400  1
  Au  Au48  1  0.18120600  0.05648400  0.78113800  1
  Au  Au49  1  0.18143000  0.55581100  0.78136200  1
  Au  Au50  1  0.13143000  0.20581100  0.73136200  1
  Au  Au51  1  0.13120600  0.70648400  0.73113800  1
  Au  Au52  1  0.91690100  0.09372100  0.76890900  1
  Au  Au53  1  0.39573500  0.16857500  0.74359100  1
  Au  Au54  1  0.44584500  0.51934400  0.79370100  1
  Au  Au55  1  0.86679100  0.74295200  0.71879900  1
  Au  Au56  1  0.46671100  0.92951200  0.74012900  1
  Au  Au57  1  0.79633400  0.48155800  0.72278000  1
  Au  Au58  1  0.84592500  0.33278400  0.77237100  1
  Au  Au59  1  0.51630200  0.78073800  0.78972000  1
  Au  Au60  1  0.99095800  0.85518000  0.76490600  1
  Au  Au61  1  0.37158800  0.25738500  0.79750400  1
  Au  Au62  1  0.32167800  0.40711600  0.74759400  1
  Au  Au63  1  0.94104800  0.00491100  0.71499600  1
  Au  Au64  1  0.65631800  0.63114800  0.75625000  1
  Au  Au65  1  0.60631800  0.78114800  0.70625000  1
  Au  Au66  1  0.60631800  0.28114800  0.70625000  1
  Au  Au67  1  0.65631800  0.13114800  0.75625000  1
  Au  Au68  1  0.53369200  0.51968100  0.71007200  1
  Au  Au69  1  0.67894400  0.04261500  0.70242800  1
  Au  Au70  1  0.05420700  0.44397300  0.73530800  1
  Au  Au71  1  0.25842900  0.81832300  0.77719200  1
  Au  Au72  1  0.08120600  0.35648400  0.68113800  1
  Au  Au73  1  0.08143000  0.85581100  0.68136200  1
  Au  Au74  1  0.03143000  0.50581100  0.63136200  1
  Au  Au75  1  0.03120600  0.00648400  0.63113800  1
  Au  Au76  1  0.81690100  0.39372100  0.66890900  1
  Au  Au77  1  0.29573500  0.46857500  0.64359100  1
  Au  Au78  1  0.34584500  0.81934400  0.69370100  1
  Au  Au79  1  0.76679100  0.04295200  0.61879900  1
  Au  Au80  1  0.36671100  0.22951200  0.64012900  1
  Au  Au81  1  0.69633400  0.78155800  0.62278000  1
  Au  Au82  1  0.74592500  0.63278400  0.67237100  1
  Au  Au83  1  0.41630200  0.08073800  0.68972000  1
  Au  Au84  1  0.89095800  0.15518000  0.66490600  1
  Au  Au85  1  0.27158800  0.55738500  0.69750400  1
  Au  Au86  1  0.22167800  0.70711600  0.64759400  1
  Au  Au87  1  0.84104800  0.30491100  0.61499600  1
  Au  Au88  1  0.55631800  0.93114800  0.65625000  1
  Au  Au89  1  0.50631800  0.08114800  0.60625000  1
  Au  Au90  1  0.50631800  0.58114800  0.60625000  1
  Au  Au91  1  0.55631800  0.43114800  0.65625000  1
  Au  Au92  1  0.43369200  0.81968100  0.61007200  1
  Au  Au93  1  0.57894400  0.34261500  0.60242800  1
  Au  Au94  1  0.95420700  0.74397300  0.63530800  1
  Au  Au95  1  0.15842900  0.11832300  0.67719200  1
  Au  Au96  1  0.98120600  0.65648400  0.58113800  1
  Au  Au97  1  0.98143000  0.15581100  0.58136200  1
  Au  Au98  1  0.93143000  0.80581100  0.53136200  1
  Au  Au99  1  0.93120600  0.30648400  0.53113800  1
  Au  Au100  1  0.71690100  0.69372100  0.56890900  1
  Au  Au101  1  0.19573500  0.76857500  0.54359100  1
  Au  Au102  1  0.24584500  0.11934400  0.59370100  1
  Au  Au103  1  0.66679100  0.34295200  0.51879900  1
  Au  Au104  1  0.26671100  0.52951200  0.54012900  1
  Au  Au105  1  0.59633400  0.08155800  0.52278000  1
  Au  Au106  1  0.64592500  0.93278400  0.57237100  1
  Au  Au107  1  0.31630200  0.38073800  0.58972000  1
  Au  Au108  1  0.79095800  0.45518000  0.56490600  1
  Au  Au109  1  0.17158800  0.85738500  0.59750400  1
  Au  Au110  1  0.12167800  0.00711600  0.54759400  1
  Au  Au111  1  0.74104800  0.60491100  0.51499600  1
  Au  Au112  1  0.45631800  0.23114800  0.55625000  1
  Au  Au113  1  0.40631800  0.38114800  0.50625000  1
  Au  Au114  1  0.40631800  0.88114800  0.50625000  1
  Au  Au115  1  0.45631800  0.73114800  0.55625000  1
  Au  Au116  1  0.33369200  0.11968100  0.51007200  1
  Au  Au117  1  0.47894400  0.64261500  0.50242800  1
  Au  Au118  1  0.85420700  0.04397300  0.53530800  1
  Au  Au119  1  0.05842900  0.41832300  0.57719200  1
  Au  Au120  1  0.88120600  0.95648400  0.48113800  1
  Au  Au121  1  0.88143000  0.45581100  0.48136200  1
  Au  Au122  1  0.83143000  0.10581100  0.43136200  1
  Au  Au123  1  0.83120600  0.60648400  0.43113800  1
  Au  Au124  1  0.61690100  0.99372100  0.46890900  1
  Au  Au125  1  0.09573500  0.06857500  0.44359100  1
  Au  Au126  1  0.14584500  0.41934400  0.49370100  1
  Au  Au127  1  0.56679100  0.64295200  0.41879900  1
  Au  Au128  1  0.16671100  0.82951200  0.44012900  1
  Au  Au129  1  0.49633400  0.38155800  0.42278000  1
  Au  Au130  1  0.54592500  0.23278400  0.47237100  1
  Au  Au131  1  0.21630200  0.68073800  0.48972000  1
  Au  Au132  1  0.69095800  0.75518000  0.46490600  1
  Au  Au133  1  0.07158800  0.15738500  0.49750400  1
  Au  Au134  1  0.02167800  0.30711600  0.44759400  1
  Au  Au135  1  0.64104800  0.90491100  0.41499600  1
  Au  Au136  1  0.35631800  0.53114800  0.45625000  1
  Au  Au137  1  0.30631800  0.68114800  0.40625000  1
  Au  Au138  1  0.30631800  0.18114800  0.40625000  1
  Au  Au139  1  0.35631800  0.03114800  0.45625000  1
  Au  Au140  1  0.23369200  0.41968100  0.41007200  1
  Au  Au141  1  0.37894400  0.94261500  0.40242800  1
  Au  Au142  1  0.75420700  0.34397300  0.43530800  1
  Au  Au143  1  0.95842900  0.71832300  0.47719200  1
  Au  Au144  1  0.78120600  0.25648400  0.38113800  1
  Au  Au145  1  0.78143000  0.75581100  0.38136200  1
  Au  Au146  1  0.73143000  0.40581100  0.33136200  1
  Au  Au147  1  0.73120600  0.90648400  0.33113800  1
  Au  Au148  1  0.51690100  0.29372100  0.36890900  1
  Au  Au149  1  0.99573500  0.36857500  0.34359100  1
  Au  Au150  1  0.04584500  0.71934400  0.39370100  1
  Au  Au151  1  0.46679100  0.94295200  0.31879900  1
  Au  Au152  1  0.06671100  0.12951200  0.34012900  1
  Au  Au153  1  0.39633400  0.68155800  0.32278000  1
  Au  Au154  1  0.44592500  0.53278400  0.37237100  1
  Au  Au155  1  0.11630200  0.98073800  0.38972000  1
  Au  Au156  1  0.59095800  0.05518000  0.36490600  1
  Au  Au157  1  0.97158800  0.45738500  0.39750400  1
  Au  Au158  1  0.92167800  0.60711600  0.34759400  1
  Au  Au159  1  0.54104800  0.20491100  0.31499600  1
  Au  Au160  1  0.25631800  0.83114800  0.35625000  1
  Au  Au161  1  0.20631800  0.98114800  0.30625000  1
  Au  Au162  1  0.20631800  0.48114800  0.30625000  1
  Au  Au163  1  0.25631800  0.33114800  0.35625000  1
  Au  Au164  1  0.13369200  0.71968100  0.31007200  1
  Au  Au165  1  0.27894400  0.24261500  0.30242800  1
  Au  Au166  1  0.65420700  0.64397300  0.33530800  1
  Au  Au167  1  0.85842900  0.01832300  0.37719200  1
  Au  Au168  1  0.68120600  0.55648400  0.28113800  1
  Au  Au169  1  0.68143000  0.05581100  0.28136200  1
  Au  Au170  1  0.63143000  0.70581100  0.23136200  1
  Au  Au171  1  0.63120600  0.20648400  0.23113800  1
  Au  Au172  1  0.41690100  0.59372100  0.26890900  1
  Au  Au173  1  0.89573500  0.66857500  0.24359100  1
  Au  Au174  1  0.94584500  0.01934400  0.29370100  1
  Au  Au175  1  0.36679100  0.24295200  0.21879900  1
  Au  Au176  1  0.96671100  0.42951200  0.24012900  1
  Au  Au177  1  0.29633400  0.98155800  0.22278000  1
  Au  Au178  1  0.34592500  0.83278400  0.27237100  1
  Au  Au179  1  0.01630200  0.28073800  0.28972000  1
  Au  Au180  1  0.49095800  0.35518000  0.26490600  1
  Au  Au181  1  0.87158800  0.75738500  0.29750400  1
  Au  Au182  1  0.82167800  0.90711600  0.24759400  1
  Au  Au183  1  0.44104800  0.50491100  0.21499600  1
  Au  Au184  1  0.15631800  0.13114800  0.25625000  1
  Au  Au185  1  0.15631800  0.63114800  0.25625000  1
  Au  Au186  1  0.55420700  0.94397300  0.23530800  1
  Au  Au187  1  0.75842900  0.31832300  0.27719200  1
