# generated using pymatgen
data_Mg19In7
_symmetry_space_group_name_H-M   'P 1'
_cell_length_a   7.10486100
_cell_length_b   14.66298600
_cell_length_c   44.18906300
_cell_angle_alpha   90.00000000
_cell_angle_beta   90.00000000
_cell_angle_gamma   90.00000000
_symmetry_Int_Tables_number   1
_chemical_formula_structural   Mg19In7
_chemical_formula_sum   'Mg76 In28'
_cell_volume   4603.54929997
_cell_formula_units_Z   4
loop_
 _symmetry_equiv_pos_site_id
 _symmetry_equiv_pos_as_xyz
  1  'x, y, z'
loop_
 _atom_site_type_symbol
 _atom_site_label
 _atom_site_symmetry_multiplicity
 _atom_site_fract_x
 _atom_site_fract_y
 _atom_site_fract_z
 _atom_site_occupancy
  Mg  Mg0  1  0.16542200  0.08507600  0.33673500  1
  Mg  Mg1  1  0.33457800  0.41492400  0.26530600  1
  Mg  Mg2  1  0.66542200  0.41492400  0.33673500  1
  Mg  Mg3  1  0.83457800  0.08507600  0.26530600  1
  Mg  Mg4  1  0.50000000  0.00000000  0.22959200  1
  Mg  Mg5  1  0.50000000  0.00000000  0.30102000  1
  Mg  Mg6  1  0.00000000  0.26343200  0.30102000  1
  Mg  Mg7  1  0.50000000  0.23656800  0.22959200  1
  Mg  Mg8  1  0.50000000  0.23656800  0.30102000  1
  Mg  Mg9  1  0.00000000  0.26343200  0.22959200  1
  Mg  Mg10  1  0.66542200  0.58507600  0.26530600  1
  Mg  Mg11  1  0.83457800  0.91492400  0.33673500  1
  Mg  Mg12  1  0.16542200  0.91492400  0.26530600  1
  Mg  Mg13  1  0.33457800  0.58507600  0.33673500  1
  Mg  Mg14  1  0.00000000  0.50000000  0.30102000  1
  Mg  Mg15  1  0.00000000  0.50000000  0.22959200  1
  Mg  Mg16  1  0.50000000  0.76343200  0.22959200  1
  Mg  Mg17  1  0.00000000  0.73656800  0.30102000  1
  Mg  Mg18  1  0.00000000  0.73656800  0.22959200  1
  Mg  Mg19  1  0.50000000  0.76343200  0.30102000  1
  Mg  Mg20  1  0.16542200  0.08507600  0.47959200  1
  Mg  Mg21  1  0.33457800  0.41492400  0.40816300  1
  Mg  Mg22  1  0.66542200  0.41492400  0.47959200  1
  Mg  Mg23  1  0.83457800  0.08507600  0.40816300  1
  Mg  Mg24  1  0.50000000  0.00000000  0.37244900  1
  Mg  Mg25  1  0.50000000  0.00000000  0.44387800  1
  Mg  Mg26  1  0.00000000  0.26343200  0.44387800  1
  Mg  Mg27  1  0.50000000  0.23656800  0.37244900  1
  Mg  Mg28  1  0.50000000  0.23656800  0.44387800  1
  Mg  Mg29  1  0.00000000  0.26343200  0.37244900  1
  Mg  Mg30  1  0.66542200  0.58507600  0.40816300  1
  Mg  Mg31  1  0.83457800  0.91492400  0.47959200  1
  Mg  Mg32  1  0.16542200  0.91492400  0.40816300  1
  Mg  Mg33  1  0.33457800  0.58507600  0.47959200  1
  Mg  Mg34  1  0.00000000  0.50000000  0.44387800  1
  Mg  Mg35  1  0.00000000  0.50000000  0.37244900  1
  Mg  Mg36  1  0.50000000  0.76343200  0.37244900  1
  Mg  Mg37  1  0.00000000  0.73656800  0.44387800  1
  Mg  Mg38  1  0.00000000  0.73656800  0.37244900  1
  Mg  Mg39  1  0.50000000  0.76343200  0.44387800  1
  Mg  Mg40  1  0.16542200  0.08507600  0.62244900  1
  Mg  Mg41  1  0.33457800  0.41492400  0.55102000  1
  Mg  Mg42  1  0.66542200  0.41492400  0.62244900  1
  Mg  Mg43  1  0.83457800  0.08507600  0.55102000  1
  Mg  Mg44  1  0.50000000  0.00000000  0.51530600  1
  Mg  Mg45  1  0.50000000  0.00000000  0.58673500  1
  Mg  Mg46  1  0.00000000  0.26343200  0.58673500  1
  Mg  Mg47  1  0.50000000  0.23656800  0.51530600  1
  Mg  Mg48  1  0.50000000  0.23656800  0.58673500  1
  Mg  Mg49  1  0.00000000  0.26343200  0.51530600  1
  Mg  Mg50  1  0.66542200  0.58507600  0.55102000  1
  Mg  Mg51  1  0.83457800  0.91492400  0.62244900  1
  Mg  Mg52  1  0.16542200  0.91492400  0.55102000  1
  Mg  Mg53  1  0.33457800  0.58507600  0.62244900  1
  Mg  Mg54  1  0.00000000  0.50000000  0.58673500  1
  Mg  Mg55  1  0.00000000  0.50000000  0.51530600  1
  Mg  Mg56  1  0.50000000  0.76343200  0.51530600  1
  Mg  Mg57  1  0.00000000  0.73656800  0.58673500  1
  Mg  Mg58  1  0.00000000  0.73656800  0.51530600  1
  Mg  Mg59  1  0.50000000  0.76343200  0.58673500  1
  Mg  Mg60  1  0.33457800  0.41492400  0.69387800  1
  Mg  Mg61  1  0.83457800  0.08507600  0.69387800  1
  Mg  Mg62  1  0.50000000  0.00000000  0.65816300  1
  Mg  Mg63  1  0.50000000  0.00000000  0.72959200  1
  Mg  Mg64  1  0.00000000  0.26343200  0.72959200  1
  Mg  Mg65  1  0.50000000  0.23656800  0.65816300  1
  Mg  Mg66  1  0.50000000  0.23656800  0.72959200  1
  Mg  Mg67  1  0.00000000  0.26343200  0.65816300  1
  Mg  Mg68  1  0.66542200  0.58507600  0.69387800  1
  Mg  Mg69  1  0.16542200  0.91492400  0.69387800  1
  Mg  Mg70  1  0.00000000  0.50000000  0.72959200  1
  Mg  Mg71  1  0.00000000  0.50000000  0.65816300  1
  Mg  Mg72  1  0.50000000  0.76343200  0.65816300  1
  Mg  Mg73  1  0.00000000  0.73656800  0.72959200  1
  Mg  Mg74  1  0.00000000  0.73656800  0.65816300  1
  Mg  Mg75  1  0.50000000  0.76343200  0.72959200  1
  In  In76  1  0.76117200  0.12203700  0.33673500  1
  In  In77  1  0.73882800  0.37796300  0.26530600  1
  In  In78  1  0.26117200  0.37796300  0.33673500  1
  In  In79  1  0.23882800  0.12203700  0.26530600  1
  In  In80  1  0.26117200  0.62203700  0.26530600  1
  In  In81  1  0.23882800  0.87796300  0.33673500  1
  In  In82  1  0.76117200  0.87796300  0.26530600  1
  In  In83  1  0.73882800  0.62203700  0.33673500  1
  In  In84  1  0.76117200  0.12203700  0.47959200  1
  In  In85  1  0.73882800  0.37796300  0.40816300  1
  In  In86  1  0.26117200  0.37796300  0.47959200  1
  In  In87  1  0.23882800  0.12203700  0.40816300  1
  In  In88  1  0.26117200  0.62203700  0.40816300  1
  In  In89  1  0.23882800  0.87796300  0.47959200  1
  In  In90  1  0.76117200  0.87796300  0.40816300  1
  In  In91  1  0.73882800  0.62203700  0.47959200  1
  In  In92  1  0.76117200  0.12203700  0.62244900  1
  In  In93  1  0.73882800  0.37796300  0.55102000  1
  In  In94  1  0.26117200  0.37796300  0.62244900  1
  In  In95  1  0.23882800  0.12203700  0.55102000  1
  In  In96  1  0.26117200  0.62203700  0.55102000  1
  In  In97  1  0.23882800  0.87796300  0.62244900  1
  In  In98  1  0.76117200  0.87796300  0.55102000  1
  In  In99  1  0.73882800  0.62203700  0.62244900  1
  In  In100  1  0.73882800  0.37796300  0.69387800  1
  In  In101  1  0.23882800  0.12203700  0.69387800  1
  In  In102  1  0.26117200  0.62203700  0.69387800  1
  In  In103  1  0.76117200  0.87796300  0.69387800  1
