# generated using pymatgen
data_Mg62Zn113
_symmetry_space_group_name_H-M   'P 1'
_cell_length_a   15.05205963
_cell_length_b   15.58232832
_cell_length_c   44.40935000
_cell_angle_alpha   95.28205411
_cell_angle_beta   87.96000798
_cell_angle_gamma   92.33702888
_symmetry_Int_Tables_number   1
_chemical_formula_structural   Mg62Zn113
_chemical_formula_sum   'Mg124 Zn226'
_cell_volume   10357.87463183
_cell_formula_units_Z   2
loop_
 _symmetry_equiv_pos_site_id
 _symmetry_equiv_pos_as_xyz
  1  'x, y, z'
loop_
 _atom_site_type_symbol
 _atom_site_label
 _atom_site_symmetry_multiplicity
 _atom_site_fract_x
 _atom_site_fract_y
 _atom_site_fract_z
 _atom_site_occupancy
  Mg  Mg0  1  0.58796600  0.81930000  0.25843700  1
  Mg  Mg1  1  0.43644800  0.96040200  0.24556900  1
  Mg  Mg2  1  0.09891000  0.02413700  0.25396000  1
  Mg  Mg3  1  0.25042700  0.88303600  0.26682800  1
  Mg  Mg4  1  0.40614700  0.72839100  0.34934600  1
  Mg  Mg5  1  0.85424300  0.60592900  0.28541300  1
  Mg  Mg6  1  0.31459000  0.20472300  0.32551200  1
  Mg  Mg7  1  0.58546800  0.80721600  0.32712000  1
  Mg  Mg8  1  0.71177700  0.47338400  0.30668800  1
  Mg  Mg9  1  0.25463000  0.86949300  0.33647800  1
  Mg  Mg10  1  0.53361300  0.48408300  0.27037800  1
  Mg  Mg11  1  0.91958900  0.94531300  0.27618600  1
  Mg  Mg12  1  0.37006500  0.53953500  0.31456700  1
  Mg  Mg13  1  0.79328100  0.27914500  0.29661700  1
  Mg  Mg14  1  0.19046700  0.54780600  0.27779400  1
  Mg  Mg15  1  0.13499200  0.21299400  0.28873900  1
  Mg  Mg16  1  0.77946000  0.78783700  0.29499200  1
  Mg  Mg17  1  0.47524000  0.14799300  0.28109600  1
  Mg  Mg18  1  0.02981700  0.60453600  0.32221000  1
  Mg  Mg19  1  0.97144500  0.26844600  0.33292700  1
  Mg  Mg20  1  0.91709200  0.93322800  0.34486900  1
  Mg  Mg21  1  0.06860900  0.79212700  0.35773700  1
  Mg  Mg22  1  0.65081500  0.14659900  0.31789300  1
  Mg  Mg23  1  0.72559700  0.96469100  0.30831400  1
  Mg  Mg24  1  0.22432900  0.63748200  0.44025500  1
  Mg  Mg25  1  0.67242400  0.51502000  0.37632200  1
  Mg  Mg26  1  0.13277200  0.11381400  0.41642100  1
  Mg  Mg27  1  0.40365000  0.71630600  0.41802900  1
  Mg  Mg28  1  0.52995900  0.38247500  0.39759700  1
  Mg  Mg29  1  0.07281200  0.77858400  0.42738700  1
  Mg  Mg30  1  0.35179500  0.39317400  0.36128800  1
  Mg  Mg31  1  0.73777100  0.85440400  0.36709500  1
  Mg  Mg32  1  0.18824700  0.44862600  0.40547600  1
  Mg  Mg33  1  0.61146200  0.18823600  0.38752700  1
  Mg  Mg34  1  0.00864900  0.45689700  0.36870300  1
  Mg  Mg35  1  0.95317400  0.12208400  0.37964800  1
  Mg  Mg36  1  0.59764200  0.69692800  0.38590100  1
  Mg  Mg37  1  0.29342200  0.05708300  0.37200500  1
  Mg  Mg38  1  0.84799900  0.51362700  0.41311900  1
  Mg  Mg39  1  0.78962600  0.17753600  0.42383600  1
  Mg  Mg40  1  0.73527300  0.84231900  0.43577800  1
  Mg  Mg41  1  0.88679100  0.70121800  0.44864600  1
  Mg  Mg42  1  0.46899700  0.05569000  0.40880200  1
  Mg  Mg43  1  0.54377900  0.87378200  0.39922300  1
  Mg  Mg44  1  0.04251100  0.54657300  0.53116400  1
  Mg  Mg45  1  0.49060600  0.42411100  0.46723100  1
  Mg  Mg46  1  0.95095400  0.02290500  0.50733000  1
  Mg  Mg47  1  0.22183200  0.62539700  0.50893800  1
  Mg  Mg48  1  0.34814000  0.29156600  0.48850700  1
  Mg  Mg49  1  0.89099400  0.68767400  0.51829600  1
  Mg  Mg50  1  0.16997600  0.30226500  0.45219700  1
  Mg  Mg51  1  0.55595300  0.76349500  0.45800400  1
  Mg  Mg52  1  0.00642900  0.35771700  0.49638500  1
  Mg  Mg53  1  0.42964400  0.09732700  0.47843600  1
  Mg  Mg54  1  0.82683000  0.36598800  0.45961200  1
  Mg  Mg55  1  0.77135600  0.03117500  0.47055700  1
  Mg  Mg56  1  0.41582400  0.60601900  0.47681000  1
  Mg  Mg57  1  0.11160400  0.96617400  0.46291400  1
  Mg  Mg58  1  0.66618100  0.42271800  0.50402800  1
  Mg  Mg59  1  0.60780800  0.08662700  0.51474500  1
  Mg  Mg60  1  0.55345500  0.75141000  0.52668700  1
  Mg  Mg61  1  0.70497300  0.61030900  0.53955500  1
  Mg  Mg62  1  0.28717800  0.96478100  0.49971100  1
  Mg  Mg63  1  0.36196100  0.78287300  0.49013200  1
  Mg  Mg64  1  0.86069300  0.45566400  0.62207400  1
  Mg  Mg65  1  0.30878800  0.33320200  0.55814000  1
  Mg  Mg66  1  0.76913600  0.93199600  0.59823900  1
  Mg  Mg67  1  0.04001300  0.53448800  0.59984700  1
  Mg  Mg68  1  0.16632200  0.20065600  0.57941600  1
  Mg  Mg69  1  0.70917600  0.59676500  0.60920500  1
  Mg  Mg70  1  0.98815800  0.21135600  0.54310600  1
  Mg  Mg71  1  0.37413500  0.67258600  0.54891300  1
  Mg  Mg72  1  0.82461000  0.26680800  0.58729400  1
  Mg  Mg73  1  0.24782600  0.00641800  0.56934500  1
  Mg  Mg74  1  0.64501200  0.27507900  0.55052100  1
  Mg  Mg75  1  0.58953800  0.94026600  0.56146700  1
  Mg  Mg76  1  0.23400600  0.51511000  0.56771900  1
  Mg  Mg77  1  0.92978600  0.87526500  0.55382300  1
  Mg  Mg78  1  0.48436300  0.33180900  0.59493800  1
  Mg  Mg79  1  0.42599000  0.99571800  0.60565500  1
  Mg  Mg80  1  0.37163700  0.66050100  0.61759600  1
  Mg  Mg81  1  0.52315400  0.51940000  0.63046400  1
  Mg  Mg82  1  0.10536000  0.87387200  0.59062000  1
  Mg  Mg83  1  0.18014300  0.69196400  0.58104100  1
  Mg  Mg84  1  0.67887500  0.36475500  0.71298300  1
  Mg  Mg85  1  0.12697000  0.24229300  0.64904900  1
  Mg  Mg86  1  0.58731800  0.84108600  0.68914800  1
  Mg  Mg87  1  0.85819500  0.44357900  0.69075600  1
  Mg  Mg88  1  0.98450400  0.10974700  0.67032500  1
  Mg  Mg89  1  0.52735700  0.50585600  0.70011400  1
  Mg  Mg90  1  0.80634000  0.12044700  0.63401500  1
  Mg  Mg91  1  0.19231700  0.58167700  0.63982200  1
  Mg  Mg92  1  0.64279200  0.17589900  0.67820300  1
  Mg  Mg93  1  0.06600800  0.91550900  0.66025400  1
  Mg  Mg94  1  0.46319400  0.18416900  0.64143100  1
  Mg  Mg95  1  0.40772000  0.84935700  0.65237600  1
  Mg  Mg96  1  0.05218700  0.42420100  0.65862800  1
  Mg  Mg97  1  0.74796700  0.78435600  0.64473200  1
  Mg  Mg98  1  0.30254400  0.24090000  0.68584700  1
  Mg  Mg99  1  0.24417200  0.90480900  0.69656400  1
  Mg  Mg100  1  0.18981900  0.56959200  0.70850500  1
  Mg  Mg101  1  0.34133600  0.42849100  0.72137300  1
  Mg  Mg102  1  0.92354200  0.78296300  0.68152900  1
  Mg  Mg103  1  0.99832400  0.60105500  0.67195100  1
  Mg  Mg104  1  0.49705700  0.27384600  0.80389200  1
  Mg  Mg105  1  0.94515200  0.15138400  0.73995900  1
  Mg  Mg106  1  0.40550000  0.75017700  0.78005700  1
  Mg  Mg107  1  0.67637700  0.35267000  0.78166500  1
  Mg  Mg108  1  0.80268600  0.01883800  0.76123400  1
  Mg  Mg109  1  0.34553900  0.41494700  0.79102300  1
  Mg  Mg110  1  0.62452200  0.02953800  0.72492400  1
  Mg  Mg111  1  0.01049800  0.49076800  0.73073100  1
  Mg  Mg112  1  0.46097400  0.08499000  0.76911200  1
  Mg  Mg113  1  0.88419000  0.82459900  0.75116300  1
  Mg  Mg114  1  0.28137600  0.09326000  0.73234000  1
  Mg  Mg115  1  0.22590100  0.75844800  0.74328500  1
  Mg  Mg116  1  0.87036900  0.33329200  0.74953700  1
  Mg  Mg117  1  0.56614900  0.69344700  0.73564100  1
  Mg  Mg118  1  0.12072600  0.14999100  0.77675600  1
  Mg  Mg119  1  0.06235400  0.81390000  0.78747300  1
  Mg  Mg120  1  0.00800100  0.47868300  0.79941400  1
  Mg  Mg121  1  0.15951800  0.33758100  0.81228200  1
  Mg  Mg122  1  0.74172400  0.69205400  0.77243800  1
  Mg  Mg123  1  0.81650600  0.51014600  0.76286000  1
  Zn  Zn124  1  0.71624300  0.52580900  0.24439800  1
  Zn  Zn125  1  0.90251300  0.75076500  0.24454000  1
  Zn  Zn126  1  0.36980400  0.59096000  0.24980900  1
  Zn  Zn127  1  0.34343800  0.42171900  0.25619800  1
  Zn  Zn128  1  0.97063200  0.31762900  0.26799800  1
  Zn  Zn129  1  0.68153600  0.35336200  0.24767800  1
  Zn  Zn130  1  0.65674000  0.19158300  0.25395700  1
  Zn  Zn131  1  0.78436300  0.09267300  0.26785700  1
  Zn  Zn132  1  0.00533900  0.49007600  0.26471900  1
  Zn  Zn133  1  0.39673300  0.75868500  0.24423500  1
  Zn  Zn134  1  0.62737700  0.01605800  0.25969800  1
  Zn  Zn135  1  0.05949800  0.82738000  0.25269900  1
  Zn  Zn136  1  0.03013600  0.65185400  0.25844000  1
  Zn  Zn137  1  0.29014200  0.08475300  0.26816200  1
  Zn  Zn138  1  0.84343800  0.42171900  0.25619800  1
  Zn  Zn139  1  0.31707100  0.25247800  0.26258700  1
  Zn  Zn140  1  0.53442500  0.43490000  0.33530700  1
  Zn  Zn141  1  0.72069500  0.65985600  0.33544900  1
  Zn  Zn142  1  0.18798600  0.50005100  0.34071900  1
  Zn  Zn143  1  0.85798500  0.10493700  0.32129100  1
  Zn  Zn144  1  0.91301100  0.44398700  0.31069400  1
  Zn  Zn145  1  0.55871400  0.60014600  0.32824000  1
  Zn  Zn146  1  0.16162000  0.33081000  0.34710700  1
  Zn  Zn147  1  0.78881400  0.22672000  0.35890800  1
  Zn  Zn148  1  0.14121400  0.74603000  0.29479400  1
  Zn  Zn149  1  0.49971800  0.26245300  0.33858700  1
  Zn  Zn150  1  0.30627600  0.71217700  0.29021600  1
  Zn  Zn151  1  0.42001600  0.84379800  0.29731600  1
  Zn  Zn152  1  0.42267100  0.34626400  0.29805200  1
  Zn  Zn153  1  0.47492200  0.10067400  0.34486600  1
  Zn  Zn154  1  0.60254400  0.00176400  0.35876600  1
  Zn  Zn155  1  0.36384300  0.00649900  0.30851200  1
  Zn  Zn156  1  0.53665300  0.97383500  0.30373900  1
  Zn  Zn157  1  0.82352100  0.39916700  0.35562800  1
  Zn  Zn158  1  0.94634300  0.15238300  0.27506500  1
  Zn  Zn159  1  0.08238600  0.40626500  0.30525300  1
  Zn  Zn160  1  0.96840500  0.77869400  0.29956700  1
  Zn  Zn161  1  0.59204600  0.30854200  0.29261200  1
  Zn  Zn162  1  0.25252900  0.37626400  0.30165300  1
  Zn  Zn163  1  0.47951300  0.67573100  0.28672300  1
  Zn  Zn164  1  0.21491500  0.66777600  0.33514400  1
  Zn  Zn165  1  0.44555900  0.92514900  0.35060700  1
  Zn  Zn166  1  0.02554500  0.07679700  0.31658200  1
  Zn  Zn167  1  0.87768000  0.73647000  0.34360800  1
  Zn  Zn168  1  0.84831800  0.56094500  0.34934900  1
  Zn  Zn169  1  0.10832400  0.99384400  0.35907100  1
  Zn  Zn170  1  0.64707300  0.64759100  0.28201500  1
  Zn  Zn171  1  0.66162000  0.33081000  0.34710700  1
  Zn  Zn172  1  0.19878200  0.04035100  0.31309000  1
  Zn  Zn173  1  0.08504200  0.90873100  0.30599000  1
  Zn  Zn174  1  0.13525300  0.16156900  0.35349600  1
  Zn  Zn175  1  0.35260700  0.34399100  0.42621600  1
  Zn  Zn176  1  0.53887600  0.56894700  0.42635800  1
  Zn  Zn177  1  0.00616800  0.40914200  0.43162800  1
  Zn  Zn178  1  0.67616700  0.01402800  0.41220000  1
  Zn  Zn179  1  0.73119300  0.35307800  0.40160300  1
  Zn  Zn180  1  0.37689600  0.50923600  0.41914900  1
  Zn  Zn181  1  0.97980100  0.23990100  0.43801700  1
  Zn  Zn182  1  0.60699600  0.13581100  0.44981700  1
  Zn  Zn183  1  0.95939600  0.65512000  0.38570300  1
  Zn  Zn184  1  0.31790000  0.17154400  0.42949600  1
  Zn  Zn185  1  0.12445800  0.62126800  0.38112500  1
  Zn  Zn186  1  0.23819700  0.75288900  0.38822500  1
  Zn  Zn187  1  0.24085300  0.25535400  0.38896200  1
  Zn  Zn188  1  0.29310300  0.00976500  0.43577500  1
  Zn  Zn189  1  0.42072600  0.91085400  0.44967500  1
  Zn  Zn190  1  0.18202500  0.91559000  0.39942100  1
  Zn  Zn191  1  0.35483400  0.88292600  0.39464800  1
  Zn  Zn192  1  0.64170300  0.30825800  0.44653700  1
  Zn  Zn193  1  0.76452500  0.06147400  0.36597500  1
  Zn  Zn194  1  0.90056800  0.31535600  0.39616200  1
  Zn  Zn195  1  0.78658700  0.68778500  0.39047600  1
  Zn  Zn196  1  0.41022800  0.21763200  0.38352100  1
  Zn  Zn197  1  0.07071000  0.28535500  0.39256200  1
  Zn  Zn198  1  0.29769500  0.58482200  0.37763300  1
  Zn  Zn199  1  0.03309700  0.57686600  0.42605300  1
  Zn  Zn200  1  0.26374100  0.83424000  0.44151600  1
  Zn  Zn201  1  0.84372600  0.98588800  0.40749100  1
  Zn  Zn202  1  0.69586200  0.64556100  0.43451700  1
  Zn  Zn203  1  0.66649900  0.47003600  0.44025800  1
  Zn  Zn204  1  0.92650600  0.90293500  0.44998000  1
  Zn  Zn205  1  0.46525400  0.55668200  0.37292400  1
  Zn  Zn206  1  0.47980100  0.23990100  0.43801700  1
  Zn  Zn207  1  0.01696300  0.94944200  0.40399900  1
  Zn  Zn208  1  0.90322400  0.81782200  0.39689900  1
  Zn  Zn209  1  0.95343500  0.07066000  0.44440500  1
  Zn  Zn210  1  0.17078900  0.25308100  0.51712600  1
  Zn  Zn211  1  0.35705800  0.47803800  0.51726700  1
  Zn  Zn212  1  0.82435000  0.31823300  0.52253700  1
  Zn  Zn213  1  0.49434800  0.92311900  0.50310900  1
  Zn  Zn214  1  0.54937500  0.26216900  0.49251200  1
  Zn  Zn215  1  0.19507800  0.41832700  0.51005900  1
  Zn  Zn216  1  0.79798300  0.14899200  0.52892600  1
  Zn  Zn217  1  0.42517800  0.04490200  0.54072600  1
  Zn  Zn218  1  0.77757800  0.56421100  0.47661200  1
  Zn  Zn219  1  0.13608200  0.08063500  0.52040500  1
  Zn  Zn220  1  0.94263900  0.53035900  0.47203400  1
  Zn  Zn221  1  0.05637900  0.66198000  0.47913400  1
  Zn  Zn222  1  0.05903500  0.16444500  0.47987100  1
  Zn  Zn223  1  0.11128500  0.91885600  0.52668400  1
  Zn  Zn224  1  0.23890800  0.81994500  0.54058400  1
  Zn  Zn225  1  0.00020700  0.82468100  0.49033000  1
  Zn  Zn226  1  0.17301600  0.79201700  0.48555700  1
  Zn  Zn227  1  0.45988500  0.21734900  0.53744600  1
  Zn  Zn228  1  0.58270700  0.97056500  0.45688400  1
  Zn  Zn229  1  0.71875000  0.22444700  0.48707200  1
  Zn  Zn230  1  0.60476800  0.59687500  0.48138500  1
  Zn  Zn231  1  0.22841000  0.12672300  0.47443000  1
  Zn  Zn232  1  0.88889200  0.19444600  0.48347100  1
  Zn  Zn233  1  0.11587600  0.49391300  0.46854200  1
  Zn  Zn234  1  0.85127900  0.48595700  0.51696200  1
  Zn  Zn235  1  0.08192200  0.74333100  0.53242500  1
  Zn  Zn236  1  0.66190800  0.89497900  0.49840100  1
  Zn  Zn237  1  0.51404400  0.55465200  0.52542600  1
  Zn  Zn238  1  0.48468100  0.37912700  0.53116700  1
  Zn  Zn239  1  0.74468800  0.81202600  0.54088900  1
  Zn  Zn240  1  0.28343600  0.46577300  0.46383300  1
  Zn  Zn241  1  0.29798300  0.14899200  0.52892600  1
  Zn  Zn242  1  0.83514500  0.85853300  0.49490800  1
  Zn  Zn243  1  0.72140500  0.72691300  0.48780800  1
  Zn  Zn244  1  0.77161700  0.97975000  0.53531400  1
  Zn  Zn245  1  0.98897000  0.16217200  0.60803500  1
  Zn  Zn246  1  0.17524000  0.38712900  0.60817600  1
  Zn  Zn247  1  0.64253100  0.22732400  0.61344600  1
  Zn  Zn248  1  0.31253000  0.83221000  0.59401800  1
  Zn  Zn249  1  0.36755700  0.17126000  0.58342200  1
  Zn  Zn250  1  0.01326000  0.32741800  0.60096800  1
  Zn  Zn251  1  0.61616500  0.05808300  0.61983500  1
  Zn  Zn252  1  0.24336000  0.95399300  0.63163500  1
  Zn  Zn253  1  0.59576000  0.47330200  0.56752100  1
  Zn  Zn254  1  0.95426300  0.98972600  0.61131400  1
  Zn  Zn255  1  0.76082100  0.43945000  0.56294300  1
  Zn  Zn256  1  0.87456100  0.57107100  0.57004300  1
  Zn  Zn257  1  0.87721600  0.07353600  0.57078000  1
  Zn  Zn258  1  0.92946700  0.82794700  0.61759300  1
  Zn  Zn259  1  0.05709000  0.72903600  0.63149300  1
  Zn  Zn260  1  0.81838900  0.73377200  0.58123900  1
  Zn  Zn261  1  0.99119800  0.70110800  0.57646600  1
  Zn  Zn262  1  0.27806700  0.12643900  0.62835500  1
  Zn  Zn263  1  0.40088800  0.87965600  0.54779300  1
  Zn  Zn264  1  0.53693200  0.13353800  0.57798100  1
  Zn  Zn265  1  0.42295000  0.50596600  0.57229400  1
  Zn  Zn266  1  0.04659200  0.03581400  0.56533900  1
  Zn  Zn267  1  0.70707400  0.10353700  0.57438000  1
  Zn  Zn268  1  0.93405800  0.40300400  0.55945100  1
  Zn  Zn269  1  0.66946100  0.39504800  0.60787100  1
  Zn  Zn270  1  0.90010400  0.65242200  0.62333400  1
  Zn  Zn271  1  0.48009000  0.80407000  0.58931000  1
  Zn  Zn272  1  0.33222600  0.46374300  0.61633500  1
  Zn  Zn273  1  0.30286300  0.28821800  0.62207600  1
  Zn  Zn274  1  0.56286900  0.72111700  0.63179800  1
  Zn  Zn275  1  0.10161800  0.37486400  0.55474200  1
  Zn  Zn276  1  0.11616500  0.05808300  0.61983500  1
  Zn  Zn277  1  0.65332700  0.76762400  0.58581700  1
  Zn  Zn278  1  0.53958700  0.63600400  0.57871700  1
  Zn  Zn279  1  0.58979900  0.88884100  0.62622400  1
  Zn  Zn280  1  0.80715200  0.07126300  0.69894400  1
  Zn  Zn281  1  0.99342200  0.29622000  0.69908500  1
  Zn  Zn282  1  0.46071300  0.13641500  0.70435500  1
  Zn  Zn283  1  0.13071200  0.74130100  0.68492700  1
  Zn  Zn284  1  0.18573800  0.08035100  0.67433100  1
  Zn  Zn285  1  0.83144200  0.23650900  0.69187700  1
  Zn  Zn286  1  0.43434700  0.96717300  0.71074400  1
  Zn  Zn287  1  0.06154100  0.86308400  0.72254400  1
  Zn  Zn288  1  0.41394100  0.38239300  0.65843000  1
  Zn  Zn289  1  0.77244500  0.89881600  0.70222400  1
  Zn  Zn290  1  0.57900300  0.34854100  0.65385200  1
  Zn  Zn291  1  0.69274300  0.48016100  0.66095200  1
  Zn  Zn292  1  0.69539800  0.98262700  0.66168900  1
  Zn  Zn293  1  0.74764900  0.73703800  0.70850200  1
  Zn  Zn294  1  0.87527200  0.63812700  0.72240300  1
  Zn  Zn295  1  0.63657100  0.64286300  0.67214800  1
  Zn  Zn296  1  0.80938000  0.61019900  0.66737600  1
  Zn  Zn297  1  0.09624800  0.03553000  0.71926400  1
  Zn  Zn298  1  0.21907000  0.78874700  0.63870200  1
  Zn  Zn299  1  0.35511400  0.04262900  0.66889000  1
  Zn  Zn300  1  0.24113200  0.41505700  0.66320300  1
  Zn  Zn301  1  0.86477300  0.94490500  0.65624800  1
  Zn  Zn302  1  0.52525600  0.01262800  0.66528900  1
  Zn  Zn303  1  0.75224000  0.31209500  0.65036000  1
  Zn  Zn304  1  0.48764200  0.30413900  0.69878000  1
  Zn  Zn305  1  0.71828600  0.56151300  0.71424300  1
  Zn  Zn306  1  0.29827200  0.71316100  0.68021900  1
  Zn  Zn307  1  0.15040800  0.37283400  0.70724500  1
  Zn  Zn308  1  0.12104500  0.19730900  0.71298500  1
  Zn  Zn309  1  0.38105100  0.63020800  0.72270700  1
  Zn  Zn310  1  0.91980000  0.28395500  0.64565100  1
  Zn  Zn311  1  0.93434700  0.96717300  0.71074400  1
  Zn  Zn312  1  0.47150900  0.67671500  0.67672600  1
  Zn  Zn313  1  0.35776900  0.54509400  0.66962700  1
  Zn  Zn314  1  0.40798000  0.79793200  0.71713300  1
  Zn  Zn315  1  0.62533400  0.98035400  0.78985300  1
  Zn  Zn316  1  0.81160400  0.20531100  0.78999400  1
  Zn  Zn317  1  0.27889500  0.04550500  0.79526400  1
  Zn  Zn318  1  0.94889400  0.65039200  0.77583600  1
  Zn  Zn319  1  0.00392000  0.98944200  0.76524000  1
  Zn  Zn320  1  0.64962400  0.14560000  0.78278600  1
  Zn  Zn321  1  0.25252900  0.87626400  0.80165300  1
  Zn  Zn322  1  0.87972300  0.77217400  0.81345300  1
  Zn  Zn323  1  0.23212300  0.29148400  0.74933900  1
  Zn  Zn324  1  0.59062700  0.80790700  0.79313300  1
  Zn  Zn325  1  0.39718500  0.25763200  0.74476200  1
  Zn  Zn326  1  0.51092500  0.38925200  0.75186100  1
  Zn  Zn327  1  0.51358000  0.89171800  0.75259800  1
  Zn  Zn328  1  0.56583100  0.64612900  0.79941100  1
  Zn  Zn329  1  0.69345400  0.54721800  0.81331200  1
  Zn  Zn330  1  0.45475200  0.55195400  0.76305700  1
  Zn  Zn331  1  0.62756200  0.51929000  0.75828500  1
  Zn  Zn332  1  0.91443000  0.94462100  0.81017300  1
  Zn  Zn333  1  0.03725200  0.69783800  0.72961100  1
  Zn  Zn334  1  0.17329500  0.95172000  0.75979900  1
  Zn  Zn335  1  0.05931400  0.32414800  0.75411200  1
  Zn  Zn336  1  0.68295500  0.85399600  0.74715700  1
  Zn  Zn337  1  0.34343800  0.92171900  0.75619800  1
  Zn  Zn338  1  0.57042200  0.22118600  0.74126900  1
  Zn  Zn339  1  0.30582400  0.21323000  0.78968900  1
  Zn  Zn340  1  0.53646800  0.47060400  0.80515200  1
  Zn  Zn341  1  0.11645400  0.62225200  0.77112800  1
  Zn  Zn342  1  0.96858900  0.28192500  0.79815400  1
  Zn  Zn343  1  0.93922700  0.10640000  0.80389500  1
  Zn  Zn344  1  0.19923300  0.53929900  0.81361600  1
  Zn  Zn345  1  0.73798200  0.19304600  0.73656100  1
  Zn  Zn346  1  0.75252900  0.87626400  0.80165300  1
  Zn  Zn347  1  0.28969100  0.58580600  0.76763500  1
  Zn  Zn348  1  0.17595100  0.45418500  0.76053600  1
  Zn  Zn349  1  0.22616200  0.70702300  0.80804200  1
