# generated using pymatgen
data_La7Mg2
_symmetry_space_group_name_H-M   'P 1'
_cell_length_a   5.12331700
_cell_length_b   5.12331700
_cell_length_c   40.98653300
_cell_angle_alpha   90.00000000
_cell_angle_beta   90.00000000
_cell_angle_gamma   90.00000000
_symmetry_Int_Tables_number   1
_chemical_formula_structural   La7Mg2
_chemical_formula_sum   'La14 Mg4'
_cell_volume   1075.82997349
_cell_formula_units_Z   2
loop_
 _symmetry_equiv_pos_site_id
 _symmetry_equiv_pos_as_xyz
  1  'x, y, z'
loop_
 _atom_site_type_symbol
 _atom_site_label
 _atom_site_symmetry_multiplicity
 _atom_site_fract_x
 _atom_site_fract_y
 _atom_site_fract_z
 _atom_site_occupancy
  La  La0  1  0.50000000  0.00000000  0.21875000  1
  La  La1  1  0.00000000  0.50000000  0.21875000  1
  La  La2  1  0.50000000  0.50000000  0.28125000  1
  La  La3  1  0.50000000  0.00000000  0.34375000  1
  La  La4  1  0.00000000  0.50000000  0.34375000  1
  La  La5  1  0.50000000  0.50000000  0.40625000  1
  La  La6  1  0.50000000  0.00000000  0.46875000  1
  La  La7  1  0.00000000  0.50000000  0.46875000  1
  La  La8  1  0.50000000  0.50000000  0.53125000  1
  La  La9  1  0.50000000  0.00000000  0.59375000  1
  La  La10  1  0.00000000  0.50000000  0.59375000  1
  La  La11  1  0.50000000  0.50000000  0.65625000  1
  La  La12  1  0.50000000  0.00000000  0.71875000  1
  La  La13  1  0.00000000  0.50000000  0.71875000  1
  Mg  Mg14  1  0.00000000  0.00000000  0.28125000  1
  Mg  Mg15  1  0.00000000  0.00000000  0.40625000  1
  Mg  Mg16  1  0.00000000  0.00000000  0.53125000  1
  Mg  Mg17  1  0.00000000  0.00000000  0.65625000  1
