# generated using pymatgen
data_Mg7Zn15
_symmetry_space_group_name_H-M   'P 1'
_cell_length_a   5.22493400
_cell_length_b   5.22493400
_cell_length_c   51.72420700
_cell_angle_alpha   90.00000000
_cell_angle_beta   90.00000000
_cell_angle_gamma   90.00000000
_symmetry_Int_Tables_number   1
_chemical_formula_structural   Mg7Zn15
_chemical_formula_sum   'Mg14 Zn30'
_cell_volume   1412.06750477
_cell_formula_units_Z   2
loop_
 _symmetry_equiv_pos_site_id
 _symmetry_equiv_pos_as_xyz
  1  'x, y, z'
loop_
 _atom_site_type_symbol
 _atom_site_label
 _atom_site_symmetry_multiplicity
 _atom_site_fract_x
 _atom_site_fract_y
 _atom_site_fract_z
 _atom_site_occupancy
  Mg  Mg0  1  0.50000000  0.00000000  0.75595200  1
  Mg  Mg1  1  0.00000000  0.00000000  0.64881000  1
  Mg  Mg2  1  0.00000000  0.50000000  0.68452400  1
  Mg  Mg3  1  0.50000000  0.50000000  0.72023800  1
  Mg  Mg4  1  0.50000000  0.00000000  0.61309500  1
  Mg  Mg5  1  1.00000000  0.00000000  0.50595200  1
  Mg  Mg6  1  0.00000000  0.50000000  0.54166700  1
  Mg  Mg7  1  0.50000000  0.50000000  0.57738100  1
  Mg  Mg8  1  0.50000000  0.00000000  0.47023800  1
  Mg  Mg9  1  0.00000000  0.00000000  0.36309500  1
  Mg  Mg10  1  0.00000000  0.50000000  0.39881000  1
  Mg  Mg11  1  0.50000000  0.50000000  0.43452400  1
  Mg  Mg12  1  0.50000000  0.00000000  0.32738100  1
  Mg  Mg13  1  0.50000000  0.50000000  0.29166700  1
  Zn  Zn14  1  0.25000000  0.50000000  0.77381000  1
  Zn  Zn15  1  0.00000000  0.75000000  0.73809500  1
  Zn  Zn16  1  0.25000000  0.00000000  0.70238100  1
  Zn  Zn17  1  0.50000000  0.75000000  0.66666700  1
  Zn  Zn18  1  0.75000000  0.00000000  0.70238100  1
  Zn  Zn19  1  0.50000000  0.25000000  0.66666700  1
  Zn  Zn20  1  0.75000000  0.50000000  0.77381000  1
  Zn  Zn21  1  0.00000000  0.25000000  0.73809500  1
  Zn  Zn22  1  0.25000000  0.50000000  0.63095200  1
  Zn  Zn23  1  0.00000000  0.75000000  0.59523800  1
  Zn  Zn24  1  0.25000000  0.00000000  0.55952400  1
  Zn  Zn25  1  0.50000000  0.75000000  0.52381000  1
  Zn  Zn26  1  0.75000000  0.00000000  0.55952400  1
  Zn  Zn27  1  0.50000000  0.25000000  0.52381000  1
  Zn  Zn28  1  0.75000000  0.50000000  0.63095200  1
  Zn  Zn29  1  0.00000000  0.25000000  0.59523800  1
  Zn  Zn30  1  0.25000000  0.50000000  0.48809500  1
  Zn  Zn31  1  0.00000000  0.75000000  0.45238100  1
  Zn  Zn32  1  0.25000000  0.00000000  0.41666700  1
  Zn  Zn33  1  0.50000000  0.75000000  0.38095200  1
  Zn  Zn34  1  0.75000000  0.00000000  0.41666700  1
  Zn  Zn35  1  0.50000000  0.25000000  0.38095200  1
  Zn  Zn36  1  0.75000000  0.50000000  0.48809500  1
  Zn  Zn37  1  0.00000000  0.25000000  0.45238100  1
  Zn  Zn38  1  0.25000000  0.50000000  0.34523800  1
  Zn  Zn39  1  0.00000000  0.75000000  0.30952400  1
  Zn  Zn40  1  0.25000000  0.00000000  0.27381000  1
  Zn  Zn41  1  0.75000000  0.00000000  0.27381000  1
  Zn  Zn42  1  0.75000000  0.50000000  0.34523800  1
  Zn  Zn43  1  0.00000000  0.25000000  0.30952400  1
