# generated using pymatgen
data_Ba10Mg79
_symmetry_space_group_name_H-M   'P 1'
_cell_length_a   8.04420300
_cell_length_b   12.12331199
_cell_length_c   42.30595900
_cell_angle_alpha   90.00000000
_cell_angle_beta   90.00000000
_cell_angle_gamma   100.37110432
_symmetry_Int_Tables_number   1
_chemical_formula_structural   Ba10Mg79
_chemical_formula_sum   'Ba10 Mg79'
_cell_volume   4058.37255665
_cell_formula_units_Z   1
loop_
 _symmetry_equiv_pos_site_id
 _symmetry_equiv_pos_as_xyz
  1  'x, y, z'
loop_
 _atom_site_type_symbol
 _atom_site_label
 _atom_site_symmetry_multiplicity
 _atom_site_fract_x
 _atom_site_fract_y
 _atom_site_fract_z
 _atom_site_occupancy
  Ba  Ba0  1  0.12050400  0.06570400  0.26973700  1
  Ba  Ba1  1  0.79444000  0.39176800  0.26973700  1
  Ba  Ba2  1  0.12050400  0.56570400  0.39473700  1
  Ba  Ba3  1  0.79444000  0.89176800  0.39473700  1
  Ba  Ba4  1  0.12050400  0.06570400  0.51973700  1
  Ba  Ba5  1  0.79444000  0.39176800  0.51973700  1
  Ba  Ba6  1  0.12050400  0.56570400  0.64473700  1
  Ba  Ba7  1  0.79444000  0.89176800  0.64473700  1
  Ba  Ba8  1  0.12050400  0.06570400  0.76973700  1
  Ba  Ba9  1  0.79444000  0.39176800  0.76973700  1
  Mg  Mg10  1  0.75000000  0.87500000  0.23317100  1
  Mg  Mg11  1  0.30793100  0.38398300  0.26973700  1
  Mg  Mg12  1  0.36068500  0.82552200  0.26973700  1
  Mg  Mg13  1  0.45747200  0.22873600  0.32160500  1
  Mg  Mg14  1  0.16494400  0.58247200  0.30630300  1
  Mg  Mg15  1  0.55425800  0.63194900  0.26973700  1
  Mg  Mg16  1  0.75000000  0.87500000  0.30630300  1
  Mg  Mg17  1  0.45747200  0.22873600  0.21786900  1
  Mg  Mg18  1  0.60701300  0.07348900  0.26973700  1
  Mg  Mg19  1  0.16494400  0.58247200  0.23317100  1
  Mg  Mg20  1  0.95747200  0.72873600  0.26973700  1
  Mg  Mg21  1  0.75000000  0.37500000  0.35817100  1
  Mg  Mg22  1  0.11271900  0.82634200  0.33152400  1
  Mg  Mg23  1  0.30793100  0.88398300  0.39473700  1
  Mg  Mg24  1  0.36068500  0.32552200  0.39473700  1
  Mg  Mg25  1  0.45747200  0.72873600  0.44660500  1
  Mg  Mg26  1  0.16494400  0.08247200  0.43130300  1
  Mg  Mg27  1  0.11271900  0.32634200  0.33295000  1
  Mg  Mg28  1  0.55425800  0.13194900  0.39473700  1
  Mg  Mg29  1  0.75000000  0.37500000  0.43130300  1
  Mg  Mg30  1  0.45747200  0.97873600  0.33223700  1
  Mg  Mg31  1  0.45747200  0.72873600  0.34286900  1
  Mg  Mg32  1  0.60701300  0.57348900  0.39473700  1
  Mg  Mg33  1  0.80222500  0.13113000  0.33295000  1
  Mg  Mg34  1  0.80222500  0.63113000  0.33152400  1
  Mg  Mg35  1  0.45747200  0.47873600  0.33223700  1
  Mg  Mg36  1  0.16494400  0.08247200  0.35817100  1
  Mg  Mg37  1  0.95747200  0.22873600  0.39473700  1
  Mg  Mg38  1  0.75000000  0.87500000  0.48317100  1
  Mg  Mg39  1  0.11271900  0.32634200  0.45652400  1
  Mg  Mg40  1  0.30793100  0.38398300  0.51973700  1
  Mg  Mg41  1  0.36068500  0.82552200  0.51973700  1
  Mg  Mg42  1  0.45747200  0.22873600  0.57160500  1
  Mg  Mg43  1  0.16494400  0.58247200  0.55630300  1
  Mg  Mg44  1  0.11271900  0.82634200  0.45795000  1
  Mg  Mg45  1  0.55425800  0.63194900  0.51973700  1
  Mg  Mg46  1  0.75000000  0.87500000  0.55630300  1
  Mg  Mg47  1  0.45747200  0.47873600  0.45723700  1
  Mg  Mg48  1  0.45747200  0.22873600  0.46786900  1
  Mg  Mg49  1  0.60701300  0.07348900  0.51973700  1
  Mg  Mg50  1  0.80222500  0.63113000  0.45795000  1
  Mg  Mg51  1  0.80222500  0.13113000  0.45652400  1
  Mg  Mg52  1  0.45747200  0.97873600  0.45723700  1
  Mg  Mg53  1  0.16494400  0.58247200  0.48317100  1
  Mg  Mg54  1  0.95747200  0.72873600  0.51973700  1
  Mg  Mg55  1  0.75000000  0.37500000  0.60817100  1
  Mg  Mg56  1  0.11271900  0.82634200  0.58152400  1
  Mg  Mg57  1  0.30793100  0.88398300  0.64473700  1
  Mg  Mg58  1  0.36068500  0.32552200  0.64473700  1
  Mg  Mg59  1  0.45747200  0.72873600  0.69660500  1
  Mg  Mg60  1  0.16494400  0.08247200  0.68130300  1
  Mg  Mg61  1  0.11271900  0.32634200  0.58295000  1
  Mg  Mg62  1  0.55425800  0.13194900  0.64473700  1
  Mg  Mg63  1  0.75000000  0.37500000  0.68130300  1
  Mg  Mg64  1  0.45747200  0.97873600  0.58223700  1
  Mg  Mg65  1  0.45747200  0.72873600  0.59286900  1
  Mg  Mg66  1  0.60701300  0.57348900  0.64473700  1
  Mg  Mg67  1  0.80222500  0.13113000  0.58295000  1
  Mg  Mg68  1  0.80222500  0.63113000  0.58152400  1
  Mg  Mg69  1  0.45747200  0.47873600  0.58223700  1
  Mg  Mg70  1  0.16494400  0.08247200  0.60817100  1
  Mg  Mg71  1  0.95747200  0.22873600  0.64473700  1
  Mg  Mg72  1  0.75000000  0.87500000  0.73317100  1
  Mg  Mg73  1  0.11271900  0.32634200  0.70652400  1
  Mg  Mg74  1  0.30793100  0.38398300  0.76973700  1
  Mg  Mg75  1  0.36068500  0.82552200  0.76973700  1
  Mg  Mg76  1  0.45747200  0.22873600  0.82160500  1
  Mg  Mg77  1  0.16494400  0.58247200  0.80630300  1
  Mg  Mg78  1  0.11271900  0.82634200  0.70795000  1
  Mg  Mg79  1  0.55425800  0.63194900  0.76973700  1
  Mg  Mg80  1  0.75000000  0.87500000  0.80630300  1
  Mg  Mg81  1  0.45747200  0.47873600  0.70723700  1
  Mg  Mg82  1  0.45747200  0.22873600  0.71786900  1
  Mg  Mg83  1  0.60701300  0.07348900  0.76973700  1
  Mg  Mg84  1  0.80222500  0.63113000  0.70795000  1
  Mg  Mg85  1  0.80222500  0.13113000  0.70652400  1
  Mg  Mg86  1  0.45747200  0.97873600  0.70723700  1
  Mg  Mg87  1  0.16494400  0.58247200  0.73317100  1
  Mg  Mg88  1  0.95747200  0.72873600  0.76973700  1
