# generated using pymatgen
data_Mg8Ga21
_symmetry_space_group_name_H-M   'P 1'
_cell_length_a   7.14992847
_cell_length_b   7.14992865
_cell_length_c   43.98030700
_cell_angle_alpha   88.65072652
_cell_angle_beta   88.65072649
_cell_angle_gamma   76.00064847
_symmetry_Int_Tables_number   1
_chemical_formula_structural   Mg8Ga21
_chemical_formula_sum   'Mg16 Ga42'
_cell_volume   2180.58501334
_cell_formula_units_Z   2
loop_
 _symmetry_equiv_pos_site_id
 _symmetry_equiv_pos_as_xyz
  1  'x, y, z'
loop_
 _atom_site_type_symbol
 _atom_site_label
 _atom_site_symmetry_multiplicity
 _atom_site_fract_x
 _atom_site_fract_y
 _atom_site_fract_z
 _atom_site_occupancy
  Mg  Mg0  1  0.81957800  0.41762700  0.60880700  1
  Mg  Mg1  1  0.41762700  0.81957800  0.60880700  1
  Mg  Mg2  1  0.56835800  0.16640700  0.65905100  1
  Mg  Mg3  1  0.16640700  0.56835800  0.65905100  1
  Mg  Mg4  1  0.44457800  0.04262700  0.48380700  1
  Mg  Mg5  1  0.04262700  0.44457800  0.48380700  1
  Mg  Mg6  1  0.19335800  0.79140700  0.53405100  1
  Mg  Mg7  1  0.79140700  0.19335800  0.53405100  1
  Mg  Mg8  1  0.06957800  0.66762700  0.35880700  1
  Mg  Mg9  1  0.66762700  0.06957800  0.35880700  1
  Mg  Mg10  1  0.81835800  0.41640700  0.40905100  1
  Mg  Mg11  1  0.41640700  0.81835800  0.40905100  1
  Mg  Mg12  1  0.69457800  0.29262700  0.23380700  1
  Mg  Mg13  1  0.29262700  0.69457800  0.23380700  1
  Mg  Mg14  1  0.44335800  0.04140700  0.28405100  1
  Mg  Mg15  1  0.04140700  0.44335800  0.28405100  1
  Ga  Ga16  1  0.93460800  0.93460800  0.68248000  1
  Ga  Ga17  1  0.42637700  0.42637700  0.71037700  1
  Ga  Ga18  1  0.07867300  0.67059300  0.59447500  1
  Ga  Ga19  1  0.55960800  0.55960800  0.55748000  1
  Ga  Ga20  1  0.18965800  0.18965800  0.63147000  1
  Ga  Ga21  1  0.67059300  0.07867300  0.59447500  1
  Ga  Ga22  1  0.57121700  0.57121700  0.66000400  1
  Ga  Ga23  1  0.41476800  0.41476800  0.60785400  1
  Ga  Ga24  1  0.05137700  0.05137700  0.58537700  1
  Ga  Ga25  1  0.90731200  0.31539200  0.67338200  1
  Ga  Ga26  1  0.31539200  0.90731200  0.67338200  1
  Ga  Ga27  1  0.79632700  0.79632700  0.63638700  1
  Ga  Ga28  1  0.70367300  0.29559300  0.46947500  1
  Ga  Ga29  1  0.18460800  0.18460800  0.43248000  1
  Ga  Ga30  1  0.81465800  0.81465800  0.50647000  1
  Ga  Ga31  1  0.29559300  0.70367300  0.46947500  1
  Ga  Ga32  1  0.19621700  0.19621700  0.53500400  1
  Ga  Ga33  1  0.03976800  0.03976800  0.48285400  1
  Ga  Ga34  1  0.67637700  0.67637700  0.46037700  1
  Ga  Ga35  1  0.53231200  0.94039200  0.54838200  1
  Ga  Ga36  1  0.94039200  0.53231200  0.54838200  1
  Ga  Ga37  1  0.42132700  0.42132700  0.51138700  1
  Ga  Ga38  1  0.32867300  0.92059300  0.34447500  1
  Ga  Ga39  1  0.80960800  0.80960800  0.30748000  1
  Ga  Ga40  1  0.43965800  0.43965800  0.38147000  1
  Ga  Ga41  1  0.92059300  0.32867300  0.34447500  1
  Ga  Ga42  1  0.82121700  0.82121700  0.41000400  1
  Ga  Ga43  1  0.66476800  0.66476800  0.35785400  1
  Ga  Ga44  1  0.30137700  0.30137700  0.33537700  1
  Ga  Ga45  1  0.15731200  0.56539200  0.42338200  1
  Ga  Ga46  1  0.56539200  0.15731200  0.42338200  1
  Ga  Ga47  1  0.04632700  0.04632700  0.38638700  1
  Ga  Ga48  1  0.95367300  0.54559300  0.21947500  1
  Ga  Ga49  1  0.43460800  0.43460800  0.18248000  1
  Ga  Ga50  1  0.06465800  0.06465800  0.25647000  1
  Ga  Ga51  1  0.54559300  0.95367300  0.21947500  1
  Ga  Ga52  1  0.44621700  0.44621700  0.28500400  1
  Ga  Ga53  1  0.28976800  0.28976800  0.23285400  1
  Ga  Ga54  1  0.92637700  0.92637700  0.21037700  1
  Ga  Ga55  1  0.78231200  0.19039200  0.29838200  1
  Ga  Ga56  1  0.19039200  0.78231200  0.29838200  1
  Ga  Ga57  1  0.67132700  0.67132700  0.26138700  1
