# generated using pymatgen
data_MgB4
_symmetry_space_group_name_H-M   'P 1'
_cell_length_a   7.42725500
_cell_length_b   7.03001057
_cell_length_c   44.60570800
_cell_angle_alpha   90.78128318
_cell_angle_beta   90.00000000
_cell_angle_gamma   90.00000000
_symmetry_Int_Tables_number   1
_chemical_formula_structural   MgB4
_chemical_formula_sum   'Mg32 B128'
_cell_volume   2328.81168884
_cell_formula_units_Z   32
loop_
 _symmetry_equiv_pos_site_id
 _symmetry_equiv_pos_as_xyz
  1  'x, y, z'
loop_
 _atom_site_type_symbol
 _atom_site_label
 _atom_site_symmetry_multiplicity
 _atom_site_fract_x
 _atom_site_fract_y
 _atom_site_fract_z
 _atom_site_occupancy
  Mg  Mg0  1  0.36221400  0.23964700  0.25351400  1
  Mg  Mg1  1  0.63778600  0.37573700  0.20802500  1
  Mg  Mg2  1  0.13778600  0.93195500  0.21505200  1
  Mg  Mg3  1  0.86221400  0.68343000  0.24648600  1
  Mg  Mg4  1  0.36221400  0.85503200  0.33043700  1
  Mg  Mg5  1  0.63778600  0.99112200  0.28494800  1
  Mg  Mg6  1  0.13778600  0.54734000  0.29197500  1
  Mg  Mg7  1  0.86221400  0.29881400  0.32340900  1
  Mg  Mg8  1  0.36221400  0.47041700  0.40736000  1
  Mg  Mg9  1  0.63778600  0.60650600  0.36187100  1
  Mg  Mg10  1  0.13778600  0.16272400  0.36889800  1
  Mg  Mg11  1  0.86221400  0.91419900  0.40033300  1
  Mg  Mg12  1  0.36221400  0.08580100  0.48428300  1
  Mg  Mg13  1  0.63778600  0.22189100  0.43879400  1
  Mg  Mg14  1  0.13778600  0.77810900  0.44582100  1
  Mg  Mg15  1  0.86221400  0.52958300  0.47725600  1
  Mg  Mg16  1  0.36221400  0.70118600  0.56120600  1
  Mg  Mg17  1  0.63778600  0.83727600  0.51571700  1
  Mg  Mg18  1  0.13778600  0.39349400  0.52274400  1
  Mg  Mg19  1  0.86221400  0.14496800  0.55417900  1
  Mg  Mg20  1  0.36221400  0.31657000  0.63812900  1
  Mg  Mg21  1  0.63778600  0.45266000  0.59264000  1
  Mg  Mg22  1  0.13778600  0.00887800  0.59966700  1
  Mg  Mg23  1  0.86221400  0.76035300  0.63110200  1
  Mg  Mg24  1  0.36221400  0.93195500  0.71505200  1
  Mg  Mg25  1  0.63778600  0.06804500  0.66956300  1
  Mg  Mg26  1  0.13778600  0.62426300  0.67659100  1
  Mg  Mg27  1  0.86221400  0.37573700  0.70802500  1
  Mg  Mg28  1  0.36221400  0.54734000  0.79197500  1
  Mg  Mg29  1  0.63778600  0.68343000  0.74648600  1
  Mg  Mg30  1  0.13778600  0.23964700  0.75351400  1
  Mg  Mg31  1  0.86221400  0.99112200  0.78494800  1
  B  B32  1  0.84631100  0.04069800  0.22864500  1
  B  B33  1  0.15368900  0.57468700  0.23289400  1
  B  B34  1  0.65368900  0.34839000  0.26710600  1
  B  B35  1  0.34631100  0.26699400  0.19443200  1
  B  B36  1  0.64694100  0.93669100  0.21564400  1
  B  B37  1  0.35305900  0.67869300  0.24589400  1
  B  B38  1  0.85305900  0.24438400  0.25410600  1
  B  B39  1  0.14694100  0.37100100  0.20743300  1
  B  B40  1  0.06322000  0.36681600  0.24541000  1
  B  B41  1  0.93678000  0.01164200  0.26351400  1
  B  B42  1  0.43678000  0.91143500  0.23648600  1
  B  B43  1  0.56322000  0.55626100  0.25459000  1
  B  B44  1  0.93678000  0.24856900  0.21612800  1
  B  B45  1  0.06322000  0.60374300  0.19802500  1
  B  B46  1  0.56322000  0.70395000  0.22505200  1
  B  B47  1  0.43678000  0.05912300  0.20694900  1
  B  B48  1  0.84631100  0.65608300  0.30556800  1
  B  B49  1  0.15368900  0.19007100  0.30981700  1
  B  B50  1  0.65368900  0.96377500  0.34403000  1
  B  B51  1  0.34631100  0.88237900  0.27135500  1
  B  B52  1  0.64694100  0.55207600  0.29256700  1
  B  B53  1  0.35305900  0.29407800  0.32281700  1
  B  B54  1  0.85305900  0.85976800  0.33102900  1
  B  B55  1  0.14694100  0.98638600  0.28435600  1
  B  B56  1  0.06322000  0.98220000  0.32233300  1
  B  B57  1  0.93678000  0.62702700  0.34043700  1
  B  B58  1  0.43678000  0.52681900  0.31341000  1
  B  B59  1  0.56322000  0.17164600  0.33151300  1
  B  B60  1  0.93678000  0.86395300  0.29305100  1
  B  B61  1  0.06322000  0.21912700  0.27494800  1
  B  B62  1  0.56322000  0.31933400  0.30197500  1
  B  B63  1  0.43678000  0.67450800  0.28387200  1
  B  B64  1  0.84631100  0.27146700  0.38249100  1
  B  B65  1  0.15368900  0.80545600  0.38674000  1
  B  B66  1  0.65368900  0.57915900  0.42095300  1
  B  B67  1  0.34631100  0.49776400  0.34827800  1
  B  B68  1  0.64694100  0.16746100  0.36949000  1
  B  B69  1  0.35305900  0.90946200  0.39974100  1
  B  B70  1  0.85305900  0.47515300  0.40795200  1
  B  B71  1  0.14694100  0.60177000  0.36127900  1
  B  B72  1  0.06322000  0.59758500  0.39925600  1
  B  B73  1  0.93678000  0.24241100  0.41736000  1
  B  B74  1  0.43678000  0.14220400  0.39033300  1
  B  B75  1  0.56322000  0.78703000  0.40843600  1
  B  B76  1  0.93678000  0.47933800  0.36997400  1
  B  B77  1  0.06322000  0.83451200  0.35187100  1
  B  B78  1  0.56322000  0.93471900  0.37889800  1
  B  B79  1  0.43678000  0.28989300  0.36079500  1
  B  B80  1  0.84631100  0.88685200  0.45941400  1
  B  B81  1  0.15368900  0.42084100  0.46366300  1
  B  B82  1  0.65368900  0.19454400  0.49787600  1
  B  B83  1  0.34631100  0.11314800  0.42520100  1
  B  B84  1  0.64694100  0.78284500  0.44641300  1
  B  B85  1  0.35305900  0.52484700  0.47666400  1
  B  B86  1  0.85305900  0.09053800  0.48487500  1
  B  B87  1  0.14694100  0.21715500  0.43820200  1
  B  B88  1  0.06322000  0.21297000  0.47617900  1
  B  B89  1  0.93678000  0.85779600  0.49428300  1
  B  B90  1  0.43678000  0.75758900  0.46725600  1
  B  B91  1  0.56322000  0.40241500  0.48535900  1
  B  B92  1  0.93678000  0.09472300  0.44689700  1
  B  B93  1  0.06322000  0.44989600  0.42879400  1
  B  B94  1  0.56322000  0.55010400  0.45582100  1
  B  B95  1  0.43678000  0.90527700  0.43771800  1
  B  B96  1  0.84631100  0.50223600  0.53633700  1
  B  B97  1  0.15368900  0.03622500  0.54058600  1
  B  B98  1  0.65368900  0.80992900  0.57479900  1
  B  B99  1  0.34631100  0.72853300  0.50212400  1
  B  B100  1  0.64694100  0.39823000  0.52333600  1
  B  B101  1  0.35305900  0.14023200  0.55358700  1
  B  B102  1  0.85305900  0.70592200  0.56179800  1
  B  B103  1  0.14694100  0.83253900  0.51512500  1
  B  B104  1  0.06322000  0.82835400  0.55310300  1
  B  B105  1  0.93678000  0.47318100  0.57120600  1
  B  B106  1  0.43678000  0.37297300  0.54417900  1
  B  B107  1  0.56322000  0.01780000  0.56228200  1
  B  B108  1  0.93678000  0.71010700  0.52382100  1
  B  B109  1  0.06322000  0.06528100  0.50571700  1
  B  B110  1  0.56322000  0.16548800  0.53274400  1
  B  B111  1  0.43678000  0.52066200  0.51464100  1
  B  B112  1  0.84631100  0.11762100  0.61326000  1
  B  B113  1  0.15368900  0.65161000  0.61750900  1
  B  B114  1  0.65368900  0.42531300  0.65172200  1
  B  B115  1  0.34631100  0.34391700  0.57904700  1
  B  B116  1  0.64694100  0.01361400  0.60025900  1
  B  B117  1  0.35305900  0.75561600  0.63051000  1
  B  B118  1  0.85305900  0.32130700  0.63872100  1
  B  B119  1  0.14694100  0.44792400  0.59204800  1
  B  B120  1  0.06322000  0.44373900  0.63002600  1
  B  B121  1  0.93678000  0.08856500  0.64812900  1
  B  B122  1  0.43678000  0.98835800  0.62110200  1
  B  B123  1  0.56322000  0.63318400  0.63920500  1
  B  B124  1  0.93678000  0.32549200  0.60074400  1
  B  B125  1  0.06322000  0.68066600  0.58264000  1
  B  B126  1  0.56322000  0.78087300  0.60966700  1
  B  B127  1  0.43678000  0.13604700  0.59156400  1
  B  B128  1  0.84631100  0.73300600  0.69018300  1
  B  B129  1  0.15368900  0.26699400  0.69443200  1
  B  B130  1  0.65368900  0.04069800  0.72864500  1
  B  B131  1  0.34631100  0.95930200  0.65597000  1
  B  B132  1  0.64694100  0.62899900  0.67718300  1
  B  B133  1  0.35305900  0.37100100  0.70743300  1
  B  B134  1  0.85305900  0.93669100  0.71564400  1
  B  B135  1  0.14694100  0.06330900  0.66897100  1
  B  B136  1  0.06322000  0.05912300  0.70694900  1
  B  B137  1  0.93678000  0.70395000  0.72505200  1
  B  B138  1  0.43678000  0.60374300  0.69802500  1
  B  B139  1  0.56322000  0.24856900  0.71612800  1
  B  B140  1  0.93678000  0.94087700  0.67766700  1
  B  B141  1  0.06322000  0.29605000  0.65956300  1
  B  B142  1  0.56322000  0.39625700  0.68659000  1
  B  B143  1  0.43678000  0.75143100  0.66848700  1
  B  B144  1  0.84631100  0.34839000  0.76710600  1
  B  B145  1  0.15368900  0.88237900  0.77135500  1
  B  B146  1  0.65368900  0.65608300  0.80556800  1
  B  B147  1  0.34631100  0.57468700  0.73289400  1
  B  B148  1  0.64694100  0.24438400  0.75410600  1
  B  B149  1  0.35305900  0.98638600  0.78435600  1
  B  B150  1  0.85305900  0.55207600  0.79256700  1
  B  B151  1  0.14694100  0.67869300  0.74589400  1
  B  B152  1  0.06322000  0.67450800  0.78387200  1
  B  B153  1  0.93678000  0.31933400  0.80197500  1
  B  B154  1  0.43678000  0.21912700  0.77494800  1
  B  B155  1  0.56322000  0.86395300  0.79305100  1
  B  B156  1  0.93678000  0.55626100  0.75459000  1
  B  B157  1  0.06322000  0.91143500  0.73648600  1
  B  B158  1  0.56322000  0.01164200  0.76351400  1
  B  B159  1  0.43678000  0.36681600  0.74541000  1
