# generated using pymatgen
data_Er9Mg2
_symmetry_space_group_name_H-M   'P 1'
_cell_length_a   3.53257600
_cell_length_b   3.53257600
_cell_length_c   46.34773300
_cell_angle_alpha   90.00000000
_cell_angle_beta   90.00000000
_cell_angle_gamma   90.00000000
_symmetry_Int_Tables_number   1
_chemical_formula_structural   Er9Mg2
_chemical_formula_sum   'Er9 Mg2'
_cell_volume   578.37767952
_cell_formula_units_Z   1
loop_
 _symmetry_equiv_pos_site_id
 _symmetry_equiv_pos_as_xyz
  1  'x, y, z'
loop_
 _atom_site_type_symbol
 _atom_site_label
 _atom_site_symmetry_multiplicity
 _atom_site_fract_x
 _atom_site_fract_y
 _atom_site_fract_z
 _atom_site_occupancy
  Er  Er0  1  0.50000000  0.50000000  0.32685600  1
  Er  Er1  1  0.00000000  0.00000000  0.27500000  1
  Er  Er2  1  0.50000000  0.50000000  0.22314400  1
  Er  Er3  1  0.50000000  0.50000000  0.52685600  1
  Er  Er4  1  0.00000000  0.00000000  0.47500000  1
  Er  Er5  1  0.50000000  0.50000000  0.42314400  1
  Er  Er6  1  0.50000000  0.50000000  0.72685600  1
  Er  Er7  1  0.00000000  0.00000000  0.67500000  1
  Er  Er8  1  0.50000000  0.50000000  0.62314400  1
  Mg  Mg9  1  0.00000000  0.00000000  0.37500000  1
  Mg  Mg10  1  0.00000000  0.00000000  0.57500000  1
