# generated using pymatgen
data_Mg29Tl12
_symmetry_space_group_name_H-M   'P 1'
_cell_length_a   9.54566444
_cell_length_b   16.02918063
_cell_length_c   45.11443000
_cell_angle_alpha   88.68557816
_cell_angle_beta   89.47322622
_cell_angle_gamma   74.82313579
_symmetry_Int_Tables_number   1
_chemical_formula_structural   Mg29Tl12
_chemical_formula_sum   'Mg116 Tl48'
_cell_volume   6660.37438527
_cell_formula_units_Z   4
loop_
 _symmetry_equiv_pos_site_id
 _symmetry_equiv_pos_as_xyz
  1  'x, y, z'
loop_
 _atom_site_type_symbol
 _atom_site_label
 _atom_site_symmetry_multiplicity
 _atom_site_fract_x
 _atom_site_fract_y
 _atom_site_fract_z
 _atom_site_occupancy
  Mg  Mg0  1  0.08381400  0.06469800  0.21783400  1
  Mg  Mg1  1  0.61304600  0.16790200  0.29432100  1
  Mg  Mg2  1  0.21890200  0.92972600  0.26785700  1
  Mg  Mg3  1  0.65177300  0.41179000  0.20084400  1
  Mg  Mg4  1  0.25399000  0.39475300  0.21788000  1
  Mg  Mg5  1  0.32475800  0.19154900  0.24139300  1
  Mg  Mg6  1  0.12475800  0.14154900  0.29139300  1
  Mg  Mg7  1  0.81304600  0.21790200  0.24432100  1
  Mg  Mg8  1  0.68603100  0.04766100  0.23487000  1
  Mg  Mg9  1  0.41890200  0.97972600  0.21785700  1
  Mg  Mg10  1  0.38381400  0.51469800  0.26783400  1
  Mg  Mg11  1  0.31304600  0.71790200  0.24432100  1
  Mg  Mg12  1  0.91890200  0.47972600  0.21785700  1
  Mg  Mg13  1  0.95177300  0.86179000  0.25084400  1
  Mg  Mg14  1  0.55399000  0.84475300  0.26788000  1
  Mg  Mg15  1  0.62475800  0.64154900  0.29139300  1
  Mg  Mg16  1  0.82475800  0.69154900  0.24139300  1
  Mg  Mg17  1  0.11304600  0.66790200  0.29432100  1
  Mg  Mg18  1  0.98603100  0.49766100  0.28487000  1
  Mg  Mg19  1  0.71890200  0.42972600  0.26785700  1
  Mg  Mg20  1  0.68381400  0.96469800  0.31783400  1
  Mg  Mg21  1  0.21304600  0.06790200  0.39432100  1
  Mg  Mg22  1  0.81890200  0.82972600  0.36785700  1
  Mg  Mg23  1  0.25177300  0.31179000  0.30084400  1
  Mg  Mg24  1  0.85399000  0.29475300  0.31788000  1
  Mg  Mg25  1  0.92475800  0.09154900  0.34139300  1
  Mg  Mg26  1  0.72475800  0.04154900  0.39139300  1
  Mg  Mg27  1  0.41304600  0.11790200  0.34432100  1
  Mg  Mg28  1  0.28603100  0.94766100  0.33487000  1
  Mg  Mg29  1  0.01890200  0.87972600  0.31785700  1
  Mg  Mg30  1  0.98381400  0.41469800  0.36783400  1
  Mg  Mg31  1  0.91304600  0.61790200  0.34432100  1
  Mg  Mg32  1  0.51890200  0.37972600  0.31785700  1
  Mg  Mg33  1  0.55177300  0.76179000  0.35084400  1
  Mg  Mg34  1  0.15399000  0.74475300  0.36788000  1
  Mg  Mg35  1  0.22475800  0.54154900  0.39139300  1
  Mg  Mg36  1  0.42475800  0.59154900  0.34139300  1
  Mg  Mg37  1  0.71304600  0.56790200  0.39432100  1
  Mg  Mg38  1  0.58603100  0.39766100  0.38487000  1
  Mg  Mg39  1  0.31890200  0.32972600  0.36785700  1
  Mg  Mg40  1  0.28381400  0.86469800  0.41783400  1
  Mg  Mg41  1  0.81304600  0.96790200  0.49432100  1
  Mg  Mg42  1  0.41890200  0.72972600  0.46785700  1
  Mg  Mg43  1  0.85177300  0.21179000  0.40084400  1
  Mg  Mg44  1  0.45399000  0.19475300  0.41788000  1
  Mg  Mg45  1  0.52475800  0.99154900  0.44139300  1
  Mg  Mg46  1  0.32475800  0.94154900  0.49139300  1
  Mg  Mg47  1  0.01304600  0.01790200  0.44432100  1
  Mg  Mg48  1  0.88603100  0.84766100  0.43487000  1
  Mg  Mg49  1  0.61890200  0.77972600  0.41785700  1
  Mg  Mg50  1  0.58381400  0.31469800  0.46783400  1
  Mg  Mg51  1  0.51304600  0.51790200  0.44432100  1
  Mg  Mg52  1  0.11890200  0.27972600  0.41785700  1
  Mg  Mg53  1  0.15177300  0.66179000  0.45084400  1
  Mg  Mg54  1  0.75399000  0.64475300  0.46788000  1
  Mg  Mg55  1  0.82475800  0.44154900  0.49139300  1
  Mg  Mg56  1  0.02475800  0.49154900  0.44139300  1
  Mg  Mg57  1  0.31304600  0.46790200  0.49432100  1
  Mg  Mg58  1  0.18603100  0.29766100  0.48487000  1
  Mg  Mg59  1  0.91890200  0.22972600  0.46785700  1
  Mg  Mg60  1  0.88381400  0.76469800  0.51783400  1
  Mg  Mg61  1  0.41304600  0.86790200  0.59432100  1
  Mg  Mg62  1  0.01890200  0.62972600  0.56785700  1
  Mg  Mg63  1  0.45177300  0.11179000  0.50084400  1
  Mg  Mg64  1  0.05399000  0.09475300  0.51788000  1
  Mg  Mg65  1  0.12475800  0.89154900  0.54139300  1
  Mg  Mg66  1  0.92475800  0.84154900  0.59139300  1
  Mg  Mg67  1  0.61304600  0.91790200  0.54432100  1
  Mg  Mg68  1  0.48603100  0.74766100  0.53487000  1
  Mg  Mg69  1  0.21890200  0.67972600  0.51785700  1
  Mg  Mg70  1  0.18381400  0.21469800  0.56783400  1
  Mg  Mg71  1  0.11304600  0.41790200  0.54432100  1
  Mg  Mg72  1  0.71890200  0.17972600  0.51785700  1
  Mg  Mg73  1  0.75177300  0.56179000  0.55084400  1
  Mg  Mg74  1  0.35399000  0.54475300  0.56788000  1
  Mg  Mg75  1  0.42475800  0.34154900  0.59139300  1
  Mg  Mg76  1  0.62475800  0.39154900  0.54139300  1
  Mg  Mg77  1  0.91304600  0.36790200  0.59432100  1
  Mg  Mg78  1  0.78603100  0.19766100  0.58487000  1
  Mg  Mg79  1  0.51890200  0.12972600  0.56785700  1
  Mg  Mg80  1  0.48381400  0.66469800  0.61783400  1
  Mg  Mg81  1  0.01304600  0.76790200  0.69432100  1
  Mg  Mg82  1  0.61890200  0.52972600  0.66785700  1
  Mg  Mg83  1  0.05177300  0.01179000  0.60084400  1
  Mg  Mg84  1  0.65399000  0.99475300  0.61788000  1
  Mg  Mg85  1  0.72475800  0.79154900  0.64139300  1
  Mg  Mg86  1  0.52475800  0.74154900  0.69139300  1
  Mg  Mg87  1  0.21304600  0.81790200  0.64432100  1
  Mg  Mg88  1  0.08603100  0.64766100  0.63487000  1
  Mg  Mg89  1  0.81890200  0.57972600  0.61785700  1
  Mg  Mg90  1  0.78381400  0.11469800  0.66783400  1
  Mg  Mg91  1  0.71304600  0.31790200  0.64432100  1
  Mg  Mg92  1  0.31890200  0.07972600  0.61785700  1
  Mg  Mg93  1  0.35177300  0.46179000  0.65084400  1
  Mg  Mg94  1  0.95399000  0.44475300  0.66788000  1
  Mg  Mg95  1  0.02475800  0.24154900  0.69139300  1
  Mg  Mg96  1  0.22475800  0.29154900  0.64139300  1
  Mg  Mg97  1  0.51304600  0.26790200  0.69432100  1
  Mg  Mg98  1  0.38603100  0.09766100  0.68487000  1
  Mg  Mg99  1  0.11890200  0.02972600  0.66785700  1
  Mg  Mg100  1  0.08381400  0.56469800  0.71783400  1
  Mg  Mg101  1  0.21890200  0.42972600  0.76785700  1
  Mg  Mg102  1  0.65177300  0.91179000  0.70084400  1
  Mg  Mg103  1  0.25399000  0.89475300  0.71788000  1
  Mg  Mg104  1  0.32475800  0.69154900  0.74139300  1
  Mg  Mg105  1  0.81304600  0.71790200  0.74432100  1
  Mg  Mg106  1  0.68603100  0.54766100  0.73487000  1
  Mg  Mg107  1  0.41890200  0.47972600  0.71785700  1
  Mg  Mg108  1  0.38381400  0.01469800  0.76783400  1
  Mg  Mg109  1  0.31304600  0.21790200  0.74432100  1
  Mg  Mg110  1  0.91890200  0.97972600  0.71785700  1
  Mg  Mg111  1  0.95177300  0.36179000  0.75084400  1
  Mg  Mg112  1  0.55399000  0.34475300  0.76788000  1
  Mg  Mg113  1  0.82475800  0.19154900  0.74139300  1
  Mg  Mg114  1  0.98603100  0.99766100  0.78487000  1
  Mg  Mg115  1  0.71890200  0.92972600  0.76785700  1
  Tl  Tl116  1  0.50963200  0.32141200  0.25434000  1
  Tl  Tl117  1  0.91216700  0.04070700  0.27870600  1
  Tl  Tl118  1  0.02563700  0.31874500  0.25700800  1
  Tl  Tl119  1  0.42817200  0.03803900  0.28137400  1
  Tl  Tl120  1  0.20963200  0.87141200  0.20434000  1
  Tl  Tl121  1  0.61216700  0.59070700  0.22870600  1
  Tl  Tl122  1  0.72563700  0.86874500  0.20700800  1
  Tl  Tl123  1  0.12817200  0.58803900  0.23137400  1
  Tl  Tl124  1  0.10963200  0.22141200  0.35434000  1
  Tl  Tl125  1  0.51216700  0.94070700  0.37870600  1
  Tl  Tl126  1  0.62563700  0.21874500  0.35700800  1
  Tl  Tl127  1  0.02817200  0.93803900  0.38137400  1
  Tl  Tl128  1  0.80963200  0.77141200  0.30434000  1
  Tl  Tl129  1  0.21216700  0.49070700  0.32870600  1
  Tl  Tl130  1  0.32563700  0.76874500  0.30700800  1
  Tl  Tl131  1  0.72817200  0.48803900  0.33137400  1
  Tl  Tl132  1  0.70963200  0.12141200  0.45434000  1
  Tl  Tl133  1  0.11216700  0.84070700  0.47870600  1
  Tl  Tl134  1  0.22563700  0.11874500  0.45700800  1
  Tl  Tl135  1  0.62817200  0.83803900  0.48137400  1
  Tl  Tl136  1  0.40963200  0.67141200  0.40434000  1
  Tl  Tl137  1  0.81216700  0.39070700  0.42870600  1
  Tl  Tl138  1  0.92563700  0.66874500  0.40700800  1
  Tl  Tl139  1  0.32817200  0.38803900  0.43137400  1
  Tl  Tl140  1  0.30963200  0.02141200  0.55434000  1
  Tl  Tl141  1  0.71216700  0.74070700  0.57870600  1
  Tl  Tl142  1  0.82563700  0.01874500  0.55700800  1
  Tl  Tl143  1  0.22817200  0.73803900  0.58137400  1
  Tl  Tl144  1  0.00963200  0.57141200  0.50434000  1
  Tl  Tl145  1  0.41216700  0.29070700  0.52870600  1
  Tl  Tl146  1  0.52563700  0.56874500  0.50700800  1
  Tl  Tl147  1  0.92817200  0.28803900  0.53137400  1
  Tl  Tl148  1  0.90963200  0.92141200  0.65434000  1
  Tl  Tl149  1  0.31216700  0.64070700  0.67870600  1
  Tl  Tl150  1  0.42563700  0.91874500  0.65700800  1
  Tl  Tl151  1  0.82817200  0.63803900  0.68137400  1
  Tl  Tl152  1  0.60963200  0.47141200  0.60434000  1
  Tl  Tl153  1  0.01216700  0.19070700  0.62870600  1
  Tl  Tl154  1  0.12563700  0.46874500  0.60700800  1
  Tl  Tl155  1  0.52817200  0.18803900  0.63137400  1
  Tl  Tl156  1  0.50963200  0.82141200  0.75434000  1
  Tl  Tl157  1  0.91216700  0.54070700  0.77870600  1
  Tl  Tl158  1  0.02563700  0.81874500  0.75700800  1
  Tl  Tl159  1  0.42817200  0.53803900  0.78137400  1
  Tl  Tl160  1  0.20963200  0.37141200  0.70434000  1
  Tl  Tl161  1  0.61216700  0.09070700  0.72870600  1
  Tl  Tl162  1  0.72563700  0.36874500  0.70700800  1
  Tl  Tl163  1  0.12817200  0.08803900  0.73137400  1
