# generated using pymatgen
data_Mg17B118
_symmetry_space_group_name_H-M   'P 1'
_cell_length_a   7.26364917
_cell_length_b   7.26364924
_cell_length_c   41.50303500
_cell_angle_alpha   90.48958354
_cell_angle_beta   90.48958355
_cell_angle_gamma   67.87756161
_symmetry_Int_Tables_number   1
_chemical_formula_structural   Mg17B118
_chemical_formula_sum   'Mg17 B118'
_cell_volume   2028.41254556
_cell_formula_units_Z   1
loop_
 _symmetry_equiv_pos_site_id
 _symmetry_equiv_pos_as_xyz
  1  'x, y, z'
loop_
 _atom_site_type_symbol
 _atom_site_label
 _atom_site_symmetry_multiplicity
 _atom_site_fract_x
 _atom_site_fract_y
 _atom_site_fract_z
 _atom_site_occupancy
  Mg  Mg0  1  0.28866000  0.78866000  0.70117200  1
  Mg  Mg1  1  0.03866000  0.53866000  0.57617200  1
  Mg  Mg2  1  0.16366000  0.66366000  0.63867200  1
  Mg  Mg3  1  0.48650600  0.21581300  0.60742200  1
  Mg  Mg4  1  0.84081300  0.11150600  0.66992200  1
  Mg  Mg5  1  0.78866000  0.28866000  0.45117200  1
  Mg  Mg6  1  0.91366000  0.41366000  0.51367200  1
  Mg  Mg7  1  0.23650600  0.96581300  0.48242200  1
  Mg  Mg8  1  0.59081300  0.86150600  0.54492200  1
  Mg  Mg9  1  0.53866000  0.03866000  0.32617200  1
  Mg  Mg10  1  0.66366000  0.16366000  0.38867200  1
  Mg  Mg11  1  0.98650600  0.71581300  0.35742200  1
  Mg  Mg12  1  0.34081300  0.61150600  0.41992200  1
  Mg  Mg13  1  0.28866000  0.78866000  0.20117200  1
  Mg  Mg14  1  0.41366000  0.91366000  0.26367200  1
  Mg  Mg15  1  0.73650600  0.46581300  0.23242200  1
  Mg  Mg16  1  0.09081300  0.36150600  0.29492200  1
  B  B17  1  0.40327900  0.05059600  0.71145900  1
  B  B18  1  0.53870000  0.21186600  0.71266100  1
  B  B19  1  0.56802300  0.79854400  0.71873500  1
  B  B20  1  0.00929600  0.77877600  0.68360900  1
  B  B21  1  0.03861900  0.36545300  0.68968300  1
  B  B22  1  0.17404100  0.52672400  0.69088500  1
  B  B23  1  0.15377600  0.38429600  0.62110900  1
  B  B24  1  0.11396700  0.20341000  0.59726900  1
  B  B25  1  0.24066100  0.33010400  0.66061600  1
  B  B26  1  0.15327900  0.80059600  0.58645900  1
  B  B27  1  0.43764500  0.38887300  0.68040500  1
  B  B28  1  0.28870000  0.96186600  0.58766100  1
  B  B29  1  0.46092100  0.13408700  0.67377100  1
  B  B30  1  0.42559600  0.77827900  0.64895900  1
  B  B31  1  0.31802300  0.54854400  0.59373500  1
  B  B32  1  0.56344600  0.51467500  0.65943800  1
  B  B33  1  0.62221500  0.71165800  0.67922800  1
  B  B34  1  0.49891000  0.58835300  0.61757500  1
  B  B35  1  0.58686600  0.91370000  0.65016100  1
  B  B36  1  0.50908700  0.83592100  0.61127100  1
  B  B37  1  0.81823200  0.49139900  0.66607200  1
  B  B38  1  0.74045300  0.41361900  0.62718300  1
  B  B39  1  0.82841000  0.73896700  0.65976900  1
  B  B40  1  0.70510400  0.61566100  0.59811600  1
  B  B41  1  0.76387300  0.81264500  0.61790500  1
  B  B42  1  0.75929600  0.52877600  0.55860900  1
  B  B43  1  0.90172400  0.54904100  0.62838500  1
  B  B44  1  0.86639900  0.19323200  0.60357200  1
  B  B45  1  0.78861900  0.11545300  0.56468300  1
  B  B46  1  0.88967500  0.93844600  0.59693800  1
  B  B47  1  0.92404100  0.27672400  0.56588500  1
  B  B48  1  0.08665800  0.99721500  0.61672800  1
  B  B49  1  0.21335300  0.12391000  0.68007500  1
  B  B50  1  0.17354400  0.94302300  0.65623500  1
  B  B51  1  0.90377600  0.13429600  0.49610900  1
  B  B52  1  0.86396700  0.95341000  0.47226900  1
  B  B53  1  0.99066100  0.08010400  0.53561600  1
  B  B54  1  0.90327900  0.55059600  0.46145900  1
  B  B55  1  0.18764500  0.13887300  0.55540500  1
  B  B56  1  0.03870000  0.71186600  0.46266100  1
  B  B57  1  0.21092100  0.88408700  0.54877100  1
  B  B58  1  0.17559600  0.52827900  0.52395900  1
  B  B59  1  0.06802300  0.29854400  0.46873500  1
  B  B60  1  0.31344600  0.26467500  0.53443800  1
  B  B61  1  0.37221500  0.46165800  0.55422800  1
  B  B62  1  0.24891000  0.33835300  0.49257500  1
  B  B63  1  0.33686600  0.66370000  0.52516100  1
  B  B64  1  0.25908700  0.58592100  0.48627100  1
  B  B65  1  0.56823200  0.24139900  0.54107200  1
  B  B66  1  0.49045300  0.16361900  0.50218300  1
  B  B67  1  0.57841000  0.48896700  0.53476900  1
  B  B68  1  0.45510400  0.36566100  0.47311600  1
  B  B69  1  0.51387300  0.56264500  0.49290500  1
  B  B70  1  0.50929600  0.27877600  0.43360900  1
  B  B71  1  0.65172400  0.29904100  0.50338500  1
  B  B72  1  0.61639900  0.94323200  0.47857200  1
  B  B73  1  0.53861900  0.86545300  0.43968300  1
  B  B74  1  0.63967500  0.68844600  0.47193800  1
  B  B75  1  0.67404100  0.02672400  0.44088500  1
  B  B76  1  0.83665800  0.74721500  0.49172800  1
  B  B77  1  0.96335300  0.87391000  0.55507500  1
  B  B78  1  0.92354400  0.69302300  0.53123500  1
  B  B79  1  0.65377600  0.88429600  0.37110900  1
  B  B80  1  0.61396700  0.70341000  0.34726900  1
  B  B81  1  0.74066100  0.83010400  0.41061600  1
  B  B82  1  0.65327900  0.30059600  0.33645900  1
  B  B83  1  0.93764500  0.88887300  0.43040500  1
  B  B84  1  0.78870000  0.46186600  0.33766100  1
  B  B85  1  0.96092100  0.63408700  0.42377100  1
  B  B86  1  0.92559600  0.27827900  0.39895900  1
  B  B87  1  0.81802300  0.04854400  0.34373500  1
  B  B88  1  0.06344600  0.01467500  0.40943800  1
  B  B89  1  0.12221500  0.21165800  0.42922800  1
  B  B90  1  0.99891000  0.08835300  0.36757500  1
  B  B91  1  0.08686600  0.41370000  0.40016100  1
  B  B92  1  0.00908700  0.33592100  0.36127100  1
  B  B93  1  0.31823200  0.99139900  0.41607200  1
  B  B94  1  0.24045300  0.91361900  0.37718300  1
  B  B95  1  0.32841000  0.23896700  0.40976900  1
  B  B96  1  0.20510400  0.11566100  0.34811600  1
  B  B97  1  0.26387300  0.31264500  0.36790500  1
  B  B98  1  0.25929600  0.02877600  0.30860900  1
  B  B99  1  0.40172400  0.04904100  0.37838500  1
  B  B100  1  0.36639900  0.69323200  0.35357200  1
  B  B101  1  0.28861900  0.61545300  0.31468300  1
  B  B102  1  0.38967500  0.43844600  0.34693800  1
  B  B103  1  0.42404100  0.77672400  0.31588500  1
  B  B104  1  0.58665800  0.49721500  0.36672800  1
  B  B105  1  0.71335300  0.62391000  0.43007500  1
  B  B106  1  0.67354400  0.44302300  0.40623500  1
  B  B107  1  0.40377600  0.63429600  0.24610900  1
  B  B108  1  0.36396700  0.45341000  0.22226900  1
  B  B109  1  0.49066100  0.58010400  0.28561600  1
  B  B110  1  0.40327900  0.05059600  0.21145900  1
  B  B111  1  0.68764500  0.63887300  0.30540500  1
  B  B112  1  0.53870000  0.21186600  0.21266100  1
  B  B113  1  0.71092100  0.38408700  0.29877100  1
  B  B114  1  0.67559600  0.02827900  0.27395900  1
  B  B115  1  0.56802300  0.79854400  0.21873500  1
  B  B116  1  0.81344600  0.76467500  0.28443800  1
  B  B117  1  0.87221500  0.96165800  0.30422800  1
  B  B118  1  0.74891000  0.83835300  0.24257500  1
  B  B119  1  0.83686600  0.16370000  0.27516100  1
  B  B120  1  0.75908700  0.08592100  0.23627100  1
  B  B121  1  0.06823200  0.74139900  0.29107200  1
  B  B122  1  0.99045300  0.66361900  0.25218300  1
  B  B123  1  0.07841000  0.98896700  0.28476900  1
  B  B124  1  0.95510400  0.86566100  0.22311600  1
  B  B125  1  0.01387300  0.06264500  0.24290500  1
  B  B126  1  0.00929600  0.77877600  0.18360900  1
  B  B127  1  0.15172400  0.79904100  0.25338500  1
  B  B128  1  0.11639900  0.44323200  0.22857200  1
  B  B129  1  0.03861900  0.36545300  0.18968300  1
  B  B130  1  0.13967500  0.18844600  0.22193800  1
  B  B131  1  0.17404100  0.52672400  0.19088500  1
  B  B132  1  0.33665800  0.24721500  0.24172800  1
  B  B133  1  0.46335300  0.37391000  0.30507500  1
  B  B134  1  0.42354400  0.19302300  0.28123500  1
