# generated using pymatgen
data_Li7Mg4
_symmetry_space_group_name_H-M   'P 1'
_cell_length_a   3.13055700
_cell_length_b   5.51833308
_cell_length_c   51.57745200
_cell_angle_alpha   91.09484003
_cell_angle_beta   90.00000000
_cell_angle_gamma   106.47820004
_symmetry_Int_Tables_number   1
_chemical_formula_structural   Li7Mg4
_chemical_formula_sum   'Li14 Mg8'
_cell_volume   854.25799810
_cell_formula_units_Z   2
loop_
 _symmetry_equiv_pos_site_id
 _symmetry_equiv_pos_as_xyz
  1  'x, y, z'
loop_
 _atom_site_type_symbol
 _atom_site_label
 _atom_site_symmetry_multiplicity
 _atom_site_fract_x
 _atom_site_fract_y
 _atom_site_fract_z
 _atom_site_occupancy
  Li  Li0  1  0.94894300  0.89788600  0.27406800  1
  Li  Li1  1  0.24162900  0.48325800  0.24974200  1
  Li  Li2  1  0.09180000  0.18360000  0.34549600  1
  Li  Li3  1  0.38448600  0.76897200  0.32117000  1
  Li  Li4  1  0.23465700  0.46931500  0.41692500  1
  Li  Li5  1  0.52734300  0.05468700  0.39259900  1
  Li  Li6  1  0.37751400  0.75502900  0.48835300  1
  Li  Li7  1  0.67020000  0.34040100  0.46402700  1
  Li  Li8  1  0.52037200  0.04074300  0.55978200  1
  Li  Li9  1  0.81305800  0.62611500  0.53545600  1
  Li  Li10  1  0.66322900  0.32645700  0.63121100  1
  Li  Li11  1  0.95591500  0.91183000  0.60688500  1
  Li  Li12  1  0.80608600  0.61217200  0.70263900  1
  Li  Li13  1  0.09877200  0.19754400  0.67831300  1
  Mg  Mg14  1  0.52385700  0.04771500  0.22619000  1
  Mg  Mg15  1  0.66671500  0.33342900  0.29761900  1
  Mg  Mg16  1  0.80957200  0.61914300  0.36904800  1
  Mg  Mg17  1  0.95242900  0.90485800  0.44047600  1
  Mg  Mg18  1  0.09528600  0.19057200  0.51190500  1
  Mg  Mg19  1  0.23814300  0.47628600  0.58333300  1
  Mg  Mg20  1  0.38100000  0.76200100  0.65476200  1
  Mg  Mg21  1  0.52385700  0.04771500  0.72619000  1
