# generated using pymatgen
data_Dy11Mg4
_symmetry_space_group_name_H-M   'P 1'
_cell_length_a   3.55906300
_cell_length_b   9.35794300
_cell_length_c   46.26782000
_cell_angle_alpha   90.00000000
_cell_angle_beta   90.00000000
_cell_angle_gamma   90.00000000
_symmetry_Int_Tables_number   1
_chemical_formula_structural   Dy11Mg4
_chemical_formula_sum   'Dy22 Mg8'
_cell_volume   1540.97328096
_cell_formula_units_Z   2
loop_
 _symmetry_equiv_pos_site_id
 _symmetry_equiv_pos_as_xyz
  1  'x, y, z'
loop_
 _atom_site_type_symbol
 _atom_site_label
 _atom_site_symmetry_multiplicity
 _atom_site_fract_x
 _atom_site_fract_y
 _atom_site_fract_z
 _atom_site_occupancy
  Dy  Dy0  1  0.00000000  0.50000000  0.25000000  1
  Dy  Dy1  1  0.50000000  0.76161300  0.28846200  1
  Dy  Dy2  1  0.00000000  0.50000000  0.32692300  1
  Dy  Dy3  1  0.50000000  0.23838700  0.28846200  1
  Dy  Dy4  1  0.50000000  0.76161300  0.36538500  1
  Dy  Dy5  1  0.00000000  0.50000000  0.40384600  1
  Dy  Dy6  1  0.50000000  0.23838700  0.36538500  1
  Dy  Dy7  1  0.50000000  0.76161300  0.44230800  1
  Dy  Dy8  1  0.00000000  0.50000000  0.48076900  1
  Dy  Dy9  1  0.50000000  0.23838700  0.44230800  1
  Dy  Dy10  1  0.50000000  0.76161300  0.51923100  1
  Dy  Dy11  1  0.00000000  0.50000000  0.55769200  1
  Dy  Dy12  1  0.50000000  0.23838700  0.51923100  1
  Dy  Dy13  1  0.50000000  0.76161300  0.59615400  1
  Dy  Dy14  1  0.00000000  0.50000000  0.63461500  1
  Dy  Dy15  1  0.50000000  0.23838700  0.59615400  1
  Dy  Dy16  1  0.50000000  0.76161300  0.67307700  1
  Dy  Dy17  1  0.00000000  0.50000000  0.71153800  1
  Dy  Dy18  1  0.50000000  0.23838700  0.67307700  1
  Dy  Dy19  1  0.50000000  0.76161300  0.75000000  1
  Dy  Dy20  1  0.00000000  0.50000000  0.78846200  1
  Dy  Dy21  1  0.50000000  0.23838700  0.75000000  1
  Mg  Mg22  1  0.00000000  0.00000000  0.25000000  1
  Mg  Mg23  1  0.00000000  0.00000000  0.32692300  1
  Mg  Mg24  1  0.00000000  0.00000000  0.40384600  1
  Mg  Mg25  1  0.00000000  0.00000000  0.48076900  1
  Mg  Mg26  1  0.00000000  0.00000000  0.55769200  1
  Mg  Mg27  1  0.00000000  0.00000000  0.63461500  1
  Mg  Mg28  1  0.00000000  0.00000000  0.71153800  1
  Mg  Mg29  1  0.00000000  0.00000000  0.78846200  1
