# generated using pymatgen
data_Mg80Ni163
_symmetry_space_group_name_H-M   'P 1'
_cell_length_a   8.34586100
_cell_length_b   16.44013778
_cell_length_c   43.36636500
_cell_angle_alpha   98.42683803
_cell_angle_beta   90.00000000
_cell_angle_gamma   75.29598462
_symmetry_Int_Tables_number   1
_chemical_formula_structural   Mg80Ni163
_chemical_formula_sum   'Mg80 Ni163'
_cell_volume   5688.86568255
_cell_formula_units_Z   1
loop_
 _symmetry_equiv_pos_site_id
 _symmetry_equiv_pos_as_xyz
  1  'x, y, z'
loop_
 _atom_site_type_symbol
 _atom_site_label
 _atom_site_symmetry_multiplicity
 _atom_site_fract_x
 _atom_site_fract_y
 _atom_site_fract_z
 _atom_site_occupancy
  Mg  Mg0  1  0.07774400  0.90702400  0.29691800  1
  Mg  Mg1  1  0.48476900  0.09297600  0.25169300  1
  Mg  Mg2  1  0.32774400  0.40702400  0.26914000  1
  Mg  Mg3  1  0.23476900  0.59297600  0.27947100  1
  Mg  Mg4  1  0.78661500  0.15594900  0.25519200  1
  Mg  Mg5  1  0.77589800  0.84405100  0.29341900  1
  Mg  Mg6  1  0.86994900  0.65594900  0.28296900  1
  Mg  Mg7  1  0.69256400  0.34405100  0.26564200  1
  Mg  Mg8  1  0.57774400  0.90702400  0.35247400  1
  Mg  Mg9  1  0.98476900  0.09297600  0.30724900  1
  Mg  Mg10  1  0.82774400  0.40702400  0.32469600  1
  Mg  Mg11  1  0.73476900  0.59297600  0.33502600  1
  Mg  Mg12  1  0.28661500  0.15594900  0.31074700  1
  Mg  Mg13  1  0.27589800  0.84405100  0.34897500  1
  Mg  Mg14  1  0.36994900  0.65594900  0.33852500  1
  Mg  Mg15  1  0.19256400  0.34405100  0.32119700  1
  Mg  Mg16  1  0.07774400  0.90702400  0.40802900  1
  Mg  Mg17  1  0.48476900  0.09297600  0.36280400  1
  Mg  Mg18  1  0.32774400  0.40702400  0.38025100  1
  Mg  Mg19  1  0.23476900  0.59297600  0.39058200  1
  Mg  Mg20  1  0.78661500  0.15594900  0.36630300  1
  Mg  Mg21  1  0.77589800  0.84405100  0.40453100  1
  Mg  Mg22  1  0.86994900  0.65594900  0.39408100  1
  Mg  Mg23  1  0.69256400  0.34405100  0.37675300  1
  Mg  Mg24  1  0.57774400  0.90702400  0.46358500  1
  Mg  Mg25  1  0.98476900  0.09297600  0.41836000  1
  Mg  Mg26  1  0.82774400  0.40702400  0.43580700  1
  Mg  Mg27  1  0.73476900  0.59297600  0.44613800  1
  Mg  Mg28  1  0.28661500  0.15594900  0.42185800  1
  Mg  Mg29  1  0.27589800  0.84405100  0.46008600  1
  Mg  Mg30  1  0.36994900  0.65594900  0.44963600  1
  Mg  Mg31  1  0.19256400  0.34405100  0.43230800  1
  Mg  Mg32  1  0.07774400  0.90702400  0.51914000  1
  Mg  Mg33  1  0.48476900  0.09297600  0.47391500  1
  Mg  Mg34  1  0.32774400  0.40702400  0.49136200  1
  Mg  Mg35  1  0.23476900  0.59297600  0.50169300  1
  Mg  Mg36  1  0.78661500  0.15594900  0.47741400  1
  Mg  Mg37  1  0.77589800  0.84405100  0.51564200  1
  Mg  Mg38  1  0.86994900  0.65594900  0.50519200  1
  Mg  Mg39  1  0.69256400  0.34405100  0.48786400  1
  Mg  Mg40  1  0.57774400  0.90702400  0.57469600  1
  Mg  Mg41  1  0.98476900  0.09297600  0.52947100  1
  Mg  Mg42  1  0.82774400  0.40702400  0.54691800  1
  Mg  Mg43  1  0.73476900  0.59297600  0.55724900  1
  Mg  Mg44  1  0.28661500  0.15594900  0.53296900  1
  Mg  Mg45  1  0.27589800  0.84405100  0.57119700  1
  Mg  Mg46  1  0.36994900  0.65594900  0.56074700  1
  Mg  Mg47  1  0.19256400  0.34405100  0.54341900  1
  Mg  Mg48  1  0.07774400  0.90702400  0.63025100  1
  Mg  Mg49  1  0.48476900  0.09297600  0.58502600  1
  Mg  Mg50  1  0.32774400  0.40702400  0.60247400  1
  Mg  Mg51  1  0.23476900  0.59297600  0.61280400  1
  Mg  Mg52  1  0.78661500  0.15594900  0.58852500  1
  Mg  Mg53  1  0.77589800  0.84405100  0.62675300  1
  Mg  Mg54  1  0.86994900  0.65594900  0.61630300  1
  Mg  Mg55  1  0.69256400  0.34405100  0.59897500  1
  Mg  Mg56  1  0.57774400  0.90702400  0.68580700  1
  Mg  Mg57  1  0.98476900  0.09297600  0.64058200  1
  Mg  Mg58  1  0.82774400  0.40702400  0.65802900  1
  Mg  Mg59  1  0.73476900  0.59297600  0.66836000  1
  Mg  Mg60  1  0.28661500  0.15594900  0.64408100  1
  Mg  Mg61  1  0.27589800  0.84405100  0.68230800  1
  Mg  Mg62  1  0.36994900  0.65594900  0.67185800  1
  Mg  Mg63  1  0.19256400  0.34405100  0.65453100  1
  Mg  Mg64  1  0.07774400  0.90702400  0.74136200  1
  Mg  Mg65  1  0.48476900  0.09297600  0.69613800  1
  Mg  Mg66  1  0.32774400  0.40702400  0.71358500  1
  Mg  Mg67  1  0.23476900  0.59297600  0.72391500  1
  Mg  Mg68  1  0.78661500  0.15594900  0.69963600  1
  Mg  Mg69  1  0.77589800  0.84405100  0.73786400  1
  Mg  Mg70  1  0.86994900  0.65594900  0.72741400  1
  Mg  Mg71  1  0.69256400  0.34405100  0.71008600  1
  Mg  Mg72  1  0.57774400  0.90702400  0.79691800  1
  Mg  Mg73  1  0.98476900  0.09297600  0.75169300  1
  Mg  Mg74  1  0.82774400  0.40702400  0.76914000  1
  Mg  Mg75  1  0.73476900  0.59297600  0.77947100  1
  Mg  Mg76  1  0.28661500  0.15594900  0.75519200  1
  Mg  Mg77  1  0.27589800  0.84405100  0.79341900  1
  Mg  Mg78  1  0.36994900  0.65594900  0.78296900  1
  Mg  Mg79  1  0.19256400  0.34405100  0.76564200  1
  Ni  Ni80  1  0.03125600  0.00000000  0.24652800  1
  Ni  Ni81  1  0.53125600  0.50000000  0.24652800  1
  Ni  Ni82  1  0.03125600  0.50000000  0.24652800  1
  Ni  Ni83  1  0.42710300  0.87497400  0.29513700  1
  Ni  Ni84  1  0.13541000  0.12502600  0.25347400  1
  Ni  Ni85  1  0.01043600  0.37497400  0.26736000  1
  Ni  Ni86  1  0.55207700  0.62502600  0.28125100  1
  Ni  Ni87  1  0.28125600  0.00000000  0.27430600  1
  Ni  Ni88  1  0.78125600  0.00000000  0.27430600  1
  Ni  Ni89  1  0.53125600  0.00000000  0.30208300  1
  Ni  Ni90  1  0.03125600  0.50000000  0.30208300  1
  Ni  Ni91  1  0.53125600  0.50000000  0.30208300  1
  Ni  Ni92  1  0.78125600  0.50000000  0.27430600  1
  Ni  Ni93  1  0.07401200  0.75000000  0.26078000  1
  Ni  Ni94  1  0.57401200  0.75000000  0.26005400  1
  Ni  Ni95  1  0.32074600  0.75000000  0.28819400  1
  Ni  Ni96  1  0.48850100  0.25000000  0.28783200  1
  Ni  Ni97  1  0.98850100  0.25000000  0.28855700  1
  Ni  Ni98  1  0.24176700  0.25000000  0.26041700  1
  Ni  Ni99  1  0.92710300  0.87497400  0.35069300  1
  Ni  Ni100  1  0.63541000  0.12502600  0.30902900  1
  Ni  Ni101  1  0.51043600  0.37497400  0.32291500  1
  Ni  Ni102  1  0.05207700  0.62502600  0.33680700  1
  Ni  Ni103  1  0.78125600  0.00000000  0.32986100  1
  Ni  Ni104  1  0.28125600  0.00000000  0.32986100  1
  Ni  Ni105  1  0.03125600  0.00000000  0.35763900  1
  Ni  Ni106  1  0.53125600  0.50000000  0.35763900  1
  Ni  Ni107  1  0.03125600  0.50000000  0.35763900  1
  Ni  Ni108  1  0.28125600  0.50000000  0.32986100  1
  Ni  Ni109  1  0.57401200  0.75000000  0.31633500  1
  Ni  Ni110  1  0.07401200  0.75000000  0.31560900  1
  Ni  Ni111  1  0.82074600  0.75000000  0.34375000  1
  Ni  Ni112  1  0.98850100  0.25000000  0.34338700  1
  Ni  Ni113  1  0.48850100  0.25000000  0.34411300  1
  Ni  Ni114  1  0.74176700  0.25000000  0.31597200  1
  Ni  Ni115  1  0.42710300  0.87497400  0.40624900  1
  Ni  Ni116  1  0.13541000  0.12502600  0.36458500  1
  Ni  Ni117  1  0.01043600  0.37497400  0.37847100  1
  Ni  Ni118  1  0.55207700  0.62502600  0.39236300  1
  Ni  Ni119  1  0.28125600  0.00000000  0.38541700  1
  Ni  Ni120  1  0.78125600  0.00000000  0.38541700  1
  Ni  Ni121  1  0.53125600  0.00000000  0.41319400  1
  Ni  Ni122  1  0.03125600  0.50000000  0.41319400  1
  Ni  Ni123  1  0.53125600  0.50000000  0.41319400  1
  Ni  Ni124  1  0.78125600  0.50000000  0.38541700  1
  Ni  Ni125  1  0.07401200  0.75000000  0.37189100  1
  Ni  Ni126  1  0.57401200  0.75000000  0.37116500  1
  Ni  Ni127  1  0.32074600  0.75000000  0.39930600  1
  Ni  Ni128  1  0.48850100  0.25000000  0.39894300  1
  Ni  Ni129  1  0.98850100  0.25000000  0.39966800  1
  Ni  Ni130  1  0.24176700  0.25000000  0.37152800  1
  Ni  Ni131  1  0.92710300  0.87497400  0.46180400  1
  Ni  Ni132  1  0.63541000  0.12502600  0.42014000  1
  Ni  Ni133  1  0.51043600  0.37497400  0.43402600  1
  Ni  Ni134  1  0.05207700  0.62502600  0.44791800  1
  Ni  Ni135  1  0.78125600  0.00000000  0.44097200  1
  Ni  Ni136  1  0.28125600  0.00000000  0.44097200  1
  Ni  Ni137  1  0.03125600  0.00000000  0.46875000  1
  Ni  Ni138  1  0.53125600  0.50000000  0.46875000  1
  Ni  Ni139  1  0.03125600  0.50000000  0.46875000  1
  Ni  Ni140  1  0.28125600  0.50000000  0.44097200  1
  Ni  Ni141  1  0.57401200  0.75000000  0.42744600  1
  Ni  Ni142  1  0.07401200  0.75000000  0.42672000  1
  Ni  Ni143  1  0.82074600  0.75000000  0.45486100  1
  Ni  Ni144  1  0.98850100  0.25000000  0.45449800  1
  Ni  Ni145  1  0.48850100  0.25000000  0.45522400  1
  Ni  Ni146  1  0.74176700  0.25000000  0.42708300  1
  Ni  Ni147  1  0.42710300  0.87497400  0.51736000  1
  Ni  Ni148  1  0.13541000  0.12502600  0.47569600  1
  Ni  Ni149  1  0.01043600  0.37497400  0.48958200  1
  Ni  Ni150  1  0.55207700  0.62502600  0.50347400  1
  Ni  Ni151  1  0.28125600  0.00000000  0.49652800  1
  Ni  Ni152  1  0.78125600  0.00000000  0.49652800  1
  Ni  Ni153  1  0.53125600  0.00000000  0.52430600  1
  Ni  Ni154  1  0.03125600  0.50000000  0.52430600  1
  Ni  Ni155  1  0.53125600  0.50000000  0.52430600  1
  Ni  Ni156  1  0.78125600  0.50000000  0.49652800  1
  Ni  Ni157  1  0.07401200  0.75000000  0.48300200  1
  Ni  Ni158  1  0.57401200  0.75000000  0.48227600  1
  Ni  Ni159  1  0.32074600  0.75000000  0.51041700  1
  Ni  Ni160  1  0.48850100  0.25000000  0.51005400  1
  Ni  Ni161  1  0.98850100  0.25000000  0.51078000  1
  Ni  Ni162  1  0.24176700  0.25000000  0.48263900  1
  Ni  Ni163  1  0.92710300  0.87497400  0.57291500  1
  Ni  Ni164  1  0.63541000  0.12502600  0.53125100  1
  Ni  Ni165  1  0.51043600  0.37497400  0.54513700  1
  Ni  Ni166  1  0.05207700  0.62502600  0.55902900  1
  Ni  Ni167  1  0.78125600  0.00000000  0.55208300  1
  Ni  Ni168  1  0.28125600  0.00000000  0.55208300  1
  Ni  Ni169  1  0.03125600  0.00000000  0.57986100  1
  Ni  Ni170  1  0.53125600  0.50000000  0.57986100  1
  Ni  Ni171  1  0.03125600  0.50000000  0.57986100  1
  Ni  Ni172  1  0.28125600  0.50000000  0.55208300  1
  Ni  Ni173  1  0.57401200  0.75000000  0.53855700  1
  Ni  Ni174  1  0.07401200  0.75000000  0.53783200  1
  Ni  Ni175  1  0.82074600  0.75000000  0.56597200  1
  Ni  Ni176  1  0.98850100  0.25000000  0.56560900  1
  Ni  Ni177  1  0.48850100  0.25000000  0.56633500  1
  Ni  Ni178  1  0.74176700  0.25000000  0.53819400  1
  Ni  Ni179  1  0.42710300  0.87497400  0.62847100  1
  Ni  Ni180  1  0.13541000  0.12502600  0.58680700  1
  Ni  Ni181  1  0.01043600  0.37497400  0.60069300  1
  Ni  Ni182  1  0.55207700  0.62502600  0.61458500  1
  Ni  Ni183  1  0.28125600  0.00000000  0.60763900  1
  Ni  Ni184  1  0.78125600  0.00000000  0.60763900  1
  Ni  Ni185  1  0.53125600  0.00000000  0.63541700  1
  Ni  Ni186  1  0.03125600  0.50000000  0.63541700  1
  Ni  Ni187  1  0.53125600  0.50000000  0.63541700  1
  Ni  Ni188  1  0.78125600  0.50000000  0.60763900  1
  Ni  Ni189  1  0.07401200  0.75000000  0.59411300  1
  Ni  Ni190  1  0.57401200  0.75000000  0.59338700  1
  Ni  Ni191  1  0.32074600  0.75000000  0.62152800  1
  Ni  Ni192  1  0.48850100  0.25000000  0.62116500  1
  Ni  Ni193  1  0.98850100  0.25000000  0.62189100  1
  Ni  Ni194  1  0.24176700  0.25000000  0.59375000  1
  Ni  Ni195  1  0.92710300  0.87497400  0.68402600  1
  Ni  Ni196  1  0.63541000  0.12502600  0.64236300  1
  Ni  Ni197  1  0.51043600  0.37497400  0.65624900  1
  Ni  Ni198  1  0.05207700  0.62502600  0.67014000  1
  Ni  Ni199  1  0.78125600  0.00000000  0.66319400  1
  Ni  Ni200  1  0.28125600  0.00000000  0.66319400  1
  Ni  Ni201  1  0.03125600  0.00000000  0.69097200  1
  Ni  Ni202  1  0.53125600  0.50000000  0.69097200  1
  Ni  Ni203  1  0.03125600  0.50000000  0.69097200  1
  Ni  Ni204  1  0.28125600  0.50000000  0.66319400  1
  Ni  Ni205  1  0.57401200  0.75000000  0.64966800  1
  Ni  Ni206  1  0.07401200  0.75000000  0.64894300  1
  Ni  Ni207  1  0.82074600  0.75000000  0.67708300  1
  Ni  Ni208  1  0.98850100  0.25000000  0.67672000  1
  Ni  Ni209  1  0.48850100  0.25000000  0.67744600  1
  Ni  Ni210  1  0.74176700  0.25000000  0.64930600  1
  Ni  Ni211  1  0.42710300  0.87497400  0.73958200  1
  Ni  Ni212  1  0.13541000  0.12502600  0.69791800  1
  Ni  Ni213  1  0.01043600  0.37497400  0.71180400  1
  Ni  Ni214  1  0.55207700  0.62502600  0.72569600  1
  Ni  Ni215  1  0.28125600  0.00000000  0.71875000  1
  Ni  Ni216  1  0.78125600  0.00000000  0.71875000  1
  Ni  Ni217  1  0.53125600  0.00000000  0.74652800  1
  Ni  Ni218  1  0.03125600  0.50000000  0.74652800  1
  Ni  Ni219  1  0.53125600  0.50000000  0.74652800  1
  Ni  Ni220  1  0.78125600  0.50000000  0.71875000  1
  Ni  Ni221  1  0.07401200  0.75000000  0.70522400  1
  Ni  Ni222  1  0.57401200  0.75000000  0.70449800  1
  Ni  Ni223  1  0.32074600  0.75000000  0.73263900  1
  Ni  Ni224  1  0.48850100  0.25000000  0.73227600  1
  Ni  Ni225  1  0.98850100  0.25000000  0.73300200  1
  Ni  Ni226  1  0.24176700  0.25000000  0.70486100  1
  Ni  Ni227  1  0.92710300  0.87497400  0.79513700  1
  Ni  Ni228  1  0.63541000  0.12502600  0.75347400  1
  Ni  Ni229  1  0.51043600  0.37497400  0.76736000  1
  Ni  Ni230  1  0.05207700  0.62502600  0.78125100  1
  Ni  Ni231  1  0.78125600  0.00000000  0.77430600  1
  Ni  Ni232  1  0.28125600  0.00000000  0.77430600  1
  Ni  Ni233  1  0.03125600  0.00000000  0.80208300  1
  Ni  Ni234  1  0.53125600  0.50000000  0.80208300  1
  Ni  Ni235  1  0.03125600  0.50000000  0.80208300  1
  Ni  Ni236  1  0.28125600  0.50000000  0.77430600  1
  Ni  Ni237  1  0.57401200  0.75000000  0.76078000  1
  Ni  Ni238  1  0.07401200  0.75000000  0.76005400  1
  Ni  Ni239  1  0.82074600  0.75000000  0.78819400  1
  Ni  Ni240  1  0.98850100  0.25000000  0.78783200  1
  Ni  Ni241  1  0.48850100  0.25000000  0.78855700  1
  Ni  Ni242  1  0.74176700  0.25000000  0.76041700  1
