# generated using pymatgen
data_MgGa2
_symmetry_space_group_name_H-M   'P 1'
_cell_length_a   4.34920200
_cell_length_b   8.34732573
_cell_length_c   43.30735800
_cell_angle_alpha   88.34823179
_cell_angle_beta   90.00000000
_cell_angle_gamma   74.89939561
_symmetry_Int_Tables_number   1
_chemical_formula_structural   MgGa2
_chemical_formula_sum   'Mg16 Ga32'
_cell_volume   1517.27295674
_cell_formula_units_Z   16
loop_
 _symmetry_equiv_pos_site_id
 _symmetry_equiv_pos_as_xyz
  1  'x, y, z'
loop_
 _atom_site_type_symbol
 _atom_site_label
 _atom_site_symmetry_multiplicity
 _atom_site_fract_x
 _atom_site_fract_y
 _atom_site_fract_z
 _atom_site_occupancy
  Mg  Mg0  1  0.90384600  0.19230800  0.21153800  1
  Mg  Mg1  1  0.71153800  0.57692300  0.25000000  1
  Mg  Mg2  1  0.51923100  0.96153800  0.28846200  1
  Mg  Mg3  1  0.32692300  0.34615400  0.32692300  1
  Mg  Mg4  1  0.13461500  0.73076900  0.36538500  1
  Mg  Mg5  1  0.94230800  0.11538500  0.40384600  1
  Mg  Mg6  1  0.75000000  0.50000000  0.44230800  1
  Mg  Mg7  1  0.55769200  0.88461500  0.48076900  1
  Mg  Mg8  1  0.36538500  0.26923100  0.51923100  1
  Mg  Mg9  1  0.17307700  0.65384600  0.55769200  1
  Mg  Mg10  1  0.98076900  0.03846200  0.59615400  1
  Mg  Mg11  1  0.78846200  0.42307700  0.63461500  1
  Mg  Mg12  1  0.59615400  0.80769200  0.67307700  1
  Mg  Mg13  1  0.40384600  0.19230800  0.71153800  1
  Mg  Mg14  1  0.21153800  0.57692300  0.75000000  1
  Mg  Mg15  1  0.01923100  0.96153800  0.78846200  1
  Ga  Ga16  1  0.51835800  0.96328300  0.22196900  1
  Ga  Ga17  1  0.24912800  0.50174500  0.20914900  1
  Ga  Ga18  1  0.36625700  0.26748600  0.25239000  1
  Ga  Ga19  1  0.09702600  0.80594800  0.23956900  1
  Ga  Ga20  1  0.13374300  0.73251400  0.29889200  1
  Ga  Ga21  1  0.86451200  0.27097600  0.28607200  1
  Ga  Ga22  1  0.98164200  0.03671700  0.32931300  1
  Ga  Ga23  1  0.71241100  0.57517800  0.31649200  1
  Ga  Ga24  1  0.74912800  0.50174500  0.37581600  1
  Ga  Ga25  1  0.47989700  0.04020600  0.36299500  1
  Ga  Ga26  1  0.59702600  0.80594800  0.40623600  1
  Ga  Ga27  1  0.32779500  0.34440900  0.39341500  1
  Ga  Ga28  1  0.36451200  0.27097600  0.45273900  1
  Ga  Ga29  1  0.09528100  0.80943700  0.43991800  1
  Ga  Ga30  1  0.21241100  0.57517800  0.48315900  1
  Ga  Ga31  1  0.94318000  0.11364000  0.47033800  1
  Ga  Ga32  1  0.97989700  0.04020600  0.52966200  1
  Ga  Ga33  1  0.71066600  0.57866800  0.51684100  1
  Ga  Ga34  1  0.82779500  0.34440900  0.56008200  1
  Ga  Ga35  1  0.55856500  0.88287100  0.54726100  1
  Ga  Ga36  1  0.59528100  0.80943700  0.60658500  1
  Ga  Ga37  1  0.32605100  0.34789900  0.59376400  1
  Ga  Ga38  1  0.44318000  0.11364000  0.63700500  1
  Ga  Ga39  1  0.17394900  0.65210100  0.62418400  1
  Ga  Ga40  1  0.21066600  0.57866800  0.68350800  1
  Ga  Ga41  1  0.94143500  0.11712900  0.67068700  1
  Ga  Ga42  1  0.05856500  0.88287100  0.71392800  1
  Ga  Ga43  1  0.78933400  0.42133200  0.70110800  1
  Ga  Ga44  1  0.82605100  0.34789900  0.76043100  1
  Ga  Ga45  1  0.55682000  0.88636000  0.74761000  1
  Ga  Ga46  1  0.67394900  0.65210100  0.79085100  1
  Ga  Ga47  1  0.40471900  0.19056300  0.77803100  1
