# generated using pymatgen
data_Li2Mg
_symmetry_space_group_name_H-M   'P 1'
_cell_length_a   5.55556833
_cell_length_b   7.83024243
_cell_length_c   43.29092500
_cell_angle_alpha   86.72308210
_cell_angle_beta   89.82360246
_cell_angle_gamma   76.82475675
_symmetry_Int_Tables_number   1
_chemical_formula_structural   Li2Mg
_chemical_formula_sum   'Li36 Mg18'
_cell_volume   1830.55277808
_cell_formula_units_Z   18
loop_
 _symmetry_equiv_pos_site_id
 _symmetry_equiv_pos_as_xyz
  1  'x, y, z'
loop_
 _atom_site_type_symbol
 _atom_site_label
 _atom_site_symmetry_multiplicity
 _atom_site_fract_x
 _atom_site_fract_y
 _atom_site_fract_z
 _atom_site_occupancy
  Li  Li0  1  0.84011600  0.33173400  0.22766500  1
  Li  Li1  1  0.76255200  0.70464000  0.20568400  1
  Li  Li2  1  0.43744800  0.76202600  0.26098300  1
  Li  Li3  1  0.35988400  0.13493300  0.23900200  1
  Li  Li4  1  0.04011600  0.19840100  0.29433100  1
  Li  Li5  1  0.96255200  0.57130700  0.27235000  1
  Li  Li6  1  0.63744800  0.62869300  0.32765000  1
  Li  Li7  1  0.55988400  0.00159900  0.30566900  1
  Li  Li8  1  0.24011600  0.06506700  0.36099800  1
  Li  Li9  1  0.16255200  0.43797400  0.33901700  1
  Li  Li10  1  0.83744800  0.49536000  0.39431600  1
  Li  Li11  1  0.75988400  0.86826600  0.37233500  1
  Li  Li12  1  0.44011600  0.93173400  0.42766500  1
  Li  Li13  1  0.36255200  0.30464000  0.40568400  1
  Li  Li14  1  0.03744800  0.36202600  0.46098300  1
  Li  Li15  1  0.95988400  0.73493300  0.43900200  1
  Li  Li16  1  0.64011600  0.79840100  0.49433100  1
  Li  Li17  1  0.56255200  0.17130700  0.47235000  1
  Li  Li18  1  0.23744800  0.22869300  0.52765000  1
  Li  Li19  1  0.15988400  0.60159900  0.50566900  1
  Li  Li20  1  0.84011600  0.66506700  0.56099800  1
  Li  Li21  1  0.76255200  0.03797400  0.53901700  1
  Li  Li22  1  0.43744800  0.09536000  0.59431600  1
  Li  Li23  1  0.35988400  0.46826600  0.57233500  1
  Li  Li24  1  0.04011600  0.53173400  0.62766500  1
  Li  Li25  1  0.96255200  0.90464000  0.60568400  1
  Li  Li26  1  0.63744800  0.96202600  0.66098300  1
  Li  Li27  1  0.55988400  0.33493300  0.63900200  1
  Li  Li28  1  0.24011600  0.39840100  0.69433100  1
  Li  Li29  1  0.16255200  0.77130700  0.67235000  1
  Li  Li30  1  0.83744800  0.82869300  0.72765000  1
  Li  Li31  1  0.75988400  0.20159900  0.70566900  1
  Li  Li32  1  0.44011600  0.26506700  0.76099800  1
  Li  Li33  1  0.36255200  0.63797400  0.73901700  1
  Li  Li34  1  0.03744800  0.69536000  0.79431600  1
  Li  Li35  1  0.95988400  0.06826600  0.77233500  1
  Mg  Mg36  1  0.30146600  0.51437500  0.21651600  1
  Mg  Mg37  1  0.89853400  0.95229200  0.25015000  1
  Mg  Mg38  1  0.50146600  0.38104100  0.28318300  1
  Mg  Mg39  1  0.09853400  0.81895900  0.31681700  1
  Mg  Mg40  1  0.70146600  0.24770800  0.34985000  1
  Mg  Mg41  1  0.29853400  0.68562500  0.38348400  1
  Mg  Mg42  1  0.90146600  0.11437500  0.41651600  1
  Mg  Mg43  1  0.49853400  0.55229200  0.45015000  1
  Mg  Mg44  1  0.10146600  0.98104100  0.48318300  1
  Mg  Mg45  1  0.69853400  0.41895900  0.51681700  1
  Mg  Mg46  1  0.30146600  0.84770800  0.54985000  1
  Mg  Mg47  1  0.89853400  0.28562500  0.58348400  1
  Mg  Mg48  1  0.50146600  0.71437500  0.61651600  1
  Mg  Mg49  1  0.09853400  0.15229200  0.65015000  1
  Mg  Mg50  1  0.70146600  0.58104100  0.68318300  1
  Mg  Mg51  1  0.29853400  0.01895900  0.71681700  1
  Mg  Mg52  1  0.90146600  0.44770800  0.74985000  1
  Mg  Mg53  1  0.49853400  0.88562500  0.78348400  1
