# generated using pymatgen
data_Y2Mg
_symmetry_space_group_name_H-M   'P 1'
_cell_length_a   3.72656800
_cell_length_b   8.78578713
_cell_length_c   43.97079000
_cell_angle_alpha   90.00000000
_cell_angle_beta   90.00000000
_cell_angle_gamma   102.24423520
_symmetry_Int_Tables_number   1
_chemical_formula_structural   Y2Mg
_chemical_formula_sum   'Y20 Mg10'
_cell_volume   1406.89201052
_cell_formula_units_Z   10
loop_
 _symmetry_equiv_pos_site_id
 _symmetry_equiv_pos_as_xyz
  1  'x, y, z'
loop_
 _atom_site_type_symbol
 _atom_site_label
 _atom_site_symmetry_multiplicity
 _atom_site_fract_x
 _atom_site_fract_y
 _atom_site_fract_z
 _atom_site_occupancy
  Y  Y0  1  0.40944400  0.81888800  0.28125000  1
  Y  Y1  1  0.72719800  0.45439700  0.28125000  1
  Y  Y2  1  0.59055600  0.18111200  0.21875000  1
  Y  Y3  1  0.27280200  0.54560300  0.21875000  1
  Y  Y4  1  0.40944400  0.81888800  0.40625000  1
  Y  Y5  1  0.72719800  0.45439700  0.40625000  1
  Y  Y6  1  0.59055600  0.18111200  0.34375000  1
  Y  Y7  1  0.27280200  0.54560300  0.34375000  1
  Y  Y8  1  0.40944400  0.81888800  0.53125000  1
  Y  Y9  1  0.72719800  0.45439700  0.53125000  1
  Y  Y10  1  0.59055600  0.18111200  0.46875000  1
  Y  Y11  1  0.27280200  0.54560300  0.46875000  1
  Y  Y12  1  0.40944400  0.81888800  0.65625000  1
  Y  Y13  1  0.72719800  0.45439700  0.65625000  1
  Y  Y14  1  0.59055600  0.18111200  0.59375000  1
  Y  Y15  1  0.27280200  0.54560300  0.59375000  1
  Y  Y16  1  0.40944400  0.81888800  0.78125000  1
  Y  Y17  1  0.72719800  0.45439700  0.78125000  1
  Y  Y18  1  0.59055600  0.18111200  0.71875000  1
  Y  Y19  1  0.27280200  0.54560300  0.71875000  1
  Mg  Mg20  1  0.06753000  0.13506000  0.28125000  1
  Mg  Mg21  1  0.93247000  0.86494000  0.21875000  1
  Mg  Mg22  1  0.06753000  0.13506000  0.40625000  1
  Mg  Mg23  1  0.93247000  0.86494000  0.34375000  1
  Mg  Mg24  1  0.06753000  0.13506000  0.53125000  1
  Mg  Mg25  1  0.93247000  0.86494000  0.46875000  1
  Mg  Mg26  1  0.06753000  0.13506000  0.65625000  1
  Mg  Mg27  1  0.93247000  0.86494000  0.59375000  1
  Mg  Mg28  1  0.06753000  0.13506000  0.78125000  1
  Mg  Mg29  1  0.93247000  0.86494000  0.71875000  1
