# generated using pymatgen
data_Mg22Zn35
_symmetry_space_group_name_H-M   'P 1'
_cell_length_a   5.07402260
_cell_length_b   13.26606241
_cell_length_c   57.00757700
_cell_angle_alpha   92.18610401
_cell_angle_beta   87.66012493
_cell_angle_gamma   100.62858194
_symmetry_Int_Tables_number   1
_chemical_formula_structural   Mg22Zn35
_chemical_formula_sum   'Mg22 Zn35'
_cell_volume   3766.49990850
_cell_formula_units_Z   1
loop_
 _symmetry_equiv_pos_site_id
 _symmetry_equiv_pos_as_xyz
  1  'x, y, z'
loop_
 _atom_site_type_symbol
 _atom_site_label
 _atom_site_symmetry_multiplicity
 _atom_site_fract_x
 _atom_site_fract_y
 _atom_site_fract_z
 _atom_site_occupancy
  Mg  Mg0  1  0.03436400  0.32284500  0.50246800  1
  Mg  Mg1  1  0.48185000  0.19336900  0.48844100  1
  Mg  Mg2  1  0.90895300  0.28215800  0.72041000  1
  Mg  Mg3  1  0.11845400  0.64898500  0.67381100  1
  Mg  Mg4  1  0.47037700  0.27980700  0.58353400  1
  Mg  Mg5  1  0.45884700  0.40287600  0.73455900  1
  Mg  Mg6  1  0.59148500  0.57688700  0.64599300  1
  Mg  Mg7  1  0.78436400  0.07284500  0.75246800  1
  Mg  Mg8  1  0.47487300  0.33250600  0.63959100  1
  Mg  Mg9  1  0.80736700  0.86333900  0.50635000  1
  Mg  Mg10  1  0.91156300  0.23242500  0.66450100  1
  Mg  Mg11  1  0.67473000  0.68932700  0.59491600  1
  Mg  Mg12  1  0.79583700  0.98640700  0.65737500  1
  Mg  Mg13  1  0.35465100  0.03379000  0.57640800  1
  Mg  Mg14  1  0.04008500  0.54548800  0.72168200  1
  Mg  Mg15  1  0.03641600  0.37691100  0.55824700  1
  Mg  Mg16  1  0.22979900  0.88930300  0.68266200  1
  Mg  Mg17  1  0.79134100  0.93370800  0.60131800  1
  Mg  Mg18  1  0.35726100  0.98405700  0.52049900  1
  Mg  Mg19  1  0.23185000  0.94336900  0.73844100  1
  Mg  Mg20  1  0.14776100  0.61722900  0.56709800  1
  Mg  Mg21  1  0.22613000  0.72072600  0.51922700  1
  Zn  Zn22  1  0.03873900  0.45924000  0.64352700  1
  Zn  Zn23  1  0.57236900  0.58951800  0.69980100  1
  Zn  Zn24  1  0.34567600  0.10598300  0.66116800  1
  Zn  Zn25  1  0.01900300  0.84076100  0.55753200  1
  Zn  Zn26  1  0.45804200  0.79248100  0.63964600  1
  Zn  Zn27  1  0.75312300  0.42985100  0.68307200  1
  Zn  Zn28  1  0.63310700  0.13310700  0.62045500  1
  Zn  Zn29  1  0.22747600  0.80697400  0.59738200  1
  Zn  Zn30  1  0.72905800  0.91734800  0.71118100  1
  Zn  Zn31  1  0.31442300  0.47338400  0.60123500  1
  Zn  Zn32  1  0.57083400  0.08286200  0.70157400  1
  Zn  Zn33  1  0.34758900  0.17612000  0.73625400  1
  Zn  Zn34  1  0.97256200  0.30444900  0.61205400  1
  Zn  Zn35  1  0.59010200  0.50002000  0.56236000  1
  Zn  Zn36  1  0.69384600  0.67669600  0.54110800  1
  Zn  Zn37  1  0.53715600  0.34886600  0.52972800  1
  Zn  Zn38  1  0.36818800  0.52148900  0.52036900  1
  Zn  Zn39  1  0.95179200  0.79283000  0.63967400  1
  Zn  Zn40  1  0.51309200  0.83636400  0.55783700  1
  Zn  Zn41  1  0.29365200  0.96176500  0.62885500  1
  Zn  Zn42  1  0.89802600  0.74472500  0.72054000  1
  Zn  Zn43  1  0.80817300  0.47373300  0.60126400  1
  Zn  Zn44  1  0.13310700  0.13310700  0.62045500  1
  Zn  Zn45  1  0.41608600  0.25909800  0.69158900  1
  Zn  Zn46  1  0.06588700  0.08122500  0.70170500  1
  Zn  Zn47  1  0.88336300  0.52458500  0.51991400  1
  Zn  Zn48  1  0.85012900  0.00711600  0.54932000  1
  Zn  Zn49  1  0.38285100  0.74162900  0.72099500  1
  Zn  Zn50  1  0.67611200  0.76619400  0.67854900  1
  Zn  Zn51  1  0.20032700  0.18498900  0.53920400  1
  Zn  Zn52  1  0.24721100  0.42545300  0.68337700  1
  Zn  Zn53  1  0.13310700  0.63310700  0.62045500  1
  Zn  Zn54  1  0.69538100  0.18335300  0.53933500  1
  Zn  Zn55  1  0.91862500  0.09009400  0.50465500  1
  Zn  Zn56  1  0.92053900  0.16023100  0.57974100  1
