# generated using pymatgen
data_Tm33Mg10
_symmetry_space_group_name_H-M   'P 1'
_cell_length_a   4.96522053
_cell_length_b   9.91504484
_cell_length_c   43.28226200
_cell_angle_alpha   93.33418663
_cell_angle_beta   93.28820928
_cell_angle_gamma   75.49951212
_symmetry_Int_Tables_number   1
_chemical_formula_structural   Tm33Mg10
_chemical_formula_sum   'Tm33 Mg10'
_cell_volume   2057.41493294
_cell_formula_units_Z   1
loop_
 _symmetry_equiv_pos_site_id
 _symmetry_equiv_pos_as_xyz
  1  'x, y, z'
loop_
 _atom_site_type_symbol
 _atom_site_label
 _atom_site_symmetry_multiplicity
 _atom_site_fract_x
 _atom_site_fract_y
 _atom_site_fract_z
 _atom_site_occupancy
  Tm  Tm0  1  0.21699400  0.72246600  0.22960200  1
  Tm  Tm1  1  0.83159100  0.47894900  0.21527800  1
  Tm  Tm2  1  0.44618700  0.23543200  0.20095300  1
  Tm  Tm3  1  0.77255000  0.66691000  0.28515800  1
  Tm  Tm4  1  0.38714600  0.42339300  0.27083300  1
  Tm  Tm5  1  0.00174300  0.17987600  0.25650900  1
  Tm  Tm6  1  0.32810600  0.61135500  0.34071300  1
  Tm  Tm7  1  0.94270200  0.36783800  0.32638900  1
  Tm  Tm8  1  0.55729800  0.12432100  0.31206400  1
  Tm  Tm9  1  0.88366100  0.55579900  0.39626900  1
  Tm  Tm10  1  0.49825700  0.31228200  0.38194400  1
  Tm  Tm11  1  0.11285400  0.06876500  0.36762000  1
  Tm  Tm12  1  0.43921700  0.50024400  0.45182500  1
  Tm  Tm13  1  0.05381300  0.25672700  0.43750000  1
  Tm  Tm14  1  0.66840900  0.01321000  0.42317500  1
  Tm  Tm15  1  0.99477200  0.44468800  0.50738000  1
  Tm  Tm16  1  0.60936900  0.20117100  0.49305600  1
  Tm  Tm17  1  0.22396500  0.95765400  0.47873100  1
  Tm  Tm18  1  0.55032800  0.38913300  0.56293600  1
  Tm  Tm19  1  0.16492400  0.14561600  0.54861100  1
  Tm  Tm20  1  0.77952000  0.90209800  0.53428700  1
  Tm  Tm21  1  0.10588300  0.33357700  0.61849100  1
  Tm  Tm22  1  0.72048000  0.09006000  0.60416700  1
  Tm  Tm23  1  0.33507600  0.84654300  0.58984200  1
  Tm  Tm24  1  0.66143900  0.27802100  0.67404700  1
  Tm  Tm25  1  0.27603500  0.03450400  0.65972200  1
  Tm  Tm26  1  0.89063100  0.79098700  0.64539800  1
  Tm  Tm27  1  0.21699400  0.22246600  0.72960200  1
  Tm  Tm28  1  0.83159100  0.97894900  0.71527800  1
  Tm  Tm29  1  0.44618700  0.73543200  0.70095300  1
  Tm  Tm30  1  0.77255000  0.16691000  0.78515800  1
  Tm  Tm31  1  0.38714600  0.92339300  0.77083300  1
  Tm  Tm32  1  0.00174300  0.67987600  0.75650900  1
  Mg  Mg33  1  0.60936900  0.95117100  0.24305600  1
  Mg  Mg34  1  0.16492400  0.89561600  0.29861100  1
  Mg  Mg35  1  0.72048000  0.84006000  0.35416700  1
  Mg  Mg36  1  0.27603500  0.78450400  0.40972200  1
  Mg  Mg37  1  0.83159100  0.72894900  0.46527800  1
  Mg  Mg38  1  0.38714600  0.67339300  0.52083300  1
  Mg  Mg39  1  0.94270200  0.61783800  0.57638900  1
  Mg  Mg40  1  0.49825700  0.56228200  0.63194400  1
  Mg  Mg41  1  0.05381300  0.50672700  0.68750000  1
  Mg  Mg42  1  0.60936900  0.45117100  0.74305600  1
