# generated using pymatgen
data_Mg5Ga2
_symmetry_space_group_name_H-M   'P 1'
_cell_length_a   6.11035700
_cell_length_b   13.91478600
_cell_length_c   47.77971600
_cell_angle_alpha   90.00000000
_cell_angle_beta   90.00000000
_cell_angle_gamma   90.00000000
_symmetry_Int_Tables_number   1
_chemical_formula_structural   Mg5Ga2
_chemical_formula_sum   'Mg80 Ga32'
_cell_volume   4062.43738674
_cell_formula_units_Z   16
loop_
 _symmetry_equiv_pos_site_id
 _symmetry_equiv_pos_as_xyz
  1  'x, y, z'
loop_
 _atom_site_type_symbol
 _atom_site_label
 _atom_site_symmetry_multiplicity
 _atom_site_fract_x
 _atom_site_fract_y
 _atom_site_fract_z
 _atom_site_occupancy
  Mg  Mg0  1  0.50000000  0.91731800  0.22779600  1
  Mg  Mg1  1  0.00000000  0.58268200  0.34363300  1
  Mg  Mg2  1  0.50000000  0.58268200  0.29922500  1
  Mg  Mg3  1  0.00000000  0.91731800  0.27220400  1
  Mg  Mg4  1  0.75000000  0.00000000  0.32142900  1
  Mg  Mg5  1  0.25000000  0.00000000  0.32142900  1
  Mg  Mg6  1  0.75000000  0.76531200  0.32142900  1
  Mg  Mg7  1  0.25000000  0.73468800  0.25000000  1
  Mg  Mg8  1  0.75000000  0.73468800  0.25000000  1
  Mg  Mg9  1  0.25000000  0.76531200  0.32142900  1
  Mg  Mg10  1  0.00000000  0.41731800  0.29922500  1
  Mg  Mg11  1  0.50000000  0.08268200  0.27220400  1
  Mg  Mg12  1  0.00000000  0.08268200  0.22779600  1
  Mg  Mg13  1  0.50000000  0.41731800  0.34363300  1
  Mg  Mg14  1  0.25000000  0.50000000  0.25000000  1
  Mg  Mg15  1  0.75000000  0.50000000  0.25000000  1
  Mg  Mg16  1  0.25000000  0.26531200  0.25000000  1
  Mg  Mg17  1  0.75000000  0.23468800  0.32142900  1
  Mg  Mg18  1  0.25000000  0.23468800  0.32142900  1
  Mg  Mg19  1  0.75000000  0.26531200  0.25000000  1
  Mg  Mg20  1  0.50000000  0.91731800  0.37065300  1
  Mg  Mg21  1  0.00000000  0.58268200  0.48649000  1
  Mg  Mg22  1  0.50000000  0.58268200  0.44208200  1
  Mg  Mg23  1  0.00000000  0.91731800  0.41506100  1
  Mg  Mg24  1  0.75000000  0.00000000  0.46428600  1
  Mg  Mg25  1  0.25000000  0.00000000  0.46428600  1
  Mg  Mg26  1  0.75000000  0.76531200  0.46428600  1
  Mg  Mg27  1  0.25000000  0.73468800  0.39285700  1
  Mg  Mg28  1  0.75000000  0.73468800  0.39285700  1
  Mg  Mg29  1  0.25000000  0.76531200  0.46428600  1
  Mg  Mg30  1  0.00000000  0.41731800  0.44208200  1
  Mg  Mg31  1  0.50000000  0.08268200  0.41506100  1
  Mg  Mg32  1  0.00000000  0.08268200  0.37065300  1
  Mg  Mg33  1  0.50000000  0.41731800  0.48649000  1
  Mg  Mg34  1  0.25000000  0.50000000  0.39285700  1
  Mg  Mg35  1  0.75000000  0.50000000  0.39285700  1
  Mg  Mg36  1  0.25000000  0.26531200  0.39285700  1
  Mg  Mg37  1  0.75000000  0.23468800  0.46428600  1
  Mg  Mg38  1  0.25000000  0.23468800  0.46428600  1
  Mg  Mg39  1  0.75000000  0.26531200  0.39285700  1
  Mg  Mg40  1  0.50000000  0.91731800  0.51351000  1
  Mg  Mg41  1  0.00000000  0.58268200  0.62934700  1
  Mg  Mg42  1  0.50000000  0.58268200  0.58493900  1
  Mg  Mg43  1  0.00000000  0.91731800  0.55791800  1
  Mg  Mg44  1  0.75000000  0.00000000  0.60714300  1
  Mg  Mg45  1  0.25000000  0.00000000  0.60714300  1
  Mg  Mg46  1  0.75000000  0.76531200  0.60714300  1
  Mg  Mg47  1  0.25000000  0.73468800  0.53571400  1
  Mg  Mg48  1  0.75000000  0.73468800  0.53571400  1
  Mg  Mg49  1  0.25000000  0.76531200  0.60714300  1
  Mg  Mg50  1  0.00000000  0.41731800  0.58493900  1
  Mg  Mg51  1  0.50000000  0.08268200  0.55791800  1
  Mg  Mg52  1  0.00000000  0.08268200  0.51351000  1
  Mg  Mg53  1  0.50000000  0.41731800  0.62934700  1
  Mg  Mg54  1  0.25000000  0.50000000  0.53571400  1
  Mg  Mg55  1  0.75000000  0.50000000  0.53571400  1
  Mg  Mg56  1  0.25000000  0.26531200  0.53571400  1
  Mg  Mg57  1  0.75000000  0.23468800  0.60714300  1
  Mg  Mg58  1  0.25000000  0.23468800  0.60714300  1
  Mg  Mg59  1  0.75000000  0.26531200  0.53571400  1
  Mg  Mg60  1  0.50000000  0.91731800  0.65636700  1
  Mg  Mg61  1  0.00000000  0.58268200  0.77220400  1
  Mg  Mg62  1  0.50000000  0.58268200  0.72779600  1
  Mg  Mg63  1  0.00000000  0.91731800  0.70077500  1
  Mg  Mg64  1  0.75000000  0.00000000  0.75000000  1
  Mg  Mg65  1  0.25000000  0.00000000  0.75000000  1
  Mg  Mg66  1  0.75000000  0.76531200  0.75000000  1
  Mg  Mg67  1  0.25000000  0.73468800  0.67857100  1
  Mg  Mg68  1  0.75000000  0.73468800  0.67857100  1
  Mg  Mg69  1  0.25000000  0.76531200  0.75000000  1
  Mg  Mg70  1  0.00000000  0.41731800  0.72779600  1
  Mg  Mg71  1  0.50000000  0.08268200  0.70077500  1
  Mg  Mg72  1  0.00000000  0.08268200  0.65636700  1
  Mg  Mg73  1  0.50000000  0.41731800  0.77220400  1
  Mg  Mg74  1  0.25000000  0.50000000  0.67857100  1
  Mg  Mg75  1  0.75000000  0.50000000  0.67857100  1
  Mg  Mg76  1  0.25000000  0.26531200  0.67857100  1
  Mg  Mg77  1  0.75000000  0.23468800  0.75000000  1
  Mg  Mg78  1  0.25000000  0.23468800  0.75000000  1
  Mg  Mg79  1  0.75000000  0.26531200  0.67857100  1
  Ga  Ga80  1  0.50000000  0.87758700  0.28436700  1
  Ga  Ga81  1  0.00000000  0.62241300  0.28706200  1
  Ga  Ga82  1  0.50000000  0.62241300  0.35579500  1
  Ga  Ga83  1  1.00000000  0.87758700  0.21563300  1
  Ga  Ga84  1  0.00000000  0.37758700  0.35579500  1
  Ga  Ga85  1  0.50000000  0.12241300  0.21563300  1
  Ga  Ga86  1  0.00000000  0.12241300  0.28436700  1
  Ga  Ga87  1  0.50000000  0.37758700  0.28706200  1
  Ga  Ga88  1  0.50000000  0.87758700  0.42722400  1
  Ga  Ga89  1  0.00000000  0.62241300  0.42991900  1
  Ga  Ga90  1  0.50000000  0.62241300  0.49865200  1
  Ga  Ga91  1  0.00000000  0.87758700  0.35849100  1
  Ga  Ga92  1  0.00000000  0.37758700  0.49865200  1
  Ga  Ga93  1  0.50000000  0.12241300  0.35849100  1
  Ga  Ga94  1  0.00000000  0.12241300  0.42722400  1
  Ga  Ga95  1  0.50000000  0.37758700  0.42991900  1
  Ga  Ga96  1  0.50000000  0.87758700  0.57008100  1
  Ga  Ga97  1  0.00000000  0.62241300  0.57277600  1
  Ga  Ga98  1  0.50000000  0.62241300  0.64150900  1
  Ga  Ga99  1  0.00000000  0.87758700  0.50134800  1
  Ga  Ga100  1  0.00000000  0.37758700  0.64150900  1
  Ga  Ga101  1  0.50000000  0.12241300  0.50134800  1
  Ga  Ga102  1  0.00000000  0.12241300  0.57008100  1
  Ga  Ga103  1  0.50000000  0.37758700  0.57277600  1
  Ga  Ga104  1  0.50000000  0.87758700  0.71293800  1
  Ga  Ga105  1  0.00000000  0.62241300  0.71563300  1
  Ga  Ga106  1  0.50000000  0.62241300  0.78436700  1
  Ga  Ga107  1  0.00000000  0.87758700  0.64420500  1
  Ga  Ga108  1  0.00000000  0.37758700  0.78436700  1
  Ga  Ga109  1  0.50000000  0.12241300  0.64420500  1
  Ga  Ga110  1  0.00000000  0.12241300  0.71293800  1
  Ga  Ga111  1  0.50000000  0.37758700  0.71563300  1
