# generated using pymatgen
data_Er7Mg4
_symmetry_space_group_name_H-M   'P 1'
_cell_length_a   5.42669900
_cell_length_b   8.70370642
_cell_length_c   46.42048700
_cell_angle_alpha   91.54237289
_cell_angle_beta   90.00000000
_cell_angle_gamma   90.00000000
_symmetry_Int_Tables_number   1
_chemical_formula_structural   Er7Mg4
_chemical_formula_sum   'Er28 Mg16'
_cell_volume   2191.75639656
_cell_formula_units_Z   4
loop_
 _symmetry_equiv_pos_site_id
 _symmetry_equiv_pos_as_xyz
  1  'x, y, z'
loop_
 _atom_site_type_symbol
 _atom_site_label
 _atom_site_symmetry_multiplicity
 _atom_site_fract_x
 _atom_site_fract_y
 _atom_site_fract_z
 _atom_site_occupancy
  Er  Er0  1  0.25000000  0.72879900  0.69788600  1
  Er  Er1  1  0.25000000  0.34626100  0.72258500  1
  Er  Er2  1  0.75000000  0.09090500  0.71237000  1
  Er  Er3  1  0.75000000  0.47344300  0.68767200  1
  Er  Er4  1  0.25000000  0.80572200  0.62096300  1
  Er  Er5  1  0.25000000  0.42318400  0.64566100  1
  Er  Er6  1  0.75000000  0.16782800  0.63544700  1
  Er  Er7  1  0.75000000  0.55036600  0.61074900  1
  Er  Er8  1  0.25000000  0.88264500  0.54404000  1
  Er  Er9  1  0.25000000  0.50010700  0.56873800  1
  Er  Er10  1  0.75000000  0.24475100  0.55852400  1
  Er  Er11  1  0.75000000  0.62728900  0.53382600  1
  Er  Er12  1  0.25000000  0.95956800  0.46711700  1
  Er  Er13  1  0.25000000  0.57703000  0.49181500  1
  Er  Er14  1  0.75000000  0.32167500  0.48160100  1
  Er  Er15  1  0.75000000  0.70421200  0.45690300  1
  Er  Er16  1  0.25000000  0.03649100  0.39019400  1
  Er  Er17  1  0.25000000  0.65395300  0.41489200  1
  Er  Er18  1  0.75000000  0.39859800  0.40467800  1
  Er  Er19  1  0.75000000  0.78113600  0.37998000  1
  Er  Er20  1  0.25000000  0.11341400  0.31327100  1
  Er  Er21  1  0.25000000  0.73087600  0.33796900  1
  Er  Er22  1  0.75000000  0.47552100  0.32775500  1
  Er  Er23  1  0.75000000  0.85805900  0.30305600  1
  Er  Er24  1  0.25000000  0.19033700  0.23634800  1
  Er  Er25  1  0.25000000  0.80779900  0.26104600  1
  Er  Er26  1  0.75000000  0.55244400  0.25083200  1
  Er  Er27  1  0.75000000  0.93498200  0.22613300  1
  Mg  Mg28  1  0.25000000  0.99739600  0.74863000  1
  Mg  Mg29  1  0.75000000  0.74538500  0.73855000  1
  Mg  Mg30  1  0.25000000  0.07431900  0.67170700  1
  Mg  Mg31  1  0.75000000  0.82230800  0.66162600  1
  Mg  Mg32  1  0.25000000  0.15124200  0.59478400  1
  Mg  Mg33  1  0.75000000  0.89923100  0.58470300  1
  Mg  Mg34  1  0.25000000  0.22816500  0.51786100  1
  Mg  Mg35  1  0.75000000  0.97615400  0.50778000  1
  Mg  Mg36  1  0.25000000  0.30508800  0.44093800  1
  Mg  Mg37  1  0.75000000  0.05307700  0.43085700  1
  Mg  Mg38  1  0.25000000  0.38201100  0.36401500  1
  Mg  Mg39  1  0.75000000  0.13000000  0.35393400  1
  Mg  Mg40  1  0.25000000  0.45893400  0.28709100  1
  Mg  Mg41  1  0.75000000  0.20692400  0.27701100  1
  Mg  Mg42  1  0.25000000  0.53585700  0.21016800  1
  Mg  Mg43  1  0.75000000  0.28384700  0.20008800  1
