# generated using pymatgen
data_La15Mg8
_symmetry_space_group_name_H-M   'P 1'
_cell_length_a   6.71963240
_cell_length_b   8.84034394
_cell_length_c   46.18455600
_cell_angle_alpha   91.59015848
_cell_angle_beta   92.03823334
_cell_angle_gamma   110.84168335
_symmetry_Int_Tables_number   1
_chemical_formula_structural   La15Mg8
_chemical_formula_sum   'La30 Mg16'
_cell_volume   2560.00205237
_cell_formula_units_Z   2
loop_
 _symmetry_equiv_pos_site_id
 _symmetry_equiv_pos_as_xyz
  1  'x, y, z'
loop_
 _atom_site_type_symbol
 _atom_site_label
 _atom_site_symmetry_multiplicity
 _atom_site_fract_x
 _atom_site_fract_y
 _atom_site_fract_z
 _atom_site_occupancy
  La  La0  1  0.60247100  0.46859600  0.78839700  1
  La  La1  1  0.16930600  0.63524000  0.77570600  1
  La  La2  1  0.21541200  0.03663400  0.74939600  1
  La  La3  1  0.78713400  0.22104900  0.73778300  1
  La  La4  1  0.83324000  0.62244300  0.71147400  1
  La  La5  1  0.40007500  0.78908700  0.69878200  1
  La  La6  1  0.44618100  0.19048000  0.67247300  1
  La  La7  1  0.01790300  0.37489600  0.66086000  1
  La  La8  1  0.06400900  0.77628900  0.63455100  1
  La  La9  1  0.63084400  0.94293300  0.62185900  1
  La  La10  1  0.67695100  0.34432600  0.59555000  1
  La  La11  1  0.24867200  0.52874200  0.58393700  1
  La  La12  1  0.29477800  0.93013500  0.55762800  1
  La  La13  1  0.86161400  0.09677900  0.54493600  1
  La  La14  1  0.90772000  0.49817200  0.51862700  1
  La  La15  1  0.47944100  0.68258800  0.50701400  1
  La  La16  1  0.52554700  0.08398100  0.48070500  1
  La  La17  1  0.09238300  0.25062500  0.46801300  1
  La  La18  1  0.13848900  0.65201800  0.44170400  1
  La  La19  1  0.71021000  0.83643400  0.43009100  1
  La  La20  1  0.75631700  0.23782700  0.40378200  1
  La  La21  1  0.32315200  0.40447100  0.39109000  1
  La  La22  1  0.36925800  0.80586400  0.36478100  1
  La  La23  1  0.94098000  0.99028000  0.35316800  1
  La  La24  1  0.98708600  0.39167300  0.32685900  1
  La  La25  1  0.55392100  0.55831700  0.31416700  1
  La  La26  1  0.60002700  0.95971100  0.28785800  1
  La  La27  1  0.17174900  0.14412600  0.27624500  1
  La  La28  1  0.21785500  0.54552000  0.24993500  1
  La  La29  1  0.78469000  0.71216400  0.23724400  1
  Mg  Mg30  1  0.08199600  0.26033700  0.80131400  1
  Mg  Mg31  1  0.68978000  0.84350000  0.76278800  1
  Mg  Mg32  1  0.31276600  0.41418300  0.72439100  1
  Mg  Mg33  1  0.92054900  0.99734600  0.68586500  1
  Mg  Mg34  1  0.54353500  0.56802900  0.64746800  1
  Mg  Mg35  1  0.15131800  0.15119300  0.60894200  1
  Mg  Mg36  1  0.77430400  0.72187500  0.57054500  1
  Mg  Mg37  1  0.38208800  0.30503900  0.53201900  1
  Mg  Mg38  1  0.00507300  0.87572100  0.49362200  1
  Mg  Mg39  1  0.61285700  0.45888500  0.45509600  1
  Mg  Mg40  1  0.23584300  0.02956700  0.41669900  1
  Mg  Mg41  1  0.84362600  0.61273100  0.37817300  1
  Mg  Mg42  1  0.46661200  0.18341400  0.33977600  1
  Mg  Mg43  1  0.07439500  0.76657700  0.30125000  1
  Mg  Mg44  1  0.69738100  0.33726000  0.26285300  1
  Mg  Mg45  1  0.30516500  0.92042300  0.22432700  1
