# generated using pymatgen
data_Mg23Rh12
_symmetry_space_group_name_H-M   'P 1'
_cell_length_a   4.58065100
_cell_length_b   10.37443117
_cell_length_c   42.38760400
_cell_angle_alpha   89.64599259
_cell_angle_beta   90.00000000
_cell_angle_gamma   77.24595332
_symmetry_Int_Tables_number   1
_chemical_formula_structural   Mg23Rh12
_chemical_formula_sum   'Mg46 Rh24'
_cell_volume   1964.58931918
_cell_formula_units_Z   2
loop_
 _symmetry_equiv_pos_site_id
 _symmetry_equiv_pos_as_xyz
  1  'x, y, z'
loop_
 _atom_site_type_symbol
 _atom_site_label
 _atom_site_symmetry_multiplicity
 _atom_site_fract_x
 _atom_site_fract_y
 _atom_site_fract_z
 _atom_site_occupancy
  Mg  Mg0  1  0.12965800  0.81340600  0.22480100  1
  Mg  Mg1  1  0.72871000  0.61530200  0.21379500  1
  Mg  Mg2  1  0.39281600  0.28709000  0.25111700  1
  Mg  Mg3  1  0.99186800  0.08898600  0.24011100  1
  Mg  Mg4  1  0.65597400  0.76077400  0.27743300  1
  Mg  Mg5  1  0.25502600  0.56267000  0.26642700  1
  Mg  Mg6  1  0.91913200  0.23445900  0.30374900  1
  Mg  Mg7  1  0.51818400  0.03635400  0.29274300  1
  Mg  Mg8  1  0.18229000  0.70814300  0.33006400  1
  Mg  Mg9  1  0.78134200  0.51003900  0.31905900  1
  Mg  Mg10  1  0.44544800  0.18182700  0.35638000  1
  Mg  Mg11  1  0.04450000  0.98372300  0.34537400  1
  Mg  Mg12  1  0.70860600  0.65551100  0.38269600  1
  Mg  Mg13  1  0.30765800  0.45740700  0.37169000  1
  Mg  Mg14  1  0.97176400  0.12919500  0.40901200  1
  Mg  Mg15  1  0.57081600  0.93109100  0.39800600  1
  Mg  Mg16  1  0.23492100  0.60288000  0.43532700  1
  Mg  Mg17  1  0.83397400  0.40477500  0.42432200  1
  Mg  Mg18  1  0.49807900  0.07656400  0.46164300  1
  Mg  Mg19  1  0.09713100  0.87846000  0.45063700  1
  Mg  Mg20  1  0.76123700  0.55024800  0.48795900  1
  Mg  Mg21  1  0.36028900  0.35214400  0.47695300  1
  Mg  Mg22  1  0.02439500  0.02393200  0.51427500  1
  Mg  Mg23  1  0.62344700  0.82582800  0.50326900  1
  Mg  Mg24  1  0.28755300  0.49761600  0.54059100  1
  Mg  Mg25  1  0.88660500  0.29951200  0.52958500  1
  Mg  Mg26  1  0.55071100  0.97130100  0.56690600  1
  Mg  Mg27  1  0.14976300  0.77319600  0.55590100  1
  Mg  Mg28  1  0.81386900  0.44498500  0.59322200  1
  Mg  Mg29  1  0.41292100  0.24688100  0.58221600  1
  Mg  Mg30  1  0.07702700  0.91866900  0.61953800  1
  Mg  Mg31  1  0.67607900  0.72056500  0.60853200  1
  Mg  Mg32  1  0.34018500  0.39235300  0.64585400  1
  Mg  Mg33  1  0.93923700  0.19424900  0.63484800  1
  Mg  Mg34  1  0.60334300  0.86603700  0.67217000  1
  Mg  Mg35  1  0.20239500  0.66793300  0.66116400  1
  Mg  Mg36  1  0.86650000  0.33972200  0.69848500  1
  Mg  Mg37  1  0.46555200  0.14161800  0.68748000  1
  Mg  Mg38  1  0.12965800  0.81340600  0.72480100  1
  Mg  Mg39  1  0.72871000  0.61530200  0.71379500  1
  Mg  Mg40  1  0.39281600  0.28709000  0.75111700  1
  Mg  Mg41  1  0.99186800  0.08898600  0.74011100  1
  Mg  Mg42  1  0.65597400  0.76077400  0.77743300  1
  Mg  Mg43  1  0.25502600  0.56267000  0.76642700  1
  Mg  Mg44  1  0.91913200  0.23445900  0.80374900  1
  Mg  Mg45  1  0.51818400  0.03635400  0.79274300  1
  Rh  Rh46  1  0.56076300  0.95119600  0.23245600  1
  Rh  Rh47  1  0.29760500  0.47751200  0.20614000  1
  Rh  Rh48  1  0.08707900  0.89856400  0.28508800  1
  Rh  Rh49  1  0.82392100  0.42488000  0.25877200  1
  Rh  Rh50  1  0.61339500  0.84593300  0.33771900  1
  Rh  Rh51  1  0.35023700  0.37224900  0.31140400  1
  Rh  Rh52  1  0.13971100  0.79330100  0.39035100  1
  Rh  Rh53  1  0.87655300  0.31961700  0.36403500  1
  Rh  Rh54  1  0.66602600  0.74067000  0.44298200  1
  Rh  Rh55  1  0.40286900  0.26698500  0.41666700  1
  Rh  Rh56  1  0.19234200  0.68803800  0.49561400  1
  Rh  Rh57  1  0.92918400  0.21435400  0.46929800  1
  Rh  Rh58  1  0.71865800  0.63540600  0.54824600  1
  Rh  Rh59  1  0.45550000  0.16172200  0.52193000  1
  Rh  Rh60  1  0.24497400  0.58277500  0.60087700  1
  Rh  Rh61  1  0.98181600  0.10909100  0.57456100  1
  Rh  Rh62  1  0.77129000  0.53014300  0.65350900  1
  Rh  Rh63  1  0.50813200  0.05645900  0.62719300  1
  Rh  Rh64  1  0.29760500  0.47751200  0.70614000  1
  Rh  Rh65  1  0.03444800  0.00382800  0.67982500  1
  Rh  Rh66  1  0.82392100  0.42488000  0.75877200  1
  Rh  Rh67  1  0.56076300  0.95119600  0.73245600  1
  Rh  Rh68  1  0.35023700  0.37224900  0.81140400  1
  Rh  Rh69  1  0.08707900  0.89856400  0.78508800  1
