# generated using pymatgen
data_Tb8Mg17
_symmetry_space_group_name_H-M   'P 1'
_cell_length_a   6.08248400
_cell_length_b   6.08248429
_cell_length_c   48.93652600
_cell_angle_alpha   90.00000000
_cell_angle_beta   90.00000000
_cell_angle_gamma   119.99999841
_symmetry_Int_Tables_number   1
_chemical_formula_structural   Tb8Mg17
_chemical_formula_sum   'Tb8 Mg17'
_cell_volume   1567.92666318
_cell_formula_units_Z   1
loop_
 _symmetry_equiv_pos_site_id
 _symmetry_equiv_pos_as_xyz
  1  'x, y, z'
loop_
 _atom_site_type_symbol
 _atom_site_label
 _atom_site_symmetry_multiplicity
 _atom_site_fract_x
 _atom_site_fract_y
 _atom_site_fract_z
 _atom_site_occupancy
  Tb  Tb0  1  0.66666700  0.33333300  0.50419100  1
  Tb  Tb1  1  0.33333300  0.66666700  0.40419100  1
  Tb  Tb2  1  0.33333300  0.66666700  0.47914200  1
  Tb  Tb3  1  0.66666700  0.33333300  0.57914200  1
  Tb  Tb4  1  0.66666700  0.33333300  0.70419100  1
  Tb  Tb5  1  0.33333300  0.66666700  0.60419100  1
  Tb  Tb6  1  0.33333300  0.66666700  0.67914200  1
  Tb  Tb7  1  0.66666700  0.33333300  0.77914200  1
  Mg  Mg8  1  0.00000000  0.00000000  0.39166700  1
  Mg  Mg9  1  0.00000000  0.00000000  0.49166700  1
  Mg  Mg10  1  0.00000000  0.00000000  0.59166700  1
  Mg  Mg11  1  0.65727200  0.82863600  0.54166700  1
  Mg  Mg12  1  0.82863600  0.65727200  0.44166700  1
  Mg  Mg13  1  0.82863600  0.17136400  0.44166700  1
  Mg  Mg14  1  0.17136400  0.82863600  0.54166700  1
  Mg  Mg15  1  0.17136400  0.34272800  0.54166700  1
  Mg  Mg16  1  0.34272800  0.17136400  0.44166700  1
  Mg  Mg17  1  0.00000000  0.00000000  0.69166700  1
  Mg  Mg18  1  0.00000000  0.00000000  0.79166700  1
  Mg  Mg19  1  0.65727200  0.82863600  0.74166700  1
  Mg  Mg20  1  0.82863600  0.65727200  0.64166700  1
  Mg  Mg21  1  0.82863600  0.17136400  0.64166700  1
  Mg  Mg22  1  0.17136400  0.82863600  0.74166700  1
  Mg  Mg23  1  0.17136400  0.34272800  0.74166700  1
  Mg  Mg24  1  0.34272800  0.17136400  0.64166700  1
