# generated using pymatgen
data_Mg19Zn31
_symmetry_space_group_name_H-M   'P 1'
_cell_length_a   5.07402229
_cell_length_b   14.70723601
_cell_length_c   50.49845100
_cell_angle_alpha   88.21601723
_cell_angle_beta   89.67566990
_cell_angle_gamma   90.29193359
_symmetry_Int_Tables_number   1
_chemical_formula_structural   Mg19Zn31
_chemical_formula_sum   'Mg38 Zn62'
_cell_volume   3766.49971225
_cell_formula_units_Z   2
loop_
 _symmetry_equiv_pos_site_id
 _symmetry_equiv_pos_as_xyz
  1  'x, y, z'
loop_
 _atom_site_type_symbol
 _atom_site_label
 _atom_site_symmetry_multiplicity
 _atom_site_fract_x
 _atom_site_fract_y
 _atom_site_fract_z
 _atom_site_occupancy
  Mg  Mg0  1  0.20331900  0.88974000  0.46047600  1
  Mg  Mg1  1  0.20053200  0.15619200  0.38041900  1
  Mg  Mg2  1  0.70915700  0.40243600  0.49528200  1
  Mg  Mg3  1  0.70671000  0.86685900  0.42675900  1
  Mg  Mg4  1  0.70536100  0.24248400  0.40539800  1
  Mg  Mg5  1  0.70298300  0.20539800  0.46809300  1
  Mg  Mg6  1  0.70252500  0.83775900  0.36869600  1
  Mg  Mg7  1  0.20379700  0.08696500  0.48688600  1
  Mg  Mg8  1  0.70387400  0.46213400  0.39005700  1
  Mg  Mg9  1  0.70007700  0.30218100  0.30017200  1
  Mg  Mg10  1  0.20543700  0.61765200  0.30856800  1
  Mg  Mg11  1  0.20321600  0.95079900  0.39432500  1
  Mg  Mg12  1  0.20431400  0.52153700  0.47732800  1
  Mg  Mg13  1  0.20492000  0.18308000  0.31812600  1
  Mg  Mg14  1  0.70625200  0.49921900  0.32736100  1
  Mg  Mg15  1  0.20591600  0.81487800  0.33497900  1
  Mg  Mg16  1  0.20870300  0.54842500  0.41503600  1
  Mg  Mg17  1  0.20601800  0.75381800  0.40113000  1
  Mg  Mg18  1  0.70331900  0.63974000  0.71047600  1
  Mg  Mg19  1  0.70053200  0.90619200  0.63041900  1
  Mg  Mg20  1  0.20915700  0.15243600  0.74528200  1
  Mg  Mg21  1  0.20671000  0.61685900  0.67675900  1
  Mg  Mg22  1  0.20536100  0.99248400  0.65539800  1
  Mg  Mg23  1  0.20722300  0.71719300  0.50478900  1
  Mg  Mg24  1  0.20298300  0.95539800  0.71809300  1
  Mg  Mg25  1  0.20252500  0.58775900  0.61869600  1
  Mg  Mg26  1  0.70379700  0.83696500  0.73688600  1
  Mg  Mg27  1  0.20387400  0.21213400  0.64005700  1
  Mg  Mg28  1  0.20007700  0.05218100  0.55017200  1
  Mg  Mg29  1  0.70543700  0.36765200  0.55856800  1
  Mg  Mg30  1  0.70321600  0.70079900  0.64432500  1
  Mg  Mg31  1  0.70431400  0.27153700  0.72732800  1
  Mg  Mg32  1  0.70492000  0.93308000  0.56812600  1
  Mg  Mg33  1  0.20625200  0.24921900  0.57736100  1
  Mg  Mg34  1  0.70591600  0.56487800  0.58497900  1
  Mg  Mg35  1  0.70201200  0.73742400  0.54066500  1
  Mg  Mg36  1  0.70870300  0.29842500  0.66503600  1
  Mg  Mg37  1  0.70601800  0.50381800  0.65113000  1
  Zn  Zn38  1  0.20051600  0.22232000  0.43542600  1
  Zn  Zn39  1  0.70388800  0.04386100  0.38878800  1
  Zn  Zn40  1  0.45401000  0.64018100  0.36154400  1
  Zn  Zn41  1  0.94977400  0.32018600  0.35308600  1
  Zn  Zn42  1  0.45166500  0.06668000  0.43288700  1
  Zn  Zn43  1  0.20871900  0.48229700  0.36002900  1
  Zn  Zn44  1  0.70542400  0.08314400  0.30398500  1
  Zn  Zn45  1  0.95305000  0.38445000  0.44246300  1
  Zn  Zn46  1  0.70374200  0.80381600  0.48302400  1
  Zn  Zn47  1  0.20503300  0.30164500  0.48199200  1
  Zn  Zn48  1  0.71012600  0.53689100  0.44552300  1
  Zn  Zn49  1  0.70534700  0.66075700  0.40666700  1
  Zn  Zn50  1  0.70381100  0.62147300  0.49146900  1
  Zn  Zn51  1  0.96377000  0.69972600  0.45065300  1
  Zn  Zn52  1  0.45618500  0.32016700  0.35299200  1
  Zn  Zn53  1  0.95757000  0.63793700  0.36256700  1
  Zn  Zn54  1  0.20420200  0.40297200  0.31346300  1
  Zn  Zn55  1  0.44546500  0.00489100  0.34480100  1
  Zn  Zn56  1  0.45946000  0.38443100  0.44236900  1
  Zn  Zn57  1  0.69906700  0.99205200  0.47344600  1
  Zn  Zn58  1  0.45037100  0.70220500  0.44999300  1
  Zn  Zn59  1  0.71016800  0.71256500  0.32200900  1
  Zn  Zn60  1  0.95886400  0.00241300  0.34546200  1
  Zn  Zn61  1  0.69910900  0.16772700  0.34993200  1
  Zn  Zn62  1  0.95522500  0.06443600  0.43391000  1
  Zn  Zn63  1  0.20461700  0.35230900  0.39772700  1
  Zn  Zn64  1  0.70549200  0.90080200  0.31243000  1
  Zn  Zn65  1  0.70051600  0.97232000  0.68542600  1
  Zn  Zn66  1  0.20388800  0.79386100  0.63878800  1
  Zn  Zn67  1  0.70813000  0.06785400  0.51933000  1
  Zn  Zn68  1  0.95401000  0.39018100  0.61154400  1
  Zn  Zn69  1  0.44977400  0.07018600  0.60308600  1
  Zn  Zn70  1  0.95166500  0.81668000  0.68288700  1
  Zn  Zn71  1  0.45461700  0.22730900  0.52272700  1
  Zn  Zn72  1  0.70871900  0.23229700  0.61002900  1
  Zn  Zn73  1  0.20542400  0.83314400  0.55398500  1
  Zn  Zn74  1  0.45305000  0.13445000  0.69246300  1
  Zn  Zn75  1  0.45120900  0.91055100  0.51500900  1
  Zn  Zn76  1  0.20374200  0.55381600  0.73302400  1
  Zn  Zn77  1  0.70503300  0.05164500  0.73199200  1
  Zn  Zn78  1  0.21012600  0.28689100  0.69552300  1
  Zn  Zn79  1  0.20534700  0.41075700  0.65666700  1
  Zn  Zn80  1  0.20381100  0.37147300  0.74146900  1
  Zn  Zn81  1  0.46377000  0.44972600  0.70065300  1
  Zn  Zn82  1  0.95618500  0.07016700  0.60299200  1
  Zn  Zn83  1  0.45757000  0.38793700  0.61256700  1
  Zn  Zn84  1  0.70420200  0.15297200  0.56346300  1
  Zn  Zn85  1  0.94546500  0.75489100  0.59480100  1
  Zn  Zn86  1  0.95946000  0.13443100  0.69236900  1
  Zn  Zn87  1  0.95461700  0.22730900  0.52272700  1
  Zn  Zn88  1  0.19906700  0.74205200  0.72344600  1
  Zn  Zn89  1  0.95527100  0.90964900  0.51538500  1
  Zn  Zn90  1  0.95037100  0.45220500  0.69999300  1
  Zn  Zn91  1  0.21016800  0.46256500  0.57200900  1
  Zn  Zn92  1  0.45886400  0.75241300  0.59546200  1
  Zn  Zn93  1  0.19910900  0.91772700  0.59993200  1
  Zn  Zn94  1  0.95396400  0.54496900  0.53006900  1
  Zn  Zn95  1  0.45522500  0.81443600  0.68391000  1
  Zn  Zn96  1  0.70461700  0.10230900  0.64772700  1
  Zn  Zn97  1  0.45802600  0.54406700  0.53044600  1
  Zn  Zn98  1  0.20549200  0.65080200  0.56243000  1
  Zn  Zn99  1  0.20110500  0.38676400  0.52612400  1
