# generated using pymatgen
data_La12Mg121
_symmetry_space_group_name_H-M   'P 1'
_cell_length_a   10.38875200
_cell_length_b   14.48655120
_cell_length_c   47.03743100
_cell_angle_alpha   91.51171628
_cell_angle_beta   90.00000000
_cell_angle_gamma   68.98788168
_symmetry_Int_Tables_number   1
_chemical_formula_structural   La12Mg121
_chemical_formula_sum   'La12 Mg121'
_cell_volume   6605.64073251
_cell_formula_units_Z   1
loop_
 _symmetry_equiv_pos_site_id
 _symmetry_equiv_pos_as_xyz
  1  'x, y, z'
loop_
 _atom_site_type_symbol
 _atom_site_label
 _atom_site_symmetry_multiplicity
 _atom_site_fract_x
 _atom_site_fract_y
 _atom_site_fract_z
 _atom_site_occupancy
  La  La0  1  0.43564200  0.12871600  0.33333300  1
  La  La1  1  0.14992800  0.70014500  0.30952400  1
  La  La2  1  0.72135600  0.55728700  0.35714300  1
  La  La3  1  0.86421300  0.27157300  0.28571400  1
  La  La4  1  0.14992800  0.70014500  0.47619000  1
  La  La5  1  0.86421300  0.27157300  0.45238100  1
  La  La6  1  0.43564200  0.12871600  0.50000000  1
  La  La7  1  0.57849900  0.84300200  0.42857100  1
  La  La8  1  0.86421300  0.27157300  0.61904800  1
  La  La9  1  0.57849900  0.84300200  0.59523800  1
  La  La10  1  0.14992800  0.70014500  0.64285700  1
  La  La11  1  0.29278500  0.41443000  0.57142900  1
  Mg  Mg12  1  0.50871900  0.49589400  0.30123900  1
  Mg  Mg13  1  0.14205300  0.71589300  0.22790600  1
  Mg  Mg14  1  0.99538700  0.49589400  0.30123900  1
  Mg  Mg15  1  0.72110000  0.07113200  0.27616000  1
  Mg  Mg16  1  0.05040400  0.89919300  0.35928600  1
  Mg  Mg17  1  0.62183200  0.75633600  0.24023800  1
  Mg  Mg18  1  0.53516600  0.92966800  0.28357100  1
  Mg  Mg19  1  0.24945200  0.50109600  0.25976200  1
  Mg  Mg20  1  0.43564200  0.12871600  0.25000000  1
  Mg  Mg21  1  0.93564200  0.62871600  0.25000000  1
  Mg  Mg22  1  0.43564200  0.62871600  0.25000000  1
  Mg  Mg23  1  0.29278500  0.91443000  0.32142900  1
  Mg  Mg24  1  0.79278500  0.91443000  0.32142900  1
  Mg  Mg25  1  0.29278500  0.41443000  0.32142900  1
  Mg  Mg26  1  0.51110600  0.28635600  0.28078700  1
  Mg  Mg27  1  0.87872900  0.84508600  0.26121000  1
  Mg  Mg28  1  0.49659100  0.71284300  0.30529100  1
  Mg  Mg29  1  0.08897900  0.11601800  0.33756600  1
  Mg  Mg30  1  0.99255500  0.41234600  0.23879000  1
  Mg  Mg31  1  0.66874600  0.97107600  0.21921300  1
  Mg  Mg32  1  0.79056700  0.71284300  0.30529100  1
  Mg  Mg33  1  0.36017800  0.97107600  0.21921300  1
  Mg  Mg34  1  0.27618500  0.84508600  0.26121000  1
  Mg  Mg35  1  0.59509900  0.41234600  0.23879000  1
  Mg  Mg36  1  0.20253800  0.28635600  0.28078700  1
  Mg  Mg37  1  0.79500300  0.11601800  0.33756600  1
  Mg  Mg38  1  0.01113600  0.97772800  0.29336400  1
  Mg  Mg39  1  0.07685100  0.33296600  0.34161800  1
  Mg  Mg40  1  0.59018200  0.33296600  0.34161800  1
  Mg  Mg41  1  0.15018400  0.18630000  0.22384000  1
  Mg  Mg42  1  0.66351500  0.18630000  0.22384000  1
  Mg  Mg43  1  0.57443400  0.85113300  0.34949300  1
  Mg  Mg44  1  0.20776900  0.07113200  0.27616000  1
  Mg  Mg45  1  0.72923100  0.54153900  0.27209400  1
  Mg  Mg46  1  0.22300400  0.06732300  0.44409600  1
  Mg  Mg47  1  0.85633900  0.28732200  0.37076300  1
  Mg  Mg48  1  0.70967300  0.06732300  0.44409600  1
  Mg  Mg49  1  0.43538500  0.64256000  0.41901700  1
  Mg  Mg50  1  0.76468900  0.47062100  0.50214300  1
  Mg  Mg51  1  0.33611800  0.32776400  0.38309500  1
  Mg  Mg52  1  0.24945200  0.50109600  0.42642800  1
  Mg  Mg53  1  0.96373700  0.07252500  0.40261900  1
  Mg  Mg54  1  0.14992800  0.70014500  0.39285700  1
  Mg  Mg55  1  0.64992800  0.20014500  0.39285700  1
  Mg  Mg56  1  0.14992800  0.20014500  0.39285700  1
  Mg  Mg57  1  0.00707100  0.48585900  0.46428600  1
  Mg  Mg58  1  0.50707100  0.48585900  0.46428600  1
  Mg  Mg59  1  0.00707100  0.98585900  0.46428600  1
  Mg  Mg60  1  0.22539200  0.85778500  0.42364400  1
  Mg  Mg61  1  0.59301500  0.41651500  0.40406700  1
  Mg  Mg62  1  0.21087600  0.28427100  0.44814800  1
  Mg  Mg63  1  0.80326500  0.68744600  0.48042300  1
  Mg  Mg64  1  0.70684100  0.98377400  0.38164700  1
  Mg  Mg65  1  0.38303200  0.54250500  0.36207000  1
  Mg  Mg66  1  0.50485200  0.28427100  0.44814800  1
  Mg  Mg67  1  0.07446300  0.54250500  0.36207000  1
  Mg  Mg68  1  0.99047000  0.41651500  0.40406700  1
  Mg  Mg69  1  0.30938500  0.98377400  0.38164700  1
  Mg  Mg70  1  0.91682300  0.85778500  0.42364400  1
  Mg  Mg71  1  0.50928900  0.68744600  0.48042300  1
  Mg  Mg72  1  0.72542200  0.54915700  0.43622200  1
  Mg  Mg73  1  0.79113700  0.90439500  0.48447500  1
  Mg  Mg74  1  0.30446800  0.90439500  0.48447500  1
  Mg  Mg75  1  0.86447000  0.75772900  0.36669800  1
  Mg  Mg76  1  0.37780100  0.75772900  0.36669800  1
  Mg  Mg77  1  0.28871900  0.42256100  0.49235000  1
  Mg  Mg78  1  0.92205400  0.64256000  0.41901700  1
  Mg  Mg79  1  0.44351600  0.11296700  0.41495100  1
  Mg  Mg80  1  0.93729000  0.63875100  0.58695300  1
  Mg  Mg81  1  0.57062500  0.85875000  0.51362000  1
  Mg  Mg82  1  0.42395900  0.63875100  0.58695300  1
  Mg  Mg83  1  0.14967100  0.21398900  0.56187400  1
  Mg  Mg84  1  0.47897500  0.04205000  0.64500000  1
  Mg  Mg85  1  0.05040400  0.89919300  0.52595200  1
  Mg  Mg86  1  0.96373700  0.07252500  0.56928600  1
  Mg  Mg87  1  0.67802300  0.64395400  0.54547600  1
  Mg  Mg88  1  0.86421300  0.27157300  0.53571400  1
  Mg  Mg89  1  0.36421300  0.77157300  0.53571400  1
  Mg  Mg90  1  0.86421300  0.77157300  0.53571400  1
  Mg  Mg91  1  0.72135600  0.05728700  0.60714300  1
  Mg  Mg92  1  0.22135600  0.05728700  0.60714300  1
  Mg  Mg93  1  0.72135600  0.55728700  0.60714300  1
  Mg  Mg94  1  0.93967800  0.42921300  0.56650100  1
  Mg  Mg95  1  0.30730000  0.98794400  0.54692400  1
  Mg  Mg96  1  0.92516200  0.85570000  0.59100500  1
  Mg  Mg97  1  0.51755000  0.25887500  0.62328000  1
  Mg  Mg98  1  0.42112600  0.55520300  0.52450400  1
  Mg  Mg99  1  0.09731800  0.11393300  0.50492800  1
  Mg  Mg100  1  0.21913800  0.85570000  0.59100500  1
  Mg  Mg101  1  0.78874900  0.11393300  0.50492800  1
  Mg  Mg102  1  0.70475600  0.98794400  0.54692400  1
  Mg  Mg103  1  0.02367100  0.55520300  0.52450400  1
  Mg  Mg104  1  0.63110900  0.42921300  0.56650100  1
  Mg  Mg105  1  0.22357500  0.25887500  0.62328000  1
  Mg  Mg106  1  0.43970700  0.12058500  0.57907900  1
  Mg  Mg107  1  0.50542300  0.47582400  0.62733300  1
  Mg  Mg108  1  0.01875400  0.47582400  0.62733300  1
  Mg  Mg109  1  0.57875600  0.32915800  0.50955500  1
  Mg  Mg110  1  0.09208700  0.32915800  0.50955500  1
  Mg  Mg111  1  0.00300500  0.99399000  0.63520700  1
  Mg  Mg112  1  0.63634000  0.21398900  0.56187400  1
  Mg  Mg113  1  0.15780200  0.68439600  0.55780900  1
  Mg  Mg114  1  0.28491100  0.43017900  0.65647700  1
  Mg  Mg115  1  0.86395700  0.78541700  0.70473100  1
  Mg  Mg116  1  0.76468900  0.47062100  0.66881000  1
  Mg  Mg117  1  0.39230900  0.21538200  0.68833300  1
  Mg  Mg118  1  0.57849900  0.84300200  0.67857100  1
  Mg  Mg119  1  0.07849900  0.34300200  0.67857100  1
  Mg  Mg120  1  0.57849900  0.34300200  0.67857100  1
  Mg  Mg121  1  0.65396400  0.00064200  0.70935800  1
  Mg  Mg122  1  0.02158600  0.55937200  0.68978100  1
  Mg  Mg123  1  0.13541200  0.12663100  0.66736200  1
  Mg  Mg124  1  0.81160300  0.68536200  0.64778500  1
  Mg  Mg125  1  0.50303500  0.68536200  0.64778500  1
  Mg  Mg126  1  0.41904200  0.55937200  0.68978100  1
  Mg  Mg127  1  0.73795700  0.12663100  0.66736200  1
  Mg  Mg128  1  0.34539500  0.00064200  0.70935800  1
  Mg  Mg129  1  0.29304100  0.90058600  0.65241200  1
  Mg  Mg130  1  0.80637300  0.90058600  0.65241200  1
  Mg  Mg131  1  0.35062600  0.78541700  0.70473100  1
  Mg  Mg132  1  0.87208800  0.25582400  0.70066600  1
