# generated using pymatgen
data_Mg9Pd17
_symmetry_space_group_name_H-M   'P 1'
_cell_length_a   6.94548378
_cell_length_b   9.19052455
_cell_length_c   43.38640000
_cell_angle_alpha   90.95958529
_cell_angle_beta   93.38110513
_cell_angle_gamma   74.03149322
_symmetry_Int_Tables_number   1
_chemical_formula_structural   Mg9Pd17
_chemical_formula_sum   'Mg36 Pd68'
_cell_volume   2657.96799762
_cell_formula_units_Z   4
loop_
 _symmetry_equiv_pos_site_id
 _symmetry_equiv_pos_as_xyz
  1  'x, y, z'
loop_
 _atom_site_type_symbol
 _atom_site_label
 _atom_site_symmetry_multiplicity
 _atom_site_fract_x
 _atom_site_fract_y
 _atom_site_fract_z
 _atom_site_occupancy
  Mg  Mg0  1  0.11221500  0.37352900  0.18954800  1
  Mg  Mg1  1  0.67233100  0.51874400  0.21521400  1
  Mg  Mg2  1  0.55605800  0.04199800  0.20358700  1
  Mg  Mg3  1  0.22848700  0.85027500  0.20117500  1
  Mg  Mg4  1  0.82650000  0.23067200  0.26097600  1
  Mg  Mg5  1  0.38661700  0.37588600  0.28664300  1
  Mg  Mg6  1  0.27034400  0.89914100  0.27501500  1
  Mg  Mg7  1  0.94277300  0.70741700  0.27260400  1
  Mg  Mg8  1  0.54078600  0.08781500  0.33240500  1
  Mg  Mg9  1  0.10090200  0.23302900  0.35807100  1
  Mg  Mg10  1  0.98463000  0.75628400  0.34644400  1
  Mg  Mg11  1  0.65705900  0.56456000  0.34403200  1
  Mg  Mg12  1  0.25507200  0.94495800  0.40383300  1
  Mg  Mg13  1  0.81518800  0.09017200  0.42950000  1
  Mg  Mg14  1  0.69891500  0.61342700  0.41787300  1
  Mg  Mg15  1  0.37134400  0.42170300  0.41546100  1
  Mg  Mg16  1  0.96935700  0.80210100  0.47526200  1
  Mg  Mg17  1  0.52947400  0.94731500  0.50092800  1
  Mg  Mg18  1  0.41320100  0.47057000  0.48930100  1
  Mg  Mg19  1  0.08563000  0.27884600  0.48688900  1
  Mg  Mg20  1  0.68364300  0.65924300  0.54669100  1
  Mg  Mg21  1  0.24375900  0.80445800  0.57235700  1
  Mg  Mg22  1  0.12748700  0.32771200  0.56073000  1
  Mg  Mg23  1  0.79991600  0.13598900  0.55831800  1
  Mg  Mg24  1  0.39792900  0.51638600  0.61811900  1
  Mg  Mg25  1  0.95804500  0.66160100  0.64378600  1
  Mg  Mg26  1  0.84177200  0.18485500  0.63215800  1
  Mg  Mg27  1  0.51420200  0.99313200  0.62974600  1
  Mg  Mg28  1  0.11221500  0.37352900  0.68954800  1
  Mg  Mg29  1  0.67233100  0.51874400  0.71521400  1
  Mg  Mg30  1  0.55605800  0.04199800  0.70358700  1
  Mg  Mg31  1  0.22848700  0.85027500  0.70117500  1
  Mg  Mg32  1  0.82650000  0.23067200  0.76097600  1
  Mg  Mg33  1  0.38661700  0.37588600  0.78664300  1
  Mg  Mg34  1  0.27034400  0.89914100  0.77501500  1
  Mg  Mg35  1  0.94277300  0.70741700  0.77260400  1
  Pd  Pd36  1  0.91359500  0.94996900  0.23677500  1
  Pd  Pd37  1  0.58523600  0.79944700  0.23941500  1
  Pd  Pd38  1  0.45509300  0.32547500  0.22640100  1
  Pd  Pd39  1  0.32945300  0.56679700  0.17836100  1
  Pd  Pd40  1  0.94493000  0.67431500  0.20623500  1
  Pd  Pd41  1  0.83961600  0.21795800  0.19852700  1
  Pd  Pd42  1  0.29400800  0.62708000  0.24396600  1
  Pd  Pd43  1  0.20482300  0.12233600  0.23222500  1
  Pd  Pd44  1  0.62788100  0.80711200  0.30820400  1
  Pd  Pd45  1  0.29952200  0.65659000  0.31084400  1
  Pd  Pd46  1  0.16937800  0.18261800  0.29782900  1
  Pd  Pd47  1  0.04373800  0.42394000  0.24979000  1
  Pd  Pd48  1  0.65921500  0.53145700  0.27766400  1
  Pd  Pd49  1  0.55390200  0.07510100  0.26995500  1
  Pd  Pd50  1  0.00829300  0.48422300  0.31539400  1
  Pd  Pd51  1  0.91910900  0.97947900  0.30365300  1
  Pd  Pd52  1  0.34216600  0.66425500  0.37963200  1
  Pd  Pd53  1  0.01380800  0.51373200  0.38227200  1
  Pd  Pd54  1  0.88366400  0.03976100  0.36925800  1
  Pd  Pd55  1  0.75802400  0.28108300  0.32121800  1
  Pd  Pd56  1  0.37350100  0.38860000  0.34909200  1
  Pd  Pd57  1  0.26818700  0.93224400  0.34138400  1
  Pd  Pd58  1  0.72257900  0.34136600  0.38682300  1
  Pd  Pd59  1  0.63339500  0.83662100  0.37508200  1
  Pd  Pd60  1  0.05645200  0.52139700  0.45106100  1
  Pd  Pd61  1  0.72809300  0.37087500  0.45370100  1
  Pd  Pd62  1  0.59795000  0.89690400  0.44068700  1
  Pd  Pd63  1  0.47231000  0.13822600  0.39264700  1
  Pd  Pd64  1  0.08778700  0.24574300  0.42052100  1
  Pd  Pd65  1  0.98247300  0.78938700  0.41281200  1
  Pd  Pd66  1  0.43686500  0.19850800  0.45825100  1
  Pd  Pd67  1  0.34768100  0.69376400  0.44651000  1
  Pd  Pd68  1  0.77073800  0.37854000  0.52249000  1
  Pd  Pd69  1  0.44237900  0.22801800  0.52512900  1
  Pd  Pd70  1  0.31223600  0.75404700  0.51211500  1
  Pd  Pd71  1  0.18659600  0.99536900  0.46407500  1
  Pd  Pd72  1  0.80207200  0.10288600  0.49195000  1
  Pd  Pd73  1  0.69675900  0.64653000  0.48424100  1
  Pd  Pd74  1  0.15115100  0.05565100  0.52968000  1
  Pd  Pd75  1  0.06196600  0.55090700  0.51793900  1
  Pd  Pd76  1  0.48502300  0.23568300  0.59391800  1
  Pd  Pd77  1  0.15666500  0.08516100  0.59655800  1
  Pd  Pd78  1  0.02652100  0.61119000  0.58354400  1
  Pd  Pd79  1  0.90088100  0.85251200  0.53550400  1
  Pd  Pd80  1  0.51635800  0.96002900  0.56337800  1
  Pd  Pd81  1  0.41104400  0.50367200  0.55566900  1
  Pd  Pd82  1  0.86543600  0.91279400  0.60110900  1
  Pd  Pd83  1  0.77625200  0.40805000  0.58936800  1
  Pd  Pd84  1  0.19930900  0.09282600  0.66534700  1
  Pd  Pd85  1  0.87095100  0.94230400  0.66798700  1
  Pd  Pd86  1  0.74080700  0.46833300  0.65497200  1
  Pd  Pd87  1  0.61516700  0.70965400  0.60693200  1
  Pd  Pd88  1  0.23064400  0.81717200  0.63480700  1
  Pd  Pd89  1  0.12533000  0.36081500  0.62709800  1
  Pd  Pd90  1  0.57972200  0.76993700  0.67253700  1
  Pd  Pd91  1  0.49053800  0.26519300  0.66079600  1
  Pd  Pd92  1  0.91359500  0.94996900  0.73677500  1
  Pd  Pd93  1  0.58523600  0.79944700  0.73941500  1
  Pd  Pd94  1  0.45509300  0.32547500  0.72640100  1
  Pd  Pd95  1  0.32945300  0.56679700  0.67836100  1
  Pd  Pd96  1  0.94493000  0.67431500  0.70623500  1
  Pd  Pd97  1  0.83961600  0.21795800  0.69852700  1
  Pd  Pd98  1  0.29400800  0.62708000  0.74396600  1
  Pd  Pd99  1  0.20482300  0.12233600  0.73222500  1
  Pd  Pd100  1  0.16937800  0.18261800  0.79782900  1
  Pd  Pd101  1  0.04373800  0.42394000  0.74979000  1
  Pd  Pd102  1  0.65921500  0.53145700  0.77766400  1
  Pd  Pd103  1  0.55390200  0.07510100  0.76995500  1
