# generated using pymatgen
data_MgB4
_symmetry_space_group_name_H-M   'P 1'
_cell_length_a   4.39738600
_cell_length_b   9.23299237
_cell_length_c   44.33566700
_cell_angle_alpha   84.37095004
_cell_angle_beta   90.00000000
_cell_angle_gamma   90.00000000
_symmetry_Int_Tables_number   1
_chemical_formula_structural   MgB4
_chemical_formula_sum   'Mg24 B96'
_cell_volume   1791.39348480
_cell_formula_units_Z   24
loop_
 _symmetry_equiv_pos_site_id
 _symmetry_equiv_pos_as_xyz
  1  'x, y, z'
loop_
 _atom_site_type_symbol
 _atom_site_label
 _atom_site_symmetry_multiplicity
 _atom_site_fract_x
 _atom_site_fract_y
 _atom_site_fract_z
 _atom_site_occupancy
  Mg  Mg0  1  0.25000000  0.99905800  0.29078900  1
  Mg  Mg1  1  0.75000000  0.60094200  0.20921100  1
  Mg  Mg2  1  0.25000000  0.06440100  0.21834600  1
  Mg  Mg3  1  0.75000000  0.53559900  0.28165400  1
  Mg  Mg4  1  0.25000000  0.59905800  0.39078900  1
  Mg  Mg5  1  0.75000000  0.20094200  0.30921100  1
  Mg  Mg6  1  0.25000000  0.66440100  0.31834600  1
  Mg  Mg7  1  0.75000000  0.13559900  0.38165400  1
  Mg  Mg8  1  0.25000000  0.19905800  0.49078900  1
  Mg  Mg9  1  0.75000000  0.80094200  0.40921100  1
  Mg  Mg10  1  0.25000000  0.26440100  0.41834600  1
  Mg  Mg11  1  0.75000000  0.73559900  0.48165400  1
  Mg  Mg12  1  0.25000000  0.79905800  0.59078900  1
  Mg  Mg13  1  0.75000000  0.40094200  0.50921100  1
  Mg  Mg14  1  0.25000000  0.86440100  0.51834600  1
  Mg  Mg15  1  0.75000000  0.33559900  0.58165400  1
  Mg  Mg16  1  0.25000000  0.39905800  0.69078900  1
  Mg  Mg17  1  0.75000000  0.00094200  0.60921100  1
  Mg  Mg18  1  0.25000000  0.46440100  0.61834600  1
  Mg  Mg19  1  0.75000000  0.93559900  0.68165400  1
  Mg  Mg20  1  0.25000000  0.99905800  0.79078900  1
  Mg  Mg21  1  0.75000000  0.60094200  0.70921100  1
  Mg  Mg22  1  0.25000000  0.06440100  0.71834600  1
  Mg  Mg23  1  0.75000000  0.53559900  0.78165400  1
  B  B24  1  0.25000000  0.81883300  0.20687000  1
  B  B25  1  0.75000000  0.78116700  0.29313000  1
  B  B26  1  0.25000000  0.50326000  0.23760700  1
  B  B27  1  0.75000000  0.09674000  0.26239300  1
  B  B28  1  0.25000000  0.36681500  0.27003100  1
  B  B29  1  0.75000000  0.23318500  0.22996900  1
  B  B30  1  0.25000000  0.69048600  0.24064300  1
  B  B31  1  0.75000000  0.90951400  0.25935700  1
  B  B32  1  0.05800500  0.78500000  0.26955500  1
  B  B33  1  0.55800500  0.81500000  0.23044500  1
  B  B34  1  0.44199500  0.20913700  0.25691100  1
  B  B35  1  0.94199500  0.39086300  0.24308900  1
  B  B36  1  0.94199500  0.81500000  0.23044500  1
  B  B37  1  0.44199500  0.78500000  0.26955500  1
  B  B38  1  0.55800500  0.39086300  0.24308900  1
  B  B39  1  0.05800500  0.20913700  0.25691100  1
  B  B40  1  0.25000000  0.41883300  0.30687000  1
  B  B41  1  0.75000000  0.38116700  0.39313000  1
  B  B42  1  0.25000000  0.10326000  0.33760700  1
  B  B43  1  0.75000000  0.69674000  0.36239300  1
  B  B44  1  0.25000000  0.96681500  0.37003100  1
  B  B45  1  0.75000000  0.83318500  0.32996900  1
  B  B46  1  0.25000000  0.29048600  0.34064300  1
  B  B47  1  0.75000000  0.50951400  0.35935700  1
  B  B48  1  0.05800500  0.38500000  0.36955500  1
  B  B49  1  0.55800500  0.41500000  0.33044500  1
  B  B50  1  0.44199500  0.80913700  0.35691100  1
  B  B51  1  0.94199500  0.99086300  0.34308900  1
  B  B52  1  0.94199500  0.41500000  0.33044500  1
  B  B53  1  0.44199500  0.38500000  0.36955500  1
  B  B54  1  0.55800500  0.99086300  0.34308900  1
  B  B55  1  0.05800500  0.80913700  0.35691100  1
  B  B56  1  0.25000000  0.01883300  0.40687000  1
  B  B57  1  0.75000000  0.98116700  0.49313000  1
  B  B58  1  0.25000000  0.70326000  0.43760700  1
  B  B59  1  0.75000000  0.29674000  0.46239300  1
  B  B60  1  0.25000000  0.56681500  0.47003100  1
  B  B61  1  0.75000000  0.43318500  0.42996900  1
  B  B62  1  0.25000000  0.89048600  0.44064300  1
  B  B63  1  0.75000000  0.10951400  0.45935700  1
  B  B64  1  0.05800500  0.98500000  0.46955500  1
  B  B65  1  0.55800500  0.01500000  0.43044500  1
  B  B66  1  0.44199500  0.40913700  0.45691100  1
  B  B67  1  0.94199500  0.59086300  0.44308900  1
  B  B68  1  0.94199500  0.01500000  0.43044500  1
  B  B69  1  0.44199500  0.98500000  0.46955500  1
  B  B70  1  0.55800500  0.59086300  0.44308900  1
  B  B71  1  0.05800500  0.40913700  0.45691100  1
  B  B72  1  0.25000000  0.61883300  0.50687000  1
  B  B73  1  0.75000000  0.58116700  0.59313000  1
  B  B74  1  0.25000000  0.30326000  0.53760700  1
  B  B75  1  0.75000000  0.89674000  0.56239300  1
  B  B76  1  0.25000000  0.16681500  0.57003100  1
  B  B77  1  0.75000000  0.03318500  0.52996900  1
  B  B78  1  0.25000000  0.49048600  0.54064300  1
  B  B79  1  0.75000000  0.70951400  0.55935700  1
  B  B80  1  0.05800500  0.58500000  0.56955500  1
  B  B81  1  0.55800500  0.61500000  0.53044500  1
  B  B82  1  0.44199500  0.00913700  0.55691100  1
  B  B83  1  0.94199500  0.19086300  0.54308900  1
  B  B84  1  0.94199500  0.61500000  0.53044500  1
  B  B85  1  0.44199500  0.58500000  0.56955500  1
  B  B86  1  0.55800500  0.19086300  0.54308900  1
  B  B87  1  0.05800500  0.00913700  0.55691100  1
  B  B88  1  0.25000000  0.21883300  0.60687000  1
  B  B89  1  0.75000000  0.18116700  0.69313000  1
  B  B90  1  0.25000000  0.90326000  0.63760700  1
  B  B91  1  0.75000000  0.49674000  0.66239300  1
  B  B92  1  0.25000000  0.76681500  0.67003100  1
  B  B93  1  0.75000000  0.63318500  0.62996900  1
  B  B94  1  0.25000000  0.09048600  0.64064300  1
  B  B95  1  0.75000000  0.30951400  0.65935700  1
  B  B96  1  0.05800500  0.18500000  0.66955500  1
  B  B97  1  0.55800500  0.21500000  0.63044500  1
  B  B98  1  0.44199500  0.60913700  0.65691100  1
  B  B99  1  0.94199500  0.79086300  0.64308900  1
  B  B100  1  0.94199500  0.21500000  0.63044500  1
  B  B101  1  0.44199500  0.18500000  0.66955500  1
  B  B102  1  0.55800500  0.79086300  0.64308900  1
  B  B103  1  0.05800500  0.60913700  0.65691100  1
  B  B104  1  0.25000000  0.81883300  0.70687000  1
  B  B105  1  0.75000000  0.78116700  0.79313000  1
  B  B106  1  0.25000000  0.50326000  0.73760700  1
  B  B107  1  0.75000000  0.09674000  0.76239300  1
  B  B108  1  0.25000000  0.36681500  0.77003100  1
  B  B109  1  0.75000000  0.23318500  0.72996900  1
  B  B110  1  0.25000000  0.69048600  0.74064300  1
  B  B111  1  0.75000000  0.90951400  0.75935700  1
  B  B112  1  0.05800500  0.78500000  0.76955500  1
  B  B113  1  0.55800500  0.81500000  0.73044500  1
  B  B114  1  0.44199500  0.20913700  0.75691100  1
  B  B115  1  0.94199500  0.39086300  0.74308900  1
  B  B116  1  0.94199500  0.81500000  0.73044500  1
  B  B117  1  0.44199500  0.78500000  0.76955500  1
  B  B118  1  0.55800500  0.39086300  0.74308900  1
  B  B119  1  0.05800500  0.20913700  0.75691100  1
