# generated using pymatgen
data_Mg3P2
_symmetry_space_group_name_H-M   'P 1'
_cell_length_a   10.45363618
_cell_length_b   10.45363687
_cell_length_c   43.10144800
_cell_angle_alpha   94.63714750
_cell_angle_beta   94.63714781
_cell_angle_gamma   109.47122132
_symmetry_Int_Tables_number   1
_chemical_formula_structural   Mg3P2
_chemical_formula_sum   'Mg54 P36'
_cell_volume   4396.93764950
_cell_formula_units_Z   18
loop_
 _symmetry_equiv_pos_site_id
 _symmetry_equiv_pos_as_xyz
  1  'x, y, z'
loop_
 _atom_site_type_symbol
 _atom_site_label
 _atom_site_symmetry_multiplicity
 _atom_site_fract_x
 _atom_site_fract_y
 _atom_site_fract_z
 _atom_site_occupancy
  Mg  Mg0  1  0.70915200  0.91295300  0.38155100  1
  Mg  Mg1  1  0.46486100  0.14235300  0.38019700  1
  Mg  Mg2  1  0.97931600  0.68956100  0.37635400  1
  Mg  Mg3  1  0.72181700  0.40607800  0.36844900  1
  Mg  Mg4  1  0.96610800  0.17667800  0.36980300  1
  Mg  Mg5  1  0.45165300  0.62947000  0.37364600  1
  Mg  Mg6  1  0.09598500  0.03324800  0.42175700  1
  Mg  Mg7  1  0.30915200  0.51295300  0.58155100  1
  Mg  Mg8  1  0.36232900  0.83234500  0.42169200  1
  Mg  Mg9  1  0.90480800  0.38159200  0.52695400  1
  Mg  Mg10  1  0.64162200  0.55966800  0.42830800  1
  Mg  Mg11  1  0.68560700  0.59688500  0.52304600  1
  Mg  Mg12  1  0.06486100  0.74235300  0.58019700  1
  Mg  Mg13  1  0.99312500  0.70369500  0.46980300  1
  Mg  Mg14  1  0.76237200  0.94663200  0.46844900  1
  Mg  Mg15  1  0.57931600  0.28956100  0.57635400  1
  Mg  Mg16  1  0.84246000  0.29325900  0.42824300  1
  Mg  Mg17  1  0.54417700  0.22199400  0.47364600  1
  Mg  Mg18  1  0.93498300  0.88578300  0.52824300  1
  Mg  Mg19  1  0.32181700  0.00607800  0.56844900  1
  Mg  Mg20  1  0.66863900  0.08668600  0.52830800  1
  Mg  Mg21  1  0.12616100  0.53743900  0.42304600  1
  Mg  Mg22  1  0.38934700  0.35936300  0.52169200  1
  Mg  Mg23  1  0.34536200  0.32214600  0.42695400  1
  Mg  Mg24  1  0.56610800  0.77667800  0.56980300  1
  Mg  Mg25  1  0.03784400  0.21533600  0.48019700  1
  Mg  Mg26  1  0.26859700  0.97239900  0.48155100  1
  Mg  Mg27  1  0.05165300  0.22947000  0.57364600  1
  Mg  Mg28  1  0.18850900  0.62577200  0.52175700  1
  Mg  Mg29  1  0.48679200  0.69703800  0.47635400  1
  Mg  Mg30  1  0.69598500  0.63324800  0.62175700  1
  Mg  Mg31  1  0.90915200  0.11295300  0.78155100  1
  Mg  Mg32  1  0.96232900  0.43234500  0.62169200  1
  Mg  Mg33  1  0.50480800  0.98159200  0.72695400  1
  Mg  Mg34  1  0.24162200  0.15966800  0.62830800  1
  Mg  Mg35  1  0.28560700  0.19688500  0.72304600  1
  Mg  Mg36  1  0.66486100  0.34235300  0.78019700  1
  Mg  Mg37  1  0.59312500  0.30369500  0.66980300  1
  Mg  Mg38  1  0.36237200  0.54663200  0.66844900  1
  Mg  Mg39  1  0.17931600  0.88956100  0.77635400  1
  Mg  Mg40  1  0.44246000  0.89325900  0.62824300  1
  Mg  Mg41  1  0.14417700  0.82199400  0.67364600  1
  Mg  Mg42  1  0.53498300  0.48578300  0.72824300  1
  Mg  Mg43  1  0.92181700  0.60607800  0.76844900  1
  Mg  Mg44  1  0.26863900  0.68668600  0.72830800  1
  Mg  Mg45  1  0.72616100  0.13743900  0.62304600  1
  Mg  Mg46  1  0.98934700  0.95936300  0.72169200  1
  Mg  Mg47  1  0.94536200  0.92214600  0.62695400  1
  Mg  Mg48  1  0.16610800  0.37667800  0.76980300  1
  Mg  Mg49  1  0.63784400  0.81533600  0.68019700  1
  Mg  Mg50  1  0.86859700  0.57239900  0.68155100  1
  Mg  Mg51  1  0.65165300  0.82947000  0.77364600  1
  Mg  Mg52  1  0.78850900  0.22577200  0.72175700  1
  Mg  Mg53  1  0.08679200  0.29703800  0.67635400  1
  P  P54  1  0.71548400  0.15951600  0.37500000  1
  P  P55  1  0.21548400  0.65951600  0.37500000  1
  P  P56  1  0.47975800  0.40000000  0.37975800  1
  P  P57  1  0.95121100  0.91903100  0.37024200  1
  P  P58  1  0.01548400  0.95951600  0.47500000  1
  P  P59  1  0.31548400  0.75951600  0.57500000  1
  P  P60  1  0.81548400  0.25951600  0.57500000  1
  P  P61  1  0.51548400  0.45951600  0.47500000  1
  P  P62  1  0.15596900  0.37378900  0.52975800  1
  P  P63  1  0.25121100  0.71903100  0.47024200  1
  P  P64  1  0.09169600  0.28572700  0.42500000  1
  P  P65  1  0.07975800  0.00000000  0.57975800  1
  P  P66  1  0.43927300  0.13330400  0.52500000  1
  P  P67  1  0.67500000  0.84524200  0.52024200  1
  P  P68  1  0.87500000  0.54524200  0.42024200  1
  P  P69  1  0.77975800  0.20000000  0.47975800  1
  P  P70  1  0.93927300  0.63330400  0.52500000  1
  P  P71  1  0.55121100  0.51903100  0.57024200  1
  P  P72  1  0.59169600  0.78572700  0.42500000  1
  P  P73  1  0.35596900  0.07378900  0.42975800  1
  P  P74  1  0.61548400  0.55951600  0.67500000  1
  P  P75  1  0.91548400  0.35951600  0.77500000  1
  P  P76  1  0.41548400  0.85951600  0.77500000  1
  P  P77  1  0.11548400  0.05951600  0.67500000  1
  P  P78  1  0.75596900  0.97378900  0.72975800  1
  P  P79  1  0.85121100  0.31903100  0.67024200  1
  P  P80  1  0.69169600  0.88572700  0.62500000  1
  P  P81  1  0.67975800  0.60000000  0.77975800  1
  P  P82  1  0.03927300  0.73330400  0.72500000  1
  P  P83  1  0.27500000  0.44524200  0.72024200  1
  P  P84  1  0.47500000  0.14524200  0.62024200  1
  P  P85  1  0.37975800  0.80000000  0.67975800  1
  P  P86  1  0.53927300  0.23330400  0.72500000  1
  P  P87  1  0.15121100  0.11903100  0.77024200  1
  P  P88  1  0.19169600  0.38572700  0.62500000  1
  P  P89  1  0.95596900  0.67378900  0.62975800  1
