# generated using pymatgen
data_MgZr2
_symmetry_space_group_name_H-M   'P 1'
_cell_length_a   3.23467038
_cell_length_b   23.65093053
_cell_length_c   42.05072000
_cell_angle_alpha   83.35449517
_cell_angle_beta   87.79577957
_cell_angle_gamma   93.92115108
_symmetry_Int_Tables_number   1
_chemical_formula_structural   MgZr2
_chemical_formula_sum   'Mg27 Zr54'
_cell_volume   3184.41731786
_cell_formula_units_Z   27
loop_
 _symmetry_equiv_pos_site_id
 _symmetry_equiv_pos_as_xyz
  1  'x, y, z'
loop_
 _atom_site_type_symbol
 _atom_site_label
 _atom_site_symmetry_multiplicity
 _atom_site_fract_x
 _atom_site_fract_y
 _atom_site_fract_z
 _atom_site_occupancy
  Mg  Mg0  1  0.55555600  0.00000000  0.25555600  1
  Mg  Mg1  1  0.24444400  0.33333300  0.21111100  1
  Mg  Mg2  1  0.40000000  0.66666700  0.23333300  1
  Mg  Mg3  1  0.02222200  0.00000000  0.32222200  1
  Mg  Mg4  1  0.71111100  0.33333300  0.27777800  1
  Mg  Mg5  1  0.86666700  0.66666700  0.30000000  1
  Mg  Mg6  1  0.48888900  0.00000000  0.38888900  1
  Mg  Mg7  1  0.17777800  0.33333300  0.34444400  1
  Mg  Mg8  1  0.33333300  0.66666700  0.36666700  1
  Mg  Mg9  1  0.95555600  0.00000000  0.45555600  1
  Mg  Mg10  1  0.64444400  0.33333300  0.41111100  1
  Mg  Mg11  1  0.80000000  0.66666700  0.43333300  1
  Mg  Mg12  1  0.42222200  0.00000000  0.52222200  1
  Mg  Mg13  1  0.11111100  0.33333300  0.47777800  1
  Mg  Mg14  1  0.26666700  0.66666700  0.50000000  1
  Mg  Mg15  1  0.88888900  0.00000000  0.58888900  1
  Mg  Mg16  1  0.57777800  0.33333300  0.54444400  1
  Mg  Mg17  1  0.73333300  0.66666700  0.56666700  1
  Mg  Mg18  1  0.35555600  0.00000000  0.65555600  1
  Mg  Mg19  1  0.04444400  0.33333300  0.61111100  1
  Mg  Mg20  1  0.20000000  0.66666700  0.63333300  1
  Mg  Mg21  1  0.82222200  0.00000000  0.72222200  1
  Mg  Mg22  1  0.51111100  0.33333300  0.67777800  1
  Mg  Mg23  1  0.66666700  0.66666700  0.70000000  1
  Mg  Mg24  1  0.28888900  0.00000000  0.78888900  1
  Mg  Mg25  1  0.97777800  0.33333300  0.74444400  1
  Mg  Mg26  1  0.13333300  0.66666700  0.76666700  1
  Zr  Zr27  1  0.51696500  0.88597600  0.21871300  1
  Zr  Zr28  1  0.97192400  0.78069100  0.20350900  1
  Zr  Zr29  1  0.67252000  0.21930900  0.24093500  1
  Zr  Zr30  1  0.12748000  0.11402400  0.22573200  1
  Zr  Zr31  1  0.82807600  0.55264200  0.26315700  1
  Zr  Zr32  1  0.28303500  0.44735800  0.24795400  1
  Zr  Zr33  1  0.98363200  0.88597600  0.28537900  1
  Zr  Zr34  1  0.43859100  0.78069100  0.27017600  1
  Zr  Zr35  1  0.13918700  0.21930900  0.30760200  1
  Zr  Zr36  1  0.59414600  0.11402400  0.29239800  1
  Zr  Zr37  1  0.29474300  0.55264200  0.32982400  1
  Zr  Zr38  1  0.74970200  0.44735800  0.31462100  1
  Zr  Zr39  1  0.45029800  0.88597600  0.35204600  1
  Zr  Zr40  1  0.90525700  0.78069100  0.33684300  1
  Zr  Zr41  1  0.60585400  0.21930900  0.37426800  1
  Zr  Zr42  1  0.06081300  0.11402400  0.35906500  1
  Zr  Zr43  1  0.76140900  0.55264200  0.39649100  1
  Zr  Zr44  1  0.21636800  0.44735800  0.38128700  1
  Zr  Zr45  1  0.91696500  0.88597600  0.41871300  1
  Zr  Zr46  1  0.37192400  0.78069100  0.40350900  1
  Zr  Zr47  1  0.07252000  0.21930900  0.44093500  1
  Zr  Zr48  1  0.52748000  0.11402400  0.42573200  1
  Zr  Zr49  1  0.22807600  0.55264200  0.46315700  1
  Zr  Zr50  1  0.68303500  0.44735800  0.44795400  1
  Zr  Zr51  1  0.38363200  0.88597600  0.48537900  1
  Zr  Zr52  1  0.83859100  0.78069100  0.47017600  1
  Zr  Zr53  1  0.53918700  0.21930900  0.50760200  1
  Zr  Zr54  1  0.99414600  0.11402400  0.49239800  1
  Zr  Zr55  1  0.69474300  0.55264200  0.52982400  1
  Zr  Zr56  1  0.14970200  0.44735800  0.51462100  1
  Zr  Zr57  1  0.85029800  0.88597600  0.55204600  1
  Zr  Zr58  1  0.30525700  0.78069100  0.53684300  1
  Zr  Zr59  1  0.00585400  0.21930900  0.57426800  1
  Zr  Zr60  1  0.46081300  0.11402400  0.55906500  1
  Zr  Zr61  1  0.16140900  0.55264200  0.59649100  1
  Zr  Zr62  1  0.61636800  0.44735800  0.58128700  1
  Zr  Zr63  1  0.31696500  0.88597600  0.61871300  1
  Zr  Zr64  1  0.77192400  0.78069100  0.60350900  1
  Zr  Zr65  1  0.47252000  0.21930900  0.64093500  1
  Zr  Zr66  1  0.92748000  0.11402400  0.62573200  1
  Zr  Zr67  1  0.62807600  0.55264200  0.66315700  1
  Zr  Zr68  1  0.08303500  0.44735800  0.64795400  1
  Zr  Zr69  1  0.78363200  0.88597600  0.68537900  1
  Zr  Zr70  1  0.23859100  0.78069100  0.67017600  1
  Zr  Zr71  1  0.93918700  0.21930900  0.70760200  1
  Zr  Zr72  1  0.39414600  0.11402400  0.69239800  1
  Zr  Zr73  1  0.09474300  0.55264200  0.72982400  1
  Zr  Zr74  1  0.54970200  0.44735800  0.71462100  1
  Zr  Zr75  1  0.25029800  0.88597600  0.75204600  1
  Zr  Zr76  1  0.70525700  0.78069100  0.73684300  1
  Zr  Zr77  1  0.40585400  0.21930900  0.77426800  1
  Zr  Zr78  1  0.86081300  0.11402400  0.75906500  1
  Zr  Zr79  1  0.56140900  0.55264200  0.79649100  1
  Zr  Zr80  1  0.01636800  0.44735800  0.78128700  1
