# generated using pymatgen
data_Mg19In7
_symmetry_space_group_name_H-M   'P 1'
_cell_length_a   6.31272291
_cell_length_b   8.73688585
_cell_length_c   44.95231700
_cell_angle_alpha   85.26825975
_cell_angle_beta   85.97361685
_cell_angle_gamma   68.82187958
_symmetry_Int_Tables_number   1
_chemical_formula_structural   Mg19In7
_chemical_formula_sum   'Mg38 In14'
_cell_volume   2301.77444013
_cell_formula_units_Z   2
loop_
 _symmetry_equiv_pos_site_id
 _symmetry_equiv_pos_as_xyz
  1  'x, y, z'
loop_
 _atom_site_type_symbol
 _atom_site_label
 _atom_site_symmetry_multiplicity
 _atom_site_fract_x
 _atom_site_fract_y
 _atom_site_fract_z
 _atom_site_occupancy
  Mg  Mg0  1  0.83501100  0.63092800  0.69905100  1
  Mg  Mg1  1  0.07645000  0.07676400  0.77033700  1
  Mg  Mg2  1  0.48085600  0.36354500  0.67474300  1
  Mg  Mg3  1  0.28774700  0.77271800  0.65178700  1
  Mg  Mg4  1  0.70573000  0.35384600  0.73469400  1
  Mg  Mg5  1  0.20573000  0.35384600  0.73469400  1
  Mg  Mg6  1  0.90850300  0.98209600  0.70089800  1
  Mg  Mg7  1  0.50295800  0.72559600  0.76848900  1
  Mg  Mg8  1  0.00295800  0.72559600  0.76848900  1
  Mg  Mg9  1  0.40850300  0.98209600  0.70089800  1
  Mg  Mg10  1  0.69215400  0.05949900  0.55619400  1
  Mg  Mg11  1  0.93359200  0.50533500  0.62748000  1
  Mg  Mg12  1  0.33799900  0.79211600  0.53188600  1
  Mg  Mg13  1  0.14489000  0.20129000  0.50893000  1
  Mg  Mg14  1  0.56287300  0.78241700  0.59183700  1
  Mg  Mg15  1  0.06287300  0.78241700  0.59183700  1
  Mg  Mg16  1  0.76564600  0.41066700  0.55804100  1
  Mg  Mg17  1  0.36010000  0.15416700  0.62563200  1
  Mg  Mg18  1  0.86010000  0.15416700  0.62563200  1
  Mg  Mg19  1  0.26564600  0.41066700  0.55804100  1
  Mg  Mg20  1  0.54929600  0.48807100  0.41333700  1
  Mg  Mg21  1  0.79073500  0.93390700  0.48462300  1
  Mg  Mg22  1  0.19514200  0.22068800  0.38902900  1
  Mg  Mg23  1  0.00203300  0.62986100  0.36607300  1
  Mg  Mg24  1  0.42001600  0.21098900  0.44898000  1
  Mg  Mg25  1  0.92001600  0.21098900  0.44898000  1
  Mg  Mg26  1  0.62278900  0.83923900  0.41518400  1
  Mg  Mg27  1  0.21724300  0.58273900  0.48277500  1
  Mg  Mg28  1  0.71724300  0.58273900  0.48277500  1
  Mg  Mg29  1  0.12278900  0.83923900  0.41518400  1
  Mg  Mg30  1  0.40643900  0.91664200  0.27047900  1
  Mg  Mg31  1  0.64787800  0.36247800  0.34176600  1
  Mg  Mg32  1  0.27715900  0.63956000  0.30612200  1
  Mg  Mg33  1  0.77715900  0.63956000  0.30612200  1
  Mg  Mg34  1  0.47993100  0.26781000  0.27232700  1
  Mg  Mg35  1  0.07438600  0.01131000  0.33991800  1
  Mg  Mg36  1  0.57438600  0.01131000  0.33991800  1
  Mg  Mg37  1  0.97993100  0.26781000  0.27232700  1
  In  In38  1  0.74558000  0.86225900  0.64658100  1
  In  In39  1  0.02302300  0.27400400  0.67995000  1
  In  In40  1  0.59764400  0.05014200  0.75457000  1
  In  In41  1  0.31381600  0.65755000  0.71481700  1
  In  In42  1  0.60272300  0.29083100  0.50372400  1
  In  In43  1  0.88016600  0.70257500  0.53709200  1
  In  In44  1  0.45478700  0.47871300  0.61171300  1
  In  In45  1  0.17095900  0.08612100  0.57196000  1
  In  In46  1  0.45986600  0.71940200  0.36086700  1
  In  In47  1  0.73730900  0.13114700  0.39423500  1
  In  In48  1  0.31193000  0.90728500  0.46885600  1
  In  In49  1  0.02810200  0.51469300  0.42910300  1
  In  In50  1  0.16907300  0.33585600  0.32599900  1
  In  In51  1  0.88524500  0.94326400  0.28624600  1
