# generated using pymatgen
data_HoMg5
_symmetry_space_group_name_H-M   'P 1'
_cell_length_a   3.64999800
_cell_length_b   15.59329701
_cell_length_c   41.94415300
_cell_angle_alpha   99.62466857
_cell_angle_beta   90.00000000
_cell_angle_gamma   90.00000000
_symmetry_Int_Tables_number   1
_chemical_formula_structural   HoMg5
_chemical_formula_sum   'Ho10 Mg50'
_cell_volume   2353.66965587
_cell_formula_units_Z   10
loop_
 _symmetry_equiv_pos_site_id
 _symmetry_equiv_pos_as_xyz
  1  'x, y, z'
loop_
 _atom_site_type_symbol
 _atom_site_label
 _atom_site_symmetry_multiplicity
 _atom_site_fract_x
 _atom_site_fract_y
 _atom_site_fract_z
 _atom_site_occupancy
  Ho  Ho0  1  0.50000000  0.09484900  0.21875000  1
  Ho  Ho1  1  1.00000000  0.78234900  0.28125000  1
  Ho  Ho2  1  0.50000000  0.46984900  0.34375000  1
  Ho  Ho3  1  1.00000000  0.15734900  0.40625000  1
  Ho  Ho4  1  0.50000000  0.84484900  0.46875000  1
  Ho  Ho5  1  1.00000000  0.53234900  0.53125000  1
  Ho  Ho6  1  0.50000000  0.21984900  0.59375000  1
  Ho  Ho7  1  1.00000000  0.90734900  0.65625000  1
  Ho  Ho8  1  0.50000000  0.59484900  0.71875000  1
  Ho  Ho9  1  1.00000000  0.28234900  0.78125000  1
  Mg  Mg10  1  0.50000000  0.60753300  0.28198300  1
  Mg  Mg11  1  1.00000000  0.44740600  0.27891000  1
  Mg  Mg12  1  0.50000000  0.28234900  0.28125000  1
  Mg  Mg13  1  0.50000000  0.42979200  0.22109000  1
  Mg  Mg14  1  1.00000000  0.26966600  0.21801700  1
  Mg  Mg15  1  1.00000000  0.92003300  0.21948300  1
  Mg  Mg16  1  0.50000000  0.75990600  0.21641000  1
  Mg  Mg17  1  0.00000000  0.59484900  0.21875000  1
  Mg  Mg18  1  1.00000000  0.11729200  0.28359000  1
  Mg  Mg19  1  0.50000000  0.95716600  0.28051700  1
  Mg  Mg20  1  0.50000000  0.98253300  0.40698300  1
  Mg  Mg21  1  1.00000000  0.82240600  0.40391000  1
  Mg  Mg22  1  0.50000000  0.65734900  0.40625000  1
  Mg  Mg23  1  0.50000000  0.80479200  0.34609000  1
  Mg  Mg24  1  1.00000000  0.64466600  0.34301700  1
  Mg  Mg25  1  1.00000000  0.29503300  0.34448300  1
  Mg  Mg26  1  0.50000000  0.13490600  0.34141000  1
  Mg  Mg27  1  1.00000000  0.96984900  0.34375000  1
  Mg  Mg28  1  1.00000000  0.49229200  0.40859000  1
  Mg  Mg29  1  0.50000000  0.33216600  0.40551700  1
  Mg  Mg30  1  0.50000000  0.35753300  0.53198300  1
  Mg  Mg31  1  1.00000000  0.19740600  0.52891000  1
  Mg  Mg32  1  0.50000000  0.03234900  0.53125000  1
  Mg  Mg33  1  0.50000000  0.17979200  0.47109000  1
  Mg  Mg34  1  1.00000000  0.01966600  0.46801700  1
  Mg  Mg35  1  1.00000000  0.67003300  0.46948300  1
  Mg  Mg36  1  0.50000000  0.50990600  0.46641000  1
  Mg  Mg37  1  1.00000000  0.34484900  0.46875000  1
  Mg  Mg38  1  1.00000000  0.86729200  0.53359000  1
  Mg  Mg39  1  0.50000000  0.70716600  0.53051700  1
  Mg  Mg40  1  0.50000000  0.73253300  0.65698300  1
  Mg  Mg41  1  0.00000000  0.57240600  0.65391000  1
  Mg  Mg42  1  0.50000000  0.40734900  0.65625000  1
  Mg  Mg43  1  0.50000000  0.55479200  0.59609000  1
  Mg  Mg44  1  1.00000000  0.39466600  0.59301700  1
  Mg  Mg45  1  1.00000000  0.04503300  0.59448300  1
  Mg  Mg46  1  0.50000000  0.88490600  0.59141000  1
  Mg  Mg47  1  1.00000000  0.71984900  0.59375000  1
  Mg  Mg48  1  0.00000000  0.24229200  0.65859000  1
  Mg  Mg49  1  0.50000000  0.08216600  0.65551700  1
  Mg  Mg50  1  0.50000000  0.10753300  0.78198300  1
  Mg  Mg51  1  1.00000000  0.94740600  0.77891000  1
  Mg  Mg52  1  0.50000000  0.78234900  0.78125000  1
  Mg  Mg53  1  0.50000000  0.92979200  0.72109000  1
  Mg  Mg54  1  1.00000000  0.76966600  0.71801700  1
  Mg  Mg55  1  1.00000000  0.42003300  0.71948300  1
  Mg  Mg56  1  0.50000000  0.25990600  0.71641000  1
  Mg  Mg57  1  1.00000000  0.09484900  0.71875000  1
  Mg  Mg58  1  1.00000000  0.61729200  0.78359000  1
  Mg  Mg59  1  0.50000000  0.45716600  0.78051700  1
