# generated using pymatgen
data_Mg24Si13
_symmetry_space_group_name_H-M   'P 1'
_cell_length_a   7.16868100
_cell_length_b   7.16868087
_cell_length_c   61.70781200
_cell_angle_alpha   90.00000000
_cell_angle_beta   90.00000000
_cell_angle_gamma   119.99999597
_symmetry_Int_Tables_number   1
_chemical_formula_structural   Mg24Si13
_chemical_formula_sum   'Mg48 Si26'
_cell_volume   2746.30836400
_cell_formula_units_Z   2
loop_
 _symmetry_equiv_pos_site_id
 _symmetry_equiv_pos_as_xyz
  1  'x, y, z'
loop_
 _atom_site_type_symbol
 _atom_site_label
 _atom_site_symmetry_multiplicity
 _atom_site_fract_x
 _atom_site_fract_y
 _atom_site_fract_z
 _atom_site_occupancy
  Mg  Mg0  1  0.67906600  0.08440000  0.38087700  1
  Mg  Mg1  1  0.59466600  0.67906600  0.28087700  1
  Mg  Mg2  1  0.08440000  0.40533400  0.28087700  1
  Mg  Mg3  1  0.91560000  0.59466600  0.38087700  1
  Mg  Mg4  1  0.40533400  0.32093400  0.38087700  1
  Mg  Mg5  1  0.32093400  0.91560000  0.28087700  1
  Mg  Mg6  1  0.32093400  0.91560000  0.34769400  1
  Mg  Mg7  1  0.40533400  0.32093400  0.24769400  1
  Mg  Mg8  1  0.91560000  0.59466600  0.24769400  1
  Mg  Mg9  1  0.08440000  0.40533400  0.34769400  1
  Mg  Mg10  1  0.59466600  0.67906600  0.34769400  1
  Mg  Mg11  1  0.67906600  0.08440000  0.24769400  1
  Mg  Mg12  1  0.72620500  0.07221300  0.31428600  1
  Mg  Mg13  1  0.65399200  0.72620500  0.21428600  1
  Mg  Mg14  1  0.07221300  0.34600800  0.21428600  1
  Mg  Mg15  1  0.92778700  0.65399200  0.31428600  1
  Mg  Mg16  1  0.34600800  0.27379500  0.31428600  1
  Mg  Mg17  1  0.27379500  0.92778700  0.21428600  1
  Mg  Mg18  1  0.67906600  0.08440000  0.58087700  1
  Mg  Mg19  1  0.59466600  0.67906600  0.48087700  1
  Mg  Mg20  1  0.08440000  0.40533400  0.48087700  1
  Mg  Mg21  1  0.91560000  0.59466600  0.58087700  1
  Mg  Mg22  1  0.40533400  0.32093400  0.58087700  1
  Mg  Mg23  1  0.32093400  0.91560000  0.48087700  1
  Mg  Mg24  1  0.32093400  0.91560000  0.54769400  1
  Mg  Mg25  1  0.40533400  0.32093400  0.44769400  1
  Mg  Mg26  1  0.91560000  0.59466600  0.44769400  1
  Mg  Mg27  1  0.08440000  0.40533400  0.54769400  1
  Mg  Mg28  1  0.59466600  0.67906600  0.54769400  1
  Mg  Mg29  1  0.67906600  0.08440000  0.44769400  1
  Mg  Mg30  1  0.72620500  0.07221300  0.51428600  1
  Mg  Mg31  1  0.65399200  0.72620500  0.41428600  1
  Mg  Mg32  1  0.07221300  0.34600800  0.41428600  1
  Mg  Mg33  1  0.92778700  0.65399200  0.51428600  1
  Mg  Mg34  1  0.34600800  0.27379500  0.51428600  1
  Mg  Mg35  1  0.27379500  0.92778700  0.41428600  1
  Mg  Mg36  1  0.59466600  0.67906600  0.68087700  1
  Mg  Mg37  1  0.08440000  0.40533400  0.68087700  1
  Mg  Mg38  1  0.32093400  0.91560000  0.68087700  1
  Mg  Mg39  1  0.40533400  0.32093400  0.64769400  1
  Mg  Mg40  1  0.91560000  0.59466600  0.64769400  1
  Mg  Mg41  1  0.67906600  0.08440000  0.64769400  1
  Mg  Mg42  1  0.72620500  0.07221300  0.71428600  1
  Mg  Mg43  1  0.65399200  0.72620500  0.61428600  1
  Mg  Mg44  1  0.07221300  0.34600800  0.61428600  1
  Mg  Mg45  1  0.92778700  0.65399200  0.71428600  1
  Mg  Mg46  1  0.34600800  0.27379500  0.71428600  1
  Mg  Mg47  1  0.27379500  0.92778700  0.61428600  1
  Si  Si48  1  0.00000000  0.00000000  0.34423400  1
  Si  Si49  1  0.00000000  0.00000000  0.24423400  1
  Si  Si50  1  0.00000000  0.00000000  0.38433700  1
  Si  Si51  1  0.00000000  0.00000000  0.28433700  1
  Si  Si52  1  0.33333300  0.66666700  0.31428600  1
  Si  Si53  1  0.66666700  0.33333300  0.21428600  1
  Si  Si54  1  0.66666700  0.33333300  0.28177900  1
  Si  Si55  1  0.33333300  0.66666700  0.38177900  1
  Si  Si56  1  0.33333300  0.66666700  0.24679300  1
  Si  Si57  1  0.66666700  0.33333300  0.34679300  1
  Si  Si58  1  0.00000000  0.00000000  0.54423400  1
  Si  Si59  1  0.00000000  0.00000000  0.44423400  1
  Si  Si60  1  0.00000000  0.00000000  0.58433700  1
  Si  Si61  1  0.00000000  0.00000000  0.48433700  1
  Si  Si62  1  0.33333300  0.66666700  0.51428600  1
  Si  Si63  1  0.66666700  0.33333300  0.41428600  1
  Si  Si64  1  0.66666700  0.33333300  0.48177900  1
  Si  Si65  1  0.33333300  0.66666700  0.58177900  1
  Si  Si66  1  0.33333300  0.66666700  0.44679300  1
  Si  Si67  1  0.66666700  0.33333300  0.54679300  1
  Si  Si68  1  0.00000000  0.00000000  0.64423400  1
  Si  Si69  1  0.00000000  0.00000000  0.68433700  1
  Si  Si70  1  0.33333300  0.66666700  0.71428600  1
  Si  Si71  1  0.66666700  0.33333300  0.61428600  1
  Si  Si72  1  0.66666700  0.33333300  0.68177900  1
  Si  Si73  1  0.33333300  0.66666700  0.64679300  1
