# generated using pymatgen
data_Mg9Cd4
_symmetry_space_group_name_H-M   'P 1'
_cell_length_a   5.19055600
_cell_length_b   8.21260619
_cell_length_c   43.56977800
_cell_angle_alpha   89.52418583
_cell_angle_beta   90.00000000
_cell_angle_gamma   90.00000000
_symmetry_Int_Tables_number   1
_chemical_formula_structural   Mg9Cd4
_chemical_formula_sum   'Mg36 Cd16'
_cell_volume   1857.22811882
_cell_formula_units_Z   4
loop_
 _symmetry_equiv_pos_site_id
 _symmetry_equiv_pos_as_xyz
  1  'x, y, z'
loop_
 _atom_site_type_symbol
 _atom_site_label
 _atom_site_symmetry_multiplicity
 _atom_site_fract_x
 _atom_site_fract_y
 _atom_site_fract_z
 _atom_site_occupancy
  Mg  Mg0  1  0.25000000  0.04739900  0.80160500  1
  Mg  Mg1  1  0.25000000  0.68513400  0.77798500  1
  Mg  Mg2  1  0.75000000  0.62490300  0.81725300  1
  Mg  Mg3  1  0.75000000  0.26263800  0.79363300  1
  Mg  Mg4  1  0.25000000  0.97597100  0.73017600  1
  Mg  Mg5  1  0.25000000  0.61370600  0.70655700  1
  Mg  Mg6  1  0.75000000  0.55347400  0.74582400  1
  Mg  Mg7  1  0.75000000  0.19121000  0.72220500  1
  Mg  Mg8  1  0.25000000  0.90454200  0.65874800  1
  Mg  Mg9  1  0.25000000  0.54227700  0.63512800  1
  Mg  Mg10  1  0.75000000  0.48204600  0.67439600  1
  Mg  Mg11  1  0.75000000  0.11978100  0.65077600  1
  Mg  Mg12  1  0.25000000  0.83311400  0.58731900  1
  Mg  Mg13  1  0.25000000  0.47084900  0.56369900  1
  Mg  Mg14  1  0.75000000  0.41061700  0.60296700  1
  Mg  Mg15  1  0.75000000  0.04835300  0.57934700  1
  Mg  Mg16  1  0.25000000  0.76168500  0.51589100  1
  Mg  Mg17  1  0.25000000  0.39942000  0.49227100  1
  Mg  Mg18  1  0.75000000  0.33918900  0.53153900  1
  Mg  Mg19  1  0.75000000  0.97692400  0.50791900  1
  Mg  Mg20  1  0.25000000  0.69025600  0.44446200  1
  Mg  Mg21  1  0.25000000  0.32799200  0.42084200  1
  Mg  Mg22  1  0.75000000  0.26776000  0.46011000  1
  Mg  Mg23  1  0.75000000  0.90549500  0.43649000  1
  Mg  Mg24  1  0.25000000  0.61882800  0.37303400  1
  Mg  Mg25  1  0.25000000  0.25656300  0.34941400  1
  Mg  Mg26  1  0.75000000  0.19633200  0.38868200  1
  Mg  Mg27  1  0.75000000  0.83406700  0.36506200  1
  Mg  Mg28  1  0.25000000  0.54739900  0.30160500  1
  Mg  Mg29  1  0.25000000  0.18513400  0.27798500  1
  Mg  Mg30  1  0.75000000  0.12490300  0.31725300  1
  Mg  Mg31  1  0.75000000  0.76263800  0.29363300  1
  Mg  Mg32  1  0.25000000  0.47597100  0.23017600  1
  Mg  Mg33  1  0.25000000  0.11370600  0.20655700  1
  Mg  Mg34  1  0.75000000  0.05347400  0.24582400  1
  Mg  Mg35  1  0.75000000  0.69121000  0.22220500  1
  Cd  Cd36  1  0.25000000  0.33492600  0.75391900  1
  Cd  Cd37  1  0.75000000  0.90368300  0.76989100  1
  Cd  Cd38  1  0.25000000  0.26349700  0.68249000  1
  Cd  Cd39  1  0.75000000  0.83225500  0.69846200  1
  Cd  Cd40  1  0.25000000  0.19206900  0.61106200  1
  Cd  Cd41  1  0.75000000  0.76082600  0.62703400  1
  Cd  Cd42  1  0.25000000  0.12064000  0.53963300  1
  Cd  Cd43  1  0.75000000  0.68939700  0.55560500  1
  Cd  Cd44  1  0.25000000  0.04921100  0.46820500  1
  Cd  Cd45  1  0.75000000  0.61796900  0.48417600  1
  Cd  Cd46  1  0.25000000  0.97778300  0.39677600  1
  Cd  Cd47  1  0.75000000  0.54654000  0.41274800  1
  Cd  Cd48  1  0.25000000  0.90635400  0.32534700  1
  Cd  Cd49  1  0.75000000  0.47511200  0.34131900  1
  Cd  Cd50  1  0.25000000  0.83492600  0.25391900  1
  Cd  Cd51  1  0.75000000  0.40368300  0.26989100  1
