# generated using pymatgen
data_Tb34Mg71
_symmetry_space_group_name_H-M   'P 1'
_cell_length_a   10.53517100
_cell_length_b   11.52336579
_cell_length_c   43.68781600
_cell_angle_alpha   93.83792519
_cell_angle_beta   90.00000000
_cell_angle_gamma   62.79843814
_symmetry_Int_Tables_number   1
_chemical_formula_structural   Tb34Mg71
_chemical_formula_sum   'Tb34 Mg71'
_cell_volume   4703.77950076
_cell_formula_units_Z   1
loop_
 _symmetry_equiv_pos_site_id
 _symmetry_equiv_pos_as_xyz
  1  'x, y, z'
loop_
 _atom_site_type_symbol
 _atom_site_label
 _atom_site_symmetry_multiplicity
 _atom_site_fract_x
 _atom_site_fract_y
 _atom_site_fract_z
 _atom_site_occupancy
  Tb  Tb0  1  0.14701000  0.53600400  0.22917500  1
  Tb  Tb1  1  0.24701000  0.00267000  0.26250800  1
  Tb  Tb2  1  0.53879000  0.41911100  0.22082500  1
  Tb  Tb3  1  0.97212300  0.88577700  0.25415900  1
  Tb  Tb4  1  0.68034300  0.46933700  0.29584100  1
  Tb  Tb5  1  0.78034300  0.93600400  0.32917500  1
  Tb  Tb6  1  0.07212300  0.35244400  0.28749200  1
  Tb  Tb7  1  0.50545600  0.81911100  0.32082500  1
  Tb  Tb8  1  0.21367700  0.40267000  0.36250800  1
  Tb  Tb9  1  0.31367700  0.86933700  0.39584100  1
  Tb  Tb10  1  0.60545600  0.28577700  0.35415900  1
  Tb  Tb11  1  0.03879000  0.75244400  0.38749200  1
  Tb  Tb12  1  0.74701000  0.33600400  0.42917500  1
  Tb  Tb13  1  0.84701000  0.80267000  0.46250800  1
  Tb  Tb14  1  0.13879000  0.21911100  0.42082500  1
  Tb  Tb15  1  0.57212300  0.68577700  0.45415900  1
  Tb  Tb16  1  0.28034300  0.26933700  0.49584100  1
  Tb  Tb17  1  0.38034300  0.73600400  0.52917500  1
  Tb  Tb18  1  0.67212300  0.15244400  0.48749200  1
  Tb  Tb19  1  0.10545600  0.61911100  0.52082500  1
  Tb  Tb20  1  0.81367700  0.20267000  0.56250800  1
  Tb  Tb21  1  0.91367700  0.66933700  0.59584100  1
  Tb  Tb22  1  0.20545600  0.08577700  0.55415900  1
  Tb  Tb23  1  0.63879000  0.55244400  0.58749200  1
  Tb  Tb24  1  0.34701000  0.13600400  0.62917500  1
  Tb  Tb25  1  0.44701000  0.60267000  0.66250800  1
  Tb  Tb26  1  0.73879000  0.01911100  0.62082500  1
  Tb  Tb27  1  0.17212300  0.48577700  0.65415900  1
  Tb  Tb28  1  0.88034300  0.06933700  0.69584100  1
  Tb  Tb29  1  0.98034300  0.53600400  0.72917500  1
  Tb  Tb30  1  0.27212300  0.95244400  0.68749200  1
  Tb  Tb31  1  0.70545600  0.41911100  0.72082500  1
  Tb  Tb32  1  0.41367700  0.00267000  0.76250800  1
  Tb  Tb33  1  0.80545600  0.88577700  0.75415900  1
  Mg  Mg34  1  0.84290000  0.47755700  0.22500000  1
  Mg  Mg35  1  0.60956700  0.94422400  0.25833300  1
  Mg  Mg36  1  0.79477900  0.74516300  0.20739400  1
  Mg  Mg37  1  0.39008100  0.21183000  0.24072700  1
  Mg  Mg38  1  0.13093100  0.24422400  0.20833300  1
  Mg  Mg39  1  0.55486900  0.71089000  0.24166700  1
  Mg  Mg40  1  0.29571800  0.74328400  0.20927300  1
  Mg  Mg41  1  0.89102100  0.20995100  0.24260600  1
  Mg  Mg42  1  0.37623300  0.41089000  0.29166700  1
  Mg  Mg43  1  0.14290000  0.87755700  0.32500000  1
  Mg  Mg44  1  0.32811200  0.67849700  0.27406000  1
  Mg  Mg45  1  0.92341500  0.14516300  0.30739400  1
  Mg  Mg46  1  0.66426400  0.17755700  0.27500000  1
  Mg  Mg47  1  0.08820200  0.64422400  0.30833300  1
  Mg  Mg48  1  0.82905200  0.67661800  0.27594000  1
  Mg  Mg49  1  0.42435400  0.14328400  0.30927300  1
  Mg  Mg50  1  0.90956700  0.34422400  0.35833300  1
  Mg  Mg51  1  0.67623300  0.81089000  0.39166700  1
  Mg  Mg52  1  0.86144600  0.61183000  0.34072700  1
  Mg  Mg53  1  0.45674800  0.07849700  0.37406000  1
  Mg  Mg54  1  0.19759700  0.11089000  0.34166700  1
  Mg  Mg55  1  0.62153600  0.57755700  0.37500000  1
  Mg  Mg56  1  0.36238500  0.60995100  0.34260600  1
  Mg  Mg57  1  0.95768800  0.07661800  0.37594000  1
  Mg  Mg58  1  0.44290000  0.27755700  0.42500000  1
  Mg  Mg59  1  0.20956700  0.74422400  0.45833300  1
  Mg  Mg60  1  0.39477900  0.54516300  0.40739400  1
  Mg  Mg61  1  0.99008100  0.01183000  0.44072700  1
  Mg  Mg62  1  0.73093100  0.04422400  0.40833300  1
  Mg  Mg63  1  0.15486900  0.51089000  0.44166700  1
  Mg  Mg64  1  0.89571800  0.54328400  0.40927300  1
  Mg  Mg65  1  0.49102100  0.00995100  0.44260600  1
  Mg  Mg66  1  0.97623300  0.21089000  0.49166700  1
  Mg  Mg67  1  0.74290000  0.67755700  0.52500000  1
  Mg  Mg68  1  0.92811200  0.47849700  0.47406000  1
  Mg  Mg69  1  0.52341500  0.94516300  0.50739400  1
  Mg  Mg70  1  0.26426400  0.97755700  0.47500000  1
  Mg  Mg71  1  0.68820200  0.44422400  0.50833300  1
  Mg  Mg72  1  0.42905200  0.47661800  0.47594000  1
  Mg  Mg73  1  0.02435400  0.94328400  0.50927300  1
  Mg  Mg74  1  0.50956700  0.14422400  0.55833300  1
  Mg  Mg75  1  0.27623300  0.61089000  0.59166700  1
  Mg  Mg76  1  0.46144600  0.41183000  0.54072700  1
  Mg  Mg77  1  0.05674800  0.87849700  0.57406000  1
  Mg  Mg78  1  0.79759700  0.91089000  0.54166700  1
  Mg  Mg79  1  0.22153600  0.37755700  0.57500000  1
  Mg  Mg80  1  0.96238500  0.40995100  0.54260600  1
  Mg  Mg81  1  0.55768800  0.87661800  0.57594000  1
  Mg  Mg82  1  0.04290000  0.07755700  0.62500000  1
  Mg  Mg83  1  0.80956700  0.54422400  0.65833300  1
  Mg  Mg84  1  0.99477900  0.34516300  0.60739400  1
  Mg  Mg85  1  0.59008100  0.81183000  0.64072700  1
  Mg  Mg86  1  0.33093100  0.84422400  0.60833300  1
  Mg  Mg87  1  0.75486900  0.31089000  0.64166700  1
  Mg  Mg88  1  0.49571800  0.34328400  0.60927300  1
  Mg  Mg89  1  0.09102100  0.80995100  0.64260600  1
  Mg  Mg90  1  0.57623300  0.01089000  0.69166700  1
  Mg  Mg91  1  0.34290000  0.47755700  0.72500000  1
  Mg  Mg92  1  0.52811200  0.27849700  0.67406000  1
  Mg  Mg93  1  0.12341500  0.74516300  0.70739400  1
  Mg  Mg94  1  0.86426400  0.77755700  0.67500000  1
  Mg  Mg95  1  0.28820200  0.24422400  0.70833300  1
  Mg  Mg96  1  0.02905200  0.27661800  0.67594000  1
  Mg  Mg97  1  0.62435400  0.74328400  0.70927300  1
  Mg  Mg98  1  0.10956700  0.94422400  0.75833300  1
  Mg  Mg99  1  0.06144600  0.21183000  0.74072700  1
  Mg  Mg100  1  0.65674800  0.67849700  0.77406000  1
  Mg  Mg101  1  0.39759700  0.71089000  0.74166700  1
  Mg  Mg102  1  0.82153600  0.17755700  0.77500000  1
  Mg  Mg103  1  0.56238500  0.20995100  0.74260600  1
  Mg  Mg104  1  0.15768800  0.67661800  0.77594000  1
