# generated using pymatgen
data_La11Mg136
_symmetry_space_group_name_H-M   'P 1'
_cell_length_a   11.92732881
_cell_length_b   11.92732880
_cell_length_c   46.09632100
_cell_angle_alpha   89.73063412
_cell_angle_beta   90.26936588
_cell_angle_gamma   104.34315546
_symmetry_Int_Tables_number   1
_chemical_formula_structural   La11Mg136
_chemical_formula_sum   'La11 Mg136'
_cell_volume   6353.19626827
_cell_formula_units_Z   1
loop_
 _symmetry_equiv_pos_site_id
 _symmetry_equiv_pos_as_xyz
  1  'x, y, z'
loop_
 _atom_site_type_symbol
 _atom_site_label
 _atom_site_symmetry_multiplicity
 _atom_site_fract_x
 _atom_site_fract_y
 _atom_site_fract_z
 _atom_site_occupancy
  La  La0  1  0.15360000  0.84640000  0.28269200  1
  La  La1  1  0.55360000  0.44640000  0.23269200  1
  La  La2  1  0.35360000  0.64640000  0.38269200  1
  La  La3  1  0.75360000  0.24640000  0.33269200  1
  La  La4  1  0.55360000  0.44640000  0.48269200  1
  La  La5  1  0.95360000  0.04640000  0.43269200  1
  La  La6  1  0.75360000  0.24640000  0.58269200  1
  La  La7  1  0.15360000  0.84640000  0.53269200  1
  La  La8  1  0.95360000  0.04640000  0.68269200  1
  La  La9  1  0.35360000  0.64640000  0.63269200  1
  La  La10  1  0.55360000  0.44640000  0.73269200  1
  Mg  Mg11  1  0.85360000  0.14640000  0.25769200  1
  Mg  Mg12  1  0.75360000  0.24640000  0.20769200  1
  Mg  Mg13  1  0.25360000  0.24640000  0.20769200  1
  Mg  Mg14  1  0.35360000  0.14640000  0.25769200  1
  Mg  Mg15  1  0.02418200  0.32872700  0.21798300  1
  Mg  Mg16  1  0.08301800  0.56407400  0.24740100  1
  Mg  Mg17  1  0.03592600  0.31698200  0.29740100  1
  Mg  Mg18  1  0.27127300  0.37581800  0.26798300  1
  Mg  Mg19  1  0.01080000  0.77519900  0.21129200  1
  Mg  Mg20  1  0.09640000  0.11760100  0.25409200  1
  Mg  Mg21  1  0.48239900  0.30360000  0.30409200  1
  Mg  Mg22  1  0.82480100  0.38920000  0.26129200  1
  Mg  Mg23  1  0.25360000  0.74640000  0.20769200  1
  Mg  Mg24  1  0.35360000  0.64640000  0.25769200  1
  Mg  Mg25  1  0.85360000  0.64640000  0.25769200  1
  Mg  Mg26  1  0.75360000  0.74640000  0.20769200  1
  Mg  Mg27  1  0.62418200  0.72872700  0.26798300  1
  Mg  Mg28  1  0.68301800  0.96407400  0.29740100  1
  Mg  Mg29  1  0.43592600  0.91698200  0.24740100  1
  Mg  Mg30  1  0.67127300  0.97581800  0.21798300  1
  Mg  Mg31  1  0.61080000  0.17519900  0.26129200  1
  Mg  Mg32  1  0.69640000  0.51760100  0.30409200  1
  Mg  Mg33  1  0.88239900  0.90360000  0.25409200  1
  Mg  Mg34  1  0.22480100  0.98920000  0.21129200  1
  Mg  Mg35  1  0.05360000  0.94640000  0.35769200  1
  Mg  Mg36  1  0.95360000  0.04640000  0.30769200  1
  Mg  Mg37  1  0.45360000  0.04640000  0.30769200  1
  Mg  Mg38  1  0.55360000  0.94640000  0.35769200  1
  Mg  Mg39  1  0.22418200  0.12872700  0.31798300  1
  Mg  Mg40  1  0.28301800  0.36407400  0.34740100  1
  Mg  Mg41  1  0.23592600  0.11698200  0.39740100  1
  Mg  Mg42  1  0.47127300  0.17581800  0.36798300  1
  Mg  Mg43  1  0.21080000  0.57519900  0.31129200  1
  Mg  Mg44  1  0.29640000  0.91760100  0.35409200  1
  Mg  Mg45  1  0.68239900  0.10360000  0.40409200  1
  Mg  Mg46  1  0.02480100  0.18920000  0.36129200  1
  Mg  Mg47  1  0.45360000  0.54640000  0.30769200  1
  Mg  Mg48  1  0.55360000  0.44640000  0.35769200  1
  Mg  Mg49  1  0.05360000  0.44640000  0.35769200  1
  Mg  Mg50  1  0.95360000  0.54640000  0.30769200  1
  Mg  Mg51  1  0.82418200  0.52872700  0.36798300  1
  Mg  Mg52  1  0.88301800  0.76407400  0.39740100  1
  Mg  Mg53  1  0.63592600  0.71698200  0.34740100  1
  Mg  Mg54  1  0.87127300  0.77581800  0.31798300  1
  Mg  Mg55  1  0.81080000  0.97519900  0.36129200  1
  Mg  Mg56  1  0.89640000  0.31760100  0.40409200  1
  Mg  Mg57  1  0.08239900  0.70360000  0.35409200  1
  Mg  Mg58  1  0.42480100  0.78920000  0.31129200  1
  Mg  Mg59  1  0.25360000  0.74640000  0.45769200  1
  Mg  Mg60  1  0.15360000  0.84640000  0.40769200  1
  Mg  Mg61  1  0.65360000  0.84640000  0.40769200  1
  Mg  Mg62  1  0.75360000  0.74640000  0.45769200  1
  Mg  Mg63  1  0.42418200  0.92872700  0.41798300  1
  Mg  Mg64  1  0.48301800  0.16407400  0.44740100  1
  Mg  Mg65  1  0.43592600  0.91698200  0.49740100  1
  Mg  Mg66  1  0.67127300  0.97581800  0.46798300  1
  Mg  Mg67  1  0.41080000  0.37519900  0.41129200  1
  Mg  Mg68  1  0.49640000  0.71760100  0.45409200  1
  Mg  Mg69  1  0.88239900  0.90360000  0.50409200  1
  Mg  Mg70  1  0.22480100  0.98920000  0.46129200  1
  Mg  Mg71  1  0.65360000  0.34640000  0.40769200  1
  Mg  Mg72  1  0.75360000  0.24640000  0.45769200  1
  Mg  Mg73  1  0.25360000  0.24640000  0.45769200  1
  Mg  Mg74  1  0.15360000  0.34640000  0.40769200  1
  Mg  Mg75  1  0.02418200  0.32872700  0.46798300  1
  Mg  Mg76  1  0.08301800  0.56407400  0.49740100  1
  Mg  Mg77  1  0.83592600  0.51698200  0.44740100  1
  Mg  Mg78  1  0.07127300  0.57581800  0.41798300  1
  Mg  Mg79  1  0.01080000  0.77519900  0.46129200  1
  Mg  Mg80  1  0.09640000  0.11760100  0.50409200  1
  Mg  Mg81  1  0.28239900  0.50360000  0.45409200  1
  Mg  Mg82  1  0.62480100  0.58920000  0.41129200  1
  Mg  Mg83  1  0.45360000  0.54640000  0.55769200  1
  Mg  Mg84  1  0.35360000  0.64640000  0.50769200  1
  Mg  Mg85  1  0.85360000  0.64640000  0.50769200  1
  Mg  Mg86  1  0.95360000  0.54640000  0.55769200  1
  Mg  Mg87  1  0.62418200  0.72872700  0.51798300  1
  Mg  Mg88  1  0.68301800  0.96407400  0.54740100  1
  Mg  Mg89  1  0.63592600  0.71698200  0.59740100  1
  Mg  Mg90  1  0.87127300  0.77581800  0.56798300  1
  Mg  Mg91  1  0.61080000  0.17519900  0.51129200  1
  Mg  Mg92  1  0.69640000  0.51760100  0.55409200  1
  Mg  Mg93  1  0.08239900  0.70360000  0.60409200  1
  Mg  Mg94  1  0.42480100  0.78920000  0.56129200  1
  Mg  Mg95  1  0.85360000  0.14640000  0.50769200  1
  Mg  Mg96  1  0.95360000  0.04640000  0.55769200  1
  Mg  Mg97  1  0.45360000  0.04640000  0.55769200  1
  Mg  Mg98  1  0.35360000  0.14640000  0.50769200  1
  Mg  Mg99  1  0.22418200  0.12872700  0.56798300  1
  Mg  Mg100  1  0.28301800  0.36407400  0.59740100  1
  Mg  Mg101  1  0.03592600  0.31698200  0.54740100  1
  Mg  Mg102  1  0.27127300  0.37581800  0.51798300  1
  Mg  Mg103  1  0.21080000  0.57519900  0.56129200  1
  Mg  Mg104  1  0.29640000  0.91760100  0.60409200  1
  Mg  Mg105  1  0.48239900  0.30360000  0.55409200  1
  Mg  Mg106  1  0.82480100  0.38920000  0.51129200  1
  Mg  Mg107  1  0.65360000  0.34640000  0.65769200  1
  Mg  Mg108  1  0.55360000  0.44640000  0.60769200  1
  Mg  Mg109  1  0.05360000  0.44640000  0.60769200  1
  Mg  Mg110  1  0.15360000  0.34640000  0.65769200  1
  Mg  Mg111  1  0.82418200  0.52872700  0.61798300  1
  Mg  Mg112  1  0.88301800  0.76407400  0.64740100  1
  Mg  Mg113  1  0.83592600  0.51698200  0.69740100  1
  Mg  Mg114  1  0.07127300  0.57581800  0.66798300  1
  Mg  Mg115  1  0.81080000  0.97519900  0.61129200  1
  Mg  Mg116  1  0.89640000  0.31760100  0.65409200  1
  Mg  Mg117  1  0.28239900  0.50360000  0.70409200  1
  Mg  Mg118  1  0.62480100  0.58920000  0.66129200  1
  Mg  Mg119  1  0.05360000  0.94640000  0.60769200  1
  Mg  Mg120  1  0.15360000  0.84640000  0.65769200  1
  Mg  Mg121  1  0.65360000  0.84640000  0.65769200  1
  Mg  Mg122  1  0.55360000  0.94640000  0.60769200  1
  Mg  Mg123  1  0.42418200  0.92872700  0.66798300  1
  Mg  Mg124  1  0.48301800  0.16407400  0.69740100  1
  Mg  Mg125  1  0.23592600  0.11698200  0.64740100  1
  Mg  Mg126  1  0.47127300  0.17581800  0.61798300  1
  Mg  Mg127  1  0.41080000  0.37519900  0.66129200  1
  Mg  Mg128  1  0.49640000  0.71760100  0.70409200  1
  Mg  Mg129  1  0.68239900  0.10360000  0.65409200  1
  Mg  Mg130  1  0.02480100  0.18920000  0.61129200  1
  Mg  Mg131  1  0.85360000  0.14640000  0.75769200  1
  Mg  Mg132  1  0.75360000  0.24640000  0.70769200  1
  Mg  Mg133  1  0.25360000  0.24640000  0.70769200  1
  Mg  Mg134  1  0.35360000  0.14640000  0.75769200  1
  Mg  Mg135  1  0.02418200  0.32872700  0.71798300  1
  Mg  Mg136  1  0.08301800  0.56407400  0.74740100  1
  Mg  Mg137  1  0.01080000  0.77519900  0.71129200  1
  Mg  Mg138  1  0.09640000  0.11760100  0.75409200  1
  Mg  Mg139  1  0.25360000  0.74640000  0.70769200  1
  Mg  Mg140  1  0.35360000  0.64640000  0.75769200  1
  Mg  Mg141  1  0.85360000  0.64640000  0.75769200  1
  Mg  Mg142  1  0.75360000  0.74640000  0.70769200  1
  Mg  Mg143  1  0.43592600  0.91698200  0.74740100  1
  Mg  Mg144  1  0.67127300  0.97581800  0.71798300  1
  Mg  Mg145  1  0.88239900  0.90360000  0.75409200  1
  Mg  Mg146  1  0.22480100  0.98920000  0.71129200  1
