# generated using pymatgen
data_Mg3Bi2
_symmetry_space_group_name_H-M   'P 1'
_cell_length_a   8.19369232
_cell_length_b   8.82222126
_cell_length_c   43.07514200
_cell_angle_alpha   90.14909405
_cell_angle_beta   95.45760833
_cell_angle_gamma   62.33002037
_symmetry_Int_Tables_number   1
_chemical_formula_structural   Mg3Bi2
_chemical_formula_sum   'Mg36 Bi24'
_cell_volume   2742.10263200
_cell_formula_units_Z   12
loop_
 _symmetry_equiv_pos_site_id
 _symmetry_equiv_pos_as_xyz
  1  'x, y, z'
loop_
 _atom_site_type_symbol
 _atom_site_label
 _atom_site_symmetry_multiplicity
 _atom_site_fract_x
 _atom_site_fract_y
 _atom_site_fract_z
 _atom_site_occupancy
  Mg  Mg0  1  0.61290100  0.61425300  0.19093100  1
  Mg  Mg1  1  0.78947400  0.94736800  0.21052600  1
  Mg  Mg2  1  0.96604700  0.28048400  0.23012100  1
  Mg  Mg3  1  0.19184800  0.50898900  0.24356300  1
  Mg  Mg4  1  0.36842100  0.84210500  0.26315800  1
  Mg  Mg5  1  0.54499400  0.17522100  0.28275300  1
  Mg  Mg6  1  0.77079600  0.40372600  0.29619400  1
  Mg  Mg7  1  0.94736800  0.73684200  0.31578900  1
  Mg  Mg8  1  0.12394100  0.06995800  0.33538500  1
  Mg  Mg9  1  0.34974300  0.29846300  0.34882600  1
  Mg  Mg10  1  0.52631600  0.63157900  0.36842100  1
  Mg  Mg11  1  0.70288900  0.96469500  0.38801600  1
  Mg  Mg12  1  0.92869000  0.19320000  0.40145800  1
  Mg  Mg13  1  0.10526300  0.52631600  0.42105300  1
  Mg  Mg14  1  0.28183600  0.85943200  0.44064800  1
  Mg  Mg15  1  0.50763800  0.08793700  0.45408900  1
  Mg  Mg16  1  0.68421100  0.42105300  0.47368400  1
  Mg  Mg17  1  0.86078300  0.75416900  0.49327900  1
  Mg  Mg18  1  0.08658500  0.98267400  0.50672100  1
  Mg  Mg19  1  0.26315800  0.31578900  0.52631600  1
  Mg  Mg20  1  0.43973100  0.64890500  0.54591100  1
  Mg  Mg21  1  0.66553200  0.87741000  0.55935200  1
  Mg  Mg22  1  0.84210500  0.21052600  0.57894700  1
  Mg  Mg23  1  0.01867800  0.54364200  0.59854200  1
  Mg  Mg24  1  0.24448000  0.77214700  0.61198400  1
  Mg  Mg25  1  0.42105300  0.10526300  0.63157900  1
  Mg  Mg26  1  0.59762600  0.43837900  0.65117400  1
  Mg  Mg27  1  0.82342700  0.66688400  0.66461500  1
  Mg  Mg28  1  0.00000000  0.00000000  0.68421100  1
  Mg  Mg29  1  0.17657300  0.33311600  0.70380600  1
  Mg  Mg30  1  0.40237400  0.56162100  0.71724700  1
  Mg  Mg31  1  0.57894700  0.89473700  0.73684200  1
  Mg  Mg32  1  0.75552000  0.22785300  0.75643700  1
  Mg  Mg33  1  0.98132200  0.45635800  0.76987900  1
  Mg  Mg34  1  0.15789500  0.78947400  0.78947400  1
  Mg  Mg35  1  0.33446800  0.12259000  0.80906900  1
  Bi  Bi36  1  0.36349600  0.14423800  0.22210700  1
  Bi  Bi37  1  0.21545100  0.75049900  0.19894600  1
  Bi  Bi38  1  0.94244300  0.03897500  0.27473800  1
  Bi  Bi39  1  0.79439900  0.64523600  0.25157700  1
  Bi  Bi40  1  0.52139100  0.93371100  0.32737000  1
  Bi  Bi41  1  0.37334600  0.53997300  0.30420900  1
  Bi  Bi42  1  0.10033800  0.82844800  0.38000200  1
  Bi  Bi43  1  0.95229300  0.43471000  0.35684100  1
  Bi  Bi44  1  0.67928500  0.72318500  0.43263300  1
  Bi  Bi45  1  0.53124100  0.32944700  0.40947200  1
  Bi  Bi46  1  0.25823300  0.61792200  0.48526500  1
  Bi  Bi47  1  0.11018800  0.22418300  0.46210400  1
  Bi  Bi48  1  0.83718000  0.51265900  0.53789600  1
  Bi  Bi49  1  0.68913600  0.11892000  0.51473500  1
  Bi  Bi50  1  0.41612800  0.40739600  0.59052800  1
  Bi  Bi51  1  0.26808300  0.01365700  0.56736700  1
  Bi  Bi52  1  0.99507500  0.30213200  0.64315900  1
  Bi  Bi53  1  0.84703000  0.90839400  0.61999800  1
  Bi  Bi54  1  0.57402200  0.19686900  0.69579100  1
  Bi  Bi55  1  0.42597800  0.80313100  0.67263000  1
  Bi  Bi56  1  0.15297000  0.09160600  0.74842300  1
  Bi  Bi57  1  0.00492500  0.69786800  0.72526200  1
  Bi  Bi58  1  0.73191700  0.98634300  0.80105400  1
  Bi  Bi59  1  0.58387200  0.59260400  0.77789300  1
