# generated using pymatgen
data_Mg20Zn111
_symmetry_space_group_name_H-M   'P 1'
_cell_length_a   9.38239124
_cell_length_b   9.87228504
_cell_length_c   47.88422100
_cell_angle_alpha   93.42143374
_cell_angle_beta   90.35613488
_cell_angle_gamma   117.39448675
_symmetry_Int_Tables_number   1
_chemical_formula_structural   Mg20Zn111
_chemical_formula_sum   'Mg20 Zn111'
_cell_volume   3928.07221196
_cell_formula_units_Z   1
loop_
 _symmetry_equiv_pos_site_id
 _symmetry_equiv_pos_as_xyz
  1  'x, y, z'
loop_
 _atom_site_type_symbol
 _atom_site_label
 _atom_site_symmetry_multiplicity
 _atom_site_fract_x
 _atom_site_fract_y
 _atom_site_fract_z
 _atom_site_occupancy
  Mg  Mg0  1  0.52128400  0.35064500  0.69489300  1
  Mg  Mg1  1  0.22493400  0.14179200  0.65094000  1
  Mg  Mg2  1  0.68016500  0.69460900  0.67578400  1
  Mg  Mg3  1  0.06605400  0.79782800  0.67004900  1
  Mg  Mg4  1  0.42128400  0.15064500  0.59489300  1
  Mg  Mg5  1  0.12493400  0.94179200  0.55094000  1
  Mg  Mg6  1  0.58016500  0.49460900  0.57578400  1
  Mg  Mg7  1  0.96605400  0.59782800  0.57004900  1
  Mg  Mg8  1  0.32128400  0.95064500  0.49489300  1
  Mg  Mg9  1  0.02493400  0.74179200  0.45094000  1
  Mg  Mg10  1  0.48016500  0.29460900  0.47578400  1
  Mg  Mg11  1  0.86605400  0.39782800  0.47004900  1
  Mg  Mg12  1  0.22128400  0.75064500  0.39489300  1
  Mg  Mg13  1  0.92493400  0.54179200  0.35094000  1
  Mg  Mg14  1  0.38016500  0.09460900  0.37578400  1
  Mg  Mg15  1  0.76605400  0.19782800  0.37004900  1
  Mg  Mg16  1  0.12128400  0.55064500  0.29489300  1
  Mg  Mg17  1  0.82493400  0.34179200  0.25094000  1
  Mg  Mg18  1  0.28016500  0.89460900  0.27578400  1
  Mg  Mg19  1  0.66605400  0.99782800  0.27004900  1
  Zn  Zn20  1  0.60667200  0.90607500  0.71959100  1
  Zn  Zn21  1  0.76869300  0.22399900  0.70192900  1
  Zn  Zn22  1  0.19446400  0.07521600  0.71019500  1
  Zn  Zn23  1  0.65175400  0.61722000  0.73563900  1
  Zn  Zn24  1  0.23954600  0.78636200  0.72624200  1
  Zn  Zn25  1  0.45813100  0.11856100  0.73524700  1
  Zn  Zn26  1  0.38808700  0.57387600  0.71058600  1
  Zn  Zn27  1  0.96023400  0.12750100  0.73536200  1
  Zn  Zn28  1  0.07752600  0.46843700  0.74390400  1
  Zn  Zn29  1  0.88598400  0.56493600  0.71047100  1
  Zn  Zn30  1  0.92310900  0.84621800  0.72291700  1
  Zn  Zn31  1  0.37310900  0.74621800  0.67291700  1
  Zn  Zn32  1  0.50667200  0.70607500  0.61959100  1
  Zn  Zn33  1  0.66869300  0.02399900  0.60192900  1
  Zn  Zn34  1  0.09446400  0.87521600  0.61019500  1
  Zn  Zn35  1  0.55175400  0.41722000  0.63563900  1
  Zn  Zn36  1  0.83651400  0.46599600  0.66100100  1
  Zn  Zn37  1  0.33751600  0.47273300  0.66001500  1
  Zn  Zn38  1  0.13954600  0.58636200  0.62624200  1
  Zn  Zn39  1  0.60681600  0.19207200  0.64814700  1
  Zn  Zn40  1  0.35813100  0.91856100  0.63524700  1
  Zn  Zn41  1  0.28808700  0.37387600  0.61058600  1
  Zn  Zn42  1  0.40870200  0.01970300  0.68581800  1
  Zn  Zn43  1  0.86023400  0.92750100  0.63536200  1
  Zn  Zn44  1  0.97752600  0.26843700  0.64390400  1
  Zn  Zn45  1  0.78598400  0.36493600  0.61047100  1
  Zn  Zn46  1  0.90970400  0.02644100  0.68483200  1
  Zn  Zn47  1  0.82310900  0.64621800  0.62291700  1
  Zn  Zn48  1  0.10578500  0.53092200  0.68487800  1
  Zn  Zn49  1  0.64043300  0.96151400  0.66095600  1
  Zn  Zn50  1  0.13940200  0.30036500  0.69768600  1
  Zn  Zn51  1  0.27310900  0.54621800  0.57291700  1
  Zn  Zn52  1  0.40667200  0.50607500  0.51959100  1
  Zn  Zn53  1  0.56869300  0.82399900  0.50192900  1
  Zn  Zn54  1  0.99446400  0.67521600  0.51019500  1
  Zn  Zn55  1  0.45175400  0.21722000  0.53563900  1
  Zn  Zn56  1  0.73651400  0.26599600  0.56100100  1
  Zn  Zn57  1  0.23751600  0.27273300  0.56001500  1
  Zn  Zn58  1  0.03954600  0.38636200  0.52624200  1
  Zn  Zn59  1  0.50681600  0.99207200  0.54814700  1
  Zn  Zn60  1  0.25813100  0.71856100  0.53524700  1
  Zn  Zn61  1  0.18808700  0.17387600  0.51058600  1
  Zn  Zn62  1  0.30870200  0.81970300  0.58581800  1
  Zn  Zn63  1  0.76023400  0.72750100  0.53536200  1
  Zn  Zn64  1  0.87752600  0.06843700  0.54390400  1
  Zn  Zn65  1  0.68598400  0.16493600  0.51047100  1
  Zn  Zn66  1  0.80970400  0.82644100  0.58483200  1
  Zn  Zn67  1  0.72310900  0.44621800  0.52291700  1
  Zn  Zn68  1  0.00578500  0.33092200  0.58487800  1
  Zn  Zn69  1  0.54043300  0.76151400  0.56095600  1
  Zn  Zn70  1  0.03940200  0.10036500  0.59768600  1
  Zn  Zn71  1  0.17310900  0.34621800  0.47291700  1
  Zn  Zn72  1  0.30667200  0.30607500  0.41959100  1
  Zn  Zn73  1  0.46869300  0.62399900  0.40192900  1
  Zn  Zn74  1  0.89446400  0.47521600  0.41019500  1
  Zn  Zn75  1  0.35175400  0.01722000  0.43563900  1
  Zn  Zn76  1  0.63651400  0.06599600  0.46100100  1
  Zn  Zn77  1  0.13751600  0.07273300  0.46001500  1
  Zn  Zn78  1  0.93954600  0.18636200  0.42624200  1
  Zn  Zn79  1  0.40681600  0.79207200  0.44814700  1
  Zn  Zn80  1  0.15813100  0.51856100  0.43524700  1
  Zn  Zn81  1  0.08808700  0.97387600  0.41058600  1
  Zn  Zn82  1  0.20870200  0.61970300  0.48581800  1
  Zn  Zn83  1  0.66023400  0.52750100  0.43536200  1
  Zn  Zn84  1  0.77752600  0.86843700  0.44390400  1
  Zn  Zn85  1  0.58598400  0.96493600  0.41047100  1
  Zn  Zn86  1  0.70970400  0.62644100  0.48483200  1
  Zn  Zn87  1  0.62310900  0.24621800  0.42291700  1
  Zn  Zn88  1  0.90578500  0.13092200  0.48487800  1
  Zn  Zn89  1  0.44043300  0.56151400  0.46095600  1
  Zn  Zn90  1  0.93940200  0.90036500  0.49768600  1
  Zn  Zn91  1  0.07310900  0.14621800  0.37291700  1
  Zn  Zn92  1  0.20667200  0.10607500  0.31959100  1
  Zn  Zn93  1  0.36869300  0.42399900  0.30192900  1
  Zn  Zn94  1  0.79446400  0.27521600  0.31019500  1
  Zn  Zn95  1  0.25175400  0.81722000  0.33563900  1
  Zn  Zn96  1  0.53651400  0.86599600  0.36100100  1
  Zn  Zn97  1  0.03751600  0.87273300  0.36001500  1
  Zn  Zn98  1  0.83954600  0.98636200  0.32624200  1
  Zn  Zn99  1  0.30681600  0.59207200  0.34814700  1
  Zn  Zn100  1  0.05813100  0.31856100  0.33524700  1
  Zn  Zn101  1  0.98808700  0.77387600  0.31058600  1
  Zn  Zn102  1  0.10870200  0.41970300  0.38581800  1
  Zn  Zn103  1  0.56023400  0.32750100  0.33536200  1
  Zn  Zn104  1  0.67752600  0.66843700  0.34390400  1
  Zn  Zn105  1  0.48598400  0.76493600  0.31047100  1
  Zn  Zn106  1  0.60970400  0.42644100  0.38483200  1
  Zn  Zn107  1  0.52310900  0.04621800  0.32291700  1
  Zn  Zn108  1  0.80578500  0.93092200  0.38487800  1
  Zn  Zn109  1  0.34043300  0.36151400  0.36095600  1
  Zn  Zn110  1  0.83940200  0.70036500  0.39768600  1
  Zn  Zn111  1  0.97310900  0.94621800  0.27291700  1
  Zn  Zn112  1  0.10667200  0.90607500  0.21959100  1
  Zn  Zn113  1  0.26869300  0.22399900  0.20192900  1
  Zn  Zn114  1  0.69446400  0.07521600  0.21019500  1
  Zn  Zn115  1  0.15175400  0.61722000  0.23563900  1
  Zn  Zn116  1  0.43651400  0.66599600  0.26100100  1
  Zn  Zn117  1  0.93751600  0.67273300  0.26001500  1
  Zn  Zn118  1  0.73954600  0.78636200  0.22624200  1
  Zn  Zn119  1  0.20681600  0.39207200  0.24814700  1
  Zn  Zn120  1  0.95813100  0.11856100  0.23524700  1
  Zn  Zn121  1  0.88808700  0.57387600  0.21058600  1
  Zn  Zn122  1  0.00870200  0.21970300  0.28581800  1
  Zn  Zn123  1  0.46023400  0.12750100  0.23536200  1
  Zn  Zn124  1  0.57752600  0.46843700  0.24390400  1
  Zn  Zn125  1  0.38598400  0.56493600  0.21047100  1
  Zn  Zn126  1  0.50970400  0.22644100  0.28483200  1
  Zn  Zn127  1  0.42310900  0.84621800  0.22291700  1
  Zn  Zn128  1  0.70578500  0.73092200  0.28487800  1
  Zn  Zn129  1  0.24043300  0.16151400  0.26095600  1
  Zn  Zn130  1  0.73940200  0.50036500  0.29768600  1
