# generated using pymatgen
data_Sm2Mg
_symmetry_space_group_name_H-M   'P 1'
_cell_length_a   3.79076100
_cell_length_b   5.59581600
_cell_length_c   52.10552400
_cell_angle_alpha   90.00000000
_cell_angle_beta   90.00000000
_cell_angle_gamma   90.00000000
_symmetry_Int_Tables_number   1
_chemical_formula_structural   Sm2Mg
_chemical_formula_sum   'Sm16 Mg8'
_cell_volume   1105.28327232
_cell_formula_units_Z   8
loop_
 _symmetry_equiv_pos_site_id
 _symmetry_equiv_pos_as_xyz
  1  'x, y, z'
loop_
 _atom_site_type_symbol
 _atom_site_label
 _atom_site_symmetry_multiplicity
 _atom_site_fract_x
 _atom_site_fract_y
 _atom_site_fract_z
 _atom_site_occupancy
  Sm  Sm0  1  0.00000000  0.75000000  0.44640000  1
  Sm  Sm1  1  0.50000000  0.75000000  0.17382900  1
  Sm  Sm2  1  0.50000000  0.25000000  0.22026700  1
  Sm  Sm3  1  0.00000000  0.25000000  0.49283700  1
  Sm  Sm4  1  0.50000000  0.75000000  0.27973300  1
  Sm  Sm5  1  0.00000000  0.75000000  0.34049600  1
  Sm  Sm6  1  0.00000000  0.25000000  0.38693300  1
  Sm  Sm7  1  0.50000000  0.25000000  0.32617100  1
  Sm  Sm8  1  0.00000000  0.75000000  0.77973300  1
  Sm  Sm9  1  0.50000000  0.75000000  0.50716300  1
  Sm  Sm10  1  0.50000000  0.25000000  0.55360000  1
  Sm  Sm11  1  0.00000000  0.25000000  0.82617100  1
  Sm  Sm12  1  0.50000000  0.75000000  0.61306700  1
  Sm  Sm13  1  0.00000000  0.75000000  0.67382900  1
  Sm  Sm14  1  0.00000000  0.25000000  0.72026700  1
  Sm  Sm15  1  0.50000000  0.25000000  0.65950400  1
  Mg  Mg16  1  1.00000000  0.75000000  0.22725100  1
  Mg  Mg17  1  0.50000000  0.25000000  0.43941500  1
  Mg  Mg18  1  0.50000000  0.75000000  0.39391800  1
  Mg  Mg19  1  1.00000000  0.25000000  0.27274900  1
  Mg  Mg20  1  0.00000000  0.75000000  0.56058500  1
  Mg  Mg21  1  0.50000000  0.25000000  0.77274900  1
  Mg  Mg22  1  0.50000000  0.75000000  0.72725100  1
  Mg  Mg23  1  0.00000000  0.25000000  0.60608200  1
