# generated using pymatgen
data_Mg55Zn93
_symmetry_space_group_name_H-M   'P 1'
_cell_length_a   13.26606255
_cell_length_b   15.58232770
_cell_length_c   46.38065300
_cell_angle_alpha   94.29618326
_cell_angle_beta   88.49627591
_cell_angle_gamma   99.94210053
_symmetry_Int_Tables_number   1
_chemical_formula_structural   Mg55Zn93
_chemical_formula_sum   'Mg110 Zn186'
_cell_volume   9416.24935325
_cell_formula_units_Z   2
loop_
 _symmetry_equiv_pos_site_id
 _symmetry_equiv_pos_as_xyz
  1  'x, y, z'
loop_
 _atom_site_type_symbol
 _atom_site_label
 _atom_site_symmetry_multiplicity
 _atom_site_fract_x
 _atom_site_fract_y
 _atom_site_fract_z
 _atom_site_occupancy
  Mg  Mg0  1  0.64938700  0.80020200  0.29665300  1
  Mg  Mg1  1  0.97196500  0.61615600  0.29430400  1
  Mg  Mg2  1  0.52245600  0.26499400  0.28435800  1
  Mg  Mg3  1  0.82219100  0.89473600  0.25871700  1
  Mg  Mg4  1  0.93865600  0.57149200  0.22769800  1
  Mg  Mg5  1  0.56856300  0.02486500  0.20022300  1
  Mg  Mg6  1  0.70273400  0.56074400  0.21283600  1
  Mg  Mg7  1  0.03369700  0.96115200  0.27946500  1
  Mg  Mg8  1  0.57143900  0.60426000  0.26896000  1
  Mg  Mg9  1  0.01723200  0.38439600  0.21048400  1
  Mg  Mg10  1  0.33343100  0.59089300  0.25382400  1
  Mg  Mg11  1  0.28444900  0.25162800  0.26922200  1
  Mg  Mg12  1  0.00024100  0.89154400  0.21040300  1
  Mg  Mg13  1  0.65031300  0.21988800  0.22831800  1
  Mg  Mg14  1  0.30557400  0.73600000  0.20986400  1
  Mg  Mg15  1  0.25315300  0.39514400  0.22534600  1
  Mg  Mg16  1  0.20650000  0.05568600  0.24152900  1
  Mg  Mg17  1  0.38732500  0.93102300  0.23795900  1
  Mg  Mg18  1  0.88392200  0.23973200  0.24387800  1
  Mg  Mg19  1  0.95564700  0.06434400  0.22777900  1
  Mg  Mg20  1  0.54938700  0.70020200  0.39665300  1
  Mg  Mg21  1  0.87196500  0.51615600  0.39430400  1
  Mg  Mg22  1  0.42245600  0.16499400  0.38435800  1
  Mg  Mg23  1  0.72219100  0.79473600  0.35871700  1
  Mg  Mg24  1  0.83865600  0.47149200  0.32769800  1
  Mg  Mg25  1  0.46856300  0.92486500  0.30022300  1
  Mg  Mg26  1  0.60273400  0.46074400  0.31283600  1
  Mg  Mg27  1  0.93369700  0.86115200  0.37946500  1
  Mg  Mg28  1  0.47143900  0.50426000  0.36896000  1
  Mg  Mg29  1  0.91723200  0.28439600  0.31048400  1
  Mg  Mg30  1  0.23343100  0.49089300  0.35382400  1
  Mg  Mg31  1  0.18444900  0.15162800  0.36922200  1
  Mg  Mg32  1  0.90024100  0.79154400  0.31040300  1
  Mg  Mg33  1  0.55031300  0.11988800  0.32831800  1
  Mg  Mg34  1  0.20557400  0.63600000  0.30986400  1
  Mg  Mg35  1  0.15315300  0.29514400  0.32534600  1
  Mg  Mg36  1  0.10650000  0.95568600  0.34152900  1
  Mg  Mg37  1  0.28732500  0.83102300  0.33795900  1
  Mg  Mg38  1  0.78392200  0.13973200  0.34387800  1
  Mg  Mg39  1  0.85564700  0.96434400  0.32777900  1
  Mg  Mg40  1  0.44938700  0.60020200  0.49665300  1
  Mg  Mg41  1  0.77196500  0.41615600  0.49430400  1
  Mg  Mg42  1  0.32245600  0.06499400  0.48435800  1
  Mg  Mg43  1  0.62219100  0.69473600  0.45871700  1
  Mg  Mg44  1  0.73865600  0.37149200  0.42769800  1
  Mg  Mg45  1  0.36856300  0.82486500  0.40022300  1
  Mg  Mg46  1  0.50273400  0.36074400  0.41283600  1
  Mg  Mg47  1  0.83369700  0.76115200  0.47946500  1
  Mg  Mg48  1  0.37143900  0.40426000  0.46896000  1
  Mg  Mg49  1  0.81723200  0.18439600  0.41048400  1
  Mg  Mg50  1  0.13343100  0.39089300  0.45382400  1
  Mg  Mg51  1  0.08444900  0.05162800  0.46922200  1
  Mg  Mg52  1  0.80024100  0.69154400  0.41040300  1
  Mg  Mg53  1  0.45031300  0.01988800  0.42831800  1
  Mg  Mg54  1  0.10557400  0.53600000  0.40986400  1
  Mg  Mg55  1  0.05315300  0.19514400  0.42534600  1
  Mg  Mg56  1  0.00650000  0.85568600  0.44152900  1
  Mg  Mg57  1  0.18732500  0.73102300  0.43795900  1
  Mg  Mg58  1  0.68392200  0.03973200  0.44387800  1
  Mg  Mg59  1  0.75564700  0.86434400  0.42777900  1
  Mg  Mg60  1  0.34938700  0.50020200  0.59665300  1
  Mg  Mg61  1  0.67196500  0.31615600  0.59430400  1
  Mg  Mg62  1  0.22245600  0.96499400  0.58435800  1
  Mg  Mg63  1  0.52219100  0.59473600  0.55871700  1
  Mg  Mg64  1  0.63865600  0.27149200  0.52769800  1
  Mg  Mg65  1  0.26856300  0.72486500  0.50022300  1
  Mg  Mg66  1  0.40273400  0.26074400  0.51283600  1
  Mg  Mg67  1  0.73369700  0.66115200  0.57946500  1
  Mg  Mg68  1  0.27143900  0.30426000  0.56896000  1
  Mg  Mg69  1  0.71723200  0.08439600  0.51048400  1
  Mg  Mg70  1  0.03343100  0.29089300  0.55382400  1
  Mg  Mg71  1  0.98444900  0.95162800  0.56922200  1
  Mg  Mg72  1  0.70024100  0.59154400  0.51040300  1
  Mg  Mg73  1  0.35031300  0.91988800  0.52831800  1
  Mg  Mg74  1  0.00557400  0.43600000  0.50986400  1
  Mg  Mg75  1  0.95315300  0.09514400  0.52534600  1
  Mg  Mg76  1  0.90650000  0.75568600  0.54152900  1
  Mg  Mg77  1  0.08732500  0.63102300  0.53795900  1
  Mg  Mg78  1  0.58392200  0.93973200  0.54387800  1
  Mg  Mg79  1  0.65564700  0.76434400  0.52777900  1
  Mg  Mg80  1  0.24938700  0.40020200  0.69665300  1
  Mg  Mg81  1  0.57196500  0.21615600  0.69430400  1
  Mg  Mg82  1  0.12245600  0.86499400  0.68435800  1
  Mg  Mg83  1  0.42219100  0.49473600  0.65871700  1
  Mg  Mg84  1  0.53865600  0.17149200  0.62769800  1
  Mg  Mg85  1  0.16856300  0.62486500  0.60022300  1
  Mg  Mg86  1  0.30273400  0.16074400  0.61283600  1
  Mg  Mg87  1  0.63369700  0.56115200  0.67946500  1
  Mg  Mg88  1  0.17143900  0.20426000  0.66896000  1
  Mg  Mg89  1  0.61723200  0.98439600  0.61048400  1
  Mg  Mg90  1  0.93343100  0.19089300  0.65382400  1
  Mg  Mg91  1  0.88444900  0.85162800  0.66922200  1
  Mg  Mg92  1  0.60024100  0.49154400  0.61040300  1
  Mg  Mg93  1  0.25031300  0.81988800  0.62831800  1
  Mg  Mg94  1  0.90557400  0.33600000  0.60986400  1
  Mg  Mg95  1  0.85315300  0.99514400  0.62534600  1
  Mg  Mg96  1  0.80650000  0.65568600  0.64152900  1
  Mg  Mg97  1  0.98732500  0.53102300  0.63795900  1
  Mg  Mg98  1  0.48392200  0.83973200  0.64387800  1
  Mg  Mg99  1  0.55564700  0.66434400  0.62777900  1
  Mg  Mg100  1  0.43865600  0.07149200  0.72769800  1
  Mg  Mg101  1  0.06856300  0.52486500  0.70022300  1
  Mg  Mg102  1  0.20273400  0.06074400  0.71283600  1
  Mg  Mg103  1  0.51723200  0.88439600  0.71048400  1
  Mg  Mg104  1  0.50024100  0.39154400  0.71040300  1
  Mg  Mg105  1  0.15031300  0.71988800  0.72831800  1
  Mg  Mg106  1  0.80557400  0.23600000  0.70986400  1
  Mg  Mg107  1  0.75315300  0.89514400  0.72534600  1
  Mg  Mg108  1  0.88732500  0.43102300  0.73795900  1
  Mg  Mg109  1  0.45564700  0.56434400  0.72777900  1
  Zn  Zn110  1  0.77505000  0.51813400  0.27119000  1
  Zn  Zn111  1  0.98010200  0.76173200  0.25269000  1
  Zn  Zn112  1  0.49991900  0.64918300  0.21070400  1
  Zn  Zn113  1  0.11554700  0.21912600  0.22621900  1
  Zn  Zn114  1  0.16442000  0.56261900  0.21118000  1
  Zn  Zn115  1  0.79399400  0.68510200  0.26240100  1
  Zn  Zn116  1  0.47794400  0.47794400  0.21909100  1
  Zn  Zn117  1  0.08083800  0.33775400  0.26699200  1
  Zn  Zn118  1  0.29795300  0.78589200  0.27404900  1
  Zn  Zn119  1  0.74048000  0.34254500  0.27761300  1
  Zn  Zn120  1  0.47448500  0.76808800  0.25342300  1
  Zn  Zn121  1  0.60740900  0.91179200  0.24843900  1
  Zn  Zn122  1  0.61114000  0.41459700  0.24883600  1
  Zn  Zn123  1  0.72011000  0.17891400  0.28574300  1
  Zn  Zn124  1  0.87578600  0.09415600  0.28549100  1
  Zn  Zn125  1  0.55793500  0.06999600  0.26413300  1
  Zn  Zn126  1  0.74277500  0.05413600  0.24255600  1
  Zn  Zn127  1  0.11540800  0.51334300  0.26056900  1
  Zn  Zn128  1  0.06189300  0.17078500  0.27578100  1
  Zn  Zn129  1  0.24474800  0.44129000  0.28934600  1
  Zn  Zn130  1  0.11311300  0.80175200  0.29562600  1
  Zn  Zn131  1  0.79146800  0.39326900  0.22700200  1
  Zn  Zn132  1  0.42794400  0.42794400  0.26909100  1
  Zn  Zn133  1  0.66120400  0.74861600  0.23295600  1
  Zn  Zn134  1  0.52340900  0.81904300  0.20299400  1
  Zn  Zn135  1  0.69412600  0.00102700  0.29384600  1
  Zn  Zn136  1  0.29468400  0.20727100  0.20522600  1
  Zn  Zn137  1  0.16176100  0.85486100  0.24433500  1
  Zn  Zn138  1  0.13577700  0.67697300  0.25243900  1
  Zn  Zn139  1  0.43247900  0.13684500  0.23518800  1
  Zn  Zn140  1  0.84034100  0.73676200  0.21196200  1
  Zn  Zn141  1  0.92794400  0.42794400  0.26909100  1
  Zn  Zn142  1  0.38140300  0.08780000  0.28475900  1
  Zn  Zn143  1  0.24847900  0.94409500  0.28974300  1
  Zn  Zn144  1  0.45596900  0.30670500  0.22747800  1
  Zn  Zn145  1  0.67505000  0.41813400  0.37119000  1
  Zn  Zn146  1  0.88010200  0.66173200  0.35269000  1
  Zn  Zn147  1  0.39991900  0.54918300  0.31070400  1
  Zn  Zn148  1  0.01554700  0.11912600  0.32621900  1
  Zn  Zn149  1  0.06442000  0.46261900  0.31118000  1
  Zn  Zn150  1  0.69399400  0.58510200  0.36240100  1
  Zn  Zn151  1  0.37794400  0.37794400  0.31909100  1
  Zn  Zn152  1  0.98083800  0.23775400  0.36699200  1
  Zn  Zn153  1  0.19795300  0.68589200  0.37404900  1
  Zn  Zn154  1  0.64048000  0.24254500  0.37761300  1
  Zn  Zn155  1  0.37448500  0.66808800  0.35342300  1
  Zn  Zn156  1  0.50740900  0.81179200  0.34843900  1
  Zn  Zn157  1  0.51114000  0.31459700  0.34883600  1
  Zn  Zn158  1  0.62011000  0.07891400  0.38574300  1
  Zn  Zn159  1  0.77578600  0.99415600  0.38549100  1
  Zn  Zn160  1  0.45793500  0.96999600  0.36413300  1
  Zn  Zn161  1  0.64277500  0.95413600  0.34255600  1
  Zn  Zn162  1  0.01540800  0.41334300  0.36056900  1
  Zn  Zn163  1  0.96189300  0.07078500  0.37578100  1
  Zn  Zn164  1  0.14474800  0.34129000  0.38934600  1
  Zn  Zn165  1  0.01311300  0.70175200  0.39562600  1
  Zn  Zn166  1  0.69146800  0.29326900  0.32700200  1
  Zn  Zn167  1  0.32794400  0.32794400  0.36909100  1
  Zn  Zn168  1  0.56120400  0.64861600  0.33295600  1
  Zn  Zn169  1  0.42340900  0.71904300  0.30299400  1
  Zn  Zn170  1  0.59412600  0.90102700  0.39384600  1
  Zn  Zn171  1  0.19468400  0.10727100  0.30522600  1
  Zn  Zn172  1  0.06176100  0.75486100  0.34433500  1
  Zn  Zn173  1  0.03577700  0.57697300  0.35243900  1
  Zn  Zn174  1  0.33247900  0.03684500  0.33518800  1
  Zn  Zn175  1  0.74034100  0.63676200  0.31196200  1
  Zn  Zn176  1  0.82794400  0.32794400  0.36909100  1
  Zn  Zn177  1  0.28140300  0.98780000  0.38475900  1
  Zn  Zn178  1  0.14847900  0.84409500  0.38974300  1
  Zn  Zn179  1  0.35596900  0.20670500  0.32747800  1
  Zn  Zn180  1  0.57505000  0.31813400  0.47119000  1
  Zn  Zn181  1  0.78010200  0.56173200  0.45269000  1
  Zn  Zn182  1  0.29991900  0.44918300  0.41070400  1
  Zn  Zn183  1  0.91554700  0.01912600  0.42621900  1
  Zn  Zn184  1  0.96442000  0.36261900  0.41118000  1
  Zn  Zn185  1  0.59399400  0.48510200  0.46240100  1
  Zn  Zn186  1  0.27794400  0.27794400  0.41909100  1
  Zn  Zn187  1  0.88083800  0.13775400  0.46699200  1
  Zn  Zn188  1  0.09795300  0.58589200  0.47404900  1
  Zn  Zn189  1  0.54048000  0.14254500  0.47761300  1
  Zn  Zn190  1  0.27448500  0.56808800  0.45342300  1
  Zn  Zn191  1  0.40740900  0.71179200  0.44843900  1
  Zn  Zn192  1  0.41114000  0.21459700  0.44883600  1
  Zn  Zn193  1  0.52011000  0.97891400  0.48574300  1
  Zn  Zn194  1  0.67578600  0.89415600  0.48549100  1
  Zn  Zn195  1  0.35793500  0.86999600  0.46413300  1
  Zn  Zn196  1  0.54277500  0.85413600  0.44255600  1
  Zn  Zn197  1  0.91540800  0.31334300  0.46056900  1
  Zn  Zn198  1  0.86189300  0.97078500  0.47578100  1
  Zn  Zn199  1  0.04474800  0.24129000  0.48934600  1
  Zn  Zn200  1  0.91311300  0.60175200  0.49562600  1
  Zn  Zn201  1  0.59146800  0.19326900  0.42700200  1
  Zn  Zn202  1  0.22794400  0.22794400  0.46909100  1
  Zn  Zn203  1  0.46120400  0.54861600  0.43295600  1
  Zn  Zn204  1  0.32340900  0.61904300  0.40299400  1
  Zn  Zn205  1  0.49412600  0.80102700  0.49384600  1
  Zn  Zn206  1  0.09468400  0.00727100  0.40522600  1
  Zn  Zn207  1  0.96176100  0.65486100  0.44433500  1
  Zn  Zn208  1  0.93577700  0.47697300  0.45243900  1
  Zn  Zn209  1  0.23247900  0.93684500  0.43518800  1
  Zn  Zn210  1  0.64034100  0.53676200  0.41196200  1
  Zn  Zn211  1  0.72794400  0.22794400  0.46909100  1
  Zn  Zn212  1  0.18140300  0.88780000  0.48475900  1
  Zn  Zn213  1  0.04847900  0.74409500  0.48974300  1
  Zn  Zn214  1  0.25596900  0.10670500  0.42747800  1
  Zn  Zn215  1  0.47505000  0.21813400  0.57119000  1
  Zn  Zn216  1  0.68010200  0.46173200  0.55269000  1
  Zn  Zn217  1  0.19991900  0.34918300  0.51070400  1
  Zn  Zn218  1  0.81554700  0.91912600  0.52621900  1
  Zn  Zn219  1  0.86442000  0.26261900  0.51118000  1
  Zn  Zn220  1  0.49399400  0.38510200  0.56240100  1
  Zn  Zn221  1  0.17794400  0.17794400  0.51909100  1
  Zn  Zn222  1  0.78083800  0.03775400  0.56699200  1
  Zn  Zn223  1  0.99795300  0.48589200  0.57404900  1
  Zn  Zn224  1  0.44048000  0.04254500  0.57761300  1
  Zn  Zn225  1  0.17448500  0.46808800  0.55342300  1
  Zn  Zn226  1  0.30740900  0.61179200  0.54843900  1
  Zn  Zn227  1  0.31114000  0.11459700  0.54883600  1
  Zn  Zn228  1  0.42011000  0.87891400  0.58574300  1
  Zn  Zn229  1  0.57578600  0.79415600  0.58549100  1
  Zn  Zn230  1  0.25793500  0.76999600  0.56413300  1
  Zn  Zn231  1  0.44277500  0.75413600  0.54255600  1
  Zn  Zn232  1  0.81540800  0.21334300  0.56056900  1
  Zn  Zn233  1  0.76189300  0.87078500  0.57578100  1
  Zn  Zn234  1  0.94474800  0.14129000  0.58934600  1
  Zn  Zn235  1  0.81311300  0.50175200  0.59562600  1
  Zn  Zn236  1  0.49146800  0.09326900  0.52700200  1
  Zn  Zn237  1  0.12794400  0.12794400  0.56909100  1
  Zn  Zn238  1  0.36120400  0.44861600  0.53295600  1
  Zn  Zn239  1  0.22340900  0.51904300  0.50299400  1
  Zn  Zn240  1  0.39412600  0.70102700  0.59384600  1
  Zn  Zn241  1  0.99468400  0.90727100  0.50522600  1
  Zn  Zn242  1  0.86176100  0.55486100  0.54433500  1
  Zn  Zn243  1  0.83577700  0.37697300  0.55243900  1
  Zn  Zn244  1  0.13247900  0.83684500  0.53518800  1
  Zn  Zn245  1  0.54034100  0.43676200  0.51196200  1
  Zn  Zn246  1  0.62794400  0.12794400  0.56909100  1
  Zn  Zn247  1  0.08140300  0.78780000  0.58475900  1
  Zn  Zn248  1  0.94847900  0.64409500  0.58974300  1
  Zn  Zn249  1  0.15596900  0.00670500  0.52747800  1
  Zn  Zn250  1  0.37505000  0.11813400  0.67119000  1
  Zn  Zn251  1  0.58010200  0.36173200  0.65269000  1
  Zn  Zn252  1  0.09991900  0.24918300  0.61070400  1
  Zn  Zn253  1  0.71554700  0.81912600  0.62621900  1
  Zn  Zn254  1  0.76442000  0.16261900  0.61118000  1
  Zn  Zn255  1  0.39399400  0.28510200  0.66240100  1
  Zn  Zn256  1  0.07794400  0.07794400  0.61909100  1
  Zn  Zn257  1  0.68083800  0.93775400  0.66699200  1
  Zn  Zn258  1  0.89795300  0.38589200  0.67404900  1
  Zn  Zn259  1  0.34048000  0.94254500  0.67761300  1
  Zn  Zn260  1  0.07448500  0.36808800  0.65342300  1
  Zn  Zn261  1  0.20740900  0.51179200  0.64843900  1
  Zn  Zn262  1  0.21114000  0.01459700  0.64883600  1
  Zn  Zn263  1  0.32011000  0.77891400  0.68574300  1
  Zn  Zn264  1  0.47578600  0.69415600  0.68549100  1
  Zn  Zn265  1  0.15793500  0.66999600  0.66413300  1
  Zn  Zn266  1  0.34277500  0.65413600  0.64255600  1
  Zn  Zn267  1  0.71540800  0.11334300  0.66056900  1
  Zn  Zn268  1  0.66189300  0.77078500  0.67578100  1
  Zn  Zn269  1  0.84474800  0.04129000  0.68934600  1
  Zn  Zn270  1  0.71311300  0.40175200  0.69562600  1
  Zn  Zn271  1  0.39146800  0.99326900  0.62700200  1
  Zn  Zn272  1  0.02794400  0.02794400  0.66909100  1
  Zn  Zn273  1  0.26120400  0.34861600  0.63295600  1
  Zn  Zn274  1  0.12340900  0.41904300  0.60299400  1
  Zn  Zn275  1  0.29412600  0.60102700  0.69384600  1
  Zn  Zn276  1  0.89468400  0.80727100  0.60522600  1
  Zn  Zn277  1  0.76176100  0.45486100  0.64433500  1
  Zn  Zn278  1  0.73577700  0.27697300  0.65243900  1
  Zn  Zn279  1  0.03247900  0.73684500  0.63518800  1
  Zn  Zn280  1  0.44034100  0.33676200  0.61196200  1
  Zn  Zn281  1  0.52794400  0.02794400  0.66909100  1
  Zn  Zn282  1  0.98140300  0.68780000  0.68475900  1
  Zn  Zn283  1  0.84847900  0.54409500  0.68974300  1
  Zn  Zn284  1  0.05596900  0.90670500  0.62747800  1
  Zn  Zn285  1  0.99991900  0.14918300  0.71070400  1
  Zn  Zn286  1  0.61554700  0.71912600  0.72621900  1
  Zn  Zn287  1  0.66442000  0.06261900  0.71118000  1
  Zn  Zn288  1  0.97794400  0.97794400  0.71909100  1
  Zn  Zn289  1  0.29146800  0.89326900  0.72700200  1
  Zn  Zn290  1  0.16120400  0.24861600  0.73295600  1
  Zn  Zn291  1  0.02340900  0.31904300  0.70299400  1
  Zn  Zn292  1  0.79468400  0.70727100  0.70522600  1
  Zn  Zn293  1  0.93247900  0.63684500  0.73518800  1
  Zn  Zn294  1  0.34034100  0.23676200  0.71196200  1
  Zn  Zn295  1  0.95596900  0.80670500  0.72747800  1
