# generated using pymatgen
data_Y3Mg
_symmetry_space_group_name_H-M   'P 1'
_cell_length_a   3.83113900
_cell_length_b   5.49911400
_cell_length_c   57.45594800
_cell_angle_alpha   90.00000000
_cell_angle_beta   90.00000000
_cell_angle_gamma   90.00000000
_symmetry_Int_Tables_number   1
_chemical_formula_structural   Y3Mg
_chemical_formula_sum   'Y18 Mg6'
_cell_volume   1210.47444956
_cell_formula_units_Z   6
loop_
 _symmetry_equiv_pos_site_id
 _symmetry_equiv_pos_as_xyz
  1  'x, y, z'
loop_
 _atom_site_type_symbol
 _atom_site_label
 _atom_site_symmetry_multiplicity
 _atom_site_fract_x
 _atom_site_fract_y
 _atom_site_fract_z
 _atom_site_occupancy
  Y  Y0  1  0.50000000  0.50000000  0.35000000  1
  Y  Y1  1  0.50000000  0.00000000  0.39521900  1
  Y  Y2  1  0.00000000  0.50000000  0.20478100  1
  Y  Y3  1  0.00000000  0.00000000  0.25000000  1
  Y  Y4  1  0.00000000  0.50000000  0.29521900  1
  Y  Y5  1  0.50000000  0.00000000  0.30478100  1
  Y  Y6  1  0.50000000  0.50000000  0.55000000  1
  Y  Y7  1  0.50000000  0.00000000  0.59521900  1
  Y  Y8  1  0.00000000  0.50000000  0.40478100  1
  Y  Y9  1  0.00000000  0.00000000  0.45000000  1
  Y  Y10  1  0.00000000  0.50000000  0.49521900  1
  Y  Y11  1  0.50000000  0.00000000  0.50478100  1
  Y  Y12  1  0.50000000  0.50000000  0.75000000  1
  Y  Y13  1  0.50000000  0.00000000  0.79521900  1
  Y  Y14  1  0.00000000  0.50000000  0.60478100  1
  Y  Y15  1  0.00000000  0.00000000  0.65000000  1
  Y  Y16  1  0.00000000  0.50000000  0.69521900  1
  Y  Y17  1  0.50000000  0.00000000  0.70478100  1
  Mg  Mg18  1  0.00000000  0.00000000  0.35000000  1
  Mg  Mg19  1  0.50000000  0.50000000  0.25000000  1
  Mg  Mg20  1  0.00000000  0.00000000  0.55000000  1
  Mg  Mg21  1  0.50000000  0.50000000  0.45000000  1
  Mg  Mg22  1  0.00000000  0.00000000  0.75000000  1
  Mg  Mg23  1  0.50000000  0.50000000  0.65000000  1
