# generated using pymatgen
data_HoMg5
_symmetry_space_group_name_H-M   'P 1'
_cell_length_a   3.64999800
_cell_length_b   11.78231593
_cell_length_c   48.00042200
_cell_angle_alpha   86.08470304
_cell_angle_beta   90.00000000
_cell_angle_gamma   90.00000000
_symmetry_Int_Tables_number   1
_chemical_formula_structural   HoMg5
_chemical_formula_sum   'Ho8 Mg40'
_cell_volume   2059.46091587
_cell_formula_units_Z   8
loop_
 _symmetry_equiv_pos_site_id
 _symmetry_equiv_pos_as_xyz
  1  'x, y, z'
loop_
 _atom_site_type_symbol
 _atom_site_label
 _atom_site_symmetry_multiplicity
 _atom_site_fract_x
 _atom_site_fract_y
 _atom_site_fract_z
 _atom_site_occupancy
  Ho  Ho0  1  0.50000000  0.03571400  0.25000000  1
  Ho  Ho1  1  1.00000000  0.60714300  0.32142900  1
  Ho  Ho2  1  0.50000000  0.17857100  0.39285700  1
  Ho  Ho3  1  1.00000000  0.75000000  0.46428600  1
  Ho  Ho4  1  0.50000000  0.32142900  0.53571400  1
  Ho  Ho5  1  0.00000000  0.89285700  0.60714300  1
  Ho  Ho6  1  0.50000000  0.46428600  0.67857100  1
  Ho  Ho7  1  0.00000000  0.03571400  0.75000000  1
  Mg  Mg8  1  0.50000000  0.33700900  0.22831000  1
  Mg  Mg9  1  1.00000000  0.23273100  0.27493800  1
  Mg  Mg10  1  0.50000000  0.10714300  0.32142900  1
  Mg  Mg11  1  0.50000000  0.41012700  0.29649000  1
  Mg  Mg12  1  0.00000000  0.30584800  0.34311900  1
  Mg  Mg13  1  1.00000000  0.90843700  0.29973800  1
  Mg  Mg14  1  0.50000000  0.80415900  0.34636700  1
  Mg  Mg15  1  1.00000000  0.53571400  0.25000000  1
  Mg  Mg16  1  1.00000000  0.83869800  0.22506200  1
  Mg  Mg17  1  0.50000000  0.73442000  0.27169000  1
  Mg  Mg18  1  0.50000000  0.47986600  0.37116700  1
  Mg  Mg19  1  1.00000000  0.37558800  0.41779500  1
  Mg  Mg20  1  0.50000000  0.25000000  0.46428600  1
  Mg  Mg21  1  0.50000000  0.55298400  0.43934800  1
  Mg  Mg22  1  0.00000000  0.44870600  0.48597600  1
  Mg  Mg23  1  1.00000000  0.05129400  0.44259500  1
  Mg  Mg24  1  0.50000000  0.94701600  0.48922400  1
  Mg  Mg25  1  0.00000000  0.67857100  0.39285700  1
  Mg  Mg26  1  0.00000000  0.98155500  0.36791900  1
  Mg  Mg27  1  0.50000000  0.87727700  0.41454700  1
  Mg  Mg28  1  0.50000000  0.62272300  0.51402400  1
  Mg  Mg29  1  0.00000000  0.51844500  0.56065200  1
  Mg  Mg30  1  0.50000000  0.39285700  0.60714300  1
  Mg  Mg31  1  0.50000000  0.69584100  0.58220500  1
  Mg  Mg32  1  1.00000000  0.59156300  0.62883300  1
  Mg  Mg33  1  0.00000000  0.19415200  0.58545300  1
  Mg  Mg34  1  0.50000000  0.08987300  0.63208100  1
  Mg  Mg35  1  1.00000000  0.82142900  0.53571400  1
  Mg  Mg36  1  1.00000000  0.12441200  0.51077600  1
  Mg  Mg37  1  0.50000000  0.02013400  0.55740500  1
  Mg  Mg38  1  0.50000000  0.76558000  0.65688100  1
  Mg  Mg39  1  1.00000000  0.66130200  0.70351000  1
  Mg  Mg40  1  0.50000000  0.53571400  0.75000000  1
  Mg  Mg41  1  0.50000000  0.83869800  0.72506200  1
  Mg  Mg42  1  0.00000000  0.73442000  0.77169000  1
  Mg  Mg43  1  1.00000000  0.33700900  0.72831000  1
  Mg  Mg44  1  0.50000000  0.23273100  0.77493800  1
  Mg  Mg45  1  0.00000000  0.96428600  0.67857100  1
  Mg  Mg46  1  0.00000000  0.26726900  0.65363300  1
  Mg  Mg47  1  0.50000000  0.16299100  0.70026200  1
