# generated using pymatgen
data_Mg7Zn38
_symmetry_space_group_name_H-M   'P 1'
_cell_length_a   4.98183600
_cell_length_b   9.38239070
_cell_length_c   50.43080200
_cell_angle_alpha   88.98550828
_cell_angle_beta   90.00000000
_cell_angle_gamma   90.00000000
_symmetry_Int_Tables_number   1
_chemical_formula_structural   Mg7Zn38
_chemical_formula_sum   'Mg14 Zn76'
_cell_volume   2356.84343743
_cell_formula_units_Z   2
loop_
 _symmetry_equiv_pos_site_id
 _symmetry_equiv_pos_as_xyz
  1  'x, y, z'
loop_
 _atom_site_type_symbol
 _atom_site_label
 _atom_site_symmetry_multiplicity
 _atom_site_fract_x
 _atom_site_fract_y
 _atom_site_fract_z
 _atom_site_occupancy
  Mg  Mg0  1  0.50000000  0.33188300  0.44705700  1
  Mg  Mg1  1  1.00000000  0.49760400  0.26127600  1
  Mg  Mg2  1  0.00000000  0.81878200  0.34408800  1
  Mg  Mg3  1  0.50000000  0.01070600  0.36424600  1
  Mg  Mg4  1  0.00000000  0.83188300  0.28039100  1
  Mg  Mg5  1  0.50000000  0.99760400  0.42794300  1
  Mg  Mg6  1  0.50000000  0.31878200  0.51075400  1
  Mg  Mg7  1  1.00000000  0.51070600  0.53091200  1
  Mg  Mg8  1  0.50000000  0.33188300  0.78039100  1
  Mg  Mg9  1  0.00000000  0.49760400  0.59460900  1
  Mg  Mg10  1  0.00000000  0.81878200  0.67742100  1
  Mg  Mg11  1  0.50000000  0.01070600  0.69757900  1
  Mg  Mg12  1  0.00000000  0.83188300  0.61372400  1
  Mg  Mg13  1  0.50000000  0.99760400  0.76127600  1
  Zn  Zn14  1  0.50000000  0.66474400  0.43750000  1
  Zn  Zn15  1  0.50000000  0.01110900  0.25974900  1
  Zn  Zn16  1  0.50000000  0.50788700  0.22842600  1
  Zn  Zn17  1  0.00000000  0.32160000  0.47990700  1
  Zn  Zn18  1  0.25265100  0.06122700  0.48023200  1
  Zn  Zn19  1  0.24714400  0.56359400  0.47878000  1
  Zn  Zn20  1  1.00000000  0.81837800  0.44858500  1
  Zn  Zn21  1  0.74714400  0.26589300  0.22955300  1
  Zn  Zn22  1  0.75285600  0.56359400  0.47878000  1
  Zn  Zn23  1  0.25285600  0.26589300  0.22955300  1
  Zn  Zn24  1  0.75265100  0.76826000  0.22810100  1
  Zn  Zn25  1  0.74734900  0.06122700  0.48023200  1
  Zn  Zn26  1  0.24734900  0.76826000  0.22810100  1
  Zn  Zn27  1  0.00000000  0.16474400  0.43750000  1
  Zn  Zn28  1  0.50000000  0.82442000  0.47737000  1
  Zn  Zn29  1  1.00000000  0.00506700  0.23096400  1
  Zn  Zn30  1  1.00000000  0.16474400  0.27083300  1
  Zn  Zn31  1  0.00000000  0.51110900  0.42641500  1
  Zn  Zn32  1  1.00000000  0.50805100  0.36754100  1
  Zn  Zn33  1  0.00000000  0.00788700  0.39509300  1
  Zn  Zn34  1  0.50000000  0.82160000  0.31324000  1
  Zn  Zn35  1  0.75265100  0.56122700  0.31356500  1
  Zn  Zn36  1  0.74714400  0.06359400  0.31211400  1
  Zn  Zn37  1  0.50000000  0.31837800  0.28191800  1
  Zn  Zn38  1  0.50000000  0.65396400  0.35493500  1
  Zn  Zn39  1  0.24714400  0.76589300  0.39622000  1
  Zn  Zn40  1  0.25285600  0.06359400  0.31211400  1
  Zn  Zn41  1  0.75285600  0.76589300  0.39622000  1
  Zn  Zn42  1  0.25265100  0.26826000  0.39476800  1
  Zn  Zn43  1  0.50000000  0.32143700  0.34079300  1
  Zn  Zn44  1  0.24734900  0.56122700  0.31356500  1
  Zn  Zn45  1  0.74734900  0.26826000  0.39476800  1
  Zn  Zn46  1  0.50000000  0.66474400  0.27083300  1
  Zn  Zn47  1  1.00000000  0.32442000  0.31070300  1
  Zn  Zn48  1  0.50000000  0.50506700  0.39763000  1
  Zn  Zn49  1  0.00000000  0.17552300  0.35339900  1
  Zn  Zn50  1  0.50000000  0.66474400  0.77083300  1
  Zn  Zn51  1  0.50000000  0.01110900  0.59308200  1
  Zn  Zn52  1  0.50000000  0.00805100  0.53420700  1
  Zn  Zn53  1  0.50000000  0.50788700  0.56176000  1
  Zn  Zn54  1  1.00000000  0.32160000  0.81324000  1
  Zn  Zn55  1  0.25265100  0.06122700  0.81356500  1
  Zn  Zn56  1  0.24714400  0.56359400  0.81211400  1
  Zn  Zn57  1  1.00000000  0.81837800  0.78191800  1
  Zn  Zn58  1  0.00000000  0.15396400  0.52160100  1
  Zn  Zn59  1  0.74714400  0.26589300  0.56288600  1
  Zn  Zn60  1  0.75285600  0.56359400  0.81211400  1
  Zn  Zn61  1  0.25285600  0.26589300  0.56288600  1
  Zn  Zn62  1  0.75265100  0.76826000  0.56143500  1
  Zn  Zn63  1  0.00000000  0.82143700  0.50745900  1
  Zn  Zn64  1  0.74734900  0.06122700  0.81356500  1
  Zn  Zn65  1  0.24734900  0.76826000  0.56143500  1
  Zn  Zn66  1  0.00000000  0.16474400  0.77083300  1
  Zn  Zn67  1  0.50000000  0.82442000  0.81070300  1
  Zn  Zn68  1  0.00000000  0.00506700  0.56429700  1
  Zn  Zn69  1  0.50000000  0.67552300  0.52006500  1
  Zn  Zn70  1  0.00000000  0.16474400  0.60416700  1
  Zn  Zn71  1  1.00000000  0.51110900  0.75974900  1
  Zn  Zn72  1  1.00000000  0.50805100  0.70087400  1
  Zn  Zn73  1  1.00000000  0.00788700  0.72842600  1
  Zn  Zn74  1  0.50000000  0.82160000  0.64657400  1
  Zn  Zn75  1  0.75265100  0.56122700  0.64689900  1
  Zn  Zn76  1  0.74714400  0.06359400  0.64544700  1
  Zn  Zn77  1  0.50000000  0.31837800  0.61525100  1
  Zn  Zn78  1  0.50000000  0.65396400  0.68826800  1
  Zn  Zn79  1  0.24714400  0.76589300  0.72955300  1
  Zn  Zn80  1  0.25285600  0.06359400  0.64544700  1
  Zn  Zn81  1  0.75285600  0.76589300  0.72955300  1
  Zn  Zn82  1  0.25265100  0.26826000  0.72810100  1
  Zn  Zn83  1  0.50000000  0.32143700  0.67412600  1
  Zn  Zn84  1  0.24734900  0.56122700  0.64689900  1
  Zn  Zn85  1  0.74734900  0.26826000  0.72810100  1
  Zn  Zn86  1  0.50000000  0.66474400  0.60416700  1
  Zn  Zn87  1  0.00000000  0.32442000  0.64403600  1
  Zn  Zn88  1  0.50000000  0.50506700  0.73096400  1
  Zn  Zn89  1  0.00000000  0.17552300  0.68673200  1
