# generated using pymatgen
data_Nd2Mg
_symmetry_space_group_name_H-M   'P 1'
_cell_length_a   6.85398170
_cell_length_b   8.93304549
_cell_length_c   40.73336800
_cell_angle_alpha   87.90818910
_cell_angle_beta   89.35618046
_cell_angle_gamma   83.06678349
_symmetry_Int_Tables_number   1
_chemical_formula_structural   Nd2Mg
_chemical_formula_sum   'Nd32 Mg16'
_cell_volume   2474.03350369
_cell_formula_units_Z   16
loop_
 _symmetry_equiv_pos_site_id
 _symmetry_equiv_pos_as_xyz
  1  'x, y, z'
loop_
 _atom_site_type_symbol
 _atom_site_label
 _atom_site_symmetry_multiplicity
 _atom_site_fract_x
 _atom_site_fract_y
 _atom_site_fract_z
 _atom_site_occupancy
  Nd  Nd0  1  0.80013600  0.37895500  0.79515800  1
  Nd  Nd1  1  0.89815700  0.76633000  0.77065300  1
  Nd  Nd2  1  0.50755600  0.08258400  0.74330300  1
  Nd  Nd3  1  0.40953600  0.69520900  0.76780800  1
  Nd  Nd4  1  0.10782900  0.45587800  0.71823500  1
  Nd  Nd5  1  0.20584900  0.84325300  0.69373000  1
  Nd  Nd6  1  0.81524800  0.15950700  0.66638000  1
  Nd  Nd7  1  0.71722800  0.77213200  0.69088500  1
  Nd  Nd8  1  0.41552100  0.53280100  0.64131200  1
  Nd  Nd9  1  0.51354100  0.92017600  0.61680700  1
  Nd  Nd10  1  0.12294000  0.23643000  0.58945700  1
  Nd  Nd11  1  0.02492000  0.84905500  0.61396200  1
  Nd  Nd12  1  0.72321300  0.60972400  0.56438900  1
  Nd  Nd13  1  0.82123300  0.99709900  0.53988400  1
  Nd  Nd14  1  0.43063300  0.31335300  0.51253400  1
  Nd  Nd15  1  0.33261300  0.92597800  0.53703900  1
  Nd  Nd16  1  0.03090600  0.68664700  0.48746600  1
  Nd  Nd17  1  0.12892600  0.07402200  0.46296100  1
  Nd  Nd18  1  0.73832500  0.39027600  0.43561100  1
  Nd  Nd19  1  0.64030500  0.00290100  0.46011600  1
  Nd  Nd20  1  0.33859800  0.76357000  0.41054300  1
  Nd  Nd21  1  0.43661800  0.15094500  0.38603800  1
  Nd  Nd22  1  0.04601700  0.46719900  0.35868800  1
  Nd  Nd23  1  0.94799700  0.07982400  0.38319300  1
  Nd  Nd24  1  0.64629000  0.84049300  0.33362000  1
  Nd  Nd25  1  0.74431000  0.22786800  0.30911500  1
  Nd  Nd26  1  0.35371000  0.54412200  0.28176500  1
  Nd  Nd27  1  0.25569000  0.15674700  0.30627000  1
  Nd  Nd28  1  0.95398300  0.91741600  0.25669700  1
  Nd  Nd29  1  0.05200300  0.30479100  0.23219200  1
  Nd  Nd30  1  0.66140200  0.62104500  0.20484200  1
  Nd  Nd31  1  0.56338200  0.23367000  0.22934700  1
  Mg  Mg32  1  0.00243900  0.11456100  0.74458200  1
  Mg  Mg33  1  0.30525300  0.34697700  0.79387900  1
  Mg  Mg34  1  0.31013200  0.19148400  0.66765900  1
  Mg  Mg35  1  0.61294500  0.42390000  0.71695600  1
  Mg  Mg36  1  0.61782400  0.26840700  0.59073600  1
  Mg  Mg37  1  0.92063700  0.50082300  0.64003300  1
  Mg  Mg38  1  0.92551600  0.34533000  0.51381300  1
  Mg  Mg39  1  0.22833000  0.57774700  0.56311000  1
  Mg  Mg40  1  0.23320900  0.42225300  0.43689000  1
  Mg  Mg41  1  0.53602200  0.65467000  0.48618700  1
  Mg  Mg42  1  0.54090100  0.49917700  0.35996700  1
  Mg  Mg43  1  0.84371400  0.73159300  0.40926400  1
  Mg  Mg44  1  0.84859300  0.57610000  0.28304400  1
  Mg  Mg45  1  0.15140700  0.80851600  0.33234100  1
  Mg  Mg46  1  0.15628600  0.65302300  0.20612100  1
  Mg  Mg47  1  0.45909900  0.88543900  0.25541800  1
