# generated using pymatgen
data_Mg54Si35
_symmetry_space_group_name_H-M   'P 1'
_cell_length_a   12.34156200
_cell_length_b   12.41651900
_cell_length_c   43.01208400
_cell_angle_alpha   90.00000000
_cell_angle_beta   90.00000000
_cell_angle_gamma   90.00000000
_symmetry_Int_Tables_number   1
_chemical_formula_structural   Mg54Si35
_chemical_formula_sum   'Mg108 Si70'
_cell_volume   6591.13902266
_cell_formula_units_Z   2
loop_
 _symmetry_equiv_pos_site_id
 _symmetry_equiv_pos_as_xyz
  1  'x, y, z'
loop_
 _atom_site_type_symbol
 _atom_site_label
 _atom_site_symmetry_multiplicity
 _atom_site_fract_x
 _atom_site_fract_y
 _atom_site_fract_z
 _atom_site_occupancy
  Mg  Mg0  1  0.91704200  0.34772800  0.29649700  1
  Mg  Mg1  1  0.41704200  0.50819500  0.33730800  1
  Mg  Mg2  1  0.41704200  0.88992900  0.31930800  1
  Mg  Mg3  1  0.91704200  0.71086200  0.31759700  1
  Mg  Mg4  1  0.91704200  0.09259600  0.29959700  1
  Mg  Mg5  1  0.41704200  0.25306200  0.34040800  1
  Mg  Mg6  1  0.08295800  0.25306200  0.34040800  1
  Mg  Mg7  1  0.58295800  0.09259600  0.29959700  1
  Mg  Mg8  1  0.58295800  0.71086200  0.31759700  1
  Mg  Mg9  1  0.08295800  0.88992900  0.31930800  1
  Mg  Mg10  1  0.08295800  0.50819500  0.33730800  1
  Mg  Mg11  1  0.58295800  0.34772800  0.29649700  1
  Mg  Mg12  1  0.25000000  0.37739200  0.29358400  1
  Mg  Mg13  1  0.75000000  0.51428900  0.32843600  1
  Mg  Mg14  1  0.75000000  0.91349800  0.32526700  1
  Mg  Mg15  1  0.25000000  0.68729300  0.31163700  1
  Mg  Mg16  1  0.25000000  0.08650200  0.30846900  1
  Mg  Mg17  1  0.75000000  0.22339900  0.34332100  1
  Mg  Mg18  1  0.91704200  0.84772800  0.37983000  1
  Mg  Mg19  1  0.41704200  0.00819500  0.42064100  1
  Mg  Mg20  1  0.41704200  0.38992900  0.40264100  1
  Mg  Mg21  1  0.91704200  0.21086200  0.40093000  1
  Mg  Mg22  1  0.91704200  0.59259600  0.38293000  1
  Mg  Mg23  1  0.41704200  0.75306200  0.42374100  1
  Mg  Mg24  1  0.08295800  0.75306200  0.42374100  1
  Mg  Mg25  1  0.58295800  0.59259600  0.38293000  1
  Mg  Mg26  1  0.58295800  0.21086200  0.40093000  1
  Mg  Mg27  1  0.08295800  0.38992900  0.40264100  1
  Mg  Mg28  1  0.08295800  0.00819500  0.42064100  1
  Mg  Mg29  1  0.58295800  0.84772800  0.37983000  1
  Mg  Mg30  1  0.25000000  0.87739200  0.37691800  1
  Mg  Mg31  1  0.75000000  0.01428900  0.41176900  1
  Mg  Mg32  1  0.75000000  0.41349800  0.40860100  1
  Mg  Mg33  1  0.25000000  0.18729300  0.39497100  1
  Mg  Mg34  1  0.25000000  0.58650200  0.39180200  1
  Mg  Mg35  1  0.75000000  0.72339900  0.42665400  1
  Mg  Mg36  1  0.91704200  0.34772800  0.46316300  1
  Mg  Mg37  1  0.41704200  0.50819500  0.50397500  1
  Mg  Mg38  1  0.41704200  0.88992900  0.48597500  1
  Mg  Mg39  1  0.91704200  0.71086200  0.48426400  1
  Mg  Mg40  1  0.91704200  0.09259600  0.46626300  1
  Mg  Mg41  1  0.41704200  0.25306200  0.50707500  1
  Mg  Mg42  1  0.08295800  0.25306200  0.50707500  1
  Mg  Mg43  1  0.58295800  0.09259600  0.46626300  1
  Mg  Mg44  1  0.58295800  0.71086200  0.48426400  1
  Mg  Mg45  1  0.08295800  0.88992900  0.48597500  1
  Mg  Mg46  1  0.08295800  0.50819500  0.50397500  1
  Mg  Mg47  1  0.58295800  0.34772800  0.46316300  1
  Mg  Mg48  1  0.25000000  0.37739200  0.46025100  1
  Mg  Mg49  1  0.75000000  0.51428900  0.49510300  1
  Mg  Mg50  1  0.75000000  0.91349800  0.49193400  1
  Mg  Mg51  1  0.25000000  0.68729300  0.47830400  1
  Mg  Mg52  1  0.25000000  0.08650200  0.47513600  1
  Mg  Mg53  1  0.75000000  0.22339900  0.50998700  1
  Mg  Mg54  1  0.91704200  0.84772800  0.54649700  1
  Mg  Mg55  1  0.41704200  0.00819500  0.58730800  1
  Mg  Mg56  1  0.41704200  0.38992900  0.56930800  1
  Mg  Mg57  1  0.91704200  0.21086200  0.56759700  1
  Mg  Mg58  1  0.91704200  0.59259600  0.54959700  1
  Mg  Mg59  1  0.41704200  0.75306200  0.59040800  1
  Mg  Mg60  1  0.08295800  0.75306200  0.59040800  1
  Mg  Mg61  1  0.58295800  0.59259600  0.54959700  1
  Mg  Mg62  1  0.58295800  0.21086200  0.56759700  1
  Mg  Mg63  1  0.08295800  0.38992900  0.56930800  1
  Mg  Mg64  1  0.08295800  0.00819500  0.58730800  1
  Mg  Mg65  1  0.58295800  0.84772800  0.54649700  1
  Mg  Mg66  1  0.25000000  0.87739200  0.54358400  1
  Mg  Mg67  1  0.75000000  0.01428900  0.57843600  1
  Mg  Mg68  1  0.75000000  0.41349800  0.57526700  1
  Mg  Mg69  1  0.25000000  0.18729300  0.56163700  1
  Mg  Mg70  1  0.25000000  0.58650200  0.55846900  1
  Mg  Mg71  1  0.75000000  0.72339900  0.59332100  1
  Mg  Mg72  1  0.91704200  0.34772800  0.62983000  1
  Mg  Mg73  1  0.41704200  0.50819500  0.67064100  1
  Mg  Mg74  1  0.41704200  0.88992900  0.65264100  1
  Mg  Mg75  1  0.91704200  0.71086200  0.65093000  1
  Mg  Mg76  1  0.91704200  0.09259600  0.63293000  1
  Mg  Mg77  1  0.41704200  0.25306200  0.67374100  1
  Mg  Mg78  1  0.08295800  0.25306200  0.67374100  1
  Mg  Mg79  1  0.58295800  0.09259600  0.63293000  1
  Mg  Mg80  1  0.58295800  0.71086200  0.65093000  1
  Mg  Mg81  1  0.08295800  0.88992900  0.65264100  1
  Mg  Mg82  1  0.08295800  0.50819500  0.67064100  1
  Mg  Mg83  1  0.58295800  0.34772800  0.62983000  1
  Mg  Mg84  1  0.25000000  0.37739200  0.62691800  1
  Mg  Mg85  1  0.75000000  0.51428900  0.66176900  1
  Mg  Mg86  1  0.75000000  0.91349800  0.65860100  1
  Mg  Mg87  1  0.25000000  0.68729300  0.64497100  1
  Mg  Mg88  1  0.25000000  0.08650200  0.64180200  1
  Mg  Mg89  1  0.75000000  0.22339900  0.67665400  1
  Mg  Mg90  1  0.91704200  0.84772800  0.71316300  1
  Mg  Mg91  1  0.41704200  0.00819500  0.75397500  1
  Mg  Mg92  1  0.41704200  0.38992900  0.73597500  1
  Mg  Mg93  1  0.91704200  0.21086200  0.73426400  1
  Mg  Mg94  1  0.91704200  0.59259600  0.71626300  1
  Mg  Mg95  1  0.41704200  0.75306200  0.75707500  1
  Mg  Mg96  1  0.08295800  0.75306200  0.75707500  1
  Mg  Mg97  1  0.58295800  0.59259600  0.71626300  1
  Mg  Mg98  1  0.58295800  0.21086200  0.73426400  1
  Mg  Mg99  1  0.08295800  0.38992900  0.73597500  1
  Mg  Mg100  1  0.08295800  0.00819500  0.75397500  1
  Mg  Mg101  1  0.58295800  0.84772800  0.71316300  1
  Mg  Mg102  1  0.25000000  0.87739200  0.71025100  1
  Mg  Mg103  1  0.75000000  0.01428900  0.74510300  1
  Mg  Mg104  1  0.75000000  0.41349800  0.74193400  1
  Mg  Mg105  1  0.25000000  0.18729300  0.72830400  1
  Mg  Mg106  1  0.25000000  0.58650200  0.72513600  1
  Mg  Mg107  1  0.75000000  0.72339900  0.75998700  1
  Si  Si108  1  0.10025900  0.55039500  0.27678600  1
  Si  Si109  1  0.60025900  0.55039500  0.27678600  1
  Si  Si110  1  0.89974100  0.55039500  0.27678600  1
  Si  Si111  1  0.39974100  0.55039500  0.27678600  1
  Si  Si112  1  0.25000000  0.88372900  0.27678600  1
  Si  Si113  1  0.75000000  0.21706200  0.27678600  1
  Si  Si114  1  0.41253500  0.21706200  0.27678600  1
  Si  Si115  1  0.91253500  0.88372900  0.27678600  1
  Si  Si116  1  0.58746500  0.88372900  0.27678600  1
  Si  Si117  1  0.08746500  0.21706200  0.27678600  1
  Si  Si118  1  0.10025900  0.05039500  0.36011900  1
  Si  Si119  1  0.60025900  0.05039500  0.36011900  1
  Si  Si120  1  0.89974100  0.05039500  0.36011900  1
  Si  Si121  1  0.39974100  0.05039500  0.36011900  1
  Si  Si122  1  0.25000000  0.38372900  0.36011900  1
  Si  Si123  1  0.75000000  0.71706200  0.36011900  1
  Si  Si124  1  0.41253500  0.71706200  0.36011900  1
  Si  Si125  1  0.91253500  0.38372900  0.36011900  1
  Si  Si126  1  0.58746500  0.38372900  0.36011900  1
  Si  Si127  1  0.08746500  0.71706200  0.36011900  1
  Si  Si128  1  0.10025900  0.55039500  0.44345200  1
  Si  Si129  1  0.60025900  0.55039500  0.44345200  1
  Si  Si130  1  0.89974100  0.55039500  0.44345200  1
  Si  Si131  1  0.39974100  0.55039500  0.44345200  1
  Si  Si132  1  0.25000000  0.88372900  0.44345200  1
  Si  Si133  1  0.75000000  0.21706200  0.44345200  1
  Si  Si134  1  0.41253500  0.21706200  0.44345200  1
  Si  Si135  1  0.91253500  0.88372900  0.44345200  1
  Si  Si136  1  0.58746500  0.88372900  0.44345200  1
  Si  Si137  1  0.08746500  0.21706200  0.44345200  1
  Si  Si138  1  0.10025900  0.05039500  0.52678600  1
  Si  Si139  1  0.60025900  0.05039500  0.52678600  1
  Si  Si140  1  0.89974100  0.05039500  0.52678600  1
  Si  Si141  1  0.39974100  0.05039500  0.52678600  1
  Si  Si142  1  0.25000000  0.38372900  0.52678600  1
  Si  Si143  1  0.75000000  0.71706200  0.52678600  1
  Si  Si144  1  0.41253500  0.71706200  0.52678600  1
  Si  Si145  1  0.91253500  0.38372900  0.52678600  1
  Si  Si146  1  0.58746500  0.38372900  0.52678600  1
  Si  Si147  1  0.08746500  0.71706200  0.52678600  1
  Si  Si148  1  0.10025900  0.55039500  0.61011900  1
  Si  Si149  1  0.60025900  0.55039500  0.61011900  1
  Si  Si150  1  0.89974100  0.55039500  0.61011900  1
  Si  Si151  1  0.39974100  0.55039500  0.61011900  1
  Si  Si152  1  0.25000000  0.88372900  0.61011900  1
  Si  Si153  1  0.75000000  0.21706200  0.61011900  1
  Si  Si154  1  0.41253500  0.21706200  0.61011900  1
  Si  Si155  1  0.91253500  0.88372900  0.61011900  1
  Si  Si156  1  0.58746500  0.88372900  0.61011900  1
  Si  Si157  1  0.08746500  0.21706200  0.61011900  1
  Si  Si158  1  0.10025900  0.05039500  0.69345200  1
  Si  Si159  1  0.60025900  0.05039500  0.69345200  1
  Si  Si160  1  0.89974100  0.05039500  0.69345200  1
  Si  Si161  1  0.39974100  0.05039500  0.69345200  1
  Si  Si162  1  0.25000000  0.38372900  0.69345200  1
  Si  Si163  1  0.75000000  0.71706200  0.69345200  1
  Si  Si164  1  0.41253500  0.71706200  0.69345200  1
  Si  Si165  1  0.91253500  0.38372900  0.69345200  1
  Si  Si166  1  0.58746500  0.38372900  0.69345200  1
  Si  Si167  1  0.08746500  0.71706200  0.69345200  1
  Si  Si168  1  0.10025900  0.55039500  0.77678600  1
  Si  Si169  1  0.60025900  0.55039500  0.77678600  1
  Si  Si170  1  0.89974100  0.55039500  0.77678600  1
  Si  Si171  1  0.39974100  0.55039500  0.77678600  1
  Si  Si172  1  0.25000000  0.88372900  0.77678600  1
  Si  Si173  1  0.75000000  0.21706200  0.77678600  1
  Si  Si174  1  0.41253500  0.21706200  0.77678600  1
  Si  Si175  1  0.91253500  0.88372900  0.77678600  1
  Si  Si176  1  0.58746500  0.88372900  0.77678600  1
  Si  Si177  1  0.08746500  0.21706200  0.77678600  1
