# generated using pymatgen
data_Nd2Mg
_symmetry_space_group_name_H-M   'P 1'
_cell_length_a   3.84469700
_cell_length_b   5.67409700
_cell_length_c   52.34251900
_cell_angle_alpha   90.00000000
_cell_angle_beta   90.00000000
_cell_angle_gamma   90.00000000
_symmetry_Int_Tables_number   1
_chemical_formula_structural   Nd2Mg
_chemical_formula_sum   'Nd16 Mg8'
_cell_volume   1141.86166802
_cell_formula_units_Z   8
loop_
 _symmetry_equiv_pos_site_id
 _symmetry_equiv_pos_as_xyz
  1  'x, y, z'
loop_
 _atom_site_type_symbol
 _atom_site_label
 _atom_site_symmetry_multiplicity
 _atom_site_fract_x
 _atom_site_fract_y
 _atom_site_fract_z
 _atom_site_occupancy
  Nd  Nd0  1  0.00000000  0.75000000  0.44568500  1
  Nd  Nd1  1  0.50000000  0.75000000  0.17283000  1
  Nd  Nd2  1  0.50000000  0.25000000  0.22098100  1
  Nd  Nd3  1  1.00000000  0.25000000  0.49383600  1
  Nd  Nd4  1  0.50000000  0.75000000  0.27901900  1
  Nd  Nd5  1  1.00000000  0.75000000  0.33949700  1
  Nd  Nd6  1  1.00000000  0.25000000  0.38764800  1
  Nd  Nd7  1  0.50000000  0.25000000  0.32717000  1
  Nd  Nd8  1  0.00000000  0.75000000  0.77901900  1
  Nd  Nd9  1  0.50000000  0.75000000  0.50616400  1
  Nd  Nd10  1  0.50000000  0.25000000  0.55431500  1
  Nd  Nd11  1  0.00000000  0.25000000  0.82717000  1
  Nd  Nd12  1  0.50000000  0.75000000  0.61235200  1
  Nd  Nd13  1  1.00000000  0.75000000  0.67283000  1
  Nd  Nd14  1  1.00000000  0.25000000  0.72098100  1
  Nd  Nd15  1  0.50000000  0.25000000  0.66050300  1
  Mg  Mg16  1  1.00000000  0.75000000  0.22652400  1
  Mg  Mg17  1  0.50000000  0.25000000  0.44014300  1
  Mg  Mg18  1  0.50000000  0.75000000  0.39319100  1
  Mg  Mg19  1  0.00000000  0.25000000  0.27347600  1
  Mg  Mg20  1  1.00000000  0.75000000  0.55985700  1
  Mg  Mg21  1  0.50000000  0.25000000  0.77347600  1
  Mg  Mg22  1  0.50000000  0.75000000  0.72652400  1
  Mg  Mg23  1  1.00000000  0.25000000  0.60680900  1
