# generated using pymatgen
data_Er33Mg10
_symmetry_space_group_name_H-M   'P 1'
_cell_length_a   4.99581679
_cell_length_b   9.91985848
_cell_length_c   43.53611200
_cell_angle_alpha   93.50295194
_cell_angle_beta   93.28918622
_cell_angle_gamma   75.41542315
_symmetry_Int_Tables_number   1
_chemical_formula_structural   Er33Mg10
_chemical_formula_sum   'Er33 Mg10'
_cell_volume   2082.15968513
_cell_formula_units_Z   1
loop_
 _symmetry_equiv_pos_site_id
 _symmetry_equiv_pos_as_xyz
  1  'x, y, z'
loop_
 _atom_site_type_symbol
 _atom_site_label
 _atom_site_symmetry_multiplicity
 _atom_site_fract_x
 _atom_site_fract_y
 _atom_site_fract_z
 _atom_site_occupancy
  Er  Er0  1  0.21603500  0.72378600  0.22968200  1
  Er  Er1  1  0.83127100  0.47890900  0.21527800  1
  Er  Er2  1  0.44650700  0.23403200  0.20087300  1
  Er  Er3  1  0.77159000  0.66823000  0.28523800  1
  Er  Er4  1  0.38682600  0.42335300  0.27083300  1
  Er  Er5  1  0.00206300  0.17847600  0.25642900  1
  Er  Er6  1  0.32714600  0.61267500  0.34079300  1
  Er  Er7  1  0.94238200  0.36779800  0.32638900  1
  Er  Er8  1  0.55761800  0.12292100  0.31198400  1
  Er  Er9  1  0.88270100  0.55711900  0.39634900  1
  Er  Er10  1  0.49793700  0.31224200  0.38194400  1
  Er  Er11  1  0.11317400  0.06736500  0.36754000  1
  Er  Er12  1  0.43825700  0.50156300  0.45190500  1
  Er  Er13  1  0.05349300  0.25668700  0.43750000  1
  Er  Er14  1  0.66872900  0.01181000  0.42309500  1
  Er  Er15  1  0.99381200  0.44600800  0.50746000  1
  Er  Er16  1  0.60904900  0.20113100  0.49305600  1
  Er  Er17  1  0.22428500  0.95625400  0.47865100  1
  Er  Er18  1  0.54936800  0.39045200  0.56301600  1
  Er  Er19  1  0.16460400  0.14557600  0.54861100  1
  Er  Er20  1  0.77984000  0.90069900  0.53420700  1
  Er  Er21  1  0.10492400  0.33489700  0.61857100  1
  Er  Er22  1  0.72016000  0.09002000  0.60416700  1
  Er  Er23  1  0.33539600  0.84514300  0.58976200  1
  Er  Er24  1  0.66047900  0.27934100  0.67412700  1
  Er  Er25  1  0.27571500  0.03446400  0.65972200  1
  Er  Er26  1  0.89095100  0.78958800  0.64531800  1
  Er  Er27  1  0.21603500  0.22378600  0.72968200  1
  Er  Er28  1  0.83127100  0.97890900  0.71527800  1
  Er  Er29  1  0.44650700  0.73403200  0.70087300  1
  Er  Er30  1  0.77159000  0.16823000  0.78523800  1
  Er  Er31  1  0.38682600  0.92335300  0.77083300  1
  Er  Er32  1  0.00206300  0.67847600  0.75642900  1
  Mg  Mg33  1  0.60904900  0.95113100  0.24305600  1
  Mg  Mg34  1  0.16460400  0.89557600  0.29861100  1
  Mg  Mg35  1  0.72016000  0.84002000  0.35416700  1
  Mg  Mg36  1  0.27571500  0.78446400  0.40972200  1
  Mg  Mg37  1  0.83127100  0.72890900  0.46527800  1
  Mg  Mg38  1  0.38682600  0.67335300  0.52083300  1
  Mg  Mg39  1  0.94238200  0.61779800  0.57638900  1
  Mg  Mg40  1  0.49793700  0.56224200  0.63194400  1
  Mg  Mg41  1  0.05349300  0.50668700  0.68750000  1
  Mg  Mg42  1  0.60904900  0.45113100  0.74305600  1
