# generated using pymatgen
data_Ho2Mg
_symmetry_space_group_name_H-M   'P 1'
_cell_length_a   5.45155000
_cell_length_b   17.06996100
_cell_length_c   44.08334500
_cell_angle_alpha   90.00000000
_cell_angle_beta   90.00000000
_cell_angle_gamma   90.00000000
_symmetry_Int_Tables_number   1
_chemical_formula_structural   Ho2Mg
_chemical_formula_sum   'Ho56 Mg28'
_cell_volume   4102.29671697
_cell_formula_units_Z   28
loop_
 _symmetry_equiv_pos_site_id
 _symmetry_equiv_pos_as_xyz
  1  'x, y, z'
loop_
 _atom_site_type_symbol
 _atom_site_label
 _atom_site_symmetry_multiplicity
 _atom_site_fract_x
 _atom_site_fract_y
 _atom_site_fract_z
 _atom_site_occupancy
  Ho  Ho0  1  0.25000000  0.90702200  0.27083300  1
  Ho  Ho1  1  0.25000000  0.72733100  0.22916700  1
  Ho  Ho2  1  0.75000000  0.59297800  0.22916700  1
  Ho  Ho3  1  0.75000000  0.77266900  0.27083300  1
  Ho  Ho4  1  0.25000000  0.40702200  0.22916700  1
  Ho  Ho5  1  0.25000000  0.22733100  0.27083300  1
  Ho  Ho6  1  0.75000000  0.09297800  0.27083300  1
  Ho  Ho7  1  0.75000000  0.27266900  0.22916700  1
  Ho  Ho8  1  0.25000000  0.90702200  0.35416700  1
  Ho  Ho9  1  0.25000000  0.72733100  0.31250000  1
  Ho  Ho10  1  0.75000000  0.59297800  0.31250000  1
  Ho  Ho11  1  0.75000000  0.77266900  0.35416700  1
  Ho  Ho12  1  0.25000000  0.40702200  0.31250000  1
  Ho  Ho13  1  0.25000000  0.22733100  0.35416700  1
  Ho  Ho14  1  0.75000000  0.09297800  0.35416700  1
  Ho  Ho15  1  0.75000000  0.27266900  0.31250000  1
  Ho  Ho16  1  0.25000000  0.90702200  0.43750000  1
  Ho  Ho17  1  0.25000000  0.72733100  0.39583300  1
  Ho  Ho18  1  0.75000000  0.59297800  0.39583300  1
  Ho  Ho19  1  0.75000000  0.77266900  0.43750000  1
  Ho  Ho20  1  0.25000000  0.40702200  0.39583300  1
  Ho  Ho21  1  0.25000000  0.22733100  0.43750000  1
  Ho  Ho22  1  0.75000000  0.09297800  0.43750000  1
  Ho  Ho23  1  0.75000000  0.27266900  0.39583300  1
  Ho  Ho24  1  0.25000000  0.90702200  0.52083300  1
  Ho  Ho25  1  0.25000000  0.72733100  0.47916700  1
  Ho  Ho26  1  0.75000000  0.59297800  0.47916700  1
  Ho  Ho27  1  0.75000000  0.77266900  0.52083300  1
  Ho  Ho28  1  0.25000000  0.40702200  0.47916700  1
  Ho  Ho29  1  0.25000000  0.22733100  0.52083300  1
  Ho  Ho30  1  0.75000000  0.09297800  0.52083300  1
  Ho  Ho31  1  0.75000000  0.27266900  0.47916700  1
  Ho  Ho32  1  0.25000000  0.90702200  0.60416700  1
  Ho  Ho33  1  0.25000000  0.72733100  0.56250000  1
  Ho  Ho34  1  0.75000000  0.59297800  0.56250000  1
  Ho  Ho35  1  0.75000000  0.77266900  0.60416700  1
  Ho  Ho36  1  0.25000000  0.40702200  0.56250000  1
  Ho  Ho37  1  0.25000000  0.22733100  0.60416700  1
  Ho  Ho38  1  0.75000000  0.09297800  0.60416700  1
  Ho  Ho39  1  0.75000000  0.27266900  0.56250000  1
  Ho  Ho40  1  0.25000000  0.90702200  0.68750000  1
  Ho  Ho41  1  0.25000000  0.72733100  0.64583300  1
  Ho  Ho42  1  0.75000000  0.59297800  0.64583300  1
  Ho  Ho43  1  0.75000000  0.77266900  0.68750000  1
  Ho  Ho44  1  0.25000000  0.40702200  0.64583300  1
  Ho  Ho45  1  0.25000000  0.22733100  0.68750000  1
  Ho  Ho46  1  0.75000000  0.09297800  0.68750000  1
  Ho  Ho47  1  0.75000000  0.27266900  0.64583300  1
  Ho  Ho48  1  0.25000000  0.90702200  0.77083300  1
  Ho  Ho49  1  0.25000000  0.72733100  0.72916700  1
  Ho  Ho50  1  0.75000000  0.59297800  0.72916700  1
  Ho  Ho51  1  0.75000000  0.77266900  0.77083300  1
  Ho  Ho52  1  0.25000000  0.40702200  0.72916700  1
  Ho  Ho53  1  0.25000000  0.22733100  0.77083300  1
  Ho  Ho54  1  0.75000000  0.09297800  0.77083300  1
  Ho  Ho55  1  0.75000000  0.27266900  0.72916700  1
  Mg  Mg56  1  0.25000000  0.56618100  0.27083300  1
  Mg  Mg57  1  0.75000000  0.93381900  0.22916700  1
  Mg  Mg58  1  0.25000000  0.06618100  0.22916700  1
  Mg  Mg59  1  0.75000000  0.43381900  0.27083300  1
  Mg  Mg60  1  0.25000000  0.56618100  0.35416700  1
  Mg  Mg61  1  0.75000000  0.93381900  0.31250000  1
  Mg  Mg62  1  0.25000000  0.06618100  0.31250000  1
  Mg  Mg63  1  0.75000000  0.43381900  0.35416700  1
  Mg  Mg64  1  0.25000000  0.56618100  0.43750000  1
  Mg  Mg65  1  0.75000000  0.93381900  0.39583300  1
  Mg  Mg66  1  0.25000000  0.06618100  0.39583300  1
  Mg  Mg67  1  0.75000000  0.43381900  0.43750000  1
  Mg  Mg68  1  0.25000000  0.56618100  0.52083300  1
  Mg  Mg69  1  0.75000000  0.93381900  0.47916700  1
  Mg  Mg70  1  0.25000000  0.06618100  0.47916700  1
  Mg  Mg71  1  0.75000000  0.43381900  0.52083300  1
  Mg  Mg72  1  0.25000000  0.56618100  0.60416700  1
  Mg  Mg73  1  0.75000000  0.93381900  0.56250000  1
  Mg  Mg74  1  0.25000000  0.06618100  0.56250000  1
  Mg  Mg75  1  0.75000000  0.43381900  0.60416700  1
  Mg  Mg76  1  0.25000000  0.56618100  0.68750000  1
  Mg  Mg77  1  0.75000000  0.93381900  0.64583300  1
  Mg  Mg78  1  0.25000000  0.06618100  0.64583300  1
  Mg  Mg79  1  0.75000000  0.43381900  0.68750000  1
  Mg  Mg80  1  0.25000000  0.56618100  0.77083300  1
  Mg  Mg81  1  0.75000000  0.93381900  0.72916700  1
  Mg  Mg82  1  0.25000000  0.06618100  0.72916700  1
  Mg  Mg83  1  0.75000000  0.43381900  0.77083300  1
