# generated using pymatgen
data_Mg13Pb5
_symmetry_space_group_name_H-M   'P 1'
_cell_length_a   5.23940800
_cell_length_b   6.53025100
_cell_length_c   45.24290600
_cell_angle_alpha   90.00000000
_cell_angle_beta   90.00000000
_cell_angle_gamma   90.00000000
_symmetry_Int_Tables_number   1
_chemical_formula_structural   Mg13Pb5
_chemical_formula_sum   'Mg26 Pb10'
_cell_volume   1547.97016352
_cell_formula_units_Z   2
loop_
 _symmetry_equiv_pos_site_id
 _symmetry_equiv_pos_as_xyz
  1  'x, y, z'
loop_
 _atom_site_type_symbol
 _atom_site_label
 _atom_site_symmetry_multiplicity
 _atom_site_fract_x
 _atom_site_fract_y
 _atom_site_fract_z
 _atom_site_occupancy
  Mg  Mg0  1  0.75000000  0.12402700  0.19694400  1
  Mg  Mg1  1  0.75000000  0.37986600  0.26090300  1
  Mg  Mg2  1  0.75000000  0.86818800  0.26090300  1
  Mg  Mg3  1  0.25000000  0.37986600  0.30159700  1
  Mg  Mg4  1  0.25000000  0.86818800  0.30159700  1
  Mg  Mg5  1  0.25000000  0.62402700  0.24055600  1
  Mg  Mg6  1  0.75000000  0.62402700  0.32194400  1
  Mg  Mg7  1  0.75000000  0.87986600  0.38590300  1
  Mg  Mg8  1  0.75000000  0.36818800  0.38590300  1
  Mg  Mg9  1  0.25000000  0.87986600  0.42659700  1
  Mg  Mg10  1  0.25000000  0.36818800  0.42659700  1
  Mg  Mg11  1  0.25000000  0.12402700  0.36555600  1
  Mg  Mg12  1  0.75000000  0.12402700  0.44694400  1
  Mg  Mg13  1  0.75000000  0.37986600  0.51090300  1
  Mg  Mg14  1  0.75000000  0.86818800  0.51090300  1
  Mg  Mg15  1  0.25000000  0.37986600  0.55159700  1
  Mg  Mg16  1  0.25000000  0.86818800  0.55159700  1
  Mg  Mg17  1  0.25000000  0.62402700  0.49055600  1
  Mg  Mg18  1  0.75000000  0.62402700  0.57194400  1
  Mg  Mg19  1  0.75000000  0.87986600  0.63590300  1
  Mg  Mg20  1  0.75000000  0.36818800  0.63590300  1
  Mg  Mg21  1  0.25000000  0.87986600  0.67659700  1
  Mg  Mg22  1  0.25000000  0.36818800  0.67659700  1
  Mg  Mg23  1  0.25000000  0.12402700  0.61555600  1
  Mg  Mg24  1  0.75000000  0.12402700  0.69694400  1
  Mg  Mg25  1  0.25000000  0.62402700  0.74055600  1
  Pb  Pb26  1  0.75000000  0.62402700  0.19791700  1
  Pb  Pb27  1  0.25000000  0.12402700  0.23958300  1
  Pb  Pb28  1  0.75000000  0.12402700  0.32291700  1
  Pb  Pb29  1  0.25000000  0.62402700  0.36458300  1
  Pb  Pb30  1  0.75000000  0.62402700  0.44791700  1
  Pb  Pb31  1  0.25000000  0.12402700  0.48958300  1
  Pb  Pb32  1  0.75000000  0.12402700  0.57291700  1
  Pb  Pb33  1  0.25000000  0.62402700  0.61458300  1
  Pb  Pb34  1  0.75000000  0.62402700  0.69791700  1
  Pb  Pb35  1  0.25000000  0.12402700  0.73958300  1
