# generated using pymatgen
data_Pm2Mg
_symmetry_space_group_name_H-M   'P 1'
_cell_length_a   3.81728300
_cell_length_b   5.62611600
_cell_length_c   52.19210500
_cell_angle_alpha   90.00000000
_cell_angle_beta   90.00000000
_cell_angle_gamma   90.00000000
_symmetry_Int_Tables_number   1
_chemical_formula_structural   Pm2Mg
_chemical_formula_sum   'Pm16 Mg8'
_cell_volume   1120.90254067
_cell_formula_units_Z   8
loop_
 _symmetry_equiv_pos_site_id
 _symmetry_equiv_pos_as_xyz
  1  'x, y, z'
loop_
 _atom_site_type_symbol
 _atom_site_label
 _atom_site_symmetry_multiplicity
 _atom_site_fract_x
 _atom_site_fract_y
 _atom_site_fract_z
 _atom_site_occupancy
  Pm  Pm0  1  1.00000000  0.75000000  0.44606200  1
  Pm  Pm1  1  0.50000000  0.75000000  0.17336100  1
  Pm  Pm2  1  0.50000000  0.25000000  0.22060500  1
  Pm  Pm3  1  1.00000000  0.25000000  0.49330600  1
  Pm  Pm4  1  0.50000000  0.75000000  0.27939500  1
  Pm  Pm5  1  0.00000000  0.75000000  0.34002800  1
  Pm  Pm6  1  0.00000000  0.25000000  0.38727100  1
  Pm  Pm7  1  0.50000000  0.25000000  0.32663900  1
  Pm  Pm8  1  1.00000000  0.75000000  0.77939500  1
  Pm  Pm9  1  0.50000000  0.75000000  0.50669400  1
  Pm  Pm10  1  0.50000000  0.25000000  0.55393800  1
  Pm  Pm11  1  0.00000000  0.25000000  0.82663900  1
  Pm  Pm12  1  0.50000000  0.75000000  0.61272900  1
  Pm  Pm13  1  1.00000000  0.75000000  0.67336100  1
  Pm  Pm14  1  0.00000000  0.25000000  0.72060500  1
  Pm  Pm15  1  0.50000000  0.25000000  0.65997200  1
  Mg  Mg16  1  0.00000000  0.75000000  0.22693400  1
  Mg  Mg17  1  0.50000000  0.25000000  0.43973200  1
  Mg  Mg18  1  0.50000000  0.75000000  0.39360100  1
  Mg  Mg19  1  1.00000000  0.25000000  0.27306600  1
  Mg  Mg20  1  0.00000000  0.75000000  0.56026800  1
  Mg  Mg21  1  0.50000000  0.25000000  0.77306600  1
  Mg  Mg22  1  0.50000000  0.75000000  0.72693400  1
  Mg  Mg23  1  0.00000000  0.25000000  0.60639900  1
