# generated using pymatgen
data_Pr19Mg10
_symmetry_space_group_name_H-M   'P 1'
_cell_length_a   3.86864600
_cell_length_b   18.41565457
_cell_length_c   43.75003900
_cell_angle_alpha   95.45902962
_cell_angle_beta   90.00000000
_cell_angle_gamma   90.00000000
_symmetry_Int_Tables_number   1
_chemical_formula_structural   Pr19Mg10
_chemical_formula_sum   'Pr38 Mg20'
_cell_volume   3102.77557697
_cell_formula_units_Z   2
loop_
 _symmetry_equiv_pos_site_id
 _symmetry_equiv_pos_as_xyz
  1  'x, y, z'
loop_
 _atom_site_type_symbol
 _atom_site_label
 _atom_site_symmetry_multiplicity
 _atom_site_fract_x
 _atom_site_fract_y
 _atom_site_fract_z
 _atom_site_occupancy
  Pr  Pr0  1  1.00000000  0.00631700  0.28159100  1
  Pr  Pr1  1  0.50000000  0.84890500  0.30407800  1
  Pr  Pr2  1  0.50000000  0.65691900  0.26007600  1
  Pr  Pr3  1  1.00000000  0.81433000  0.23758900  1
  Pr  Pr4  1  0.50000000  0.44381700  0.21909100  1
  Pr  Pr5  1  1.00000000  0.28640500  0.24157800  1
  Pr  Pr6  1  0.00000000  0.09441900  0.19757600  1
  Pr  Pr7  1  0.50000000  0.37683000  0.30008900  1
  Pr  Pr8  1  1.00000000  0.13131700  0.40659100  1
  Pr  Pr9  1  0.50000000  0.97390500  0.42907800  1
  Pr  Pr10  1  0.50000000  0.78191900  0.38507600  1
  Pr  Pr11  1  1.00000000  0.93933000  0.36258900  1
  Pr  Pr12  1  0.50000000  0.56881700  0.34409100  1
  Pr  Pr13  1  1.00000000  0.41140500  0.36657800  1
  Pr  Pr14  1  1.00000000  0.21941900  0.32257600  1
  Pr  Pr15  1  0.50000000  0.50183000  0.42508900  1
  Pr  Pr16  1  1.00000000  0.25631700  0.53159100  1
  Pr  Pr17  1  0.50000000  0.09890500  0.55407800  1
  Pr  Pr18  1  0.50000000  0.90691900  0.51007600  1
  Pr  Pr19  1  1.00000000  0.06433000  0.48758900  1
  Pr  Pr20  1  0.50000000  0.69381700  0.46909100  1
  Pr  Pr21  1  1.00000000  0.53640500  0.49157800  1
  Pr  Pr22  1  1.00000000  0.34441900  0.44757600  1
  Pr  Pr23  1  0.50000000  0.62683000  0.55008900  1
  Pr  Pr24  1  1.00000000  0.38131700  0.65659100  1
  Pr  Pr25  1  0.50000000  0.22390500  0.67907800  1
  Pr  Pr26  1  0.50000000  0.03191900  0.63507600  1
  Pr  Pr27  1  1.00000000  0.18933000  0.61258900  1
  Pr  Pr28  1  0.50000000  0.81881700  0.59409100  1
  Pr  Pr29  1  1.00000000  0.66140500  0.61657800  1
  Pr  Pr30  1  0.00000000  0.46941900  0.57257600  1
  Pr  Pr31  1  0.50000000  0.75183000  0.67508900  1
  Pr  Pr32  1  1.00000000  0.50631700  0.78159100  1
  Pr  Pr33  1  0.50000000  0.15691900  0.76007600  1
  Pr  Pr34  1  1.00000000  0.31433000  0.73758900  1
  Pr  Pr35  1  0.50000000  0.94381700  0.71909100  1
  Pr  Pr36  1  1.00000000  0.78640500  0.74157800  1
  Pr  Pr37  1  0.00000000  0.59441900  0.69757600  1
  Mg  Mg38  1  0.00000000  0.58197800  0.19935300  1
  Mg  Mg39  1  0.50000000  0.95625800  0.21731300  1
  Mg  Mg40  1  0.50000000  0.14447800  0.26185300  1
  Mg  Mg41  1  1.00000000  0.51875800  0.27981300  1
  Mg  Mg42  1  0.00000000  0.70697800  0.32435300  1
  Mg  Mg43  1  0.50000000  0.08125800  0.34231300  1
  Mg  Mg44  1  0.50000000  0.26947800  0.38685300  1
  Mg  Mg45  1  1.00000000  0.64375800  0.40481300  1
  Mg  Mg46  1  0.00000000  0.83197800  0.44935300  1
  Mg  Mg47  1  0.50000000  0.20625800  0.46731300  1
  Mg  Mg48  1  0.50000000  0.39447800  0.51185300  1
  Mg  Mg49  1  0.00000000  0.76875800  0.52981300  1
  Mg  Mg50  1  1.00000000  0.95697800  0.57435300  1
  Mg  Mg51  1  0.50000000  0.33125800  0.59231300  1
  Mg  Mg52  1  0.50000000  0.51947800  0.63685300  1
  Mg  Mg53  1  0.00000000  0.89375800  0.65481300  1
  Mg  Mg54  1  0.00000000  0.08197800  0.69935300  1
  Mg  Mg55  1  0.50000000  0.45625800  0.71731300  1
  Mg  Mg56  1  0.50000000  0.64447800  0.76185300  1
  Mg  Mg57  1  1.00000000  0.01875800  0.77981300  1
