# generated using pymatgen
data_La16Mg115
_symmetry_space_group_name_H-M   'P 1'
_cell_length_a   10.38875200
_cell_length_b   14.48655120
_cell_length_c   47.03743100
_cell_angle_alpha   91.51171628
_cell_angle_beta   90.00000000
_cell_angle_gamma   68.98788168
_symmetry_Int_Tables_number   1
_chemical_formula_structural   La16Mg115
_chemical_formula_sum   'La16 Mg115'
_cell_volume   6605.64073251
_cell_formula_units_Z   1
loop_
 _symmetry_equiv_pos_site_id
 _symmetry_equiv_pos_as_xyz
  1  'x, y, z'
loop_
 _atom_site_type_symbol
 _atom_site_label
 _atom_site_symmetry_multiplicity
 _atom_site_fract_x
 _atom_site_fract_y
 _atom_site_fract_z
 _atom_site_occupancy
  La  La0  1  0.43071400  0.13857100  0.33709300  1
  La  La1  1  0.14500000  0.71000000  0.31328300  1
  La  La2  1  0.71642900  0.56714300  0.36090200  1
  La  La3  1  0.85928600  0.28142800  0.28947400  1
  La  La4  1  0.14500000  0.71000000  0.47995000  1
  La  La5  1  0.85928600  0.28142800  0.45614000  1
  La  La6  1  0.43071400  0.13857100  0.50375900  1
  La  La7  1  0.57357200  0.85285700  0.43233100  1
  La  La8  1  0.85928600  0.28142800  0.62280700  1
  La  La9  1  0.57357200  0.85285700  0.59899700  1
  La  La10  1  0.14500000  0.71000000  0.64661700  1
  La  La11  1  0.28785700  0.42428500  0.57518800  1
  La  La12  1  0.57357200  0.85285700  0.76566400  1
  La  La13  1  0.28785700  0.42428500  0.74185500  1
  La  La14  1  0.85928600  0.28142800  0.78947400  1
  La  La15  1  0.00214300  0.99571400  0.71804500  1
  Mg  Mg16  1  0.50379100  0.50574900  0.30499800  1
  Mg  Mg17  1  0.99046000  0.50574900  0.30499800  1
  Mg  Mg18  1  0.28785700  0.92428500  0.32518800  1
  Mg  Mg19  1  0.78785700  0.92428500  0.32518800  1
  Mg  Mg20  1  0.28785700  0.42428500  0.32518800  1
  Mg  Mg21  1  0.49166300  0.72269800  0.30905100  1
  Mg  Mg22  1  0.08405100  0.12587300  0.34132500  1
  Mg  Mg23  1  0.78563900  0.72269800  0.30905100  1
  Mg  Mg24  1  0.79007600  0.12587300  0.34132500  1
  Mg  Mg25  1  0.00620800  0.98758300  0.29712400  1
  Mg  Mg26  1  0.07192400  0.34282200  0.34537800  1
  Mg  Mg27  1  0.58525500  0.34282200  0.34537800  1
  Mg  Mg28  1  0.56950600  0.86098800  0.35325200  1
  Mg  Mg29  1  0.21807700  0.07717800  0.44785500  1
  Mg  Mg30  1  0.85141200  0.29717700  0.37452200  1
  Mg  Mg31  1  0.70474500  0.07717800  0.44785500  1
  Mg  Mg32  1  0.43045800  0.65241500  0.42277600  1
  Mg  Mg33  1  0.04547600  0.90904800  0.36304500  1
  Mg  Mg34  1  0.33119000  0.33761900  0.38685500  1
  Mg  Mg35  1  0.24452400  0.51095200  0.43018800  1
  Mg  Mg36  1  0.95881000  0.08238000  0.40637800  1
  Mg  Mg37  1  0.14500000  0.71000000  0.39661700  1
  Mg  Mg38  1  0.64500000  0.21000000  0.39661700  1
  Mg  Mg39  1  0.14500000  0.21000000  0.39661700  1
  Mg  Mg40  1  0.00214300  0.49571400  0.46804500  1
  Mg  Mg41  1  0.50214300  0.49571400  0.46804500  1
  Mg  Mg42  1  0.00214300  0.99571400  0.46804500  1
  Mg  Mg43  1  0.22046400  0.86764000  0.42740300  1
  Mg  Mg44  1  0.58808700  0.42637000  0.40782600  1
  Mg  Mg45  1  0.20594900  0.29412600  0.45190800  1
  Mg  Mg46  1  0.79833700  0.69730200  0.48418300  1
  Mg  Mg47  1  0.70191300  0.99362900  0.38540700  1
  Mg  Mg48  1  0.37810400  0.55236000  0.36583000  1
  Mg  Mg49  1  0.49992500  0.29412600  0.45190800  1
  Mg  Mg50  1  0.06953600  0.55236000  0.36583000  1
  Mg  Mg51  1  0.98554300  0.42637000  0.40782600  1
  Mg  Mg52  1  0.30445800  0.99362900  0.38540700  1
  Mg  Mg53  1  0.91189600  0.86764000  0.42740300  1
  Mg  Mg54  1  0.50436100  0.69730200  0.48418300  1
  Mg  Mg55  1  0.72049400  0.55901200  0.43998100  1
  Mg  Mg56  1  0.78620900  0.91425000  0.48823500  1
  Mg  Mg57  1  0.29954000  0.91425000  0.48823500  1
  Mg  Mg58  1  0.85954200  0.76758400  0.37045700  1
  Mg  Mg59  1  0.37287300  0.76758400  0.37045700  1
  Mg  Mg60  1  0.28379200  0.43241600  0.49610900  1
  Mg  Mg61  1  0.91712700  0.65241500  0.42277600  1
  Mg  Mg62  1  0.43858900  0.12282300  0.41871100  1
  Mg  Mg63  1  0.93236200  0.64860600  0.59071200  1
  Mg  Mg64  1  0.56569700  0.86860600  0.51737900  1
  Mg  Mg65  1  0.41903100  0.64860600  0.59071200  1
  Mg  Mg66  1  0.14474400  0.22384400  0.56563300  1
  Mg  Mg67  1  0.75976200  0.48047600  0.50590200  1
  Mg  Mg68  1  0.04547600  0.90904800  0.52971200  1
  Mg  Mg69  1  0.95881000  0.08238000  0.57304500  1
  Mg  Mg70  1  0.67309600  0.65380900  0.54923500  1
  Mg  Mg71  1  0.85928600  0.28142800  0.53947400  1
  Mg  Mg72  1  0.35928600  0.78142800  0.53947400  1
  Mg  Mg73  1  0.85928600  0.78142800  0.53947400  1
  Mg  Mg74  1  0.71642900  0.06714300  0.61090200  1
  Mg  Mg75  1  0.21642900  0.06714300  0.61090200  1
  Mg  Mg76  1  0.71642900  0.56714300  0.61090200  1
  Mg  Mg77  1  0.93475000  0.43906800  0.57026000  1
  Mg  Mg78  1  0.30237300  0.99779900  0.55068400  1
  Mg  Mg79  1  0.92023500  0.86555500  0.59476500  1
  Mg  Mg80  1  0.51262300  0.26873000  0.62704000  1
  Mg  Mg81  1  0.41619900  0.56505800  0.52826400  1
  Mg  Mg82  1  0.09239000  0.12378800  0.50868700  1
  Mg  Mg83  1  0.21421000  0.86555500  0.59476500  1
  Mg  Mg84  1  0.78382100  0.12378800  0.50868700  1
  Mg  Mg85  1  0.69982800  0.99779900  0.55068400  1
  Mg  Mg86  1  0.01874300  0.56505800  0.52826400  1
  Mg  Mg87  1  0.62618200  0.43906800  0.57026000  1
  Mg  Mg88  1  0.21864700  0.26873000  0.62704000  1
  Mg  Mg89  1  0.43478000  0.13044000  0.58283800  1
  Mg  Mg90  1  0.50049500  0.48567900  0.63109200  1
  Mg  Mg91  1  0.01382600  0.48567900  0.63109200  1
  Mg  Mg92  1  0.57382800  0.33901300  0.51331400  1
  Mg  Mg93  1  0.08715900  0.33901300  0.51331400  1
  Mg  Mg94  1  0.99807800  0.00384500  0.63896600  1
  Mg  Mg95  1  0.63141200  0.22384400  0.56563300  1
  Mg  Mg96  1  0.15287400  0.69425100  0.56156800  1
  Mg  Mg97  1  0.64664800  0.22003500  0.73357000  1
  Mg  Mg98  1  0.27998300  0.44003400  0.66023700  1
  Mg  Mg99  1  0.13331700  0.22003500  0.73357000  1
  Mg  Mg100  1  0.85902900  0.79527300  0.70849000  1
  Mg  Mg101  1  0.47404800  0.05190500  0.64876000  1
  Mg  Mg102  1  0.75976200  0.48047600  0.67256900  1
  Mg  Mg103  1  0.67309600  0.65380900  0.71590200  1
  Mg  Mg104  1  0.38738100  0.22523700  0.69209300  1
  Mg  Mg105  1  0.57357200  0.85285700  0.68233100  1
  Mg  Mg106  1  0.07357200  0.35285700  0.68233100  1
  Mg  Mg107  1  0.57357200  0.35285700  0.68233100  1
  Mg  Mg108  1  0.43071400  0.63857100  0.75375900  1
  Mg  Mg109  1  0.93071400  0.63857100  0.75375900  1
  Mg  Mg110  1  0.43071400  0.13857100  0.75375900  1
  Mg  Mg111  1  0.64903600  0.01049700  0.71311800  1
  Mg  Mg112  1  0.01665900  0.56922700  0.69354100  1
  Mg  Mg113  1  0.63452000  0.43698400  0.73762200  1
  Mg  Mg114  1  0.22690900  0.84015900  0.76989700  1
  Mg  Mg115  1  0.13048500  0.13648600  0.67112100  1
  Mg  Mg116  1  0.80667600  0.69521700  0.65154400  1
  Mg  Mg117  1  0.92849600  0.43698400  0.73762200  1
  Mg  Mg118  1  0.49810700  0.69521700  0.65154400  1
  Mg  Mg119  1  0.41411400  0.56922700  0.69354100  1
  Mg  Mg120  1  0.73302900  0.13648600  0.67112100  1
  Mg  Mg121  1  0.34046700  0.01049700  0.71311800  1
  Mg  Mg122  1  0.93293300  0.84015900  0.76989700  1
  Mg  Mg123  1  0.14906600  0.70186900  0.72569500  1
  Mg  Mg124  1  0.21478100  0.05710700  0.77394900  1
  Mg  Mg125  1  0.72811200  0.05710700  0.77394900  1
  Mg  Mg126  1  0.28811400  0.91044100  0.65617100  1
  Mg  Mg127  1  0.80144500  0.91044100  0.65617100  1
  Mg  Mg128  1  0.71236300  0.57527300  0.78182300  1
  Mg  Mg129  1  0.34569800  0.79527300  0.70849000  1
  Mg  Mg130  1  0.86716000  0.26568000  0.70442500  1
