# generated using pymatgen
data_Mg18Pd35
_symmetry_space_group_name_H-M   'P 1'
_cell_length_a   6.94548378
_cell_length_b   9.19052455
_cell_length_c   43.38640000
_cell_angle_alpha   90.95958529
_cell_angle_beta   93.38110513
_cell_angle_gamma   74.03149322
_symmetry_Int_Tables_number   1
_chemical_formula_structural   Mg18Pd35
_chemical_formula_sum   'Mg36 Pd70'
_cell_volume   2657.96799762
_cell_formula_units_Z   2
loop_
 _symmetry_equiv_pos_site_id
 _symmetry_equiv_pos_as_xyz
  1  'x, y, z'
loop_
 _atom_site_type_symbol
 _atom_site_label
 _atom_site_symmetry_multiplicity
 _atom_site_fract_x
 _atom_site_fract_y
 _atom_site_fract_z
 _atom_site_occupancy
  Mg  Mg0  1  0.09146600  0.36315500  0.19550000  1
  Mg  Mg1  1  0.65158200  0.50836900  0.22116700  1
  Mg  Mg2  1  0.53530900  0.03162400  0.20953900  1
  Mg  Mg3  1  0.20773800  0.83990000  0.20712700  1
  Mg  Mg4  1  0.80575100  0.22029800  0.26692900  1
  Mg  Mg5  1  0.36586800  0.36551200  0.29259500  1
  Mg  Mg6  1  0.24959500  0.88876700  0.28096800  1
  Mg  Mg7  1  0.92202400  0.69704300  0.27855600  1
  Mg  Mg8  1  0.52003700  0.07744000  0.33835700  1
  Mg  Mg9  1  0.08015300  0.22265500  0.36402400  1
  Mg  Mg10  1  0.96388100  0.74590900  0.35239600  1
  Mg  Mg11  1  0.63631000  0.55418600  0.34998500  1
  Mg  Mg12  1  0.23432300  0.93458300  0.40978600  1
  Mg  Mg13  1  0.79443900  0.07979800  0.43545200  1
  Mg  Mg14  1  0.67816600  0.60305200  0.42382500  1
  Mg  Mg15  1  0.35059500  0.41132900  0.42141300  1
  Mg  Mg16  1  0.94860900  0.79172600  0.48121400  1
  Mg  Mg17  1  0.50872500  0.93694100  0.50688100  1
  Mg  Mg18  1  0.39245200  0.46019500  0.49525400  1
  Mg  Mg19  1  0.06488100  0.26847200  0.49284200  1
  Mg  Mg20  1  0.66289400  0.64886900  0.55264300  1
  Mg  Mg21  1  0.22301100  0.79408300  0.57830900  1
  Mg  Mg22  1  0.10673800  0.31733800  0.56668200  1
  Mg  Mg23  1  0.77916700  0.12561400  0.56427000  1
  Mg  Mg24  1  0.37718000  0.50601200  0.62407200  1
  Mg  Mg25  1  0.93729600  0.65122600  0.64973800  1
  Mg  Mg26  1  0.82102400  0.17448100  0.63811100  1
  Mg  Mg27  1  0.49345300  0.98275700  0.63569900  1
  Mg  Mg28  1  0.09146600  0.36315500  0.69550000  1
  Mg  Mg29  1  0.65158200  0.50836900  0.72116700  1
  Mg  Mg30  1  0.53530900  0.03162400  0.70953900  1
  Mg  Mg31  1  0.20773800  0.83990000  0.70712700  1
  Mg  Mg32  1  0.80575100  0.22029800  0.76692900  1
  Mg  Mg33  1  0.36586800  0.36551200  0.79259500  1
  Mg  Mg34  1  0.24959500  0.88876700  0.78096800  1
  Mg  Mg35  1  0.92202400  0.69704300  0.77855600  1
  Pd  Pd36  1  0.89284600  0.93959400  0.24272800  1
  Pd  Pd37  1  0.56448700  0.78907200  0.24536800  1
  Pd  Pd38  1  0.43434400  0.31510100  0.23235300  1
  Pd  Pd39  1  0.30870400  0.55642300  0.18431300  1
  Pd  Pd40  1  0.92418100  0.66394000  0.21218800  1
  Pd  Pd41  1  0.81886700  0.20758400  0.20447900  1
  Pd  Pd42  1  0.55897300  0.75956300  0.17849000  1
  Pd  Pd43  1  0.18407400  0.11196100  0.23817700  1
  Pd  Pd44  1  0.60713200  0.79673700  0.31415600  1
  Pd  Pd45  1  0.27877300  0.64621500  0.31679600  1
  Pd  Pd46  1  0.14862900  0.17224400  0.30378200  1
  Pd  Pd47  1  0.02299000  0.41356600  0.25574200  1
  Pd  Pd48  1  0.63846600  0.52108300  0.28361600  1
  Pd  Pd49  1  0.53315300  0.06472700  0.27590800  1
  Pd  Pd50  1  0.27325900  0.61670500  0.24991800  1
  Pd  Pd51  1  0.89836000  0.96910400  0.30960600  1
  Pd  Pd52  1  0.32141700  0.65388000  0.38558500  1
  Pd  Pd53  1  0.99305900  0.50335800  0.38822500  1
  Pd  Pd54  1  0.86291500  0.02938700  0.37521000  1
  Pd  Pd55  1  0.73727500  0.27070900  0.32717100  1
  Pd  Pd56  1  0.35275200  0.37822600  0.35504500  1
  Pd  Pd57  1  0.24743800  0.92186900  0.34733600  1
  Pd  Pd58  1  0.98754500  0.47384800  0.32134700  1
  Pd  Pd59  1  0.61264600  0.82624700  0.38103400  1
  Pd  Pd60  1  0.03570300  0.51102300  0.45701300  1
  Pd  Pd61  1  0.70734500  0.36050100  0.45965300  1
  Pd  Pd62  1  0.57720100  0.88653000  0.44663900  1
  Pd  Pd63  1  0.45156100  0.12785100  0.39859900  1
  Pd  Pd64  1  0.06703800  0.23536900  0.42647300  1
  Pd  Pd65  1  0.96172400  0.77901200  0.41876500  1
  Pd  Pd66  1  0.70183000  0.33099100  0.39277500  1
  Pd  Pd67  1  0.32693200  0.68339000  0.45246300  1
  Pd  Pd68  1  0.74998900  0.36816600  0.52844200  1
  Pd  Pd69  1  0.42163000  0.21764400  0.53108200  1
  Pd  Pd70  1  0.29148700  0.74367200  0.51806800  1
  Pd  Pd71  1  0.16584700  0.98499400  0.47002800  1
  Pd  Pd72  1  0.78132300  0.09251200  0.49790200  1
  Pd  Pd73  1  0.67601000  0.63615500  0.49019300  1
  Pd  Pd74  1  0.41611600  0.18813400  0.46420400  1
  Pd  Pd75  1  0.04121700  0.54053300  0.52389100  1
  Pd  Pd76  1  0.46427500  0.22530900  0.59987100  1
  Pd  Pd77  1  0.13591600  0.07478700  0.60251000  1
  Pd  Pd78  1  0.00577200  0.60081500  0.58949600  1
  Pd  Pd79  1  0.88013200  0.84213700  0.54145600  1
  Pd  Pd80  1  0.49560900  0.94965400  0.56933100  1
  Pd  Pd81  1  0.39029600  0.49329800  0.56162200  1
  Pd  Pd82  1  0.13040200  0.04527700  0.53563200  1
  Pd  Pd83  1  0.75550300  0.39767600  0.59532000  1
  Pd  Pd84  1  0.17856000  0.08245200  0.67129900  1
  Pd  Pd85  1  0.85020200  0.93192900  0.67393900  1
  Pd  Pd86  1  0.72005800  0.45795800  0.66092500  1
  Pd  Pd87  1  0.59441800  0.69928000  0.61288500  1
  Pd  Pd88  1  0.20989500  0.80679700  0.64075900  1
  Pd  Pd89  1  0.10458100  0.35044100  0.63305000  1
  Pd  Pd90  1  0.84468700  0.90242000  0.60706100  1
  Pd  Pd91  1  0.46978900  0.25481800  0.66674900  1
  Pd  Pd92  1  0.89284600  0.93959400  0.74272800  1
  Pd  Pd93  1  0.56448700  0.78907200  0.74536800  1
  Pd  Pd94  1  0.43434400  0.31510100  0.73235300  1
  Pd  Pd95  1  0.30870400  0.55642300  0.68431300  1
  Pd  Pd96  1  0.92418100  0.66394000  0.71218800  1
  Pd  Pd97  1  0.81886700  0.20758400  0.70447900  1
  Pd  Pd98  1  0.55897300  0.75956300  0.67849000  1
  Pd  Pd99  1  0.18407400  0.11196100  0.73817700  1
  Pd  Pd100  1  0.14862900  0.17224400  0.80378200  1
  Pd  Pd101  1  0.02299000  0.41356600  0.75574200  1
  Pd  Pd102  1  0.63846600  0.52108300  0.78361600  1
  Pd  Pd103  1  0.53315300  0.06472700  0.77590800  1
  Pd  Pd104  1  0.27325900  0.61670500  0.74991800  1
  Pd  Pd105  1  0.89836000  0.96910400  0.80960600  1
