# generated using pymatgen
data_Mg16Zn75
_symmetry_space_group_name_H-M   'P 1'
_cell_length_a   4.98183571
_cell_length_b   9.87228479
_cell_length_c   49.62169200
_cell_angle_alpha   87.16066620
_cell_angle_beta   87.12264785
_cell_angle_gamma   75.38550100
_symmetry_Int_Tables_number   1
_chemical_formula_structural   Mg16Zn75
_chemical_formula_sum   'Mg16 Zn75'
_cell_volume   2356.84330036
_cell_formula_units_Z   1
loop_
 _symmetry_equiv_pos_site_id
 _symmetry_equiv_pos_as_xyz
  1  'x, y, z'
loop_
 _atom_site_type_symbol
 _atom_site_label
 _atom_site_symmetry_multiplicity
 _atom_site_fract_x
 _atom_site_fract_y
 _atom_site_fract_z
 _atom_site_occupancy
  Mg  Mg0  1  0.67063800  0.87032900  0.78839400  1
  Mg  Mg1  1  0.18904600  0.87558000  0.74632800  1
  Mg  Mg2  1  0.50921200  0.16351600  0.81805900  1
  Mg  Mg3  1  0.35047200  0.58239200  0.71666300  1
  Mg  Mg4  1  0.50397200  0.37032900  0.62172800  1
  Mg  Mg5  1  0.02238000  0.37558000  0.57966100  1
  Mg  Mg6  1  0.34254600  0.66351600  0.65139200  1
  Mg  Mg7  1  0.18380600  0.08239200  0.54999600  1
  Mg  Mg8  1  0.33730500  0.87032900  0.45506100  1
  Mg  Mg9  1  0.85571300  0.87558000  0.41299500  1
  Mg  Mg10  1  0.17587900  0.16351600  0.48472600  1
  Mg  Mg11  1  0.01713900  0.58239200  0.38333000  1
  Mg  Mg12  1  0.17063800  0.37032900  0.28839400  1
  Mg  Mg13  1  0.68904600  0.37558000  0.24632800  1
  Mg  Mg14  1  0.00921200  0.66351600  0.31805900  1
  Mg  Mg15  1  0.85047200  0.08239200  0.21666300  1
  Zn  Zn16  1  0.42984200  0.37295400  0.76736100  1
  Zn  Zn17  1  0.92773700  0.34601800  0.79850900  1
  Zn  Zn18  1  0.78105900  0.60942500  0.82845600  1
  Zn  Zn19  1  0.76663400  0.73535800  0.73137400  1
  Zn  Zn20  1  0.09305100  0.01055100  0.80334800  1
  Zn  Zn21  1  0.71794100  0.37890200  0.67991500  1
  Zn  Zn22  1  0.80275700  0.13661800  0.76357900  1
  Zn  Zn23  1  0.93194800  0.39989100  0.73621300  1
  Zn  Zn24  1  0.22522500  0.73910900  0.81044000  1
  Zn  Zn25  1  0.56263900  0.60929000  0.77114300  1
  Zn  Zn26  1  0.29704600  0.13661800  0.76357900  1
  Zn  Zn27  1  0.05692800  0.60929000  0.77114300  1
  Zn  Zn28  1  0.46977600  0.86700600  0.68814100  1
  Zn  Zn29  1  0.07862500  0.13648300  0.70626600  1
  Zn  Zn30  1  0.22324200  0.37890200  0.67991500  1
  Zn  Zn31  1  0.97507700  0.86700600  0.68814100  1
  Zn  Zn32  1  0.84650900  0.62295400  0.68402800  1
  Zn  Zn33  1  0.50290400  0.27337900  0.72081400  1
  Zn  Zn34  1  0.35678100  0.47252900  0.81390900  1
  Zn  Zn35  1  0.63445900  0.00680000  0.72428200  1
  Zn  Zn36  1  0.26317600  0.87295400  0.60069400  1
  Zn  Zn37  1  0.76107000  0.84601800  0.63184200  1
  Zn  Zn38  1  0.61439300  0.10942500  0.66179000  1
  Zn  Zn39  1  0.59996700  0.23535800  0.56470700  1
  Zn  Zn40  1  0.92638400  0.51055100  0.63668200  1
  Zn  Zn41  1  0.55127400  0.87890200  0.51324800  1
  Zn  Zn42  1  0.63609000  0.63661800  0.59691300  1
  Zn  Zn43  1  0.76528100  0.89989100  0.56954600  1
  Zn  Zn44  1  0.05855900  0.23910900  0.64377400  1
  Zn  Zn45  1  0.39597200  0.10929000  0.60447600  1
  Zn  Zn46  1  0.13037900  0.63661800  0.59691300  1
  Zn  Zn47  1  0.89026100  0.10929000  0.60447600  1
  Zn  Zn48  1  0.30310900  0.36700600  0.52147400  1
  Zn  Zn49  1  0.91195900  0.63648300  0.53959900  1
  Zn  Zn50  1  0.05657600  0.87890200  0.51324800  1
  Zn  Zn51  1  0.80841000  0.36700600  0.52147400  1
  Zn  Zn52  1  0.67984200  0.12295400  0.51736100  1
  Zn  Zn53  1  0.33623700  0.77337900  0.55414700  1
  Zn  Zn54  1  0.19011400  0.97252900  0.64724200  1
  Zn  Zn55  1  0.46779300  0.50680000  0.55761500  1
  Zn  Zn56  1  0.09650900  0.37295400  0.43402800  1
  Zn  Zn57  1  0.59440300  0.34601800  0.46517600  1
  Zn  Zn58  1  0.44772600  0.60942500  0.49512300  1
  Zn  Zn59  1  0.43330100  0.73535800  0.39804100  1
  Zn  Zn60  1  0.75971700  0.01055100  0.47001500  1
  Zn  Zn61  1  0.38460800  0.37890200  0.34658100  1
  Zn  Zn62  1  0.46942400  0.13661800  0.43024600  1
  Zn  Zn63  1  0.59861500  0.39989100  0.40288000  1
  Zn  Zn64  1  0.89189200  0.73910900  0.47710700  1
  Zn  Zn65  1  0.22930600  0.60929000  0.43781000  1
  Zn  Zn66  1  0.96371200  0.13661800  0.43024600  1
  Zn  Zn67  1  0.72359400  0.60929000  0.43781000  1
  Zn  Zn68  1  0.13644200  0.86700600  0.35480800  1
  Zn  Zn69  1  0.74529200  0.13648300  0.37293300  1
  Zn  Zn70  1  0.88990900  0.37890200  0.34658100  1
  Zn  Zn71  1  0.64174400  0.86700600  0.35480800  1
  Zn  Zn72  1  0.51317600  0.62295400  0.35069400  1
  Zn  Zn73  1  0.16957000  0.27337900  0.38748000  1
  Zn  Zn74  1  0.02344800  0.47252900  0.48057500  1
  Zn  Zn75  1  0.30112600  0.00680000  0.39094800  1
  Zn  Zn76  1  0.92984200  0.87295400  0.26736100  1
  Zn  Zn77  1  0.42773700  0.84601800  0.29850900  1
  Zn  Zn78  1  0.28105900  0.10942500  0.32845600  1
  Zn  Zn79  1  0.26663400  0.23535800  0.23137400  1
  Zn  Zn80  1  0.59305100  0.51055100  0.30334800  1
  Zn  Zn81  1  0.30275700  0.63661800  0.26357900  1
  Zn  Zn82  1  0.43194800  0.89989100  0.23621300  1
  Zn  Zn83  1  0.72522500  0.23910900  0.31044000  1
  Zn  Zn84  1  0.06263900  0.10929000  0.27114300  1
  Zn  Zn85  1  0.79704600  0.63661800  0.26357900  1
  Zn  Zn86  1  0.55692800  0.10929000  0.27114300  1
  Zn  Zn87  1  0.57862500  0.63648300  0.20626600  1
  Zn  Zn88  1  0.00290400  0.77337900  0.22081400  1
  Zn  Zn89  1  0.85678100  0.97252900  0.31390900  1
  Zn  Zn90  1  0.13445900  0.50680000  0.22428200  1
