# generated using pymatgen
data_Ho2Mg
_symmetry_space_group_name_H-M   'P 1'
_cell_length_a   3.67361200
_cell_length_b   8.73039271
_cell_length_c   43.61239800
_cell_angle_alpha   90.00000000
_cell_angle_beta   90.00000000
_cell_angle_gamma   102.14533359
_symmetry_Int_Tables_number   1
_chemical_formula_structural   Ho2Mg
_chemical_formula_sum   'Ho20 Mg10'
_cell_volume   1367.43222537
_cell_formula_units_Z   10
loop_
 _symmetry_equiv_pos_site_id
 _symmetry_equiv_pos_as_xyz
  1  'x, y, z'
loop_
 _atom_site_type_symbol
 _atom_site_label
 _atom_site_symmetry_multiplicity
 _atom_site_fract_x
 _atom_site_fract_y
 _atom_site_fract_z
 _atom_site_occupancy
  Ho  Ho0  1  0.90702200  0.81404400  0.21875000  1
  Ho  Ho1  1  0.22733100  0.45466100  0.21875000  1
  Ho  Ho2  1  0.09297800  0.18595600  0.28125000  1
  Ho  Ho3  1  0.77266900  0.54533900  0.28125000  1
  Ho  Ho4  1  0.90702200  0.81404400  0.34375000  1
  Ho  Ho5  1  0.22733100  0.45466100  0.34375000  1
  Ho  Ho6  1  0.09297800  0.18595600  0.40625000  1
  Ho  Ho7  1  0.77266900  0.54533900  0.40625000  1
  Ho  Ho8  1  0.90702200  0.81404400  0.46875000  1
  Ho  Ho9  1  0.22733100  0.45466100  0.46875000  1
  Ho  Ho10  1  0.09297800  0.18595600  0.53125000  1
  Ho  Ho11  1  0.77266900  0.54533900  0.53125000  1
  Ho  Ho12  1  0.90702200  0.81404400  0.59375000  1
  Ho  Ho13  1  0.22733100  0.45466100  0.59375000  1
  Ho  Ho14  1  0.09297800  0.18595600  0.65625000  1
  Ho  Ho15  1  0.77266900  0.54533900  0.65625000  1
  Ho  Ho16  1  0.90702200  0.81404400  0.71875000  1
  Ho  Ho17  1  0.22733100  0.45466100  0.71875000  1
  Ho  Ho18  1  0.09297800  0.18595600  0.78125000  1
  Ho  Ho19  1  0.77266900  0.54533900  0.78125000  1
  Mg  Mg20  1  0.56618100  0.13236300  0.21875000  1
  Mg  Mg21  1  0.43381900  0.86763700  0.28125000  1
  Mg  Mg22  1  0.56618100  0.13236300  0.34375000  1
  Mg  Mg23  1  0.43381900  0.86763700  0.40625000  1
  Mg  Mg24  1  0.56618100  0.13236300  0.46875000  1
  Mg  Mg25  1  0.43381900  0.86763700  0.53125000  1
  Mg  Mg26  1  0.56618100  0.13236300  0.59375000  1
  Mg  Mg27  1  0.43381900  0.86763700  0.65625000  1
  Mg  Mg28  1  0.56618100  0.13236300  0.71875000  1
  Mg  Mg29  1  0.43381900  0.86763700  0.78125000  1
