# generated using pymatgen
data_Mg3Pt19
_symmetry_space_group_name_H-M   'P 1'
_cell_length_a   5.61828165
_cell_length_b   5.61828232
_cell_length_c   45.98761800
_cell_angle_alpha   86.49792520
_cell_angle_beta   86.49792479
_cell_angle_gamma   59.99999838
_symmetry_Int_Tables_number   1
_chemical_formula_structural   Mg3Pt19
_chemical_formula_sum   'Mg6 Pt38'
_cell_volume   1253.99433926
_cell_formula_units_Z   2
loop_
 _symmetry_equiv_pos_site_id
 _symmetry_equiv_pos_as_xyz
  1  'x, y, z'
loop_
 _atom_site_type_symbol
 _atom_site_label
 _atom_site_symmetry_multiplicity
 _atom_site_fract_x
 _atom_site_fract_y
 _atom_site_fract_z
 _atom_site_occupancy
  Mg  Mg0  1  0.67500000  0.27500000  0.27500000  1
  Mg  Mg1  1  0.97500000  0.57500000  0.37500000  1
  Mg  Mg2  1  0.27500000  0.87500000  0.47500000  1
  Mg  Mg3  1  0.57500000  0.17500000  0.57500000  1
  Mg  Mg4  1  0.87500000  0.47500000  0.67500000  1
  Mg  Mg5  1  0.17500000  0.77500000  0.77500000  1
  Pt  Pt6  1  0.67500000  0.77500000  0.27500000  1
  Pt  Pt7  1  0.17500000  0.27500000  0.27500000  1
  Pt  Pt8  1  0.17500000  0.77500000  0.27500000  1
  Pt  Pt9  1  0.32500000  0.42500000  0.32500000  1
  Pt  Pt10  1  0.97500000  0.07500000  0.37500000  1
  Pt  Pt11  1  0.82500000  0.92500000  0.32500000  1
  Pt  Pt12  1  0.47500000  0.57500000  0.37500000  1
  Pt  Pt13  1  0.82500000  0.42500000  0.32500000  1
  Pt  Pt14  1  0.47500000  0.07500000  0.37500000  1
  Pt  Pt15  1  0.32500000  0.92500000  0.32500000  1
  Pt  Pt16  1  0.62500000  0.72500000  0.42500000  1
  Pt  Pt17  1  0.27500000  0.37500000  0.47500000  1
  Pt  Pt18  1  0.12500000  0.22500000  0.42500000  1
  Pt  Pt19  1  0.77500000  0.87500000  0.47500000  1
  Pt  Pt20  1  0.12500000  0.72500000  0.42500000  1
  Pt  Pt21  1  0.77500000  0.37500000  0.47500000  1
  Pt  Pt22  1  0.62500000  0.22500000  0.42500000  1
  Pt  Pt23  1  0.92500000  0.02500000  0.52500000  1
  Pt  Pt24  1  0.57500000  0.67500000  0.57500000  1
  Pt  Pt25  1  0.42500000  0.52500000  0.52500000  1
  Pt  Pt26  1  0.07500000  0.17500000  0.57500000  1
  Pt  Pt27  1  0.42500000  0.02500000  0.52500000  1
  Pt  Pt28  1  0.07500000  0.67500000  0.57500000  1
  Pt  Pt29  1  0.92500000  0.52500000  0.52500000  1
  Pt  Pt30  1  0.22500000  0.32500000  0.62500000  1
  Pt  Pt31  1  0.87500000  0.97500000  0.67500000  1
  Pt  Pt32  1  0.72500000  0.82500000  0.62500000  1
  Pt  Pt33  1  0.37500000  0.47500000  0.67500000  1
  Pt  Pt34  1  0.72500000  0.32500000  0.62500000  1
  Pt  Pt35  1  0.37500000  0.97500000  0.67500000  1
  Pt  Pt36  1  0.22500000  0.82500000  0.62500000  1
  Pt  Pt37  1  0.52500000  0.62500000  0.72500000  1
  Pt  Pt38  1  0.17500000  0.27500000  0.77500000  1
  Pt  Pt39  1  0.02500000  0.12500000  0.72500000  1
  Pt  Pt40  1  0.67500000  0.77500000  0.77500000  1
  Pt  Pt41  1  0.02500000  0.62500000  0.72500000  1
  Pt  Pt42  1  0.67500000  0.27500000  0.77500000  1
  Pt  Pt43  1  0.52500000  0.12500000  0.72500000  1
