# generated using pymatgen
data_Mg3Tl
_symmetry_space_group_name_H-M   'P 1'
_cell_length_a   6.45355300
_cell_length_b   6.45355339
_cell_length_c   41.59268100
_cell_angle_alpha   90.00000000
_cell_angle_beta   90.00000000
_cell_angle_gamma   120.00000315
_symmetry_Int_Tables_number   1
_chemical_formula_structural   Mg3Tl
_chemical_formula_sum   'Mg30 Tl10'
_cell_volume   1500.18673588
_cell_formula_units_Z   10
loop_
 _symmetry_equiv_pos_site_id
 _symmetry_equiv_pos_as_xyz
  1  'x, y, z'
loop_
 _atom_site_type_symbol
 _atom_site_label
 _atom_site_symmetry_multiplicity
 _atom_site_fract_x
 _atom_site_fract_y
 _atom_site_fract_z
 _atom_site_occupancy
  Mg  Mg0  1  0.33019200  0.16509600  0.28125000  1
  Mg  Mg1  1  0.83490400  0.66980800  0.28125000  1
  Mg  Mg2  1  0.83490400  0.16509600  0.28125000  1
  Mg  Mg3  1  0.16509600  0.83490400  0.21875000  1
  Mg  Mg4  1  0.16509600  0.33019200  0.21875000  1
  Mg  Mg5  1  0.66980800  0.83490400  0.21875000  1
  Mg  Mg6  1  0.33019200  0.16509600  0.40625000  1
  Mg  Mg7  1  0.83490400  0.66980800  0.40625000  1
  Mg  Mg8  1  0.83490400  0.16509600  0.40625000  1
  Mg  Mg9  1  0.16509600  0.83490400  0.34375000  1
  Mg  Mg10  1  0.16509600  0.33019200  0.34375000  1
  Mg  Mg11  1  0.66980800  0.83490400  0.34375000  1
  Mg  Mg12  1  0.33019200  0.16509600  0.53125000  1
  Mg  Mg13  1  0.83490400  0.66980800  0.53125000  1
  Mg  Mg14  1  0.83490400  0.16509600  0.53125000  1
  Mg  Mg15  1  0.16509600  0.83490400  0.46875000  1
  Mg  Mg16  1  0.16509600  0.33019200  0.46875000  1
  Mg  Mg17  1  0.66980800  0.83490400  0.46875000  1
  Mg  Mg18  1  0.33019200  0.16509600  0.65625000  1
  Mg  Mg19  1  0.83490400  0.66980800  0.65625000  1
  Mg  Mg20  1  0.83490400  0.16509600  0.65625000  1
  Mg  Mg21  1  0.16509600  0.83490400  0.59375000  1
  Mg  Mg22  1  0.16509600  0.33019200  0.59375000  1
  Mg  Mg23  1  0.66980800  0.83490400  0.59375000  1
  Mg  Mg24  1  0.33019200  0.16509600  0.78125000  1
  Mg  Mg25  1  0.83490400  0.66980800  0.78125000  1
  Mg  Mg26  1  0.83490400  0.16509600  0.78125000  1
  Mg  Mg27  1  0.16509600  0.83490400  0.71875000  1
  Mg  Mg28  1  0.16509600  0.33019200  0.71875000  1
  Mg  Mg29  1  0.66980800  0.83490400  0.71875000  1
  Tl  Tl30  1  0.33333300  0.66666700  0.28125000  1
  Tl  Tl31  1  0.66666700  0.33333300  0.21875000  1
  Tl  Tl32  1  0.33333300  0.66666700  0.40625000  1
  Tl  Tl33  1  0.66666700  0.33333300  0.34375000  1
  Tl  Tl34  1  0.33333300  0.66666700  0.53125000  1
  Tl  Tl35  1  0.66666700  0.33333300  0.46875000  1
  Tl  Tl36  1  0.33333300  0.66666700  0.65625000  1
  Tl  Tl37  1  0.66666700  0.33333300  0.59375000  1
  Tl  Tl38  1  0.33333300  0.66666700  0.78125000  1
  Tl  Tl39  1  0.66666700  0.33333300  0.71875000  1
