# generated using pymatgen
data_Ce16Mg127
_symmetry_space_group_name_H-M   'P 1'
_cell_length_a   10.33012900
_cell_length_b   14.43775486
_cell_length_c   46.86335100
_cell_angle_alpha   91.26380978
_cell_angle_beta   90.00000000
_cell_angle_gamma   69.03810193
_symmetry_Int_Tables_number   1
_chemical_formula_structural   Ce16Mg127
_chemical_formula_sum   'Ce16 Mg127'
_cell_volume   6524.99326643
_cell_formula_units_Z   1
loop_
 _symmetry_equiv_pos_site_id
 _symmetry_equiv_pos_as_xyz
  1  'x, y, z'
loop_
 _atom_site_type_symbol
 _atom_site_label
 _atom_site_symmetry_multiplicity
 _atom_site_fract_x
 _atom_site_fract_y
 _atom_site_fract_z
 _atom_site_occupancy
  Ce  Ce0  1  0.89542000  0.20915900  0.26691700  1
  Ce  Ce1  1  0.75256300  0.49487400  0.33834600  1
  Ce  Ce2  1  0.46684900  0.06630200  0.31453600  1
  Ce  Ce3  1  0.18113500  0.63773100  0.29072700  1
  Ce  Ce4  1  0.60970600  0.78058800  0.40977400  1
  Ce  Ce5  1  0.46684900  0.06630200  0.48120300  1
  Ce  Ce6  1  0.18113500  0.63773100  0.45739300  1
  Ce  Ce7  1  0.89542000  0.20915900  0.43358400  1
  Ce  Ce8  1  0.32399200  0.35201600  0.55263200  1
  Ce  Ce9  1  0.18113500  0.63773100  0.62406000  1
  Ce  Ce10  1  0.89542000  0.20915900  0.60025100  1
  Ce  Ce11  1  0.60970600  0.78058800  0.57644100  1
  Ce  Ce12  1  0.03827800  0.92344500  0.69548900  1
  Ce  Ce13  1  0.89542000  0.20915900  0.76691700  1
  Ce  Ce14  1  0.60970600  0.78058800  0.74310800  1
  Ce  Ce15  1  0.32399200  0.35201600  0.71929800  1
  Mg  Mg16  1  0.32399200  0.35201600  0.30263200  1
  Mg  Mg17  1  0.10825100  0.27015700  0.32272200  1
  Mg  Mg18  1  0.75211200  0.00911600  0.25746200  1
  Mg  Mg19  1  0.88734600  0.22530800  0.35206400  1
  Mg  Mg20  1  0.82261000  0.64969800  0.28673800  1
  Mg  Mg21  1  0.56618900  0.86762300  0.26486700  1
  Mg  Mg22  1  0.89587200  0.69491600  0.34780200  1
  Mg  Mg23  1  0.12029100  0.05433500  0.31852500  1
  Mg  Mg24  1  0.23877200  0.00911600  0.25746200  1
  Mg  Mg25  1  0.23298400  0.22337500  0.26217900  1
  Mg  Mg26  1  0.52769300  0.64969800  0.28673800  1
  Mg  Mg27  1  0.62159200  0.27015700  0.32272200  1
  Mg  Mg28  1  0.76063800  0.47872500  0.25319900  1
  Mg  Mg29  1  0.04254000  0.91491900  0.27446700  1
  Mg  Mg30  1  0.60544300  0.78911300  0.33079600  1
  Mg  Mg31  1  0.02639200  0.43387600  0.28254200  1
  Mg  Mg32  1  0.32399200  0.85201600  0.30263200  1
  Mg  Mg33  1  0.54364100  0.22337500  0.26217900  1
  Mg  Mg34  1  0.82537400  0.05433500  0.31852500  1
  Mg  Mg35  1  0.08179500  0.83641000  0.34039700  1
  Mg  Mg36  1  0.53973200  0.43387600  0.28254200  1
  Mg  Mg37  1  0.10434300  0.48065800  0.34308400  1
  Mg  Mg38  1  0.40921200  0.69491600  0.34780200  1
  Mg  Mg39  1  0.82399200  0.85201600  0.30263200  1
  Mg  Mg40  1  0.41499900  0.48065800  0.34308400  1
  Mg  Mg41  1  0.03827800  0.92344500  0.44548900  1
  Mg  Mg42  1  0.68113500  0.13773100  0.37406000  1
  Mg  Mg43  1  0.82253700  0.84158500  0.46557900  1
  Mg  Mg44  1  0.46639800  0.58054500  0.40031900  1
  Mg  Mg45  1  0.60163200  0.79673600  0.49492200  1
  Mg  Mg46  1  0.53689500  0.22112600  0.42959500  1
  Mg  Mg47  1  0.28047400  0.43905100  0.40772400  1
  Mg  Mg48  1  0.99476000  0.01048000  0.38391400  1
  Mg  Mg49  1  0.61015700  0.26634500  0.49065900  1
  Mg  Mg50  1  0.62565400  0.35426500  0.38521500  1
  Mg  Mg51  1  0.83457700  0.62576400  0.46138300  1
  Mg  Mg52  1  0.95305700  0.58054500  0.40031900  1
  Mg  Mg53  1  0.94727000  0.79480300  0.40503600  1
  Mg  Mg54  1  0.24197800  0.22112600  0.42959500  1
  Mg  Mg55  1  0.33587800  0.84158500  0.46557900  1
  Mg  Mg56  1  0.47492300  0.05015300  0.39605600  1
  Mg  Mg57  1  0.75682600  0.48634800  0.41732400  1
  Mg  Mg58  1  0.31972900  0.36054200  0.47365300  1
  Mg  Mg59  1  0.36750900  0.26498100  0.36420600  1
  Mg  Mg60  1  0.74067700  0.00530500  0.42539900  1
  Mg  Mg61  1  0.03827800  0.42344500  0.44548900  1
  Mg  Mg62  1  0.25792700  0.79480300  0.40503600  1
  Mg  Mg63  1  0.53966000  0.62576400  0.46138300  1
  Mg  Mg64  1  0.79608100  0.40783800  0.48325400  1
  Mg  Mg65  1  0.25401800  0.00530500  0.42539900  1
  Mg  Mg66  1  0.34218900  0.92119600  0.36290500  1
  Mg  Mg67  1  0.81862800  0.05208600  0.48594200  1
  Mg  Mg68  1  0.12349800  0.26634500  0.49065900  1
  Mg  Mg69  1  0.73661500  0.92119600  0.36290500  1
  Mg  Mg70  1  0.53827800  0.42344500  0.44548900  1
  Mg  Mg71  1  0.02008100  0.35426500  0.38521500  1
  Mg  Mg72  1  0.12928500  0.05208600  0.48594200  1
  Mg  Mg73  1  0.18113500  0.13773100  0.37406000  1
  Mg  Mg74  1  0.18113500  0.63773100  0.37406000  1
  Mg  Mg75  1  0.75256300  0.49487400  0.58834600  1
  Mg  Mg76  1  0.39542000  0.70915900  0.51691700  1
  Mg  Mg77  1  0.53682300  0.41301400  0.60843600  1
  Mg  Mg78  1  0.18068400  0.15197300  0.54317600  1
  Mg  Mg79  1  0.31591800  0.36816500  0.63777900  1
  Mg  Mg80  1  0.25118100  0.79255500  0.57245200  1
  Mg  Mg81  1  0.99476000  0.01048000  0.55058100  1
  Mg  Mg82  1  0.70904600  0.58190900  0.52677100  1
  Mg  Mg83  1  0.32444300  0.83777400  0.63351600  1
  Mg  Mg84  1  0.33994000  0.92569300  0.52807300  1
  Mg  Mg85  1  0.54886200  0.19719200  0.60424000  1
  Mg  Mg86  1  0.66734300  0.15197300  0.54317600  1
  Mg  Mg87  1  0.66155600  0.36623200  0.54789300  1
  Mg  Mg88  1  0.95626400  0.79255500  0.57245200  1
  Mg  Mg89  1  0.05016300  0.41301400  0.60843600  1
  Mg  Mg90  1  0.18920900  0.62158200  0.53891300  1
  Mg  Mg91  1  0.47111200  0.05777700  0.56018200  1
  Mg  Mg92  1  0.03401500  0.93197000  0.61651000  1
  Mg  Mg93  1  0.08179500  0.83641000  0.50706300  1
  Mg  Mg94  1  0.45496300  0.57673300  0.56825600  1
  Mg  Mg95  1  0.75256300  0.99487400  0.58834600  1
  Mg  Mg96  1  0.97221200  0.36623200  0.54789300  1
  Mg  Mg97  1  0.25394500  0.19719200  0.60424000  1
  Mg  Mg98  1  0.51036600  0.97926700  0.62611100  1
  Mg  Mg99  1  0.96830400  0.57673300  0.56825600  1
  Mg  Mg100  1  0.05647400  0.49262500  0.50576200  1
  Mg  Mg101  1  0.53291400  0.62351500  0.62879900  1
  Mg  Mg102  1  0.83778300  0.83777400  0.63351600  1
  Mg  Mg103  1  0.45090100  0.49262500  0.50576200  1
  Mg  Mg104  1  0.25256300  0.99487400  0.58834600  1
  Mg  Mg105  1  0.73436600  0.92569300  0.52807300  1
  Mg  Mg106  1  0.84357100  0.62351500  0.62879900  1
  Mg  Mg107  1  0.89542000  0.70915900  0.51691700  1
  Mg  Mg108  1  0.89542000  0.20915900  0.51691700  1
  Mg  Mg109  1  0.46684900  0.06630200  0.73120300  1
  Mg  Mg110  1  0.10970600  0.28058800  0.65977400  1
  Mg  Mg111  1  0.25110900  0.98444200  0.75129300  1
  Mg  Mg112  1  0.89496900  0.72340200  0.68603300  1
  Mg  Mg113  1  0.03020300  0.93959400  0.78063600  1
  Mg  Mg114  1  0.96546700  0.36398300  0.71530900  1
  Mg  Mg115  1  0.70904600  0.58190900  0.69343800  1
  Mg  Mg116  1  0.42333100  0.15333700  0.66962800  1
  Mg  Mg117  1  0.03872900  0.40920200  0.77637300  1
  Mg  Mg118  1  0.05422600  0.49712200  0.67093000  1
  Mg  Mg119  1  0.26314800  0.76862100  0.74709700  1
  Mg  Mg120  1  0.38162900  0.72340200  0.68603300  1
  Mg  Mg121  1  0.37584100  0.93766100  0.69075000  1
  Mg  Mg122  1  0.67055000  0.36398300  0.71530900  1
  Mg  Mg123  1  0.76444900  0.98444200  0.75129300  1
  Mg  Mg124  1  0.90349500  0.19301100  0.68177000  1
  Mg  Mg125  1  0.18539700  0.62920500  0.70303900  1
  Mg  Mg126  1  0.74830100  0.50339900  0.75936700  1
  Mg  Mg127  1  0.79608100  0.40783800  0.64992000  1
  Mg  Mg128  1  0.16924900  0.14816200  0.71111300  1
  Mg  Mg129  1  0.46684900  0.56630200  0.73120300  1
  Mg  Mg130  1  0.68649800  0.93766100  0.69075000  1
  Mg  Mg131  1  0.96823100  0.76862100  0.74709700  1
  Mg  Mg132  1  0.22465200  0.55069600  0.76896800  1
  Mg  Mg133  1  0.68258900  0.14816200  0.71111300  1
  Mg  Mg134  1  0.77076000  0.06405400  0.64861900  1
  Mg  Mg135  1  0.24720000  0.19494400  0.77165600  1
  Mg  Mg136  1  0.55206900  0.40920200  0.77637300  1
  Mg  Mg137  1  0.16518600  0.06405400  0.64861900  1
  Mg  Mg138  1  0.96684900  0.56630200  0.73120300  1
  Mg  Mg139  1  0.44865200  0.49712200  0.67093000  1
  Mg  Mg140  1  0.55785700  0.19494400  0.77165600  1
  Mg  Mg141  1  0.60970600  0.28058800  0.65977400  1
  Mg  Mg142  1  0.60970600  0.78058800  0.65977400  1
