# generated using pymatgen
data_MgPb
_symmetry_space_group_name_H-M   'P 1'
_cell_length_a   6.27756332
_cell_length_b   6.83301719
_cell_length_c   41.55959300
_cell_angle_alpha   90.98588911
_cell_angle_beta   89.86933671
_cell_angle_gamma   73.64349051
_symmetry_Int_Tables_number   1
_chemical_formula_structural   MgPb
_chemical_formula_sum   'Mg20 Pb20'
_cell_volume   1710.23693644
_cell_formula_units_Z   20
loop_
 _symmetry_equiv_pos_site_id
 _symmetry_equiv_pos_as_xyz
  1  'x, y, z'
loop_
 _atom_site_type_symbol
 _atom_site_label
 _atom_site_symmetry_multiplicity
 _atom_site_fract_x
 _atom_site_fract_y
 _atom_site_fract_z
 _atom_site_occupancy
  Mg  Mg0  1  0.64161300  0.10225700  0.21459700  1
  Mg  Mg1  1  0.10838700  0.71024300  0.22290300  1
  Mg  Mg2  1  0.39161300  0.91475700  0.27709700  1
  Mg  Mg3  1  0.85838700  0.52274300  0.28540300  1
  Mg  Mg4  1  0.14161300  0.72725700  0.33959700  1
  Mg  Mg5  1  0.60838700  0.33524300  0.34790300  1
  Mg  Mg6  1  0.89161300  0.53975700  0.40209700  1
  Mg  Mg7  1  0.35838700  0.14774300  0.41040300  1
  Mg  Mg8  1  0.64161300  0.35225700  0.46459700  1
  Mg  Mg9  1  0.10838700  0.96024300  0.47290300  1
  Mg  Mg10  1  0.39161300  0.16475700  0.52709700  1
  Mg  Mg11  1  0.85838700  0.77274300  0.53540300  1
  Mg  Mg12  1  0.14161300  0.97725700  0.58959700  1
  Mg  Mg13  1  0.60838700  0.58524300  0.59790300  1
  Mg  Mg14  1  0.89161300  0.78975700  0.65209700  1
  Mg  Mg15  1  0.35838700  0.39774300  0.66040300  1
  Mg  Mg16  1  0.64161300  0.60225700  0.71459700  1
  Mg  Mg17  1  0.10838700  0.21024300  0.72290300  1
  Mg  Mg18  1  0.39161300  0.41475700  0.77709700  1
  Mg  Mg19  1  0.85838700  0.02274300  0.78540300  1
  Pb  Pb20  1  0.63599600  0.62051300  0.21600100  1
  Pb  Pb21  1  0.11400400  0.19198700  0.22149900  1
  Pb  Pb22  1  0.38599600  0.43301300  0.27850100  1
  Pb  Pb23  1  0.86400400  0.00448700  0.28399900  1
  Pb  Pb24  1  0.13599600  0.24551300  0.34100100  1
  Pb  Pb25  1  0.61400400  0.81698700  0.34649900  1
  Pb  Pb26  1  0.88599600  0.05801300  0.40350100  1
  Pb  Pb27  1  0.36400400  0.62948700  0.40899900  1
  Pb  Pb28  1  0.63599600  0.87051300  0.46600100  1
  Pb  Pb29  1  0.11400400  0.44198700  0.47149900  1
  Pb  Pb30  1  0.38599600  0.68301300  0.52850100  1
  Pb  Pb31  1  0.86400400  0.25448700  0.53399900  1
  Pb  Pb32  1  0.13599600  0.49551300  0.59100100  1
  Pb  Pb33  1  0.61400400  0.06698700  0.59649900  1
  Pb  Pb34  1  0.88599600  0.30801300  0.65350100  1
  Pb  Pb35  1  0.36400400  0.87948700  0.65899900  1
  Pb  Pb36  1  0.63599600  0.12051300  0.71600100  1
  Pb  Pb37  1  0.11400400  0.69198700  0.72149900  1
  Pb  Pb38  1  0.38599600  0.93301300  0.77850100  1
  Pb  Pb39  1  0.86400400  0.50448700  0.78399900  1
