# generated using pymatgen
data_Pr11Mg144
_symmetry_space_group_name_H-M   'P 1'
_cell_length_a   11.89036443
_cell_length_b   11.89036505
_cell_length_c   46.00650700
_cell_angle_alpha   89.87692136
_cell_angle_beta   90.12307864
_cell_angle_gamma   104.41604234
_symmetry_Int_Tables_number   1
_chemical_formula_structural   Pr11Mg144
_chemical_formula_sum   'Pr11 Mg144'
_cell_volume   6299.61031861
_cell_formula_units_Z   1
loop_
 _symmetry_equiv_pos_site_id
 _symmetry_equiv_pos_as_xyz
  1  'x, y, z'
loop_
 _atom_site_type_symbol
 _atom_site_label
 _atom_site_symmetry_multiplicity
 _atom_site_fract_x
 _atom_site_fract_y
 _atom_site_fract_z
 _atom_site_occupancy
  Pr  Pr0  1  0.18522500  0.81477500  0.29807700  1
  Pr  Pr1  1  0.58522500  0.41477500  0.24807700  1
  Pr  Pr2  1  0.38522500  0.61477500  0.39807700  1
  Pr  Pr3  1  0.78522500  0.21477500  0.34807700  1
  Pr  Pr4  1  0.58522500  0.41477500  0.49807700  1
  Pr  Pr5  1  0.98522500  0.01477500  0.44807700  1
  Pr  Pr6  1  0.78522500  0.21477500  0.59807700  1
  Pr  Pr7  1  0.18522500  0.81477500  0.54807700  1
  Pr  Pr8  1  0.98522500  0.01477500  0.69807700  1
  Pr  Pr9  1  0.38522500  0.61477500  0.64807700  1
  Pr  Pr10  1  0.58522500  0.41477500  0.74807700  1
  Mg  Mg11  1  0.28522500  0.21477500  0.22307700  1
  Mg  Mg12  1  0.88522500  0.11477500  0.27307700  1
  Mg  Mg13  1  0.78522500  0.21477500  0.22307700  1
  Mg  Mg14  1  0.38522500  0.11477500  0.27307700  1
  Mg  Mg15  1  0.86702500  0.48522500  0.21285200  1
  Mg  Mg16  1  0.05567500  0.29657500  0.23330200  1
  Mg  Mg17  1  0.11477500  0.53297500  0.26285200  1
  Mg  Mg18  1  0.30342500  0.34432500  0.28330200  1
  Mg  Mg19  1  0.31474500  0.47215500  0.21938700  1
  Mg  Mg20  1  0.04260500  0.74429500  0.22676700  1
  Mg  Mg21  1  0.12784500  0.08525500  0.26938700  1
  Mg  Mg22  1  0.85570500  0.35739500  0.27676700  1
  Mg  Mg23  1  0.88522500  0.61477500  0.27307700  1
  Mg  Mg24  1  0.28522500  0.71477500  0.22307700  1
  Mg  Mg25  1  0.38522500  0.61477500  0.27307700  1
  Mg  Mg26  1  0.78522500  0.71477500  0.22307700  1
  Mg  Mg27  1  0.46702500  0.88522500  0.26285200  1
  Mg  Mg28  1  0.65567500  0.69657500  0.28330200  1
  Mg  Mg29  1  0.51477500  0.13297500  0.21285200  1
  Mg  Mg30  1  0.70342500  0.94432500  0.23330200  1
  Mg  Mg31  1  0.91474500  0.87215500  0.26938700  1
  Mg  Mg32  1  0.64260500  0.14429500  0.27676700  1
  Mg  Mg33  1  0.52784500  0.68525500  0.21938700  1
  Mg  Mg34  1  0.25570500  0.95739500  0.22676700  1
  Mg  Mg35  1  0.48522500  0.01477500  0.32307700  1
  Mg  Mg36  1  0.08522500  0.91477500  0.37307700  1
  Mg  Mg37  1  0.98522500  0.01477500  0.32307700  1
  Mg  Mg38  1  0.58522500  0.91477500  0.37307700  1
  Mg  Mg39  1  0.06702500  0.28522500  0.31285200  1
  Mg  Mg40  1  0.25567500  0.09657500  0.33330200  1
  Mg  Mg41  1  0.31477500  0.33297500  0.36285200  1
  Mg  Mg42  1  0.50342500  0.14432500  0.38330200  1
  Mg  Mg43  1  0.51474500  0.27215500  0.31938700  1
  Mg  Mg44  1  0.24260500  0.54429500  0.32676700  1
  Mg  Mg45  1  0.32784500  0.88525500  0.36938700  1
  Mg  Mg46  1  0.05570500  0.15739500  0.37676700  1
  Mg  Mg47  1  0.08522500  0.41477500  0.37307700  1
  Mg  Mg48  1  0.48522500  0.51477500  0.32307700  1
  Mg  Mg49  1  0.58522500  0.41477500  0.37307700  1
  Mg  Mg50  1  0.98522500  0.51477500  0.32307700  1
  Mg  Mg51  1  0.66702500  0.68522500  0.36285200  1
  Mg  Mg52  1  0.85567500  0.49657500  0.38330200  1
  Mg  Mg53  1  0.71477500  0.93297500  0.31285200  1
  Mg  Mg54  1  0.90342500  0.74432500  0.33330200  1
  Mg  Mg55  1  0.11474500  0.67215500  0.36938700  1
  Mg  Mg56  1  0.84260500  0.94429500  0.37676700  1
  Mg  Mg57  1  0.72784500  0.48525500  0.31938700  1
  Mg  Mg58  1  0.45570500  0.75739500  0.32676700  1
  Mg  Mg59  1  0.68522500  0.81477500  0.42307700  1
  Mg  Mg60  1  0.28522500  0.71477500  0.47307700  1
  Mg  Mg61  1  0.18522500  0.81477500  0.42307700  1
  Mg  Mg62  1  0.78522500  0.71477500  0.47307700  1
  Mg  Mg63  1  0.26702500  0.08522500  0.41285200  1
  Mg  Mg64  1  0.45567500  0.89657500  0.43330200  1
  Mg  Mg65  1  0.51477500  0.13297500  0.46285200  1
  Mg  Mg66  1  0.70342500  0.94432500  0.48330200  1
  Mg  Mg67  1  0.71474500  0.07215500  0.41938700  1
  Mg  Mg68  1  0.44260500  0.34429500  0.42676700  1
  Mg  Mg69  1  0.52784500  0.68525500  0.46938700  1
  Mg  Mg70  1  0.25570500  0.95739500  0.47676700  1
  Mg  Mg71  1  0.28522500  0.21477500  0.47307700  1
  Mg  Mg72  1  0.68522500  0.31477500  0.42307700  1
  Mg  Mg73  1  0.78522500  0.21477500  0.47307700  1
  Mg  Mg74  1  0.18522500  0.31477500  0.42307700  1
  Mg  Mg75  1  0.86702500  0.48522500  0.46285200  1
  Mg  Mg76  1  0.05567500  0.29657500  0.48330200  1
  Mg  Mg77  1  0.91477500  0.73297500  0.41285200  1
  Mg  Mg78  1  0.10342500  0.54432500  0.43330200  1
  Mg  Mg79  1  0.31474500  0.47215500  0.46938700  1
  Mg  Mg80  1  0.04260500  0.74429500  0.47676700  1
  Mg  Mg81  1  0.92784500  0.28525500  0.41938700  1
  Mg  Mg82  1  0.65570500  0.55739500  0.42676700  1
  Mg  Mg83  1  0.88522500  0.61477500  0.52307700  1
  Mg  Mg84  1  0.48522500  0.51477500  0.57307700  1
  Mg  Mg85  1  0.38522500  0.61477500  0.52307700  1
  Mg  Mg86  1  0.98522500  0.51477500  0.57307700  1
  Mg  Mg87  1  0.46702500  0.88522500  0.51285200  1
  Mg  Mg88  1  0.65567500  0.69657500  0.53330200  1
  Mg  Mg89  1  0.71477500  0.93297500  0.56285200  1
  Mg  Mg90  1  0.90342500  0.74432500  0.58330200  1
  Mg  Mg91  1  0.91474500  0.87215500  0.51938700  1
  Mg  Mg92  1  0.64260500  0.14429500  0.52676700  1
  Mg  Mg93  1  0.72784500  0.48525500  0.56938700  1
  Mg  Mg94  1  0.45570500  0.75739500  0.57676700  1
  Mg  Mg95  1  0.48522500  0.01477500  0.57307700  1
  Mg  Mg96  1  0.88522500  0.11477500  0.52307700  1
  Mg  Mg97  1  0.98522500  0.01477500  0.57307700  1
  Mg  Mg98  1  0.38522500  0.11477500  0.52307700  1
  Mg  Mg99  1  0.06702500  0.28522500  0.56285200  1
  Mg  Mg100  1  0.25567500  0.09657500  0.58330200  1
  Mg  Mg101  1  0.11477500  0.53297500  0.51285200  1
  Mg  Mg102  1  0.30342500  0.34432500  0.53330200  1
  Mg  Mg103  1  0.51474500  0.27215500  0.56938700  1
  Mg  Mg104  1  0.24260500  0.54429500  0.57676700  1
  Mg  Mg105  1  0.12784500  0.08525500  0.51938700  1
  Mg  Mg106  1  0.85570500  0.35739500  0.52676700  1
  Mg  Mg107  1  0.08522500  0.41477500  0.62307700  1
  Mg  Mg108  1  0.68522500  0.31477500  0.67307700  1
  Mg  Mg109  1  0.58522500  0.41477500  0.62307700  1
  Mg  Mg110  1  0.18522500  0.31477500  0.67307700  1
  Mg  Mg111  1  0.66702500  0.68522500  0.61285200  1
  Mg  Mg112  1  0.85567500  0.49657500  0.63330200  1
  Mg  Mg113  1  0.91477500  0.73297500  0.66285200  1
  Mg  Mg114  1  0.10342500  0.54432500  0.68330200  1
  Mg  Mg115  1  0.11474500  0.67215500  0.61938700  1
  Mg  Mg116  1  0.84260500  0.94429500  0.62676700  1
  Mg  Mg117  1  0.92784500  0.28525500  0.66938700  1
  Mg  Mg118  1  0.65570500  0.55739500  0.67676700  1
  Mg  Mg119  1  0.68522500  0.81477500  0.67307700  1
  Mg  Mg120  1  0.08522500  0.91477500  0.62307700  1
  Mg  Mg121  1  0.18522500  0.81477500  0.67307700  1
  Mg  Mg122  1  0.58522500  0.91477500  0.62307700  1
  Mg  Mg123  1  0.26702500  0.08522500  0.66285200  1
  Mg  Mg124  1  0.45567500  0.89657500  0.68330200  1
  Mg  Mg125  1  0.31477500  0.33297500  0.61285200  1
  Mg  Mg126  1  0.50342500  0.14432500  0.63330200  1
  Mg  Mg127  1  0.71474500  0.07215500  0.66938700  1
  Mg  Mg128  1  0.44260500  0.34429500  0.67676700  1
  Mg  Mg129  1  0.32784500  0.88525500  0.61938700  1
  Mg  Mg130  1  0.05570500  0.15739500  0.62676700  1
  Mg  Mg131  1  0.28522500  0.21477500  0.72307700  1
  Mg  Mg132  1  0.88522500  0.11477500  0.77307700  1
  Mg  Mg133  1  0.78522500  0.21477500  0.72307700  1
  Mg  Mg134  1  0.38522500  0.11477500  0.77307700  1
  Mg  Mg135  1  0.86702500  0.48522500  0.71285200  1
  Mg  Mg136  1  0.05567500  0.29657500  0.73330200  1
  Mg  Mg137  1  0.11477500  0.53297500  0.76285200  1
  Mg  Mg138  1  0.30342500  0.34432500  0.78330200  1
  Mg  Mg139  1  0.31474500  0.47215500  0.71938700  1
  Mg  Mg140  1  0.04260500  0.74429500  0.72676700  1
  Mg  Mg141  1  0.12784500  0.08525500  0.76938700  1
  Mg  Mg142  1  0.85570500  0.35739500  0.77676700  1
  Mg  Mg143  1  0.88522500  0.61477500  0.77307700  1
  Mg  Mg144  1  0.28522500  0.71477500  0.72307700  1
  Mg  Mg145  1  0.38522500  0.61477500  0.77307700  1
  Mg  Mg146  1  0.78522500  0.71477500  0.72307700  1
  Mg  Mg147  1  0.46702500  0.88522500  0.76285200  1
  Mg  Mg148  1  0.65567500  0.69657500  0.78330200  1
  Mg  Mg149  1  0.51477500  0.13297500  0.71285200  1
  Mg  Mg150  1  0.70342500  0.94432500  0.73330200  1
  Mg  Mg151  1  0.91474500  0.87215500  0.76938700  1
  Mg  Mg152  1  0.64260500  0.14429500  0.77676700  1
  Mg  Mg153  1  0.52784500  0.68525500  0.71938700  1
  Mg  Mg154  1  0.25570500  0.95739500  0.72676700  1
