# generated using pymatgen
data_Mg5Au14
_symmetry_space_group_name_H-M   'P 1'
_cell_length_a   9.58286600
_cell_length_b   19.98313900
_cell_length_c   47.89865500
_cell_angle_alpha   90.00000000
_cell_angle_beta   90.00000000
_cell_angle_gamma   90.00000000
_symmetry_Int_Tables_number   1
_chemical_formula_structural   Mg5Au14
_chemical_formula_sum   'Mg80 Au224'
_cell_volume   9172.38854212
_cell_formula_units_Z   16
loop_
 _symmetry_equiv_pos_site_id
 _symmetry_equiv_pos_as_xyz
  1  'x, y, z'
loop_
 _atom_site_type_symbol
 _atom_site_label
 _atom_site_symmetry_multiplicity
 _atom_site_fract_x
 _atom_site_fract_y
 _atom_site_fract_z
 _atom_site_occupancy
  Mg  Mg0  1  0.50079800  0.62386400  0.23437500  1
  Mg  Mg1  1  0.49920200  0.87613600  0.29687500  1
  Mg  Mg2  1  0.00079800  0.87613600  0.29687500  1
  Mg  Mg3  1  0.99920200  0.62386400  0.23437500  1
  Mg  Mg4  1  0.75000000  0.96274000  0.23437500  1
  Mg  Mg5  1  0.25000000  0.53726000  0.29687500  1
  Mg  Mg6  1  0.75000000  0.71024100  0.29687500  1
  Mg  Mg7  1  0.25000000  0.78975900  0.23437500  1
  Mg  Mg8  1  0.50079800  0.12386400  0.29687500  1
  Mg  Mg9  1  0.49920200  0.37613600  0.23437500  1
  Mg  Mg10  1  0.00079800  0.37613600  0.23437500  1
  Mg  Mg11  1  0.99920200  0.12386400  0.29687500  1
  Mg  Mg12  1  0.75000000  0.46274000  0.29687500  1
  Mg  Mg13  1  0.25000000  0.03726000  0.23437500  1
  Mg  Mg14  1  0.75000000  0.21024100  0.23437500  1
  Mg  Mg15  1  0.25000000  0.28975900  0.29687500  1
  Mg  Mg16  1  0.50079800  0.62386400  0.35937500  1
  Mg  Mg17  1  0.49920200  0.87613600  0.42187500  1
  Mg  Mg18  1  0.00079800  0.87613600  0.42187500  1
  Mg  Mg19  1  0.99920200  0.62386400  0.35937500  1
  Mg  Mg20  1  0.75000000  0.96274000  0.35937500  1
  Mg  Mg21  1  0.25000000  0.53726000  0.42187500  1
  Mg  Mg22  1  0.75000000  0.71024100  0.42187500  1
  Mg  Mg23  1  0.25000000  0.78975900  0.35937500  1
  Mg  Mg24  1  0.50079800  0.12386400  0.42187500  1
  Mg  Mg25  1  0.49920200  0.37613600  0.35937500  1
  Mg  Mg26  1  0.00079800  0.37613600  0.35937500  1
  Mg  Mg27  1  0.99920200  0.12386400  0.42187500  1
  Mg  Mg28  1  0.75000000  0.46274000  0.42187500  1
  Mg  Mg29  1  0.25000000  0.03726000  0.35937500  1
  Mg  Mg30  1  0.75000000  0.21024100  0.35937500  1
  Mg  Mg31  1  0.25000000  0.28975900  0.42187500  1
  Mg  Mg32  1  0.50079800  0.62386400  0.48437500  1
  Mg  Mg33  1  0.49920200  0.87613600  0.54687500  1
  Mg  Mg34  1  0.00079800  0.87613600  0.54687500  1
  Mg  Mg35  1  0.99920200  0.62386400  0.48437500  1
  Mg  Mg36  1  0.75000000  0.96274000  0.48437500  1
  Mg  Mg37  1  0.25000000  0.53726000  0.54687500  1
  Mg  Mg38  1  0.75000000  0.71024100  0.54687500  1
  Mg  Mg39  1  0.25000000  0.78975900  0.48437500  1
  Mg  Mg40  1  0.50079800  0.12386400  0.54687500  1
  Mg  Mg41  1  0.49920200  0.37613600  0.48437500  1
  Mg  Mg42  1  0.00079800  0.37613600  0.48437500  1
  Mg  Mg43  1  0.99920200  0.12386400  0.54687500  1
  Mg  Mg44  1  0.75000000  0.46274000  0.54687500  1
  Mg  Mg45  1  0.25000000  0.03726000  0.48437500  1
  Mg  Mg46  1  0.75000000  0.21024100  0.48437500  1
  Mg  Mg47  1  0.25000000  0.28975900  0.54687500  1
  Mg  Mg48  1  0.50079800  0.62386400  0.60937500  1
  Mg  Mg49  1  0.49920200  0.87613600  0.67187500  1
  Mg  Mg50  1  0.00079800  0.87613600  0.67187500  1
  Mg  Mg51  1  0.99920200  0.62386400  0.60937500  1
  Mg  Mg52  1  0.75000000  0.96274000  0.60937500  1
  Mg  Mg53  1  0.25000000  0.53726000  0.67187500  1
  Mg  Mg54  1  0.75000000  0.71024100  0.67187500  1
  Mg  Mg55  1  0.25000000  0.78975900  0.60937500  1
  Mg  Mg56  1  0.50079800  0.12386400  0.67187500  1
  Mg  Mg57  1  0.49920200  0.37613600  0.60937500  1
  Mg  Mg58  1  0.00079800  0.37613600  0.60937500  1
  Mg  Mg59  1  0.99920200  0.12386400  0.67187500  1
  Mg  Mg60  1  0.75000000  0.46274000  0.67187500  1
  Mg  Mg61  1  0.25000000  0.03726000  0.60937500  1
  Mg  Mg62  1  0.75000000  0.21024100  0.60937500  1
  Mg  Mg63  1  0.25000000  0.28975900  0.67187500  1
  Mg  Mg64  1  0.50079800  0.62386400  0.73437500  1
  Mg  Mg65  1  0.49920200  0.87613600  0.79687500  1
  Mg  Mg66  1  0.00079800  0.87613600  0.79687500  1
  Mg  Mg67  1  0.99920200  0.62386400  0.73437500  1
  Mg  Mg68  1  0.75000000  0.96274000  0.73437500  1
  Mg  Mg69  1  0.25000000  0.53726000  0.79687500  1
  Mg  Mg70  1  0.75000000  0.71024100  0.79687500  1
  Mg  Mg71  1  0.25000000  0.78975900  0.73437500  1
  Mg  Mg72  1  0.50079800  0.12386400  0.79687500  1
  Mg  Mg73  1  0.49920200  0.37613600  0.73437500  1
  Mg  Mg74  1  0.00079800  0.37613600  0.73437500  1
  Mg  Mg75  1  0.99920200  0.12386400  0.79687500  1
  Mg  Mg76  1  0.75000000  0.46274000  0.79687500  1
  Mg  Mg77  1  0.25000000  0.03726000  0.73437500  1
  Mg  Mg78  1  0.75000000  0.21024100  0.73437500  1
  Mg  Mg79  1  0.25000000  0.28975900  0.79687500  1
  Au  Au80  1  0.50000000  0.00000000  0.26548500  1
  Au  Au81  1  0.00000000  0.00000000  0.26548500  1
  Au  Au82  1  0.99945100  0.87396200  0.23437500  1
  Au  Au83  1  0.00054900  0.62603800  0.29687500  1
  Au  Au84  1  0.49945100  0.62603800  0.29687500  1
  Au  Au85  1  0.50054900  0.87396200  0.23437500  1
  Au  Au86  1  0.25000000  0.66325700  0.26537000  1
  Au  Au87  1  0.75000000  0.83674300  0.26588000  1
  Au  Au88  1  0.75000000  0.58700800  0.26568100  1
  Au  Au89  1  0.25000000  0.91299200  0.26556900  1
  Au  Au90  1  0.50000000  0.75000000  0.26562500  1
  Au  Au91  1  0.00000000  0.75000000  0.26562500  1
  Au  Au92  1  0.75000000  0.71177600  0.23437500  1
  Au  Au93  1  0.25000000  0.78822400  0.29687500  1
  Au  Au94  1  0.75000000  0.95941500  0.29687500  1
  Au  Au95  1  0.25000000  0.54058500  0.23437500  1
  Au  Au96  1  0.00000000  0.50000000  0.26576500  1
  Au  Au97  1  0.50000000  0.50000000  0.26576500  1
  Au  Au98  1  0.99945100  0.37396200  0.29687500  1
  Au  Au99  1  0.00054900  0.12603800  0.23437500  1
  Au  Au100  1  0.49945100  0.12603800  0.23437500  1
  Au  Au101  1  0.50054900  0.37396200  0.29687500  1
  Au  Au102  1  0.75000000  0.33674300  0.26537000  1
  Au  Au103  1  0.25000000  0.16325700  0.26588000  1
  Au  Au104  1  0.25000000  0.41299200  0.26568100  1
  Au  Au105  1  0.75000000  0.08700800  0.26556900  1
  Au  Au106  1  0.50000000  0.25000000  0.26562500  1
  Au  Au107  1  0.00000000  0.25000000  0.26562500  1
  Au  Au108  1  0.75000000  0.21177600  0.29687500  1
  Au  Au109  1  0.25000000  0.28822400  0.23437500  1
  Au  Au110  1  0.75000000  0.45941500  0.23437500  1
  Au  Au111  1  0.25000000  0.04058500  0.29687500  1
  Au  Au112  1  0.00000000  0.00000000  0.32826500  1
  Au  Au113  1  0.50000000  0.00000000  0.39048500  1
  Au  Au114  1  0.00000000  0.00000000  0.39048500  1
  Au  Au115  1  0.50000000  0.00000000  0.32826500  1
  Au  Au116  1  0.99945100  0.87396200  0.35937500  1
  Au  Au117  1  0.00054900  0.62603800  0.42187500  1
  Au  Au118  1  0.49945100  0.62603800  0.42187500  1
  Au  Au119  1  0.50054900  0.87396200  0.35937500  1
  Au  Au120  1  0.25000000  0.66325700  0.39037000  1
  Au  Au121  1  0.75000000  0.83674300  0.32787000  1
  Au  Au122  1  0.75000000  0.83674300  0.39088000  1
  Au  Au123  1  0.25000000  0.66325700  0.32838000  1
  Au  Au124  1  0.25000000  0.91299200  0.32818100  1
  Au  Au125  1  0.75000000  0.58700800  0.39068100  1
  Au  Au126  1  0.75000000  0.58700800  0.32806900  1
  Au  Au127  1  0.25000000  0.91299200  0.39056900  1
  Au  Au128  1  0.50000000  0.75000000  0.32812500  1
  Au  Au129  1  0.50000000  0.75000000  0.39062500  1
  Au  Au130  1  0.00000000  0.75000000  0.32812500  1
  Au  Au131  1  0.00000000  0.75000000  0.39062500  1
  Au  Au132  1  0.75000000  0.71177600  0.35937500  1
  Au  Au133  1  0.25000000  0.78822400  0.42187500  1
  Au  Au134  1  0.75000000  0.95941500  0.42187500  1
  Au  Au135  1  0.25000000  0.54058500  0.35937500  1
  Au  Au136  1  0.00000000  0.50000000  0.39076500  1
  Au  Au137  1  0.50000000  0.50000000  0.32798500  1
  Au  Au138  1  0.00000000  0.50000000  0.32798500  1
  Au  Au139  1  0.50000000  0.50000000  0.39076500  1
  Au  Au140  1  0.99945100  0.37396200  0.42187500  1
  Au  Au141  1  0.00054900  0.12603800  0.35937500  1
  Au  Au142  1  0.49945100  0.12603800  0.35937500  1
  Au  Au143  1  0.50054900  0.37396200  0.42187500  1
  Au  Au144  1  0.25000000  0.16325700  0.32787000  1
  Au  Au145  1  0.75000000  0.33674300  0.39037000  1
  Au  Au146  1  0.75000000  0.33674300  0.32838000  1
  Au  Au147  1  0.25000000  0.16325700  0.39088000  1
  Au  Au148  1  0.25000000  0.41299200  0.39068100  1
  Au  Au149  1  0.75000000  0.08700800  0.32818100  1
  Au  Au150  1  0.75000000  0.08700800  0.39056900  1
  Au  Au151  1  0.25000000  0.41299200  0.32806900  1
  Au  Au152  1  0.50000000  0.25000000  0.39062500  1
  Au  Au153  1  0.50000000  0.25000000  0.32812500  1
  Au  Au154  1  0.00000000  0.25000000  0.39062500  1
  Au  Au155  1  0.00000000  0.25000000  0.32812500  1
  Au  Au156  1  0.75000000  0.21177600  0.42187500  1
  Au  Au157  1  0.25000000  0.28822400  0.35937500  1
  Au  Au158  1  0.75000000  0.45941500  0.35937500  1
  Au  Au159  1  0.25000000  0.04058500  0.42187500  1
  Au  Au160  1  0.00000000  0.00000000  0.45326500  1
  Au  Au161  1  0.50000000  0.00000000  0.51548500  1
  Au  Au162  1  0.00000000  0.00000000  0.51548500  1
  Au  Au163  1  0.50000000  0.00000000  0.45326500  1
  Au  Au164  1  0.99945100  0.87396200  0.48437500  1
  Au  Au165  1  0.00054900  0.62603800  0.54687500  1
  Au  Au166  1  0.49945100  0.62603800  0.54687500  1
  Au  Au167  1  0.50054900  0.87396200  0.48437500  1
  Au  Au168  1  0.25000000  0.66325700  0.51537000  1
  Au  Au169  1  0.75000000  0.83674300  0.45287000  1
  Au  Au170  1  0.75000000  0.83674300  0.51588000  1
  Au  Au171  1  0.25000000  0.66325700  0.45338000  1
  Au  Au172  1  0.25000000  0.91299200  0.45318100  1
  Au  Au173  1  0.75000000  0.58700800  0.51568100  1
  Au  Au174  1  0.75000000  0.58700800  0.45306900  1
  Au  Au175  1  0.25000000  0.91299200  0.51556900  1
  Au  Au176  1  0.50000000  0.75000000  0.45312500  1
  Au  Au177  1  0.50000000  0.75000000  0.51562500  1
  Au  Au178  1  0.00000000  0.75000000  0.45312500  1
  Au  Au179  1  0.00000000  0.75000000  0.51562500  1
  Au  Au180  1  0.75000000  0.71177600  0.48437500  1
  Au  Au181  1  0.25000000  0.78822400  0.54687500  1
  Au  Au182  1  0.75000000  0.95941500  0.54687500  1
  Au  Au183  1  0.25000000  0.54058500  0.48437500  1
  Au  Au184  1  0.00000000  0.50000000  0.51576500  1
  Au  Au185  1  0.50000000  0.50000000  0.45298500  1
  Au  Au186  1  0.00000000  0.50000000  0.45298500  1
  Au  Au187  1  0.50000000  0.50000000  0.51576500  1
  Au  Au188  1  0.99945100  0.37396200  0.54687500  1
  Au  Au189  1  0.00054900  0.12603800  0.48437500  1
  Au  Au190  1  0.49945100  0.12603800  0.48437500  1
  Au  Au191  1  0.50054900  0.37396200  0.54687500  1
  Au  Au192  1  0.25000000  0.16325700  0.45287000  1
  Au  Au193  1  0.75000000  0.33674300  0.51537000  1
  Au  Au194  1  0.75000000  0.33674300  0.45338000  1
  Au  Au195  1  0.25000000  0.16325700  0.51588000  1
  Au  Au196  1  0.25000000  0.41299200  0.51568100  1
  Au  Au197  1  0.75000000  0.08700800  0.45318100  1
  Au  Au198  1  0.75000000  0.08700800  0.51556900  1
  Au  Au199  1  0.25000000  0.41299200  0.45306900  1
  Au  Au200  1  0.50000000  0.25000000  0.51562500  1
  Au  Au201  1  0.50000000  0.25000000  0.45312500  1
  Au  Au202  1  0.00000000  0.25000000  0.51562500  1
  Au  Au203  1  0.00000000  0.25000000  0.45312500  1
  Au  Au204  1  0.75000000  0.21177600  0.54687500  1
  Au  Au205  1  0.25000000  0.28822400  0.48437500  1
  Au  Au206  1  0.75000000  0.45941500  0.48437500  1
  Au  Au207  1  0.25000000  0.04058500  0.54687500  1
  Au  Au208  1  0.00000000  0.00000000  0.57826500  1
  Au  Au209  1  0.50000000  0.00000000  0.64048500  1
  Au  Au210  1  0.00000000  0.00000000  0.64048500  1
  Au  Au211  1  0.50000000  0.00000000  0.57826500  1
  Au  Au212  1  0.99945100  0.87396200  0.60937500  1
  Au  Au213  1  0.00054900  0.62603800  0.67187500  1
  Au  Au214  1  0.49945100  0.62603800  0.67187500  1
  Au  Au215  1  0.50054900  0.87396200  0.60937500  1
  Au  Au216  1  0.25000000  0.66325700  0.64037000  1
  Au  Au217  1  0.75000000  0.83674300  0.57787000  1
  Au  Au218  1  0.75000000  0.83674300  0.64088000  1
  Au  Au219  1  0.25000000  0.66325700  0.57838000  1
  Au  Au220  1  0.25000000  0.91299200  0.57818100  1
  Au  Au221  1  0.75000000  0.58700800  0.64068100  1
  Au  Au222  1  0.75000000  0.58700800  0.57806900  1
  Au  Au223  1  0.25000000  0.91299200  0.64056900  1
  Au  Au224  1  0.50000000  0.75000000  0.57812500  1
  Au  Au225  1  0.50000000  0.75000000  0.64062500  1
  Au  Au226  1  0.00000000  0.75000000  0.57812500  1
  Au  Au227  1  0.00000000  0.75000000  0.64062500  1
  Au  Au228  1  0.75000000  0.71177600  0.60937500  1
  Au  Au229  1  0.25000000  0.78822400  0.67187500  1
  Au  Au230  1  0.75000000  0.95941500  0.67187500  1
  Au  Au231  1  0.25000000  0.54058500  0.60937500  1
  Au  Au232  1  0.00000000  0.50000000  0.64076500  1
  Au  Au233  1  0.50000000  0.50000000  0.57798500  1
  Au  Au234  1  0.00000000  0.50000000  0.57798500  1
  Au  Au235  1  0.50000000  0.50000000  0.64076500  1
  Au  Au236  1  0.99945100  0.37396200  0.67187500  1
  Au  Au237  1  0.00054900  0.12603800  0.60937500  1
  Au  Au238  1  0.49945100  0.12603800  0.60937500  1
  Au  Au239  1  0.50054900  0.37396200  0.67187500  1
  Au  Au240  1  0.25000000  0.16325700  0.57787000  1
  Au  Au241  1  0.75000000  0.33674300  0.64037000  1
  Au  Au242  1  0.75000000  0.33674300  0.57838000  1
  Au  Au243  1  0.25000000  0.16325700  0.64088000  1
  Au  Au244  1  0.25000000  0.41299200  0.64068100  1
  Au  Au245  1  0.75000000  0.08700800  0.57818100  1
  Au  Au246  1  0.75000000  0.08700800  0.64056900  1
  Au  Au247  1  0.25000000  0.41299200  0.57806900  1
  Au  Au248  1  0.50000000  0.25000000  0.64062500  1
  Au  Au249  1  0.50000000  0.25000000  0.57812500  1
  Au  Au250  1  0.00000000  0.25000000  0.64062500  1
  Au  Au251  1  0.00000000  0.25000000  0.57812500  1
  Au  Au252  1  0.75000000  0.21177600  0.67187500  1
  Au  Au253  1  0.25000000  0.28822400  0.60937500  1
  Au  Au254  1  0.75000000  0.45941500  0.60937500  1
  Au  Au255  1  0.25000000  0.04058500  0.67187500  1
  Au  Au256  1  0.00000000  0.00000000  0.70326500  1
  Au  Au257  1  0.50000000  0.00000000  0.76548500  1
  Au  Au258  1  0.00000000  0.00000000  0.76548500  1
  Au  Au259  1  0.50000000  0.00000000  0.70326500  1
  Au  Au260  1  0.99945100  0.87396200  0.73437500  1
  Au  Au261  1  0.00054900  0.62603800  0.79687500  1
  Au  Au262  1  0.49945100  0.62603800  0.79687500  1
  Au  Au263  1  0.50054900  0.87396200  0.73437500  1
  Au  Au264  1  0.25000000  0.66325700  0.76537000  1
  Au  Au265  1  0.75000000  0.83674300  0.70287000  1
  Au  Au266  1  0.75000000  0.83674300  0.76588000  1
  Au  Au267  1  0.25000000  0.66325700  0.70338000  1
  Au  Au268  1  0.25000000  0.91299200  0.70318100  1
  Au  Au269  1  0.75000000  0.58700800  0.76568100  1
  Au  Au270  1  0.75000000  0.58700800  0.70306900  1
  Au  Au271  1  0.25000000  0.91299200  0.76556900  1
  Au  Au272  1  0.50000000  0.75000000  0.70312500  1
  Au  Au273  1  0.50000000  0.75000000  0.76562500  1
  Au  Au274  1  0.00000000  0.75000000  0.70312500  1
  Au  Au275  1  0.00000000  0.75000000  0.76562500  1
  Au  Au276  1  0.75000000  0.71177600  0.73437500  1
  Au  Au277  1  0.25000000  0.78822400  0.79687500  1
  Au  Au278  1  0.75000000  0.95941500  0.79687500  1
  Au  Au279  1  0.25000000  0.54058500  0.73437500  1
  Au  Au280  1  0.00000000  0.50000000  0.76576500  1
  Au  Au281  1  0.50000000  0.50000000  0.70298500  1
  Au  Au282  1  0.00000000  0.50000000  0.70298500  1
  Au  Au283  1  0.50000000  0.50000000  0.76576500  1
  Au  Au284  1  0.99945100  0.37396200  0.79687500  1
  Au  Au285  1  0.00054900  0.12603800  0.73437500  1
  Au  Au286  1  0.49945100  0.12603800  0.73437500  1
  Au  Au287  1  0.50054900  0.37396200  0.79687500  1
  Au  Au288  1  0.25000000  0.16325700  0.70287000  1
  Au  Au289  1  0.75000000  0.33674300  0.76537000  1
  Au  Au290  1  0.75000000  0.33674300  0.70338000  1
  Au  Au291  1  0.25000000  0.16325700  0.76588000  1
  Au  Au292  1  0.25000000  0.41299200  0.76568100  1
  Au  Au293  1  0.75000000  0.08700800  0.70318100  1
  Au  Au294  1  0.75000000  0.08700800  0.76556900  1
  Au  Au295  1  0.25000000  0.41299200  0.70306900  1
  Au  Au296  1  0.50000000  0.25000000  0.76562500  1
  Au  Au297  1  0.50000000  0.25000000  0.70312500  1
  Au  Au298  1  0.00000000  0.25000000  0.76562500  1
  Au  Au299  1  0.00000000  0.25000000  0.70312500  1
  Au  Au300  1  0.75000000  0.21177600  0.79687500  1
  Au  Au301  1  0.25000000  0.28822400  0.73437500  1
  Au  Au302  1  0.75000000  0.45941500  0.73437500  1
  Au  Au303  1  0.25000000  0.04058500  0.79687500  1
