# generated using pymatgen
data_Ba2Mg15
_symmetry_space_group_name_H-M   'P 1'
_cell_length_a   8.04420318
_cell_length_b   8.04420367
_cell_length_c   47.60074400
_cell_angle_alpha   86.88333695
_cell_angle_beta   86.88333676
_cell_angle_gamma   82.20349510
_symmetry_Int_Tables_number   1
_chemical_formula_structural   Ba2Mg15
_chemical_formula_sum   'Ba8 Mg60'
_cell_volume   3043.77964963
_cell_formula_units_Z   4
loop_
 _symmetry_equiv_pos_site_id
 _symmetry_equiv_pos_as_xyz
  1  'x, y, z'
loop_
 _atom_site_type_symbol
 _atom_site_label
 _atom_site_symmetry_multiplicity
 _atom_site_fract_x
 _atom_site_fract_y
 _atom_site_fract_z
 _atom_site_occupancy
  Ba  Ba0  1  0.52470800  0.74574200  0.81226000  1
  Ba  Ba1  1  0.90511700  0.12615100  0.75791600  1
  Ba  Ba2  1  0.69137500  0.91240900  0.64559300  1
  Ba  Ba3  1  0.07178300  0.29281800  0.59124900  1
  Ba  Ba4  1  0.85804100  0.07907600  0.47892600  1
  Ba  Ba5  1  0.23845000  0.45948400  0.42458200  1
  Ba  Ba6  1  0.02470800  0.24574200  0.31226000  1
  Ba  Ba7  1  0.40511700  0.62615100  0.25791600  1
  Mg  Mg8  1  0.18033400  0.10884000  0.81966600  1
  Mg  Mg9  1  0.61807500  0.83910900  0.72667800  1
  Mg  Mg10  1  0.89603400  0.61136200  0.75921300  1
  Mg  Mg11  1  0.41116300  0.63219800  0.68562300  1
  Mg  Mg12  1  0.88780500  0.40136800  0.81966600  1
  Mg  Mg13  1  0.24949100  0.76305400  0.75050900  1
  Mg  Mg14  1  0.03949700  0.75482500  0.81096200  1
  Mg  Mg15  1  0.18532800  0.40636300  0.71788500  1
  Mg  Mg16  1  0.59077400  0.22675200  0.70175400  1
  Mg  Mg17  1  0.79824600  0.51928000  0.70175400  1
  Mg  Mg18  1  0.54201900  0.47052500  0.75050900  1
  Mg  Mg19  1  0.53379000  0.26053100  0.81096200  1
  Mg  Mg20  1  0.97841600  0.19945100  0.67683100  1
  Mg  Mg21  1  0.39032800  0.11706900  0.75921300  1
  Mg  Mg22  1  0.21491200  0.43594700  0.78508800  1
  Mg  Mg23  1  0.00571700  0.81180800  0.70175400  1
  Mg  Mg24  1  0.29824600  0.01928000  0.70175400  1
  Mg  Mg25  1  0.34700000  0.27550700  0.65300000  1
  Mg  Mg26  1  0.78474200  0.00577600  0.56001100  1
  Mg  Mg27  1  0.06270100  0.77802900  0.59254700  1
  Mg  Mg28  1  0.57783000  0.79886400  0.51895700  1
  Mg  Mg29  1  0.05447200  0.56803500  0.65300000  1
  Mg  Mg30  1  0.41615800  0.92972000  0.58384200  1
  Mg  Mg31  1  0.20616400  0.92149200  0.64429600  1
  Mg  Mg32  1  0.35199500  0.57302900  0.55121900  1
  Mg  Mg33  1  0.75744000  0.39341900  0.53508800  1
  Mg  Mg34  1  0.96491200  0.68594700  0.53508800  1
  Mg  Mg35  1  0.70868600  0.63719200  0.58384200  1
  Mg  Mg36  1  0.70045700  0.42719800  0.64429600  1
  Mg  Mg37  1  0.14508300  0.36611700  0.51016400  1
  Mg  Mg38  1  0.55699400  0.28373500  0.59254700  1
  Mg  Mg39  1  0.38157900  0.60261300  0.61842100  1
  Mg  Mg40  1  0.17238400  0.97847500  0.53508800  1
  Mg  Mg41  1  0.46491200  0.18594700  0.53508800  1
  Mg  Mg42  1  0.51366700  0.44217300  0.48633300  1
  Mg  Mg43  1  0.95140800  0.17244300  0.39334500  1
  Mg  Mg44  1  0.22936700  0.94469500  0.42588000  1
  Mg  Mg45  1  0.74449600  0.96553100  0.35229000  1
  Mg  Mg46  1  0.22113900  0.73470100  0.48633300  1
  Mg  Mg47  1  0.58282400  0.09638700  0.41717600  1
  Mg  Mg48  1  0.37283000  0.08815800  0.47762900  1
  Mg  Mg49  1  0.51866100  0.73969600  0.38455200  1
  Mg  Mg50  1  0.92410700  0.56008500  0.36842100  1
  Mg  Mg51  1  0.13157900  0.85261300  0.36842100  1
  Mg  Mg52  1  0.87535200  0.80385900  0.41717600  1
  Mg  Mg53  1  0.86712400  0.59386500  0.47762900  1
  Mg  Mg54  1  0.31175000  0.53278400  0.34349800  1
  Mg  Mg55  1  0.72366100  0.45040200  0.42588000  1
  Mg  Mg56  1  0.54824600  0.76928000  0.45175400  1
  Mg  Mg57  1  0.33905100  0.14514200  0.36842100  1
  Mg  Mg58  1  0.63157900  0.35261300  0.36842100  1
  Mg  Mg59  1  0.68033400  0.60884000  0.31966600  1
  Mg  Mg60  1  0.39603400  0.11136200  0.25921300  1
  Mg  Mg61  1  0.38780500  0.90136800  0.31966600  1
  Mg  Mg62  1  0.74949100  0.26305400  0.25050900  1
  Mg  Mg63  1  0.53949700  0.25482500  0.31096200  1
  Mg  Mg64  1  0.04201900  0.97052500  0.25050900  1
  Mg  Mg65  1  0.03379000  0.76053100  0.31096200  1
  Mg  Mg66  1  0.89032800  0.61706900  0.25921300  1
  Mg  Mg67  1  0.71491200  0.93594700  0.28508800  1
