# generated using pymatgen
data_Mg16Ni33
_symmetry_space_group_name_H-M   'P 1'
_cell_length_a   4.81848500
_cell_length_b   16.44013798
_cell_length_c   44.59142500
_cell_angle_alpha   84.29083893
_cell_angle_beta   90.00000000
_cell_angle_gamma   81.57316207
_symmetry_Int_Tables_number   1
_chemical_formula_structural   Mg16Ni33
_chemical_formula_sum   'Mg48 Ni99'
_cell_volume   3476.52899218
_cell_formula_units_Z   3
loop_
 _symmetry_equiv_pos_site_id
 _symmetry_equiv_pos_as_xyz
  1  'x, y, z'
loop_
 _atom_site_type_symbol
 _atom_site_label
 _atom_site_symmetry_multiplicity
 _atom_site_fract_x
 _atom_site_fract_y
 _atom_site_fract_z
 _atom_site_occupancy
  Mg  Mg0  1  0.80552500  0.86812900  0.22450200  1
  Mg  Mg1  1  0.72100200  0.03717600  0.24140700  1
  Mg  Mg2  1  0.57825200  0.32267500  0.26995700  1
  Mg  Mg3  1  0.94827400  0.58263100  0.19595200  1
  Mg  Mg4  1  0.17722600  0.12472800  0.21682900  1
  Mg  Mg5  1  0.34930100  0.78057800  0.24908000  1
  Mg  Mg6  1  0.43480200  0.60957600  0.23198000  1
  Mg  Mg7  1  0.09172500  0.29572900  0.23392900  1
  Mg  Mg8  1  0.35098000  0.77722000  0.31541100  1
  Mg  Mg9  1  0.26645600  0.94626700  0.33231600  1
  Mg  Mg10  1  0.12370700  0.23176600  0.36086600  1
  Mg  Mg11  1  0.49372900  0.49172100  0.28686100  1
  Mg  Mg12  1  0.72268000  0.03381900  0.30773800  1
  Mg  Mg13  1  0.89475500  0.68966900  0.33998900  1
  Mg  Mg14  1  0.98025600  0.51866700  0.32288900  1
  Mg  Mg15  1  0.63718000  0.20482000  0.32483800  1
  Mg  Mg16  1  0.89643400  0.68631100  0.40632000  1
  Mg  Mg17  1  0.81191100  0.85535800  0.42322500  1
  Mg  Mg18  1  0.66916100  0.14085700  0.45177500  1
  Mg  Mg19  1  0.03918400  0.40081200  0.37777100  1
  Mg  Mg20  1  0.26813500  0.94291000  0.39864700  1
  Mg  Mg21  1  0.44021000  0.59875900  0.43089900  1
  Mg  Mg22  1  0.52571100  0.42775800  0.41379800  1
  Mg  Mg23  1  0.18263400  0.11391100  0.41574700  1
  Mg  Mg24  1  0.44188900  0.59540200  0.49722900  1
  Mg  Mg25  1  0.35736500  0.76444900  0.51413400  1
  Mg  Mg26  1  0.21461600  0.04994800  0.54268400  1
  Mg  Mg27  1  0.58463800  0.30990300  0.46868000  1
  Mg  Mg28  1  0.81359000  0.85200000  0.48955600  1
  Mg  Mg29  1  0.98566500  0.50785000  0.52180800  1
  Mg  Mg30  1  0.07116500  0.33684900  0.50470800  1
  Mg  Mg31  1  0.72808900  0.02300200  0.50665600  1
  Mg  Mg32  1  0.98734300  0.50449300  0.58813900  1
  Mg  Mg33  1  0.90282000  0.67354000  0.60504300  1
  Mg  Mg34  1  0.76007100  0.95903800  0.63359300  1
  Mg  Mg35  1  0.13009300  0.21899400  0.55958900  1
  Mg  Mg36  1  0.35904400  0.76109100  0.58046500  1
  Mg  Mg37  1  0.53111900  0.41694100  0.61271700  1
  Mg  Mg38  1  0.61662000  0.24594000  0.59561700  1
  Mg  Mg39  1  0.27354300  0.93209300  0.59756500  1
  Mg  Mg40  1  0.53279800  0.41358400  0.67904800  1
  Mg  Mg41  1  0.44827400  0.58263100  0.69595200  1
  Mg  Mg42  1  0.30552500  0.86812900  0.72450200  1
  Mg  Mg43  1  0.67554700  0.12808500  0.65049800  1
  Mg  Mg44  1  0.90449900  0.67018200  0.67137400  1
  Mg  Mg45  1  0.07657400  0.32603200  0.70362600  1
  Mg  Mg46  1  0.16207400  0.15503100  0.68652600  1
  Mg  Mg47  1  0.81899800  0.84118400  0.68847400  1
  Ni  Ni48  1  0.30494200  0.86929600  0.19128600  1
  Ni  Ni49  1  0.22158500  0.03600900  0.27462400  1
  Ni  Ni50  1  0.56251800  0.35414400  0.20643700  1
  Ni  Ni51  1  0.96400900  0.55116100  0.25947200  1
  Ni  Ni52  1  0.99053600  0.99810700  0.18750000  1
  Ni  Ni53  1  0.26326300  0.95265300  0.23295500  1
  Ni  Ni54  1  0.49053600  0.99810700  0.18750000  1
  Ni  Ni55  1  0.76326300  0.45265300  0.23295500  1
  Ni  Ni56  1  0.49053600  0.49810700  0.18750000  1
  Ni  Ni57  1  0.26326300  0.45265300  0.23295500  1
  Ni  Ni58  1  0.62268900  0.74033400  0.19527400  1
  Ni  Ni59  1  0.89185300  0.69547300  0.24013400  1
  Ni  Ni60  1  0.11615700  0.74033400  0.19527400  1
  Ni  Ni61  1  0.90383800  0.16497200  0.27063500  1
  Ni  Ni62  1  0.63467300  0.20983300  0.22577500  1
  Ni  Ni63  1  0.41037000  0.16497200  0.27063500  1
  Ni  Ni64  1  0.85039600  0.77838700  0.28219500  1
  Ni  Ni65  1  0.76704000  0.94510000  0.36553300  1
  Ni  Ni66  1  0.10797200  0.26323500  0.29734600  1
  Ni  Ni67  1  0.50946400  0.46025200  0.35038100  1
  Ni  Ni68  1  0.53599100  0.90719800  0.27840900  1
  Ni  Ni69  1  0.80871800  0.86174400  0.32386400  1
  Ni  Ni70  1  0.03599100  0.90719800  0.27840900  1
  Ni  Ni71  1  0.30871800  0.36174400  0.32386400  1
  Ni  Ni72  1  0.03599100  0.40719800  0.27840900  1
  Ni  Ni73  1  0.80871800  0.36174400  0.32386400  1
  Ni  Ni74  1  0.16814300  0.64942400  0.28618300  1
  Ni  Ni75  1  0.43730800  0.60456400  0.33104400  1
  Ni  Ni76  1  0.66161200  0.64942400  0.28618300  1
  Ni  Ni77  1  0.44929300  0.07406300  0.36154500  1
  Ni  Ni78  1  0.18012800  0.11892400  0.31668400  1
  Ni  Ni79  1  0.95582400  0.07406300  0.36154500  1
  Ni  Ni80  1  0.39585100  0.68747800  0.37310400  1
  Ni  Ni81  1  0.31249400  0.85419100  0.45644200  1
  Ni  Ni82  1  0.65342700  0.17232600  0.38825500  1
  Ni  Ni83  1  0.05491800  0.36934300  0.44129000  1
  Ni  Ni84  1  0.08144500  0.81628900  0.36931800  1
  Ni  Ni85  1  0.35417300  0.77083500  0.41477300  1
  Ni  Ni86  1  0.58144500  0.81628900  0.36931800  1
  Ni  Ni87  1  0.85417300  0.27083500  0.41477300  1
  Ni  Ni88  1  0.58144500  0.31628900  0.36931800  1
  Ni  Ni89  1  0.35417300  0.27083500  0.41477300  1
  Ni  Ni90  1  0.71359800  0.55851500  0.37709200  1
  Ni  Ni91  1  0.98276200  0.51365500  0.42195300  1
  Ni  Ni92  1  0.20706600  0.55851500  0.37709200  1
  Ni  Ni93  1  0.99474700  0.98315400  0.45245400  1
  Ni  Ni94  1  0.72558300  0.02801400  0.40759300  1
  Ni  Ni95  1  0.50127900  0.98315400  0.45245400  1
  Ni  Ni96  1  0.94130500  0.59656900  0.46401300  1
  Ni  Ni97  1  0.85794900  0.76328200  0.54735100  1
  Ni  Ni98  1  0.19888100  0.08141700  0.47916400  1
  Ni  Ni99  1  0.60037300  0.27843400  0.53219900  1
  Ni  Ni100  1  0.62690000  0.72538000  0.46022700  1
  Ni  Ni101  1  0.89962700  0.67992500  0.50568200  1
  Ni  Ni102  1  0.12690000  0.72538000  0.46022700  1
  Ni  Ni103  1  0.39962700  0.17992500  0.50568200  1
  Ni  Ni104  1  0.12690000  0.22538000  0.46022700  1
  Ni  Ni105  1  0.89962700  0.17992500  0.50568200  1
  Ni  Ni106  1  0.25905200  0.46760600  0.46800100  1
  Ni  Ni107  1  0.52821700  0.42274500  0.51286200  1
  Ni  Ni108  1  0.75252100  0.46760600  0.46800100  1
  Ni  Ni109  1  0.54020200  0.89224500  0.54336300  1
  Ni  Ni110  1  0.27103700  0.93710500  0.49850200  1
  Ni  Ni111  1  0.04673300  0.89224500  0.54336300  1
  Ni  Ni112  1  0.48676000  0.50566000  0.55492200  1
  Ni  Ni113  1  0.40340300  0.67237300  0.63826000  1
  Ni  Ni114  1  0.74433600  0.99050800  0.57007300  1
  Ni  Ni115  1  0.14582700  0.18752500  0.62310800  1
  Ni  Ni116  1  0.17235400  0.63447100  0.55113600  1
  Ni  Ni117  1  0.44508200  0.58901600  0.59659100  1
  Ni  Ni118  1  0.67235400  0.63447100  0.55113600  1
  Ni  Ni119  1  0.94508200  0.08901600  0.59659100  1
  Ni  Ni120  1  0.67235400  0.13447100  0.55113600  1
  Ni  Ni121  1  0.44508200  0.08901600  0.59659100  1
  Ni  Ni122  1  0.80450700  0.37669700  0.55891000  1
  Ni  Ni123  1  0.07367200  0.33183600  0.60377100  1
  Ni  Ni124  1  0.29797600  0.37669700  0.55891000  1
  Ni  Ni125  1  0.08565600  0.80133500  0.63427200  1
  Ni  Ni126  1  0.81649200  0.84619600  0.58941100  1
  Ni  Ni127  1  0.59218800  0.80133500  0.63427200  1
  Ni  Ni128  1  0.03221500  0.41475000  0.64583100  1
  Ni  Ni129  1  0.94885800  0.58146400  0.72916900  1
  Ni  Ni130  1  0.28979000  0.89959900  0.66098300  1
  Ni  Ni131  1  0.69128200  0.09661600  0.71401700  1
  Ni  Ni132  1  0.71780900  0.54356200  0.64204500  1
  Ni  Ni133  1  0.99053600  0.49810700  0.68750000  1
  Ni  Ni134  1  0.21780900  0.54356200  0.64204500  1
  Ni  Ni135  1  0.49053600  0.99810700  0.68750000  1
  Ni  Ni136  1  0.21780900  0.04356200  0.64204500  1
  Ni  Ni137  1  0.99053600  0.99810700  0.68750000  1
  Ni  Ni138  1  0.34996100  0.28578800  0.64981900  1
  Ni  Ni139  1  0.61912600  0.24092700  0.69468000  1
  Ni  Ni140  1  0.84343000  0.28578800  0.64981900  1
  Ni  Ni141  1  0.63111100  0.71042600  0.72518100  1
  Ni  Ni142  1  0.36194600  0.75528700  0.68032000  1
  Ni  Ni143  1  0.13764200  0.71042600  0.72518100  1
  Ni  Ni144  1  0.26326300  0.45265300  0.73295500  1
  Ni  Ni145  1  0.76326300  0.45265300  0.73295500  1
  Ni  Ni146  1  0.76326300  0.95265300  0.73295500  1
