# generated using pymatgen
data_Mg22Au67
_symmetry_space_group_name_H-M   'P 1'
_cell_length_a   10.43041218
_cell_length_b   11.29953425
_cell_length_c   49.40543900
_cell_angle_alpha   85.63582371
_cell_angle_beta   88.14566253
_cell_angle_gamma   98.74753851
_symmetry_Int_Tables_number   1
_chemical_formula_structural   Mg22Au67
_chemical_formula_sum   'Mg44 Au134'
_cell_volume   5732.74310784
_cell_formula_units_Z   2
loop_
 _symmetry_equiv_pos_site_id
 _symmetry_equiv_pos_as_xyz
  1  'x, y, z'
loop_
 _atom_site_type_symbol
 _atom_site_label
 _atom_site_symmetry_multiplicity
 _atom_site_fract_x
 _atom_site_fract_y
 _atom_site_fract_z
 _atom_site_occupancy
  Mg  Mg0  1  0.40954800  0.61735800  0.75940900  1
  Mg  Mg1  1  0.93902500  0.54415700  0.78434100  1
  Mg  Mg2  1  0.88886600  0.19303900  0.73418200  1
  Mg  Mg3  1  0.35970800  0.26847500  0.70956800  1
  Mg  Mg4  1  0.02849200  0.54457900  0.70060100  1
  Mg  Mg5  1  0.22008100  0.91693500  0.74314900  1
  Mg  Mg6  1  0.59874500  0.31883000  0.77585100  1
  Mg  Mg7  1  0.74982900  0.84268500  0.76789900  1
  Mg  Mg8  1  0.30954800  0.91735800  0.65940900  1
  Mg  Mg9  1  0.83902500  0.84415700  0.68434100  1
  Mg  Mg10  1  0.78886600  0.49303900  0.63418200  1
  Mg  Mg11  1  0.25970800  0.56847500  0.60956800  1
  Mg  Mg12  1  0.92849200  0.84457900  0.60060100  1
  Mg  Mg13  1  0.12008100  0.21693500  0.64314900  1
  Mg  Mg14  1  0.49874500  0.61883000  0.67585100  1
  Mg  Mg15  1  0.64982900  0.14268500  0.66789900  1
  Mg  Mg16  1  0.20954800  0.21735800  0.55940900  1
  Mg  Mg17  1  0.73902500  0.14415700  0.58434100  1
  Mg  Mg18  1  0.68886600  0.79303900  0.53418200  1
  Mg  Mg19  1  0.15970800  0.86847500  0.50956800  1
  Mg  Mg20  1  0.82849200  0.14457900  0.50060100  1
  Mg  Mg21  1  0.02008100  0.51693500  0.54314900  1
  Mg  Mg22  1  0.39874500  0.91883000  0.57585100  1
  Mg  Mg23  1  0.54982900  0.44268500  0.56789900  1
  Mg  Mg24  1  0.10954800  0.51735800  0.45940900  1
  Mg  Mg25  1  0.63902500  0.44415700  0.48434100  1
  Mg  Mg26  1  0.58886600  0.09303900  0.43418200  1
  Mg  Mg27  1  0.05970800  0.16847500  0.40956800  1
  Mg  Mg28  1  0.72849200  0.44457900  0.40060100  1
  Mg  Mg29  1  0.92008100  0.81693500  0.44314900  1
  Mg  Mg30  1  0.29874500  0.21883000  0.47585100  1
  Mg  Mg31  1  0.44982900  0.74268500  0.46789900  1
  Mg  Mg32  1  0.00954800  0.81735800  0.35940900  1
  Mg  Mg33  1  0.53902500  0.74415700  0.38434100  1
  Mg  Mg34  1  0.48886600  0.39303900  0.33418200  1
  Mg  Mg35  1  0.95970800  0.46847500  0.30956800  1
  Mg  Mg36  1  0.62849200  0.74457900  0.30060100  1
  Mg  Mg37  1  0.82008100  0.11693500  0.34314900  1
  Mg  Mg38  1  0.19874500  0.51883000  0.37585100  1
  Mg  Mg39  1  0.34982900  0.04268500  0.36789900  1
  Mg  Mg40  1  0.90954800  0.11735800  0.25940900  1
  Mg  Mg41  1  0.43902500  0.04415700  0.28434100  1
  Mg  Mg42  1  0.09874500  0.81883000  0.27585100  1
  Mg  Mg43  1  0.24982900  0.34268500  0.26789900  1
  Au  Au44  1  0.19917500  0.00609400  0.79676300  1
  Au  Au45  1  0.19939900  0.50542100  0.79698700  1
  Au  Au46  1  0.14939900  0.15542100  0.74698700  1
  Au  Au47  1  0.14917500  0.65609400  0.74676300  1
  Au  Au48  1  0.93486900  0.04333000  0.78453400  1
  Au  Au49  1  0.41370400  0.11818400  0.75921600  1
  Au  Au50  1  0.36381400  0.76895300  0.70932600  1
  Au  Au51  1  0.88476000  0.69256100  0.73442400  1
  Au  Au52  1  0.48468000  0.87912200  0.75575400  1
  Au  Au53  1  0.81430300  0.43116700  0.73840500  1
  Au  Au54  1  0.86389400  0.28239300  0.78799600  1
  Au  Au55  1  0.43427100  0.03034700  0.70534500  1
  Au  Au56  1  0.00892700  0.80479000  0.78053100  1
  Au  Au57  1  0.28955700  0.50699400  0.71312900  1
  Au  Au58  1  0.33964700  0.35672500  0.76321900  1
  Au  Au59  1  0.95901700  0.95452000  0.73062100  1
  Au  Au60  1  0.67428700  0.58075700  0.77187500  1
  Au  Au61  1  0.62428700  0.73075700  0.72187500  1
  Au  Au62  1  0.62428700  0.23075700  0.72187500  1
  Au  Au63  1  0.67428700  0.08075700  0.77187500  1
  Au  Au64  1  0.55166100  0.46929000  0.72569700  1
  Au  Au65  1  0.69691300  0.99222500  0.71805300  1
  Au  Au66  1  0.07217600  0.39358200  0.75093300  1
  Au  Au67  1  0.27639700  0.76793300  0.79281700  1
  Au  Au68  1  0.09917500  0.30609400  0.69676300  1
  Au  Au69  1  0.09939900  0.80542100  0.69698700  1
  Au  Au70  1  0.04939900  0.45542100  0.64698700  1
  Au  Au71  1  0.04917500  0.95609400  0.64676300  1
  Au  Au72  1  0.83486900  0.34333000  0.68453400  1
  Au  Au73  1  0.31370400  0.41818400  0.65921600  1
  Au  Au74  1  0.26381400  0.06895300  0.60932600  1
  Au  Au75  1  0.78476000  0.99256100  0.63442400  1
  Au  Au76  1  0.38468000  0.17912200  0.65575400  1
  Au  Au77  1  0.71430300  0.73116700  0.63840500  1
  Au  Au78  1  0.76389400  0.58239300  0.68799600  1
  Au  Au79  1  0.33427100  0.33034700  0.60534500  1
  Au  Au80  1  0.90892700  0.10479000  0.68053100  1
  Au  Au81  1  0.18955700  0.80699400  0.61312900  1
  Au  Au82  1  0.23964700  0.65672500  0.66321900  1
  Au  Au83  1  0.85901700  0.25452000  0.63062100  1
  Au  Au84  1  0.57428700  0.88075700  0.67187500  1
  Au  Au85  1  0.52428700  0.03075700  0.62187500  1
  Au  Au86  1  0.52428700  0.53075700  0.62187500  1
  Au  Au87  1  0.57428700  0.38075700  0.67187500  1
  Au  Au88  1  0.45166100  0.76929000  0.62569700  1
  Au  Au89  1  0.59691300  0.29222500  0.61805300  1
  Au  Au90  1  0.97217600  0.69358200  0.65093300  1
  Au  Au91  1  0.17639700  0.06793300  0.69281700  1
  Au  Au92  1  0.99917500  0.60609400  0.59676300  1
  Au  Au93  1  0.99939900  0.10542100  0.59698700  1
  Au  Au94  1  0.94939900  0.75542100  0.54698700  1
  Au  Au95  1  0.94917500  0.25609400  0.54676300  1
  Au  Au96  1  0.73486900  0.64333000  0.58453400  1
  Au  Au97  1  0.21370400  0.71818400  0.55921600  1
  Au  Au98  1  0.16381400  0.36895300  0.50932600  1
  Au  Au99  1  0.68476000  0.29256100  0.53442400  1
  Au  Au100  1  0.28468000  0.47912200  0.55575400  1
  Au  Au101  1  0.61430300  0.03116700  0.53840500  1
  Au  Au102  1  0.66389400  0.88239300  0.58799600  1
  Au  Au103  1  0.23427100  0.63034700  0.50534500  1
  Au  Au104  1  0.80892700  0.40479000  0.58053100  1
  Au  Au105  1  0.08955700  0.10699400  0.51312900  1
  Au  Au106  1  0.13964700  0.95672500  0.56321900  1
  Au  Au107  1  0.75901700  0.55452000  0.53062100  1
  Au  Au108  1  0.47428700  0.18075700  0.57187500  1
  Au  Au109  1  0.42428700  0.33075700  0.52187500  1
  Au  Au110  1  0.42428700  0.83075700  0.52187500  1
  Au  Au111  1  0.47428700  0.68075700  0.57187500  1
  Au  Au112  1  0.35166100  0.06929000  0.52569700  1
  Au  Au113  1  0.49691300  0.59222500  0.51805300  1
  Au  Au114  1  0.87217600  0.99358200  0.55093300  1
  Au  Au115  1  0.07639700  0.36793300  0.59281700  1
  Au  Au116  1  0.89917500  0.90609400  0.49676300  1
  Au  Au117  1  0.89939900  0.40542100  0.49698700  1
  Au  Au118  1  0.84939900  0.05542100  0.44698700  1
  Au  Au119  1  0.84917500  0.55609400  0.44676300  1
  Au  Au120  1  0.63486900  0.94333000  0.48453400  1
  Au  Au121  1  0.11370400  0.01818400  0.45921600  1
  Au  Au122  1  0.06381400  0.66895300  0.40932600  1
  Au  Au123  1  0.58476000  0.59256100  0.43442400  1
  Au  Au124  1  0.18468000  0.77912200  0.45575400  1
  Au  Au125  1  0.51430300  0.33116700  0.43840500  1
  Au  Au126  1  0.56389400  0.18239300  0.48799600  1
  Au  Au127  1  0.13427100  0.93034700  0.40534500  1
  Au  Au128  1  0.70892700  0.70479000  0.48053100  1
  Au  Au129  1  0.98955700  0.40699400  0.41312900  1
  Au  Au130  1  0.03964700  0.25672500  0.46321900  1
  Au  Au131  1  0.65901700  0.85452000  0.43062100  1
  Au  Au132  1  0.37428700  0.48075700  0.47187500  1
  Au  Au133  1  0.32428700  0.63075700  0.42187500  1
  Au  Au134  1  0.32428700  0.13075700  0.42187500  1
  Au  Au135  1  0.37428700  0.98075700  0.47187500  1
  Au  Au136  1  0.25166100  0.36929000  0.42569700  1
  Au  Au137  1  0.39691300  0.89222500  0.41805300  1
  Au  Au138  1  0.77217600  0.29358200  0.45093300  1
  Au  Au139  1  0.97639700  0.66793300  0.49281700  1
  Au  Au140  1  0.79917500  0.20609400  0.39676300  1
  Au  Au141  1  0.79939900  0.70542100  0.39698700  1
  Au  Au142  1  0.74939900  0.35542100  0.34698700  1
  Au  Au143  1  0.74917500  0.85609400  0.34676300  1
  Au  Au144  1  0.53486900  0.24333000  0.38453400  1
  Au  Au145  1  0.01370400  0.31818400  0.35921600  1
  Au  Au146  1  0.96381400  0.96895300  0.30932600  1
  Au  Au147  1  0.48476000  0.89256100  0.33442400  1
  Au  Au148  1  0.08468000  0.07912200  0.35575400  1
  Au  Au149  1  0.41430300  0.63116700  0.33840500  1
  Au  Au150  1  0.46389400  0.48239300  0.38799600  1
  Au  Au151  1  0.03427100  0.23034700  0.30534500  1
  Au  Au152  1  0.60892700  0.00479000  0.38053100  1
  Au  Au153  1  0.88955700  0.70699400  0.31312900  1
  Au  Au154  1  0.93964700  0.55672500  0.36321900  1
  Au  Au155  1  0.55901700  0.15452000  0.33062100  1
  Au  Au156  1  0.27428700  0.78075700  0.37187500  1
  Au  Au157  1  0.22428700  0.93075700  0.32187500  1
  Au  Au158  1  0.22428700  0.43075700  0.32187500  1
  Au  Au159  1  0.27428700  0.28075700  0.37187500  1
  Au  Au160  1  0.15166100  0.66929000  0.32569700  1
  Au  Au161  1  0.29691300  0.19222500  0.31805300  1
  Au  Au162  1  0.67217600  0.59358200  0.35093300  1
  Au  Au163  1  0.87639700  0.96793300  0.39281700  1
  Au  Au164  1  0.69917500  0.50609400  0.29676300  1
  Au  Au165  1  0.69939900  0.00542100  0.29698700  1
  Au  Au166  1  0.64939900  0.65542100  0.24698700  1
  Au  Au167  1  0.64917500  0.15609400  0.24676300  1
  Au  Au168  1  0.43486900  0.54333000  0.28453400  1
  Au  Au169  1  0.91370400  0.61818400  0.25921600  1
  Au  Au170  1  0.98468000  0.37912200  0.25575400  1
  Au  Au171  1  0.36389400  0.78239300  0.28799600  1
  Au  Au172  1  0.50892700  0.30479000  0.28053100  1
  Au  Au173  1  0.83964700  0.85672500  0.26321900  1
  Au  Au174  1  0.17428700  0.08075700  0.27187500  1
  Au  Au175  1  0.17428700  0.58075700  0.27187500  1
  Au  Au176  1  0.57217600  0.89358200  0.25093300  1
  Au  Au177  1  0.77639700  0.26793300  0.29281700  1
