# generated using pymatgen
data_BaMg
_symmetry_space_group_name_H-M   'P 1'
_cell_length_a   4.40873600
_cell_length_b   6.15629878
_cell_length_c   43.09409500
_cell_angle_alpha   91.47243206
_cell_angle_beta   90.00000000
_cell_angle_gamma   90.00000000
_symmetry_Int_Tables_number   1
_chemical_formula_structural   BaMg
_chemical_formula_sum   'Ba9 Mg9'
_cell_volume   1169.25200071
_cell_formula_units_Z   9
loop_
 _symmetry_equiv_pos_site_id
 _symmetry_equiv_pos_as_xyz
  1  'x, y, z'
loop_
 _atom_site_type_symbol
 _atom_site_label
 _atom_site_symmetry_multiplicity
 _atom_site_fract_x
 _atom_site_fract_y
 _atom_site_fract_z
 _atom_site_occupancy
  Ba  Ba0  1  0.50000000  0.75000000  0.21428600  1
  Ba  Ba1  1  0.50000000  0.25000000  0.28571400  1
  Ba  Ba2  1  0.50000000  0.75000000  0.35714300  1
  Ba  Ba3  1  0.50000000  0.25000000  0.42857100  1
  Ba  Ba4  1  0.50000000  0.75000000  0.50000000  1
  Ba  Ba5  1  0.50000000  0.25000000  0.57142900  1
  Ba  Ba6  1  0.50000000  0.75000000  0.64285700  1
  Ba  Ba7  1  0.50000000  0.25000000  0.71428600  1
  Ba  Ba8  1  0.50000000  0.75000000  0.78571400  1
  Mg  Mg9  1  0.00000000  0.25000000  0.21428600  1
  Mg  Mg10  1  0.00000000  0.75000000  0.28571400  1
  Mg  Mg11  1  0.00000000  0.25000000  0.35714300  1
  Mg  Mg12  1  0.00000000  0.75000000  0.42857100  1
  Mg  Mg13  1  0.00000000  0.25000000  0.50000000  1
  Mg  Mg14  1  0.00000000  0.75000000  0.57142900  1
  Mg  Mg15  1  0.00000000  0.25000000  0.64285700  1
  Mg  Mg16  1  0.00000000  0.75000000  0.71428600  1
  Mg  Mg17  1  0.00000000  0.25000000  0.78571400  1
