# generated using pymatgen
data_Pm5Mg16
_symmetry_space_group_name_H-M   'P 1'
_cell_length_a   5.21671580
_cell_length_b   5.21671540
_cell_length_c   42.70065800
_cell_angle_alpha   86.49791873
_cell_angle_beta   86.49791900
_cell_angle_gamma   59.99999859
_symmetry_Int_Tables_number   1
_chemical_formula_structural   Pm5Mg16
_chemical_formula_sum   'Pm5 Mg16'
_cell_volume   1003.86769975
_cell_formula_units_Z   1
loop_
 _symmetry_equiv_pos_site_id
 _symmetry_equiv_pos_as_xyz
  1  'x, y, z'
loop_
 _atom_site_type_symbol
 _atom_site_label
 _atom_site_symmetry_multiplicity
 _atom_site_fract_x
 _atom_site_fract_y
 _atom_site_fract_z
 _atom_site_occupancy
  Pm  Pm0  1  0.36250000  0.36250000  0.26250000  1
  Pm  Pm1  1  0.66250000  0.66250000  0.36250000  1
  Pm  Pm2  1  0.96250000  0.96250000  0.46250000  1
  Pm  Pm3  1  0.26250000  0.26250000  0.56250000  1
  Pm  Pm4  1  0.56250000  0.56250000  0.66250000  1
  Mg  Mg5  1  0.71250000  0.71250000  0.21250000  1
  Mg  Mg6  1  0.68750000  0.68750000  0.28750000  1
  Mg  Mg7  1  0.03750000  0.03750000  0.23750000  1
  Mg  Mg8  1  0.01250000  0.01250000  0.31250000  1
  Mg  Mg9  1  0.98750000  0.98750000  0.38750000  1
  Mg  Mg10  1  0.33750000  0.33750000  0.33750000  1
  Mg  Mg11  1  0.31250000  0.31250000  0.41250000  1
  Mg  Mg12  1  0.28750000  0.28750000  0.48750000  1
  Mg  Mg13  1  0.63750000  0.63750000  0.43750000  1
  Mg  Mg14  1  0.61250000  0.61250000  0.51250000  1
  Mg  Mg15  1  0.58750000  0.58750000  0.58750000  1
  Mg  Mg16  1  0.93750000  0.93750000  0.53750000  1
  Mg  Mg17  1  0.91250000  0.91250000  0.61250000  1
  Mg  Mg18  1  0.88750000  0.88750000  0.68750000  1
  Mg  Mg19  1  0.23750000  0.23750000  0.63750000  1
  Mg  Mg20  1  0.21250000  0.21250000  0.71250000  1
