# generated using pymatgen
data_La4Mg37
_symmetry_space_group_name_H-M   'P 1'
_cell_length_a   14.48655054
_cell_length_b   14.48655091
_cell_length_c   46.20124100
_cell_angle_alpha   88.97401161
_cell_angle_beta   91.02598842
_cell_angle_gamma   103.21378408
_symmetry_Int_Tables_number   1
_chemical_formula_structural   La4Mg37
_chemical_formula_sum   'La20 Mg185'
_cell_volume   9436.62924609
_cell_formula_units_Z   5
loop_
 _symmetry_equiv_pos_site_id
 _symmetry_equiv_pos_as_xyz
  1  'x, y, z'
loop_
 _atom_site_type_symbol
 _atom_site_label
 _atom_site_symmetry_multiplicity
 _atom_site_fract_x
 _atom_site_fract_y
 _atom_site_fract_z
 _atom_site_occupancy
  La  La0  1  0.31750900  0.01582500  0.35526300  1
  La  La1  1  0.78417500  0.88249100  0.30526300  1
  La  La2  1  0.45084200  0.54915800  0.30526300  1
  La  La3  1  0.65084200  0.34915800  0.35526300  1
  La  La4  1  0.71750900  0.61582500  0.45526300  1
  La  La5  1  0.18417500  0.48249100  0.40526300  1
  La  La6  1  0.85084200  0.14915800  0.40526300  1
  La  La7  1  0.05084200  0.94915800  0.45526300  1
  La  La8  1  0.11750900  0.21582500  0.55526300  1
  La  La9  1  0.58417500  0.08249100  0.50526300  1
  La  La10  1  0.25084200  0.74915800  0.50526300  1
  La  La11  1  0.45084200  0.54915800  0.55526300  1
  La  La12  1  0.51750900  0.81582500  0.65526300  1
  La  La13  1  0.98417500  0.68249100  0.60526300  1
  La  La14  1  0.65084200  0.34915800  0.60526300  1
  La  La15  1  0.85084200  0.14915800  0.65526300  1
  La  La16  1  0.91750900  0.41582500  0.75526300  1
  La  La17  1  0.38417500  0.28249100  0.70526300  1
  La  La18  1  0.05084200  0.94915800  0.70526300  1
  La  La19  1  0.25084200  0.74915800  0.75526300  1
  Mg  Mg20  1  0.52142300  0.80302300  0.28235300  1
  Mg  Mg21  1  0.05684200  0.27649100  0.29009700  1
  Mg  Mg22  1  0.64484200  0.02182500  0.27043000  1
  Mg  Mg23  1  0.35084200  0.14915800  0.28026300  1
  Mg  Mg24  1  0.85084200  0.14915800  0.28026300  1
  Mg  Mg25  1  0.85084200  0.64915800  0.28026300  1
  Mg  Mg26  1  0.29875900  0.33827900  0.27586600  1
  Mg  Mg27  1  0.99894600  0.03554800  0.27440600  1
  Mg  Mg28  1  0.70273900  0.26276800  0.28612000  1
  Mg  Mg29  1  0.40292600  0.96003700  0.28466100  1
  Mg  Mg30  1  0.01270600  0.82507100  0.27684100  1
  Mg  Mg31  1  0.18026100  0.49529300  0.27817400  1
  Mg  Mg32  1  0.51004000  0.32773700  0.27950700  1
  Mg  Mg33  1  0.68897800  0.47324500  0.28368600  1
  Mg  Mg34  1  0.19164400  0.97057800  0.28101900  1
  Mg  Mg35  1  0.72675500  0.11102200  0.33368600  1
  Mg  Mg36  1  0.22942200  0.60835600  0.33101900  1
  Mg  Mg37  1  0.92142300  0.40302300  0.38235300  1
  Mg  Mg38  1  0.39697700  0.27857700  0.33235300  1
  Mg  Mg39  1  0.92350900  0.74315800  0.34009700  1
  Mg  Mg40  1  0.45684200  0.87649100  0.39009700  1
  Mg  Mg41  1  0.17817500  0.15515800  0.32043000  1
  Mg  Mg42  1  0.04484200  0.62182500  0.37043000  1
  Mg  Mg43  1  0.75084200  0.74915800  0.38026300  1
  Mg  Mg44  1  0.05084200  0.44915800  0.33026300  1
  Mg  Mg45  1  0.25084200  0.74915800  0.38026300  1
  Mg  Mg46  1  0.05084200  0.94915800  0.33026300  1
  Mg  Mg47  1  0.25084200  0.24915800  0.38026300  1
  Mg  Mg48  1  0.55084200  0.94915800  0.33026300  1
  Mg  Mg49  1  0.52635300  0.14517800  0.31551800  1
  Mg  Mg50  1  0.23996300  0.39707400  0.33466100  1
  Mg  Mg51  1  0.93723200  0.09726100  0.33612000  1
  Mg  Mg52  1  0.16445200  0.80105400  0.32440600  1
  Mg  Mg53  1  0.86172100  0.50124100  0.32586600  1
  Mg  Mg54  1  0.69875900  0.93827900  0.37586600  1
  Mg  Mg55  1  0.05482200  0.27364700  0.36551800  1
  Mg  Mg56  1  0.57533100  0.75313800  0.34500900  1
  Mg  Mg57  1  0.39894600  0.63554800  0.37440600  1
  Mg  Mg58  1  0.10273900  0.86276800  0.38612000  1
  Mg  Mg59  1  0.80292600  0.56003700  0.38466100  1
  Mg  Mg60  1  0.04686200  0.62466900  0.29500900  1
  Mg  Mg61  1  0.41270600  0.42507100  0.37684100  1
  Mg  Mg62  1  0.37492900  0.78729400  0.32684100  1
  Mg  Mg63  1  0.58026100  0.09529300  0.37817400  1
  Mg  Mg64  1  0.70470700  0.61973900  0.32817400  1
  Mg  Mg65  1  0.91004000  0.92773700  0.37950700  1
  Mg  Mg66  1  0.08897800  0.07324500  0.38368600  1
  Mg  Mg67  1  0.59164400  0.57057800  0.38101900  1
  Mg  Mg68  1  0.87226300  0.28996000  0.32950700  1
  Mg  Mg69  1  0.12675500  0.71102200  0.43368600  1
  Mg  Mg70  1  0.62942200  0.20835600  0.43101900  1
  Mg  Mg71  1  0.32142300  0.00302300  0.48235300  1
  Mg  Mg72  1  0.79697700  0.87857700  0.43235300  1
  Mg  Mg73  1  0.32350900  0.34315800  0.44009700  1
  Mg  Mg74  1  0.85684200  0.47649100  0.49009700  1
  Mg  Mg75  1  0.57817500  0.75515800  0.42043000  1
  Mg  Mg76  1  0.44484200  0.22182500  0.47043000  1
  Mg  Mg77  1  0.15084200  0.34915800  0.48026300  1
  Mg  Mg78  1  0.45084200  0.04915800  0.43026300  1
  Mg  Mg79  1  0.65084200  0.34915800  0.48026300  1
  Mg  Mg80  1  0.45084200  0.54915800  0.43026300  1
  Mg  Mg81  1  0.65084200  0.84915800  0.48026300  1
  Mg  Mg82  1  0.95084200  0.54915800  0.43026300  1
  Mg  Mg83  1  0.92635300  0.74517800  0.41551800  1
  Mg  Mg84  1  0.63996300  0.99707400  0.43466100  1
  Mg  Mg85  1  0.33723200  0.69726100  0.43612000  1
  Mg  Mg86  1  0.56445200  0.40105400  0.42440600  1
  Mg  Mg87  1  0.26172100  0.10124100  0.42586600  1
  Mg  Mg88  1  0.09875900  0.53827900  0.47586600  1
  Mg  Mg89  1  0.45482200  0.87364700  0.46551800  1
  Mg  Mg90  1  0.97533100  0.35313800  0.44500900  1
  Mg  Mg91  1  0.79894600  0.23554800  0.47440600  1
  Mg  Mg92  1  0.50273900  0.46276800  0.48612000  1
  Mg  Mg93  1  0.20292600  0.16003700  0.48466100  1
  Mg  Mg94  1  0.44686200  0.22466900  0.39500900  1
  Mg  Mg95  1  0.81270600  0.02507100  0.47684100  1
  Mg  Mg96  1  0.77492900  0.38729400  0.42684100  1
  Mg  Mg97  1  0.98026100  0.69529300  0.47817400  1
  Mg  Mg98  1  0.10470700  0.21973900  0.42817400  1
  Mg  Mg99  1  0.31004000  0.52773700  0.47950700  1
  Mg  Mg100  1  0.48897800  0.67324500  0.48368600  1
  Mg  Mg101  1  0.99164400  0.17057800  0.48101900  1
  Mg  Mg102  1  0.27226300  0.88996000  0.42950700  1
  Mg  Mg103  1  0.52675500  0.31102200  0.53368600  1
  Mg  Mg104  1  0.02942200  0.80835600  0.53101900  1
  Mg  Mg105  1  0.72142300  0.60302300  0.58235300  1
  Mg  Mg106  1  0.19697700  0.47857700  0.53235300  1
  Mg  Mg107  1  0.72350900  0.94315800  0.54009700  1
  Mg  Mg108  1  0.25684200  0.07649100  0.59009700  1
  Mg  Mg109  1  0.97817500  0.35515800  0.52043000  1
  Mg  Mg110  1  0.84484200  0.82182500  0.57043000  1
  Mg  Mg111  1  0.55084200  0.94915800  0.58026300  1
  Mg  Mg112  1  0.85084200  0.64915800  0.53026300  1
  Mg  Mg113  1  0.05084200  0.94915800  0.58026300  1
  Mg  Mg114  1  0.85084200  0.14915800  0.53026300  1
  Mg  Mg115  1  0.05084200  0.44915800  0.58026300  1
  Mg  Mg116  1  0.35084200  0.14915800  0.53026300  1
  Mg  Mg117  1  0.32635300  0.34517800  0.51551800  1
  Mg  Mg118  1  0.03996300  0.59707400  0.53466100  1
  Mg  Mg119  1  0.73723200  0.29726100  0.53612000  1
  Mg  Mg120  1  0.96445200  0.00105400  0.52440600  1
  Mg  Mg121  1  0.66172100  0.70124100  0.52586600  1
  Mg  Mg122  1  0.49875900  0.13827900  0.57586600  1
  Mg  Mg123  1  0.85482200  0.47364700  0.56551800  1
  Mg  Mg124  1  0.37533100  0.95313800  0.54500900  1
  Mg  Mg125  1  0.19894600  0.83554800  0.57440600  1
  Mg  Mg126  1  0.90273900  0.06276800  0.58612000  1
  Mg  Mg127  1  0.60292600  0.76003700  0.58466100  1
  Mg  Mg128  1  0.84686200  0.82466900  0.49500900  1
  Mg  Mg129  1  0.21270600  0.62507100  0.57684100  1
  Mg  Mg130  1  0.17492900  0.98729400  0.52684100  1
  Mg  Mg131  1  0.38026100  0.29529300  0.57817400  1
  Mg  Mg132  1  0.50470700  0.81973900  0.52817400  1
  Mg  Mg133  1  0.71004000  0.12773700  0.57950700  1
  Mg  Mg134  1  0.88897800  0.27324500  0.58368600  1
  Mg  Mg135  1  0.39164400  0.77057800  0.58101900  1
  Mg  Mg136  1  0.67226300  0.48996000  0.52950700  1
  Mg  Mg137  1  0.92675500  0.91102200  0.63368600  1
  Mg  Mg138  1  0.42942200  0.40835600  0.63101900  1
  Mg  Mg139  1  0.12142300  0.20302300  0.68235300  1
  Mg  Mg140  1  0.59697700  0.07857700  0.63235300  1
  Mg  Mg141  1  0.12350900  0.54315800  0.64009700  1
  Mg  Mg142  1  0.65684200  0.67649100  0.69009700  1
  Mg  Mg143  1  0.37817500  0.95515800  0.62043000  1
  Mg  Mg144  1  0.24484200  0.42182500  0.67043000  1
  Mg  Mg145  1  0.95084200  0.54915800  0.68026300  1
  Mg  Mg146  1  0.25084200  0.24915800  0.63026300  1
  Mg  Mg147  1  0.45084200  0.54915800  0.68026300  1
  Mg  Mg148  1  0.25084200  0.74915800  0.63026300  1
  Mg  Mg149  1  0.45084200  0.04915800  0.68026300  1
  Mg  Mg150  1  0.75084200  0.74915800  0.63026300  1
  Mg  Mg151  1  0.72635300  0.94517800  0.61551800  1
  Mg  Mg152  1  0.43996300  0.19707400  0.63466100  1
  Mg  Mg153  1  0.13723200  0.89726100  0.63612000  1
  Mg  Mg154  1  0.36445200  0.60105400  0.62440600  1
  Mg  Mg155  1  0.06172100  0.30124100  0.62586600  1
  Mg  Mg156  1  0.89875900  0.73827900  0.67586600  1
  Mg  Mg157  1  0.25482200  0.07364700  0.66551800  1
  Mg  Mg158  1  0.77533100  0.55313800  0.64500900  1
  Mg  Mg159  1  0.59894600  0.43554800  0.67440600  1
  Mg  Mg160  1  0.30273900  0.66276800  0.68612000  1
  Mg  Mg161  1  0.00292600  0.36003700  0.68466100  1
  Mg  Mg162  1  0.24686200  0.42466900  0.59500900  1
  Mg  Mg163  1  0.61270600  0.22507100  0.67684100  1
  Mg  Mg164  1  0.57492900  0.58729400  0.62684100  1
  Mg  Mg165  1  0.78026100  0.89529300  0.67817400  1
  Mg  Mg166  1  0.90470700  0.41973900  0.62817400  1
  Mg  Mg167  1  0.11004000  0.72773700  0.67950700  1
  Mg  Mg168  1  0.28897800  0.87324500  0.68368600  1
  Mg  Mg169  1  0.79164400  0.37057800  0.68101900  1
  Mg  Mg170  1  0.07226300  0.08996000  0.62950700  1
  Mg  Mg171  1  0.32675500  0.51102200  0.73368600  1
  Mg  Mg172  1  0.82942200  0.00835600  0.73101900  1
  Mg  Mg173  1  0.52142300  0.80302300  0.78235300  1
  Mg  Mg174  1  0.99697700  0.67857700  0.73235300  1
  Mg  Mg175  1  0.52350900  0.14315800  0.74009700  1
  Mg  Mg176  1  0.05684200  0.27649100  0.79009700  1
  Mg  Mg177  1  0.77817500  0.55515800  0.72043000  1
  Mg  Mg178  1  0.64484200  0.02182500  0.77043000  1
  Mg  Mg179  1  0.35084200  0.14915800  0.78026300  1
  Mg  Mg180  1  0.65084200  0.84915800  0.73026300  1
  Mg  Mg181  1  0.85084200  0.14915800  0.78026300  1
  Mg  Mg182  1  0.65084200  0.34915800  0.73026300  1
  Mg  Mg183  1  0.85084200  0.64915800  0.78026300  1
  Mg  Mg184  1  0.15084200  0.34915800  0.73026300  1
  Mg  Mg185  1  0.12635300  0.54517800  0.71551800  1
  Mg  Mg186  1  0.83996300  0.79707400  0.73466100  1
  Mg  Mg187  1  0.53723200  0.49726100  0.73612000  1
  Mg  Mg188  1  0.76445200  0.20105400  0.72440600  1
  Mg  Mg189  1  0.46172100  0.90124100  0.72586600  1
  Mg  Mg190  1  0.29875900  0.33827900  0.77586600  1
  Mg  Mg191  1  0.65482200  0.67364700  0.76551800  1
  Mg  Mg192  1  0.17533100  0.15313800  0.74500900  1
  Mg  Mg193  1  0.99894600  0.03554800  0.77440600  1
  Mg  Mg194  1  0.70273900  0.26276800  0.78612000  1
  Mg  Mg195  1  0.40292600  0.96003700  0.78466100  1
  Mg  Mg196  1  0.64686200  0.02466900  0.69500900  1
  Mg  Mg197  1  0.01270600  0.82507100  0.77684100  1
  Mg  Mg198  1  0.97492900  0.18729400  0.72684100  1
  Mg  Mg199  1  0.18026100  0.49529300  0.77817400  1
  Mg  Mg200  1  0.30470700  0.01973900  0.72817400  1
  Mg  Mg201  1  0.51004000  0.32773700  0.77950700  1
  Mg  Mg202  1  0.68897800  0.47324500  0.78368600  1
  Mg  Mg203  1  0.19164400  0.97057800  0.78101900  1
  Mg  Mg204  1  0.47226300  0.68996000  0.72950700  1
