# generated using pymatgen
data_Mg5Tl2
_symmetry_space_group_name_H-M   'P 1'
_cell_length_a   9.54566444
_cell_length_b   16.02918063
_cell_length_c   45.11443000
_cell_angle_alpha   88.68557816
_cell_angle_beta   89.47322622
_cell_angle_gamma   74.82313579
_symmetry_Int_Tables_number   1
_chemical_formula_structural   Mg5Tl2
_chemical_formula_sum   'Mg120 Tl48'
_cell_volume   6660.37438527
_cell_formula_units_Z   24
loop_
 _symmetry_equiv_pos_site_id
 _symmetry_equiv_pos_as_xyz
  1  'x, y, z'
loop_
 _atom_site_type_symbol
 _atom_site_label
 _atom_site_symmetry_multiplicity
 _atom_site_fract_x
 _atom_site_fract_y
 _atom_site_fract_z
 _atom_site_occupancy
  Mg  Mg0  1  0.06491200  0.05997200  0.22497700  1
  Mg  Mg1  1  0.99414400  0.26317600  0.20146400  1
  Mg  Mg2  1  0.20000000  0.92500000  0.27500000  1
  Mg  Mg3  1  0.63287100  0.40706400  0.20798700  1
  Mg  Mg4  1  0.23508800  0.39002800  0.22502300  1
  Mg  Mg5  1  0.30585600  0.18682400  0.24853600  1
  Mg  Mg6  1  0.10585600  0.13682400  0.29853600  1
  Mg  Mg7  1  0.79414400  0.21317600  0.25146400  1
  Mg  Mg8  1  0.66712900  0.04293600  0.24201300  1
  Mg  Mg9  1  0.40000000  0.97500000  0.22500000  1
  Mg  Mg10  1  0.36491200  0.50997200  0.27497700  1
  Mg  Mg11  1  0.29414400  0.71317600  0.25146400  1
  Mg  Mg12  1  0.90000000  0.47500000  0.22500000  1
  Mg  Mg13  1  0.93287100  0.85706400  0.25798700  1
  Mg  Mg14  1  0.53508800  0.84002800  0.27502300  1
  Mg  Mg15  1  0.60585600  0.63682400  0.29853600  1
  Mg  Mg16  1  0.80585600  0.68682400  0.24853600  1
  Mg  Mg17  1  0.49414400  0.76317600  0.20146400  1
  Mg  Mg18  1  0.96712900  0.49293600  0.29201300  1
  Mg  Mg19  1  0.70000000  0.42500000  0.27500000  1
  Mg  Mg20  1  0.66491200  0.95997200  0.32497700  1
  Mg  Mg21  1  0.59414400  0.16317600  0.30146400  1
  Mg  Mg22  1  0.80000000  0.82500000  0.37500000  1
  Mg  Mg23  1  0.23287100  0.30706400  0.30798700  1
  Mg  Mg24  1  0.83508800  0.29002800  0.32502300  1
  Mg  Mg25  1  0.90585600  0.08682400  0.34853600  1
  Mg  Mg26  1  0.70585600  0.03682400  0.39853600  1
  Mg  Mg27  1  0.39414400  0.11317600  0.35146400  1
  Mg  Mg28  1  0.26712900  0.94293600  0.34201300  1
  Mg  Mg29  1  0.00000000  0.87500000  0.32500000  1
  Mg  Mg30  1  0.96491200  0.40997200  0.37497700  1
  Mg  Mg31  1  0.89414400  0.61317600  0.35146400  1
  Mg  Mg32  1  0.50000000  0.37500000  0.32500000  1
  Mg  Mg33  1  0.53287100  0.75706400  0.35798700  1
  Mg  Mg34  1  0.13508800  0.74002800  0.37502300  1
  Mg  Mg35  1  0.20585600  0.53682400  0.39853600  1
  Mg  Mg36  1  0.40585600  0.58682400  0.34853600  1
  Mg  Mg37  1  0.09414400  0.66317600  0.30146400  1
  Mg  Mg38  1  0.56712900  0.39293600  0.39201300  1
  Mg  Mg39  1  0.30000000  0.32500000  0.37500000  1
  Mg  Mg40  1  0.26491200  0.85997200  0.42497700  1
  Mg  Mg41  1  0.19414400  0.06317600  0.40146400  1
  Mg  Mg42  1  0.40000000  0.72500000  0.47500000  1
  Mg  Mg43  1  0.83287100  0.20706400  0.40798700  1
  Mg  Mg44  1  0.43508800  0.19002800  0.42502300  1
  Mg  Mg45  1  0.50585600  0.98682400  0.44853600  1
  Mg  Mg46  1  0.30585600  0.93682400  0.49853600  1
  Mg  Mg47  1  0.99414400  0.01317600  0.45146400  1
  Mg  Mg48  1  0.86712900  0.84293600  0.44201300  1
  Mg  Mg49  1  0.60000000  0.77500000  0.42500000  1
  Mg  Mg50  1  0.56491200  0.30997200  0.47497700  1
  Mg  Mg51  1  0.49414400  0.51317600  0.45146400  1
  Mg  Mg52  1  0.10000000  0.27500000  0.42500000  1
  Mg  Mg53  1  0.13287100  0.65706400  0.45798700  1
  Mg  Mg54  1  0.73508800  0.64002800  0.47502300  1
  Mg  Mg55  1  0.80585600  0.43682400  0.49853600  1
  Mg  Mg56  1  0.00585600  0.48682400  0.44853600  1
  Mg  Mg57  1  0.69414400  0.56317600  0.40146400  1
  Mg  Mg58  1  0.16712900  0.29293600  0.49201300  1
  Mg  Mg59  1  0.90000000  0.22500000  0.47500000  1
  Mg  Mg60  1  0.86491200  0.75997200  0.52497700  1
  Mg  Mg61  1  0.79414400  0.96317600  0.50146400  1
  Mg  Mg62  1  1.00000000  0.62500000  0.57500000  1
  Mg  Mg63  1  0.43287100  0.10706400  0.50798700  1
  Mg  Mg64  1  0.03508800  0.09002800  0.52502300  1
  Mg  Mg65  1  0.10585600  0.88682400  0.54853600  1
  Mg  Mg66  1  0.90585600  0.83682400  0.59853600  1
  Mg  Mg67  1  0.59414400  0.91317600  0.55146400  1
  Mg  Mg68  1  0.46712900  0.74293600  0.54201300  1
  Mg  Mg69  1  0.20000000  0.67500000  0.52500000  1
  Mg  Mg70  1  0.16491200  0.20997200  0.57497700  1
  Mg  Mg71  1  0.09414400  0.41317600  0.55146400  1
  Mg  Mg72  1  0.70000000  0.17500000  0.52500000  1
  Mg  Mg73  1  0.73287100  0.55706400  0.55798700  1
  Mg  Mg74  1  0.33508800  0.54002800  0.57502300  1
  Mg  Mg75  1  0.40585600  0.33682400  0.59853600  1
  Mg  Mg76  1  0.60585600  0.38682400  0.54853600  1
  Mg  Mg77  1  0.29414400  0.46317600  0.50146400  1
  Mg  Mg78  1  0.76712900  0.19293600  0.59201300  1
  Mg  Mg79  1  0.50000000  0.12500000  0.57500000  1
  Mg  Mg80  1  0.46491200  0.65997200  0.62497700  1
  Mg  Mg81  1  0.39414400  0.86317600  0.60146400  1
  Mg  Mg82  1  0.60000000  0.52500000  0.67500000  1
  Mg  Mg83  1  0.03287100  0.00706400  0.60798700  1
  Mg  Mg84  1  0.63508800  0.99002800  0.62502300  1
  Mg  Mg85  1  0.70585600  0.78682400  0.64853600  1
  Mg  Mg86  1  0.50585600  0.73682400  0.69853600  1
  Mg  Mg87  1  0.19414400  0.81317600  0.65146400  1
  Mg  Mg88  1  0.06712900  0.64293600  0.64201300  1
  Mg  Mg89  1  0.80000000  0.57500000  0.62500000  1
  Mg  Mg90  1  0.76491200  0.10997200  0.67497700  1
  Mg  Mg91  1  0.69414400  0.31317600  0.65146400  1
  Mg  Mg92  1  0.30000000  0.07500000  0.62500000  1
  Mg  Mg93  1  0.33287100  0.45706400  0.65798700  1
  Mg  Mg94  1  0.93508800  0.44002800  0.67502300  1
  Mg  Mg95  1  0.00585600  0.23682400  0.69853600  1
  Mg  Mg96  1  0.20585600  0.28682400  0.64853600  1
  Mg  Mg97  1  0.89414400  0.36317600  0.60146400  1
  Mg  Mg98  1  0.36712900  0.09293600  0.69201300  1
  Mg  Mg99  1  0.10000000  0.02500000  0.67500000  1
  Mg  Mg100  1  0.06491200  0.55997200  0.72497700  1
  Mg  Mg101  1  0.99414400  0.76317600  0.70146400  1
  Mg  Mg102  1  0.20000000  0.42500000  0.77500000  1
  Mg  Mg103  1  0.63287100  0.90706400  0.70798700  1
  Mg  Mg104  1  0.23508800  0.89002800  0.72502300  1
  Mg  Mg105  1  0.30585600  0.68682400  0.74853600  1
  Mg  Mg106  1  0.10585600  0.63682400  0.79853600  1
  Mg  Mg107  1  0.79414400  0.71317600  0.75146400  1
  Mg  Mg108  1  0.66712900  0.54293600  0.74201300  1
  Mg  Mg109  1  0.40000000  0.47500000  0.72500000  1
  Mg  Mg110  1  0.36491200  0.00997200  0.77497700  1
  Mg  Mg111  1  0.29414400  0.21317600  0.75146400  1
  Mg  Mg112  1  0.90000000  0.97500000  0.72500000  1
  Mg  Mg113  1  0.93287100  0.35706400  0.75798700  1
  Mg  Mg114  1  0.53508800  0.34002800  0.77502300  1
  Mg  Mg115  1  0.60585600  0.13682400  0.79853600  1
  Mg  Mg116  1  0.80585600  0.18682400  0.74853600  1
  Mg  Mg117  1  0.49414400  0.26317600  0.70146400  1
  Mg  Mg118  1  0.96712900  0.99293600  0.79201300  1
  Mg  Mg119  1  0.70000000  0.92500000  0.77500000  1
  Tl  Tl120  1  0.49073000  0.31668700  0.26148300  1
  Tl  Tl121  1  0.89326500  0.03598100  0.28584900  1
  Tl  Tl122  1  0.00673500  0.31401900  0.26415100  1
  Tl  Tl123  1  0.40927000  0.03331300  0.28851700  1
  Tl  Tl124  1  0.19073000  0.86668700  0.21148300  1
  Tl  Tl125  1  0.59326500  0.58598100  0.23584900  1
  Tl  Tl126  1  0.70673500  0.86401900  0.21415100  1
  Tl  Tl127  1  0.10927000  0.58331300  0.23851700  1
  Tl  Tl128  1  0.09073000  0.21668700  0.36148300  1
  Tl  Tl129  1  0.49326500  0.93598100  0.38584900  1
  Tl  Tl130  1  0.60673500  0.21401900  0.36415100  1
  Tl  Tl131  1  0.00927000  0.93331300  0.38851700  1
  Tl  Tl132  1  0.79073000  0.76668700  0.31148300  1
  Tl  Tl133  1  0.19326500  0.48598100  0.33584900  1
  Tl  Tl134  1  0.30673500  0.76401900  0.31415100  1
  Tl  Tl135  1  0.70927000  0.48331300  0.33851700  1
  Tl  Tl136  1  0.69073000  0.11668700  0.46148300  1
  Tl  Tl137  1  0.09326500  0.83598100  0.48584900  1
  Tl  Tl138  1  0.20673500  0.11401900  0.46415100  1
  Tl  Tl139  1  0.60927000  0.83331300  0.48851700  1
  Tl  Tl140  1  0.39073000  0.66668700  0.41148300  1
  Tl  Tl141  1  0.79326500  0.38598100  0.43584900  1
  Tl  Tl142  1  0.90673500  0.66401900  0.41415100  1
  Tl  Tl143  1  0.30927000  0.38331300  0.43851700  1
  Tl  Tl144  1  0.29073000  0.01668700  0.56148300  1
  Tl  Tl145  1  0.69326500  0.73598100  0.58584900  1
  Tl  Tl146  1  0.80673500  0.01401900  0.56415100  1
  Tl  Tl147  1  0.20927000  0.73331300  0.58851700  1
  Tl  Tl148  1  0.99073000  0.56668700  0.51148300  1
  Tl  Tl149  1  0.39326500  0.28598100  0.53584900  1
  Tl  Tl150  1  0.50673500  0.56401900  0.51415100  1
  Tl  Tl151  1  0.90927000  0.28331300  0.53851700  1
  Tl  Tl152  1  0.89073000  0.91668700  0.66148300  1
  Tl  Tl153  1  0.29326500  0.63598100  0.68584900  1
  Tl  Tl154  1  0.40673500  0.91401900  0.66415100  1
  Tl  Tl155  1  0.80927000  0.63331300  0.68851700  1
  Tl  Tl156  1  0.59073000  0.46668700  0.61148300  1
  Tl  Tl157  1  0.99326500  0.18598100  0.63584900  1
  Tl  Tl158  1  0.10673500  0.46401900  0.61415100  1
  Tl  Tl159  1  0.50927000  0.18331300  0.63851700  1
  Tl  Tl160  1  0.49073000  0.81668700  0.76148300  1
  Tl  Tl161  1  0.89326500  0.53598100  0.78584900  1
  Tl  Tl162  1  0.00673500  0.81401900  0.76415100  1
  Tl  Tl163  1  0.40927000  0.53331300  0.78851700  1
  Tl  Tl164  1  0.19073000  0.36668700  0.71148300  1
  Tl  Tl165  1  0.59326500  0.08598100  0.73584900  1
  Tl  Tl166  1  0.70673500  0.36401900  0.71415100  1
  Tl  Tl167  1  0.10927000  0.08331300  0.73851700  1
