# generated using pymatgen
data_Mg13Tl5
_symmetry_space_group_name_H-M   'P 1'
_cell_length_a   8.77491585
_cell_length_b   8.77491626
_cell_length_c   47.52967400
_cell_angle_alpha   92.48032456
_cell_angle_beta   92.48032467
_cell_angle_gamma   114.09852797
_symmetry_Int_Tables_number   1
_chemical_formula_structural   Mg13Tl5
_chemical_formula_sum   'Mg52 Tl20'
_cell_volume   3330.18723731
_cell_formula_units_Z   4
loop_
 _symmetry_equiv_pos_site_id
 _symmetry_equiv_pos_as_xyz
  1  'x, y, z'
loop_
 _atom_site_type_symbol
 _atom_site_label
 _atom_site_symmetry_multiplicity
 _atom_site_fract_x
 _atom_site_fract_y
 _atom_site_fract_z
 _atom_site_occupancy
  Mg  Mg0  1  0.33364600  0.50354400  0.72362500  1
  Mg  Mg1  1  0.30576100  0.13586300  0.69066100  1
  Mg  Mg2  1  0.73364600  0.90354400  0.62362500  1
  Mg  Mg3  1  0.15506400  0.68434400  0.68214300  1
  Mg  Mg4  1  0.91970400  0.91970400  0.68214300  1
  Mg  Mg5  1  0.70354400  0.53364600  0.67362500  1
  Mg  Mg6  1  0.70576100  0.53586300  0.59066100  1
  Mg  Mg7  1  0.88434400  0.35506400  0.63214300  1
  Mg  Mg8  1  0.68434400  0.15506400  0.68214300  1
  Mg  Mg9  1  0.35506400  0.88434400  0.63214300  1
  Mg  Mg10  1  0.33586300  0.50576100  0.64066100  1
  Mg  Mg11  1  0.11970400  0.11970400  0.63214300  1
  Mg  Mg12  1  0.13364600  0.30354400  0.52362500  1
  Mg  Mg13  1  0.55506400  0.08434400  0.58214300  1
  Mg  Mg14  1  0.31970400  0.31970400  0.58214300  1
  Mg  Mg15  1  0.10354400  0.93364600  0.57362500  1
  Mg  Mg16  1  0.10576100  0.93586300  0.49066100  1
  Mg  Mg17  1  0.28434400  0.75506400  0.53214300  1
  Mg  Mg18  1  0.08434400  0.55506400  0.58214300  1
  Mg  Mg19  1  0.75506400  0.28434400  0.53214300  1
  Mg  Mg20  1  0.73586300  0.90576100  0.54066100  1
  Mg  Mg21  1  0.51970400  0.51970400  0.53214300  1
  Mg  Mg22  1  0.53364600  0.70354400  0.42362500  1
  Mg  Mg23  1  0.95506400  0.48434400  0.48214300  1
  Mg  Mg24  1  0.71970400  0.71970400  0.48214300  1
  Mg  Mg25  1  0.50354400  0.33364600  0.47362500  1
  Mg  Mg26  1  0.50576100  0.33586300  0.39066100  1
  Mg  Mg27  1  0.68434400  0.15506400  0.43214300  1
  Mg  Mg28  1  0.48434400  0.95506400  0.48214300  1
  Mg  Mg29  1  0.15506400  0.68434400  0.43214300  1
  Mg  Mg30  1  0.13586300  0.30576100  0.44066100  1
  Mg  Mg31  1  0.91970400  0.91970400  0.43214300  1
  Mg  Mg32  1  0.93364600  0.10354400  0.32362500  1
  Mg  Mg33  1  0.35506400  0.88434400  0.38214300  1
  Mg  Mg34  1  0.11970400  0.11970400  0.38214300  1
  Mg  Mg35  1  0.90354400  0.73364600  0.37362500  1
  Mg  Mg36  1  0.90576100  0.73586300  0.29066100  1
  Mg  Mg37  1  0.08434400  0.55506400  0.33214300  1
  Mg  Mg38  1  0.88434400  0.35506400  0.38214300  1
  Mg  Mg39  1  0.55506400  0.08434400  0.33214300  1
  Mg  Mg40  1  0.53586300  0.70576100  0.34066100  1
  Mg  Mg41  1  0.31970400  0.31970400  0.33214300  1
  Mg  Mg42  1  0.33364600  0.50354400  0.22362500  1
  Mg  Mg43  1  0.75506400  0.28434400  0.28214300  1
  Mg  Mg44  1  0.51970400  0.51970400  0.28214300  1
  Mg  Mg45  1  0.30354400  0.13364600  0.27362500  1
  Mg  Mg46  1  0.30576100  0.13586300  0.19066100  1
  Mg  Mg47  1  0.48434400  0.95506400  0.23214300  1
  Mg  Mg48  1  0.28434400  0.75506400  0.28214300  1
  Mg  Mg49  1  0.95506400  0.48434400  0.23214300  1
  Mg  Mg50  1  0.93586300  0.10576100  0.24066100  1
  Mg  Mg51  1  0.71970400  0.71970400  0.23214300  1
  Tl  Tl52  1  0.98353100  0.73987100  0.63080900  1
  Tl  Tl53  1  0.53987100  0.78353100  0.68080900  1
  Tl  Tl54  1  0.49953700  0.25587600  0.63347700  1
  Tl  Tl55  1  0.05587600  0.29953700  0.68347700  1
  Tl  Tl56  1  0.38353100  0.13987100  0.53080900  1
  Tl  Tl57  1  0.93987100  0.18353100  0.58080900  1
  Tl  Tl58  1  0.89953700  0.65587600  0.53347700  1
  Tl  Tl59  1  0.45587600  0.69953700  0.58347700  1
  Tl  Tl60  1  0.78353100  0.53987100  0.43080900  1
  Tl  Tl61  1  0.33987100  0.58353100  0.48080900  1
  Tl  Tl62  1  0.29953700  0.05587600  0.43347700  1
  Tl  Tl63  1  0.85587600  0.09953700  0.48347700  1
  Tl  Tl64  1  0.18353100  0.93987100  0.33080900  1
  Tl  Tl65  1  0.73987100  0.98353100  0.38080900  1
  Tl  Tl66  1  0.69953700  0.45587600  0.33347700  1
  Tl  Tl67  1  0.25587600  0.49953700  0.38347700  1
  Tl  Tl68  1  0.58353100  0.33987100  0.23080900  1
  Tl  Tl69  1  0.13987100  0.38353100  0.28080900  1
  Tl  Tl70  1  0.09953700  0.85587600  0.23347700  1
  Tl  Tl71  1  0.65587600  0.89953700  0.28347700  1
