# generated using pymatgen
data_Mg3Pb
_symmetry_space_group_name_H-M   'P 1'
_cell_length_a   6.53025100
_cell_length_b   6.53025053
_cell_length_c   41.91526800
_cell_angle_alpha   90.00000000
_cell_angle_beta   90.00000000
_cell_angle_gamma   119.99999734
_symmetry_Int_Tables_number   1
_chemical_formula_structural   Mg3Pb
_chemical_formula_sum   'Mg30 Pb10'
_cell_volume   1547.97024282
_cell_formula_units_Z   10
loop_
 _symmetry_equiv_pos_site_id
 _symmetry_equiv_pos_as_xyz
  1  'x, y, z'
loop_
 _atom_site_type_symbol
 _atom_site_label
 _atom_site_symmetry_multiplicity
 _atom_site_fract_x
 _atom_site_fract_y
 _atom_site_fract_z
 _atom_site_occupancy
  Mg  Mg0  1  0.32554800  0.16277400  0.28125000  1
  Mg  Mg1  1  0.83722600  0.67445200  0.28125000  1
  Mg  Mg2  1  0.83722600  0.16277400  0.28125000  1
  Mg  Mg3  1  0.16277400  0.83722600  0.21875000  1
  Mg  Mg4  1  0.16277400  0.32554800  0.21875000  1
  Mg  Mg5  1  0.67445200  0.83722600  0.21875000  1
  Mg  Mg6  1  0.32554800  0.16277400  0.40625000  1
  Mg  Mg7  1  0.83722600  0.67445200  0.40625000  1
  Mg  Mg8  1  0.83722600  0.16277400  0.40625000  1
  Mg  Mg9  1  0.16277400  0.83722600  0.34375000  1
  Mg  Mg10  1  0.16277400  0.32554800  0.34375000  1
  Mg  Mg11  1  0.67445200  0.83722600  0.34375000  1
  Mg  Mg12  1  0.32554800  0.16277400  0.53125000  1
  Mg  Mg13  1  0.83722600  0.67445200  0.53125000  1
  Mg  Mg14  1  0.83722600  0.16277400  0.53125000  1
  Mg  Mg15  1  0.16277400  0.83722600  0.46875000  1
  Mg  Mg16  1  0.16277400  0.32554800  0.46875000  1
  Mg  Mg17  1  0.67445200  0.83722600  0.46875000  1
  Mg  Mg18  1  0.32554800  0.16277400  0.65625000  1
  Mg  Mg19  1  0.83722600  0.67445200  0.65625000  1
  Mg  Mg20  1  0.83722600  0.16277400  0.65625000  1
  Mg  Mg21  1  0.16277400  0.83722600  0.59375000  1
  Mg  Mg22  1  0.16277400  0.32554800  0.59375000  1
  Mg  Mg23  1  0.67445200  0.83722600  0.59375000  1
  Mg  Mg24  1  0.32554800  0.16277400  0.78125000  1
  Mg  Mg25  1  0.83722600  0.67445200  0.78125000  1
  Mg  Mg26  1  0.83722600  0.16277400  0.78125000  1
  Mg  Mg27  1  0.16277400  0.83722600  0.71875000  1
  Mg  Mg28  1  0.16277400  0.32554800  0.71875000  1
  Mg  Mg29  1  0.67445200  0.83722600  0.71875000  1
  Pb  Pb30  1  0.33333300  0.66666700  0.28125000  1
  Pb  Pb31  1  0.66666700  0.33333300  0.21875000  1
  Pb  Pb32  1  0.33333300  0.66666700  0.40625000  1
  Pb  Pb33  1  0.66666700  0.33333300  0.34375000  1
  Pb  Pb34  1  0.33333300  0.66666700  0.53125000  1
  Pb  Pb35  1  0.66666700  0.33333300  0.46875000  1
  Pb  Pb36  1  0.33333300  0.66666700  0.65625000  1
  Pb  Pb37  1  0.66666700  0.33333300  0.59375000  1
  Pb  Pb38  1  0.33333300  0.66666700  0.78125000  1
  Pb  Pb39  1  0.66666700  0.33333300  0.71875000  1
