# generated using pymatgen
data_Mg20Ir31
_symmetry_space_group_name_H-M   'P 1'
_cell_length_a   5.24707521
_cell_length_b   9.72091511
_cell_length_c   42.67859400
_cell_angle_alpha   83.72935757
_cell_angle_beta   86.47569412
_cell_angle_gamma   74.34252486
_symmetry_Int_Tables_number   1
_chemical_formula_structural   Mg20Ir31
_chemical_formula_sum   'Mg20 Ir31'
_cell_volume   2082.39608329
_cell_formula_units_Z   1
loop_
 _symmetry_equiv_pos_site_id
 _symmetry_equiv_pos_as_xyz
  1  'x, y, z'
loop_
 _atom_site_type_symbol
 _atom_site_label
 _atom_site_symmetry_multiplicity
 _atom_site_fract_x
 _atom_site_fract_y
 _atom_site_fract_z
 _atom_site_occupancy
  Mg  Mg0  1  0.71986400  0.84733900  0.71293200  1
  Mg  Mg1  1  0.28013600  0.76066100  0.67906800  1
  Mg  Mg2  1  0.44543300  0.33647400  0.77266100  1
  Mg  Mg3  1  0.55456700  0.27152600  0.61933900  1
  Mg  Mg4  1  0.70924000  0.79661800  0.78490200  1
  Mg  Mg5  1  0.29076000  0.81138200  0.60709800  1
  Mg  Mg6  1  0.57770000  0.14817700  0.69642300  1
  Mg  Mg7  1  0.42230000  0.45982300  0.69557700  1
  Mg  Mg8  1  0.97896800  0.30977500  0.73228800  1
  Mg  Mg9  1  0.02103200  0.29822500  0.65971200  1
  Mg  Mg10  1  0.71986400  0.04733900  0.51293200  1
  Mg  Mg11  1  0.28013600  0.96066100  0.47906800  1
  Mg  Mg12  1  0.44543300  0.53647400  0.57266100  1
  Mg  Mg13  1  0.55456700  0.47152600  0.41933900  1
  Mg  Mg14  1  0.70924000  0.99661800  0.58490200  1
  Mg  Mg15  1  0.29076000  0.01138200  0.40709800  1
  Mg  Mg16  1  0.57770000  0.34817700  0.49642300  1
  Mg  Mg17  1  0.42230000  0.65982300  0.49557700  1
  Mg  Mg18  1  0.97896800  0.50977500  0.53228800  1
  Mg  Mg19  1  0.02103200  0.49822500  0.45971200  1
  Ir  Ir20  1  0.13112200  0.03609300  0.70166400  1
  Ir  Ir21  1  0.86887800  0.57190700  0.69033600  1
  Ir  Ir22  1  0.08254400  0.59398200  0.74190600  1
  Ir  Ir23  1  0.91745600  0.01401800  0.65009400  1
  Ir  Ir24  1  0.41843100  0.01401800  0.65009400  1
  Ir  Ir25  1  0.58156900  0.59398200  0.74190600  1
  Ir  Ir26  1  0.00000000  0.20400000  0.79600000  1
  Ir  Ir27  1  0.78403600  0.78732300  0.64460500  1
  Ir  Ir28  1  0.21596400  0.82067700  0.74739500  1
  Ir  Ir29  1  0.86417200  0.48228000  0.78937700  1
  Ir  Ir30  1  0.13582800  0.12572000  0.60262300  1
  Ir  Ir31  1  0.82470600  0.06328300  0.75518100  1
  Ir  Ir32  1  0.17529400  0.54471700  0.63681900  1
  Ir  Ir33  1  0.64317100  0.54471700  0.63681900  1
  Ir  Ir34  1  0.35682900  0.06328300  0.75518100  1
  Ir  Ir35  1  0.13112200  0.23609300  0.50166400  1
  Ir  Ir36  1  0.86887800  0.77190700  0.49033600  1
  Ir  Ir37  1  0.08254400  0.79398200  0.54190600  1
  Ir  Ir38  1  0.91745600  0.21401800  0.45009400  1
  Ir  Ir39  1  0.41843100  0.21401800  0.45009400  1
  Ir  Ir40  1  0.58156900  0.79398200  0.54190600  1
  Ir  Ir41  1  1.00000000  0.40400000  0.59600000  1
  Ir  Ir42  1  0.78403600  0.98732300  0.44460500  1
  Ir  Ir43  1  0.21596400  0.02067700  0.54739500  1
  Ir  Ir44  1  0.86417200  0.68228000  0.58937700  1
  Ir  Ir45  1  0.13582800  0.32572000  0.40262300  1
  Ir  Ir46  1  0.82470600  0.26328300  0.55518100  1
  Ir  Ir47  1  0.17529400  0.74471700  0.43681900  1
  Ir  Ir48  1  0.64317100  0.74471700  0.43681900  1
  Ir  Ir49  1  0.35682900  0.26328300  0.55518100  1
  Ir  Ir50  1  0.00000000  0.60400000  0.39600000  1
