# generated using pymatgen
data_Mg21Au62
_symmetry_space_group_name_H-M   'P 1'
_cell_length_a   10.43041218
_cell_length_b   11.29953425
_cell_length_c   49.40543900
_cell_angle_alpha   85.63582371
_cell_angle_beta   88.14566253
_cell_angle_gamma   98.74753851
_symmetry_Int_Tables_number   1
_chemical_formula_structural   Mg21Au62
_chemical_formula_sum   'Mg42 Au124'
_cell_volume   5732.74310784
_cell_formula_units_Z   2
loop_
 _symmetry_equiv_pos_site_id
 _symmetry_equiv_pos_as_xyz
  1  'x, y, z'
loop_
 _atom_site_type_symbol
 _atom_site_label
 _atom_site_symmetry_multiplicity
 _atom_site_fract_x
 _atom_site_fract_y
 _atom_site_fract_z
 _atom_site_occupancy
  Mg  Mg0  1  0.42332200  0.56857200  0.77815900  1
  Mg  Mg1  1  0.85279900  0.79537200  0.70309100  1
  Mg  Mg2  1  0.90263900  0.14425400  0.75293200  1
  Mg  Mg3  1  0.37348200  0.21969000  0.72831800  1
  Mg  Mg4  1  0.04226600  0.49579400  0.71935100  1
  Mg  Mg5  1  0.23385500  0.86815000  0.76189900  1
  Mg  Mg6  1  0.61251800  0.27004400  0.79460100  1
  Mg  Mg7  1  0.76360200  0.79390000  0.78664900  1
  Mg  Mg8  1  0.32332200  0.86857200  0.67815900  1
  Mg  Mg9  1  0.75279900  0.09537200  0.60309100  1
  Mg  Mg10  1  0.80263900  0.44425400  0.65293200  1
  Mg  Mg11  1  0.27348200  0.51969000  0.62831800  1
  Mg  Mg12  1  0.94226600  0.79579400  0.61935100  1
  Mg  Mg13  1  0.13385500  0.16815000  0.66189900  1
  Mg  Mg14  1  0.51251800  0.57004400  0.69460100  1
  Mg  Mg15  1  0.66360200  0.09390000  0.68664900  1
  Mg  Mg16  1  0.22332200  0.16857200  0.57815900  1
  Mg  Mg17  1  0.65279900  0.39537200  0.50309100  1
  Mg  Mg18  1  0.70263900  0.74425400  0.55293200  1
  Mg  Mg19  1  0.17348200  0.81969000  0.52831800  1
  Mg  Mg20  1  0.84226600  0.09579400  0.51935100  1
  Mg  Mg21  1  0.03385500  0.46815000  0.56189900  1
  Mg  Mg22  1  0.41251800  0.87004400  0.59460100  1
  Mg  Mg23  1  0.56360200  0.39390000  0.58664900  1
  Mg  Mg24  1  0.12332200  0.46857200  0.47815900  1
  Mg  Mg25  1  0.55279900  0.69537200  0.40309100  1
  Mg  Mg26  1  0.60263900  0.04425400  0.45293200  1
  Mg  Mg27  1  0.07348200  0.11969000  0.42831800  1
  Mg  Mg28  1  0.74226600  0.39579400  0.41935100  1
  Mg  Mg29  1  0.93385500  0.76815000  0.46189900  1
  Mg  Mg30  1  0.31251800  0.17004400  0.49460100  1
  Mg  Mg31  1  0.46360200  0.69390000  0.48664900  1
  Mg  Mg32  1  0.02332200  0.76857200  0.37815900  1
  Mg  Mg33  1  0.45279900  0.99537200  0.30309100  1
  Mg  Mg34  1  0.50263900  0.34425400  0.35293200  1
  Mg  Mg35  1  0.97348200  0.41969000  0.32831800  1
  Mg  Mg36  1  0.64226600  0.69579400  0.31935100  1
  Mg  Mg37  1  0.83385500  0.06815000  0.36189900  1
  Mg  Mg38  1  0.21251800  0.47004400  0.39460100  1
  Mg  Mg39  1  0.36360200  0.99390000  0.38664900  1
  Mg  Mg40  1  0.11251800  0.77004400  0.29460100  1
  Mg  Mg41  1  0.26360200  0.29390000  0.28664900  1
  Au  Au42  1  0.11294800  0.25730900  0.71551300  1
  Au  Au43  1  0.11317300  0.75663500  0.71573700  1
  Au  Au44  1  0.16317300  0.10663500  0.76573700  1
  Au  Au45  1  0.16294800  0.60730900  0.76551300  1
  Au  Au46  1  0.84864300  0.29454500  0.70328400  1
  Au  Au47  1  0.42747800  0.06939900  0.77796600  1
  Au  Au48  1  0.37758800  0.72016800  0.72807600  1
  Au  Au49  1  0.89853300  0.64377600  0.75317400  1
  Au  Au50  1  0.49845300  0.83033600  0.77450400  1
  Au  Au51  1  0.82807600  0.38238200  0.75715500  1
  Au  Au52  1  0.77766800  0.53360800  0.70674600  1
  Au  Au53  1  0.44804500  0.98156200  0.72409500  1
  Au  Au54  1  0.02270000  0.75600400  0.79928100  1
  Au  Au55  1  0.30333000  0.45820900  0.73187900  1
  Au  Au56  1  0.35342000  0.30794000  0.78196900  1
  Au  Au57  1  0.97279000  0.90573500  0.74937100  1
  Au  Au58  1  0.68806000  0.53197200  0.79062500  1
  Au  Au59  1  0.63806000  0.68197200  0.74062500  1
  Au  Au60  1  0.63806000  0.18197200  0.74062500  1
  Au  Au61  1  0.68806000  0.03197200  0.79062500  1
  Au  Au62  1  0.56543500  0.42050500  0.74444700  1
  Au  Au63  1  0.71068600  0.94343900  0.73680300  1
  Au  Au64  1  0.08595000  0.34479700  0.76968300  1
  Au  Au65  1  0.19017100  0.01914700  0.71156700  1
  Au  Au66  1  0.01294800  0.55730900  0.61551300  1
  Au  Au67  1  0.01317300  0.05663500  0.61573700  1
  Au  Au68  1  0.06317300  0.40663500  0.66573700  1
  Au  Au69  1  0.06294800  0.90730900  0.66551300  1
  Au  Au70  1  0.74864300  0.59454500  0.60328400  1
  Au  Au71  1  0.32747800  0.36939900  0.67796600  1
  Au  Au72  1  0.27758800  0.02016800  0.62807600  1
  Au  Au73  1  0.79853300  0.94377600  0.65317400  1
  Au  Au74  1  0.39845300  0.13033600  0.67450400  1
  Au  Au75  1  0.72807600  0.68238200  0.65715500  1
  Au  Au76  1  0.67766800  0.83360800  0.60674600  1
  Au  Au77  1  0.34804500  0.28156200  0.62409500  1
  Au  Au78  1  0.92270000  0.05600400  0.69928100  1
  Au  Au79  1  0.20333000  0.75820900  0.63187900  1
  Au  Au80  1  0.25342000  0.60794000  0.68196900  1
  Au  Au81  1  0.87279000  0.20573500  0.64937100  1
  Au  Au82  1  0.58806000  0.83197200  0.69062500  1
  Au  Au83  1  0.53806000  0.98197200  0.64062500  1
  Au  Au84  1  0.53806000  0.48197200  0.64062500  1
  Au  Au85  1  0.58806000  0.33197200  0.69062500  1
  Au  Au86  1  0.46543500  0.72050500  0.64444700  1
  Au  Au87  1  0.61068600  0.24343900  0.63680300  1
  Au  Au88  1  0.98595000  0.64479700  0.66968300  1
  Au  Au89  1  0.09017100  0.31914700  0.61156700  1
  Au  Au90  1  0.91294800  0.85730900  0.51551300  1
  Au  Au91  1  0.91317300  0.35663500  0.51573700  1
  Au  Au92  1  0.96317300  0.70663500  0.56573700  1
  Au  Au93  1  0.96294800  0.20730900  0.56551300  1
  Au  Au94  1  0.64864300  0.89454500  0.50328400  1
  Au  Au95  1  0.22747800  0.66939900  0.57796600  1
  Au  Au96  1  0.17758800  0.32016800  0.52807600  1
  Au  Au97  1  0.69853300  0.24377600  0.55317400  1
  Au  Au98  1  0.29845300  0.43033600  0.57450400  1
  Au  Au99  1  0.62807600  0.98238200  0.55715500  1
  Au  Au100  1  0.57766800  0.13360800  0.50674600  1
  Au  Au101  1  0.24804500  0.58156200  0.52409500  1
  Au  Au102  1  0.82270000  0.35600400  0.59928100  1
  Au  Au103  1  0.10333000  0.05820900  0.53187900  1
  Au  Au104  1  0.15342000  0.90794000  0.58196900  1
  Au  Au105  1  0.77279000  0.50573500  0.54937100  1
  Au  Au106  1  0.48806000  0.13197200  0.59062500  1
  Au  Au107  1  0.43806000  0.28197200  0.54062500  1
  Au  Au108  1  0.43806000  0.78197200  0.54062500  1
  Au  Au109  1  0.48806000  0.63197200  0.59062500  1
  Au  Au110  1  0.36543500  0.02050500  0.54444700  1
  Au  Au111  1  0.51068600  0.54343900  0.53680300  1
  Au  Au112  1  0.88595000  0.94479700  0.56968300  1
  Au  Au113  1  0.99017100  0.61914700  0.51156700  1
  Au  Au114  1  0.81294800  0.15730900  0.41551300  1
  Au  Au115  1  0.81317300  0.65663500  0.41573700  1
  Au  Au116  1  0.86317300  0.00663500  0.46573700  1
  Au  Au117  1  0.86294800  0.50730900  0.46551300  1
  Au  Au118  1  0.54864300  0.19454500  0.40328400  1
  Au  Au119  1  0.12747800  0.96939900  0.47796600  1
  Au  Au120  1  0.07758800  0.62016800  0.42807600  1
  Au  Au121  1  0.59853300  0.54377600  0.45317400  1
  Au  Au122  1  0.19845300  0.73033600  0.47450400  1
  Au  Au123  1  0.52807600  0.28238200  0.45715500  1
  Au  Au124  1  0.47766800  0.43360800  0.40674600  1
  Au  Au125  1  0.14804500  0.88156200  0.42409500  1
  Au  Au126  1  0.72270000  0.65600400  0.49928100  1
  Au  Au127  1  0.00333000  0.35820900  0.43187900  1
  Au  Au128  1  0.05342000  0.20794000  0.48196900  1
  Au  Au129  1  0.67279000  0.80573500  0.44937100  1
  Au  Au130  1  0.38806000  0.43197200  0.49062500  1
  Au  Au131  1  0.33806000  0.58197200  0.44062500  1
  Au  Au132  1  0.33806000  0.08197200  0.44062500  1
  Au  Au133  1  0.38806000  0.93197200  0.49062500  1
  Au  Au134  1  0.26543500  0.32050500  0.44444700  1
  Au  Au135  1  0.41068600  0.84343900  0.43680300  1
  Au  Au136  1  0.78595000  0.24479700  0.46968300  1
  Au  Au137  1  0.89017100  0.91914700  0.41156700  1
  Au  Au138  1  0.71294800  0.45730900  0.31551300  1
  Au  Au139  1  0.71317300  0.95663500  0.31573700  1
  Au  Au140  1  0.76317300  0.30663500  0.36573700  1
  Au  Au141  1  0.76294800  0.80730900  0.36551300  1
  Au  Au142  1  0.44864300  0.49454500  0.30328400  1
  Au  Au143  1  0.02747800  0.26939900  0.37796600  1
  Au  Au144  1  0.97758800  0.92016800  0.32807600  1
  Au  Au145  1  0.49853300  0.84377600  0.35317400  1
  Au  Au146  1  0.09845300  0.03033600  0.37450400  1
  Au  Au147  1  0.42807600  0.58238200  0.35715500  1
  Au  Au148  1  0.37766800  0.73360800  0.30674600  1
  Au  Au149  1  0.04804500  0.18156200  0.32409500  1
  Au  Au150  1  0.62270000  0.95600400  0.39928100  1
  Au  Au151  1  0.90333000  0.65820900  0.33187900  1
  Au  Au152  1  0.95342000  0.50794000  0.38196900  1
  Au  Au153  1  0.57279000  0.10573500  0.34937100  1
  Au  Au154  1  0.28806000  0.73197200  0.39062500  1
  Au  Au155  1  0.23806000  0.88197200  0.34062500  1
  Au  Au156  1  0.23806000  0.38197200  0.34062500  1
  Au  Au157  1  0.28806000  0.23197200  0.39062500  1
  Au  Au158  1  0.16543500  0.62050500  0.34444700  1
  Au  Au159  1  0.31068600  0.14343900  0.33680300  1
  Au  Au160  1  0.68595000  0.54479700  0.36968300  1
  Au  Au161  1  0.79017100  0.21914700  0.31156700  1
  Au  Au162  1  0.52270000  0.25600400  0.29928100  1
  Au  Au163  1  0.85342000  0.80794000  0.28196900  1
  Au  Au164  1  0.18806000  0.03197200  0.29062500  1
  Au  Au165  1  0.18806000  0.53197200  0.29062500  1
