# generated using pymatgen
data_MgB4
_symmetry_space_group_name_H-M   'P 1'
_cell_length_a   4.39738600
_cell_length_b   7.42725500
_cell_length_c   43.87913800
_cell_angle_alpha   90.00000000
_cell_angle_beta   90.00000000
_cell_angle_gamma   90.00000000
_symmetry_Int_Tables_number   1
_chemical_formula_structural   MgB4
_chemical_formula_sum   'Mg20 B80'
_cell_volume   1433.11490062
_cell_formula_units_Z   20
loop_
 _symmetry_equiv_pos_site_id
 _symmetry_equiv_pos_as_xyz
  1  'x, y, z'
loop_
 _atom_site_type_symbol
 _atom_site_label
 _atom_site_symmetry_multiplicity
 _atom_site_fract_x
 _atom_site_fract_y
 _atom_site_fract_z
 _atom_site_occupancy
  Mg  Mg0  1  0.25000000  0.36221400  0.25571000  1
  Mg  Mg1  1  0.75000000  0.63778600  0.24429000  1
  Mg  Mg2  1  0.25000000  0.13778600  0.19321000  1
  Mg  Mg3  1  0.75000000  0.86221400  0.30679000  1
  Mg  Mg4  1  0.25000000  0.36221400  0.38071000  1
  Mg  Mg5  1  0.75000000  0.63778600  0.36929000  1
  Mg  Mg6  1  0.25000000  0.13778600  0.31821000  1
  Mg  Mg7  1  0.75000000  0.86221400  0.43179000  1
  Mg  Mg8  1  0.25000000  0.36221400  0.50571000  1
  Mg  Mg9  1  0.75000000  0.63778600  0.49429000  1
  Mg  Mg10  1  0.25000000  0.13778600  0.44321000  1
  Mg  Mg11  1  0.75000000  0.86221400  0.55679000  1
  Mg  Mg12  1  0.25000000  0.36221400  0.63071000  1
  Mg  Mg13  1  0.75000000  0.63778600  0.61929000  1
  Mg  Mg14  1  0.25000000  0.13778600  0.56821000  1
  Mg  Mg15  1  0.75000000  0.86221400  0.68179000  1
  Mg  Mg16  1  0.25000000  0.36221400  0.75571000  1
  Mg  Mg17  1  0.75000000  0.63778600  0.74429000  1
  Mg  Mg18  1  0.25000000  0.13778600  0.69321000  1
  Mg  Mg19  1  0.75000000  0.86221400  0.80679000  1
  B  B20  1  0.25000000  0.84631100  0.21529800  1
  B  B21  1  0.75000000  0.15368900  0.28470200  1
  B  B22  1  0.25000000  0.65368900  0.27779800  1
  B  B23  1  0.75000000  0.34631100  0.22220200  1
  B  B24  1  0.25000000  0.64694100  0.19417200  1
  B  B25  1  0.75000000  0.35305900  0.30582800  1
  B  B26  1  0.25000000  0.85305900  0.25667200  1
  B  B27  1  0.75000000  0.14694100  0.24332800  1
  B  B28  1  0.05800500  0.06322000  0.26654100  1
  B  B29  1  0.55800500  0.93678000  0.23345900  1
  B  B30  1  0.44199500  0.43678000  0.20404100  1
  B  B31  1  0.94199500  0.56322000  0.29595900  1
  B  B32  1  0.94199500  0.93678000  0.23345900  1
  B  B33  1  0.44199500  0.06322000  0.26654100  1
  B  B34  1  0.55800500  0.56322000  0.29595900  1
  B  B35  1  0.05800500  0.43678000  0.20404100  1
  B  B36  1  0.25000000  0.84631100  0.34029800  1
  B  B37  1  0.75000000  0.15368900  0.40970200  1
  B  B38  1  0.25000000  0.65368900  0.40279800  1
  B  B39  1  0.75000000  0.34631100  0.34720200  1
  B  B40  1  0.25000000  0.64694100  0.31917200  1
  B  B41  1  0.75000000  0.35305900  0.43082800  1
  B  B42  1  0.25000000  0.85305900  0.38167200  1
  B  B43  1  0.75000000  0.14694100  0.36832800  1
  B  B44  1  0.05800500  0.06322000  0.39154100  1
  B  B45  1  0.55800500  0.93678000  0.35845900  1
  B  B46  1  0.44199500  0.43678000  0.32904100  1
  B  B47  1  0.94199500  0.56322000  0.42095900  1
  B  B48  1  0.94199500  0.93678000  0.35845900  1
  B  B49  1  0.44199500  0.06322000  0.39154100  1
  B  B50  1  0.55800500  0.56322000  0.42095900  1
  B  B51  1  0.05800500  0.43678000  0.32904100  1
  B  B52  1  0.25000000  0.84631100  0.46529800  1
  B  B53  1  0.75000000  0.15368900  0.53470200  1
  B  B54  1  0.25000000  0.65368900  0.52779800  1
  B  B55  1  0.75000000  0.34631100  0.47220200  1
  B  B56  1  0.25000000  0.64694100  0.44417200  1
  B  B57  1  0.75000000  0.35305900  0.55582800  1
  B  B58  1  0.25000000  0.85305900  0.50667200  1
  B  B59  1  0.75000000  0.14694100  0.49332800  1
  B  B60  1  0.05800500  0.06322000  0.51654100  1
  B  B61  1  0.55800500  0.93678000  0.48345900  1
  B  B62  1  0.44199500  0.43678000  0.45404100  1
  B  B63  1  0.94199500  0.56322000  0.54595900  1
  B  B64  1  0.94199500  0.93678000  0.48345900  1
  B  B65  1  0.44199500  0.06322000  0.51654100  1
  B  B66  1  0.55800500  0.56322000  0.54595900  1
  B  B67  1  0.05800500  0.43678000  0.45404100  1
  B  B68  1  0.25000000  0.84631100  0.59029800  1
  B  B69  1  0.75000000  0.15368900  0.65970200  1
  B  B70  1  0.25000000  0.65368900  0.65279800  1
  B  B71  1  0.75000000  0.34631100  0.59720200  1
  B  B72  1  0.25000000  0.64694100  0.56917200  1
  B  B73  1  0.75000000  0.35305900  0.68082800  1
  B  B74  1  0.25000000  0.85305900  0.63167200  1
  B  B75  1  0.75000000  0.14694100  0.61832800  1
  B  B76  1  0.05800500  0.06322000  0.64154100  1
  B  B77  1  0.55800500  0.93678000  0.60845900  1
  B  B78  1  0.44199500  0.43678000  0.57904100  1
  B  B79  1  0.94199500  0.56322000  0.67095900  1
  B  B80  1  0.94199500  0.93678000  0.60845900  1
  B  B81  1  0.44199500  0.06322000  0.64154100  1
  B  B82  1  0.55800500  0.56322000  0.67095900  1
  B  B83  1  0.05800500  0.43678000  0.57904100  1
  B  B84  1  0.25000000  0.84631100  0.71529800  1
  B  B85  1  0.75000000  0.15368900  0.78470200  1
  B  B86  1  0.25000000  0.65368900  0.77779800  1
  B  B87  1  0.75000000  0.34631100  0.72220200  1
  B  B88  1  0.25000000  0.64694100  0.69417200  1
  B  B89  1  0.75000000  0.35305900  0.80582800  1
  B  B90  1  0.25000000  0.85305900  0.75667200  1
  B  B91  1  0.75000000  0.14694100  0.74332800  1
  B  B92  1  0.05800500  0.06322000  0.76654100  1
  B  B93  1  0.55800500  0.93678000  0.73345900  1
  B  B94  1  0.44199500  0.43678000  0.70404100  1
  B  B95  1  0.94199500  0.56322000  0.79595900  1
  B  B96  1  0.94199500  0.93678000  0.73345900  1
  B  B97  1  0.44199500  0.06322000  0.76654100  1
  B  B98  1  0.55800500  0.56322000  0.79595900  1
  B  B99  1  0.05800500  0.43678000  0.70404100  1
