# generated using pymatgen
data_Ba8Mg15
_symmetry_space_group_name_H-M   'P 1'
_cell_length_a   10.85988700
_cell_length_b   11.41227444
_cell_length_c   43.20617400
_cell_angle_alpha   97.58908893
_cell_angle_beta   90.00000000
_cell_angle_gamma   90.00000000
_symmetry_Int_Tables_number   1
_chemical_formula_structural   Ba8Mg15
_chemical_formula_sum   'Ba32 Mg60'
_cell_volume   5307.89658658
_cell_formula_units_Z   4
loop_
 _symmetry_equiv_pos_site_id
 _symmetry_equiv_pos_as_xyz
  1  'x, y, z'
loop_
 _atom_site_type_symbol
 _atom_site_label
 _atom_site_symmetry_multiplicity
 _atom_site_fract_x
 _atom_site_fract_y
 _atom_site_fract_z
 _atom_site_occupancy
  Ba  Ba0  1  0.05833700  0.31839000  0.24359000  1
  Ba  Ba1  1  0.55833700  0.98505600  0.24359000  1
  Ba  Ba2  1  0.94166300  0.98505600  0.24359000  1
  Ba  Ba3  1  0.44166300  0.31839000  0.24359000  1
  Ba  Ba4  1  0.05833700  0.85685100  0.32051300  1
  Ba  Ba5  1  0.55833700  0.52351800  0.32051300  1
  Ba  Ba6  1  0.94166300  0.52351800  0.32051300  1
  Ba  Ba7  1  0.44166300  0.85685100  0.32051300  1
  Ba  Ba8  1  0.05833700  0.39531300  0.39743600  1
  Ba  Ba9  1  0.55833700  0.06197900  0.39743600  1
  Ba  Ba10  1  0.94166300  0.06197900  0.39743600  1
  Ba  Ba11  1  0.44166300  0.39531300  0.39743600  1
  Ba  Ba12  1  0.05833700  0.93377400  0.47435900  1
  Ba  Ba13  1  0.55833700  0.60044100  0.47435900  1
  Ba  Ba14  1  0.94166300  0.60044100  0.47435900  1
  Ba  Ba15  1  0.44166300  0.93377400  0.47435900  1
  Ba  Ba16  1  0.05833700  0.47223600  0.55128200  1
  Ba  Ba17  1  0.55833700  0.13890200  0.55128200  1
  Ba  Ba18  1  0.94166300  0.13890200  0.55128200  1
  Ba  Ba19  1  0.44166300  0.47223600  0.55128200  1
  Ba  Ba20  1  0.05833700  0.01069700  0.62820500  1
  Ba  Ba21  1  0.55833700  0.67736400  0.62820500  1
  Ba  Ba22  1  0.94166300  0.67736400  0.62820500  1
  Ba  Ba23  1  0.44166300  0.01069700  0.62820500  1
  Ba  Ba24  1  0.05833700  0.54915900  0.70512800  1
  Ba  Ba25  1  0.55833700  0.21582600  0.70512800  1
  Ba  Ba26  1  0.94166300  0.21582600  0.70512800  1
  Ba  Ba27  1  0.44166300  0.54915900  0.70512800  1
  Ba  Ba28  1  0.05833700  0.08762000  0.78205100  1
  Ba  Ba29  1  0.55833700  0.75428700  0.78205100  1
  Ba  Ba30  1  0.94166300  0.75428700  0.78205100  1
  Ba  Ba31  1  0.44166300  0.08762000  0.78205100  1
  Mg  Mg32  1  0.25000000  0.81532300  0.24359000  1
  Mg  Mg33  1  0.75000000  0.48812300  0.24359000  1
  Mg  Mg34  1  0.50000000  0.65172300  0.24359000  1
  Mg  Mg35  1  0.00000000  0.65172300  0.24359000  1
  Mg  Mg36  1  0.75000000  0.25310800  0.28275900  1
  Mg  Mg37  1  0.25000000  0.08950800  0.28275900  1
  Mg  Mg38  1  0.25000000  0.35378400  0.32051300  1
  Mg  Mg39  1  0.75000000  0.02658500  0.32051300  1
  Mg  Mg40  1  0.50000000  0.19018500  0.32051300  1
  Mg  Mg41  1  1.00000000  0.19018500  0.32051300  1
  Mg  Mg42  1  0.25000000  0.58880000  0.28134400  1
  Mg  Mg43  1  0.75000000  0.75240000  0.28134400  1
  Mg  Mg44  1  0.75000000  0.79156900  0.35968200  1
  Mg  Mg45  1  0.25000000  0.62796900  0.35968200  1
  Mg  Mg46  1  0.25000000  0.89224600  0.39743600  1
  Mg  Mg47  1  0.75000000  0.56504600  0.39743600  1
  Mg  Mg48  1  0.50000000  0.72864600  0.39743600  1
  Mg  Mg49  1  0.00000000  0.72864600  0.39743600  1
  Mg  Mg50  1  0.25000000  0.12726100  0.35826700  1
  Mg  Mg51  1  0.75000000  0.29086100  0.35826700  1
  Mg  Mg52  1  0.75000000  0.33003100  0.43660500  1
  Mg  Mg53  1  0.25000000  0.16643100  0.43660500  1
  Mg  Mg54  1  0.25000000  0.43070700  0.47435900  1
  Mg  Mg55  1  0.75000000  0.10350800  0.47435900  1
  Mg  Mg56  1  0.50000000  0.26710800  0.47435900  1
  Mg  Mg57  1  0.00000000  0.26710800  0.47435900  1
  Mg  Mg58  1  0.25000000  0.66572300  0.43519000  1
  Mg  Mg59  1  0.75000000  0.82932300  0.43519000  1
  Mg  Mg60  1  0.75000000  0.86849200  0.51352800  1
  Mg  Mg61  1  0.25000000  0.70489200  0.51352800  1
  Mg  Mg62  1  0.25000000  0.96916900  0.55128200  1
  Mg  Mg63  1  0.75000000  0.64196900  0.55128200  1
  Mg  Mg64  1  0.50000000  0.80556900  0.55128200  1
  Mg  Mg65  1  1.00000000  0.80556900  0.55128200  1
  Mg  Mg66  1  0.25000000  0.20418500  0.51211300  1
  Mg  Mg67  1  0.75000000  0.36778400  0.51211300  1
  Mg  Mg68  1  0.75000000  0.40695400  0.59045100  1
  Mg  Mg69  1  0.25000000  0.24335400  0.59045100  1
  Mg  Mg70  1  0.25000000  0.50763100  0.62820500  1
  Mg  Mg71  1  0.75000000  0.18043100  0.62820500  1
  Mg  Mg72  1  0.50000000  0.34403100  0.62820500  1
  Mg  Mg73  1  1.00000000  0.34403100  0.62820500  1
  Mg  Mg74  1  0.25000000  0.74264600  0.58903600  1
  Mg  Mg75  1  0.75000000  0.90624600  0.58903600  1
  Mg  Mg76  1  0.75000000  0.94541500  0.66737400  1
  Mg  Mg77  1  0.25000000  0.78181500  0.66737400  1
  Mg  Mg78  1  0.25000000  0.04609200  0.70512800  1
  Mg  Mg79  1  0.75000000  0.71889200  0.70512800  1
  Mg  Mg80  1  0.50000000  0.88249200  0.70512800  1
  Mg  Mg81  1  0.00000000  0.88249200  0.70512800  1
  Mg  Mg82  1  0.25000000  0.28110800  0.66595900  1
  Mg  Mg83  1  0.75000000  0.44470700  0.66595900  1
  Mg  Mg84  1  0.75000000  0.48387700  0.74429700  1
  Mg  Mg85  1  0.25000000  0.32027700  0.74429700  1
  Mg  Mg86  1  0.25000000  0.58455400  0.78205100  1
  Mg  Mg87  1  0.75000000  0.25735400  0.78205100  1
  Mg  Mg88  1  0.50000000  0.42095400  0.78205100  1
  Mg  Mg89  1  1.00000000  0.42095400  0.78205100  1
  Mg  Mg90  1  0.25000000  0.81956900  0.74288200  1
  Mg  Mg91  1  0.75000000  0.98316900  0.74288200  1
