# generated using pymatgen
data_MgSc2
_symmetry_space_group_name_H-M   'P 1'
_cell_length_a   3.35466600
_cell_length_b   5.16406100
_cell_length_c   49.45614300
_cell_angle_alpha   90.00000000
_cell_angle_beta   90.00000000
_cell_angle_gamma   90.00000000
_symmetry_Int_Tables_number   1
_chemical_formula_structural   MgSc2
_chemical_formula_sum   'Mg8 Sc16'
_cell_volume   856.76337750
_cell_formula_units_Z   8
loop_
 _symmetry_equiv_pos_site_id
 _symmetry_equiv_pos_as_xyz
  1  'x, y, z'
loop_
 _atom_site_type_symbol
 _atom_site_label
 _atom_site_symmetry_multiplicity
 _atom_site_fract_x
 _atom_site_fract_y
 _atom_site_fract_z
 _atom_site_occupancy
  Mg  Mg0  1  0.50000000  0.25000000  0.31253300  1
  Mg  Mg1  1  0.00000000  0.75000000  0.18746700  1
  Mg  Mg2  1  1.00000000  0.25000000  0.47919900  1
  Mg  Mg3  1  0.50000000  0.75000000  0.35413400  1
  Mg  Mg4  1  0.50000000  0.25000000  0.64586600  1
  Mg  Mg5  1  1.00000000  0.75000000  0.52080100  1
  Mg  Mg6  1  1.00000000  0.25000000  0.81253300  1
  Mg  Mg7  1  0.50000000  0.75000000  0.68746700  1
  Sc  Sc8  1  0.50000000  0.25000000  0.20080000  1
  Sc  Sc9  1  1.00000000  0.25000000  0.25774100  1
  Sc  Sc10  1  1.00000000  0.75000000  0.29920000  1
  Sc  Sc11  1  0.50000000  0.75000000  0.24225900  1
  Sc  Sc12  1  1.00000000  0.25000000  0.36746600  1
  Sc  Sc13  1  0.50000000  0.25000000  0.42440700  1
  Sc  Sc14  1  0.50000000  0.75000000  0.46586700  1
  Sc  Sc15  1  1.00000000  0.75000000  0.40892600  1
  Sc  Sc16  1  0.50000000  0.25000000  0.53413300  1
  Sc  Sc17  1  1.00000000  0.25000000  0.59107400  1
  Sc  Sc18  1  1.00000000  0.75000000  0.63253400  1
  Sc  Sc19  1  0.50000000  0.75000000  0.57559300  1
  Sc  Sc20  1  1.00000000  0.25000000  0.70080000  1
  Sc  Sc21  1  0.50000000  0.25000000  0.75774100  1
  Sc  Sc22  1  0.50000000  0.75000000  0.79920000  1
  Sc  Sc23  1  1.00000000  0.75000000  0.74225900  1
