# generated using pymatgen
data_Mg10Tl3
_symmetry_space_group_name_H-M   'P 1'
_cell_length_a   6.45355286
_cell_length_b   8.28726982
_cell_length_c   42.00495400
_cell_angle_alpha   90.72595205
_cell_angle_beta   94.40574067
_cell_angle_gamma   67.08497775
_symmetry_Int_Tables_number   1
_chemical_formula_structural   Mg10Tl3
_chemical_formula_sum   'Mg40 Tl12'
_cell_volume   2062.75684752
_cell_formula_units_Z   4
loop_
 _symmetry_equiv_pos_site_id
 _symmetry_equiv_pos_as_xyz
  1  'x, y, z'
loop_
 _atom_site_type_symbol
 _atom_site_label
 _atom_site_symmetry_multiplicity
 _atom_site_fract_x
 _atom_site_fract_y
 _atom_site_fract_z
 _atom_site_occupancy
  Mg  Mg0  1  0.01400900  0.04752500  0.25729000  1
  Mg  Mg1  1  0.60877300  0.31768200  0.21226400  1
  Mg  Mg2  1  0.10406200  0.31768200  0.21226400  1
  Mg  Mg3  1  0.80474400  0.91030500  0.19682700  1
  Mg  Mg4  1  0.30003200  0.91030500  0.19682700  1
  Mg  Mg5  1  0.71297800  0.63500700  0.24271000  1
  Mg  Mg6  1  0.83219100  0.50207000  0.34819900  1
  Mg  Mg7  1  0.42695500  0.77222800  0.30317300  1
  Mg  Mg8  1  0.92224400  0.77222800  0.30317300  1
  Mg  Mg9  1  0.62292500  0.36485000  0.28773600  1
  Mg  Mg10  1  0.11821400  0.36485000  0.28773600  1
  Mg  Mg11  1  0.53116000  0.08955300  0.33361900  1
  Mg  Mg12  1  0.65037300  0.95661600  0.43910800  1
  Mg  Mg13  1  0.24513700  0.22677300  0.39408200  1
  Mg  Mg14  1  0.74042500  0.22677300  0.39408200  1
  Mg  Mg15  1  0.44110700  0.81939500  0.37864500  1
  Mg  Mg16  1  0.93639600  0.81939500  0.37864500  1
  Mg  Mg17  1  0.34934200  0.54409800  0.42452800  1
  Mg  Mg18  1  0.46855500  0.41116100  0.53001700  1
  Mg  Mg19  1  0.06331900  0.68131800  0.48499100  1
  Mg  Mg20  1  0.55860700  0.68131800  0.48499100  1
  Mg  Mg21  1  0.25928900  0.27394100  0.46955400  1
  Mg  Mg22  1  0.75457700  0.27394100  0.46955400  1
  Mg  Mg23  1  0.16752300  0.99864400  0.51543700  1
  Mg  Mg24  1  0.28673700  0.86570700  0.62092700  1
  Mg  Mg25  1  0.88150100  0.13586400  0.57590000  1
  Mg  Mg26  1  0.37678900  0.13586400  0.57590000  1
  Mg  Mg27  1  0.07747100  0.72848600  0.56046300  1
  Mg  Mg28  1  0.57275900  0.72848600  0.56046300  1
  Mg  Mg29  1  0.98570500  0.45318900  0.60634600  1
  Mg  Mg30  1  0.10491800  0.32025200  0.71183600  1
  Mg  Mg31  1  0.69968300  0.59040900  0.66680900  1
  Mg  Mg32  1  0.19497100  0.59040900  0.66680900  1
  Mg  Mg33  1  0.89565300  0.18303200  0.65137200  1
  Mg  Mg34  1  0.39094100  0.18303200  0.65137200  1
  Mg  Mg35  1  0.80388700  0.90773500  0.69725500  1
  Mg  Mg36  1  0.51786400  0.04495500  0.75771900  1
  Mg  Mg37  1  0.01315300  0.04495500  0.75771900  1
  Mg  Mg38  1  0.71383500  0.63757700  0.74228100  1
  Mg  Mg39  1  0.20912300  0.63757700  0.74228100  1
  Tl  Tl40  1  0.51500900  0.04581100  0.25757600  1
  Tl  Tl41  1  0.21197800  0.63672100  0.24242400  1
  Tl  Tl42  1  0.33319100  0.50035700  0.34848500  1
  Tl  Tl43  1  0.03016000  0.09126600  0.33333300  1
  Tl  Tl44  1  0.15137200  0.95490200  0.43939400  1
  Tl  Tl45  1  0.84834200  0.54581100  0.42424200  1
  Tl  Tl46  1  0.96955400  0.40944800  0.53030300  1
  Tl  Tl47  1  0.66652400  0.00035700  0.51515200  1
  Tl  Tl48  1  0.78773600  0.86399300  0.62121200  1
  Tl  Tl49  1  0.48470600  0.45490200  0.60606100  1
  Tl  Tl50  1  0.60591800  0.31853900  0.71212100  1
  Tl  Tl51  1  0.30288800  0.90944800  0.69697000  1
