# generated using pymatgen
data_CeMg2
_symmetry_space_group_name_H-M   'P 1'
_cell_length_a   5.20463200
_cell_length_b   9.04803456
_cell_length_c   40.84261700
_cell_angle_alpha   92.44626560
_cell_angle_beta   90.00000000
_cell_angle_gamma   90.00000000
_symmetry_Int_Tables_number   1
_chemical_formula_structural   CeMg2
_chemical_formula_sum   'Ce16 Mg32'
_cell_volume   1921.59510184
_cell_formula_units_Z   16
loop_
 _symmetry_equiv_pos_site_id
 _symmetry_equiv_pos_as_xyz
  1  'x, y, z'
loop_
 _atom_site_type_symbol
 _atom_site_label
 _atom_site_symmetry_multiplicity
 _atom_site_fract_x
 _atom_site_fract_y
 _atom_site_fract_z
 _atom_site_occupancy
  Ce  Ce0  1  0.25000000  0.65622400  0.73375100  1
  Ce  Ce1  1  0.75000000  0.88223700  0.80471100  1
  Ce  Ce2  1  0.25000000  0.57930100  0.65682800  1
  Ce  Ce3  1  0.75000000  0.80531400  0.72778700  1
  Ce  Ce4  1  0.25000000  0.50237800  0.57990500  1
  Ce  Ce5  1  0.75000000  0.72839100  0.65086400  1
  Ce  Ce6  1  0.25000000  0.42545500  0.50298200  1
  Ce  Ce7  1  0.75000000  0.65146800  0.57394100  1
  Ce  Ce8  1  0.25000000  0.34853200  0.42605900  1
  Ce  Ce9  1  0.75000000  0.57454500  0.49701800  1
  Ce  Ce10  1  0.25000000  0.27160900  0.34913600  1
  Ce  Ce11  1  0.75000000  0.49762200  0.42009500  1
  Ce  Ce12  1  0.25000000  0.19468600  0.27221300  1
  Ce  Ce13  1  0.75000000  0.42069900  0.34317200  1
  Ce  Ce14  1  0.25000000  0.11776300  0.19528900  1
  Ce  Ce15  1  0.75000000  0.34377600  0.26624900  1
  Mg  Mg16  1  0.25000000  0.01075500  0.75957000  1
  Mg  Mg17  1  0.25000000  0.35036000  0.78598600  1
  Mg  Mg18  1  0.75000000  0.18810200  0.75247600  1
  Mg  Mg19  1  0.75000000  0.52770600  0.77889200  1
  Mg  Mg20  1  0.25000000  0.93383200  0.68264700  1
  Mg  Mg21  1  0.25000000  0.27343700  0.70906300  1
  Mg  Mg22  1  0.75000000  0.11117900  0.67555300  1
  Mg  Mg23  1  0.75000000  0.45078300  0.70196900  1
  Mg  Mg24  1  0.25000000  0.85690900  0.60572400  1
  Mg  Mg25  1  0.25000000  0.19651400  0.63213900  1
  Mg  Mg26  1  0.75000000  0.03425500  0.59863000  1
  Mg  Mg27  1  0.75000000  0.37386000  0.62504600  1
  Mg  Mg28  1  0.25000000  0.77998600  0.52880100  1
  Mg  Mg29  1  0.25000000  0.11959100  0.55521600  1
  Mg  Mg30  1  0.75000000  0.95733200  0.52170700  1
  Mg  Mg31  1  0.75000000  0.29693700  0.54812300  1
  Mg  Mg32  1  0.25000000  0.70306300  0.45187700  1
  Mg  Mg33  1  0.25000000  0.04266800  0.47829300  1
  Mg  Mg34  1  0.75000000  0.88040900  0.44478400  1
  Mg  Mg35  1  0.75000000  0.22001400  0.47119900  1
  Mg  Mg36  1  0.25000000  0.62614000  0.37495400  1
  Mg  Mg37  1  0.25000000  0.96574500  0.40137000  1
  Mg  Mg38  1  0.75000000  0.80348600  0.36786100  1
  Mg  Mg39  1  0.75000000  0.14309100  0.39427600  1
  Mg  Mg40  1  0.25000000  0.54921700  0.29803100  1
  Mg  Mg41  1  0.25000000  0.88882100  0.32444700  1
  Mg  Mg42  1  0.75000000  0.72656300  0.29093700  1
  Mg  Mg43  1  0.75000000  0.06616800  0.31735300  1
  Mg  Mg44  1  0.25000000  0.47229400  0.22110800  1
  Mg  Mg45  1  0.25000000  0.81189800  0.24752400  1
  Mg  Mg46  1  0.75000000  0.64964000  0.21401400  1
  Mg  Mg47  1  0.75000000  0.98924500  0.24043000  1
