# generated using pymatgen
data_Mg9Pb17
_symmetry_space_group_name_H-M   'P 1'
_cell_length_a   3.51663700
_cell_length_b   16.41991853
_cell_length_c   45.55389600
_cell_angle_alpha   80.19370075
_cell_angle_beta   90.00000000
_cell_angle_gamma   83.85272232
_symmetry_Int_Tables_number   1
_chemical_formula_structural   Mg9Pb17
_chemical_formula_sum   'Mg18 Pb34'
_cell_volume   2576.63056259
_cell_formula_units_Z   2
loop_
 _symmetry_equiv_pos_site_id
 _symmetry_equiv_pos_as_xyz
  1  'x, y, z'
loop_
 _atom_site_type_symbol
 _atom_site_label
 _atom_site_symmetry_multiplicity
 _atom_site_fract_x
 _atom_site_fract_y
 _atom_site_fract_z
 _atom_site_occupancy
  Mg  Mg0  1  0.06699500  0.21195200  0.23888900  1
  Mg  Mg1  1  0.32255100  0.70084100  0.25000000  1
  Mg  Mg2  1  0.60032900  0.14528500  0.30555600  1
  Mg  Mg3  1  0.85588400  0.63417400  0.31666700  1
  Mg  Mg4  1  0.13366200  0.07861800  0.37222200  1
  Mg  Mg5  1  0.38921800  0.56750700  0.38333300  1
  Mg  Mg6  1  0.66699500  0.01195200  0.43888900  1
  Mg  Mg7  1  0.92255100  0.50084100  0.45000000  1
  Mg  Mg8  1  0.20032900  0.94528500  0.50555600  1
  Mg  Mg9  1  0.45588400  0.43417400  0.51666700  1
  Mg  Mg10  1  0.73366200  0.87861800  0.57222200  1
  Mg  Mg11  1  0.98921800  0.36750700  0.58333300  1
  Mg  Mg12  1  0.26699500  0.81195200  0.63888900  1
  Mg  Mg13  1  0.52255100  0.30084100  0.65000000  1
  Mg  Mg14  1  0.80032900  0.74528500  0.70555600  1
  Mg  Mg15  1  0.05588400  0.23417400  0.71666700  1
  Mg  Mg16  1  0.33366200  0.67861800  0.77222200  1
  Mg  Mg17  1  0.58921800  0.16750700  0.78333300  1
  Pb  Pb18  1  0.48399100  0.37796100  0.22693700  1
  Pb  Pb19  1  0.90555600  0.53483100  0.26195200  1
  Pb  Pb20  1  0.16111100  0.02372000  0.27306300  1
  Pb  Pb21  1  0.01732400  0.31129400  0.29360400  1
  Pb  Pb22  1  0.43888900  0.46816500  0.32861800  1
  Pb  Pb23  1  0.76176800  0.82240600  0.28249300  1
  Pb  Pb24  1  0.69444400  0.95705300  0.33972900  1
  Pb  Pb25  1  0.55065700  0.24462800  0.36027100  1
  Pb  Pb26  1  0.97222200  0.40149800  0.39528500  1
  Pb  Pb27  1  0.29510200  0.75573900  0.34915900  1
  Pb  Pb28  1  0.22777800  0.89038700  0.40639600  1
  Pb  Pb29  1  0.08399100  0.17796100  0.42693700  1
  Pb  Pb30  1  0.50555600  0.33483100  0.46195200  1
  Pb  Pb31  1  0.82843500  0.68907200  0.41582600  1
  Pb  Pb32  1  0.76111100  0.82372000  0.47306300  1
  Pb  Pb33  1  0.61732400  0.11129400  0.49360400  1
  Pb  Pb34  1  0.03888900  0.26816500  0.52861800  1
  Pb  Pb35  1  0.36176800  0.62240600  0.48249300  1
  Pb  Pb36  1  0.29444400  0.75705300  0.53972900  1
  Pb  Pb37  1  0.15065700  0.04462800  0.56027100  1
  Pb  Pb38  1  0.57222200  0.20149800  0.59528500  1
  Pb  Pb39  1  0.89510200  0.55573900  0.54915900  1
  Pb  Pb40  1  0.82777800  0.69038700  0.60639600  1
  Pb  Pb41  1  0.68399100  0.97796100  0.62693700  1
  Pb  Pb42  1  0.10555600  0.13483100  0.66195200  1
  Pb  Pb43  1  0.42843500  0.48907200  0.61582600  1
  Pb  Pb44  1  0.36111100  0.62372000  0.67306300  1
  Pb  Pb45  1  0.21732400  0.91129400  0.69360400  1
  Pb  Pb46  1  0.63888900  0.06816500  0.72861800  1
  Pb  Pb47  1  0.96176800  0.42240600  0.68249300  1
  Pb  Pb48  1  0.89444400  0.55705300  0.73972900  1
  Pb  Pb49  1  0.75065700  0.84462800  0.76027100  1
  Pb  Pb50  1  0.17222200  0.00149800  0.79528500  1
  Pb  Pb51  1  0.49510200  0.35573900  0.74915900  1
