# generated using pymatgen
data_Mg9Zn25
_symmetry_space_group_name_H-M   'P 1'
_cell_length_a   4.57917500
_cell_length_b   9.96750790
_cell_length_c   43.44735800
_cell_angle_alpha   83.41322196
_cell_angle_beta   90.00000000
_cell_angle_gamma   90.00000000
_symmetry_Int_Tables_number   1
_chemical_formula_structural   Mg9Zn25
_chemical_formula_sum   'Mg18 Zn50'
_cell_volume   1969.97645463
_cell_formula_units_Z   2
loop_
 _symmetry_equiv_pos_site_id
 _symmetry_equiv_pos_as_xyz
  1  'x, y, z'
loop_
 _atom_site_type_symbol
 _atom_site_label
 _atom_site_symmetry_multiplicity
 _atom_site_fract_x
 _atom_site_fract_y
 _atom_site_fract_z
 _atom_site_occupancy
  Mg  Mg0  1  0.75000000  0.92821600  0.25000000  1
  Mg  Mg1  1  0.25000000  0.26154900  0.25000000  1
  Mg  Mg2  1  0.75000000  0.39488300  0.31666700  1
  Mg  Mg3  1  0.25000000  0.72821600  0.31666700  1
  Mg  Mg4  1  0.75000000  0.86154900  0.38333300  1
  Mg  Mg5  1  0.25000000  0.19488300  0.38333300  1
  Mg  Mg6  1  0.75000000  0.32821600  0.45000000  1
  Mg  Mg7  1  0.25000000  0.66154900  0.45000000  1
  Mg  Mg8  1  0.75000000  0.79488300  0.51666700  1
  Mg  Mg9  1  0.25000000  0.12821600  0.51666700  1
  Mg  Mg10  1  0.75000000  0.26154900  0.58333300  1
  Mg  Mg11  1  0.25000000  0.59488300  0.58333300  1
  Mg  Mg12  1  0.75000000  0.72821600  0.65000000  1
  Mg  Mg13  1  0.25000000  0.06154900  0.65000000  1
  Mg  Mg14  1  0.75000000  0.19488300  0.71666700  1
  Mg  Mg15  1  0.25000000  0.52821600  0.71666700  1
  Mg  Mg16  1  0.75000000  0.66154900  0.78333300  1
  Mg  Mg17  1  0.25000000  0.99488300  0.78333300  1
  Zn  Zn18  1  0.75000000  0.43461300  0.25000000  1
  Zn  Zn19  1  0.25000000  0.75515300  0.25000000  1
  Zn  Zn20  1  0.75000000  0.90127900  0.31666700  1
  Zn  Zn21  1  0.75000000  0.15771100  0.28461300  1
  Zn  Zn22  1  0.75000000  0.65899100  0.28205400  1
  Zn  Zn23  1  0.25000000  0.49872100  0.28205400  1
  Zn  Zn24  1  0.25000000  0.99744100  0.28461300  1
  Zn  Zn25  1  0.25000000  0.22181900  0.31666700  1
  Zn  Zn26  1  0.75000000  0.36794600  0.38333300  1
  Zn  Zn27  1  0.75000000  0.62437800  0.35127900  1
  Zn  Zn28  1  0.75000000  0.12565700  0.34872100  1
  Zn  Zn29  1  0.25000000  0.96538700  0.34872100  1
  Zn  Zn30  1  0.25000000  0.46410800  0.35127900  1
  Zn  Zn31  1  0.25000000  0.68848600  0.38333300  1
  Zn  Zn32  1  0.75000000  0.83461300  0.45000000  1
  Zn  Zn33  1  0.75000000  0.09104500  0.41794600  1
  Zn  Zn34  1  0.75000000  0.59232400  0.41538700  1
  Zn  Zn35  1  0.25000000  0.43205400  0.41538700  1
  Zn  Zn36  1  0.25000000  0.93077500  0.41794600  1
  Zn  Zn37  1  0.25000000  0.15515300  0.45000000  1
  Zn  Zn38  1  0.75000000  0.30127900  0.51666700  1
  Zn  Zn39  1  0.75000000  0.55771100  0.48461300  1
  Zn  Zn40  1  0.75000000  0.05899100  0.48205400  1
  Zn  Zn41  1  0.25000000  0.89872100  0.48205400  1
  Zn  Zn42  1  0.25000000  0.39744100  0.48461300  1
  Zn  Zn43  1  0.25000000  0.62181900  0.51666700  1
  Zn  Zn44  1  0.75000000  0.76794600  0.58333300  1
  Zn  Zn45  1  0.75000000  0.02437800  0.55127900  1
  Zn  Zn46  1  0.75000000  0.52565700  0.54872100  1
  Zn  Zn47  1  0.25000000  0.36538700  0.54872100  1
  Zn  Zn48  1  0.25000000  0.86410800  0.55127900  1
  Zn  Zn49  1  0.25000000  0.08848600  0.58333300  1
  Zn  Zn50  1  0.75000000  0.23461300  0.65000000  1
  Zn  Zn51  1  0.75000000  0.49104500  0.61794600  1
  Zn  Zn52  1  0.75000000  0.99232400  0.61538700  1
  Zn  Zn53  1  0.25000000  0.83205400  0.61538700  1
  Zn  Zn54  1  0.25000000  0.33077500  0.61794600  1
  Zn  Zn55  1  0.25000000  0.55515300  0.65000000  1
  Zn  Zn56  1  0.75000000  0.70127900  0.71666700  1
  Zn  Zn57  1  0.75000000  0.95771100  0.68461300  1
  Zn  Zn58  1  0.75000000  0.45899100  0.68205400  1
  Zn  Zn59  1  0.25000000  0.29872100  0.68205400  1
  Zn  Zn60  1  0.25000000  0.79744100  0.68461300  1
  Zn  Zn61  1  0.25000000  0.02181900  0.71666700  1
  Zn  Zn62  1  0.75000000  0.16794600  0.78333300  1
  Zn  Zn63  1  0.75000000  0.42437800  0.75127900  1
  Zn  Zn64  1  0.75000000  0.92565700  0.74872100  1
  Zn  Zn65  1  0.25000000  0.76538700  0.74872100  1
  Zn  Zn66  1  0.25000000  0.26410800  0.75127900  1
  Zn  Zn67  1  0.25000000  0.48848600  0.78333300  1
