# generated using pymatgen
data_Ce2Mg
_symmetry_space_group_name_H-M   'P 1'
_cell_length_a   5.24483100
_cell_length_b   9.39222165
_cell_length_c   43.65120100
_cell_angle_alpha   92.56125256
_cell_angle_beta   90.00000000
_cell_angle_gamma   90.00000000
_symmetry_Int_Tables_number   1
_chemical_formula_structural   Ce2Mg
_chemical_formula_sum   'Ce36 Mg18'
_cell_volume   2148.13692483
_cell_formula_units_Z   18
loop_
 _symmetry_equiv_pos_site_id
 _symmetry_equiv_pos_as_xyz
  1  'x, y, z'
loop_
 _atom_site_type_symbol
 _atom_site_label
 _atom_site_symmetry_multiplicity
 _atom_site_fract_x
 _atom_site_fract_y
 _atom_site_fract_z
 _atom_site_occupancy
  Ce  Ce0  1  0.25000000  0.03598900  0.77644500  1
  Ce  Ce1  1  0.25000000  0.39408900  0.80021900  1
  Ce  Ce2  1  0.75000000  0.17734000  0.77121000  1
  Ce  Ce3  1  0.75000000  0.53544000  0.79498400  1
  Ce  Ce4  1  0.25000000  0.96456000  0.70501600  1
  Ce  Ce5  1  0.25000000  0.32266000  0.72879000  1
  Ce  Ce6  1  0.75000000  0.10591100  0.69978100  1
  Ce  Ce7  1  0.75000000  0.46401100  0.72355500  1
  Ce  Ce8  1  0.25000000  0.89313200  0.63358800  1
  Ce  Ce9  1  0.25000000  0.25123200  0.65736200  1
  Ce  Ce10  1  0.75000000  0.03448300  0.62835200  1
  Ce  Ce11  1  0.75000000  0.39258300  0.65212700  1
  Ce  Ce12  1  0.25000000  0.82170300  0.56215900  1
  Ce  Ce13  1  0.25000000  0.17980300  0.58593300  1
  Ce  Ce14  1  0.75000000  0.96305400  0.55692400  1
  Ce  Ce15  1  0.75000000  0.32115400  0.58069800  1
  Ce  Ce16  1  0.25000000  0.75027500  0.49073100  1
  Ce  Ce17  1  0.25000000  0.10837400  0.51450500  1
  Ce  Ce18  1  0.75000000  0.89162600  0.48549500  1
  Ce  Ce19  1  0.75000000  0.24972500  0.50926900  1
  Ce  Ce20  1  0.25000000  0.67884600  0.41930200  1
  Ce  Ce21  1  0.25000000  0.03694600  0.44307600  1
  Ce  Ce22  1  0.75000000  0.82019700  0.41406700  1
  Ce  Ce23  1  0.75000000  0.17829700  0.43784100  1
  Ce  Ce24  1  0.25000000  0.60741700  0.34787300  1
  Ce  Ce25  1  0.25000000  0.96551700  0.37164800  1
  Ce  Ce26  1  0.75000000  0.74876800  0.34263800  1
  Ce  Ce27  1  0.75000000  0.10686800  0.36641200  1
  Ce  Ce28  1  0.25000000  0.53598900  0.27644500  1
  Ce  Ce29  1  0.25000000  0.89408900  0.30021900  1
  Ce  Ce30  1  0.75000000  0.67734000  0.27121000  1
  Ce  Ce31  1  0.75000000  0.03544000  0.29498400  1
  Ce  Ce32  1  0.25000000  0.46456000  0.20501600  1
  Ce  Ce33  1  0.25000000  0.82266000  0.22879000  1
  Ce  Ce34  1  0.75000000  0.60591100  0.19978100  1
  Ce  Ce35  1  0.75000000  0.96401100  0.22355500  1
  Mg  Mg36  1  0.25000000  0.67100000  0.75292600  1
  Mg  Mg37  1  0.75000000  0.90042900  0.81850300  1
  Mg  Mg38  1  0.25000000  0.59957100  0.68149700  1
  Mg  Mg39  1  0.75000000  0.82900000  0.74707400  1
  Mg  Mg40  1  0.25000000  0.52814300  0.61006900  1
  Mg  Mg41  1  0.75000000  0.75757100  0.67564600  1
  Mg  Mg42  1  0.25000000  0.45671400  0.53864000  1
  Mg  Mg43  1  0.75000000  0.68614300  0.60421700  1
  Mg  Mg44  1  0.25000000  0.38528600  0.46721200  1
  Mg  Mg45  1  0.75000000  0.61471400  0.53278800  1
  Mg  Mg46  1  0.25000000  0.31385700  0.39578300  1
  Mg  Mg47  1  0.75000000  0.54328600  0.46136000  1
  Mg  Mg48  1  0.25000000  0.24242900  0.32435400  1
  Mg  Mg49  1  0.75000000  0.47185700  0.38993100  1
  Mg  Mg50  1  0.25000000  0.17100000  0.25292600  1
  Mg  Mg51  1  0.75000000  0.40042900  0.31850300  1
  Mg  Mg52  1  0.25000000  0.09957100  0.18149700  1
  Mg  Mg53  1  0.75000000  0.32900000  0.24707400  1
