# generated using pymatgen
data_CeMg
_symmetry_space_group_name_H-M   'P 1'
_cell_length_a   6.79006760
_cell_length_b   11.03042945
_cell_length_c   44.10757600
_cell_angle_alpha   88.99901572
_cell_angle_beta   93.93159522
_cell_angle_gamma   72.24522392
_symmetry_Int_Tables_number   1
_chemical_formula_structural   CeMg
_chemical_formula_sum   'Ce36 Mg36'
_cell_volume   3136.22887646
_cell_formula_units_Z   36
loop_
 _symmetry_equiv_pos_site_id
 _symmetry_equiv_pos_as_xyz
  1  'x, y, z'
loop_
 _atom_site_type_symbol
 _atom_site_label
 _atom_site_symmetry_multiplicity
 _atom_site_fract_x
 _atom_site_fract_y
 _atom_site_fract_z
 _atom_site_occupancy
  Ce  Ce0  1  0.19426800  0.35084400  0.20410100  1
  Ce  Ce1  1  0.20573200  0.11582200  0.22923200  1
  Ce  Ce2  1  0.59426800  0.81751100  0.23743400  1
  Ce  Ce3  1  0.60573200  0.58248900  0.26256600  1
  Ce  Ce4  1  0.99426800  0.28417800  0.27076800  1
  Ce  Ce5  1  0.00573200  0.04915600  0.29589900  1
  Ce  Ce6  1  0.39426800  0.75084400  0.30410100  1
  Ce  Ce7  1  0.40573200  0.51582200  0.32923200  1
  Ce  Ce8  1  0.79426800  0.21751100  0.33743400  1
  Ce  Ce9  1  0.80573200  0.98248900  0.36256600  1
  Ce  Ce10  1  0.19426800  0.68417800  0.37076800  1
  Ce  Ce11  1  0.20573200  0.44915600  0.39589900  1
  Ce  Ce12  1  0.59426800  0.15084400  0.40410100  1
  Ce  Ce13  1  0.60573200  0.91582200  0.42923200  1
  Ce  Ce14  1  0.99426800  0.61751100  0.43743400  1
  Ce  Ce15  1  0.00573200  0.38248900  0.46256600  1
  Ce  Ce16  1  0.39426800  0.08417800  0.47076800  1
  Ce  Ce17  1  0.40573200  0.84915600  0.49589900  1
  Ce  Ce18  1  0.79426800  0.55084400  0.50410100  1
  Ce  Ce19  1  0.80573200  0.31582200  0.52923200  1
  Ce  Ce20  1  0.19426800  0.01751100  0.53743400  1
  Ce  Ce21  1  0.20573200  0.78248900  0.56256600  1
  Ce  Ce22  1  0.59426800  0.48417800  0.57076800  1
  Ce  Ce23  1  0.60573200  0.24915600  0.59589900  1
  Ce  Ce24  1  0.99426800  0.95084400  0.60410100  1
  Ce  Ce25  1  0.00573200  0.71582200  0.62923200  1
  Ce  Ce26  1  0.39426800  0.41751100  0.63743400  1
  Ce  Ce27  1  0.40573200  0.18248900  0.66256600  1
  Ce  Ce28  1  0.79426800  0.88417800  0.67076800  1
  Ce  Ce29  1  0.80573200  0.64915600  0.69589900  1
  Ce  Ce30  1  0.19426800  0.35084400  0.70410100  1
  Ce  Ce31  1  0.20573200  0.11582200  0.72923200  1
  Ce  Ce32  1  0.59426800  0.81751100  0.73743400  1
  Ce  Ce33  1  0.60573200  0.58248900  0.76256600  1
  Ce  Ce34  1  0.99426800  0.28417800  0.77076800  1
  Ce  Ce35  1  0.00573200  0.04915600  0.79589900  1
  Mg  Mg36  1  0.71273600  0.10000900  0.22843100  1
  Mg  Mg37  1  0.68726400  0.36665800  0.20490200  1
  Mg  Mg38  1  0.11273600  0.56667600  0.26176500  1
  Mg  Mg39  1  0.08726400  0.83332400  0.23823500  1
  Mg  Mg40  1  0.51273600  0.03334200  0.29509800  1
  Mg  Mg41  1  0.48726400  0.29999100  0.27156900  1
  Mg  Mg42  1  0.91273600  0.50000900  0.32843100  1
  Mg  Mg43  1  0.88726400  0.76665800  0.30490200  1
  Mg  Mg44  1  0.31273600  0.96667600  0.36176500  1
  Mg  Mg45  1  0.28726400  0.23332400  0.33823500  1
  Mg  Mg46  1  0.71273600  0.43334200  0.39509800  1
  Mg  Mg47  1  0.68726400  0.69999100  0.37156900  1
  Mg  Mg48  1  0.11273600  0.90000900  0.42843100  1
  Mg  Mg49  1  0.08726400  0.16665800  0.40490200  1
  Mg  Mg50  1  0.51273600  0.36667600  0.46176500  1
  Mg  Mg51  1  0.48726400  0.63332400  0.43823500  1
  Mg  Mg52  1  0.91273600  0.83334200  0.49509800  1
  Mg  Mg53  1  0.88726400  0.09999100  0.47156900  1
  Mg  Mg54  1  0.31273600  0.30000900  0.52843100  1
  Mg  Mg55  1  0.28726400  0.56665800  0.50490200  1
  Mg  Mg56  1  0.71273600  0.76667600  0.56176500  1
  Mg  Mg57  1  0.68726400  0.03332400  0.53823500  1
  Mg  Mg58  1  0.11273600  0.23334200  0.59509800  1
  Mg  Mg59  1  0.08726400  0.49999100  0.57156900  1
  Mg  Mg60  1  0.51273600  0.70000900  0.62843100  1
  Mg  Mg61  1  0.48726400  0.96665800  0.60490200  1
  Mg  Mg62  1  0.91273600  0.16667600  0.66176500  1
  Mg  Mg63  1  0.88726400  0.43332400  0.63823500  1
  Mg  Mg64  1  0.31273600  0.63334200  0.69509800  1
  Mg  Mg65  1  0.28726400  0.89999100  0.67156900  1
  Mg  Mg66  1  0.71273600  0.10000900  0.72843100  1
  Mg  Mg67  1  0.68726400  0.36665800  0.70490200  1
  Mg  Mg68  1  0.11273600  0.56667600  0.76176500  1
  Mg  Mg69  1  0.08726400  0.83332400  0.73823500  1
  Mg  Mg70  1  0.51273600  0.03334200  0.79509800  1
  Mg  Mg71  1  0.48726400  0.29999100  0.77156900  1
