# generated using pymatgen
data_MgHg3
_symmetry_space_group_name_H-M   'P 1'
_cell_length_a   4.95207500
_cell_length_b   4.95207410
_cell_length_c   46.98637400
_cell_angle_alpha   90.00000000
_cell_angle_beta   90.00000000
_cell_angle_gamma   119.99999934
_symmetry_Int_Tables_number   1
_chemical_formula_structural   MgHg3
_chemical_formula_sum   'Mg6 Hg18'
_cell_volume   997.87677293
_cell_formula_units_Z   6
loop_
 _symmetry_equiv_pos_site_id
 _symmetry_equiv_pos_as_xyz
  1  'x, y, z'
loop_
 _atom_site_type_symbol
 _atom_site_label
 _atom_site_symmetry_multiplicity
 _atom_site_fract_x
 _atom_site_fract_y
 _atom_site_fract_z
 _atom_site_occupancy
  Mg  Mg0  1  0.66666700  0.33333300  0.35000000  1
  Mg  Mg1  1  0.33333300  0.66666700  0.25000000  1
  Mg  Mg2  1  0.66666700  0.33333300  0.55000000  1
  Mg  Mg3  1  0.33333300  0.66666700  0.45000000  1
  Mg  Mg4  1  0.66666700  0.33333300  0.75000000  1
  Mg  Mg5  1  0.33333300  0.66666700  0.65000000  1
  Hg  Hg6  1  0.66666700  0.33333300  0.21463700  1
  Hg  Hg7  1  0.33333300  0.66666700  0.38536300  1
  Hg  Hg8  1  0.33333300  0.66666700  0.31463700  1
  Hg  Hg9  1  0.66666700  0.33333300  0.28536300  1
  Hg  Hg10  1  0.00000000  0.00000000  0.35000000  1
  Hg  Hg11  1  0.00000000  0.00000000  0.25000000  1
  Hg  Hg12  1  0.66666700  0.33333300  0.41463700  1
  Hg  Hg13  1  0.33333300  0.66666700  0.58536300  1
  Hg  Hg14  1  0.33333300  0.66666700  0.51463700  1
  Hg  Hg15  1  0.66666700  0.33333300  0.48536300  1
  Hg  Hg16  1  0.00000000  0.00000000  0.55000000  1
  Hg  Hg17  1  0.00000000  0.00000000  0.45000000  1
  Hg  Hg18  1  0.66666700  0.33333300  0.61463700  1
  Hg  Hg19  1  0.33333300  0.66666700  0.78536300  1
  Hg  Hg20  1  0.33333300  0.66666700  0.71463700  1
  Hg  Hg21  1  0.66666700  0.33333300  0.68536300  1
  Hg  Hg22  1  0.00000000  0.00000000  0.75000000  1
  Hg  Hg23  1  0.00000000  0.00000000  0.65000000  1
