# generated using pymatgen
data_Yb2Mg
_symmetry_space_group_name_H-M   'P 1'
_cell_length_a   3.76282700
_cell_length_b   5.87266200
_cell_length_c   55.68846400
_cell_angle_alpha   90.00000000
_cell_angle_beta   90.00000000
_cell_angle_gamma   90.00000000
_symmetry_Int_Tables_number   1
_chemical_formula_structural   Yb2Mg
_chemical_formula_sum   'Yb16 Mg8'
_cell_volume   1230.59315990
_cell_formula_units_Z   8
loop_
 _symmetry_equiv_pos_site_id
 _symmetry_equiv_pos_as_xyz
  1  'x, y, z'
loop_
 _atom_site_type_symbol
 _atom_site_label
 _atom_site_symmetry_multiplicity
 _atom_site_fract_x
 _atom_site_fract_y
 _atom_site_fract_z
 _atom_site_occupancy
  Yb  Yb0  1  0.50000000  0.25000000  0.19743500  1
  Yb  Yb1  1  0.00000000  0.25000000  0.26111700  1
  Yb  Yb2  1  0.00000000  0.75000000  0.30256500  1
  Yb  Yb3  1  0.50000000  0.75000000  0.23888300  1
  Yb  Yb4  1  0.00000000  0.25000000  0.36410200  1
  Yb  Yb5  1  0.50000000  0.25000000  0.42778300  1
  Yb  Yb6  1  0.50000000  0.75000000  0.46923100  1
  Yb  Yb7  1  1.00000000  0.75000000  0.40555000  1
  Yb  Yb8  1  0.50000000  0.25000000  0.53076900  1
  Yb  Yb9  1  1.00000000  0.25000000  0.59445000  1
  Yb  Yb10  1  1.00000000  0.75000000  0.63589800  1
  Yb  Yb11  1  0.50000000  0.75000000  0.57221700  1
  Yb  Yb12  1  1.00000000  0.25000000  0.69743500  1
  Yb  Yb13  1  0.50000000  0.25000000  0.76111700  1
  Yb  Yb14  1  0.50000000  0.75000000  0.80256500  1
  Yb  Yb15  1  1.00000000  0.75000000  0.73888300  1
  Mg  Mg16  1  0.50000000  0.25000000  0.31350200  1
  Mg  Mg17  1  1.00000000  0.75000000  0.18649800  1
  Mg  Mg18  1  1.00000000  0.25000000  0.48016900  1
  Mg  Mg19  1  0.50000000  0.75000000  0.35316400  1
  Mg  Mg20  1  0.50000000  0.25000000  0.64683600  1
  Mg  Mg21  1  0.00000000  0.75000000  0.51983100  1
  Mg  Mg22  1  0.00000000  0.25000000  0.81350200  1
  Mg  Mg23  1  0.50000000  0.75000000  0.68649800  1
