# generated using pymatgen
data_CeMg
_symmetry_space_group_name_H-M   'P 1'
_cell_length_a   5.79243193
_cell_length_b   6.79006776
_cell_length_c   43.05818700
_cell_angle_alpha   92.82650886
_cell_angle_beta   92.16583205
_cell_angle_gamma   98.15101393
_symmetry_Int_Tables_number   1
_chemical_formula_structural   CeMg
_chemical_formula_sum   'Ce20 Mg20'
_cell_volume   1672.65549919
_cell_formula_units_Z   20
loop_
 _symmetry_equiv_pos_site_id
 _symmetry_equiv_pos_as_xyz
  1  'x, y, z'
loop_
 _atom_site_type_symbol
 _atom_site_label
 _atom_site_symmetry_multiplicity
 _atom_site_fract_x
 _atom_site_fract_y
 _atom_site_fract_z
 _atom_site_occupancy
  Ce  Ce0  1  0.14422500  0.25612700  0.77602900  1
  Ce  Ce1  1  0.60577500  0.43137300  0.78647100  1
  Ce  Ce2  1  0.89422500  0.94362700  0.71352900  1
  Ce  Ce3  1  0.35577500  0.11887300  0.72397100  1
  Ce  Ce4  1  0.64422500  0.63112700  0.65102900  1
  Ce  Ce5  1  0.10577500  0.80637300  0.66147100  1
  Ce  Ce6  1  0.39422500  0.31862700  0.58852900  1
  Ce  Ce7  1  0.85577500  0.49387300  0.59897100  1
  Ce  Ce8  1  0.14422500  0.00612700  0.52602900  1
  Ce  Ce9  1  0.60577500  0.18137300  0.53647100  1
  Ce  Ce10  1  0.89422500  0.69362700  0.46352900  1
  Ce  Ce11  1  0.35577500  0.86887300  0.47397100  1
  Ce  Ce12  1  0.64422500  0.38112700  0.40102900  1
  Ce  Ce13  1  0.10577500  0.55637300  0.41147100  1
  Ce  Ce14  1  0.39422500  0.06862700  0.33852900  1
  Ce  Ce15  1  0.85577500  0.24387300  0.34897100  1
  Ce  Ce16  1  0.14422500  0.75612700  0.27602900  1
  Ce  Ce17  1  0.60577500  0.93137300  0.28647100  1
  Ce  Ce18  1  0.89422500  0.44362700  0.21352900  1
  Ce  Ce19  1  0.35577500  0.61887300  0.22397100  1
  Mg  Mg20  1  0.63184700  0.93444000  0.78468200  1
  Mg  Mg21  1  0.11815300  0.75306000  0.77781800  1
  Mg  Mg22  1  0.38184700  0.62194000  0.72218200  1
  Mg  Mg23  1  0.86815300  0.44056000  0.71531800  1
  Mg  Mg24  1  0.13184700  0.30944000  0.65968200  1
  Mg  Mg25  1  0.61815300  0.12806000  0.65281800  1
  Mg  Mg26  1  0.88184700  0.99694000  0.59718200  1
  Mg  Mg27  1  0.36815300  0.81556000  0.59031800  1
  Mg  Mg28  1  0.63184700  0.68444000  0.53468200  1
  Mg  Mg29  1  0.11815300  0.50306000  0.52781800  1
  Mg  Mg30  1  0.38184700  0.37194000  0.47218200  1
  Mg  Mg31  1  0.86815300  0.19056000  0.46531800  1
  Mg  Mg32  1  0.13184700  0.05944000  0.40968200  1
  Mg  Mg33  1  0.61815300  0.87806000  0.40281800  1
  Mg  Mg34  1  0.88184700  0.74694000  0.34718200  1
  Mg  Mg35  1  0.36815300  0.56556000  0.34031800  1
  Mg  Mg36  1  0.63184700  0.43444000  0.28468200  1
  Mg  Mg37  1  0.11815300  0.25306000  0.27781800  1
  Mg  Mg38  1  0.38184700  0.12194000  0.22218200  1
  Mg  Mg39  1  0.86815300  0.94056000  0.21531800  1
