# generated using pymatgen
data_MgAg2
_symmetry_space_group_name_H-M   'P 1'
_cell_length_a   5.11669478
_cell_length_b   7.04186210
_cell_length_c   42.59610200
_cell_angle_alpha   90.16923033
_cell_angle_beta   93.08783511
_cell_angle_gamma   110.97454756
_symmetry_Int_Tables_number   1
_chemical_formula_structural   MgAg2
_chemical_formula_sum   'Mg16 Ag32'
_cell_volume   1430.59960922
_cell_formula_units_Z   16
loop_
 _symmetry_equiv_pos_site_id
 _symmetry_equiv_pos_as_xyz
  1  'x, y, z'
loop_
 _atom_site_type_symbol
 _atom_site_label
 _atom_site_symmetry_multiplicity
 _atom_site_fract_x
 _atom_site_fract_y
 _atom_site_fract_z
 _atom_site_occupancy
  Mg  Mg0  1  0.93537700  0.49463100  0.76513100  1
  Mg  Mg1  1  0.91077700  0.04383000  0.77333100  1
  Mg  Mg2  1  0.16614600  0.03309300  0.68820800  1
  Mg  Mg3  1  0.14154600  0.58229200  0.69640800  1
  Mg  Mg4  1  0.39691500  0.57155400  0.61128500  1
  Mg  Mg5  1  0.37231600  0.12075300  0.61948500  1
  Mg  Mg6  1  0.62768400  0.11001600  0.53436200  1
  Mg  Mg7  1  0.60308500  0.65921500  0.54256100  1
  Mg  Mg8  1  0.85845400  0.64847800  0.45743900  1
  Mg  Mg9  1  0.83385400  0.19767600  0.46563800  1
  Mg  Mg10  1  0.08922300  0.18693900  0.38051500  1
  Mg  Mg11  1  0.06462300  0.73613800  0.38871500  1
  Mg  Mg12  1  0.31999200  0.72540100  0.30359200  1
  Mg  Mg13  1  0.29539300  0.27459900  0.31179200  1
  Mg  Mg14  1  0.55076100  0.26386200  0.22666900  1
  Mg  Mg15  1  0.52616200  0.81306100  0.23486900  1
  Ag  Ag16  1  0.31803600  0.89516900  0.74855400  1
  Ag  Ag17  1  0.34791400  0.33541300  0.73859500  1
  Ag  Ag18  1  0.52811800  0.64329200  0.78990800  1
  Ag  Ag19  1  0.49824000  0.20304800  0.79986700  1
  Ag  Ag20  1  0.54880600  0.43363100  0.67163100  1
  Ag  Ag21  1  0.57868400  0.87387500  0.66167100  1
  Ag  Ag22  1  0.75888700  0.18175400  0.71298500  1
  Ag  Ag23  1  0.72900900  0.74151000  0.72294400  1
  Ag  Ag24  1  0.77957500  0.97209200  0.59470800  1
  Ag  Ag25  1  0.80945300  0.41233600  0.58474800  1
  Ag  Ag26  1  0.98965600  0.72021500  0.63606200  1
  Ag  Ag27  1  0.95977800  0.27997100  0.64602100  1
  Ag  Ag28  1  0.01034400  0.51055400  0.51778500  1
  Ag  Ag29  1  0.04022200  0.95079800  0.50782500  1
  Ag  Ag30  1  0.22042500  0.25867700  0.55913800  1
  Ag  Ag31  1  0.19054700  0.81843300  0.56909800  1
  Ag  Ag32  1  0.24111300  0.04901500  0.44086200  1
  Ag  Ag33  1  0.27099100  0.48925900  0.43090200  1
  Ag  Ag34  1  0.45119400  0.79713900  0.48221500  1
  Ag  Ag35  1  0.42131600  0.35689400  0.49217500  1
  Ag  Ag36  1  0.47188200  0.58747700  0.36393800  1
  Ag  Ag37  1  0.50176000  0.02772100  0.35397900  1
  Ag  Ag38  1  0.68196400  0.33560000  0.40529200  1
  Ag  Ag39  1  0.65208600  0.89535600  0.41525200  1
  Ag  Ag40  1  0.70265200  0.12593800  0.28701500  1
  Ag  Ag41  1  0.73253000  0.56618300  0.27705600  1
  Ag  Ag42  1  0.91273300  0.87406200  0.32836900  1
  Ag  Ag43  1  0.88285500  0.43381700  0.33832900  1
  Ag  Ag44  1  0.93342100  0.66440000  0.21009200  1
  Ag  Ag45  1  0.96329900  0.10464400  0.20013300  1
  Ag  Ag46  1  0.14350200  0.41252300  0.25144600  1
  Ag  Ag47  1  0.11362400  0.97227900  0.26140500  1
