# generated using pymatgen
data_Mg3Tl
_symmetry_space_group_name_H-M   'P 1'
_cell_length_a   6.45355286
_cell_length_b   8.28726982
_cell_length_c   42.00495400
_cell_angle_alpha   90.72595205
_cell_angle_beta   94.40574067
_cell_angle_gamma   67.08497775
_symmetry_Int_Tables_number   1
_chemical_formula_structural   Mg3Tl
_chemical_formula_sum   'Mg42 Tl14'
_cell_volume   2062.75684752
_cell_formula_units_Z   14
loop_
 _symmetry_equiv_pos_site_id
 _symmetry_equiv_pos_as_xyz
  1  'x, y, z'
loop_
 _atom_site_type_symbol
 _atom_site_label
 _atom_site_symmetry_multiplicity
 _atom_site_fract_x
 _atom_site_fract_y
 _atom_site_fract_z
 _atom_site_occupancy
  Mg  Mg0  1  0.15051600  0.70625900  0.18910800  1
  Mg  Mg1  1  0.56346200  0.43096200  0.23499100  1
  Mg  Mg2  1  0.05875000  0.43096200  0.23499100  1
  Mg  Mg3  1  0.75943200  0.02358400  0.21955400  1
  Mg  Mg4  1  0.25472000  0.02358400  0.21955400  1
  Mg  Mg5  1  0.66766600  0.74828700  0.26543700  1
  Mg  Mg6  1  0.96869800  0.16080400  0.28001700  1
  Mg  Mg7  1  0.38164300  0.88550700  0.32590000  1
  Mg  Mg8  1  0.87693200  0.88550700  0.32590000  1
  Mg  Mg9  1  0.57761400  0.47812900  0.31046300  1
  Mg  Mg10  1  0.07290200  0.47812900  0.31046300  1
  Mg  Mg11  1  0.48584800  0.20283200  0.35634600  1
  Mg  Mg12  1  0.78687900  0.61535000  0.37092700  1
  Mg  Mg13  1  0.19982500  0.34005200  0.41680900  1
  Mg  Mg14  1  0.69511400  0.34005200  0.41680900  1
  Mg  Mg15  1  0.39579600  0.93267500  0.40137200  1
  Mg  Mg16  1  0.89108400  0.93267500  0.40137200  1
  Mg  Mg17  1  0.30403000  0.65737800  0.44725500  1
  Mg  Mg18  1  0.60506100  0.06989500  0.46183600  1
  Mg  Mg19  1  0.01800700  0.79459800  0.50771900  1
  Mg  Mg20  1  0.51329500  0.79459800  0.50771900  1
  Mg  Mg21  1  0.21397700  0.38722000  0.49228100  1
  Mg  Mg22  1  0.70926600  0.38722000  0.49228100  1
  Mg  Mg23  1  0.12221200  0.11192300  0.53816400  1
  Mg  Mg24  1  0.42324300  0.52444100  0.55274500  1
  Mg  Mg25  1  0.83618900  0.24914300  0.59862800  1
  Mg  Mg26  1  0.33147700  0.24914300  0.59862800  1
  Mg  Mg27  1  0.03215900  0.84176600  0.58319100  1
  Mg  Mg28  1  0.52744700  0.84176600  0.58319100  1
  Mg  Mg29  1  0.94039300  0.56646800  0.62907300  1
  Mg  Mg30  1  0.24142500  0.97898600  0.64365400  1
  Mg  Mg31  1  0.65437100  0.70368900  0.68953700  1
  Mg  Mg32  1  0.14965900  0.70368900  0.68953700  1
  Mg  Mg33  1  0.85034100  0.29631100  0.67410000  1
  Mg  Mg34  1  0.34562900  0.29631100  0.67410000  1
  Mg  Mg35  1  0.75857500  0.02101400  0.71998300  1
  Mg  Mg36  1  0.05960700  0.43353200  0.73456300  1
  Mg  Mg37  1  0.47255300  0.15823400  0.78044600  1
  Mg  Mg38  1  0.96784100  0.15823400  0.78044600  1
  Mg  Mg39  1  0.66852300  0.75085700  0.76500900  1
  Mg  Mg40  1  0.16381100  0.75085700  0.76500900  1
  Mg  Mg41  1  0.57675700  0.47555900  0.81089200  1
  Tl  Tl42  1  0.65151500  0.70454500  0.18939400  1
  Tl  Tl43  1  0.16666700  0.75000000  0.26515200  1
  Tl  Tl44  1  0.46969700  0.15909100  0.28030300  1
  Tl  Tl45  1  0.98484800  0.20454500  0.35606100  1
  Tl  Tl46  1  0.28787900  0.61363600  0.37121200  1
  Tl  Tl47  1  0.80303000  0.65909100  0.44697000  1
  Tl  Tl48  1  0.10606100  0.06818200  0.46212100  1
  Tl  Tl49  1  0.62121200  0.11363600  0.53787900  1
  Tl  Tl50  1  0.92424200  0.52272700  0.55303000  1
  Tl  Tl51  1  0.43939400  0.56818200  0.62878800  1
  Tl  Tl52  1  0.74242400  0.97727300  0.64393900  1
  Tl  Tl53  1  0.25757600  0.02272700  0.71969700  1
  Tl  Tl54  1  0.56060600  0.43181800  0.73484800  1
  Tl  Tl55  1  0.07575800  0.47727300  0.81060600  1
