# generated using pymatgen
data_Mg18Zn31
_symmetry_space_group_name_H-M   'P 1'
_cell_length_a   13.26606255
_cell_length_b   15.58232770
_cell_length_c   46.38065300
_cell_angle_alpha   94.29618326
_cell_angle_beta   88.49627591
_cell_angle_gamma   99.94210053
_symmetry_Int_Tables_number   1
_chemical_formula_structural   Mg18Zn31
_chemical_formula_sum   'Mg108 Zn186'
_cell_volume   9416.24935325
_cell_formula_units_Z   6
loop_
 _symmetry_equiv_pos_site_id
 _symmetry_equiv_pos_as_xyz
  1  'x, y, z'
loop_
 _atom_site_type_symbol
 _atom_site_label
 _atom_site_symmetry_multiplicity
 _atom_site_fract_x
 _atom_site_fract_y
 _atom_site_fract_z
 _atom_site_occupancy
  Mg  Mg0  1  0.65396100  0.80477600  0.29483500  1
  Mg  Mg1  1  0.97653900  0.62073000  0.29248600  1
  Mg  Mg2  1  0.52703000  0.26956800  0.28253900  1
  Mg  Mg3  1  0.82676500  0.89931000  0.25689900  1
  Mg  Mg4  1  0.94323000  0.57606600  0.22588000  1
  Mg  Mg5  1  0.47313700  0.92943900  0.29840500  1
  Mg  Mg6  1  0.70730800  0.56531800  0.21101700  1
  Mg  Mg7  1  0.03827100  0.96572600  0.27764600  1
  Mg  Mg8  1  0.57601300  0.60883400  0.26714100  1
  Mg  Mg9  1  0.02180600  0.38897000  0.20866600  1
  Mg  Mg10  1  0.33800500  0.59546700  0.25200600  1
  Mg  Mg11  1  0.28902300  0.25620200  0.26740400  1
  Mg  Mg12  1  0.00481500  0.89611800  0.20858400  1
  Mg  Mg13  1  0.65488700  0.22446100  0.22650000  1
  Mg  Mg14  1  0.31014800  0.74057400  0.20804600  1
  Mg  Mg15  1  0.25772700  0.39971800  0.22352800  1
  Mg  Mg16  1  0.21107400  0.06026000  0.23971100  1
  Mg  Mg17  1  0.39189900  0.93559700  0.23614000  1
  Mg  Mg18  1  0.88849600  0.24430600  0.24206000  1
  Mg  Mg19  1  0.96022100  0.06891800  0.22596100  1
  Mg  Mg20  1  0.55396100  0.70477600  0.39483500  1
  Mg  Mg21  1  0.87653900  0.52073000  0.39248600  1
  Mg  Mg22  1  0.42703000  0.16956800  0.38253900  1
  Mg  Mg23  1  0.72676500  0.79931000  0.35689900  1
  Mg  Mg24  1  0.84323000  0.47606600  0.32588000  1
  Mg  Mg25  1  0.37313700  0.82943900  0.39840500  1
  Mg  Mg26  1  0.60730800  0.46531800  0.31101700  1
  Mg  Mg27  1  0.93827100  0.86572600  0.37764600  1
  Mg  Mg28  1  0.47601300  0.50883400  0.36714100  1
  Mg  Mg29  1  0.92180600  0.28897000  0.30866600  1
  Mg  Mg30  1  0.23800500  0.49546700  0.35200600  1
  Mg  Mg31  1  0.18902300  0.15620200  0.36740400  1
  Mg  Mg32  1  0.90481500  0.79611800  0.30858400  1
  Mg  Mg33  1  0.55488700  0.12446100  0.32650000  1
  Mg  Mg34  1  0.21014800  0.64057400  0.30804600  1
  Mg  Mg35  1  0.15772700  0.29971800  0.32352800  1
  Mg  Mg36  1  0.11107400  0.96026000  0.33971100  1
  Mg  Mg37  1  0.29189900  0.83559700  0.33614000  1
  Mg  Mg38  1  0.78849600  0.14430600  0.34206000  1
  Mg  Mg39  1  0.86022100  0.96891800  0.32596100  1
  Mg  Mg40  1  0.45396100  0.60477600  0.49483500  1
  Mg  Mg41  1  0.77653900  0.42073000  0.49248600  1
  Mg  Mg42  1  0.32703000  0.06956800  0.48253900  1
  Mg  Mg43  1  0.62676500  0.69931000  0.45689900  1
  Mg  Mg44  1  0.74323000  0.37606600  0.42588000  1
  Mg  Mg45  1  0.27313700  0.72943900  0.49840500  1
  Mg  Mg46  1  0.50730800  0.36531800  0.41101700  1
  Mg  Mg47  1  0.83827100  0.76572600  0.47764600  1
  Mg  Mg48  1  0.37601300  0.40883400  0.46714100  1
  Mg  Mg49  1  0.82180600  0.18897000  0.40866600  1
  Mg  Mg50  1  0.13800500  0.39546700  0.45200600  1
  Mg  Mg51  1  0.08902300  0.05620200  0.46740400  1
  Mg  Mg52  1  0.80481500  0.69611800  0.40858400  1
  Mg  Mg53  1  0.45488700  0.02446100  0.42650000  1
  Mg  Mg54  1  0.11014800  0.54057400  0.40804600  1
  Mg  Mg55  1  0.05772700  0.19971800  0.42352800  1
  Mg  Mg56  1  0.01107400  0.86026000  0.43971100  1
  Mg  Mg57  1  0.19189900  0.73559700  0.43614000  1
  Mg  Mg58  1  0.68849600  0.04430600  0.44206000  1
  Mg  Mg59  1  0.76022100  0.86891800  0.42596100  1
  Mg  Mg60  1  0.35396100  0.50477600  0.59483500  1
  Mg  Mg61  1  0.67653900  0.32073000  0.59248600  1
  Mg  Mg62  1  0.22703000  0.96956800  0.58253900  1
  Mg  Mg63  1  0.52676500  0.59931000  0.55689900  1
  Mg  Mg64  1  0.64323000  0.27606600  0.52588000  1
  Mg  Mg65  1  0.17313700  0.62943900  0.59840500  1
  Mg  Mg66  1  0.40730800  0.26531800  0.51101700  1
  Mg  Mg67  1  0.73827100  0.66572600  0.57764600  1
  Mg  Mg68  1  0.27601300  0.30883400  0.56714100  1
  Mg  Mg69  1  0.72180600  0.08897000  0.50866600  1
  Mg  Mg70  1  0.03800500  0.29546700  0.55200600  1
  Mg  Mg71  1  0.98902300  0.95620200  0.56740400  1
  Mg  Mg72  1  0.70481500  0.59611800  0.50858400  1
  Mg  Mg73  1  0.35488700  0.92446100  0.52650000  1
  Mg  Mg74  1  0.01014800  0.44057400  0.50804600  1
  Mg  Mg75  1  0.95772700  0.09971800  0.52352800  1
  Mg  Mg76  1  0.91107400  0.76026000  0.53971100  1
  Mg  Mg77  1  0.09189900  0.63559700  0.53614000  1
  Mg  Mg78  1  0.58849600  0.94430600  0.54206000  1
  Mg  Mg79  1  0.66022100  0.76891800  0.52596100  1
  Mg  Mg80  1  0.25396100  0.40477600  0.69483500  1
  Mg  Mg81  1  0.57653900  0.22073000  0.69248600  1
  Mg  Mg82  1  0.12703000  0.86956800  0.68253900  1
  Mg  Mg83  1  0.42676500  0.49931000  0.65689900  1
  Mg  Mg84  1  0.54323000  0.17606600  0.62588000  1
  Mg  Mg85  1  0.07313700  0.52943900  0.69840500  1
  Mg  Mg86  1  0.30730800  0.16531800  0.61101700  1
  Mg  Mg87  1  0.63827100  0.56572600  0.67764600  1
  Mg  Mg88  1  0.17601300  0.20883400  0.66714100  1
  Mg  Mg89  1  0.62180600  0.98897000  0.60866600  1
  Mg  Mg90  1  0.93800500  0.19546700  0.65200600  1
  Mg  Mg91  1  0.88902300  0.85620200  0.66740400  1
  Mg  Mg92  1  0.60481500  0.49611800  0.60858400  1
  Mg  Mg93  1  0.25488700  0.82446100  0.62650000  1
  Mg  Mg94  1  0.91014800  0.34057400  0.60804600  1
  Mg  Mg95  1  0.85772700  0.99971800  0.62352800  1
  Mg  Mg96  1  0.81107400  0.66026000  0.63971100  1
  Mg  Mg97  1  0.99189900  0.53559700  0.63614000  1
  Mg  Mg98  1  0.48849600  0.84430600  0.64206000  1
  Mg  Mg99  1  0.56022100  0.66891800  0.62596100  1
  Mg  Mg100  1  0.44323000  0.07606600  0.72588000  1
  Mg  Mg101  1  0.20730800  0.06531800  0.71101700  1
  Mg  Mg102  1  0.52180600  0.88897000  0.70866600  1
  Mg  Mg103  1  0.50481500  0.39611800  0.70858400  1
  Mg  Mg104  1  0.15488700  0.72446100  0.72650000  1
  Mg  Mg105  1  0.81014800  0.24057400  0.70804600  1
  Mg  Mg106  1  0.75772700  0.89971800  0.72352800  1
  Mg  Mg107  1  0.46022100  0.56891800  0.72596100  1
  Zn  Zn108  1  0.77962400  0.52270800  0.26937200  1
  Zn  Zn109  1  0.98467600  0.76630600  0.25087200  1
  Zn  Zn110  1  0.50449300  0.65375700  0.20888600  1
  Zn  Zn111  1  0.12012100  0.22370000  0.22440100  1
  Zn  Zn112  1  0.16899400  0.56719300  0.20936200  1
  Zn  Zn113  1  0.79856800  0.68967600  0.26058300  1
  Zn  Zn114  1  0.48251800  0.48251800  0.21727300  1
  Zn  Zn115  1  0.08541200  0.34232700  0.26517300  1
  Zn  Zn116  1  0.30252700  0.79046600  0.27223100  1
  Zn  Zn117  1  0.74505400  0.34711900  0.27579500  1
  Zn  Zn118  1  0.47905900  0.77266200  0.25160500  1
  Zn  Zn119  1  0.61198200  0.91636600  0.24662000  1
  Zn  Zn120  1  0.61571400  0.41917100  0.24701800  1
  Zn  Zn121  1  0.72468400  0.18348800  0.28392500  1
  Zn  Zn122  1  0.88036000  0.09873000  0.28367300  1
  Zn  Zn123  1  0.56250900  0.07457000  0.26231400  1
  Zn  Zn124  1  0.74734900  0.05870900  0.24073800  1
  Zn  Zn125  1  0.11998200  0.51791700  0.25875100  1
  Zn  Zn126  1  0.06646700  0.17535900  0.27396300  1
  Zn  Zn127  1  0.24932200  0.44586400  0.28752700  1
  Zn  Zn128  1  0.11768700  0.80632600  0.29380700  1
  Zn  Zn129  1  0.79604200  0.39784300  0.22518400  1
  Zn  Zn130  1  0.43251800  0.43251800  0.26727300  1
  Zn  Zn131  1  0.66577800  0.75319000  0.23113800  1
  Zn  Zn132  1  0.52798300  0.82361700  0.20117600  1
  Zn  Zn133  1  0.69870000  0.00560100  0.29202800  1
  Zn  Zn134  1  0.29925800  0.21184500  0.20340800  1
  Zn  Zn135  1  0.16633500  0.85943500  0.24251700  1
  Zn  Zn136  1  0.14035100  0.68154700  0.25062000  1
  Zn  Zn137  1  0.43705300  0.14141900  0.23336900  1
  Zn  Zn138  1  0.84491400  0.74133500  0.21014400  1
  Zn  Zn139  1  0.93251800  0.43251800  0.26727300  1
  Zn  Zn140  1  0.38597600  0.09237400  0.28294100  1
  Zn  Zn141  1  0.25305300  0.94866900  0.28792500  1
  Zn  Zn142  1  0.46054200  0.31127900  0.22565900  1
  Zn  Zn143  1  0.67962400  0.42270800  0.36937200  1
  Zn  Zn144  1  0.88467600  0.66630600  0.35087200  1
  Zn  Zn145  1  0.40449300  0.55375700  0.30888600  1
  Zn  Zn146  1  0.02012100  0.12370000  0.32440100  1
  Zn  Zn147  1  0.06899400  0.46719300  0.30936200  1
  Zn  Zn148  1  0.69856800  0.58967600  0.36058300  1
  Zn  Zn149  1  0.38251800  0.38251800  0.31727300  1
  Zn  Zn150  1  0.98541200  0.24232700  0.36517300  1
  Zn  Zn151  1  0.20252700  0.69046600  0.37223100  1
  Zn  Zn152  1  0.64505400  0.24711900  0.37579500  1
  Zn  Zn153  1  0.37905900  0.67266200  0.35160500  1
  Zn  Zn154  1  0.51198200  0.81636600  0.34662000  1
  Zn  Zn155  1  0.51571400  0.31917100  0.34701800  1
  Zn  Zn156  1  0.62468400  0.08348800  0.38392500  1
  Zn  Zn157  1  0.78036000  0.99873000  0.38367300  1
  Zn  Zn158  1  0.46250900  0.97457000  0.36231400  1
  Zn  Zn159  1  0.64734900  0.95870900  0.34073800  1
  Zn  Zn160  1  0.01998200  0.41791700  0.35875100  1
  Zn  Zn161  1  0.96646700  0.07535900  0.37396300  1
  Zn  Zn162  1  0.14932200  0.34586400  0.38752700  1
  Zn  Zn163  1  0.01768700  0.70632600  0.39380700  1
  Zn  Zn164  1  0.69604200  0.29784300  0.32518400  1
  Zn  Zn165  1  0.33251800  0.33251800  0.36727300  1
  Zn  Zn166  1  0.56577800  0.65319000  0.33113800  1
  Zn  Zn167  1  0.42798300  0.72361700  0.30117600  1
  Zn  Zn168  1  0.59870000  0.90560100  0.39202800  1
  Zn  Zn169  1  0.19925800  0.11184500  0.30340800  1
  Zn  Zn170  1  0.06633500  0.75943500  0.34251700  1
  Zn  Zn171  1  0.04035100  0.58154700  0.35062000  1
  Zn  Zn172  1  0.33705300  0.04141900  0.33336900  1
  Zn  Zn173  1  0.74491400  0.64133500  0.31014400  1
  Zn  Zn174  1  0.83251800  0.33251800  0.36727300  1
  Zn  Zn175  1  0.28597600  0.99237400  0.38294100  1
  Zn  Zn176  1  0.15305300  0.84866900  0.38792500  1
  Zn  Zn177  1  0.36054200  0.21127900  0.32565900  1
  Zn  Zn178  1  0.57962400  0.32270800  0.46937200  1
  Zn  Zn179  1  0.78467600  0.56630600  0.45087200  1
  Zn  Zn180  1  0.30449300  0.45375700  0.40888600  1
  Zn  Zn181  1  0.92012100  0.02370000  0.42440100  1
  Zn  Zn182  1  0.96899400  0.36719300  0.40936200  1
  Zn  Zn183  1  0.59856800  0.48967600  0.46058300  1
  Zn  Zn184  1  0.28251800  0.28251800  0.41727300  1
  Zn  Zn185  1  0.88541200  0.14232700  0.46517300  1
  Zn  Zn186  1  0.10252700  0.59046600  0.47223100  1
  Zn  Zn187  1  0.54505400  0.14711900  0.47579500  1
  Zn  Zn188  1  0.27905900  0.57266200  0.45160500  1
  Zn  Zn189  1  0.41198200  0.71636600  0.44662000  1
  Zn  Zn190  1  0.41571400  0.21917100  0.44701800  1
  Zn  Zn191  1  0.52468400  0.98348800  0.48392500  1
  Zn  Zn192  1  0.68036000  0.89873000  0.48367300  1
  Zn  Zn193  1  0.36250900  0.87457000  0.46231400  1
  Zn  Zn194  1  0.54734900  0.85870900  0.44073800  1
  Zn  Zn195  1  0.91998200  0.31791700  0.45875100  1
  Zn  Zn196  1  0.86646700  0.97535900  0.47396300  1
  Zn  Zn197  1  0.04932200  0.24586400  0.48752700  1
  Zn  Zn198  1  0.91768700  0.60632600  0.49380700  1
  Zn  Zn199  1  0.59604200  0.19784300  0.42518400  1
  Zn  Zn200  1  0.23251800  0.23251800  0.46727300  1
  Zn  Zn201  1  0.46577800  0.55319000  0.43113800  1
  Zn  Zn202  1  0.32798300  0.62361700  0.40117600  1
  Zn  Zn203  1  0.49870000  0.80560100  0.49202800  1
  Zn  Zn204  1  0.09925800  0.01184500  0.40340800  1
  Zn  Zn205  1  0.96633500  0.65943500  0.44251700  1
  Zn  Zn206  1  0.94035100  0.48154700  0.45062000  1
  Zn  Zn207  1  0.23705300  0.94141900  0.43336900  1
  Zn  Zn208  1  0.64491400  0.54133500  0.41014400  1
  Zn  Zn209  1  0.73251800  0.23251800  0.46727300  1
  Zn  Zn210  1  0.18597600  0.89237400  0.48294100  1
  Zn  Zn211  1  0.05305300  0.74866900  0.48792500  1
  Zn  Zn212  1  0.26054200  0.11127900  0.42565900  1
  Zn  Zn213  1  0.47962400  0.22270800  0.56937200  1
  Zn  Zn214  1  0.68467600  0.46630600  0.55087200  1
  Zn  Zn215  1  0.20449300  0.35375700  0.50888600  1
  Zn  Zn216  1  0.82012100  0.92370000  0.52440100  1
  Zn  Zn217  1  0.86899400  0.26719300  0.50936200  1
  Zn  Zn218  1  0.49856800  0.38967600  0.56058300  1
  Zn  Zn219  1  0.18251800  0.18251800  0.51727300  1
  Zn  Zn220  1  0.78541200  0.04232700  0.56517300  1
  Zn  Zn221  1  0.00252700  0.49046600  0.57223100  1
  Zn  Zn222  1  0.44505400  0.04711900  0.57579500  1
  Zn  Zn223  1  0.17905900  0.47266200  0.55160500  1
  Zn  Zn224  1  0.31198200  0.61636600  0.54662000  1
  Zn  Zn225  1  0.31571400  0.11917100  0.54701800  1
  Zn  Zn226  1  0.42468400  0.88348800  0.58392500  1
  Zn  Zn227  1  0.58036000  0.79873000  0.58367300  1
  Zn  Zn228  1  0.26250900  0.77457000  0.56231400  1
  Zn  Zn229  1  0.44734900  0.75870900  0.54073800  1
  Zn  Zn230  1  0.81998200  0.21791700  0.55875100  1
  Zn  Zn231  1  0.76646700  0.87535900  0.57396300  1
  Zn  Zn232  1  0.94932200  0.14586400  0.58752700  1
  Zn  Zn233  1  0.81768700  0.50632600  0.59380700  1
  Zn  Zn234  1  0.49604200  0.09784300  0.52518400  1
  Zn  Zn235  1  0.13251800  0.13251800  0.56727300  1
  Zn  Zn236  1  0.36577800  0.45319000  0.53113800  1
  Zn  Zn237  1  0.22798300  0.52361700  0.50117600  1
  Zn  Zn238  1  0.39870000  0.70560100  0.59202800  1
  Zn  Zn239  1  0.99925800  0.91184500  0.50340800  1
  Zn  Zn240  1  0.86633500  0.55943500  0.54251700  1
  Zn  Zn241  1  0.84035100  0.38154700  0.55062000  1
  Zn  Zn242  1  0.13705300  0.84141900  0.53336900  1
  Zn  Zn243  1  0.54491400  0.44133500  0.51014400  1
  Zn  Zn244  1  0.63251800  0.13251800  0.56727300  1
  Zn  Zn245  1  0.08597600  0.79237400  0.58294100  1
  Zn  Zn246  1  0.95305300  0.64866900  0.58792500  1
  Zn  Zn247  1  0.16054200  0.01127900  0.52565900  1
  Zn  Zn248  1  0.37962400  0.12270800  0.66937200  1
  Zn  Zn249  1  0.58467600  0.36630600  0.65087200  1
  Zn  Zn250  1  0.10449300  0.25375700  0.60888600  1
  Zn  Zn251  1  0.72012100  0.82370000  0.62440100  1
  Zn  Zn252  1  0.76899400  0.16719300  0.60936200  1
  Zn  Zn253  1  0.39856800  0.28967600  0.66058300  1
  Zn  Zn254  1  0.08251800  0.08251800  0.61727300  1
  Zn  Zn255  1  0.68541200  0.94232700  0.66517300  1
  Zn  Zn256  1  0.90252700  0.39046600  0.67223100  1
  Zn  Zn257  1  0.34505400  0.94711900  0.67579500  1
  Zn  Zn258  1  0.07905900  0.37266200  0.65160500  1
  Zn  Zn259  1  0.21198200  0.51636600  0.64662000  1
  Zn  Zn260  1  0.21571400  0.01917100  0.64701800  1
  Zn  Zn261  1  0.32468400  0.78348800  0.68392500  1
  Zn  Zn262  1  0.48036000  0.69873000  0.68367300  1
  Zn  Zn263  1  0.16250900  0.67457000  0.66231400  1
  Zn  Zn264  1  0.34734900  0.65870900  0.64073800  1
  Zn  Zn265  1  0.71998200  0.11791700  0.65875100  1
  Zn  Zn266  1  0.66646700  0.77535900  0.67396300  1
  Zn  Zn267  1  0.84932200  0.04586400  0.68752700  1
  Zn  Zn268  1  0.71768700  0.40632600  0.69380700  1
  Zn  Zn269  1  0.39604200  0.99784300  0.62518400  1
  Zn  Zn270  1  0.03251800  0.03251800  0.66727300  1
  Zn  Zn271  1  0.26577800  0.35319000  0.63113800  1
  Zn  Zn272  1  0.12798300  0.42361700  0.60117600  1
  Zn  Zn273  1  0.29870000  0.60560100  0.69202800  1
  Zn  Zn274  1  0.89925800  0.81184500  0.60340800  1
  Zn  Zn275  1  0.76633500  0.45943500  0.64251700  1
  Zn  Zn276  1  0.74035100  0.28154700  0.65062000  1
  Zn  Zn277  1  0.03705300  0.74141900  0.63336900  1
  Zn  Zn278  1  0.44491400  0.34133500  0.61014400  1
  Zn  Zn279  1  0.53251800  0.03251800  0.66727300  1
  Zn  Zn280  1  0.98597600  0.69237400  0.68294100  1
  Zn  Zn281  1  0.85305300  0.54866900  0.68792500  1
  Zn  Zn282  1  0.06054200  0.91127900  0.62565900  1
  Zn  Zn283  1  0.00449300  0.15375700  0.70888600  1
  Zn  Zn284  1  0.62012100  0.72370000  0.72440100  1
  Zn  Zn285  1  0.66899400  0.06719300  0.70936200  1
  Zn  Zn286  1  0.98251800  0.98251800  0.71727300  1
  Zn  Zn287  1  0.29604200  0.89784300  0.72518400  1
  Zn  Zn288  1  0.16577800  0.25319000  0.73113800  1
  Zn  Zn289  1  0.02798300  0.32361700  0.70117600  1
  Zn  Zn290  1  0.79925800  0.71184500  0.70340800  1
  Zn  Zn291  1  0.93705300  0.64141900  0.73336900  1
  Zn  Zn292  1  0.34491400  0.24133500  0.71014400  1
  Zn  Zn293  1  0.96054200  0.81127900  0.72565900  1
