# generated using pymatgen
data_Mg128Zn225
_symmetry_space_group_name_H-M   'P 1'
_cell_length_a   15.05205963
_cell_length_b   15.58232832
_cell_length_c   44.40935000
_cell_angle_alpha   95.28205411
_cell_angle_beta   87.96000798
_cell_angle_gamma   92.33702888
_symmetry_Int_Tables_number   1
_chemical_formula_structural   Mg128Zn225
_chemical_formula_sum   'Mg128 Zn225'
_cell_volume   10357.87463183
_cell_formula_units_Z   1
loop_
 _symmetry_equiv_pos_site_id
 _symmetry_equiv_pos_as_xyz
  1  'x, y, z'
loop_
 _atom_site_type_symbol
 _atom_site_label
 _atom_site_symmetry_multiplicity
 _atom_site_fract_x
 _atom_site_fract_y
 _atom_site_fract_z
 _atom_site_occupancy
  Mg  Mg0  1  0.61905200  0.83484300  0.24852000  1
  Mg  Mg1  1  0.06714700  0.71238100  0.18458700  1
  Mg  Mg2  1  0.52749400  0.31117500  0.22468500  1
  Mg  Mg3  1  0.79837200  0.91366800  0.22629300  1
  Mg  Mg4  1  0.92468100  0.57983600  0.20586200  1
  Mg  Mg5  1  0.46753400  0.97594500  0.23565100  1
  Mg  Mg6  1  0.56469900  0.49962600  0.26046100  1
  Mg  Mg7  1  0.95067500  0.96085600  0.26626900  1
  Mg  Mg8  1  0.58296900  0.64598700  0.21374000  1
  Mg  Mg9  1  0.00618500  0.38559700  0.19579100  1
  Mg  Mg10  1  0.22155300  0.56334900  0.26787700  1
  Mg  Mg11  1  0.34789600  0.31944600  0.18791300  1
  Mg  Mg12  1  0.99236400  0.89428900  0.19416500  1
  Mg  Mg13  1  0.50632600  0.16353600  0.27117800  1
  Mg  Mg14  1  0.24272100  0.71098800  0.22138400  1
  Mg  Mg15  1  0.18434900  0.37489800  0.23210100  1
  Mg  Mg16  1  0.12999600  0.03968000  0.24404200  1
  Mg  Mg17  1  0.28151300  0.89857900  0.25691100  1
  Mg  Mg18  1  0.86371900  0.25305200  0.21706600  1
  Mg  Mg19  1  0.93850100  0.07114300  0.20748800  1
  Mg  Mg20  1  0.43723300  0.74393400  0.33942900  1
  Mg  Mg21  1  0.88532800  0.62147200  0.27549600  1
  Mg  Mg22  1  0.34567600  0.22026600  0.31559400  1
  Mg  Mg23  1  0.61655400  0.82275900  0.31720200  1
  Mg  Mg24  1  0.74286300  0.48892700  0.29677100  1
  Mg  Mg25  1  0.28571600  0.88503600  0.32656100  1
  Mg  Mg26  1  0.38288000  0.40871700  0.35137000  1
  Mg  Mg27  1  0.76885700  0.86994700  0.35717800  1
  Mg  Mg28  1  0.40115100  0.55507800  0.30464900  1
  Mg  Mg29  1  0.82436600  0.29468800  0.28670000  1
  Mg  Mg30  1  0.03973500  0.47244000  0.35878600  1
  Mg  Mg31  1  0.16607800  0.22853600  0.27882200  1
  Mg  Mg32  1  0.81054600  0.80338000  0.28507400  1
  Mg  Mg33  1  0.32450800  0.07262600  0.36208700  1
  Mg  Mg34  1  0.06090300  0.62007900  0.31229300  1
  Mg  Mg35  1  0.00253000  0.28398800  0.32301000  1
  Mg  Mg36  1  0.94817800  0.94877100  0.33495100  1
  Mg  Mg37  1  0.09969500  0.80767000  0.34782000  1
  Mg  Mg38  1  0.68190100  0.16214200  0.30797500  1
  Mg  Mg39  1  0.75668300  0.98023400  0.29839700  1
  Mg  Mg40  1  0.25541500  0.65302500  0.43033800  1
  Mg  Mg41  1  0.70351000  0.53056300  0.36640500  1
  Mg  Mg42  1  0.16385800  0.12935700  0.40650300  1
  Mg  Mg43  1  0.43473600  0.73184900  0.40811100  1
  Mg  Mg44  1  0.56104400  0.39801800  0.38768000  1
  Mg  Mg45  1  0.10389800  0.79412700  0.41747000  1
  Mg  Mg46  1  0.20106200  0.31780800  0.44227900  1
  Mg  Mg47  1  0.58703900  0.77903800  0.44808700  1
  Mg  Mg48  1  0.21933300  0.46416900  0.39555800  1
  Mg  Mg49  1  0.64254800  0.20377900  0.37760900  1
  Mg  Mg50  1  0.85791600  0.38153100  0.44969500  1
  Mg  Mg51  1  0.98426000  0.13762700  0.36973100  1
  Mg  Mg52  1  0.62872800  0.71247100  0.37598300  1
  Mg  Mg53  1  0.14269000  0.98171700  0.45299600  1
  Mg  Mg54  1  0.87908500  0.52917000  0.40320200  1
  Mg  Mg55  1  0.82071200  0.19307900  0.41391900  1
  Mg  Mg56  1  0.76635900  0.85786200  0.42586000  1
  Mg  Mg57  1  0.91787700  0.71676100  0.43872900  1
  Mg  Mg58  1  0.50008200  0.07123300  0.39888400  1
  Mg  Mg59  1  0.57486500  0.88932500  0.38930600  1
  Mg  Mg60  1  0.07359700  0.56211600  0.52124700  1
  Mg  Mg61  1  0.52169200  0.43965400  0.45731400  1
  Mg  Mg62  1  0.98204000  0.03844800  0.49741200  1
  Mg  Mg63  1  0.25291700  0.64094000  0.49902100  1
  Mg  Mg64  1  0.37922600  0.30710900  0.47858900  1
  Mg  Mg65  1  0.92208000  0.70321700  0.50837900  1
  Mg  Mg66  1  0.01924400  0.22689900  0.53318800  1
  Mg  Mg67  1  0.40522100  0.68812900  0.53899600  1
  Mg  Mg68  1  0.03751400  0.37326000  0.48646700  1
  Mg  Mg69  1  0.46073000  0.11287000  0.46851800  1
  Mg  Mg70  1  0.67609800  0.29062100  0.54060400  1
  Mg  Mg71  1  0.80244200  0.04671800  0.46064000  1
  Mg  Mg72  1  0.44691000  0.62156200  0.46689200  1
  Mg  Mg73  1  0.96087100  0.89080800  0.54390500  1
  Mg  Mg74  1  0.69726700  0.43826100  0.49411100  1
  Mg  Mg75  1  0.63889400  0.10217000  0.50482800  1
  Mg  Mg76  1  0.58454100  0.76695300  0.51676900  1
  Mg  Mg77  1  0.73605900  0.62585200  0.52963800  1
  Mg  Mg78  1  0.31826400  0.98032400  0.48979400  1
  Mg  Mg79  1  0.39304700  0.79841600  0.48021500  1
  Mg  Mg80  1  0.89177900  0.47120700  0.61215600  1
  Mg  Mg81  1  0.33987400  0.34874500  0.54822300  1
  Mg  Mg82  1  0.80022200  0.94753900  0.58832200  1
  Mg  Mg83  1  0.07109900  0.55003100  0.58993000  1
  Mg  Mg84  1  0.19740800  0.21619900  0.56949800  1
  Mg  Mg85  1  0.74026100  0.61230800  0.59928800  1
  Mg  Mg86  1  0.83742600  0.13599000  0.62409700  1
  Mg  Mg87  1  0.22340300  0.59722000  0.62990500  1
  Mg  Mg88  1  0.85569600  0.28235100  0.57737600  1
  Mg  Mg89  1  0.27891200  0.02196100  0.55942700  1
  Mg  Mg90  1  0.49428000  0.19971200  0.63151300  1
  Mg  Mg91  1  0.62062400  0.95580900  0.55154900  1
  Mg  Mg92  1  0.26509100  0.53065300  0.55780200  1
  Mg  Mg93  1  0.77905300  0.79989900  0.63481500  1
  Mg  Mg94  1  0.51544900  0.34735200  0.58502000  1
  Mg  Mg95  1  0.45707600  0.01126100  0.59573700  1
  Mg  Mg96  1  0.40272300  0.67604400  0.60767900  1
  Mg  Mg97  1  0.55424000  0.53494300  0.62054700  1
  Mg  Mg98  1  0.13644600  0.88941500  0.58070300  1
  Mg  Mg99  1  0.21122900  0.70750700  0.57112400  1
  Mg  Mg100  1  0.70996100  0.38029800  0.70306500  1
  Mg  Mg101  1  0.15805600  0.25783600  0.63913200  1
  Mg  Mg102  1  0.61840400  0.85662900  0.67923100  1
  Mg  Mg103  1  0.88928100  0.45912200  0.68083900  1
  Mg  Mg104  1  0.01559000  0.12529000  0.66040700  1
  Mg  Mg105  1  0.55844300  0.52139900  0.69019700  1
  Mg  Mg106  1  0.65560800  0.04508100  0.71500700  1
  Mg  Mg107  1  0.04158400  0.50631100  0.72081400  1
  Mg  Mg108  1  0.67387800  0.19144200  0.66828600  1
  Mg  Mg109  1  0.09709400  0.93105100  0.65033600  1
  Mg  Mg110  1  0.31246200  0.10880300  0.72242200  1
  Mg  Mg111  1  0.43880600  0.86490000  0.64245800  1
  Mg  Mg112  1  0.08327300  0.43974400  0.64871100  1
  Mg  Mg113  1  0.59723500  0.70899000  0.72572400  1
  Mg  Mg114  1  0.33363000  0.25644300  0.67592900  1
  Mg  Mg115  1  0.27525800  0.92035200  0.68664600  1
  Mg  Mg116  1  0.22090500  0.58513500  0.69858800  1
  Mg  Mg117  1  0.37242200  0.44403300  0.71145600  1
  Mg  Mg118  1  0.95462800  0.79850600  0.67161200  1
  Mg  Mg119  1  0.02941000  0.61659800  0.66203300  1
  Mg  Mg120  1  0.97623800  0.16692700  0.73004100  1
  Mg  Mg121  1  0.83377200  0.03438100  0.75131600  1
  Mg  Mg122  1  0.49206000  0.10053300  0.75919500  1
  Mg  Mg123  1  0.91527600  0.84014200  0.74124600  1
  Mg  Mg124  1  0.25698700  0.77399100  0.73336700  1
  Mg  Mg125  1  0.90145500  0.34883500  0.73962000  1
  Mg  Mg126  1  0.77281000  0.70759700  0.76252100  1
  Mg  Mg127  1  0.84759200  0.52568900  0.75294200  1
  Zn  Zn128  1  0.74732900  0.54135200  0.23448100  1
  Zn  Zn129  1  0.93359900  0.76630800  0.23462200  1
  Zn  Zn130  1  0.40089000  0.60650300  0.23989200  1
  Zn  Zn131  1  0.07088900  0.21138900  0.22046400  1
  Zn  Zn132  1  0.12591500  0.55043900  0.20986800  1
  Zn  Zn133  1  0.77161800  0.70659800  0.22741400  1
  Zn  Zn134  1  0.37452400  0.43726200  0.24628100  1
  Zn  Zn135  1  0.00171800  0.33317200  0.25808100  1
  Zn  Zn136  1  0.35411800  0.85248200  0.19396700  1
  Zn  Zn137  1  0.71262200  0.36890500  0.23776100  1
  Zn  Zn138  1  0.51918000  0.81862900  0.18939000  1
  Zn  Zn139  1  0.63292000  0.95025000  0.19648900  1
  Zn  Zn140  1  0.63557500  0.45271600  0.19722600  1
  Zn  Zn141  1  0.68782600  0.20712600  0.24403900  1
  Zn  Zn142  1  0.81544900  0.10821600  0.25794000  1
  Zn  Zn143  1  0.57674700  0.11295100  0.20768500  1
  Zn  Zn144  1  0.74955700  0.08028700  0.20291300  1
  Zn  Zn145  1  0.03642500  0.50561900  0.25480100  1
  Zn  Zn146  1  0.97742900  0.16792600  0.26514800  1
  Zn  Zn147  1  0.29529000  0.51271700  0.20442700  1
  Zn  Zn148  1  0.18130900  0.88514600  0.19874000  1
  Zn  Zn149  1  0.80495000  0.41499400  0.19178500  1
  Zn  Zn150  1  0.46543300  0.48271600  0.20082600  1
  Zn  Zn151  1  0.69241700  0.78218300  0.18589700  1
  Zn  Zn152  1  0.42781900  0.77422800  0.23431700  1
  Zn  Zn153  1  0.65846300  0.03160100  0.24978000  1
  Zn  Zn154  1  0.23844900  0.18324900  0.21575600  1
  Zn  Zn155  1  0.09058400  0.84292300  0.24278200  1
  Zn  Zn156  1  0.06122200  0.66739700  0.24852300  1
  Zn  Zn157  1  0.32122800  0.10029600  0.25824500  1
  Zn  Zn158  1  0.67815800  0.66313400  0.27209800  1
  Zn  Zn159  1  0.87452400  0.43726200  0.24628100  1
  Zn  Zn160  1  0.41168600  0.14680300  0.21226300  1
  Zn  Zn161  1  0.29794600  0.01518300  0.20516400  1
  Zn  Zn162  1  0.34815700  0.26802100  0.25267000  1
  Zn  Zn163  1  0.56551100  0.45044300  0.32539000  1
  Zn  Zn164  1  0.75178100  0.67539900  0.32553100  1
  Zn  Zn165  1  0.21907200  0.51559400  0.33080100  1
  Zn  Zn166  1  0.88907100  0.12048000  0.31137300  1
  Zn  Zn167  1  0.94409700  0.45953000  0.30077700  1
  Zn  Zn168  1  0.58980000  0.61568900  0.31832300  1
  Zn  Zn169  1  0.19270500  0.34635300  0.33719000  1
  Zn  Zn170  1  0.81990000  0.24226300  0.34899000  1
  Zn  Zn171  1  0.17230000  0.76157200  0.28487700  1
  Zn  Zn172  1  0.53080400  0.27799600  0.32867000  1
  Zn  Zn173  1  0.33736200  0.72772000  0.28029900  1
  Zn  Zn174  1  0.45110100  0.85934100  0.28739800  1
  Zn  Zn175  1  0.45375700  0.36180700  0.28813500  1
  Zn  Zn176  1  0.50600700  0.11621700  0.33494800  1
  Zn  Zn177  1  0.63363000  0.01730600  0.34884900  1
  Zn  Zn178  1  0.39492900  0.02204200  0.29859500  1
  Zn  Zn179  1  0.56773800  0.98937800  0.29382200  1
  Zn  Zn180  1  0.85460700  0.41471000  0.34571000  1
  Zn  Zn181  1  0.79561100  0.07701700  0.35605700  1
  Zn  Zn182  1  0.11347200  0.42180800  0.29533600  1
  Zn  Zn183  1  0.99949100  0.79423700  0.28964900  1
  Zn  Zn184  1  0.62313200  0.32408500  0.28269400  1
  Zn  Zn185  1  0.28361500  0.39180700  0.29173600  1
  Zn  Zn186  1  0.51059900  0.69127400  0.27680600  1
  Zn  Zn187  1  0.24600100  0.68331800  0.32522700  1
  Zn  Zn188  1  0.47664500  0.94069200  0.34068900  1
  Zn  Zn189  1  0.05663000  0.09234000  0.30666500  1
  Zn  Zn190  1  0.90876600  0.75201300  0.33369100  1
  Zn  Zn191  1  0.87940300  0.57648800  0.33943200  1
  Zn  Zn192  1  0.13941000  0.00938700  0.34915400  1
  Zn  Zn193  1  0.49634000  0.57222500  0.36300700  1
  Zn  Zn194  1  0.69270500  0.34635300  0.33719000  1
  Zn  Zn195  1  0.22986700  0.05589400  0.30317200  1
  Zn  Zn196  1  0.11612800  0.92427400  0.29607300  1
  Zn  Zn197  1  0.16633900  0.17711200  0.34357900  1
  Zn  Zn198  1  0.38369300  0.35953300  0.41629900  1
  Zn  Zn199  1  0.56996200  0.58449000  0.41644000  1
  Zn  Zn200  1  0.03725400  0.42468500  0.42171000  1
  Zn  Zn201  1  0.70725200  0.02957100  0.40228200  1
  Zn  Zn202  1  0.76227900  0.36862100  0.39168600  1
  Zn  Zn203  1  0.40798200  0.52477900  0.40923200  1
  Zn  Zn204  1  0.01088700  0.25544400  0.42809900  1
  Zn  Zn205  1  0.63808200  0.15135400  0.43989900  1
  Zn  Zn206  1  0.99048200  0.67066300  0.37578600  1
  Zn  Zn207  1  0.34898600  0.18708700  0.41957900  1
  Zn  Zn208  1  0.15554300  0.63681100  0.37120800  1
  Zn  Zn209  1  0.26928300  0.76843200  0.37830700  1
  Zn  Zn210  1  0.27193900  0.27089700  0.37904400  1
  Zn  Zn211  1  0.32418900  0.02530800  0.42585800  1
  Zn  Zn212  1  0.45181200  0.92639700  0.43975800  1
  Zn  Zn213  1  0.21311100  0.93113300  0.38950400  1
  Zn  Zn214  1  0.38592000  0.89846900  0.38473100  1
  Zn  Zn215  1  0.67278900  0.32380100  0.43661900  1
  Zn  Zn216  1  0.61379200  0.98610800  0.44696600  1
  Zn  Zn217  1  0.93165400  0.33089900  0.38624500  1
  Zn  Zn218  1  0.81767200  0.70332800  0.38055800  1
  Zn  Zn219  1  0.44131400  0.23317500  0.37360300  1
  Zn  Zn220  1  0.10179600  0.30089800  0.38264500  1
  Zn  Zn221  1  0.32878000  0.60036500  0.36771500  1
  Zn  Zn222  1  0.06418300  0.59240900  0.41613600  1
  Zn  Zn223  1  0.29482700  0.84978300  0.43159800  1
  Zn  Zn224  1  0.87481200  0.00143100  0.39757400  1
  Zn  Zn225  1  0.72694800  0.66110400  0.42460000  1
  Zn  Zn226  1  0.69758500  0.48557900  0.43034100  1
  Zn  Zn227  1  0.95759200  0.91847800  0.44006300  1
  Zn  Zn228  1  0.31452200  0.48131600  0.45391600  1
  Zn  Zn229  1  0.51088700  0.25544400  0.42809900  1
  Zn  Zn230  1  0.04804900  0.96498500  0.39408100  1
  Zn  Zn231  1  0.93430900  0.83336500  0.38698200  1
  Zn  Zn232  1  0.98452100  0.08620300  0.43448800  1
  Zn  Zn233  1  0.20187500  0.26862400  0.50720800  1
  Zn  Zn234  1  0.38814400  0.49358100  0.50734900  1
  Zn  Zn235  1  0.85543500  0.33377600  0.51261900  1
  Zn  Zn236  1  0.52543400  0.93866200  0.49319200  1
  Zn  Zn237  1  0.58046100  0.27771200  0.48259500  1
  Zn  Zn238  1  0.22616400  0.43387000  0.50014100  1
  Zn  Zn239  1  0.82906900  0.16453500  0.51900800  1
  Zn  Zn240  1  0.45626400  0.06044500  0.53080800  1
  Zn  Zn241  1  0.80866400  0.57975400  0.46669500  1
  Zn  Zn242  1  0.16716700  0.09617800  0.51048800  1
  Zn  Zn243  1  0.97372500  0.54590200  0.46211700  1
  Zn  Zn244  1  0.08746500  0.67752300  0.46921600  1
  Zn  Zn245  1  0.09012100  0.17998800  0.46995300  1
  Zn  Zn246  1  0.14237100  0.93439900  0.51676700  1
  Zn  Zn247  1  0.26999400  0.83548800  0.53066700  1
  Zn  Zn248  1  0.03129300  0.84022400  0.48041300  1
  Zn  Zn249  1  0.20410200  0.80756000  0.47564000  1
  Zn  Zn250  1  0.49097100  0.23289100  0.52752900  1
  Zn  Zn251  1  0.43197400  0.89519900  0.53787500  1
  Zn  Zn252  1  0.74983600  0.23999000  0.47715400  1
  Zn  Zn253  1  0.63585400  0.61241800  0.47146700  1
  Zn  Zn254  1  0.25949600  0.14226600  0.46451200  1
  Zn  Zn255  1  0.91997800  0.20998900  0.47355400  1
  Zn  Zn256  1  0.14696200  0.50945600  0.45862400  1
  Zn  Zn257  1  0.88236500  0.50150000  0.50704500  1
  Zn  Zn258  1  0.11300800  0.75887400  0.52250800  1
  Zn  Zn259  1  0.69299400  0.91052200  0.48848300  1
  Zn  Zn260  1  0.54513000  0.57019500  0.51550900  1
  Zn  Zn261  1  0.51576700  0.39467000  0.52125000  1
  Zn  Zn262  1  0.77577400  0.82756900  0.53097200  1
  Zn  Zn263  1  0.13270400  0.39040700  0.54482500  1
  Zn  Zn264  1  0.32906900  0.16453500  0.51900800  1
  Zn  Zn265  1  0.86623100  0.87407600  0.48499100  1
  Zn  Zn266  1  0.75249100  0.74245600  0.47789100  1
  Zn  Zn267  1  0.80270300  0.99529300  0.52539700  1
  Zn  Zn268  1  0.02005600  0.17771500  0.59811700  1
  Zn  Zn269  1  0.20632600  0.40267200  0.59825900  1
  Zn  Zn270  1  0.67361700  0.24286700  0.60352900  1
  Zn  Zn271  1  0.34361600  0.84775300  0.58410100  1
  Zn  Zn272  1  0.39864200  0.18680300  0.57350400  1
  Zn  Zn273  1  0.04434600  0.34296100  0.59105000  1
  Zn  Zn274  1  0.64725100  0.07362500  0.60991700  1
  Zn  Zn275  1  0.27444500  0.96953600  0.62171700  1
  Zn  Zn276  1  0.62684500  0.48884500  0.55760400  1
  Zn  Zn277  1  0.98534900  0.00526900  0.60139700  1
  Zn  Zn278  1  0.79190700  0.45499300  0.55302600  1
  Zn  Zn279  1  0.90564700  0.58661400  0.56012600  1
  Zn  Zn280  1  0.90830200  0.08907900  0.56086200  1
  Zn  Zn281  1  0.96055300  0.84349000  0.60767600  1
  Zn  Zn282  1  0.08817600  0.74457900  0.62157600  1
  Zn  Zn283  1  0.84947500  0.74931500  0.57132200  1
  Zn  Zn284  1  0.02228400  0.71665100  0.56654900  1
  Zn  Zn285  1  0.30915200  0.14198200  0.61843800  1
  Zn  Zn286  1  0.25015600  0.80429000  0.62878400  1
  Zn  Zn287  1  0.56801800  0.14908100  0.56806300  1
  Zn  Zn288  1  0.45403600  0.52150900  0.56237700  1
  Zn  Zn289  1  0.07767700  0.05135700  0.55542100  1
  Zn  Zn290  1  0.73816000  0.11908000  0.56446300  1
  Zn  Zn291  1  0.96514400  0.41854700  0.54953300  1
  Zn  Zn292  1  0.70054600  0.41059100  0.59795400  1
  Zn  Zn293  1  0.93119000  0.66796500  0.61341700  1
  Zn  Zn294  1  0.51117600  0.81961300  0.57939200  1
  Zn  Zn295  1  0.36331200  0.47928600  0.60641800  1
  Zn  Zn296  1  0.33394900  0.30376100  0.61215900  1
  Zn  Zn297  1  0.59395500  0.73666000  0.62188100  1
  Zn  Zn298  1  0.95088600  0.29949800  0.63573400  1
  Zn  Zn299  1  0.14725100  0.07362500  0.60991700  1
  Zn  Zn300  1  0.68441300  0.78316700  0.57590000  1
  Zn  Zn301  1  0.57067300  0.65154600  0.56880000  1
  Zn  Zn302  1  0.62088400  0.90438400  0.61630600  1
  Zn  Zn303  1  0.83823800  0.08680600  0.68902600  1
  Zn  Zn304  1  0.02450800  0.31176300  0.68916800  1
  Zn  Zn305  1  0.49179900  0.15195700  0.69443800  1
  Zn  Zn306  1  0.16179800  0.75684400  0.67501000  1
  Zn  Zn307  1  0.21682400  0.09589400  0.66441300  1
  Zn  Zn308  1  0.86252800  0.25205200  0.68195900  1
  Zn  Zn309  1  0.46543300  0.98271600  0.70082600  1
  Zn  Zn310  1  0.09262700  0.87862700  0.71262700  1
  Zn  Zn311  1  0.44502700  0.39793600  0.64851300  1
  Zn  Zn312  1  0.80353100  0.91435900  0.69230600  1
  Zn  Zn313  1  0.61008900  0.36408400  0.64393500  1
  Zn  Zn314  1  0.72382900  0.49570400  0.65103500  1
  Zn  Zn315  1  0.72648400  0.99817000  0.65177100  1
  Zn  Zn316  1  0.77873500  0.75258100  0.69858500  1
  Zn  Zn317  1  0.90635800  0.65367000  0.71248500  1
  Zn  Zn318  1  0.66765600  0.65840600  0.66223100  1
  Zn  Zn319  1  0.84046600  0.62574200  0.65745800  1
  Zn  Zn320  1  0.12733400  0.05107300  0.70934700  1
  Zn  Zn321  1  0.06833800  0.71338100  0.71969400  1
  Zn  Zn322  1  0.38619900  0.05817200  0.65897200  1
  Zn  Zn323  1  0.27221800  0.43060000  0.65328600  1
  Zn  Zn324  1  0.89585900  0.96044800  0.64633100  1
  Zn  Zn325  1  0.55634200  0.02817100  0.65537200  1
  Zn  Zn326  1  0.78332600  0.32763800  0.64044200  1
  Zn  Zn327  1  0.51872800  0.31968200  0.68886300  1
  Zn  Zn328  1  0.74937200  0.57705600  0.70432600  1
  Zn  Zn329  1  0.32935800  0.72870400  0.67030100  1
  Zn  Zn330  1  0.18149300  0.38837700  0.69732700  1
  Zn  Zn331  1  0.15213100  0.21285200  0.70306800  1
  Zn  Zn332  1  0.41213700  0.64575100  0.71279000  1
  Zn  Zn333  1  0.76906700  0.20858900  0.72664300  1
  Zn  Zn334  1  0.96543300  0.98271600  0.70082600  1
  Zn  Zn335  1  0.50259500  0.69225800  0.66680900  1
  Zn  Zn336  1  0.38885500  0.56063700  0.65970900  1
  Zn  Zn337  1  0.43906600  0.81347500  0.70721500  1
  Zn  Zn338  1  0.03500600  0.00498500  0.75532200  1
  Zn  Zn339  1  0.26320900  0.30702700  0.73942200  1
  Zn  Zn340  1  0.42827100  0.27317500  0.73484400  1
  Zn  Zn341  1  0.54201100  0.40479500  0.74194400  1
  Zn  Zn342  1  0.54466600  0.90726100  0.74268100  1
  Zn  Zn343  1  0.48583800  0.56749700  0.75314000  1
  Zn  Zn344  1  0.65864800  0.53483200  0.74836700  1
  Zn  Zn345  1  0.20438100  0.96726300  0.74988100  1
  Zn  Zn346  1  0.09040000  0.33969100  0.74419500  1
  Zn  Zn347  1  0.71404100  0.86953900  0.73724000  1
  Zn  Zn348  1  0.37452400  0.93726200  0.74628100  1
  Zn  Zn349  1  0.60150800  0.23672900  0.73135200  1
  Zn  Zn350  1  0.14754000  0.63779500  0.76121000  1
  Zn  Zn351  1  0.32077700  0.60134900  0.75771800  1
  Zn  Zn352  1  0.20703700  0.46972800  0.75061800  1
