# generated using pymatgen
data_Sr20Mg187
_symmetry_space_group_name_H-M   'P 1'
_cell_length_a   14.66206661
_cell_length_b   14.66206704
_cell_length_c   46.99963900
_cell_angle_alpha   88.35894800
_cell_angle_beta   91.64105205
_cell_angle_gamma   102.44927812
_symmetry_Int_Tables_number   1
_chemical_formula_structural   Sr20Mg187
_chemical_formula_sum   'Sr20 Mg187'
_cell_volume   9859.57673261
_cell_formula_units_Z   1
loop_
 _symmetry_equiv_pos_site_id
 _symmetry_equiv_pos_as_xyz
  1  'x, y, z'
loop_
 _atom_site_type_symbol
 _atom_site_label
 _atom_site_symmetry_multiplicity
 _atom_site_fract_x
 _atom_site_fract_y
 _atom_site_fract_z
 _atom_site_occupancy
  Sr  Sr0  1  0.28615200  0.04718100  0.35263200  1
  Sr  Sr1  1  0.75281900  0.91384800  0.30263200  1
  Sr  Sr2  1  0.41948600  0.58051400  0.30263200  1
  Sr  Sr3  1  0.61948600  0.38051400  0.35263200  1
  Sr  Sr4  1  0.68615200  0.64718100  0.45263200  1
  Sr  Sr5  1  0.15281900  0.51384800  0.40263200  1
  Sr  Sr6  1  0.81948600  0.18051400  0.40263200  1
  Sr  Sr7  1  0.01948600  0.98051400  0.45263200  1
  Sr  Sr8  1  0.08615200  0.24718100  0.55263200  1
  Sr  Sr9  1  0.55281900  0.11384800  0.50263200  1
  Sr  Sr10  1  0.21948600  0.78051400  0.50263200  1
  Sr  Sr11  1  0.41948600  0.58051400  0.55263200  1
  Sr  Sr12  1  0.48615200  0.84718100  0.65263200  1
  Sr  Sr13  1  0.95281900  0.71384800  0.60263200  1
  Sr  Sr14  1  0.61948600  0.38051400  0.60263200  1
  Sr  Sr15  1  0.81948600  0.18051400  0.65263200  1
  Sr  Sr16  1  0.88615200  0.44718100  0.75263200  1
  Sr  Sr17  1  0.35281900  0.31384800  0.70263200  1
  Sr  Sr18  1  0.01948600  0.98051400  0.70263200  1
  Sr  Sr19  1  0.21948600  0.78051400  0.75263200  1
  Mg  Mg20  1  0.49276100  0.83654500  0.27978700  1
  Mg  Mg21  1  0.16103900  0.00361500  0.27918300  1
  Mg  Mg22  1  0.02539300  0.30794000  0.28744200  1
  Mg  Mg23  1  0.61357800  0.05308900  0.26782100  1
  Mg  Mg24  1  0.31948600  0.18051400  0.27763200  1
  Mg  Mg25  1  0.81948600  0.18051400  0.27763200  1
  Mg  Mg26  1  0.81948600  0.68051400  0.27763200  1
  Mg  Mg27  1  0.26586400  0.36859900  0.27348500  1
  Mg  Mg28  1  0.62399400  0.70450800  0.26237400  1
  Mg  Mg29  1  0.96859900  0.06843600  0.27203600  1
  Mg  Mg30  1  0.67037200  0.29259300  0.28322800  1
  Mg  Mg31  1  0.37310700  0.99243000  0.28177800  1
  Mg  Mg32  1  0.01497700  0.65652000  0.29288900  1
  Mg  Mg33  1  0.47793300  0.35741400  0.27608000  1
  Mg  Mg34  1  0.14621000  0.52448300  0.27547600  1
  Mg  Mg35  1  0.97914100  0.85620600  0.27487200  1
  Mg  Mg36  1  0.65983100  0.50482300  0.28039100  1
  Mg  Mg37  1  0.19638500  0.63896100  0.32918300  1
  Mg  Mg38  1  0.89276100  0.43654500  0.37978700  1
  Mg  Mg39  1  0.69517700  0.14016900  0.33039100  1
  Mg  Mg40  1  0.56103900  0.60361500  0.37918300  1
  Mg  Mg41  1  0.89206000  0.77460700  0.33744200  1
  Mg  Mg42  1  0.42539300  0.90794000  0.38744200  1
  Mg  Mg43  1  0.14691100  0.18642200  0.31782100  1
  Mg  Mg44  1  0.01357800  0.65308900  0.36782100  1
  Mg  Mg45  1  0.71948600  0.78051400  0.37763200  1
  Mg  Mg46  1  0.01948600  0.48051400  0.32763200  1
  Mg  Mg47  1  0.21948600  0.78051400  0.37763200  1
  Mg  Mg48  1  0.01948600  0.98051400  0.32763200  1
  Mg  Mg49  1  0.21948600  0.28051400  0.37763200  1
  Mg  Mg50  1  0.51948600  0.98051400  0.32763200  1
  Mg  Mg51  1  0.49549200  0.17600600  0.31237400  1
  Mg  Mg52  1  0.20757000  0.42689300  0.33177800  1
  Mg  Mg53  1  0.90740700  0.12962800  0.33322800  1
  Mg  Mg54  1  0.13156400  0.83140100  0.32203600  1
  Mg  Mg55  1  0.83140100  0.53413600  0.32348500  1
  Mg  Mg56  1  0.66586400  0.96859900  0.37348500  1
  Mg  Mg57  1  0.02399400  0.30450800  0.36237400  1
  Mg  Mg58  1  0.54348000  0.78502300  0.34288900  1
  Mg  Mg59  1  0.36859900  0.66843600  0.37203600  1
  Mg  Mg60  1  0.07037200  0.89259300  0.38322800  1
  Mg  Mg61  1  0.77310700  0.59243000  0.38177800  1
  Mg  Mg62  1  0.41497700  0.25652000  0.39288900  1
  Mg  Mg63  1  0.87793300  0.95741400  0.37608000  1
  Mg  Mg64  1  0.54621000  0.12448300  0.37547600  1
  Mg  Mg65  1  0.84258600  0.32206700  0.32608000  1
  Mg  Mg66  1  0.37914100  0.45620600  0.37487200  1
  Mg  Mg67  1  0.67551700  0.65379000  0.32547600  1
  Mg  Mg68  1  0.36345500  0.30723900  0.32978700  1
  Mg  Mg69  1  0.05983100  0.10482300  0.38039100  1
  Mg  Mg70  1  0.34379400  0.82085900  0.32487200  1
  Mg  Mg71  1  0.59638500  0.23896100  0.42918300  1
  Mg  Mg72  1  0.29276100  0.03654500  0.47978700  1
  Mg  Mg73  1  0.09517700  0.74016900  0.43039100  1
  Mg  Mg74  1  0.96103900  0.20361500  0.47918300  1
  Mg  Mg75  1  0.29206000  0.37460700  0.43744200  1
  Mg  Mg76  1  0.82539300  0.50794000  0.48744200  1
  Mg  Mg77  1  0.54691100  0.78642200  0.41782100  1
  Mg  Mg78  1  0.41357800  0.25308900  0.46782100  1
  Mg  Mg79  1  0.11948600  0.38051400  0.47763200  1
  Mg  Mg80  1  0.41948600  0.08051400  0.42763200  1
  Mg  Mg81  1  0.61948600  0.38051400  0.47763200  1
  Mg  Mg82  1  0.41948600  0.58051400  0.42763200  1
  Mg  Mg83  1  0.61948600  0.88051400  0.47763200  1
  Mg  Mg84  1  0.91948600  0.58051400  0.42763200  1
  Mg  Mg85  1  0.89549200  0.77600600  0.41237400  1
  Mg  Mg86  1  0.60757000  0.02689300  0.43177800  1
  Mg  Mg87  1  0.30740700  0.72962800  0.43322800  1
  Mg  Mg88  1  0.53156400  0.43140100  0.42203600  1
  Mg  Mg89  1  0.23140100  0.13413600  0.42348500  1
  Mg  Mg90  1  0.06586400  0.56859900  0.47348500  1
  Mg  Mg91  1  0.42399400  0.90450800  0.46237400  1
  Mg  Mg92  1  0.94348000  0.38502300  0.44288900  1
  Mg  Mg93  1  0.76859900  0.26843600  0.47203600  1
  Mg  Mg94  1  0.47037200  0.49259300  0.48322800  1
  Mg  Mg95  1  0.17310700  0.19243000  0.48177800  1
  Mg  Mg96  1  0.81497700  0.85652000  0.49288900  1
  Mg  Mg97  1  0.27793300  0.55741400  0.47608000  1
  Mg  Mg98  1  0.94621000  0.72448300  0.47547600  1
  Mg  Mg99  1  0.24258600  0.92206700  0.42608000  1
  Mg  Mg100  1  0.77914100  0.05620600  0.47487200  1
  Mg  Mg101  1  0.07551700  0.25379000  0.42547600  1
  Mg  Mg102  1  0.76345500  0.90723900  0.42978700  1
  Mg  Mg103  1  0.45983100  0.70482300  0.48039100  1
  Mg  Mg104  1  0.74379400  0.42085900  0.42487200  1
  Mg  Mg105  1  0.99638500  0.83896100  0.52918300  1
  Mg  Mg106  1  0.69276100  0.63654500  0.57978700  1
  Mg  Mg107  1  0.49517700  0.34016900  0.53039100  1
  Mg  Mg108  1  0.36103900  0.80361500  0.57918300  1
  Mg  Mg109  1  0.69206000  0.97460700  0.53744200  1
  Mg  Mg110  1  0.22539300  0.10794000  0.58744200  1
  Mg  Mg111  1  0.94691100  0.38642200  0.51782100  1
  Mg  Mg112  1  0.81357800  0.85308900  0.56782100  1
  Mg  Mg113  1  0.51948600  0.98051400  0.57763200  1
  Mg  Mg114  1  0.81948600  0.68051400  0.52763200  1
  Mg  Mg115  1  0.01948600  0.98051400  0.57763200  1
  Mg  Mg116  1  0.81948600  0.18051400  0.52763200  1
  Mg  Mg117  1  0.01948600  0.48051400  0.57763200  1
  Mg  Mg118  1  0.31948600  0.18051400  0.52763200  1
  Mg  Mg119  1  0.29549200  0.37600600  0.51237400  1
  Mg  Mg120  1  0.00757000  0.62689300  0.53177800  1
  Mg  Mg121  1  0.70740700  0.32962800  0.53322800  1
  Mg  Mg122  1  0.93156400  0.03140100  0.52203600  1
  Mg  Mg123  1  0.63140100  0.73413600  0.52348500  1
  Mg  Mg124  1  0.46586400  0.16859900  0.57348500  1
  Mg  Mg125  1  0.82399400  0.50450800  0.56237400  1
  Mg  Mg126  1  0.34348000  0.98502300  0.54288900  1
  Mg  Mg127  1  0.16859900  0.86843600  0.57203600  1
  Mg  Mg128  1  0.87037200  0.09259300  0.58322800  1
  Mg  Mg129  1  0.57310700  0.79243000  0.58177800  1
  Mg  Mg130  1  0.21497700  0.45652000  0.59288900  1
  Mg  Mg131  1  0.67793300  0.15741400  0.57608000  1
  Mg  Mg132  1  0.34621000  0.32448300  0.57547600  1
  Mg  Mg133  1  0.64258600  0.52206700  0.52608000  1
  Mg  Mg134  1  0.17914100  0.65620600  0.57487200  1
  Mg  Mg135  1  0.47551700  0.85379000  0.52547600  1
  Mg  Mg136  1  0.16345500  0.50723900  0.52978700  1
  Mg  Mg137  1  0.85983100  0.30482300  0.58039100  1
  Mg  Mg138  1  0.14379400  0.02085900  0.52487200  1
  Mg  Mg139  1  0.39638500  0.43896100  0.62918300  1
  Mg  Mg140  1  0.09276100  0.23654500  0.67978700  1
  Mg  Mg141  1  0.89517700  0.94016900  0.63039100  1
  Mg  Mg142  1  0.76103900  0.40361500  0.67918300  1
  Mg  Mg143  1  0.09206000  0.57460700  0.63744200  1
  Mg  Mg144  1  0.62539300  0.70794000  0.68744200  1
  Mg  Mg145  1  0.34691100  0.98642200  0.61782100  1
  Mg  Mg146  1  0.21357800  0.45308900  0.66782100  1
  Mg  Mg147  1  0.91948600  0.58051400  0.67763200  1
  Mg  Mg148  1  0.21948600  0.28051400  0.62763200  1
  Mg  Mg149  1  0.41948600  0.58051400  0.67763200  1
  Mg  Mg150  1  0.21948600  0.78051400  0.62763200  1
  Mg  Mg151  1  0.41948600  0.08051400  0.67763200  1
  Mg  Mg152  1  0.71948600  0.78051400  0.62763200  1
  Mg  Mg153  1  0.69549200  0.97600600  0.61237400  1
  Mg  Mg154  1  0.40757000  0.22689300  0.63177800  1
  Mg  Mg155  1  0.10740700  0.92962800  0.63322800  1
  Mg  Mg156  1  0.33156400  0.63140100  0.62203600  1
  Mg  Mg157  1  0.03140100  0.33413600  0.62348500  1
  Mg  Mg158  1  0.86586400  0.76859900  0.67348500  1
  Mg  Mg159  1  0.22399400  0.10450800  0.66237400  1
  Mg  Mg160  1  0.74348000  0.58502300  0.64288900  1
  Mg  Mg161  1  0.56859900  0.46843600  0.67203600  1
  Mg  Mg162  1  0.27037200  0.69259300  0.68322800  1
  Mg  Mg163  1  0.97310700  0.39243000  0.68177800  1
  Mg  Mg164  1  0.61497700  0.05652000  0.69288900  1
  Mg  Mg165  1  0.07793300  0.75741400  0.67608000  1
  Mg  Mg166  1  0.74621000  0.92448300  0.67547600  1
  Mg  Mg167  1  0.04258600  0.12206700  0.62608000  1
  Mg  Mg168  1  0.57914100  0.25620600  0.67487200  1
  Mg  Mg169  1  0.87551700  0.45379000  0.62547600  1
  Mg  Mg170  1  0.56345500  0.10723900  0.62978700  1
  Mg  Mg171  1  0.25983100  0.90482300  0.68039100  1
  Mg  Mg172  1  0.54379400  0.62085900  0.62487200  1
  Mg  Mg173  1  0.79638500  0.03896100  0.72918300  1
  Mg  Mg174  1  0.49276100  0.83654500  0.77978700  1
  Mg  Mg175  1  0.29517700  0.54016900  0.73039100  1
  Mg  Mg176  1  0.16103900  0.00361500  0.77918300  1
  Mg  Mg177  1  0.49206000  0.17460700  0.73744200  1
  Mg  Mg178  1  0.02539300  0.30794000  0.78744200  1
  Mg  Mg179  1  0.74691100  0.58642200  0.71782100  1
  Mg  Mg180  1  0.61357800  0.05308900  0.76782100  1
  Mg  Mg181  1  0.31948600  0.18051400  0.77763200  1
  Mg  Mg182  1  0.61948600  0.88051400  0.72763200  1
  Mg  Mg183  1  0.81948600  0.18051400  0.77763200  1
  Mg  Mg184  1  0.61948600  0.38051400  0.72763200  1
  Mg  Mg185  1  0.81948600  0.68051400  0.77763200  1
  Mg  Mg186  1  0.11948600  0.38051400  0.72763200  1
  Mg  Mg187  1  0.09549200  0.57600600  0.71237400  1
  Mg  Mg188  1  0.80757000  0.82689300  0.73177800  1
  Mg  Mg189  1  0.50740700  0.52962800  0.73322800  1
  Mg  Mg190  1  0.73156400  0.23140100  0.72203600  1
  Mg  Mg191  1  0.43140100  0.93413600  0.72348500  1
  Mg  Mg192  1  0.26586400  0.36859900  0.77348500  1
  Mg  Mg193  1  0.62399400  0.70450800  0.76237400  1
  Mg  Mg194  1  0.14348000  0.18502300  0.74288900  1
  Mg  Mg195  1  0.96859900  0.06843600  0.77203600  1
  Mg  Mg196  1  0.67037200  0.29259300  0.78322800  1
  Mg  Mg197  1  0.37310700  0.99243000  0.78177800  1
  Mg  Mg198  1  0.01497700  0.65652000  0.79288900  1
  Mg  Mg199  1  0.47793300  0.35741400  0.77608000  1
  Mg  Mg200  1  0.14621000  0.52448300  0.77547600  1
  Mg  Mg201  1  0.44258600  0.72206700  0.72608000  1
  Mg  Mg202  1  0.97914100  0.85620600  0.77487200  1
  Mg  Mg203  1  0.27551700  0.05379000  0.72547600  1
  Mg  Mg204  1  0.96345500  0.70723900  0.72978700  1
  Mg  Mg205  1  0.65983100  0.50482300  0.78039100  1
  Mg  Mg206  1  0.94379400  0.22085900  0.72487200  1
