# generated using pymatgen
data_MgAg3
_symmetry_space_group_name_H-M   'P 1'
_cell_length_a   5.90771900
_cell_length_b   7.61306272
_cell_length_c   45.52089700
_cell_angle_alpha   89.28114441
_cell_angle_beta   90.00000000
_cell_angle_gamma   67.16995739
_symmetry_Int_Tables_number   1
_chemical_formula_structural   MgAg3
_chemical_formula_sum   'Mg16 Ag48'
_cell_volume   1886.77654712
_cell_formula_units_Z   16
loop_
 _symmetry_equiv_pos_site_id
 _symmetry_equiv_pos_as_xyz
  1  'x, y, z'
loop_
 _atom_site_type_symbol
 _atom_site_label
 _atom_site_symmetry_multiplicity
 _atom_site_fract_x
 _atom_site_fract_y
 _atom_site_fract_z
 _atom_site_occupancy
  Mg  Mg0  1  0.53205100  0.93589700  0.23717900  1
  Mg  Mg1  1  0.23717900  0.52564100  0.22435900  1
  Mg  Mg2  1  0.30128200  0.39743600  0.31410300  1
  Mg  Mg3  1  0.00641000  0.98717900  0.30128200  1
  Mg  Mg4  1  0.07051300  0.85897400  0.39102600  1
  Mg  Mg5  1  0.77564100  0.44871800  0.37820500  1
  Mg  Mg6  1  0.83974400  0.32051300  0.46794900  1
  Mg  Mg7  1  0.54487200  0.91025600  0.45512800  1
  Mg  Mg8  1  0.60897400  0.78205100  0.54487200  1
  Mg  Mg9  1  0.31410300  0.37179500  0.53205100  1
  Mg  Mg10  1  0.37820500  0.24359000  0.62179500  1
  Mg  Mg11  1  0.08333300  0.83333300  0.60897400  1
  Mg  Mg12  1  0.14743600  0.70512800  0.69871800  1
  Mg  Mg13  1  0.85256400  0.29487200  0.68589700  1
  Mg  Mg14  1  0.91666700  0.16666700  0.77564100  1
  Mg  Mg15  1  0.62179500  0.75641000  0.76282100  1
  Ag  Ag16  1  0.03203600  0.93592700  0.23717500  1
  Ag  Ag17  1  0.14740200  0.20511300  0.19872000  1
  Ag  Ag18  1  0.64748500  0.20511300  0.19872000  1
  Ag  Ag19  1  0.12174600  0.25642500  0.26281800  1
  Ag  Ag20  1  0.62182900  0.25642500  0.26281800  1
  Ag  Ag21  1  0.73719400  0.52561100  0.22436300  1
  Ag  Ag22  1  0.80126700  0.39746600  0.31409800  1
  Ag  Ag23  1  0.91663300  0.66665200  0.27564300  1
  Ag  Ag24  1  0.41671500  0.66665200  0.27564300  1
  Ag  Ag25  1  0.89097700  0.71796400  0.33974100  1
  Ag  Ag26  1  0.39106000  0.71796400  0.33974100  1
  Ag  Ag27  1  0.50642500  0.98715000  0.30128600  1
  Ag  Ag28  1  0.57049800  0.85900400  0.39102100  1
  Ag  Ag29  1  0.68586400  0.12819000  0.35256600  1
  Ag  Ag30  1  0.18594600  0.12819000  0.35256600  1
  Ag  Ag31  1  0.66020800  0.17950200  0.41666500  1
  Ag  Ag32  1  0.16029000  0.17950200  0.41666500  1
  Ag  Ag33  1  0.27565600  0.44868800  0.37820900  1
  Ag  Ag34  1  0.33972900  0.32054300  0.46794400  1
  Ag  Ag35  1  0.45509400  0.58972900  0.42948900  1
  Ag  Ag36  1  0.95517700  0.58972900  0.42948900  1
  Ag  Ag37  1  0.42943800  0.64104000  0.49358800  1
  Ag  Ag38  1  0.92952100  0.64104000  0.49358800  1
  Ag  Ag39  1  0.04488700  0.91022700  0.45513200  1
  Ag  Ag40  1  0.10896000  0.78208100  0.54486800  1
  Ag  Ag41  1  0.22432500  0.05126700  0.50641200  1
  Ag  Ag42  1  0.72440800  0.05126700  0.50641200  1
  Ag  Ag43  1  0.19866900  0.10257900  0.57051100  1
  Ag  Ag44  1  0.69875200  0.10257900  0.57051100  1
  Ag  Ag45  1  0.81411700  0.37176500  0.53205600  1
  Ag  Ag46  1  0.87819000  0.24361900  0.62179100  1
  Ag  Ag47  1  0.99355600  0.51280600  0.58333500  1
  Ag  Ag48  1  0.49363900  0.51280600  0.58333500  1
  Ag  Ag49  1  0.96790000  0.56411700  0.64743400  1
  Ag  Ag50  1  0.46798300  0.56411700  0.64743400  1
  Ag  Ag51  1  0.58334800  0.83330400  0.60897900  1
  Ag  Ag52  1  0.64742100  0.70515800  0.69871400  1
  Ag  Ag53  1  0.76278700  0.97434400  0.66025900  1
  Ag  Ag54  1  0.26286900  0.97434400  0.66025900  1
  Ag  Ag55  1  0.73713100  0.02565600  0.72435700  1
  Ag  Ag56  1  0.23721300  0.02565600  0.72435700  1
  Ag  Ag57  1  0.35257900  0.29484200  0.68590200  1
  Ag  Ag58  1  0.41665200  0.16669600  0.77563700  1
  Ag  Ag59  1  0.53201700  0.43588300  0.73718200  1
  Ag  Ag60  1  0.03210000  0.43588300  0.73718200  1
  Ag  Ag61  1  0.50636100  0.48719400  0.80128000  1
  Ag  Ag62  1  0.00644400  0.48719400  0.80128000  1
  Ag  Ag63  1  0.12181000  0.75638100  0.76282500  1
