# generated using pymatgen
data_La2Mg27
_symmetry_space_group_name_H-M   'P 1'
_cell_length_a   7.89430435
_cell_length_b   7.89430387
_cell_length_c   41.19217000
_cell_angle_alpha   89.77228393
_cell_angle_beta   89.77228395
_cell_angle_gamma   81.87253169
_symmetry_Int_Tables_number   1
_chemical_formula_structural   La2Mg27
_chemical_formula_sum   'La4 Mg54'
_cell_volume   2541.27845959
_cell_formula_units_Z   2
loop_
 _symmetry_equiv_pos_site_id
 _symmetry_equiv_pos_as_xyz
  1  'x, y, z'
loop_
 _atom_site_type_symbol
 _atom_site_label
 _atom_site_symmetry_multiplicity
 _atom_site_fract_x
 _atom_site_fract_y
 _atom_site_fract_z
 _atom_site_occupancy
  La  La0  1  0.17013700  0.17013700  0.72115400  1
  La  La1  1  0.42013700  0.42013700  0.59615400  1
  La  La2  1  0.67013700  0.67013700  0.47115400  1
  La  La3  1  0.92013700  0.92013700  0.34615400  1
  Mg  Mg4  1  0.54513700  0.04513700  0.78365400  1
  Mg  Mg5  1  0.67013700  0.17013700  0.72115400  1
  Mg  Mg6  1  0.17013700  0.67013700  0.72115400  1
  Mg  Mg7  1  0.04513700  0.54513700  0.78365400  1
  Mg  Mg8  1  0.81722800  0.52304500  0.72115400  1
  Mg  Mg9  1  0.52304500  0.81722800  0.72115400  1
  Mg  Mg10  1  0.43481800  0.43481800  0.76526700  1
  Mg  Mg11  1  0.65545600  0.65545600  0.80204000  1
  Mg  Mg12  1  0.25913800  0.83113600  0.78365400  1
  Mg  Mg13  1  0.83113600  0.25913800  0.78365400  1
  Mg  Mg14  1  0.88463600  0.88463600  0.75690400  1
  Mg  Mg15  1  0.45563700  0.45563700  0.68540400  1
  Mg  Mg16  1  0.79513700  0.29513700  0.65865400  1
  Mg  Mg17  1  0.92013700  0.42013700  0.59615400  1
  Mg  Mg18  1  0.42013700  0.92013700  0.59615400  1
  Mg  Mg19  1  0.29513700  0.79513700  0.65865400  1
  Mg  Mg20  1  0.06722800  0.77304500  0.59615400  1
  Mg  Mg21  1  0.77304500  0.06722800  0.59615400  1
  Mg  Mg22  1  0.68481800  0.68481800  0.64026700  1
  Mg  Mg23  1  0.90545600  0.90545600  0.67704000  1
  Mg  Mg24  1  0.50913800  0.08113600  0.65865400  1
  Mg  Mg25  1  0.08113600  0.50913800  0.65865400  1
  Mg  Mg26  1  0.13463600  0.13463600  0.63190400  1
  Mg  Mg27  1  0.70563700  0.70563700  0.56040400  1
  Mg  Mg28  1  0.04513700  0.54513700  0.53365400  1
  Mg  Mg29  1  0.17013700  0.67013700  0.47115400  1
  Mg  Mg30  1  0.67013700  0.17013700  0.47115400  1
  Mg  Mg31  1  0.54513700  0.04513700  0.53365400  1
  Mg  Mg32  1  0.31722800  0.02304500  0.47115400  1
  Mg  Mg33  1  0.02304500  0.31722800  0.47115400  1
  Mg  Mg34  1  0.93481800  0.93481800  0.51526700  1
  Mg  Mg35  1  0.15545600  0.15545600  0.55204000  1
  Mg  Mg36  1  0.75913800  0.33113600  0.53365400  1
  Mg  Mg37  1  0.33113600  0.75913800  0.53365400  1
  Mg  Mg38  1  0.38463600  0.38463600  0.50690400  1
  Mg  Mg39  1  0.95563700  0.95563700  0.43540400  1
  Mg  Mg40  1  0.29513700  0.79513700  0.40865400  1
  Mg  Mg41  1  0.42013700  0.92013700  0.34615400  1
  Mg  Mg42  1  0.92013700  0.42013700  0.34615400  1
  Mg  Mg43  1  0.79513700  0.29513700  0.40865400  1
  Mg  Mg44  1  0.56722800  0.27304500  0.34615400  1
  Mg  Mg45  1  0.27304500  0.56722800  0.34615400  1
  Mg  Mg46  1  0.18481800  0.18481800  0.39026700  1
  Mg  Mg47  1  0.40545600  0.40545600  0.42704000  1
  Mg  Mg48  1  0.00913800  0.58113600  0.40865400  1
  Mg  Mg49  1  0.58113600  0.00913800  0.40865400  1
  Mg  Mg50  1  0.63463600  0.63463600  0.38190400  1
  Mg  Mg51  1  0.20563700  0.20563700  0.31040400  1
  Mg  Mg52  1  0.54513700  0.04513700  0.28365400  1
  Mg  Mg53  1  0.04513700  0.54513700  0.28365400  1
  Mg  Mg54  1  0.43481800  0.43481800  0.26526700  1
  Mg  Mg55  1  0.65545600  0.65545600  0.30204000  1
  Mg  Mg56  1  0.25913800  0.83113600  0.28365400  1
  Mg  Mg57  1  0.83113600  0.25913800  0.28365400  1
