# generated using pymatgen
data_Mg5Zn28
_symmetry_space_group_name_H-M   'P 1'
_cell_length_a   9.87228468
_cell_length_b   10.01271756
_cell_length_c   44.05125300
_cell_angle_alpha   91.09811949
_cell_angle_beta   91.84980966
_cell_angle_gamma   115.42228829
_symmetry_Int_Tables_number   1
_chemical_formula_structural   Mg5Zn28
_chemical_formula_sum   'Mg20 Zn112'
_cell_volume   3928.07219552
_cell_formula_units_Z   4
loop_
 _symmetry_equiv_pos_site_id
 _symmetry_equiv_pos_as_xyz
  1  'x, y, z'
loop_
 _atom_site_type_symbol
 _atom_site_label
 _atom_site_symmetry_multiplicity
 _atom_site_fract_x
 _atom_site_fract_y
 _atom_site_fract_z
 _atom_site_occupancy
  Mg  Mg0  1  0.34494800  0.90542200  0.65959600  1
  Mg  Mg1  1  0.15188300  0.59140900  0.69040400  1
  Mg  Mg2  1  0.14337600  0.08603200  0.65828600  1
  Mg  Mg3  1  0.35345600  0.41079900  0.69171400  1
  Mg  Mg4  1  0.54494800  0.10542200  0.55959600  1
  Mg  Mg5  1  0.35188300  0.79140900  0.59040400  1
  Mg  Mg6  1  0.34337600  0.28603200  0.55828600  1
  Mg  Mg7  1  0.55345600  0.61079900  0.59171400  1
  Mg  Mg8  1  0.74494800  0.30542200  0.45959600  1
  Mg  Mg9  1  0.55188300  0.99140900  0.49040400  1
  Mg  Mg10  1  0.54337600  0.48603200  0.45828600  1
  Mg  Mg11  1  0.75345600  0.81079900  0.49171400  1
  Mg  Mg12  1  0.94494800  0.50542200  0.35959600  1
  Mg  Mg13  1  0.75188300  0.19140900  0.39040400  1
  Mg  Mg14  1  0.74337600  0.68603200  0.35828600  1
  Mg  Mg15  1  0.95345600  0.01079900  0.39171400  1
  Mg  Mg16  1  0.14494800  0.70542200  0.25959600  1
  Mg  Mg17  1  0.95188300  0.39140900  0.29040400  1
  Mg  Mg18  1  0.94337600  0.88603200  0.25828600  1
  Mg  Mg19  1  0.15345600  0.21079900  0.29171400  1
  Zn  Zn20  1  0.64841600  0.64841600  0.72500000  1
  Zn  Zn21  1  0.14667900  0.40112200  0.74068600  1
  Zn  Zn22  1  0.15015200  0.89571000  0.70931400  1
  Zn  Zn23  1  0.90374700  0.65606500  0.70982900  1
  Zn  Zn24  1  0.40934300  0.90473600  0.72607800  1
  Zn  Zn25  1  0.39308400  0.64076600  0.74017100  1
  Zn  Zn26  1  0.88687600  0.14326800  0.73991300  1
  Zn  Zn27  1  0.40995500  0.15356300  0.71008700  1
  Zn  Zn28  1  0.14841600  0.14841600  0.72500000  1
  Zn  Zn29  1  0.64028300  0.40106600  0.70903200  1
  Zn  Zn30  1  0.65654800  0.89576600  0.74096800  1
  Zn  Zn31  1  0.88748800  0.39209500  0.72392200  1
  Zn  Zn32  1  0.84841600  0.84841600  0.62500000  1
  Zn  Zn33  1  0.83806900  0.90457700  0.69036300  1
  Zn  Zn34  1  0.66389200  0.08364800  0.69066900  1
  Zn  Zn35  1  0.34667900  0.60112200  0.64068600  1
  Zn  Zn36  1  0.35015200  0.09571000  0.60931400  1
  Zn  Zn37  1  0.50889500  0.25250300  0.66061700  1
  Zn  Zn38  1  0.10374700  0.85606500  0.60982900  1
  Zn  Zn39  1  0.65876200  0.59225500  0.65963700  1
  Zn  Zn40  1  0.60934300  0.10473600  0.62607800  1
  Zn  Zn41  1  0.49422600  0.74190800  0.68959900  1
  Zn  Zn42  1  0.00260500  0.75492300  0.66040100  1
  Zn  Zn43  1  0.59308400  0.84076600  0.64017100  1
  Zn  Zn44  1  0.08687600  0.34326800  0.63991300  1
  Zn  Zn45  1  0.83293900  0.41318300  0.65933100  1
  Zn  Zn46  1  0.60995500  0.35356300  0.61008700  1
  Zn  Zn47  1  0.98793700  0.24432800  0.68938300  1
  Zn  Zn48  1  0.34841600  0.34841600  0.62500000  1
  Zn  Zn49  1  0.84028300  0.60106600  0.60903200  1
  Zn  Zn50  1  0.85654800  0.09576600  0.64096800  1
  Zn  Zn51  1  0.08748800  0.59209500  0.62392200  1
  Zn  Zn52  1  0.04841600  0.04841600  0.52500000  1
  Zn  Zn53  1  0.03806900  0.10457700  0.59036300  1
  Zn  Zn54  1  0.86389200  0.28364800  0.59066900  1
  Zn  Zn55  1  0.54667900  0.80112200  0.54068600  1
  Zn  Zn56  1  0.55015200  0.29571000  0.50931400  1
  Zn  Zn57  1  0.70889500  0.45250300  0.56061700  1
  Zn  Zn58  1  0.30374700  0.05606500  0.50982900  1
  Zn  Zn59  1  0.85876200  0.79225500  0.55963700  1
  Zn  Zn60  1  0.80934300  0.30473600  0.52607800  1
  Zn  Zn61  1  0.69422600  0.94190800  0.58959900  1
  Zn  Zn62  1  0.20260500  0.95492300  0.56040100  1
  Zn  Zn63  1  0.79308400  0.04076600  0.54017100  1
  Zn  Zn64  1  0.28687600  0.54326800  0.53991300  1
  Zn  Zn65  1  0.03293900  0.61318300  0.55933100  1
  Zn  Zn66  1  0.80995500  0.55356300  0.51008700  1
  Zn  Zn67  1  0.18793700  0.44432800  0.58938300  1
  Zn  Zn68  1  0.54841600  0.54841600  0.52500000  1
  Zn  Zn69  1  0.04028300  0.80106600  0.50903200  1
  Zn  Zn70  1  0.05654800  0.29576600  0.54096800  1
  Zn  Zn71  1  0.28748800  0.79209500  0.52392200  1
  Zn  Zn72  1  0.24841600  0.24841600  0.42500000  1
  Zn  Zn73  1  0.23806900  0.30457700  0.49036300  1
  Zn  Zn74  1  0.06389200  0.48364800  0.49066900  1
  Zn  Zn75  1  0.74667900  0.00112200  0.44068600  1
  Zn  Zn76  1  0.75015200  0.49571000  0.40931400  1
  Zn  Zn77  1  0.90889500  0.65250300  0.46061700  1
  Zn  Zn78  1  0.50374700  0.25606500  0.40982900  1
  Zn  Zn79  1  0.05876200  0.99225500  0.45963700  1
  Zn  Zn80  1  0.00934300  0.50473600  0.42607800  1
  Zn  Zn81  1  0.89422600  0.14190800  0.48959900  1
  Zn  Zn82  1  0.40260500  0.15492300  0.46040100  1
  Zn  Zn83  1  0.99308400  0.24076600  0.44017100  1
  Zn  Zn84  1  0.48687600  0.74326800  0.43991300  1
  Zn  Zn85  1  0.23293900  0.81318300  0.45933100  1
  Zn  Zn86  1  0.00995500  0.75356300  0.41008700  1
  Zn  Zn87  1  0.38793700  0.64432800  0.48938300  1
  Zn  Zn88  1  0.74841600  0.74841600  0.42500000  1
  Zn  Zn89  1  0.24028300  0.00106600  0.40903200  1
  Zn  Zn90  1  0.25654800  0.49576600  0.44096800  1
  Zn  Zn91  1  0.48748800  0.99209500  0.42392200  1
  Zn  Zn92  1  0.44841600  0.44841600  0.32500000  1
  Zn  Zn93  1  0.43806900  0.50457700  0.39036300  1
  Zn  Zn94  1  0.26389200  0.68364800  0.39066900  1
  Zn  Zn95  1  0.94667900  0.20112200  0.34068600  1
  Zn  Zn96  1  0.95015200  0.69571000  0.30931400  1
  Zn  Zn97  1  0.10889500  0.85250300  0.36061700  1
  Zn  Zn98  1  0.70374700  0.45606500  0.30982900  1
  Zn  Zn99  1  0.25876200  0.19225500  0.35963700  1
  Zn  Zn100  1  0.20934300  0.70473600  0.32607800  1
  Zn  Zn101  1  0.09422600  0.34190800  0.38959900  1
  Zn  Zn102  1  0.60260500  0.35492300  0.36040100  1
  Zn  Zn103  1  0.19308400  0.44076600  0.34017100  1
  Zn  Zn104  1  0.68687600  0.94326800  0.33991300  1
  Zn  Zn105  1  0.43293900  0.01318300  0.35933100  1
  Zn  Zn106  1  0.20995500  0.95356300  0.31008700  1
  Zn  Zn107  1  0.58793700  0.84432800  0.38938300  1
  Zn  Zn108  1  0.94841600  0.94841600  0.32500000  1
  Zn  Zn109  1  0.44028300  0.20106600  0.30903200  1
  Zn  Zn110  1  0.45654800  0.69576600  0.34096800  1
  Zn  Zn111  1  0.68748800  0.19209500  0.32392200  1
  Zn  Zn112  1  0.64841600  0.64841600  0.22500000  1
  Zn  Zn113  1  0.63806900  0.70457700  0.29036300  1
  Zn  Zn114  1  0.46389200  0.88364800  0.29066900  1
  Zn  Zn115  1  0.14667900  0.40112200  0.24068600  1
  Zn  Zn116  1  0.15015200  0.89571000  0.20931400  1
  Zn  Zn117  1  0.30889500  0.05250300  0.26061700  1
  Zn  Zn118  1  0.90374700  0.65606500  0.20982900  1
  Zn  Zn119  1  0.45876200  0.39225500  0.25963700  1
  Zn  Zn120  1  0.40934300  0.90473600  0.22607800  1
  Zn  Zn121  1  0.29422600  0.54190800  0.28959900  1
  Zn  Zn122  1  0.80260500  0.55492300  0.26040100  1
  Zn  Zn123  1  0.39308400  0.64076600  0.24017100  1
  Zn  Zn124  1  0.88687600  0.14326800  0.23991300  1
  Zn  Zn125  1  0.63293900  0.21318300  0.25933100  1
  Zn  Zn126  1  0.40995500  0.15356300  0.21008700  1
  Zn  Zn127  1  0.78793700  0.04432800  0.28938300  1
  Zn  Zn128  1  0.14841600  0.14841600  0.22500000  1
  Zn  Zn129  1  0.64028300  0.40106600  0.20903200  1
  Zn  Zn130  1  0.65654800  0.89576600  0.24096800  1
  Zn  Zn131  1  0.88748800  0.39209500  0.22392200  1
