# generated using pymatgen
data_CaMg3
_symmetry_space_group_name_H-M   'P 1'
_cell_length_a   5.29835000
_cell_length_b   6.85063100
_cell_length_c   47.46256700
_cell_angle_alpha   90.00000000
_cell_angle_beta   90.00000000
_cell_angle_gamma   90.00000000
_symmetry_Int_Tables_number   1
_chemical_formula_structural   CaMg3
_chemical_formula_sum   'Ca10 Mg30'
_cell_volume   1722.75072892
_cell_formula_units_Z   10
loop_
 _symmetry_equiv_pos_site_id
 _symmetry_equiv_pos_as_xyz
  1  'x, y, z'
loop_
 _atom_site_type_symbol
 _atom_site_label
 _atom_site_symmetry_multiplicity
 _atom_site_fract_x
 _atom_site_fract_y
 _atom_site_fract_z
 _atom_site_occupancy
  Ca  Ca0  1  0.75000000  0.25000000  0.20833300  1
  Ca  Ca1  1  0.25000000  0.25000000  0.29166700  1
  Ca  Ca2  1  0.75000000  0.75000000  0.33333300  1
  Ca  Ca3  1  0.25000000  0.75000000  0.41666700  1
  Ca  Ca4  1  0.75000000  0.25000000  0.45833300  1
  Ca  Ca5  1  0.25000000  0.25000000  0.54166700  1
  Ca  Ca6  1  0.75000000  0.75000000  0.58333300  1
  Ca  Ca7  1  0.25000000  0.75000000  0.66666700  1
  Ca  Ca8  1  0.75000000  0.25000000  0.70833300  1
  Ca  Ca9  1  0.25000000  0.25000000  0.79166700  1
  Mg  Mg10  1  0.75000000  0.99096000  0.27008000  1
  Mg  Mg11  1  0.75000000  0.75000000  0.20984000  1
  Mg  Mg12  1  0.75000000  0.50904000  0.27008000  1
  Mg  Mg13  1  0.25000000  0.99096000  0.22992000  1
  Mg  Mg14  1  0.25000000  0.50904000  0.22992000  1
  Mg  Mg15  1  0.25000000  0.75000000  0.29016000  1
  Mg  Mg16  1  0.75000000  0.49096000  0.39508000  1
  Mg  Mg17  1  0.75000000  0.25000000  0.33484000  1
  Mg  Mg18  1  0.75000000  0.00904000  0.39508000  1
  Mg  Mg19  1  0.25000000  0.49096000  0.35492000  1
  Mg  Mg20  1  0.25000000  0.00904000  0.35492000  1
  Mg  Mg21  1  0.25000000  0.25000000  0.41516000  1
  Mg  Mg22  1  0.75000000  0.99096000  0.52008000  1
  Mg  Mg23  1  0.75000000  0.75000000  0.45984000  1
  Mg  Mg24  1  0.75000000  0.50904000  0.52008000  1
  Mg  Mg25  1  0.25000000  0.99096000  0.47992000  1
  Mg  Mg26  1  0.25000000  0.50904000  0.47992000  1
  Mg  Mg27  1  0.25000000  0.75000000  0.54016000  1
  Mg  Mg28  1  0.75000000  0.49096000  0.64508000  1
  Mg  Mg29  1  0.75000000  0.25000000  0.58484000  1
  Mg  Mg30  1  0.75000000  0.00904000  0.64508000  1
  Mg  Mg31  1  0.25000000  0.49096000  0.60492000  1
  Mg  Mg32  1  0.25000000  0.00904000  0.60492000  1
  Mg  Mg33  1  0.25000000  0.25000000  0.66516000  1
  Mg  Mg34  1  0.75000000  0.99096000  0.77008000  1
  Mg  Mg35  1  0.75000000  0.75000000  0.70984000  1
  Mg  Mg36  1  0.75000000  0.50904000  0.77008000  1
  Mg  Mg37  1  0.25000000  0.99096000  0.72992000  1
  Mg  Mg38  1  0.25000000  0.50904000  0.72992000  1
  Mg  Mg39  1  0.25000000  0.75000000  0.79016000  1
