# generated using pymatgen
data_CeMg10
_symmetry_space_group_name_H-M   'P 1'
_cell_length_a   10.08648700
_cell_length_b   17.89230800
_cell_length_c   41.32051500
_cell_angle_alpha   90.00000000
_cell_angle_beta   90.00000000
_cell_angle_gamma   90.00000000
_symmetry_Int_Tables_number   1
_chemical_formula_structural   CeMg10
_chemical_formula_sum   'Ce16 Mg160'
_cell_volume   7457.13532630
_cell_formula_units_Z   16
loop_
 _symmetry_equiv_pos_site_id
 _symmetry_equiv_pos_as_xyz
  1  'x, y, z'
loop_
 _atom_site_type_symbol
 _atom_site_label
 _atom_site_symmetry_multiplicity
 _atom_site_fract_x
 _atom_site_fract_y
 _atom_site_fract_z
 _atom_site_occupancy
  Ce  Ce0  1  0.25000000  0.57372900  0.28947400  1
  Ce  Ce1  1  0.75000000  0.57372900  0.28947400  1
  Ce  Ce2  1  0.25000000  0.90706300  0.28947400  1
  Ce  Ce3  1  0.75000000  0.24039600  0.28947400  1
  Ce  Ce4  1  0.25000000  0.07372900  0.41447400  1
  Ce  Ce5  1  0.75000000  0.07372900  0.41447400  1
  Ce  Ce6  1  0.25000000  0.40706300  0.41447400  1
  Ce  Ce7  1  0.75000000  0.74039600  0.41447400  1
  Ce  Ce8  1  0.25000000  0.57372900  0.53947400  1
  Ce  Ce9  1  0.75000000  0.57372900  0.53947400  1
  Ce  Ce10  1  0.25000000  0.90706300  0.53947400  1
  Ce  Ce11  1  0.75000000  0.24039600  0.53947400  1
  Ce  Ce12  1  0.25000000  0.07372900  0.66447400  1
  Ce  Ce13  1  0.75000000  0.07372900  0.66447400  1
  Ce  Ce14  1  0.25000000  0.40706300  0.66447400  1
  Ce  Ce15  1  0.75000000  0.74039600  0.66447400  1
  Mg  Mg16  1  1.00000000  0.32372900  0.22697400  1
  Mg  Mg17  1  0.00000000  0.82372900  0.22697400  1
  Mg  Mg18  1  0.02159000  0.49261900  0.22864100  1
  Mg  Mg19  1  0.47841000  0.73594900  0.28947400  1
  Mg  Mg20  1  0.97841000  0.65483900  0.22864100  1
  Mg  Mg21  1  0.75000000  0.90968600  0.21377700  1
  Mg  Mg22  1  0.59768900  0.90706300  0.28947400  1
  Mg  Mg23  1  0.09768900  0.24039600  0.28947400  1
  Mg  Mg24  1  0.52159000  0.41150900  0.28947400  1
  Mg  Mg25  1  0.75000000  0.75435700  0.25260900  1
  Mg  Mg26  1  0.25000000  0.59031400  0.20330600  1
  Mg  Mg27  1  0.47841000  0.49261900  0.22864100  1
  Mg  Mg28  1  0.25000000  0.39310100  0.25260900  1
  Mg  Mg29  1  0.75000000  0.05714400  0.25064200  1
  Mg  Mg30  1  0.02159000  0.73594900  0.28947400  1
  Mg  Mg31  1  0.02159000  0.99261900  0.22530600  1
  Mg  Mg32  1  0.52159000  0.65483900  0.22864100  1
  Mg  Mg33  1  0.47841000  0.99261900  0.22530600  1
  Mg  Mg34  1  0.90231100  0.90706300  0.28947400  1
  Mg  Mg35  1  0.97841000  0.41150900  0.28947400  1
  Mg  Mg36  1  0.50000000  0.07372900  0.28947400  1
  Mg  Mg37  1  0.25000000  0.23777300  0.21377700  1
  Mg  Mg38  1  0.25000000  0.73777300  0.24017000  1
  Mg  Mg39  1  0.40231100  0.24039600  0.28947400  1
  Mg  Mg40  1  0.97841000  0.15483900  0.22530600  1
  Mg  Mg41  1  0.25000000  0.09031400  0.25064200  1
  Mg  Mg42  1  0.75000000  0.40968600  0.24017000  1
  Mg  Mg43  1  0.52159000  0.15483900  0.22530600  1
  Mg  Mg44  1  0.25000000  0.89310100  0.20133800  1
  Mg  Mg45  1  0.50000000  0.82372900  0.22697400  1
  Mg  Mg46  1  0.75000000  0.55714400  0.20330600  1
  Mg  Mg47  1  0.75000000  0.25435700  0.20133800  1
  Mg  Mg48  1  0.00000000  0.07372900  0.28947400  1
  Mg  Mg49  1  0.50000000  0.32372900  0.22697400  1
  Mg  Mg50  1  0.00000000  0.82372900  0.35197400  1
  Mg  Mg51  1  0.00000000  0.32372900  0.35197400  1
  Mg  Mg52  1  0.02159000  0.99261900  0.35364100  1
  Mg  Mg53  1  0.47841000  0.23594900  0.41447400  1
  Mg  Mg54  1  0.97841000  0.15483900  0.35364100  1
  Mg  Mg55  1  0.75000000  0.40968600  0.33877700  1
  Mg  Mg56  1  0.59768900  0.40706300  0.41447400  1
  Mg  Mg57  1  0.09768900  0.74039600  0.41447400  1
  Mg  Mg58  1  0.52159000  0.91150900  0.41447400  1
  Mg  Mg59  1  0.75000000  0.25435700  0.37760900  1
  Mg  Mg60  1  0.25000000  0.09031400  0.32830600  1
  Mg  Mg61  1  0.47841000  0.99261900  0.35364100  1
  Mg  Mg62  1  0.25000000  0.89310100  0.37760900  1
  Mg  Mg63  1  0.75000000  0.55714400  0.37564200  1
  Mg  Mg64  1  0.02159000  0.23594900  0.41447400  1
  Mg  Mg65  1  0.02159000  0.49261900  0.35030600  1
  Mg  Mg66  1  0.52159000  0.15483900  0.35364100  1
  Mg  Mg67  1  0.47841000  0.49261900  0.35030600  1
  Mg  Mg68  1  0.90231100  0.40706300  0.41447400  1
  Mg  Mg69  1  0.97841000  0.91150900  0.41447400  1
  Mg  Mg70  1  0.50000000  0.57372900  0.41447400  1
  Mg  Mg71  1  0.25000000  0.73777300  0.33877700  1
  Mg  Mg72  1  0.25000000  0.23777300  0.36517000  1
  Mg  Mg73  1  0.40231100  0.74039600  0.41447400  1
  Mg  Mg74  1  0.97841000  0.65483900  0.35030600  1
  Mg  Mg75  1  0.25000000  0.59031400  0.37564200  1
  Mg  Mg76  1  0.75000000  0.90968600  0.36517000  1
  Mg  Mg77  1  0.52159000  0.65483900  0.35030600  1
  Mg  Mg78  1  0.25000000  0.39310100  0.32633800  1
  Mg  Mg79  1  0.50000000  0.32372900  0.35197400  1
  Mg  Mg80  1  0.75000000  0.05714400  0.32830600  1
  Mg  Mg81  1  0.75000000  0.75435700  0.32633800  1
  Mg  Mg82  1  0.00000000  0.57372900  0.41447400  1
  Mg  Mg83  1  0.50000000  0.82372900  0.35197400  1
  Mg  Mg84  1  0.00000000  0.32372900  0.47697400  1
  Mg  Mg85  1  0.00000000  0.82372900  0.47697400  1
  Mg  Mg86  1  0.02159000  0.49261900  0.47864100  1
  Mg  Mg87  1  0.47841000  0.73594900  0.53947400  1
  Mg  Mg88  1  0.97841000  0.65483900  0.47864100  1
  Mg  Mg89  1  0.75000000  0.90968600  0.46377700  1
  Mg  Mg90  1  0.59768900  0.90706300  0.53947400  1
  Mg  Mg91  1  0.09768900  0.24039600  0.53947400  1
  Mg  Mg92  1  0.52159000  0.41150900  0.53947400  1
  Mg  Mg93  1  0.75000000  0.75435700  0.50260900  1
  Mg  Mg94  1  0.25000000  0.59031400  0.45330600  1
  Mg  Mg95  1  0.47841000  0.49261900  0.47864100  1
  Mg  Mg96  1  0.25000000  0.39310100  0.50260900  1
  Mg  Mg97  1  0.75000000  0.05714400  0.50064200  1
  Mg  Mg98  1  0.02159000  0.73594900  0.53947400  1
  Mg  Mg99  1  0.02159000  0.99261900  0.47530600  1
  Mg  Mg100  1  0.52159000  0.65483900  0.47864100  1
  Mg  Mg101  1  0.47841000  0.99261900  0.47530600  1
  Mg  Mg102  1  0.90231100  0.90706300  0.53947400  1
  Mg  Mg103  1  0.97841000  0.41150900  0.53947400  1
  Mg  Mg104  1  0.50000000  0.07372900  0.53947400  1
  Mg  Mg105  1  0.25000000  0.23777300  0.46377700  1
  Mg  Mg106  1  0.25000000  0.73777300  0.49017000  1
  Mg  Mg107  1  0.40231100  0.24039600  0.53947400  1
  Mg  Mg108  1  0.97841000  0.15483900  0.47530600  1
  Mg  Mg109  1  0.25000000  0.09031400  0.50064200  1
  Mg  Mg110  1  0.75000000  0.40968600  0.49017000  1
  Mg  Mg111  1  0.52159000  0.15483900  0.47530600  1
  Mg  Mg112  1  0.25000000  0.89310100  0.45133800  1
  Mg  Mg113  1  0.50000000  0.82372900  0.47697400  1
  Mg  Mg114  1  0.75000000  0.55714400  0.45330600  1
  Mg  Mg115  1  0.75000000  0.25435700  0.45133800  1
  Mg  Mg116  1  1.00000000  0.07372900  0.53947400  1
  Mg  Mg117  1  0.50000000  0.32372900  0.47697400  1
  Mg  Mg118  1  0.00000000  0.82372900  0.60197400  1
  Mg  Mg119  1  0.00000000  0.32372900  0.60197400  1
  Mg  Mg120  1  0.02159000  0.99261900  0.60364100  1
  Mg  Mg121  1  0.47841000  0.23594900  0.66447400  1
  Mg  Mg122  1  0.97841000  0.15483900  0.60364100  1
  Mg  Mg123  1  0.75000000  0.40968600  0.58877700  1
  Mg  Mg124  1  0.59768900  0.40706300  0.66447400  1
  Mg  Mg125  1  0.09768900  0.74039600  0.66447400  1
  Mg  Mg126  1  0.52159000  0.91150900  0.66447400  1
  Mg  Mg127  1  0.75000000  0.25435700  0.62760900  1
  Mg  Mg128  1  0.25000000  0.09031400  0.57830600  1
  Mg  Mg129  1  0.47841000  0.99261900  0.60364100  1
  Mg  Mg130  1  0.25000000  0.89310100  0.62760900  1
  Mg  Mg131  1  0.75000000  0.55714400  0.62564200  1
  Mg  Mg132  1  0.02159000  0.23594900  0.66447400  1
  Mg  Mg133  1  0.02159000  0.49261900  0.60030600  1
  Mg  Mg134  1  0.52159000  0.15483900  0.60364100  1
  Mg  Mg135  1  0.47841000  0.49261900  0.60030600  1
  Mg  Mg136  1  0.90231100  0.40706300  0.66447400  1
  Mg  Mg137  1  0.97841000  0.91150900  0.66447400  1
  Mg  Mg138  1  0.50000000  0.57372900  0.66447400  1
  Mg  Mg139  1  0.25000000  0.73777300  0.58877700  1
  Mg  Mg140  1  0.25000000  0.23777300  0.61517000  1
  Mg  Mg141  1  0.40231100  0.74039600  0.66447400  1
  Mg  Mg142  1  0.97841000  0.65483900  0.60030600  1
  Mg  Mg143  1  0.25000000  0.59031400  0.62564200  1
  Mg  Mg144  1  0.75000000  0.90968600  0.61517000  1
  Mg  Mg145  1  0.52159000  0.65483900  0.60030600  1
  Mg  Mg146  1  0.25000000  0.39310100  0.57633800  1
  Mg  Mg147  1  0.50000000  0.32372900  0.60197400  1
  Mg  Mg148  1  0.75000000  0.05714400  0.57830600  1
  Mg  Mg149  1  0.75000000  0.75435700  0.57633800  1
  Mg  Mg150  1  0.00000000  0.57372900  0.66447400  1
  Mg  Mg151  1  0.50000000  0.82372900  0.60197400  1
  Mg  Mg152  1  0.00000000  0.32372900  0.72697400  1
  Mg  Mg153  1  0.00000000  0.82372900  0.72697400  1
  Mg  Mg154  1  0.02159000  0.49261900  0.72864100  1
  Mg  Mg155  1  0.97841000  0.65483900  0.72864100  1
  Mg  Mg156  1  0.75000000  0.90968600  0.71377700  1
  Mg  Mg157  1  0.75000000  0.75435700  0.75260900  1
  Mg  Mg158  1  0.25000000  0.59031400  0.70330600  1
  Mg  Mg159  1  0.47841000  0.49261900  0.72864100  1
  Mg  Mg160  1  0.25000000  0.39310100  0.75260900  1
  Mg  Mg161  1  0.75000000  0.05714400  0.75064200  1
  Mg  Mg162  1  0.02159000  0.99261900  0.72530600  1
  Mg  Mg163  1  0.52159000  0.65483900  0.72864100  1
  Mg  Mg164  1  0.47841000  0.99261900  0.72530600  1
  Mg  Mg165  1  0.25000000  0.23777300  0.71377700  1
  Mg  Mg166  1  0.25000000  0.73777300  0.74017000  1
  Mg  Mg167  1  0.97841000  0.15483900  0.72530600  1
  Mg  Mg168  1  0.25000000  0.09031400  0.75064200  1
  Mg  Mg169  1  0.75000000  0.40968600  0.74017000  1
  Mg  Mg170  1  0.52159000  0.15483900  0.72530600  1
  Mg  Mg171  1  0.25000000  0.89310100  0.70133800  1
  Mg  Mg172  1  0.50000000  0.82372900  0.72697400  1
  Mg  Mg173  1  0.75000000  0.55714400  0.70330600  1
  Mg  Mg174  1  0.75000000  0.25435700  0.70133800  1
  Mg  Mg175  1  0.50000000  0.32372900  0.72697400  1
