# generated using pymatgen
data_Sm17Mg8
_symmetry_space_group_name_H-M   'P 1'
_cell_length_a   6.75892170
_cell_length_b   8.88868581
_cell_length_c   43.28172500
_cell_angle_alpha   91.06630092
_cell_angle_beta   92.20613179
_cell_angle_gamma   96.86865068
_symmetry_Int_Tables_number   1
_chemical_formula_structural   Sm17Mg8
_chemical_formula_sum   'Sm34 Mg16'
_cell_volume   2578.99437797
_cell_formula_units_Z   2
loop_
 _symmetry_equiv_pos_site_id
 _symmetry_equiv_pos_as_xyz
  1  'x, y, z'
loop_
 _atom_site_type_symbol
 _atom_site_label
 _atom_site_symmetry_multiplicity
 _atom_site_fract_x
 _atom_site_fract_y
 _atom_site_fract_z
 _atom_site_occupancy
  Sm  Sm0  1  0.01266700  0.41607600  0.23767600  1
  Sm  Sm1  1  0.20760600  0.73191800  0.18894100  1
  Sm  Sm2  1  0.60455200  0.03630500  0.21470500  1
  Sm  Sm3  1  0.69532700  0.64903400  0.19201100  1
  Sm  Sm4  1  0.72695200  0.48750500  0.30910500  1
  Sm  Sm5  1  0.92189200  0.80334700  0.26037000  1
  Sm  Sm6  1  0.31883800  0.10773300  0.28613300  1
  Sm  Sm7  1  0.40961300  0.72046300  0.26344000  1
  Sm  Sm8  1  0.44123800  0.55893300  0.38053300  1
  Sm  Sm9  1  0.63617800  0.87477500  0.33179800  1
  Sm  Sm10  1  0.03312400  0.17916200  0.35756200  1
  Sm  Sm11  1  0.12389800  0.79189100  0.33486800  1
  Sm  Sm12  1  0.15552400  0.63036200  0.45196200  1
  Sm  Sm13  1  0.35046300  0.94620400  0.40322700  1
  Sm  Sm14  1  0.74740900  0.25059000  0.42899000  1
  Sm  Sm15  1  0.83818400  0.86332000  0.40629700  1
  Sm  Sm16  1  0.86980900  0.70179100  0.52339000  1
  Sm  Sm17  1  0.06474900  0.01763200  0.47465600  1
  Sm  Sm18  1  0.46169500  0.32201900  0.50041900  1
  Sm  Sm19  1  0.55247000  0.93474800  0.47772500  1
  Sm  Sm20  1  0.58409500  0.77321900  0.59481900  1
  Sm  Sm21  1  0.77903500  0.08906100  0.54608400  1
  Sm  Sm22  1  0.17598100  0.39344800  0.57184800  1
  Sm  Sm23  1  0.26675600  0.00617700  0.54915400  1
  Sm  Sm24  1  0.29838100  0.84464800  0.66624800  1
  Sm  Sm25  1  0.49332000  0.16049000  0.61751300  1
  Sm  Sm26  1  0.89026700  0.46487600  0.64327600  1
  Sm  Sm27  1  0.98104100  0.07760600  0.62058300  1
  Sm  Sm28  1  0.01266700  0.91607600  0.73767600  1
  Sm  Sm29  1  0.20760600  0.23191800  0.68894100  1
  Sm  Sm30  1  0.60455200  0.53630500  0.71470500  1
  Sm  Sm31  1  0.69532700  0.14903400  0.69201100  1
  Sm  Sm32  1  0.92189200  0.30334700  0.76037000  1
  Sm  Sm33  1  0.40961300  0.22046300  0.76344000  1
  Mg  Mg34  1  0.11053900  0.07671600  0.21320800  1
  Mg  Mg35  1  0.50668000  0.37566500  0.23917300  1
  Mg  Mg36  1  0.82482500  0.14814500  0.28463700  1
  Mg  Mg37  1  0.22096500  0.44709300  0.31060100  1
  Mg  Mg38  1  0.53911100  0.21957300  0.35606500  1
  Mg  Mg39  1  0.93525100  0.51852200  0.38203000  1
  Mg  Mg40  1  0.25339600  0.29100200  0.42749400  1
  Mg  Mg41  1  0.64953700  0.58995000  0.45345900  1
  Mg  Mg42  1  0.96768200  0.36243100  0.49892200  1
  Mg  Mg43  1  0.36382200  0.66137900  0.52488700  1
  Mg  Mg44  1  0.68196800  0.43385900  0.57035100  1
  Mg  Mg45  1  0.07810800  0.73280800  0.59631600  1
  Mg  Mg46  1  0.39625300  0.50528800  0.64177900  1
  Mg  Mg47  1  0.79239400  0.80423600  0.66774400  1
  Mg  Mg48  1  0.11053900  0.57671600  0.71320800  1
  Mg  Mg49  1  0.50668000  0.87566500  0.73917300  1
