# generated using pymatgen
data_Mg3Ag
_symmetry_space_group_name_H-M   'P 1'
_cell_length_a   6.16428200
_cell_length_b   7.89381708
_cell_length_c   43.60343000
_cell_angle_alpha   94.18337805
_cell_angle_beta   90.00000000
_cell_angle_gamma   67.01749644
_symmetry_Int_Tables_number   1
_chemical_formula_structural   Mg3Ag
_chemical_formula_sum   'Mg42 Ag14'
_cell_volume   1947.17441558
_cell_formula_units_Z   14
loop_
 _symmetry_equiv_pos_site_id
 _symmetry_equiv_pos_as_xyz
  1  'x, y, z'
loop_
 _atom_site_type_symbol
 _atom_site_label
 _atom_site_symmetry_multiplicity
 _atom_site_fract_x
 _atom_site_fract_y
 _atom_site_fract_z
 _atom_site_occupancy
  Mg  Mg0  1  0.02295500  0.95409100  0.25765200  1
  Mg  Mg1  1  0.63840800  0.21045500  0.21492400  1
  Mg  Mg2  1  0.15113700  0.21045500  0.21492400  1
  Mg  Mg3  1  0.59886300  0.28954500  0.28507600  1
  Mg  Mg4  1  0.11159200  0.28954500  0.28507600  1
  Mg  Mg5  1  0.72704500  0.54590900  0.24234800  1
  Mg  Mg6  1  0.77295500  0.45409100  0.34098500  1
  Mg  Mg7  1  0.38840800  0.71045500  0.29825800  1
  Mg  Mg8  1  0.90113700  0.71045500  0.29825800  1
  Mg  Mg9  1  0.34886300  0.78954500  0.36840900  1
  Mg  Mg10  1  0.86159200  0.78954500  0.36840900  1
  Mg  Mg11  1  0.47704500  0.04590900  0.32568200  1
  Mg  Mg12  1  0.52295500  0.95409100  0.42431800  1
  Mg  Mg13  1  0.13840800  0.21045500  0.38159100  1
  Mg  Mg14  1  0.65113700  0.21045500  0.38159100  1
  Mg  Mg15  1  0.09886300  0.28954500  0.45174200  1
  Mg  Mg16  1  0.61159200  0.28954500  0.45174200  1
  Mg  Mg17  1  0.22704500  0.54590900  0.40901500  1
  Mg  Mg18  1  0.27295500  0.45409100  0.50765200  1
  Mg  Mg19  1  0.88840800  0.71045500  0.46492400  1
  Mg  Mg20  1  0.40113700  0.71045500  0.46492400  1
  Mg  Mg21  1  0.84886300  0.78954500  0.53507600  1
  Mg  Mg22  1  0.36159200  0.78954500  0.53507600  1
  Mg  Mg23  1  0.97704500  0.04590900  0.49234800  1
  Mg  Mg24  1  0.02295500  0.95409100  0.59098500  1
  Mg  Mg25  1  0.63840800  0.21045500  0.54825800  1
  Mg  Mg26  1  0.15113700  0.21045500  0.54825800  1
  Mg  Mg27  1  0.59886300  0.28954500  0.61840900  1
  Mg  Mg28  1  0.11159200  0.28954500  0.61840900  1
  Mg  Mg29  1  0.72704500  0.54590900  0.57568200  1
  Mg  Mg30  1  0.77295500  0.45409100  0.67431800  1
  Mg  Mg31  1  0.38840800  0.71045500  0.63159100  1
  Mg  Mg32  1  0.90113700  0.71045500  0.63159100  1
  Mg  Mg33  1  0.34886300  0.78954500  0.70174200  1
  Mg  Mg34  1  0.86159200  0.78954500  0.70174200  1
  Mg  Mg35  1  0.47704500  0.04590900  0.65901500  1
  Mg  Mg36  1  0.52295500  0.95409100  0.75765200  1
  Mg  Mg37  1  0.13840800  0.21045500  0.71492400  1
  Mg  Mg38  1  0.65113700  0.21045500  0.71492400  1
  Mg  Mg39  1  0.09886300  0.28954500  0.78507600  1
  Mg  Mg40  1  0.61159200  0.28954500  0.78507600  1
  Mg  Mg41  1  0.22704500  0.54590900  0.74234800  1
  Ag  Ag42  1  0.52083300  0.95833300  0.25694400  1
  Ag  Ag43  1  0.22916700  0.54166700  0.24305600  1
  Ag  Ag44  1  0.27083300  0.45833300  0.34027800  1
  Ag  Ag45  1  0.97916700  0.04166700  0.32638900  1
  Ag  Ag46  1  0.02083300  0.95833300  0.42361100  1
  Ag  Ag47  1  0.72916700  0.54166700  0.40972200  1
  Ag  Ag48  1  0.77083300  0.45833300  0.50694400  1
  Ag  Ag49  1  0.47916700  0.04166700  0.49305600  1
  Ag  Ag50  1  0.52083300  0.95833300  0.59027800  1
  Ag  Ag51  1  0.22916700  0.54166700  0.57638900  1
  Ag  Ag52  1  0.27083300  0.45833300  0.67361100  1
  Ag  Ag53  1  0.97916700  0.04166700  0.65972200  1
  Ag  Ag54  1  0.02083300  0.95833300  0.75694400  1
  Ag  Ag55  1  0.72916700  0.54166700  0.74305600  1
