# generated using pymatgen
data_Mg2Sc
_symmetry_space_group_name_H-M   'P 1'
_cell_length_a   5.20787600
_cell_length_b   8.45453137
_cell_length_c   41.48543700
_cell_angle_alpha   90.44880010
_cell_angle_beta   90.00000000
_cell_angle_gamma   90.00000000
_symmetry_Int_Tables_number   1
_chemical_formula_structural   Mg2Sc
_chemical_formula_sum   'Mg32 Sc16'
_cell_volume   1826.55401880
_cell_formula_units_Z   16
loop_
 _symmetry_equiv_pos_site_id
 _symmetry_equiv_pos_as_xyz
  1  'x, y, z'
loop_
 _atom_site_type_symbol
 _atom_site_label
 _atom_site_symmetry_multiplicity
 _atom_site_fract_x
 _atom_site_fract_y
 _atom_site_fract_z
 _atom_site_occupancy
  Mg  Mg0  1  0.25000000  0.01895400  0.79924200  1
  Mg  Mg1  1  0.25000000  0.30099700  0.74796000  1
  Mg  Mg2  1  0.75000000  0.51950800  0.73922000  1
  Mg  Mg3  1  0.75000000  0.23746400  0.79050100  1
  Mg  Mg4  1  0.25000000  0.94203000  0.72231900  1
  Mg  Mg5  1  0.25000000  0.22407400  0.67103700  1
  Mg  Mg6  1  0.75000000  0.44258500  0.66229700  1
  Mg  Mg7  1  0.75000000  0.16054100  0.71357800  1
  Mg  Mg8  1  0.25000000  0.86510700  0.64539600  1
  Mg  Mg9  1  0.25000000  0.14715100  0.59411400  1
  Mg  Mg10  1  0.75000000  0.36566200  0.58537400  1
  Mg  Mg11  1  0.75000000  0.08361800  0.63665500  1
  Mg  Mg12  1  0.25000000  0.78818400  0.56847300  1
  Mg  Mg13  1  0.25000000  0.07022800  0.51719100  1
  Mg  Mg14  1  0.75000000  0.28873900  0.50845000  1
  Mg  Mg15  1  0.75000000  0.00669500  0.55973200  1
  Mg  Mg16  1  0.25000000  0.71126100  0.49155000  1
  Mg  Mg17  1  0.25000000  0.99330500  0.44026800  1
  Mg  Mg18  1  0.75000000  0.21181600  0.43152700  1
  Mg  Mg19  1  0.75000000  0.92977200  0.48280900  1
  Mg  Mg20  1  0.25000000  0.63433800  0.41462600  1
  Mg  Mg21  1  0.25000000  0.91638200  0.36334500  1
  Mg  Mg22  1  0.75000000  0.13489300  0.35460400  1
  Mg  Mg23  1  0.75000000  0.85284900  0.40588600  1
  Mg  Mg24  1  0.25000000  0.55741500  0.33770300  1
  Mg  Mg25  1  0.25000000  0.83945900  0.28642200  1
  Mg  Mg26  1  0.75000000  0.05797000  0.27768100  1
  Mg  Mg27  1  0.75000000  0.77592600  0.32896300  1
  Mg  Mg28  1  0.25000000  0.48049200  0.26078000  1
  Mg  Mg29  1  0.25000000  0.76253600  0.20949900  1
  Mg  Mg30  1  0.75000000  0.98104600  0.20075800  1
  Mg  Mg31  1  0.75000000  0.69900300  0.25204000  1
  Sc  Sc32  1  0.25000000  0.66023400  0.77359100  1
  Sc  Sc33  1  0.75000000  0.87822800  0.76487100  1
  Sc  Sc34  1  0.25000000  0.58331100  0.69666800  1
  Sc  Sc35  1  0.75000000  0.80130500  0.68794800  1
  Sc  Sc36  1  0.25000000  0.50638800  0.61974400  1
  Sc  Sc37  1  0.75000000  0.72438100  0.61102500  1
  Sc  Sc38  1  0.25000000  0.42946500  0.54282100  1
  Sc  Sc39  1  0.75000000  0.64745800  0.53410200  1
  Sc  Sc40  1  0.25000000  0.35254200  0.46589800  1
  Sc  Sc41  1  0.75000000  0.57053500  0.45717900  1
  Sc  Sc42  1  0.25000000  0.27561900  0.38897500  1
  Sc  Sc43  1  0.75000000  0.49361200  0.38025600  1
  Sc  Sc44  1  0.25000000  0.19869500  0.31205200  1
  Sc  Sc45  1  0.75000000  0.41668900  0.30333200  1
  Sc  Sc46  1  0.25000000  0.12177200  0.23512900  1
  Sc  Sc47  1  0.75000000  0.33976600  0.22640900  1
