# generated using pymatgen
data_Li2Mg
_symmetry_space_group_name_H-M   'P 1'
_cell_length_a   5.55556811
_cell_length_b   8.50567130
_cell_length_c   42.64055100
_cell_angle_alpha   92.47127567
_cell_angle_beta   92.80875379
_cell_angle_gamma   103.64653224
_symmetry_Int_Tables_number   1
_chemical_formula_structural   Li2Mg
_chemical_formula_sum   'Li40 Mg20'
_cell_volume   1952.58940257
_cell_formula_units_Z   20
loop_
 _symmetry_equiv_pos_site_id
 _symmetry_equiv_pos_as_xyz
  1  'x, y, z'
loop_
 _atom_site_type_symbol
 _atom_site_label
 _atom_site_symmetry_multiplicity
 _atom_site_fract_x
 _atom_site_fract_y
 _atom_site_fract_z
 _atom_site_occupancy
  Li  Li0  1  0.15439600  0.44472200  0.76505300  1
  Li  Li1  1  0.47481900  0.77598900  0.76582700  1
  Li  Li2  1  0.27518100  0.03651100  0.79667300  1
  Li  Li3  1  0.59560400  0.36777800  0.79744700  1
  Li  Li4  1  0.90439600  0.25722200  0.70255300  1
  Li  Li5  1  0.22481900  0.58848900  0.70332700  1
  Li  Li6  1  0.02518100  0.84901100  0.73417300  1
  Li  Li7  1  0.34560400  0.18027800  0.73494700  1
  Li  Li8  1  0.65439600  0.06972200  0.64005300  1
  Li  Li9  1  0.97481900  0.40098900  0.64082700  1
  Li  Li10  1  0.77518100  0.66151100  0.67167300  1
  Li  Li11  1  0.09560400  0.99277800  0.67244700  1
  Li  Li12  1  0.40439600  0.88222200  0.57755300  1
  Li  Li13  1  0.72481900  0.21348900  0.57832700  1
  Li  Li14  1  0.52518100  0.47401100  0.60917300  1
  Li  Li15  1  0.84560400  0.80527800  0.60994700  1
  Li  Li16  1  0.15439600  0.69472200  0.51505300  1
  Li  Li17  1  0.47481900  0.02598900  0.51582700  1
  Li  Li18  1  0.27518100  0.28651100  0.54667300  1
  Li  Li19  1  0.59560400  0.61777800  0.54744700  1
  Li  Li20  1  0.90439600  0.50722200  0.45255300  1
  Li  Li21  1  0.22481900  0.83848900  0.45332700  1
  Li  Li22  1  0.02518100  0.09901100  0.48417300  1
  Li  Li23  1  0.34560400  0.43027800  0.48494700  1
  Li  Li24  1  0.65439600  0.31972200  0.39005300  1
  Li  Li25  1  0.97481900  0.65098900  0.39082700  1
  Li  Li26  1  0.77518100  0.91151100  0.42167300  1
  Li  Li27  1  0.09560400  0.24277800  0.42244700  1
  Li  Li28  1  0.40439600  0.13222200  0.32755300  1
  Li  Li29  1  0.72481900  0.46348900  0.32832700  1
  Li  Li30  1  0.52518100  0.72401100  0.35917300  1
  Li  Li31  1  0.84560400  0.05527800  0.35994700  1
  Li  Li32  1  0.15439600  0.94472200  0.26505300  1
  Li  Li33  1  0.47481900  0.27598900  0.26582700  1
  Li  Li34  1  0.27518100  0.53651100  0.29667300  1
  Li  Li35  1  0.59560400  0.86777800  0.29744700  1
  Li  Li36  1  0.90439600  0.75722200  0.20255300  1
  Li  Li37  1  0.22481900  0.08848900  0.20332700  1
  Li  Li38  1  0.02518100  0.34901100  0.23417300  1
  Li  Li39  1  0.34560400  0.68027800  0.23494700  1
  Mg  Mg40  1  0.93755700  0.70108200  0.79705800  1
  Mg  Mg41  1  0.81244300  0.11141800  0.76544200  1
  Mg  Mg42  1  0.68755700  0.51358200  0.73455800  1
  Mg  Mg43  1  0.56244300  0.92391800  0.70294200  1
  Mg  Mg44  1  0.43755700  0.32608200  0.67205800  1
  Mg  Mg45  1  0.31244300  0.73641800  0.64044200  1
  Mg  Mg46  1  0.18755700  0.13858200  0.60955800  1
  Mg  Mg47  1  0.06244300  0.54891800  0.57794200  1
  Mg  Mg48  1  0.93755700  0.95108200  0.54705800  1
  Mg  Mg49  1  0.81244300  0.36141800  0.51544200  1
  Mg  Mg50  1  0.68755700  0.76358200  0.48455800  1
  Mg  Mg51  1  0.56244300  0.17391800  0.45294200  1
  Mg  Mg52  1  0.43755700  0.57608200  0.42205800  1
  Mg  Mg53  1  0.31244300  0.98641800  0.39044200  1
  Mg  Mg54  1  0.18755700  0.38858200  0.35955800  1
  Mg  Mg55  1  0.06244300  0.79891800  0.32794200  1
  Mg  Mg56  1  0.93755700  0.20108200  0.29705800  1
  Mg  Mg57  1  0.81244300  0.61141800  0.26544200  1
  Mg  Mg58  1  0.68755700  0.01358200  0.23455800  1
  Mg  Mg59  1  0.56244300  0.42391800  0.20294200  1
