# generated using pymatgen
data_Er2Mg
_symmetry_space_group_name_H-M   'P 1'
_cell_length_a   5.42669900
_cell_length_b   8.70370642
_cell_length_c   46.42048700
_cell_angle_alpha   91.54237289
_cell_angle_beta   90.00000000
_cell_angle_gamma   90.00000000
_symmetry_Int_Tables_number   1
_chemical_formula_structural   Er2Mg
_chemical_formula_sum   'Er32 Mg16'
_cell_volume   2191.75639656
_cell_formula_units_Z   16
loop_
 _symmetry_equiv_pos_site_id
 _symmetry_equiv_pos_as_xyz
  1  'x, y, z'
loop_
 _atom_site_type_symbol
 _atom_site_label
 _atom_site_symmetry_multiplicity
 _atom_site_fract_x
 _atom_site_fract_y
 _atom_site_fract_z
 _atom_site_occupancy
  Er  Er0  1  0.25000000  0.62663900  0.80045000  1
  Er  Er1  1  0.25000000  0.32102400  0.74822600  1
  Er  Er2  1  0.75000000  0.06566900  0.73801100  1
  Er  Er3  1  0.75000000  0.37128300  0.79023600  1
  Er  Er4  1  0.25000000  0.70356200  0.72352700  1
  Er  Er5  1  0.25000000  0.39794700  0.67130300  1
  Er  Er6  1  0.75000000  0.14259200  0.66108800  1
  Er  Er7  1  0.75000000  0.44820700  0.71331300  1
  Er  Er8  1  0.25000000  0.78048500  0.64660400  1
  Er  Er9  1  0.25000000  0.47487000  0.59437900  1
  Er  Er10  1  0.75000000  0.21951500  0.58416500  1
  Er  Er11  1  0.75000000  0.52513000  0.63639000  1
  Er  Er12  1  0.25000000  0.85740800  0.56968100  1
  Er  Er13  1  0.25000000  0.55179300  0.51745600  1
  Er  Er14  1  0.75000000  0.29643800  0.50724200  1
  Er  Er15  1  0.75000000  0.60205300  0.55946700  1
  Er  Er16  1  0.25000000  0.93433100  0.49275800  1
  Er  Er17  1  0.25000000  0.62871700  0.44053300  1
  Er  Er18  1  0.75000000  0.37336100  0.43031900  1
  Er  Er19  1  0.75000000  0.67897600  0.48254400  1
  Er  Er20  1  0.25000000  0.01125400  0.41583500  1
  Er  Er21  1  0.25000000  0.70564000  0.36361000  1
  Er  Er22  1  0.75000000  0.45028400  0.35339600  1
  Er  Er23  1  0.75000000  0.75589900  0.40562100  1
  Er  Er24  1  0.25000000  0.08817800  0.33891200  1
  Er  Er25  1  0.25000000  0.78256300  0.28668700  1
  Er  Er26  1  0.75000000  0.52720700  0.27647300  1
  Er  Er27  1  0.75000000  0.83282200  0.32869700  1
  Er  Er28  1  0.25000000  0.16510100  0.26198900  1
  Er  Er29  1  0.25000000  0.85948600  0.20976400  1
  Er  Er30  1  0.75000000  0.60413000  0.19955000  1
  Er  Er31  1  0.75000000  0.90974500  0.25177400  1
  Mg  Mg32  1  0.25000000  0.97215900  0.77427100  1
  Mg  Mg33  1  0.75000000  0.72014800  0.76419100  1
  Mg  Mg34  1  0.25000000  0.04908200  0.69734800  1
  Mg  Mg35  1  0.75000000  0.79707200  0.68726700  1
  Mg  Mg36  1  0.25000000  0.12600500  0.62042500  1
  Mg  Mg37  1  0.75000000  0.87399500  0.61034400  1
  Mg  Mg38  1  0.25000000  0.20292800  0.54350200  1
  Mg  Mg39  1  0.75000000  0.95091800  0.53342100  1
  Mg  Mg40  1  0.25000000  0.27985200  0.46657900  1
  Mg  Mg41  1  0.75000000  0.02784100  0.45649800  1
  Mg  Mg42  1  0.25000000  0.35677500  0.38965600  1
  Mg  Mg43  1  0.75000000  0.10476400  0.37957500  1
  Mg  Mg44  1  0.25000000  0.43369800  0.31273300  1
  Mg  Mg45  1  0.75000000  0.18168700  0.30265200  1
  Mg  Mg46  1  0.25000000  0.51062100  0.23580900  1
  Mg  Mg47  1  0.75000000  0.25861000  0.22572900  1
