# generated using pymatgen
data_Y6Mg11
_symmetry_space_group_name_H-M   'P 1'
_cell_length_a   6.05148100
_cell_length_b   6.05148100
_cell_length_c   42.79043400
_cell_angle_alpha   90.00000000
_cell_angle_beta   90.00000000
_cell_angle_gamma   90.00000000
_symmetry_Int_Tables_number   1
_chemical_formula_structural   Y6Mg11
_chemical_formula_sum   'Y12 Mg22'
_cell_volume   1567.00376320
_cell_formula_units_Z   2
loop_
 _symmetry_equiv_pos_site_id
 _symmetry_equiv_pos_as_xyz
  1  'x, y, z'
loop_
 _atom_site_type_symbol
 _atom_site_label
 _atom_site_symmetry_multiplicity
 _atom_site_fract_x
 _atom_site_fract_y
 _atom_site_fract_z
 _atom_site_occupancy
  Y  Y0  1  0.00000000  0.50000000  0.75833300  1
  Y  Y1  1  0.00000000  0.00000000  0.70833300  1
  Y  Y2  1  0.50000000  0.00000000  0.65833300  1
  Y  Y3  1  0.50000000  0.50000000  0.60833300  1
  Y  Y4  1  0.00000000  0.50000000  0.55833300  1
  Y  Y5  1  0.00000000  0.00000000  0.50833300  1
  Y  Y6  1  0.50000000  0.00000000  0.45833300  1
  Y  Y7  1  0.50000000  0.50000000  0.40833300  1
  Y  Y8  1  0.00000000  0.50000000  0.35833300  1
  Y  Y9  1  0.00000000  0.00000000  0.30833300  1
  Y  Y10  1  0.50000000  0.00000000  0.25833300  1
  Y  Y11  1  0.50000000  0.50000000  0.20833300  1
  Mg  Mg12  1  0.50000000  0.75000000  0.73333300  1
  Mg  Mg13  1  0.50000000  0.25000000  0.73333300  1
  Mg  Mg14  1  0.00000000  0.25000000  0.63333300  1
  Mg  Mg15  1  0.25000000  0.50000000  0.68333300  1
  Mg  Mg16  1  0.00000000  0.75000000  0.63333300  1
  Mg  Mg17  1  0.75000000  0.50000000  0.68333300  1
  Mg  Mg18  1  0.50000000  0.75000000  0.53333300  1
  Mg  Mg19  1  0.75000000  0.00000000  0.58333300  1
  Mg  Mg20  1  0.50000000  0.25000000  0.53333300  1
  Mg  Mg21  1  0.25000000  0.00000000  0.58333300  1
  Mg  Mg22  1  1.00000000  0.25000000  0.43333300  1
  Mg  Mg23  1  0.25000000  0.50000000  0.48333300  1
  Mg  Mg24  1  0.00000000  0.75000000  0.43333300  1
  Mg  Mg25  1  0.75000000  0.50000000  0.48333300  1
  Mg  Mg26  1  0.50000000  0.75000000  0.33333300  1
  Mg  Mg27  1  0.75000000  0.00000000  0.38333300  1
  Mg  Mg28  1  0.50000000  0.25000000  0.33333300  1
  Mg  Mg29  1  0.25000000  0.00000000  0.38333300  1
  Mg  Mg30  1  1.00000000  0.25000000  0.23333300  1
  Mg  Mg31  1  0.25000000  0.50000000  0.28333300  1
  Mg  Mg32  1  0.00000000  0.75000000  0.23333300  1
  Mg  Mg33  1  0.75000000  0.50000000  0.28333300  1
