# generated using pymatgen
data_Mg9B37
_symmetry_space_group_name_H-M   'P 1'
_cell_length_a   4.39738600
_cell_length_b   7.42725500
_cell_length_c   43.87913800
_cell_angle_alpha   90.00000000
_cell_angle_beta   90.00000000
_cell_angle_gamma   90.00000000
_symmetry_Int_Tables_number   1
_chemical_formula_structural   Mg9B37
_chemical_formula_sum   'Mg18 B74'
_cell_volume   1433.11490062
_cell_formula_units_Z   2
loop_
 _symmetry_equiv_pos_site_id
 _symmetry_equiv_pos_as_xyz
  1  'x, y, z'
loop_
 _atom_site_type_symbol
 _atom_site_label
 _atom_site_symmetry_multiplicity
 _atom_site_fract_x
 _atom_site_fract_y
 _atom_site_fract_z
 _atom_site_occupancy
  Mg  Mg0  1  0.25000000  0.36221400  0.23071000  1
  Mg  Mg1  1  0.75000000  0.63778600  0.21929000  1
  Mg  Mg2  1  0.25000000  0.13778600  0.29321000  1
  Mg  Mg3  1  0.75000000  0.86221400  0.28179000  1
  Mg  Mg4  1  0.25000000  0.36221400  0.35571000  1
  Mg  Mg5  1  0.75000000  0.63778600  0.34429000  1
  Mg  Mg6  1  0.25000000  0.13778600  0.41821000  1
  Mg  Mg7  1  0.75000000  0.86221400  0.40679000  1
  Mg  Mg8  1  0.25000000  0.36221400  0.48071000  1
  Mg  Mg9  1  0.75000000  0.63778600  0.46929000  1
  Mg  Mg10  1  0.25000000  0.13778600  0.54321000  1
  Mg  Mg11  1  0.75000000  0.86221400  0.53179000  1
  Mg  Mg12  1  0.25000000  0.36221400  0.60571000  1
  Mg  Mg13  1  0.75000000  0.63778600  0.59429000  1
  Mg  Mg14  1  0.25000000  0.13778600  0.66821000  1
  Mg  Mg15  1  0.75000000  0.86221400  0.65679000  1
  Mg  Mg16  1  0.25000000  0.36221400  0.73071000  1
  Mg  Mg17  1  0.75000000  0.63778600  0.71929000  1
  B  B18  1  0.25000000  0.84631100  0.19029800  1
  B  B19  1  0.75000000  0.15368900  0.25970200  1
  B  B20  1  0.25000000  0.65368900  0.25279800  1
  B  B21  1  0.75000000  0.34631100  0.19720200  1
  B  B22  1  0.25000000  0.64694100  0.29417200  1
  B  B23  1  0.75000000  0.35305900  0.28082800  1
  B  B24  1  0.25000000  0.85305900  0.23167200  1
  B  B25  1  0.75000000  0.14694100  0.21832800  1
  B  B26  1  0.05800500  0.06322000  0.24154100  1
  B  B27  1  0.55800500  0.93678000  0.20845900  1
  B  B28  1  0.44199500  0.43678000  0.30404100  1
  B  B29  1  0.94199500  0.56322000  0.27095900  1
  B  B30  1  0.94199500  0.93678000  0.20845900  1
  B  B31  1  0.44199500  0.06322000  0.24154100  1
  B  B32  1  0.55800500  0.56322000  0.27095900  1
  B  B33  1  0.05800500  0.43678000  0.30404100  1
  B  B34  1  0.25000000  0.84631100  0.31529800  1
  B  B35  1  0.75000000  0.15368900  0.38470200  1
  B  B36  1  0.25000000  0.65368900  0.37779800  1
  B  B37  1  0.75000000  0.34631100  0.32220200  1
  B  B38  1  0.25000000  0.64694100  0.41917200  1
  B  B39  1  0.75000000  0.35305900  0.40582800  1
  B  B40  1  0.25000000  0.85305900  0.35667200  1
  B  B41  1  0.75000000  0.14694100  0.34332800  1
  B  B42  1  0.05800500  0.06322000  0.36654100  1
  B  B43  1  0.55800500  0.93678000  0.33345900  1
  B  B44  1  0.44199500  0.43678000  0.42904100  1
  B  B45  1  0.94199500  0.56322000  0.39595900  1
  B  B46  1  0.94199500  0.93678000  0.33345900  1
  B  B47  1  0.44199500  0.06322000  0.36654100  1
  B  B48  1  0.55800500  0.56322000  0.39595900  1
  B  B49  1  0.05800500  0.43678000  0.42904100  1
  B  B50  1  0.25000000  0.84631100  0.44029800  1
  B  B51  1  0.75000000  0.15368900  0.50970200  1
  B  B52  1  0.25000000  0.65368900  0.50279800  1
  B  B53  1  0.75000000  0.34631100  0.44720200  1
  B  B54  1  0.25000000  0.64694100  0.54417200  1
  B  B55  1  0.75000000  0.35305900  0.53082800  1
  B  B56  1  0.25000000  0.85305900  0.48167200  1
  B  B57  1  0.75000000  0.14694100  0.46832800  1
  B  B58  1  0.05800500  0.06322000  0.49154100  1
  B  B59  1  0.55800500  0.93678000  0.45845900  1
  B  B60  1  0.44199500  0.43678000  0.55404100  1
  B  B61  1  0.94199500  0.56322000  0.52095900  1
  B  B62  1  0.94199500  0.93678000  0.45845900  1
  B  B63  1  0.44199500  0.06322000  0.49154100  1
  B  B64  1  0.55800500  0.56322000  0.52095900  1
  B  B65  1  0.05800500  0.43678000  0.55404100  1
  B  B66  1  0.25000000  0.84631100  0.56529800  1
  B  B67  1  0.75000000  0.15368900  0.63470200  1
  B  B68  1  0.25000000  0.65368900  0.62779800  1
  B  B69  1  0.75000000  0.34631100  0.57220200  1
  B  B70  1  0.25000000  0.64694100  0.66917200  1
  B  B71  1  0.75000000  0.35305900  0.65582800  1
  B  B72  1  0.25000000  0.85305900  0.60667200  1
  B  B73  1  0.75000000  0.14694100  0.59332800  1
  B  B74  1  0.05800500  0.06322000  0.61654100  1
  B  B75  1  0.55800500  0.93678000  0.58345900  1
  B  B76  1  0.44199500  0.43678000  0.67904100  1
  B  B77  1  0.94199500  0.56322000  0.64595900  1
  B  B78  1  0.94199500  0.93678000  0.58345900  1
  B  B79  1  0.44199500  0.06322000  0.61654100  1
  B  B80  1  0.55800500  0.56322000  0.64595900  1
  B  B81  1  0.05800500  0.43678000  0.67904100  1
  B  B82  1  0.25000000  0.84631100  0.69029800  1
  B  B83  1  0.75000000  0.15368900  0.75970200  1
  B  B84  1  0.25000000  0.65368900  0.75279800  1
  B  B85  1  0.75000000  0.34631100  0.69720200  1
  B  B86  1  0.25000000  0.85305900  0.73167200  1
  B  B87  1  0.75000000  0.14694100  0.71832800  1
  B  B88  1  0.05800500  0.06322000  0.74154100  1
  B  B89  1  0.55800500  0.93678000  0.70845900  1
  B  B90  1  0.94199500  0.93678000  0.70845900  1
  B  B91  1  0.44199500  0.06322000  0.74154100  1
