# generated using pymatgen
data_Mg2Cd
_symmetry_space_group_name_H-M   'P 1'
_cell_length_a   3.17171500
_cell_length_b   8.21260633
_cell_length_c   41.52444900
_cell_angle_alpha   90.00000000
_cell_angle_beta   90.00000000
_cell_angle_gamma   101.13377153
_symmetry_Int_Tables_number   1
_chemical_formula_structural   Mg2Cd
_chemical_formula_sum   'Mg20 Cd10'
_cell_volume   1061.27343075
_cell_formula_units_Z   10
loop_
 _symmetry_equiv_pos_site_id
 _symmetry_equiv_pos_as_xyz
  1  'x, y, z'
loop_
 _atom_site_type_symbol
 _atom_site_label
 _atom_site_symmetry_multiplicity
 _atom_site_fract_x
 _atom_site_fract_y
 _atom_site_fract_z
 _atom_site_occupancy
  Mg  Mg0  1  0.55580300  0.11160500  0.21875000  1
  Mg  Mg1  1  0.22512500  0.45025000  0.21875000  1
  Mg  Mg2  1  0.77487500  0.54975000  0.28125000  1
  Mg  Mg3  1  0.44419700  0.88839500  0.28125000  1
  Mg  Mg4  1  0.55580300  0.11160500  0.34375000  1
  Mg  Mg5  1  0.22512500  0.45025000  0.34375000  1
  Mg  Mg6  1  0.77487500  0.54975000  0.40625000  1
  Mg  Mg7  1  0.44419700  0.88839500  0.40625000  1
  Mg  Mg8  1  0.55580300  0.11160500  0.46875000  1
  Mg  Mg9  1  0.22512500  0.45025000  0.46875000  1
  Mg  Mg10  1  0.77487500  0.54975000  0.53125000  1
  Mg  Mg11  1  0.44419700  0.88839500  0.53125000  1
  Mg  Mg12  1  0.55580300  0.11160500  0.59375000  1
  Mg  Mg13  1  0.22512500  0.45025000  0.59375000  1
  Mg  Mg14  1  0.77487500  0.54975000  0.65625000  1
  Mg  Mg15  1  0.44419700  0.88839500  0.65625000  1
  Mg  Mg16  1  0.55580300  0.11160500  0.71875000  1
  Mg  Mg17  1  0.22512500  0.45025000  0.71875000  1
  Mg  Mg18  1  0.77487500  0.54975000  0.78125000  1
  Mg  Mg19  1  0.44419700  0.88839500  0.78125000  1
  Cd  Cd20  1  0.88819600  0.77639300  0.21875000  1
  Cd  Cd21  1  0.11180400  0.22360700  0.28125000  1
  Cd  Cd22  1  0.88819600  0.77639300  0.34375000  1
  Cd  Cd23  1  0.11180400  0.22360700  0.40625000  1
  Cd  Cd24  1  0.88819600  0.77639300  0.46875000  1
  Cd  Cd25  1  0.11180400  0.22360700  0.53125000  1
  Cd  Cd26  1  0.88819600  0.77639300  0.59375000  1
  Cd  Cd27  1  0.11180400  0.22360700  0.65625000  1
  Cd  Cd28  1  0.88819600  0.77639300  0.71875000  1
  Cd  Cd29  1  0.11180400  0.22360700  0.78125000  1
