# generated using pymatgen
data_Mg137Rh56
_symmetry_space_group_name_H-M   'P 1'
_cell_length_a   11.79877580
_cell_length_b   11.79877571
_cell_length_c   42.13651500
_cell_angle_alpha   95.11887838
_cell_angle_beta   84.88112166
_cell_angle_gamma   101.27924998
_symmetry_Int_Tables_number   1
_chemical_formula_structural   Mg137Rh56
_chemical_formula_sum   'Mg137 Rh56'
_cell_volume   5714.14400078
_cell_formula_units_Z   1
loop_
 _symmetry_equiv_pos_site_id
 _symmetry_equiv_pos_as_xyz
  1  'x, y, z'
loop_
 _atom_site_type_symbol
 _atom_site_label
 _atom_site_symmetry_multiplicity
 _atom_site_fract_x
 _atom_site_fract_y
 _atom_site_fract_z
 _atom_site_occupancy
  Mg  Mg0  1  0.17179400  0.82820600  0.22240300  1
  Mg  Mg1  1  0.35361200  0.64638800  0.26785700  1
  Mg  Mg2  1  0.11746000  0.42277300  0.18870300  1
  Mg  Mg3  1  0.75904500  0.70072200  0.23415700  1
  Mg  Mg4  1  0.62111800  0.45934900  0.19967500  1
  Mg  Mg5  1  0.72247000  0.19706400  0.24513000  1
  Mg  Mg6  1  0.58454200  0.95569100  0.21064800  1
  Mg  Mg7  1  0.22612700  0.23364000  0.25610300  1
  Mg  Mg8  1  0.97442500  0.83427600  0.26871000  1
  Mg  Mg9  1  0.98390600  0.20739300  0.22325500  1
  Mg  Mg10  1  0.13885300  0.47855000  0.26199200  1
  Mg  Mg11  1  0.33963200  0.04296600  0.21653800  1
  Mg  Mg12  1  0.49457900  0.31412200  0.25527400  1
  Mg  Mg13  1  0.73279800  0.45850100  0.26700400  1
  Mg  Mg14  1  0.84900800  0.34229000  0.18953100  1
  Mg  Mg15  1  0.50405900  0.68723900  0.20982000  1
  Mg  Mg16  1  0.00395500  0.61344700  0.22826800  1
  Mg  Mg17  1  0.20473500  0.17786300  0.18281300  1
  Mg  Mg18  1  0.83952800  0.96917300  0.23498600  1
  Mg  Mg19  1  0.35968100  0.44902000  0.22155000  1
  Mg  Mg20  1  0.53543000  0.46457000  0.31331200  1
  Mg  Mg21  1  0.71724800  0.28275200  0.35876600  1
  Mg  Mg22  1  0.48109600  0.05913700  0.27961200  1
  Mg  Mg23  1  0.12268100  0.33708500  0.32506600  1
  Mg  Mg24  1  0.98475400  0.09571200  0.29058400  1
  Mg  Mg25  1  0.08610600  0.83342800  0.33603900  1
  Mg  Mg26  1  0.94817800  0.59205500  0.30155700  1
  Mg  Mg27  1  0.58976300  0.87000300  0.34701200  1
  Mg  Mg28  1  0.33806200  0.47064000  0.35961900  1
  Mg  Mg29  1  0.34754200  0.84375700  0.31416400  1
  Mg  Mg30  1  0.50248900  0.11491300  0.35290100  1
  Mg  Mg31  1  0.70326800  0.67932900  0.30744700  1
  Mg  Mg32  1  0.85821500  0.95048600  0.34618300  1
  Mg  Mg33  1  0.09643500  0.09486400  0.35791300  1
  Mg  Mg34  1  0.21264500  0.97865400  0.28044000  1
  Mg  Mg35  1  0.86769600  0.32360300  0.30072900  1
  Mg  Mg36  1  0.36759100  0.24981100  0.31917700  1
  Mg  Mg37  1  0.56837100  0.81422700  0.27372200  1
  Mg  Mg38  1  0.20316400  0.60553700  0.32589500  1
  Mg  Mg39  1  0.72331800  0.08538300  0.31245900  1
  Mg  Mg40  1  0.89906600  0.10093400  0.40422100  1
  Mg  Mg41  1  0.08088400  0.91911600  0.44967500  1
  Mg  Mg42  1  0.84473300  0.69550000  0.37052100  1
  Mg  Mg43  1  0.48631800  0.97344900  0.41597500  1
  Mg  Mg44  1  0.34839000  0.73207600  0.38149400  1
  Mg  Mg45  1  0.44974200  0.46979100  0.42694800  1
  Mg  Mg46  1  0.31181500  0.22841800  0.39246600  1
  Mg  Mg47  1  0.95340000  0.50636700  0.43792100  1
  Mg  Mg48  1  0.70169800  0.10700300  0.45052800  1
  Mg  Mg49  1  0.71117900  0.48012000  0.40507400  1
  Mg  Mg50  1  0.86612500  0.75127700  0.44381000  1
  Mg  Mg51  1  0.06690500  0.31569300  0.39835600  1
  Mg  Mg52  1  0.22185200  0.58685000  0.43709200  1
  Mg  Mg53  1  0.46007100  0.73122800  0.44882300  1
  Mg  Mg54  1  0.57628100  0.61501800  0.37134900  1
  Mg  Mg55  1  0.23133200  0.95996700  0.39163800  1
  Mg  Mg56  1  0.73122800  0.88617400  0.41008600  1
  Mg  Mg57  1  0.93200700  0.45059000  0.36463100  1
  Mg  Mg58  1  0.56680000  0.24190100  0.41680400  1
  Mg  Mg59  1  0.08695400  0.72174700  0.40336800  1
  Mg  Mg60  1  0.26270300  0.73729700  0.49513000  1
  Mg  Mg61  1  0.44452100  0.55547900  0.54058400  1
  Mg  Mg62  1  0.20836900  0.33186400  0.46143000  1
  Mg  Mg63  1  0.84995400  0.60981300  0.50688400  1
  Mg  Mg64  1  0.71202700  0.36844000  0.47240300  1
  Mg  Mg65  1  0.81337900  0.10615500  0.51785700  1
  Mg  Mg66  1  0.67545100  0.86478200  0.48337500  1
  Mg  Mg67  1  0.31703600  0.14273100  0.52883000  1
  Mg  Mg68  1  0.06533400  0.74336700  0.54143700  1
  Mg  Mg69  1  0.07481500  0.11648400  0.49598300  1
  Mg  Mg70  1  0.22976200  0.38764100  0.53471900  1
  Mg  Mg71  1  0.43054100  0.95205700  0.48926500  1
  Mg  Mg72  1  0.58548800  0.22321300  0.52800100  1
  Mg  Mg73  1  0.82370700  0.36759100  0.53973200  1
  Mg  Mg74  1  0.93991700  0.25138100  0.46225800  1
  Mg  Mg75  1  0.59496900  0.59633000  0.48254700  1
  Mg  Mg76  1  0.09486400  0.52253800  0.50099500  1
  Mg  Mg77  1  0.29564400  0.08695400  0.45554000  1
  Mg  Mg78  1  0.93043700  0.87826400  0.50771300  1
  Mg  Mg79  1  0.45059000  0.35811100  0.49427700  1
  Mg  Mg80  1  0.62633900  0.37366100  0.58603900  1
  Mg  Mg81  1  0.80815700  0.19184300  0.63149400  1
  Mg  Mg82  1  0.57200600  0.96822800  0.55233900  1
  Mg  Mg83  1  0.21359100  0.24617600  0.59779400  1
  Mg  Mg84  1  0.07566300  0.00480300  0.56331200  1
  Mg  Mg85  1  0.17701500  0.74251900  0.60876600  1
  Mg  Mg86  1  0.03908700  0.50114600  0.57428400  1
  Mg  Mg87  1  0.68067300  0.77909400  0.61973900  1
  Mg  Mg88  1  0.42897100  0.37973100  0.63234600  1
  Mg  Mg89  1  0.43845100  0.75284800  0.58689200  1
  Mg  Mg90  1  0.59339800  0.02400400  0.62562800  1
  Mg  Mg91  1  0.79417800  0.58842000  0.58017400  1
  Mg  Mg92  1  0.94912400  0.85957700  0.61891100  1
  Mg  Mg93  1  0.18734400  0.00395500  0.63064100  1
  Mg  Mg94  1  0.30355400  0.88774500  0.55316700  1
  Mg  Mg95  1  0.95860500  0.23269400  0.57345600  1
  Mg  Mg96  1  0.45850100  0.15890200  0.59190400  1
  Mg  Mg97  1  0.65928000  0.72331800  0.54645000  1
  Mg  Mg98  1  0.29407300  0.51462800  0.59862200  1
  Mg  Mg99  1  0.81422700  0.99447400  0.58518600  1
  Mg  Mg100  1  0.98997500  0.01002500  0.67694800  1
  Mg  Mg101  1  0.17179400  0.82820600  0.72240300  1
  Mg  Mg102  1  0.93564200  0.60459100  0.64324800  1
  Mg  Mg103  1  0.57722700  0.88254000  0.68870300  1
  Mg  Mg104  1  0.43929900  0.64116700  0.65422100  1
  Mg  Mg105  1  0.54065100  0.37888200  0.69967500  1
  Mg  Mg106  1  0.40272400  0.13750900  0.66519300  1
  Mg  Mg107  1  0.04430900  0.41545800  0.71064800  1
  Mg  Mg108  1  0.79260700  0.01609400  0.72325500  1
  Mg  Mg109  1  0.80208800  0.38921100  0.67780100  1
  Mg  Mg110  1  0.95703400  0.66036800  0.71653800  1
  Mg  Mg111  1  0.15781400  0.22478400  0.67108300  1
  Mg  Mg112  1  0.31276100  0.49594100  0.70982000  1
  Mg  Mg113  1  0.55098000  0.64031900  0.72155000  1
  Mg  Mg114  1  0.66719000  0.52410900  0.64407600  1
  Mg  Mg115  1  0.32224100  0.86905800  0.66436500  1
  Mg  Mg116  1  0.82213700  0.79526500  0.68281300  1
  Mg  Mg117  1  0.02291600  0.35968100  0.63735900  1
  Mg  Mg118  1  0.65771000  0.15099200  0.68953100  1
  Mg  Mg119  1  0.17786300  0.63083800  0.67609500  1
  Mg  Mg120  1  0.35361200  0.64638800  0.76785700  1
  Mg  Mg121  1  0.29927800  0.24095500  0.73415700  1
  Mg  Mg122  1  0.94086300  0.51890400  0.77961200  1
  Mg  Mg123  1  0.80293600  0.27753000  0.74513000  1
  Mg  Mg124  1  0.90428800  0.01524600  0.79058400  1
  Mg  Mg125  1  0.76636000  0.77387300  0.75610300  1
  Mg  Mg126  1  0.40794500  0.05182200  0.80155700  1
  Mg  Mg127  1  0.16572400  0.02557500  0.76871000  1
  Mg  Mg128  1  0.32067100  0.29673200  0.80744700  1
  Mg  Mg129  1  0.52145000  0.86114700  0.76199200  1
  Mg  Mg130  1  0.67639700  0.13230400  0.80072900  1
  Mg  Mg131  1  0.03082700  0.16047200  0.73498600  1
  Mg  Mg132  1  0.68587800  0.50542100  0.75527400  1
  Mg  Mg133  1  0.18577300  0.43162900  0.77372200  1
  Mg  Mg134  1  0.38655300  0.99604500  0.72826800  1
  Mg  Mg135  1  0.02134600  0.78735500  0.78044000  1
  Mg  Mg136  1  0.54149900  0.26720200  0.76700400  1
  Rh  Rh137  1  0.41421800  0.25244900  0.19967500  1
  Rh  Rh138  1  0.92936900  0.40396400  0.24513000  1
  Rh  Rh139  1  0.78788100  0.08981500  0.18757600  1
  Rh  Rh140  1  0.09200300  0.03030000  0.23303100  1
  Rh  Rh141  1  0.95858100  0.79681200  0.19967500  1
  Rh  Rh142  1  0.38500600  0.85960100  0.24513000  1
  Rh  Rh143  1  0.25158400  0.62611200  0.21177400  1
  Rh  Rh144  1  0.55570600  0.56659800  0.25722900  1
  Rh  Rh145  1  0.77785400  0.88881200  0.29058400  1
  Rh  Rh146  1  0.29300600  0.04032800  0.33603900  1
  Rh  Rh147  1  0.15151800  0.72617900  0.27848500  1
  Rh  Rh148  1  0.45563900  0.66666400  0.32394000  1
  Rh  Rh149  1  0.32221700  0.43317600  0.29058400  1
  Rh  Rh150  1  0.74864300  0.49596400  0.33603900  1
  Rh  Rh151  1  0.61522100  0.26247600  0.30268300  1
  Rh  Rh152  1  0.91934200  0.20296100  0.34813800  1
  Rh  Rh153  1  0.14149100  0.52517600  0.38149400  1
  Rh  Rh154  1  0.65664200  0.67669100  0.42694800  1
  Rh  Rh155  1  0.51515400  0.36254200  0.36939400  1
  Rh  Rh156  1  0.81927600  0.30302800  0.41484900  1
  Rh  Rh157  1  0.68585400  0.06953900  0.38149400  1
  Rh  Rh158  1  0.11227900  0.13232800  0.42694800  1
  Rh  Rh159  1  0.97885700  0.89884000  0.39359300  1
  Rh  Rh160  1  0.28297900  0.83932500  0.43904700  1
  Rh  Rh161  1  0.50512700  0.16154000  0.47240300  1
  Rh  Rh162  1  0.02027800  0.31305500  0.51785700  1
  Rh  Rh163  1  0.87879000  0.99890600  0.46030400  1
  Rh  Rh164  1  0.18291200  0.93939100  0.50575800  1
  Rh  Rh165  1  0.04949000  0.70590300  0.47240300  1
  Rh  Rh166  1  0.47591500  0.76869200  0.51785700  1
  Rh  Rh167  1  0.34249300  0.53520300  0.48450200  1
  Rh  Rh168  1  0.64661500  0.47568900  0.52995600  1
  Rh  Rh169  1  0.86876300  0.79790300  0.56331200  1
  Rh  Rh170  1  0.38391500  0.94941900  0.60876600  1
  Rh  Rh171  1  0.24242700  0.63527000  0.55121300  1
  Rh  Rh172  1  0.54654800  0.57575500  0.59666700  1
  Rh  Rh173  1  0.41312600  0.34226700  0.56331200  1
  Rh  Rh174  1  0.83955200  0.40505500  0.60876600  1
  Rh  Rh175  1  0.70613000  0.17156700  0.57541100  1
  Rh  Rh176  1  0.01025100  0.11205200  0.62086500  1
  Rh  Rh177  1  0.23240000  0.43426700  0.65422100  1
  Rh  Rh178  1  0.74755100  0.58578200  0.69967500  1
  Rh  Rh179  1  0.60606300  0.27163300  0.64212200  1
  Rh  Rh180  1  0.91018500  0.21211900  0.68757600  1
  Rh  Rh181  1  0.77676300  0.97863000  0.65422100  1
  Rh  Rh182  1  0.20318800  0.04141900  0.69967500  1
  Rh  Rh183  1  0.06976600  0.80793100  0.66632000  1
  Rh  Rh184  1  0.37388800  0.74841600  0.71177400  1
  Rh  Rh185  1  0.59603600  0.07063100  0.74513000  1
  Rh  Rh186  1  0.11118800  0.22214600  0.79058400  1
  Rh  Rh187  1  0.96970000  0.90799700  0.73303100  1
  Rh  Rh188  1  0.27382100  0.84848200  0.77848500  1
  Rh  Rh189  1  0.14039900  0.61499400  0.74513000  1
  Rh  Rh190  1  0.56682400  0.67778300  0.79058400  1
  Rh  Rh191  1  0.43340200  0.44429400  0.75722900  1
  Rh  Rh192  1  0.73752400  0.38477900  0.80268300  1
