# generated using pymatgen
data_Lu3Mg
_symmetry_space_group_name_H-M   'P 1'
_cell_length_a   5.47453400
_cell_length_b   6.87894400
_cell_length_c   47.65872100
_cell_angle_alpha   90.00000000
_cell_angle_beta   90.00000000
_cell_angle_gamma   90.00000000
_symmetry_Int_Tables_number   1
_chemical_formula_structural   Lu3Mg
_chemical_formula_sum   'Lu30 Mg10'
_cell_volume   1794.78038475
_cell_formula_units_Z   10
loop_
 _symmetry_equiv_pos_site_id
 _symmetry_equiv_pos_as_xyz
  1  'x, y, z'
loop_
 _atom_site_type_symbol
 _atom_site_label
 _atom_site_symmetry_multiplicity
 _atom_site_fract_x
 _atom_site_fract_y
 _atom_site_fract_z
 _atom_site_occupancy
  Lu  Lu0  1  0.75000000  0.75000000  0.29192000  1
  Lu  Lu1  1  0.75000000  0.49848000  0.22904000  1
  Lu  Lu2  1  0.75000000  0.00152000  0.22904000  1
  Lu  Lu3  1  0.25000000  0.49848000  0.27096000  1
  Lu  Lu4  1  0.25000000  0.00152000  0.27096000  1
  Lu  Lu5  1  0.25000000  0.75000000  0.20808000  1
  Lu  Lu6  1  0.75000000  0.25000000  0.41692000  1
  Lu  Lu7  1  0.75000000  0.99848000  0.35404000  1
  Lu  Lu8  1  0.75000000  0.50152000  0.35404000  1
  Lu  Lu9  1  0.25000000  0.99848000  0.39596000  1
  Lu  Lu10  1  0.25000000  0.50152000  0.39596000  1
  Lu  Lu11  1  0.25000000  0.25000000  0.33308000  1
  Lu  Lu12  1  0.75000000  0.75000000  0.54192000  1
  Lu  Lu13  1  0.75000000  0.49848000  0.47904000  1
  Lu  Lu14  1  0.75000000  0.00152000  0.47904000  1
  Lu  Lu15  1  0.25000000  0.49848000  0.52096000  1
  Lu  Lu16  1  0.25000000  0.00152000  0.52096000  1
  Lu  Lu17  1  0.25000000  0.75000000  0.45808000  1
  Lu  Lu18  1  0.75000000  0.25000000  0.66692000  1
  Lu  Lu19  1  0.75000000  0.99848000  0.60404000  1
  Lu  Lu20  1  0.75000000  0.50152000  0.60404000  1
  Lu  Lu21  1  0.25000000  0.99848000  0.64596000  1
  Lu  Lu22  1  0.25000000  0.50152000  0.64596000  1
  Lu  Lu23  1  0.25000000  0.25000000  0.58308000  1
  Lu  Lu24  1  0.75000000  0.75000000  0.79192000  1
  Lu  Lu25  1  0.75000000  0.49848000  0.72904000  1
  Lu  Lu26  1  0.75000000  0.00152000  0.72904000  1
  Lu  Lu27  1  0.25000000  0.49848000  0.77096000  1
  Lu  Lu28  1  0.25000000  0.00152000  0.77096000  1
  Lu  Lu29  1  0.25000000  0.75000000  0.70808000  1
  Mg  Mg30  1  0.75000000  0.25000000  0.29166700  1
  Mg  Mg31  1  0.25000000  0.25000000  0.20833300  1
  Mg  Mg32  1  0.75000000  0.75000000  0.41666700  1
  Mg  Mg33  1  0.25000000  0.75000000  0.33333300  1
  Mg  Mg34  1  0.75000000  0.25000000  0.54166700  1
  Mg  Mg35  1  0.25000000  0.25000000  0.45833300  1
  Mg  Mg36  1  0.75000000  0.75000000  0.66666700  1
  Mg  Mg37  1  0.25000000  0.75000000  0.58333300  1
  Mg  Mg38  1  0.75000000  0.25000000  0.79166700  1
  Mg  Mg39  1  0.25000000  0.25000000  0.70833300  1
