# generated using pymatgen
data_Mg29Zn51
_symmetry_space_group_name_H-M   'P 1'
_cell_length_a   13.26606209
_cell_length_b   14.70723619
_cell_length_c   50.02254400
_cell_angle_alpha   94.04592358
_cell_angle_beta   85.51984715
_cell_angle_gamma   104.27395804
_symmetry_Int_Tables_number   1
_chemical_formula_structural   Mg29Zn51
_chemical_formula_sum   'Mg116 Zn204'
_cell_volume   9416.24948960
_cell_formula_units_Z   4
loop_
 _symmetry_equiv_pos_site_id
 _symmetry_equiv_pos_as_xyz
  1  'x, y, z'
loop_
 _atom_site_type_symbol
 _atom_site_label
 _atom_site_symmetry_multiplicity
 _atom_site_fract_x
 _atom_site_fract_y
 _atom_site_fract_z
 _atom_site_occupancy
  Mg  Mg0  1  0.65111100  0.89982000  0.29667100  1
  Mg  Mg1  1  0.56943000  0.35231700  0.23912600  1
  Mg  Mg2  1  0.82957400  0.95641800  0.25307500  1
  Mg  Mg3  1  0.91061300  0.60215500  0.25748300  1
  Mg  Mg4  1  0.48311000  0.02805300  0.28741800  1
  Mg  Mg5  1  0.67213000  0.57654400  0.24518100  1
  Mg  Mg6  1  0.04979700  0.04358200  0.26510600  1
  Mg  Mg7  1  0.55079900  0.67618400  0.29134100  1
  Mg  Mg8  1  0.96875800  0.39784500  0.26069900  1
  Mg  Mg9  1  0.30994100  0.64768300  0.27905600  1
  Mg  Mg10  1  0.32857200  0.32381600  0.22684100  1
  Mg  Mg11  1  0.58717200  0.25117100  0.29320100  1
  Mg  Mg12  1  0.29219900  0.74882900  0.22498100  1
  Mg  Mg13  1  0.20724000  0.42345600  0.27300100  1
  Mg  Mg14  1  0.22826000  0.10018000  0.22151100  1
  Mg  Mg15  1  0.39626100  0.97194700  0.23076400  1
  Mg  Mg16  1  0.55111100  0.89982000  0.39667100  1
  Mg  Mg17  1  0.95504900  0.71342500  0.31296100  1
  Mg  Mg18  1  0.46943000  0.35231700  0.33912600  1
  Mg  Mg19  1  0.72957400  0.95641800  0.35307500  1
  Mg  Mg20  1  0.81061300  0.60215500  0.35748300  1
  Mg  Mg21  1  0.38311000  0.02805300  0.38741800  1
  Mg  Mg22  1  0.57213000  0.57654400  0.34518100  1
  Mg  Mg23  1  0.94979700  0.04358200  0.36510600  1
  Mg  Mg24  1  0.45079900  0.67618400  0.39134100  1
  Mg  Mg25  1  0.86875800  0.39784500  0.36069900  1
  Mg  Mg26  1  0.20994100  0.64768300  0.37905600  1
  Mg  Mg27  1  0.22857200  0.32381600  0.32684100  1
  Mg  Mg28  1  0.90247400  0.90491200  0.30991100  1
  Mg  Mg29  1  0.48717200  0.25117100  0.39320100  1
  Mg  Mg30  1  0.19219900  0.74882900  0.32498100  1
  Mg  Mg31  1  0.10724000  0.42345600  0.37300100  1
  Mg  Mg32  1  0.12826000  0.10018000  0.32151100  1
  Mg  Mg33  1  0.29626100  0.97194700  0.33076400  1
  Mg  Mg34  1  0.82432100  0.28657500  0.30522100  1
  Mg  Mg35  1  0.87689700  0.09508800  0.30827000  1
  Mg  Mg36  1  0.45111100  0.89982000  0.49667100  1
  Mg  Mg37  1  0.85504900  0.71342500  0.41296100  1
  Mg  Mg38  1  0.36943000  0.35231700  0.43912600  1
  Mg  Mg39  1  0.62957400  0.95641800  0.45307500  1
  Mg  Mg40  1  0.71061300  0.60215500  0.45748300  1
  Mg  Mg41  1  0.28311000  0.02805300  0.48741800  1
  Mg  Mg42  1  0.47213000  0.57654400  0.44518100  1
  Mg  Mg43  1  0.84979700  0.04358200  0.46510600  1
  Mg  Mg44  1  0.35079900  0.67618400  0.49134100  1
  Mg  Mg45  1  0.76875800  0.39784500  0.46069900  1
  Mg  Mg46  1  0.10994100  0.64768300  0.47905600  1
  Mg  Mg47  1  0.12857200  0.32381600  0.42684100  1
  Mg  Mg48  1  0.80247400  0.90491200  0.40991100  1
  Mg  Mg49  1  0.38717200  0.25117100  0.49320100  1
  Mg  Mg50  1  0.09219900  0.74882900  0.42498100  1
  Mg  Mg51  1  0.00724000  0.42345600  0.47300100  1
  Mg  Mg52  1  0.02826000  0.10018000  0.42151100  1
  Mg  Mg53  1  0.19626100  0.97194700  0.43076400  1
  Mg  Mg54  1  0.72432100  0.28657500  0.40522100  1
  Mg  Mg55  1  0.77689700  0.09508800  0.40827000  1
  Mg  Mg56  1  0.35111100  0.89982000  0.59667100  1
  Mg  Mg57  1  0.75504900  0.71342500  0.51296100  1
  Mg  Mg58  1  0.26943000  0.35231700  0.53912600  1
  Mg  Mg59  1  0.52957400  0.95641800  0.55307500  1
  Mg  Mg60  1  0.61061300  0.60215500  0.55748300  1
  Mg  Mg61  1  0.18311000  0.02805300  0.58741800  1
  Mg  Mg62  1  0.37213000  0.57654400  0.54518100  1
  Mg  Mg63  1  0.74979700  0.04358200  0.56510600  1
  Mg  Mg64  1  0.25079900  0.67618400  0.59134100  1
  Mg  Mg65  1  0.66875800  0.39784500  0.56069900  1
  Mg  Mg66  1  0.00994100  0.64768300  0.57905600  1
  Mg  Mg67  1  0.02857200  0.32381600  0.52684100  1
  Mg  Mg68  1  0.70247400  0.90491200  0.50991100  1
  Mg  Mg69  1  0.28717200  0.25117100  0.59320100  1
  Mg  Mg70  1  0.99219900  0.74882900  0.52498100  1
  Mg  Mg71  1  0.90724000  0.42345600  0.57300100  1
  Mg  Mg72  1  0.92826000  0.10018000  0.52151100  1
  Mg  Mg73  1  0.09626100  0.97194700  0.53076400  1
  Mg  Mg74  1  0.62432100  0.28657500  0.50522100  1
  Mg  Mg75  1  0.67689700  0.09508800  0.50827000  1
  Mg  Mg76  1  0.25111100  0.89982000  0.69667100  1
  Mg  Mg77  1  0.65504900  0.71342500  0.61296100  1
  Mg  Mg78  1  0.16943000  0.35231700  0.63912600  1
  Mg  Mg79  1  0.42957400  0.95641800  0.65307500  1
  Mg  Mg80  1  0.51061300  0.60215500  0.65748300  1
  Mg  Mg81  1  0.08311000  0.02805300  0.68741800  1
  Mg  Mg82  1  0.27213000  0.57654400  0.64518100  1
  Mg  Mg83  1  0.64979700  0.04358200  0.66510600  1
  Mg  Mg84  1  0.15079900  0.67618400  0.69134100  1
  Mg  Mg85  1  0.56875800  0.39784500  0.66069900  1
  Mg  Mg86  1  0.90994100  0.64768300  0.67905600  1
  Mg  Mg87  1  0.92857200  0.32381600  0.62684100  1
  Mg  Mg88  1  0.60247400  0.90491200  0.60991100  1
  Mg  Mg89  1  0.18717200  0.25117100  0.69320100  1
  Mg  Mg90  1  0.89219900  0.74882900  0.62498100  1
  Mg  Mg91  1  0.80724000  0.42345600  0.67300100  1
  Mg  Mg92  1  0.82826000  0.10018000  0.62151100  1
  Mg  Mg93  1  0.99626100  0.97194700  0.63076400  1
  Mg  Mg94  1  0.52432100  0.28657500  0.60522100  1
  Mg  Mg95  1  0.57689700  0.09508800  0.60827000  1
  Mg  Mg96  1  0.15111100  0.89982000  0.79667100  1
  Mg  Mg97  1  0.55504900  0.71342500  0.71296100  1
  Mg  Mg98  1  0.06943000  0.35231700  0.73912600  1
  Mg  Mg99  1  0.32957400  0.95641800  0.75307500  1
  Mg  Mg100  1  0.41061300  0.60215500  0.75748300  1
  Mg  Mg101  1  0.98311000  0.02805300  0.78741800  1
  Mg  Mg102  1  0.17213000  0.57654400  0.74518100  1
  Mg  Mg103  1  0.54979700  0.04358200  0.76510600  1
  Mg  Mg104  1  0.05079900  0.67618400  0.79134100  1
  Mg  Mg105  1  0.46875800  0.39784500  0.76069900  1
  Mg  Mg106  1  0.80994100  0.64768300  0.77905600  1
  Mg  Mg107  1  0.82857200  0.32381600  0.72684100  1
  Mg  Mg108  1  0.50247400  0.90491200  0.70991100  1
  Mg  Mg109  1  0.08717200  0.25117100  0.79320100  1
  Mg  Mg110  1  0.79219900  0.74882900  0.72498100  1
  Mg  Mg111  1  0.70724000  0.42345600  0.77300100  1
  Mg  Mg112  1  0.72826000  0.10018000  0.72151100  1
  Mg  Mg113  1  0.89626100  0.97194700  0.73076400  1
  Mg  Mg114  1  0.42432100  0.28657500  0.70522100  1
  Mg  Mg115  1  0.47689700  0.09508800  0.70827000  1
  Zn  Zn116  1  0.97358200  0.81738700  0.26095200  1
  Zn  Zn117  1  0.47794600  0.66285200  0.23441900  1
  Zn  Zn118  1  0.05212000  0.24831100  0.29138800  1
  Zn  Zn119  1  0.13383800  0.57676400  0.24350300  1
  Zn  Zn120  1  0.78078300  0.75046900  0.27735400  1
  Zn  Zn121  1  0.43968500  0.50000000  0.25909100  1
  Zn  Zn122  1  0.29598500  0.86290600  0.27775900  1
  Zn  Zn123  1  0.79453400  0.42312300  0.22530100  1
  Zn  Zn124  1  0.46867400  0.82447600  0.26097500  1
  Zn  Zn125  1  0.61547000  0.96319600  0.24211900  1
  Zn  Zn126  1  0.56952100  0.46639900  0.29219600  1
  Zn  Zn127  1  0.75861400  0.26762300  0.24898100  1
  Zn  Zn128  1  0.90578900  0.18261300  0.25723000  1
  Zn  Zn129  1  0.58338600  0.13709400  0.24042300  1
  Zn  Zn130  1  0.76448200  0.09965700  0.22259000  1
  Zn  Zn131  1  0.08483700  0.57687700  0.29288100  1
  Zn  Zn132  1  0.09858800  0.24953100  0.24082800  1
  Zn  Zn133  1  0.30984900  0.53360100  0.22598500  1
  Zn  Zn134  1  0.11488800  0.90034300  0.29559100  1
  Zn  Zn135  1  0.74553300  0.42323600  0.27467800  1
  Zn  Zn136  1  0.65139900  0.78453800  0.24450200  1
  Zn  Zn137  1  0.71565200  0.09783900  0.27406200  1
  Zn  Zn138  1  0.22797200  0.21546200  0.27368000  1
  Zn  Zn139  1  0.16371900  0.90216100  0.24411900  1
  Zn  Zn140  1  0.12075700  0.73237700  0.26920100  1
  Zn  Zn141  1  0.82725100  0.75168900  0.22679400  1
  Zn  Zn142  1  0.41069600  0.17552400  0.25720600  1
  Zn  Zn143  1  0.26390100  0.03680400  0.27606300  1
  Zn  Zn144  1  0.40142500  0.33714800  0.28376300  1
  Zn  Zn145  1  0.74602000  0.59229000  0.30196100  1
  Zn  Zn146  1  0.87358200  0.81738700  0.36095200  1
  Zn  Zn147  1  0.37794600  0.66285200  0.33441900  1
  Zn  Zn148  1  0.95212000  0.24831100  0.39138800  1
  Zn  Zn149  1  0.03383800  0.57676400  0.34350300  1
  Zn  Zn150  1  0.68078300  0.75046900  0.37735400  1
  Zn  Zn151  1  0.33968500  0.50000000  0.35909100  1
  Zn  Zn152  1  0.03335100  0.40771000  0.31622100  1
  Zn  Zn153  1  0.19598500  0.86290600  0.37775900  1
  Zn  Zn154  1  0.69453400  0.42312300  0.32530100  1
  Zn  Zn155  1  0.36867400  0.82447600  0.36097500  1
  Zn  Zn156  1  0.51547000  0.96319600  0.34211900  1
  Zn  Zn157  1  0.46952100  0.46639900  0.39219600  1
  Zn  Zn158  1  0.65861400  0.26762300  0.34898100  1
  Zn  Zn159  1  0.80578900  0.18261300  0.35723000  1
  Zn  Zn160  1  0.48338600  0.13709400  0.34042300  1
  Zn  Zn161  1  0.66448200  0.09965700  0.32259000  1
  Zn  Zn162  1  0.98483700  0.57687700  0.39288100  1
  Zn  Zn163  1  0.99858800  0.24953100  0.34082800  1
  Zn  Zn164  1  0.20984900  0.53360100  0.32598500  1
  Zn  Zn165  1  0.01488800  0.90034300  0.39559100  1
  Zn  Zn166  1  0.64553300  0.42323600  0.37467800  1
  Zn  Zn167  1  0.38968500  0.50000000  0.30909100  1
  Zn  Zn168  1  0.55139900  0.78453800  0.34450200  1
  Zn  Zn169  1  0.41765100  0.82500200  0.31049400  1
  Zn  Zn170  1  0.61565200  0.09783900  0.37406200  1
  Zn  Zn171  1  0.12797200  0.21546200  0.37368000  1
  Zn  Zn172  1  0.06371900  0.90216100  0.34411900  1
  Zn  Zn173  1  0.02075700  0.73237700  0.36920100  1
  Zn  Zn174  1  0.36172000  0.17499800  0.30768800  1
  Zn  Zn175  1  0.72725100  0.75168900  0.32679400  1
  Zn  Zn176  1  0.88968500  0.50000000  0.30909100  1
  Zn  Zn177  1  0.31069600  0.17552400  0.35720600  1
  Zn  Zn178  1  0.16390100  0.03680400  0.37606300  1
  Zn  Zn179  1  0.30142500  0.33714800  0.38376300  1
  Zn  Zn180  1  0.64602000  0.59229000  0.40196100  1
  Zn  Zn181  1  0.77358200  0.81738700  0.46095200  1
  Zn  Zn182  1  0.27794600  0.66285200  0.43441900  1
  Zn  Zn183  1  0.85212000  0.24831100  0.49138800  1
  Zn  Zn184  1  0.93383800  0.57676400  0.44350300  1
  Zn  Zn185  1  0.58078300  0.75046900  0.47735400  1
  Zn  Zn186  1  0.23968500  0.50000000  0.45909100  1
  Zn  Zn187  1  0.93335100  0.40771000  0.41622100  1
  Zn  Zn188  1  0.09598500  0.86290600  0.47775900  1
  Zn  Zn189  1  0.59453400  0.42312300  0.42530100  1
  Zn  Zn190  1  0.26867400  0.82447600  0.46097500  1
  Zn  Zn191  1  0.41547000  0.96319600  0.44211900  1
  Zn  Zn192  1  0.36952100  0.46639900  0.49219600  1
  Zn  Zn193  1  0.55861400  0.26762300  0.44898100  1
  Zn  Zn194  1  0.70578900  0.18261300  0.45723000  1
  Zn  Zn195  1  0.38338600  0.13709400  0.44042300  1
  Zn  Zn196  1  0.56448200  0.09965700  0.42259000  1
  Zn  Zn197  1  0.88483700  0.57687700  0.49288100  1
  Zn  Zn198  1  0.89858800  0.24953100  0.44082800  1
  Zn  Zn199  1  0.10984900  0.53360100  0.42598500  1
  Zn  Zn200  1  0.91488800  0.90034300  0.49559100  1
  Zn  Zn201  1  0.54553300  0.42323600  0.47467800  1
  Zn  Zn202  1  0.28968500  0.50000000  0.40909100  1
  Zn  Zn203  1  0.45139900  0.78453800  0.44450200  1
  Zn  Zn204  1  0.31765100  0.82500200  0.41049400  1
  Zn  Zn205  1  0.51565200  0.09783900  0.47406200  1
  Zn  Zn206  1  0.02797200  0.21546200  0.47368000  1
  Zn  Zn207  1  0.96371900  0.90216100  0.44411900  1
  Zn  Zn208  1  0.92075700  0.73237700  0.46920100  1
  Zn  Zn209  1  0.26172000  0.17499800  0.40768800  1
  Zn  Zn210  1  0.62725100  0.75168900  0.42679400  1
  Zn  Zn211  1  0.78968500  0.50000000  0.40909100  1
  Zn  Zn212  1  0.21069600  0.17552400  0.45720600  1
  Zn  Zn213  1  0.06390100  0.03680400  0.47606300  1
  Zn  Zn214  1  0.20142500  0.33714800  0.48376300  1
  Zn  Zn215  1  0.54602000  0.59229000  0.50196100  1
  Zn  Zn216  1  0.67358200  0.81738700  0.56095200  1
  Zn  Zn217  1  0.17794600  0.66285200  0.53441900  1
  Zn  Zn218  1  0.75212000  0.24831100  0.59138800  1
  Zn  Zn219  1  0.83383800  0.57676400  0.54350300  1
  Zn  Zn220  1  0.48078300  0.75046900  0.57735400  1
  Zn  Zn221  1  0.13968500  0.50000000  0.55909100  1
  Zn  Zn222  1  0.83335100  0.40771000  0.51622100  1
  Zn  Zn223  1  0.99598500  0.86290600  0.57775900  1
  Zn  Zn224  1  0.49453400  0.42312300  0.52530100  1
  Zn  Zn225  1  0.16867400  0.82447600  0.56097500  1
  Zn  Zn226  1  0.31547000  0.96319600  0.54211900  1
  Zn  Zn227  1  0.26952100  0.46639900  0.59219600  1
  Zn  Zn228  1  0.45861400  0.26762300  0.54898100  1
  Zn  Zn229  1  0.60578900  0.18261300  0.55723000  1
  Zn  Zn230  1  0.28338600  0.13709400  0.54042300  1
  Zn  Zn231  1  0.46448200  0.09965700  0.52259000  1
  Zn  Zn232  1  0.78483700  0.57687700  0.59288100  1
  Zn  Zn233  1  0.79858800  0.24953100  0.54082800  1
  Zn  Zn234  1  0.00984900  0.53360100  0.52598500  1
  Zn  Zn235  1  0.81488800  0.90034300  0.59559100  1
  Zn  Zn236  1  0.44553300  0.42323600  0.57467800  1
  Zn  Zn237  1  0.18968500  0.50000000  0.50909100  1
  Zn  Zn238  1  0.35139900  0.78453800  0.54450200  1
  Zn  Zn239  1  0.21765100  0.82500200  0.51049400  1
  Zn  Zn240  1  0.41565200  0.09783900  0.57406200  1
  Zn  Zn241  1  0.92797200  0.21546200  0.57368000  1
  Zn  Zn242  1  0.86371900  0.90216100  0.54411900  1
  Zn  Zn243  1  0.82075700  0.73237700  0.56920100  1
  Zn  Zn244  1  0.16172000  0.17499800  0.50768800  1
  Zn  Zn245  1  0.52725100  0.75168900  0.52679400  1
  Zn  Zn246  1  0.68968500  0.50000000  0.50909100  1
  Zn  Zn247  1  0.11069600  0.17552400  0.55720600  1
  Zn  Zn248  1  0.96390100  0.03680400  0.57606300  1
  Zn  Zn249  1  0.10142500  0.33714800  0.58376300  1
  Zn  Zn250  1  0.44602000  0.59229000  0.60196100  1
  Zn  Zn251  1  0.57358200  0.81738700  0.66095200  1
  Zn  Zn252  1  0.07794600  0.66285200  0.63441900  1
  Zn  Zn253  1  0.65212000  0.24831100  0.69138800  1
  Zn  Zn254  1  0.73383800  0.57676400  0.64350300  1
  Zn  Zn255  1  0.38078300  0.75046900  0.67735400  1
  Zn  Zn256  1  0.03968500  0.50000000  0.65909100  1
  Zn  Zn257  1  0.73335100  0.40771000  0.61622100  1
  Zn  Zn258  1  0.89598500  0.86290600  0.67775900  1
  Zn  Zn259  1  0.39453400  0.42312300  0.62530100  1
  Zn  Zn260  1  0.06867400  0.82447600  0.66097500  1
  Zn  Zn261  1  0.21547000  0.96319600  0.64211900  1
  Zn  Zn262  1  0.16952100  0.46639900  0.69219600  1
  Zn  Zn263  1  0.35861400  0.26762300  0.64898100  1
  Zn  Zn264  1  0.50578900  0.18261300  0.65723000  1
  Zn  Zn265  1  0.18338600  0.13709400  0.64042300  1
  Zn  Zn266  1  0.36448200  0.09965700  0.62259000  1
  Zn  Zn267  1  0.68483700  0.57687700  0.69288100  1
  Zn  Zn268  1  0.69858800  0.24953100  0.64082800  1
  Zn  Zn269  1  0.90984900  0.53360100  0.62598500  1
  Zn  Zn270  1  0.71488800  0.90034300  0.69559100  1
  Zn  Zn271  1  0.34553300  0.42323600  0.67467800  1
  Zn  Zn272  1  0.08968500  0.50000000  0.60909100  1
  Zn  Zn273  1  0.25139900  0.78453800  0.64450200  1
  Zn  Zn274  1  0.11765100  0.82500200  0.61049400  1
  Zn  Zn275  1  0.31565200  0.09783900  0.67406200  1
  Zn  Zn276  1  0.82797200  0.21546200  0.67368000  1
  Zn  Zn277  1  0.76371900  0.90216100  0.64411900  1
  Zn  Zn278  1  0.72075700  0.73237700  0.66920100  1
  Zn  Zn279  1  0.06172000  0.17499800  0.60768800  1
  Zn  Zn280  1  0.42725100  0.75168900  0.62679400  1
  Zn  Zn281  1  0.58968500  0.50000000  0.60909100  1
  Zn  Zn282  1  0.01069600  0.17552400  0.65720600  1
  Zn  Zn283  1  0.86390100  0.03680400  0.67606300  1
  Zn  Zn284  1  0.00142500  0.33714800  0.68376300  1
  Zn  Zn285  1  0.34602000  0.59229000  0.70196100  1
  Zn  Zn286  1  0.47358200  0.81738700  0.76095200  1
  Zn  Zn287  1  0.97794600  0.66285200  0.73441900  1
  Zn  Zn288  1  0.55212000  0.24831100  0.79138800  1
  Zn  Zn289  1  0.63383800  0.57676400  0.74350300  1
  Zn  Zn290  1  0.28078300  0.75046900  0.77735400  1
  Zn  Zn291  1  0.93968500  0.50000000  0.75909100  1
  Zn  Zn292  1  0.63335100  0.40771000  0.71622100  1
  Zn  Zn293  1  0.79598500  0.86290600  0.77775900  1
  Zn  Zn294  1  0.29453400  0.42312300  0.72530100  1
  Zn  Zn295  1  0.96867400  0.82447600  0.76097500  1
  Zn  Zn296  1  0.11547000  0.96319600  0.74211900  1
  Zn  Zn297  1  0.06952100  0.46639900  0.79219600  1
  Zn  Zn298  1  0.25861400  0.26762300  0.74898100  1
  Zn  Zn299  1  0.40578900  0.18261300  0.75723000  1
  Zn  Zn300  1  0.08338600  0.13709400  0.74042300  1
  Zn  Zn301  1  0.26448200  0.09965700  0.72259000  1
  Zn  Zn302  1  0.58483700  0.57687700  0.79288100  1
  Zn  Zn303  1  0.59858800  0.24953100  0.74082800  1
  Zn  Zn304  1  0.80984900  0.53360100  0.72598500  1
  Zn  Zn305  1  0.61488800  0.90034300  0.79559100  1
  Zn  Zn306  1  0.24553300  0.42323600  0.77467800  1
  Zn  Zn307  1  0.98968500  0.50000000  0.70909100  1
  Zn  Zn308  1  0.15139900  0.78453800  0.74450200  1
  Zn  Zn309  1  0.01765100  0.82500200  0.71049400  1
  Zn  Zn310  1  0.21565200  0.09783900  0.77406200  1
  Zn  Zn311  1  0.72797200  0.21546200  0.77368000  1
  Zn  Zn312  1  0.66371900  0.90216100  0.74411900  1
  Zn  Zn313  1  0.62075700  0.73237700  0.76920100  1
  Zn  Zn314  1  0.96172000  0.17499800  0.70768800  1
  Zn  Zn315  1  0.32725100  0.75168900  0.72679400  1
  Zn  Zn316  1  0.48968500  0.50000000  0.70909100  1
  Zn  Zn317  1  0.91069600  0.17552400  0.75720600  1
  Zn  Zn318  1  0.76390100  0.03680400  0.77606300  1
  Zn  Zn319  1  0.90142500  0.33714800  0.78376300  1
