# generated using pymatgen
data_Mg295Ir66
_symmetry_space_group_name_H-M   'P 1'
_cell_length_a   16.34592500
_cell_length_b   18.30800151
_cell_length_c   50.01409000
_cell_angle_alpha   93.80824052
_cell_angle_beta   90.00000000
_cell_angle_gamma   116.51389344
_symmetry_Int_Tables_number   1
_chemical_formula_structural   Mg295Ir66
_chemical_formula_sum   'Mg295 Ir66'
_cell_volume   13356.16774261
_cell_formula_units_Z   1
loop_
 _symmetry_equiv_pos_site_id
 _symmetry_equiv_pos_as_xyz
  1  'x, y, z'
loop_
 _atom_site_type_symbol
 _atom_site_label
 _atom_site_symmetry_multiplicity
 _atom_site_fract_x
 _atom_site_fract_y
 _atom_site_fract_z
 _atom_site_occupancy
  Mg  Mg0  1  0.20439100  0.90878200  0.25520800  1
  Mg  Mg1  1  0.41867700  0.33735300  0.30282700  1
  Mg  Mg2  1  0.91867700  0.83735300  0.30282700  1
  Mg  Mg3  1  0.27582000  0.05163900  0.32663700  1
  Mg  Mg4  1  0.12649800  0.88553800  0.30985700  1
  Mg  Mg5  1  0.01550400  0.76592500  0.26711300  1
  Mg  Mg6  1  0.40189700  0.17125200  0.28604800  1
  Mg  Mg7  1  0.42514100  0.21774000  0.34341700  1
  Mg  Mg8  1  0.09724800  0.19449600  0.31473200  1
  Mg  Mg9  1  0.19813300  0.07810100  0.27227600  1
  Mg  Mg10  1  0.48537500  0.08260700  0.33804200  1
  Mg  Mg11  1  0.61023400  0.42677500  0.33587500  1
  Mg  Mg12  1  0.59726400  0.30638600  0.29142200  1
  Mg  Mg13  1  0.31452800  0.31089100  0.35718800  1
  Mg  Mg14  1  0.37795500  0.96221800  0.29358900  1
  Mg  Mg15  1  0.06626500  0.02067200  0.31523200  1
  Mg  Mg16  1  0.94140600  0.67650400  0.31739900  1
  Mg  Mg17  1  0.23711100  0.79238700  0.29608600  1
  Mg  Mg18  1  0.17368400  0.14106000  0.35968500  1
  Mg  Mg19  1  0.56153400  0.12306800  0.27901800  1
  Mg  Mg20  1  0.91867700  0.33735300  0.30282700  1
  Mg  Mg21  1  0.13296200  0.76592500  0.35044600  1
  Mg  Mg22  1  0.63296200  0.26592500  0.35044600  1
  Mg  Mg23  1  0.06153400  0.62306800  0.27901800  1
  Mg  Mg24  1  0.72117100  0.07488300  0.27198800  1
  Mg  Mg25  1  0.84078400  0.31410900  0.35747600  1
  Mg  Mg26  1  0.72979000  0.19449600  0.31473200  1
  Mg  Mg27  1  0.11618300  0.59982400  0.33366700  1
  Mg  Mg28  1  0.99657000  0.36059800  0.24817900  1
  Mg  Mg29  1  0.10756300  0.48021100  0.29092300  1
  Mg  Mg30  1  0.74010500  0.48021100  0.29092300  1
  Mg  Mg31  1  0.91241900  0.50667300  0.31989500  1
  Mg  Mg32  1  0.31155000  0.73495700  0.33904100  1
  Mg  Mg33  1  0.88595700  0.45374800  0.26195000  1
  Mg  Mg34  1  0.09224100  0.39078900  0.34120800  1
  Mg  Mg35  1  0.92493500  0.16803400  0.28575900  1
  Mg  Mg36  1  0.52580300  0.93974900  0.26661300  1
  Mg  Mg37  1  0.95139700  0.22095900  0.34370500  1
  Mg  Mg38  1  0.74511200  0.28391700  0.26444600  1
  Mg  Mg39  1  0.27582000  0.55163900  0.32663700  1
  Mg  Mg40  1  0.63296200  0.76592500  0.35044600  1
  Mg  Mg41  1  0.70439100  0.90878200  0.25520800  1
  Mg  Mg42  1  0.20439100  0.40878200  0.25520800  1
  Mg  Mg43  1  0.56153400  0.62306800  0.27901800  1
  Mg  Mg44  1  0.77582000  0.05163900  0.32663700  1
  Mg  Mg45  1  0.43545600  0.50345500  0.31960700  1
  Mg  Mg46  1  0.41221200  0.45696600  0.26223800  1
  Mg  Mg47  1  0.71085500  0.78916900  0.29579800  1
  Mg  Mg48  1  0.82184900  0.90878200  0.33854200  1
  Mg  Mg49  1  0.38296200  0.76592500  0.26711300  1
  Mg  Mg50  1  0.45439100  0.90878200  0.33854200  1
  Mg  Mg51  1  0.77108900  0.65403500  0.29042300  1
  Mg  Mg52  1  0.89594800  0.99820300  0.28825600  1
  Mg  Mg53  1  0.60024200  0.88232000  0.30956900  1
  Mg  Mg54  1  0.66367000  0.53364700  0.24597000  1
  Mg  Mg55  1  0.63922000  0.59660600  0.33337800  1
  Mg  Mg56  1  0.35197900  0.59210000  0.26761300  1
  Mg  Mg57  1  0.22712000  0.24793200  0.26978000  1
  Mg  Mg58  1  0.24008900  0.36832100  0.31423200  1
  Mg  Mg59  1  0.52282500  0.36381600  0.24846700  1
  Mg  Mg60  1  0.45939800  0.71248900  0.31206500  1
  Mg  Mg61  1  0.99010500  0.98021100  0.37425600  1
  Mg  Mg62  1  0.34724800  0.19449600  0.39806500  1
  Mg  Mg63  1  0.56153400  0.62306800  0.44568500  1
  Mg  Mg64  1  0.06153400  0.12306800  0.44568500  1
  Mg  Mg65  1  0.41867700  0.33735300  0.46949400  1
  Mg  Mg66  1  0.49010500  0.48021100  0.37425600  1
  Mg  Mg67  1  0.14974200  0.93202600  0.36722600  1
  Mg  Mg68  1  0.26935500  0.17125200  0.45271400  1
  Mg  Mg69  1  0.15836100  0.05163900  0.40997000  1
  Mg  Mg70  1  0.54475400  0.45696600  0.42890500  1
  Mg  Mg71  1  0.56799800  0.50345500  0.48627400  1
  Mg  Mg72  1  0.53613500  0.33735300  0.38616100  1
  Mg  Mg73  1  0.24010500  0.48021100  0.45758900  1
  Mg  Mg74  1  0.16867700  0.33735300  0.38616100  1
  Mg  Mg75  1  0.34099000  0.36381600  0.41513300  1
  Mg  Mg76  1  0.62823200  0.36832100  0.48089900  1
  Mg  Mg77  1  0.75309100  0.71248900  0.47873200  1
  Mg  Mg78  1  0.74012100  0.59210000  0.43427900  1
  Mg  Mg79  1  0.45738500  0.59660600  0.50004500  1
  Mg  Mg80  1  0.52081300  0.24793200  0.43644600  1
  Mg  Mg81  1  0.35350600  0.02517700  0.38099700  1
  Mg  Mg82  1  0.20912200  0.30638600  0.45808900  1
  Mg  Mg83  1  0.08426300  0.96221800  0.46025600  1
  Mg  Mg84  1  0.95437500  0.79689200  0.36185100  1
  Mg  Mg85  1  0.37996800  0.07810100  0.43894300  1
  Mg  Mg86  1  0.31654100  0.42677500  0.50254200  1
  Mg  Mg87  1  0.70439100  0.40878200  0.42187500  1
  Mg  Mg88  1  0.06153400  0.62306800  0.44568500  1
  Mg  Mg89  1  0.27582000  0.05163900  0.49330400  1
  Mg  Mg90  1  0.77582000  0.55163900  0.49330400  1
  Mg  Mg91  1  0.99010500  0.48021100  0.37425600  1
  Mg  Mg92  1  0.20439100  0.90878200  0.42187500  1
  Mg  Mg93  1  0.86402800  0.36059800  0.41484500  1
  Mg  Mg94  1  0.98364100  0.59982400  0.50033300  1
  Mg  Mg95  1  0.87264700  0.48021100  0.45758900  1
  Mg  Mg96  1  0.25904000  0.88553800  0.47652400  1
  Mg  Mg97  1  0.13942700  0.64631200  0.39103600  1
  Mg  Mg98  1  0.25042100  0.76592500  0.43378000  1
  Mg  Mg99  1  0.81153400  0.62306800  0.36235100  1
  Mg  Mg100  1  0.88296200  0.76592500  0.43378000  1
  Mg  Mg101  1  0.05527600  0.79238700  0.46275300  1
  Mg  Mg102  1  0.19966000  0.51117800  0.38566100  1
  Mg  Mg103  1  0.32451900  0.85534600  0.38349400  1
  Mg  Mg104  1  0.45440700  0.02067200  0.48189900  1
  Mg  Mg105  1  0.02881400  0.73946300  0.40480700  1
  Mg  Mg106  1  0.23509800  0.67650400  0.48406500  1
  Mg  Mg107  1  0.06779200  0.45374800  0.42861700  1
  Mg  Mg108  1  0.78055000  0.44924300  0.36285100  1
  Mg  Mg109  1  0.65569100  0.10507500  0.36501800  1
  Mg  Mg110  1  0.66866100  0.22546400  0.40947100  1
  Mg  Mg111  1  0.09425400  0.50667300  0.48656200  1
  Mg  Mg112  1  0.88797000  0.56963200  0.40730400  1
  Mg  Mg113  1  0.41867700  0.83735300  0.46949400  1
  Mg  Mg114  1  0.77582000  0.05163900  0.49330400  1
  Mg  Mg115  1  0.84724800  0.19449600  0.39806500  1
  Mg  Mg116  1  0.34724800  0.69449600  0.39806500  1
  Mg  Mg117  1  0.70439100  0.90878200  0.42187500  1
  Mg  Mg118  1  0.91867700  0.33735300  0.46949400  1
  Mg  Mg119  1  0.57831400  0.78916900  0.46246400  1
  Mg  Mg120  1  0.55506900  0.74268100  0.40509500  1
  Mg  Mg121  1  0.44407600  0.62306800  0.36235100  1
  Mg  Mg122  1  0.83046800  0.02839500  0.38128600  1
  Mg  Mg123  1  0.85371300  0.07488300  0.43865500  1
  Mg  Mg124  1  0.96470600  0.19449600  0.48139900  1
  Mg  Mg125  1  0.52582000  0.05163900  0.40997000  1
  Mg  Mg126  1  0.59724800  0.19449600  0.48139900  1
  Mg  Mg127  1  0.62670500  0.93524400  0.36751400  1
  Mg  Mg128  1  0.91394600  0.93974900  0.43328000  1
  Mg  Mg129  1  0.03880500  0.28391700  0.43111300  1
  Mg  Mg130  1  0.02583600  0.16352900  0.38666000  1
  Mg  Mg131  1  0.74309900  0.16803400  0.45242600  1
  Mg  Mg132  1  0.80652700  0.81936100  0.38882700  1
  Mg  Mg133  1  0.78207700  0.88232000  0.47623600  1
  Mg  Mg134  1  0.49483600  0.87781500  0.41047000  1
  Mg  Mg135  1  0.36997700  0.53364700  0.41263700  1
  Mg  Mg136  1  0.38294600  0.65403500  0.45709000  1
  Mg  Mg137  1  0.66568300  0.64953000  0.39132400  1
  Mg  Mg138  1  0.60225500  0.99820300  0.45492300  1
  Mg  Mg139  1  0.13296200  0.26592500  0.51711300  1
  Mg  Mg140  1  0.49010500  0.48021100  0.54092300  1
  Mg  Mg141  1  0.70439100  0.90878200  0.58854200  1
  Mg  Mg142  1  0.20439100  0.40878200  0.58854200  1
  Mg  Mg143  1  0.56153400  0.62306800  0.61235100  1
  Mg  Mg144  1  0.63296200  0.76592500  0.51711300  1
  Mg  Mg145  1  0.29259900  0.21774000  0.51008300  1
  Mg  Mg146  1  0.41221200  0.45696600  0.59557100  1
  Mg  Mg147  1  0.30121900  0.33735300  0.55282700  1
  Mg  Mg148  1  0.68761100  0.74268100  0.57176200  1
  Mg  Mg149  1  0.71085500  0.78916900  0.62913100  1
  Mg  Mg150  1  0.67899200  0.62306800  0.52901800  1
  Mg  Mg151  1  0.38296200  0.76592500  0.60044600  1
  Mg  Mg152  1  0.31153400  0.62306800  0.52901800  1
  Mg  Mg153  1  0.48384700  0.64953000  0.55799100  1
  Mg  Mg154  1  0.77108900  0.65403500  0.62375600  1
  Mg  Mg155  1  0.89594800  0.99820300  0.62158900  1
  Mg  Mg156  1  0.88297900  0.87781500  0.57713700  1
  Mg  Mg157  1  0.60024200  0.88232000  0.64290200  1
  Mg  Mg158  1  0.66367000  0.53364700  0.57930400  1
  Mg  Mg159  1  0.49636300  0.31089100  0.52385500  1
  Mg  Mg160  1  0.35197900  0.59210000  0.60094600  1
  Mg  Mg161  1  0.22712000  0.24793200  0.60311300  1
  Mg  Mg162  1  0.09723200  0.08260700  0.50470900  1
  Mg  Mg163  1  0.52282500  0.36381600  0.58180000  1
  Mg  Mg164  1  0.45939800  0.71248900  0.64539900  1
  Mg  Mg165  1  0.84724800  0.69449600  0.56473200  1
  Mg  Mg166  1  0.20439100  0.90878200  0.58854200  1
  Mg  Mg167  1  0.41867700  0.33735300  0.63616100  1
  Mg  Mg168  1  0.91867700  0.83735300  0.63616100  1
  Mg  Mg169  1  0.13296200  0.76592500  0.51711300  1
  Mg  Mg170  1  0.34724800  0.19449600  0.56473200  1
  Mg  Mg171  1  0.00688500  0.64631200  0.55770200  1
  Mg  Mg172  1  0.12649800  0.88553800  0.64319100  1
  Mg  Mg173  1  0.01550400  0.76592500  0.60044600  1
  Mg  Mg174  1  0.40189700  0.17125200  0.61938100  1
  Mg  Mg175  1  0.28228400  0.93202600  0.53389300  1
  Mg  Mg176  1  0.39327800  0.05163900  0.57663700  1
  Mg  Mg177  1  0.95439100  0.90878200  0.50520800  1
  Mg  Mg178  1  0.02582000  0.05163900  0.57663700  1
  Mg  Mg179  1  0.19813300  0.07810100  0.60561000  1
  Mg  Mg180  1  0.34251700  0.79689200  0.52851800  1
  Mg  Mg181  1  0.46737700  0.14106000  0.52635100  1
  Mg  Mg182  1  0.59726400  0.30638600  0.62475600  1
  Mg  Mg183  1  0.17167100  0.02517700  0.54766400  1
  Mg  Mg184  1  0.37795500  0.96221800  0.62692300  1
  Mg  Mg185  1  0.21064900  0.73946300  0.57147400  1
  Mg  Mg186  1  0.92340700  0.73495700  0.50570800  1
  Mg  Mg187  1  0.79854800  0.39078900  0.50787500  1
  Mg  Mg188  1  0.81151800  0.51117800  0.55232800  1
  Mg  Mg189  1  0.23711100  0.79238700  0.62941900  1
  Mg  Mg190  1  0.03082700  0.85534600  0.55016100  1
  Mg  Mg191  1  0.56153400  0.12306800  0.61235100  1
  Mg  Mg192  1  0.91867700  0.33735300  0.63616100  1
  Mg  Mg193  1  0.99010500  0.48021100  0.54092300  1
  Mg  Mg194  1  0.49010500  0.98021100  0.54092300  1
  Mg  Mg195  1  0.84724800  0.19449600  0.56473200  1
  Mg  Mg196  1  0.06153400  0.62306800  0.61235100  1
  Mg  Mg197  1  0.72117100  0.07488300  0.60532100  1
  Mg  Mg198  1  0.69792700  0.02839500  0.54795200  1
  Mg  Mg199  1  0.58693300  0.90878200  0.50520800  1
  Mg  Mg200  1  0.97332600  0.31410900  0.52414300  1
  Mg  Mg201  1  0.99657000  0.36059800  0.58151200  1
  Mg  Mg202  1  0.10756300  0.48021100  0.62425600  1
  Mg  Mg203  1  0.66867700  0.33735300  0.55282700  1
  Mg  Mg204  1  0.74010500  0.48021100  0.62425600  1
  Mg  Mg205  1  0.76956200  0.22095900  0.51037200  1
  Mg  Mg206  1  0.05680300  0.22546400  0.57613700  1
  Mg  Mg207  1  0.18166200  0.56963200  0.57397000  1
  Mg  Mg208  1  0.16869300  0.44924300  0.52951800  1
  Mg  Mg209  1  0.88595700  0.45374800  0.59528300  1
  Mg  Mg210  1  0.94938400  0.10507500  0.53168500  1
  Mg  Mg211  1  0.92493500  0.16803400  0.61909300  1
  Mg  Mg212  1  0.63769300  0.16352900  0.55332700  1
  Mg  Mg213  1  0.51283400  0.81936100  0.55549400  1
  Mg  Mg214  1  0.52580300  0.93974900  0.59994700  1
  Mg  Mg215  1  0.80854000  0.93524400  0.53418100  1
  Mg  Mg216  1  0.74511200  0.28391700  0.59778000  1
  Mg  Mg217  1  0.27582000  0.55163900  0.65997000  1
  Mg  Mg218  1  0.63296200  0.76592500  0.68378000  1
  Mg  Mg219  1  0.84724800  0.19449600  0.73139900  1
  Mg  Mg220  1  0.34724800  0.69449600  0.73139900  1
  Mg  Mg221  1  0.70439100  0.90878200  0.75520800  1
  Mg  Mg222  1  0.77582000  0.05163900  0.65997000  1
  Mg  Mg223  1  0.43545600  0.50345500  0.65294000  1
  Mg  Mg224  1  0.55506900  0.74268100  0.73842900  1
  Mg  Mg225  1  0.44407600  0.62306800  0.69568500  1
  Mg  Mg226  1  0.83046800  0.02839500  0.71461900  1
  Mg  Mg227  1  0.85371300  0.07488300  0.77198800  1
  Mg  Mg228  1  0.82184900  0.90878200  0.67187500  1
  Mg  Mg229  1  0.52582000  0.05163900  0.74330400  1
  Mg  Mg230  1  0.45439100  0.90878200  0.67187500  1
  Mg  Mg231  1  0.62670500  0.93524400  0.70084800  1
  Mg  Mg232  1  0.91394600  0.93974900  0.76661300  1
  Mg  Mg233  1  0.03880500  0.28391700  0.76444600  1
  Mg  Mg234  1  0.02583600  0.16352900  0.71999400  1
  Mg  Mg235  1  0.74309900  0.16803400  0.78575900  1
  Mg  Mg236  1  0.80652700  0.81936100  0.72216100  1
  Mg  Mg237  1  0.63922000  0.59660600  0.66671200  1
  Mg  Mg238  1  0.49483600  0.87781500  0.74380300  1
  Mg  Mg239  1  0.36997700  0.53364700  0.74597000  1
  Mg  Mg240  1  0.24008900  0.36832100  0.64756600  1
  Mg  Mg241  1  0.66568300  0.64953000  0.72465700  1
  Mg  Mg242  1  0.60225500  0.99820300  0.78825600  1
  Mg  Mg243  1  0.99010500  0.98021100  0.70758900  1
  Mg  Mg244  1  0.34724800  0.19449600  0.73139900  1
  Mg  Mg245  1  0.56153400  0.62306800  0.77901800  1
  Mg  Mg246  1  0.06153400  0.12306800  0.77901800  1
  Mg  Mg247  1  0.27582000  0.05163900  0.65997000  1
  Mg  Mg248  1  0.49010500  0.48021100  0.70758900  1
  Mg  Mg249  1  0.14974200  0.93202600  0.70055900  1
  Mg  Mg250  1  0.26935500  0.17125200  0.78604800  1
  Mg  Mg251  1  0.15836100  0.05163900  0.74330400  1
  Mg  Mg252  1  0.54475400  0.45696600  0.76223800  1
  Mg  Mg253  1  0.42514100  0.21774000  0.67675000  1
  Mg  Mg254  1  0.53613500  0.33735300  0.71949400  1
  Mg  Mg255  1  0.09724800  0.19449600  0.64806500  1
  Mg  Mg256  1  0.16867700  0.33735300  0.71949400  1
  Mg  Mg257  1  0.34099000  0.36381600  0.74846700  1
  Mg  Mg258  1  0.48537500  0.08260700  0.67137500  1
  Mg  Mg259  1  0.61023400  0.42677500  0.66920800  1
  Mg  Mg260  1  0.74012100  0.59210000  0.76761300  1
  Mg  Mg261  1  0.31452800  0.31089100  0.69052100  1
  Mg  Mg262  1  0.52081300  0.24793200  0.76978000  1
  Mg  Mg263  1  0.35350600  0.02517700  0.71433100  1
  Mg  Mg264  1  0.06626500  0.02067200  0.64856500  1
  Mg  Mg265  1  0.94140600  0.67650400  0.65073200  1
  Mg  Mg266  1  0.95437500  0.79689200  0.69518500  1
  Mg  Mg267  1  0.37996800  0.07810100  0.77227600  1
  Mg  Mg268  1  0.17368400  0.14106000  0.69301800  1
  Mg  Mg269  1  0.70439100  0.40878200  0.75520800  1
  Mg  Mg270  1  0.06153400  0.62306800  0.77901800  1
  Mg  Mg271  1  0.13296200  0.76592500  0.68378000  1
  Mg  Mg272  1  0.63296200  0.26592500  0.68378000  1
  Mg  Mg273  1  0.99010500  0.48021100  0.70758900  1
  Mg  Mg274  1  0.20439100  0.90878200  0.75520800  1
  Mg  Mg275  1  0.86402800  0.36059800  0.74817900  1
  Mg  Mg276  1  0.84078400  0.31410900  0.69081000  1
  Mg  Mg277  1  0.72979000  0.19449600  0.64806500  1
  Mg  Mg278  1  0.11618300  0.59982400  0.66700000  1
  Mg  Mg279  1  0.13942700  0.64631200  0.72436900  1
  Mg  Mg280  1  0.25042100  0.76592500  0.76711300  1
  Mg  Mg281  1  0.81153400  0.62306800  0.69568500  1
  Mg  Mg282  1  0.88296200  0.76592500  0.76711300  1
  Mg  Mg283  1  0.91241900  0.50667300  0.65322900  1
  Mg  Mg284  1  0.19966000  0.51117800  0.71899400  1
  Mg  Mg285  1  0.32451900  0.85534600  0.71682700  1
  Mg  Mg286  1  0.31155000  0.73495700  0.67237500  1
  Mg  Mg287  1  0.02881400  0.73946300  0.73814000  1
  Mg  Mg288  1  0.09224100  0.39078900  0.67454200  1
  Mg  Mg289  1  0.06779200  0.45374800  0.76195000  1
  Mg  Mg290  1  0.78055000  0.44924300  0.69618400  1
  Mg  Mg291  1  0.65569100  0.10507500  0.69835100  1
  Mg  Mg292  1  0.66866100  0.22546400  0.74280400  1
  Mg  Mg293  1  0.95139700  0.22095900  0.67703800  1
  Mg  Mg294  1  0.88797000  0.56963200  0.74063700  1
  Ir  Ir295  1  0.28174000  0.90878200  0.33854200  1
  Ir  Ir296  1  0.88809200  0.60353300  0.26625800  1
  Ir  Ir297  1  0.05048400  0.92831700  0.26796800  1
  Ir  Ir298  1  0.26989900  0.19449600  0.31473200  1
  Ir  Ir299  1  0.60237700  0.03210400  0.31387700  1
  Ir  Ir300  1  0.76477000  0.35688900  0.31558700  1
  Ir  Ir301  1  0.23497600  0.64260300  0.29177700  1
  Ir  Ir302  1  0.07258400  0.31781800  0.29006800  1
  Ir  Ir303  1  0.56745500  0.48021100  0.29092300  1
  Ir  Ir304  1  0.55561300  0.76592500  0.26711300  1
  Ir  Ir305  1  0.94926200  0.07117400  0.33939700  1
  Ir  Ir306  1  0.78686900  0.74639000  0.33768700  1
  Ir  Ir307  1  0.42459700  0.19449600  0.48139900  1
  Ir  Ir308  1  0.03094900  0.88924700  0.40911500  1
  Ir  Ir309  1  0.19334100  0.21403200  0.41082500  1
  Ir  Ir310  1  0.41275600  0.48021100  0.45758900  1
  Ir  Ir311  1  0.66354800  0.49974600  0.38701600  1
  Ir  Ir312  1  0.50115500  0.17496100  0.38530600  1
  Ir  Ir313  1  0.99602600  0.33735300  0.38616100  1
  Ir  Ir314  1  0.74523400  0.31781800  0.45673400  1
  Ir  Ir315  1  0.90762700  0.64260300  0.45844400  1
  Ir  Ir316  1  0.98418500  0.62306800  0.36235100  1
  Ir  Ir317  1  0.37783300  0.92831700  0.43463500  1
  Ir  Ir318  1  0.21544100  0.60353300  0.43292500  1
  Ir  Ir319  1  0.71031200  0.76592500  0.43378000  1
  Ir  Ir320  1  0.31666300  0.46067500  0.36149600  1
  Ir  Ir321  1  0.47905500  0.78546000  0.36320600  1
  Ir  Ir322  1  0.69847000  0.05163900  0.40997000  1
  Ir  Ir323  1  0.09211900  0.35688900  0.48225400  1
  Ir  Ir324  1  0.92972700  0.03210400  0.48054400  1
  Ir  Ir325  1  0.56745500  0.48021100  0.62425600  1
  Ir  Ir326  1  0.17380600  0.17496100  0.55197300  1
  Ir  Ir327  1  0.33619800  0.49974600  0.55368200  1
  Ir  Ir328  1  0.55561300  0.76592500  0.60044600  1
  Ir  Ir329  1  0.80640500  0.78546000  0.52987300  1
  Ir  Ir330  1  0.64401200  0.46067500  0.52816300  1
  Ir  Ir331  1  0.13888300  0.62306800  0.52901800  1
  Ir  Ir332  1  0.88809200  0.60353300  0.59959200  1
  Ir  Ir333  1  0.05048400  0.92831700  0.60130100  1
  Ir  Ir334  1  0.12704200  0.90878200  0.50520800  1
  Ir  Ir335  1  0.52069000  0.21403200  0.57749200  1
  Ir  Ir336  1  0.35829800  0.88924700  0.57578200  1
  Ir  Ir337  1  0.85316900  0.05163900  0.57663700  1
  Ir  Ir338  1  0.45952000  0.74639000  0.50435300  1
  Ir  Ir339  1  0.62191300  0.07117400  0.50606300  1
  Ir  Ir340  1  0.84132700  0.33735300  0.55282700  1
  Ir  Ir341  1  0.23497600  0.64260300  0.62511100  1
  Ir  Ir342  1  0.07258400  0.31781800  0.62340100  1
  Ir  Ir343  1  0.71031200  0.76592500  0.76711300  1
  Ir  Ir344  1  0.31666300  0.46067500  0.69483000  1
  Ir  Ir345  1  0.47905500  0.78546000  0.69653900  1
  Ir  Ir346  1  0.69847000  0.05163900  0.74330400  1
  Ir  Ir347  1  0.94926200  0.07117400  0.67273000  1
  Ir  Ir348  1  0.78686900  0.74639000  0.67102000  1
  Ir  Ir349  1  0.28174000  0.90878200  0.67187500  1
  Ir  Ir350  1  0.03094900  0.88924700  0.74244900  1
  Ir  Ir351  1  0.19334100  0.21403200  0.74415800  1
  Ir  Ir352  1  0.26989900  0.19449600  0.64806500  1
  Ir  Ir353  1  0.66354800  0.49974600  0.72034900  1
  Ir  Ir354  1  0.50115500  0.17496100  0.71863900  1
  Ir  Ir355  1  0.99602600  0.33735300  0.71949400  1
  Ir  Ir356  1  0.60237700  0.03210400  0.64721100  1
  Ir  Ir357  1  0.76477000  0.35688900  0.64892000  1
  Ir  Ir358  1  0.98418500  0.62306800  0.69568500  1
  Ir  Ir359  1  0.37783300  0.92831700  0.76796800  1
  Ir  Ir360  1  0.21544100  0.60353300  0.76625800  1
