# generated using pymatgen
data_Sm7Mg3
_symmetry_space_group_name_H-M   'P 1'
_cell_length_a   5.59581600
_cell_length_b   8.88868630
_cell_length_c   44.45033100
_cell_angle_alpha   91.04568330
_cell_angle_beta   90.00000000
_cell_angle_gamma   90.00000000
_symmetry_Int_Tables_number   1
_chemical_formula_structural   Sm7Mg3
_chemical_formula_sum   'Sm28 Mg12'
_cell_volume   2210.56694663
_cell_formula_units_Z   4
loop_
 _symmetry_equiv_pos_site_id
 _symmetry_equiv_pos_as_xyz
  1  'x, y, z'
loop_
 _atom_site_type_symbol
 _atom_site_label
 _atom_site_symmetry_multiplicity
 _atom_site_fract_x
 _atom_site_fract_y
 _atom_site_fract_z
 _atom_site_occupancy
  Sm  Sm0  1  0.75000000  0.67678900  0.72867800  1
  Sm  Sm1  1  0.75000000  0.28573600  0.75515400  1
  Sm  Sm2  1  0.25000000  0.01872200  0.74354400  1
  Sm  Sm3  1  0.25000000  0.40977500  0.71706800  1
  Sm  Sm4  1  0.75000000  0.76012200  0.64534400  1
  Sm  Sm5  1  0.75000000  0.36906900  0.67182000  1
  Sm  Sm6  1  0.25000000  0.10205600  0.66021100  1
  Sm  Sm7  1  0.25000000  0.49310800  0.63373500  1
  Sm  Sm8  1  0.75000000  0.84345600  0.56201100  1
  Sm  Sm9  1  0.75000000  0.45240300  0.58848700  1
  Sm  Sm10  1  0.25000000  0.18538900  0.57687800  1
  Sm  Sm11  1  0.25000000  0.57644200  0.55040200  1
  Sm  Sm12  1  0.75000000  0.92678900  0.47867800  1
  Sm  Sm13  1  0.75000000  0.53573600  0.50515400  1
  Sm  Sm14  1  0.25000000  0.26872200  0.49354400  1
  Sm  Sm15  1  0.25000000  0.65977500  0.46706800  1
  Sm  Sm16  1  0.75000000  0.01012200  0.39534400  1
  Sm  Sm17  1  0.75000000  0.61906900  0.42182000  1
  Sm  Sm18  1  0.25000000  0.35205600  0.41021100  1
  Sm  Sm19  1  0.25000000  0.74310800  0.38373500  1
  Sm  Sm20  1  0.75000000  0.09345600  0.31201100  1
  Sm  Sm21  1  0.75000000  0.70240300  0.33848700  1
  Sm  Sm22  1  0.25000000  0.43538900  0.32687800  1
  Sm  Sm23  1  0.25000000  0.82644200  0.30040200  1
  Sm  Sm24  1  0.75000000  0.17678900  0.22867800  1
  Sm  Sm25  1  0.75000000  0.78573600  0.25515400  1
  Sm  Sm26  1  0.25000000  0.51872200  0.24354400  1
  Sm  Sm27  1  0.25000000  0.90977500  0.21706800  1
  Mg  Mg28  1  0.75000000  0.02022700  0.70013200  1
  Mg  Mg29  1  0.25000000  0.75861800  0.68875700  1
  Mg  Mg30  1  0.75000000  0.10356000  0.61679800  1
  Mg  Mg31  1  0.25000000  0.84195100  0.60542400  1
  Mg  Mg32  1  0.75000000  0.18689400  0.53346500  1
  Mg  Mg33  1  0.25000000  0.92528400  0.52209100  1
  Mg  Mg34  1  0.75000000  0.27022700  0.45013200  1
  Mg  Mg35  1  0.25000000  0.00861800  0.43875700  1
  Mg  Mg36  1  0.75000000  0.35356000  0.36679800  1
  Mg  Mg37  1  0.25000000  0.09195100  0.35542400  1
  Mg  Mg38  1  0.75000000  0.43689400  0.28346500  1
  Mg  Mg39  1  0.25000000  0.17528400  0.27209100  1
