# generated using pymatgen
data_Mg7Hg4
_symmetry_space_group_name_H-M   'P 1'
_cell_length_a   4.75496500
_cell_length_b   8.61312000
_cell_length_c   44.83598300
_cell_angle_alpha   90.00000000
_cell_angle_beta   90.00000000
_cell_angle_gamma   90.00000000
_symmetry_Int_Tables_number   1
_chemical_formula_structural   Mg7Hg4
_chemical_formula_sum   'Mg28 Hg16'
_cell_volume   1836.26145630
_cell_formula_units_Z   4
loop_
 _symmetry_equiv_pos_site_id
 _symmetry_equiv_pos_as_xyz
  1  'x, y, z'
loop_
 _atom_site_type_symbol
 _atom_site_label
 _atom_site_symmetry_multiplicity
 _atom_site_fract_x
 _atom_site_fract_y
 _atom_site_fract_z
 _atom_site_occupancy
  Mg  Mg0  1  0.75000000  0.78854300  0.26656300  1
  Mg  Mg1  1  0.25000000  0.21145700  0.25724700  1
  Mg  Mg2  1  0.75000000  0.71145700  0.33799100  1
  Mg  Mg3  1  0.25000000  0.28854300  0.32867600  1
  Mg  Mg4  1  0.25000000  0.56198000  0.23654800  1
  Mg  Mg5  1  0.75000000  0.43802000  0.28726200  1
  Mg  Mg6  1  0.25000000  0.93802000  0.30797700  1
  Mg  Mg7  1  0.75000000  0.06198000  0.35869000  1
  Mg  Mg8  1  0.75000000  0.78854300  0.40942000  1
  Mg  Mg9  1  0.25000000  0.21145700  0.40010400  1
  Mg  Mg10  1  0.75000000  0.71145700  0.48084800  1
  Mg  Mg11  1  0.25000000  0.28854300  0.47153300  1
  Mg  Mg12  1  0.25000000  0.56198000  0.37940500  1
  Mg  Mg13  1  0.75000000  0.43802000  0.43011900  1
  Mg  Mg14  1  0.25000000  0.93802000  0.45083400  1
  Mg  Mg15  1  0.75000000  0.06198000  0.50154700  1
  Mg  Mg16  1  0.75000000  0.78854300  0.55227700  1
  Mg  Mg17  1  0.25000000  0.21145700  0.54296100  1
  Mg  Mg18  1  0.75000000  0.71145700  0.62370500  1
  Mg  Mg19  1  0.25000000  0.28854300  0.61439000  1
  Mg  Mg20  1  0.25000000  0.56198000  0.52226200  1
  Mg  Mg21  1  0.75000000  0.43802000  0.57297600  1
  Mg  Mg22  1  0.25000000  0.93802000  0.59369100  1
  Mg  Mg23  1  0.75000000  0.06198000  0.64440400  1
  Mg  Mg24  1  0.75000000  0.78854300  0.69513400  1
  Mg  Mg25  1  0.25000000  0.21145700  0.68581800  1
  Mg  Mg26  1  0.25000000  0.56198000  0.66511900  1
  Mg  Mg27  1  0.75000000  0.43802000  0.71583300  1
  Hg  Hg28  1  0.75000000  0.10846200  0.29337100  1
  Hg  Hg29  1  0.25000000  0.89153800  0.23043900  1
  Hg  Hg30  1  0.75000000  0.39153800  0.22194200  1
  Hg  Hg31  1  0.25000000  0.60846200  0.30186700  1
  Hg  Hg32  1  0.75000000  0.10846200  0.43622800  1
  Hg  Hg33  1  0.25000000  0.89153800  0.37329600  1
  Hg  Hg34  1  0.75000000  0.39153800  0.36479900  1
  Hg  Hg35  1  0.25000000  0.60846200  0.44472400  1
  Hg  Hg36  1  0.75000000  0.10846200  0.57908500  1
  Hg  Hg37  1  0.25000000  0.89153800  0.51615300  1
  Hg  Hg38  1  0.75000000  0.39153800  0.50765600  1
  Hg  Hg39  1  0.25000000  0.60846200  0.58758200  1
  Hg  Hg40  1  0.75000000  0.10846200  0.72194200  1
  Hg  Hg41  1  0.25000000  0.89153800  0.65901000  1
  Hg  Hg42  1  0.75000000  0.39153800  0.65051400  1
  Hg  Hg43  1  0.25000000  0.60846200  0.73043900  1
