# generated using pymatgen
data_Mg54Zn101
_symmetry_space_group_name_H-M   'P 1'
_cell_length_a   5.07402209
_cell_length_b   22.10207791
_cell_length_c   42.67993100
_cell_angle_alpha   98.00895109
_cell_angle_beta   93.24549340
_cell_angle_gamma   83.83945518
_symmetry_Int_Tables_number   1
_chemical_formula_structural   Mg54Zn101
_chemical_formula_sum   'Mg54 Zn101'
_cell_volume   4708.12433190
_cell_formula_units_Z   1
loop_
 _symmetry_equiv_pos_site_id
 _symmetry_equiv_pos_as_xyz
  1  'x, y, z'
loop_
 _atom_site_type_symbol
 _atom_site_label
 _atom_site_symmetry_multiplicity
 _atom_site_fract_x
 _atom_site_fract_y
 _atom_site_fract_z
 _atom_site_occupancy
  Mg  Mg0  1  0.57273000  0.99724300  0.25205300  1
  Mg  Mg1  1  0.43659600  0.23717200  0.22528600  1
  Mg  Mg2  1  0.01083600  0.27005400  0.38939900  1
  Mg  Mg3  1  0.04698000  0.01723100  0.21376000  1
  Mg  Mg4  1  0.94914500  0.26396800  0.26752300  1
  Mg  Mg5  1  0.65545700  0.84940200  0.26185700  1
  Mg  Mg6  1  0.01688100  0.17902000  0.32280200  1
  Mg  Mg7  1  0.79055300  0.65783500  0.34987600  1
  Mg  Mg8  1  0.56017400  0.08916800  0.31790900  1
  Mg  Mg9  1  0.88838800  0.41109800  0.29611300  1
  Mg  Mg10  1  0.62669700  0.00501200  0.37423700  1
  Mg  Mg11  1  0.27735900  0.58589800  0.24572800  1
  Mg  Mg12  1  0.29426500  0.70003000  0.39811400  1
  Mg  Mg13  1  0.46421900  0.35946900  0.39526500  1
  Mg  Mg14  1  0.17331400  0.91559700  0.36837200  1
  Mg  Mg15  1  0.82065200  0.49604600  0.24083400  1
  Mg  Mg16  1  0.26480300  0.67782300  0.31158300  1
  Mg  Mg17  1  0.18207600  0.82566400  0.30177900  1
  Mg  Mg18  1  0.40093700  0.43789400  0.33835000  1
  Mg  Mg19  1  0.34326800  0.57503600  0.36552200  1
  Mg  Mg20  1  0.37273000  0.59724300  0.45205300  1
  Mg  Mg21  1  0.23659600  0.83717200  0.42528600  1
  Mg  Mg22  1  0.81083600  0.87005400  0.58939900  1
  Mg  Mg23  1  0.84698000  0.61723100  0.41376000  1
  Mg  Mg24  1  0.74914500  0.86396800  0.46752300  1
  Mg  Mg25  1  0.45545700  0.44940200  0.46185700  1
  Mg  Mg26  1  0.81688100  0.77902000  0.52280200  1
  Mg  Mg27  1  0.59055300  0.25783500  0.54987600  1
  Mg  Mg28  1  0.36017400  0.68916800  0.51790900  1
  Mg  Mg29  1  0.68838800  0.01109800  0.49611300  1
  Mg  Mg30  1  0.42669700  0.60501200  0.57423700  1
  Mg  Mg31  1  0.07735900  0.18589800  0.44572800  1
  Mg  Mg32  1  0.09426500  0.30003000  0.59811400  1
  Mg  Mg33  1  0.26421900  0.95946900  0.59526500  1
  Mg  Mg34  1  0.97331400  0.51559700  0.56837200  1
  Mg  Mg35  1  0.62065200  0.09604600  0.44083400  1
  Mg  Mg36  1  0.06480300  0.27782300  0.51158300  1
  Mg  Mg37  1  0.98207600  0.42566400  0.50177900  1
  Mg  Mg38  1  0.20093700  0.03789400  0.53835000  1
  Mg  Mg39  1  0.14326800  0.17503600  0.56552200  1
  Mg  Mg40  1  0.17273000  0.19724300  0.65205300  1
  Mg  Mg41  1  0.03659600  0.43717200  0.62528600  1
  Mg  Mg42  1  0.64698000  0.21723100  0.61376000  1
  Mg  Mg43  1  0.54914500  0.46396800  0.66752300  1
  Mg  Mg44  1  0.25545700  0.04940200  0.66185700  1
  Mg  Mg45  1  0.61688100  0.37902000  0.72280200  1
  Mg  Mg46  1  0.39055300  0.85783500  0.74987600  1
  Mg  Mg47  1  0.16017400  0.28916800  0.71790900  1
  Mg  Mg48  1  0.48838800  0.61109800  0.69611300  1
  Mg  Mg49  1  0.87735900  0.78589800  0.64572800  1
  Mg  Mg50  1  0.42065200  0.69604600  0.64083400  1
  Mg  Mg51  1  0.86480300  0.87782300  0.71158300  1
  Mg  Mg52  1  0.78207600  0.02566400  0.70177900  1
  Mg  Mg53  1  0.00093700  0.63789400  0.73835000  1
  Zn  Zn54  1  0.47836200  0.22184100  0.29351900  1
  Zn  Zn55  1  0.97078700  0.16140400  0.21118900  1
  Zn  Zn56  1  0.10077300  0.04525700  0.34653000  1
  Zn  Zn57  1  0.57440200  0.54643900  0.30321000  1
  Zn  Zn58  1  0.12570700  0.36290100  0.23075200  1
  Zn  Zn59  1  0.75810000  0.13099600  0.25985200  1
  Zn  Zn60  1  0.81876700  0.13753300  0.38181800  1
  Zn  Zn61  1  0.35917200  0.45322500  0.27011700  1
  Zn  Zn62  1  0.67966400  0.86977600  0.33424300  1
  Zn  Zn63  1  0.20550700  0.31208200  0.33298200  1
  Zn  Zn64  1  0.87099100  0.95519700  0.31074800  1
  Zn  Zn65  1  0.11288700  0.92314000  0.25741600  1
  Zn  Zn66  1  0.51358000  0.22287000  0.35595000  1
  Zn  Zn67  1  0.93515400  0.40048700  0.36653000  1
  Zn  Zn68  1  0.86674600  0.51366200  0.35244700  1
  Zn  Zn69  1  0.15786900  0.80529000  0.22939300  1
  Zn  Zn70  1  0.36136200  0.89305700  0.20422800  1
  Zn  Zn71  1  0.63202700  0.36298400  0.23065400  1
  Zn  Zn72  1  0.07943300  0.54407000  0.30378400  1
  Zn  Zn73  1  0.32395300  0.45219600  0.20768600  1
  Zn  Zn74  1  0.47617100  0.78200900  0.35940900  1
  Zn  Zn75  1  0.71182600  0.31216500  0.33288400  1
  Zn  Zn76  1  0.31876700  0.13753300  0.38181800  1
  Zn  Zn77  1  0.06098600  0.04566000  0.28548600  1
  Zn  Zn78  1  0.37561000  0.95427900  0.31094400  1
  Zn  Zn79  1  0.84680600  0.89520500  0.20406300  1
  Zn  Zn80  1  0.77654700  0.62940600  0.27815100  1
  Zn  Zn81  1  0.99072700  0.77986100  0.35957300  1
  Zn  Zn82  1  0.70237900  0.87457900  0.39710600  1
  Zn  Zn83  1  0.46192300  0.72078700  0.25269200  1
  Zn  Zn84  1  0.26313100  0.12862700  0.26042700  1
  Zn  Zn85  1  0.41876700  0.33753300  0.28181800  1
  Zn  Zn86  1  0.96654200  0.71986900  0.25288800  1
  Zn  Zn87  1  0.72464600  0.75192600  0.30622000  1
  Zn  Zn88  1  0.73676000  0.62980900  0.21710600  1
  Zn  Zn89  1  0.27836200  0.82184100  0.49351900  1
  Zn  Zn90  1  0.77078700  0.76140400  0.41118900  1
  Zn  Zn91  1  0.90077300  0.64525700  0.54653000  1
  Zn  Zn92  1  0.37440200  0.14643900  0.50321000  1
  Zn  Zn93  1  0.92570700  0.96290100  0.43075200  1
  Zn  Zn94  1  0.55810000  0.73099600  0.45985200  1
  Zn  Zn95  1  0.61876700  0.73753300  0.58181800  1
  Zn  Zn96  1  0.15917200  0.05322500  0.47011700  1
  Zn  Zn97  1  0.47966400  0.46977600  0.53424300  1
  Zn  Zn98  1  0.00550700  0.91208200  0.53298200  1
  Zn  Zn99  1  0.67099100  0.55519700  0.51074800  1
  Zn  Zn100  1  0.91288700  0.52314000  0.45741600  1
  Zn  Zn101  1  0.31358000  0.82287000  0.55595000  1
  Zn  Zn102  1  0.73515400  0.00048700  0.56653000  1
  Zn  Zn103  1  0.66674600  0.11366200  0.55244700  1
  Zn  Zn104  1  0.95786900  0.40529000  0.42939300  1
  Zn  Zn105  1  0.16136200  0.49305700  0.40422800  1
  Zn  Zn106  1  0.43202700  0.96298400  0.43065400  1
  Zn  Zn107  1  0.87943300  0.14407000  0.50378400  1
  Zn  Zn108  1  0.12395300  0.05219600  0.40768600  1
  Zn  Zn109  1  0.27617100  0.38200900  0.55940900  1
  Zn  Zn110  1  0.51182600  0.91216500  0.53288400  1
  Zn  Zn111  1  0.11876700  0.73753300  0.58181800  1
  Zn  Zn112  1  0.86098600  0.64566000  0.48548600  1
  Zn  Zn113  1  0.17561000  0.55427900  0.51094400  1
  Zn  Zn114  1  0.64680600  0.49520500  0.40406300  1
  Zn  Zn115  1  0.57654700  0.22940600  0.47815100  1
  Zn  Zn116  1  0.79072700  0.37986100  0.55957300  1
  Zn  Zn117  1  0.50237900  0.47457900  0.59710600  1
  Zn  Zn118  1  0.26192300  0.32078700  0.45269200  1
  Zn  Zn119  1  0.06313100  0.72862700  0.46042700  1
  Zn  Zn120  1  0.21876700  0.93753300  0.48181800  1
  Zn  Zn121  1  0.76654200  0.31986900  0.45288800  1
  Zn  Zn122  1  0.52464600  0.35192600  0.50622000  1
  Zn  Zn123  1  0.53676000  0.22980900  0.41710600  1
  Zn  Zn124  1  0.07836200  0.42184100  0.69351900  1
  Zn  Zn125  1  0.57078700  0.36140400  0.61118900  1
  Zn  Zn126  1  0.70077300  0.24525700  0.74653000  1
  Zn  Zn127  1  0.17440200  0.74643900  0.70321000  1
  Zn  Zn128  1  0.72570700  0.56290100  0.63075200  1
  Zn  Zn129  1  0.35810000  0.33099600  0.65985200  1
  Zn  Zn130  1  0.95917200  0.65322500  0.67011700  1
  Zn  Zn131  1  0.27966400  0.06977600  0.73424300  1
  Zn  Zn132  1  0.80550700  0.51208200  0.73298200  1
  Zn  Zn133  1  0.47099100  0.15519700  0.71074800  1
  Zn  Zn134  1  0.71288700  0.12314000  0.65741600  1
  Zn  Zn135  1  0.11358000  0.42287000  0.75595000  1
  Zn  Zn136  1  0.46674600  0.71366200  0.75244700  1
  Zn  Zn137  1  0.75786900  0.00529000  0.62939300  1
  Zn  Zn138  1  0.96136200  0.09305700  0.60422800  1
  Zn  Zn139  1  0.23202700  0.56298400  0.63065400  1
  Zn  Zn140  1  0.67943300  0.74407000  0.70378400  1
  Zn  Zn141  1  0.92395300  0.65219600  0.60768600  1
  Zn  Zn142  1  0.07617100  0.98200900  0.75940900  1
  Zn  Zn143  1  0.31182600  0.51216500  0.73288400  1
  Zn  Zn144  1  0.66098600  0.24566000  0.68548600  1
  Zn  Zn145  1  0.97561000  0.15427900  0.71094400  1
  Zn  Zn146  1  0.44680600  0.09520500  0.60406300  1
  Zn  Zn147  1  0.37654700  0.82940600  0.67815100  1
  Zn  Zn148  1  0.59072700  0.97986100  0.75957300  1
  Zn  Zn149  1  0.06192300  0.92078700  0.65269200  1
  Zn  Zn150  1  0.86313100  0.32862700  0.66042700  1
  Zn  Zn151  1  0.01876700  0.53753300  0.68181800  1
  Zn  Zn152  1  0.56654200  0.91986900  0.65288800  1
  Zn  Zn153  1  0.32464600  0.95192600  0.70622000  1
  Zn  Zn154  1  0.33676000  0.82980900  0.61710600  1
