# generated using pymatgen
data_Nd2Mg23
_symmetry_space_group_name_H-M   'P 1'
_cell_length_a   5.92934782
_cell_length_b   7.85671580
_cell_length_c   51.01750000
_cell_angle_alpha   88.74353249
_cell_angle_beta   86.66861141
_cell_angle_gamma   67.83082327
_symmetry_Int_Tables_number   1
_chemical_formula_structural   Nd2Mg23
_chemical_formula_sum   'Nd4 Mg46'
_cell_volume   2197.24346205
_cell_formula_units_Z   2
loop_
 _symmetry_equiv_pos_site_id
 _symmetry_equiv_pos_as_xyz
  1  'x, y, z'
loop_
 _atom_site_type_symbol
 _atom_site_label
 _atom_site_symmetry_multiplicity
 _atom_site_fract_x
 _atom_site_fract_y
 _atom_site_fract_z
 _atom_site_occupancy
  Nd  Nd0  1  0.32801600  0.64067100  0.70329700  1
  Nd  Nd1  1  0.89944500  0.64067100  0.56044000  1
  Nd  Nd2  1  0.47087300  0.64067100  0.41758200  1
  Nd  Nd3  1  0.04230200  0.64067100  0.27472500  1
  Mg  Mg4  1  0.70643800  0.85343300  0.73369100  1
  Mg  Mg5  1  0.17718300  0.99261500  0.65301900  1
  Mg  Mg6  1  0.52912700  0.28872700  0.65301900  1
  Mg  Mg7  1  0.12690500  0.99261500  0.75357400  1
  Mg  Mg8  1  0.73683200  0.85343300  0.67290200  1
  Mg  Mg9  1  0.82801600  0.14067100  0.70329700  1
  Mg  Mg10  1  0.94959400  0.42790900  0.67290200  1
  Mg  Mg11  1  0.47884900  0.28872700  0.75357400  1
  Mg  Mg12  1  0.91920000  0.42790900  0.73369100  1
  Mg  Mg13  1  0.32801600  0.14067100  0.70329700  1
  Mg  Mg14  1  0.27786600  0.85343300  0.59083400  1
  Mg  Mg15  1  0.74861200  0.99261500  0.51016200  1
  Mg  Mg16  1  0.10055500  0.28872700  0.51016200  1
  Mg  Mg17  1  0.69833400  0.99261500  0.61071700  1
  Mg  Mg18  1  0.30826100  0.85343300  0.53004500  1
  Mg  Mg19  1  0.39944500  0.14067100  0.56044000  1
  Mg  Mg20  1  0.52102300  0.42790900  0.53004500  1
  Mg  Mg21  1  0.61373000  0.64067100  0.63186800  1
  Mg  Mg22  1  0.05027800  0.28872700  0.61071700  1
  Mg  Mg23  1  0.49062800  0.42790900  0.59083400  1
  Mg  Mg24  1  0.11373000  0.64067100  0.63186800  1
  Mg  Mg25  1  0.89944500  0.14067100  0.56044000  1
  Mg  Mg26  1  0.84929500  0.85343300  0.44797700  1
  Mg  Mg27  1  0.32004000  0.99261500  0.36730500  1
  Mg  Mg28  1  0.67198400  0.28872700  0.36730500  1
  Mg  Mg29  1  0.26976300  0.99261500  0.46786000  1
  Mg  Mg30  1  0.87969000  0.85343300  0.38718800  1
  Mg  Mg31  1  0.97087300  0.14067100  0.41758200  1
  Mg  Mg32  1  0.09245100  0.42790900  0.38718800  1
  Mg  Mg33  1  0.18515900  0.64067100  0.48901100  1
  Mg  Mg34  1  0.62170600  0.28872700  0.46786000  1
  Mg  Mg35  1  0.06205700  0.42790900  0.44797700  1
  Mg  Mg36  1  0.68515900  0.64067100  0.48901100  1
  Mg  Mg37  1  0.47087300  0.14067100  0.41758200  1
  Mg  Mg38  1  0.42072400  0.85343300  0.30512000  1
  Mg  Mg39  1  0.89146900  0.99261500  0.22444800  1
  Mg  Mg40  1  0.24341200  0.28872700  0.22444800  1
  Mg  Mg41  1  0.84119100  0.99261500  0.32500300  1
  Mg  Mg42  1  0.45111800  0.85343300  0.24433100  1
  Mg  Mg43  1  0.54230200  0.14067100  0.27472500  1
  Mg  Mg44  1  0.66388000  0.42790900  0.24433100  1
  Mg  Mg45  1  0.75658800  0.64067100  0.34615400  1
  Mg  Mg46  1  0.19313500  0.28872700  0.32500300  1
  Mg  Mg47  1  0.63348500  0.42790900  0.30512000  1
  Mg  Mg48  1  0.25658800  0.64067100  0.34615400  1
  Mg  Mg49  1  0.04230200  0.14067100  0.27472500  1
