# generated using pymatgen
data_Mg2Cd
_symmetry_space_group_name_H-M   'P 1'
_cell_length_a   3.17171500
_cell_length_b   16.93132419
_cell_length_c   49.41679400
_cell_angle_alpha   91.18141472
_cell_angle_beta   90.00000000
_cell_angle_gamma   90.00000000
_symmetry_Int_Tables_number   1
_chemical_formula_structural   Mg2Cd
_chemical_formula_sum   'Mg48 Cd24'
_cell_volume   2653.18368184
_cell_formula_units_Z   24
loop_
 _symmetry_equiv_pos_site_id
 _symmetry_equiv_pos_as_xyz
  1  'x, y, z'
loop_
 _atom_site_type_symbol
 _atom_site_label
 _atom_site_symmetry_multiplicity
 _atom_site_fract_x
 _atom_site_fract_y
 _atom_site_fract_z
 _atom_site_occupancy
  Mg  Mg0  1  1.00000000  0.57522200  0.21942000  1
  Mg  Mg1  1  0.50000000  0.72761300  0.20248700  1
  Mg  Mg2  1  0.00000000  0.82238700  0.24751300  1
  Mg  Mg3  1  0.50000000  0.97477800  0.23058000  1
  Mg  Mg4  1  0.50000000  0.12522200  0.26942000  1
  Mg  Mg5  1  1.00000000  0.27761300  0.25248700  1
  Mg  Mg6  1  0.50000000  0.37238700  0.29751300  1
  Mg  Mg7  1  1.00000000  0.52477800  0.28058000  1
  Mg  Mg8  1  0.00000000  0.67522200  0.31942000  1
  Mg  Mg9  1  0.50000000  0.82761300  0.30248700  1
  Mg  Mg10  1  0.00000000  0.92238700  0.34751300  1
  Mg  Mg11  1  0.50000000  0.07477800  0.33058000  1
  Mg  Mg12  1  0.50000000  0.22522200  0.36942000  1
  Mg  Mg13  1  1.00000000  0.37761300  0.35248700  1
  Mg  Mg14  1  0.50000000  0.47238700  0.39751300  1
  Mg  Mg15  1  1.00000000  0.62477800  0.38058000  1
  Mg  Mg16  1  0.00000000  0.77522200  0.41942000  1
  Mg  Mg17  1  0.50000000  0.92761300  0.40248700  1
  Mg  Mg18  1  0.00000000  0.02238700  0.44751300  1
  Mg  Mg19  1  0.50000000  0.17477800  0.43058000  1
  Mg  Mg20  1  0.50000000  0.32522200  0.46942000  1
  Mg  Mg21  1  1.00000000  0.47761300  0.45248700  1
  Mg  Mg22  1  0.50000000  0.57238700  0.49751300  1
  Mg  Mg23  1  0.00000000  0.72477800  0.48058000  1
  Mg  Mg24  1  0.00000000  0.87522200  0.51942000  1
  Mg  Mg25  1  0.50000000  0.02761300  0.50248700  1
  Mg  Mg26  1  0.00000000  0.12238700  0.54751300  1
  Mg  Mg27  1  0.50000000  0.27477800  0.53058000  1
  Mg  Mg28  1  0.50000000  0.42522200  0.56942000  1
  Mg  Mg29  1  1.00000000  0.57761300  0.55248700  1
  Mg  Mg30  1  0.50000000  0.67238700  0.59751300  1
  Mg  Mg31  1  0.00000000  0.82477800  0.58058000  1
  Mg  Mg32  1  1.00000000  0.97522200  0.61942000  1
  Mg  Mg33  1  0.50000000  0.12761300  0.60248700  1
  Mg  Mg34  1  0.00000000  0.22238700  0.64751300  1
  Mg  Mg35  1  0.50000000  0.37477800  0.63058000  1
  Mg  Mg36  1  0.50000000  0.52522200  0.66942000  1
  Mg  Mg37  1  1.00000000  0.67761300  0.65248700  1
  Mg  Mg38  1  0.50000000  0.77238700  0.69751300  1
  Mg  Mg39  1  1.00000000  0.92477800  0.68058000  1
  Mg  Mg40  1  0.00000000  0.07522200  0.71942000  1
  Mg  Mg41  1  0.50000000  0.22761300  0.70248700  1
  Mg  Mg42  1  0.00000000  0.32238700  0.74751300  1
  Mg  Mg43  1  0.50000000  0.47477800  0.73058000  1
  Mg  Mg44  1  0.50000000  0.62522200  0.76942000  1
  Mg  Mg45  1  0.00000000  0.77761300  0.75248700  1
  Mg  Mg46  1  0.50000000  0.87238700  0.79751300  1
  Mg  Mg47  1  1.00000000  0.02477800  0.78058000  1
  Cd  Cd48  1  0.00000000  0.97437700  0.28618000  1
  Cd  Cd49  1  0.50000000  0.67562300  0.26382000  1
  Cd  Cd50  1  0.50000000  0.42437700  0.23618000  1
  Cd  Cd51  1  1.00000000  0.12562300  0.21382000  1
  Cd  Cd52  1  0.00000000  0.07437700  0.38618000  1
  Cd  Cd53  1  0.50000000  0.77562300  0.36382000  1
  Cd  Cd54  1  0.50000000  0.52437700  0.33618000  1
  Cd  Cd55  1  0.00000000  0.22562300  0.31382000  1
  Cd  Cd56  1  0.00000000  0.17437700  0.48618000  1
  Cd  Cd57  1  0.50000000  0.87562300  0.46382000  1
  Cd  Cd58  1  0.50000000  0.62437700  0.43618000  1
  Cd  Cd59  1  0.00000000  0.32562300  0.41382000  1
  Cd  Cd60  1  1.00000000  0.27437700  0.58618000  1
  Cd  Cd61  1  0.50000000  0.97562300  0.56382000  1
  Cd  Cd62  1  0.50000000  0.72437700  0.53618000  1
  Cd  Cd63  1  0.00000000  0.42562300  0.51382000  1
  Cd  Cd64  1  0.00000000  0.37437700  0.68618000  1
  Cd  Cd65  1  0.50000000  0.07562300  0.66382000  1
  Cd  Cd66  1  0.50000000  0.82437700  0.63618000  1
  Cd  Cd67  1  0.00000000  0.52562300  0.61382000  1
  Cd  Cd68  1  1.00000000  0.47437700  0.78618000  1
  Cd  Cd69  1  0.50000000  0.17562300  0.76382000  1
  Cd  Cd70  1  0.50000000  0.92437700  0.73618000  1
  Cd  Cd71  1  0.00000000  0.62562300  0.71382000  1
