# generated using pymatgen
data_Yb10Mg11
_symmetry_space_group_name_H-M   'P 1'
_cell_length_a   5.56985200
_cell_length_b   5.56985172
_cell_length_c   40.92988600
_cell_angle_alpha   90.00000000
_cell_angle_beta   90.00000000
_cell_angle_gamma   59.99999832
_symmetry_Int_Tables_number   1
_chemical_formula_structural   Yb10Mg11
_chemical_formula_sum   'Yb10 Mg11'
_cell_volume   1099.66005104
_cell_formula_units_Z   1
loop_
 _symmetry_equiv_pos_site_id
 _symmetry_equiv_pos_as_xyz
  1  'x, y, z'
loop_
 _atom_site_type_symbol
 _atom_site_label
 _atom_site_symmetry_multiplicity
 _atom_site_fract_x
 _atom_site_fract_y
 _atom_site_fract_z
 _atom_site_occupancy
  Yb  Yb0  1  0.08333300  0.08333300  0.26388900  1
  Yb  Yb1  1  0.75000000  0.75000000  0.31944400  1
  Yb  Yb2  1  0.41666700  0.41666700  0.37500000  1
  Yb  Yb3  1  0.08333300  0.08333300  0.43055600  1
  Yb  Yb4  1  0.75000000  0.75000000  0.48611100  1
  Yb  Yb5  1  0.41666700  0.41666700  0.54166700  1
  Yb  Yb6  1  0.08333300  0.08333300  0.59722200  1
  Yb  Yb7  1  0.75000000  0.75000000  0.65277800  1
  Yb  Yb8  1  0.41666700  0.41666700  0.70833300  1
  Yb  Yb9  1  0.08333300  0.08333300  0.76388900  1
  Mg  Mg10  1  0.75000000  0.75000000  0.23611100  1
  Mg  Mg11  1  0.41666700  0.41666700  0.29166700  1
  Mg  Mg12  1  0.08333300  0.08333300  0.34722200  1
  Mg  Mg13  1  0.75000000  0.75000000  0.40277800  1
  Mg  Mg14  1  0.41666700  0.41666700  0.45833300  1
  Mg  Mg15  1  0.08333300  0.08333300  0.51388900  1
  Mg  Mg16  1  0.75000000  0.75000000  0.56944400  1
  Mg  Mg17  1  0.41666700  0.41666700  0.62500000  1
  Mg  Mg18  1  0.08333300  0.08333300  0.68055600  1
  Mg  Mg19  1  0.75000000  0.75000000  0.73611100  1
  Mg  Mg20  1  0.41666700  0.41666700  0.79166700  1
