# generated using pymatgen
data_Mg14Zn67
_symmetry_space_group_name_H-M   'P 1'
_cell_length_a   4.98183571
_cell_length_b   9.87228479
_cell_length_c   49.62169200
_cell_angle_alpha   87.16066620
_cell_angle_beta   87.12264785
_cell_angle_gamma   75.38550100
_symmetry_Int_Tables_number   1
_chemical_formula_structural   Mg14Zn67
_chemical_formula_sum   'Mg14 Zn67'
_cell_volume   2356.84330036
_cell_formula_units_Z   1
loop_
 _symmetry_equiv_pos_site_id
 _symmetry_equiv_pos_as_xyz
  1  'x, y, z'
loop_
 _atom_site_type_symbol
 _atom_site_label
 _atom_site_symmetry_multiplicity
 _atom_site_fract_x
 _atom_site_fract_y
 _atom_site_fract_z
 _atom_site_occupancy
  Mg  Mg0  1  0.36408000  0.60655800  0.66528100  1
  Mg  Mg1  1  0.37200700  0.52543400  0.73055200  1
  Mg  Mg2  1  0.52550700  0.31337000  0.63561600  1
  Mg  Mg3  1  0.04391400  0.31862100  0.59355000  1
  Mg  Mg4  1  0.19741400  0.10655800  0.49861500  1
  Mg  Mg5  1  0.20534100  0.02543400  0.56388500  1
  Mg  Mg6  1  0.35884000  0.81337000  0.46895000  1
  Mg  Mg7  1  0.87724800  0.81862100  0.42688400  1
  Mg  Mg8  1  0.03074700  0.60655800  0.33194800  1
  Mg  Mg9  1  0.03867400  0.52543400  0.39721900  1
  Mg  Mg10  1  0.19217300  0.31337000  0.30228300  1
  Mg  Mg11  1  0.71058100  0.31862100  0.26021700  1
  Mg  Mg12  1  0.86408000  0.10655800  0.16528100  1
  Mg  Mg13  1  0.87200700  0.02543400  0.23055200  1
  Zn  Zn14  1  0.63592700  0.05246600  0.67567900  1
  Zn  Zn15  1  0.73947600  0.32194400  0.69380300  1
  Zn  Zn16  1  0.49131100  0.81004800  0.70203000  1
  Zn  Zn17  1  0.10016000  0.07952500  0.72015500  1
  Zn  Zn18  1  0.24477700  0.32194400  0.69380300  1
  Zn  Zn19  1  0.99661200  0.81004800  0.70203000  1
  Zn  Zn20  1  0.86804400  0.56599600  0.69791700  1
  Zn  Zn21  1  0.28471100  0.81599600  0.61458300  1
  Zn  Zn22  1  0.78260500  0.78905900  0.64573100  1
  Zn  Zn23  1  0.46926100  0.55246600  0.50901200  1
  Zn  Zn24  1  0.62150200  0.17839900  0.57859600  1
  Zn  Zn25  1  0.94791900  0.45359200  0.65057000  1
  Zn  Zn26  1  0.57280900  0.82194400  0.52713700  1
  Zn  Zn27  1  0.65762500  0.57966000  0.61080100  1
  Zn  Zn28  1  0.78681600  0.84293200  0.58343500  1
  Zn  Zn29  1  0.08009400  0.18215000  0.65766300  1
  Zn  Zn30  1  0.41750700  0.05233200  0.61836500  1
  Zn  Zn31  1  0.15191400  0.57966000  0.61080100  1
  Zn  Zn32  1  0.91179600  0.05233200  0.61836500  1
  Zn  Zn33  1  0.32464400  0.31004800  0.53536300  1
  Zn  Zn34  1  0.93349400  0.57952500  0.55348800  1
  Zn  Zn35  1  0.07811000  0.82194400  0.52713700  1
  Zn  Zn36  1  0.82994500  0.31004800  0.53536300  1
  Zn  Zn37  1  0.70137700  0.06599600  0.53125000  1
  Zn  Zn38  1  0.35777200  0.71642100  0.56803600  1
  Zn  Zn39  1  0.21164900  0.91557100  0.66113100  1
  Zn  Zn40  1  0.48932800  0.44984100  0.57150400  1
  Zn  Zn41  1  0.11804400  0.31599600  0.44791700  1
  Zn  Zn42  1  0.61593800  0.28905900  0.47906500  1
  Zn  Zn43  1  0.30259400  0.05246600  0.34234500  1
  Zn  Zn44  1  0.45483600  0.67839900  0.41193000  1
  Zn  Zn45  1  0.78125200  0.95359200  0.48390400  1
  Zn  Zn46  1  0.40614300  0.32194400  0.36047000  1
  Zn  Zn47  1  0.49095900  0.07966000  0.44413500  1
  Zn  Zn48  1  0.62015000  0.34293200  0.41676900  1
  Zn  Zn49  1  0.91342700  0.68215000  0.49099600  1
  Zn  Zn50  1  0.25084100  0.55233200  0.45169900  1
  Zn  Zn51  1  0.98524700  0.07966000  0.44413500  1
  Zn  Zn52  1  0.74512900  0.55233200  0.45169900  1
  Zn  Zn53  1  0.15797700  0.81004800  0.36869700  1
  Zn  Zn54  1  0.76682700  0.07952500  0.38682100  1
  Zn  Zn55  1  0.91144400  0.32194400  0.36047000  1
  Zn  Zn56  1  0.66327900  0.81004800  0.36869700  1
  Zn  Zn57  1  0.53471100  0.56599600  0.36458300  1
  Zn  Zn58  1  0.19110500  0.21642100  0.40136900  1
  Zn  Zn59  1  0.04498300  0.41557100  0.49446400  1
  Zn  Zn60  1  0.32266100  0.94984100  0.40483700  1
  Zn  Zn61  1  0.95137700  0.81599600  0.28125000  1
  Zn  Zn62  1  0.44927100  0.78905900  0.31239800  1
  Zn  Zn63  1  0.13592700  0.55246600  0.17567900  1
  Zn  Zn64  1  0.28816900  0.17839900  0.24526300  1
  Zn  Zn65  1  0.61458500  0.45359200  0.31723700  1
  Zn  Zn66  1  0.23947600  0.82194400  0.19380300  1
  Zn  Zn67  1  0.32429200  0.57966000  0.27746800  1
  Zn  Zn68  1  0.45348300  0.84293200  0.25010200  1
  Zn  Zn69  1  0.74676000  0.18215000  0.32432900  1
  Zn  Zn70  1  0.08417400  0.05233200  0.28503200  1
  Zn  Zn71  1  0.81858000  0.57966000  0.27746800  1
  Zn  Zn72  1  0.57846200  0.05233200  0.28503200  1
  Zn  Zn73  1  0.99131100  0.31004800  0.20203000  1
  Zn  Zn74  1  0.60016000  0.57952500  0.22015500  1
  Zn  Zn75  1  0.74477700  0.82194400  0.19380300  1
  Zn  Zn76  1  0.49661200  0.31004800  0.20203000  1
  Zn  Zn77  1  0.36804400  0.06599600  0.19791700  1
  Zn  Zn78  1  0.02443800  0.71642100  0.23470200  1
  Zn  Zn79  1  0.87831600  0.91557100  0.32779800  1
  Zn  Zn80  1  0.15599400  0.44984100  0.23817100  1
