# generated using pymatgen
data_Mg103Ir24
_symmetry_space_group_name_H-M   'P 1'
_cell_length_a   16.34592500
_cell_length_b   18.30800151
_cell_length_c   50.01409000
_cell_angle_alpha   93.80824052
_cell_angle_beta   90.00000000
_cell_angle_gamma   116.51389344
_symmetry_Int_Tables_number   1
_chemical_formula_structural   Mg103Ir24
_chemical_formula_sum   'Mg309 Ir72'
_cell_volume   13356.16774261
_cell_formula_units_Z   3
loop_
 _symmetry_equiv_pos_site_id
 _symmetry_equiv_pos_as_xyz
  1  'x, y, z'
loop_
 _atom_site_type_symbol
 _atom_site_label
 _atom_site_symmetry_multiplicity
 _atom_site_fract_x
 _atom_site_fract_y
 _atom_site_fract_z
 _atom_site_occupancy
  Mg  Mg0  1  0.85362800  0.70725600  0.23586300  1
  Mg  Mg1  1  0.21077100  0.92154200  0.25967300  1
  Mg  Mg2  1  0.42505700  0.35011300  0.30729200  1
  Mg  Mg3  1  0.92505700  0.85011300  0.30729200  1
  Mg  Mg4  1  0.28219900  0.06439900  0.33110100  1
  Mg  Mg5  1  0.35362800  0.20725600  0.23586300  1
  Mg  Mg6  1  0.01326500  0.65907200  0.22883300  1
  Mg  Mg7  1  0.13287800  0.89829700  0.31432100  1
  Mg  Mg8  1  0.02188400  0.77868400  0.27157700  1
  Mg  Mg9  1  0.40827700  0.18401200  0.29051200  1
  Mg  Mg10  1  0.43152100  0.23050000  0.34788100  1
  Mg  Mg11  1  0.39965800  0.06439900  0.24776800  1
  Mg  Mg12  1  0.10362800  0.20725600  0.31919600  1
  Mg  Mg13  1  0.03219900  0.06439900  0.24776800  1
  Mg  Mg14  1  0.20451300  0.09086100  0.27674100  1
  Mg  Mg15  1  0.49175400  0.09536600  0.34250600  1
  Mg  Mg16  1  0.61661300  0.43953400  0.34033900  1
  Mg  Mg17  1  0.60364400  0.31914600  0.29588700  1
  Mg  Mg18  1  0.17805100  0.03793700  0.21879500  1
  Mg  Mg19  1  0.38433500  0.97497800  0.29805400  1
  Mg  Mg20  1  0.21702900  0.75222200  0.24260500  1
  Mg  Mg21  1  0.07264400  0.03343100  0.31969600  1
  Mg  Mg22  1  0.94778500  0.68926300  0.32186300  1
  Mg  Mg23  1  0.81789800  0.52393800  0.22345900  1
  Mg  Mg24  1  0.24349100  0.80514700  0.30055000  1
  Mg  Mg25  1  0.03720600  0.86810600  0.22129200  1
  Mg  Mg26  1  0.56791400  0.13582700  0.28348200  1
  Mg  Mg27  1  0.92505700  0.35011300  0.30729200  1
  Mg  Mg28  1  0.13934200  0.77868400  0.35491100  1
  Mg  Mg29  1  0.63934200  0.27868400  0.35491100  1
  Mg  Mg30  1  0.85362800  0.20725600  0.23586300  1
  Mg  Mg31  1  0.06791400  0.63582700  0.28348200  1
  Mg  Mg32  1  0.72755100  0.08764300  0.27645200  1
  Mg  Mg33  1  0.70430600  0.04115500  0.21908300  1
  Mg  Mg34  1  0.73617000  0.20725600  0.31919600  1
  Mg  Mg35  1  0.12256300  0.61258300  0.33813100  1
  Mg  Mg36  1  0.00295000  0.37335700  0.25264300  1
  Mg  Mg37  1  0.11394300  0.49297000  0.29538700  1
  Mg  Mg38  1  0.67505700  0.35011300  0.22395800  1
  Mg  Mg39  1  0.74648500  0.49297000  0.29538700  1
  Mg  Mg40  1  0.91879900  0.51943200  0.32436000  1
  Mg  Mg41  1  0.06318300  0.23822300  0.24726800  1
  Mg  Mg42  1  0.18804200  0.58239100  0.24510100  1
  Mg  Mg43  1  0.31793000  0.74771700  0.34350600  1
  Mg  Mg44  1  0.89233600  0.46650800  0.26641400  1
  Mg  Mg45  1  0.09862100  0.40354900  0.34567300  1
  Mg  Mg46  1  0.93131400  0.18079400  0.29022400  1
  Mg  Mg47  1  0.64407300  0.17628800  0.22445800  1
  Mg  Mg48  1  0.51921400  0.83212100  0.22662500  1
  Mg  Mg49  1  0.53218300  0.95250900  0.27107800  1
  Mg  Mg50  1  0.95777700  0.23371800  0.34816900  1
  Mg  Mg51  1  0.75149200  0.29667700  0.26891100  1
  Mg  Mg52  1  0.28219900  0.56439900  0.33110100  1
  Mg  Mg53  1  0.63934200  0.77868400  0.35491100  1
  Mg  Mg54  1  0.71077100  0.92154200  0.25967300  1
  Mg  Mg55  1  0.21077100  0.42154200  0.25967300  1
  Mg  Mg56  1  0.56791400  0.63582700  0.28348200  1
  Mg  Mg57  1  0.78219900  0.06439900  0.33110100  1
  Mg  Mg58  1  0.44183600  0.51621400  0.32407100  1
  Mg  Mg59  1  0.41859200  0.46972600  0.26670200  1
  Mg  Mg60  1  0.30759800  0.35011300  0.22395800  1
  Mg  Mg61  1  0.69399100  0.75544000  0.24289300  1
  Mg  Mg62  1  0.71723500  0.80192900  0.30026200  1
  Mg  Mg63  1  0.82822900  0.92154200  0.34300600  1
  Mg  Mg64  1  0.38934200  0.77868400  0.27157700  1
  Mg  Mg65  1  0.46077100  0.92154200  0.34300600  1
  Mg  Mg66  1  0.49022700  0.66229000  0.22912200  1
  Mg  Mg67  1  0.77746900  0.66679500  0.29488700  1
  Mg  Mg68  1  0.90232800  0.01096300  0.29272000  1
  Mg  Mg69  1  0.88935800  0.89057400  0.24826800  1
  Mg  Mg70  1  0.60662200  0.89507900  0.31403300  1
  Mg  Mg71  1  0.67004900  0.54640600  0.25043500  1
  Mg  Mg72  1  0.64560000  0.60936500  0.33784300  1
  Mg  Mg73  1  0.35835900  0.60486000  0.27207700  1
  Mg  Mg74  1  0.23350000  0.26069200  0.27424400  1
  Mg  Mg75  1  0.24646900  0.38108100  0.31869700  1
  Mg  Mg76  1  0.52920500  0.37657500  0.25293100  1
  Mg  Mg77  1  0.46577800  0.72524800  0.31653000  1
  Mg  Mg78  1  0.99648500  0.99297000  0.37872000  1
  Mg  Mg79  1  0.35362800  0.20725600  0.40253000  1
  Mg  Mg80  1  0.56791400  0.63582700  0.45014900  1
  Mg  Mg81  1  0.06791400  0.13582700  0.45014900  1
  Mg  Mg82  1  0.42505700  0.35011300  0.47395800  1
  Mg  Mg83  1  0.49648500  0.49297000  0.37872000  1
  Mg  Mg84  1  0.15612200  0.94478600  0.37169000  1
  Mg  Mg85  1  0.27573500  0.18401200  0.45717900  1
  Mg  Mg86  1  0.16474100  0.06439900  0.41443500  1
  Mg  Mg87  1  0.55113400  0.46972600  0.43336900  1
  Mg  Mg88  1  0.57437800  0.51621400  0.49073800  1
  Mg  Mg89  1  0.54251500  0.35011300  0.39062500  1
  Mg  Mg90  1  0.24648500  0.49297000  0.46205400  1
  Mg  Mg91  1  0.17505700  0.35011300  0.39062500  1
  Mg  Mg92  1  0.34737000  0.37657500  0.41959800  1
  Mg  Mg93  1  0.63461100  0.38108100  0.48536300  1
  Mg  Mg94  1  0.75947100  0.72524800  0.48319600  1
  Mg  Mg95  1  0.74650100  0.60486000  0.43874400  1
  Mg  Mg96  1  0.32090800  0.32365100  0.36165200  1
  Mg  Mg97  1  0.52719200  0.26069200  0.44091100  1
  Mg  Mg98  1  0.35988600  0.03793700  0.38546200  1
  Mg  Mg99  1  0.21550200  0.31914600  0.46255300  1
  Mg  Mg100  1  0.09064200  0.97497800  0.46472000  1
  Mg  Mg101  1  0.96075500  0.80965200  0.36631600  1
  Mg  Mg102  1  0.38634800  0.09086100  0.44340700  1
  Mg  Mg103  1  0.18006400  0.15382000  0.36414900  1
  Mg  Mg104  1  0.71077100  0.42154200  0.42633900  1
  Mg  Mg105  1  0.06791400  0.63582700  0.45014900  1
  Mg  Mg106  1  0.28219900  0.06439900  0.49776800  1
  Mg  Mg107  1  0.78219900  0.56439900  0.49776800  1
  Mg  Mg108  1  0.99648500  0.49297000  0.37872000  1
  Mg  Mg109  1  0.21077100  0.92154200  0.42633900  1
  Mg  Mg110  1  0.87040800  0.37335700  0.41930900  1
  Mg  Mg111  1  0.84716400  0.32686900  0.36194100  1
  Mg  Mg112  1  0.87902700  0.49297000  0.46205400  1
  Mg  Mg113  1  0.26542000  0.89829700  0.48098800  1
  Mg  Mg114  1  0.14580700  0.65907200  0.39550000  1
  Mg  Mg115  1  0.25680000  0.77868400  0.43824400  1
  Mg  Mg116  1  0.81791400  0.63582700  0.36681500  1
  Mg  Mg117  1  0.88934200  0.77868400  0.43824400  1
  Mg  Mg118  1  0.06165600  0.80514700  0.46721700  1
  Mg  Mg119  1  0.20604000  0.52393800  0.39012500  1
  Mg  Mg120  1  0.33089900  0.86810600  0.38795800  1
  Mg  Mg121  1  0.46078700  0.03343100  0.48636300  1
  Mg  Mg122  1  0.03519400  0.75222200  0.40927100  1
  Mg  Mg123  1  0.24147800  0.68926300  0.48853000  1
  Mg  Mg124  1  0.07417200  0.46650800  0.43308100  1
  Mg  Mg125  1  0.78693000  0.46200300  0.36731500  1
  Mg  Mg126  1  0.66207100  0.11783500  0.36948200  1
  Mg  Mg127  1  0.67504000  0.23822300  0.41393500  1
  Mg  Mg128  1  0.10063400  0.51943200  0.49102600  1
  Mg  Mg129  1  0.89434900  0.58239100  0.41176800  1
  Mg  Mg130  1  0.42505700  0.85011300  0.47395800  1
  Mg  Mg131  1  0.78219900  0.06439900  0.49776800  1
  Mg  Mg132  1  0.85362800  0.20725600  0.40253000  1
  Mg  Mg133  1  0.35362800  0.70725600  0.40253000  1
  Mg  Mg134  1  0.71077100  0.92154200  0.42633900  1
  Mg  Mg135  1  0.92505700  0.35011300  0.47395800  1
  Mg  Mg136  1  0.58469300  0.80192900  0.46692900  1
  Mg  Mg137  1  0.56144900  0.75544000  0.40956000  1
  Mg  Mg138  1  0.45045600  0.63582700  0.36681500  1
  Mg  Mg139  1  0.83684800  0.04115500  0.38575000  1
  Mg  Mg140  1  0.86009200  0.08764300  0.44311900  1
  Mg  Mg141  1  0.97108600  0.20725600  0.48586300  1
  Mg  Mg142  1  0.53219900  0.06439900  0.41443500  1
  Mg  Mg143  1  0.60362800  0.20725600  0.48586300  1
  Mg  Mg144  1  0.63308400  0.94800400  0.37197900  1
  Mg  Mg145  1  0.92032600  0.95250900  0.43774400  1
  Mg  Mg146  1  0.04518500  0.29667700  0.43557700  1
  Mg  Mg147  1  0.03221500  0.17628800  0.39112500  1
  Mg  Mg148  1  0.74947900  0.18079400  0.45689000  1
  Mg  Mg149  1  0.81290700  0.83212100  0.39329200  1
  Mg  Mg150  1  0.78845700  0.89507900  0.48070000  1
  Mg  Mg151  1  0.50121600  0.89057400  0.41493400  1
  Mg  Mg152  1  0.37635700  0.54640600  0.41710100  1
  Mg  Mg153  1  0.38932600  0.66679500  0.46155400  1
  Mg  Mg154  1  0.67206200  0.66229000  0.39578800  1
  Mg  Mg155  1  0.60863500  0.01096300  0.45938700  1
  Mg  Mg156  1  0.13934200  0.27868400  0.52157700  1
  Mg  Mg157  1  0.49648500  0.49297000  0.54538700  1
  Mg  Mg158  1  0.71077100  0.92154200  0.59300600  1
  Mg  Mg159  1  0.21077100  0.42154200  0.59300600  1
  Mg  Mg160  1  0.56791400  0.63582700  0.61681500  1
  Mg  Mg161  1  0.63934200  0.77868400  0.52157700  1
  Mg  Mg162  1  0.29897900  0.23050000  0.51454800  1
  Mg  Mg163  1  0.41859200  0.46972600  0.60003600  1
  Mg  Mg164  1  0.30759800  0.35011300  0.55729200  1
  Mg  Mg165  1  0.69399100  0.75544000  0.57622600  1
  Mg  Mg166  1  0.71723500  0.80192900  0.63359500  1
  Mg  Mg167  1  0.68537200  0.63582700  0.53348200  1
  Mg  Mg168  1  0.38934200  0.77868400  0.60491100  1
  Mg  Mg169  1  0.31791400  0.63582700  0.53348200  1
  Mg  Mg170  1  0.49022700  0.66229000  0.56245500  1
  Mg  Mg171  1  0.77746900  0.66679500  0.62822100  1
  Mg  Mg172  1  0.90232800  0.01096300  0.62605400  1
  Mg  Mg173  1  0.88935800  0.89057400  0.58160100  1
  Mg  Mg174  1  0.46376500  0.60936500  0.50450900  1
  Mg  Mg175  1  0.67004900  0.54640600  0.58376800  1
  Mg  Mg176  1  0.50274300  0.32365100  0.52831900  1
  Mg  Mg177  1  0.35835900  0.60486000  0.60541000  1
  Mg  Mg178  1  0.23350000  0.26069200  0.60757700  1
  Mg  Mg179  1  0.10361200  0.09536600  0.50917300  1
  Mg  Mg180  1  0.52920500  0.37657500  0.58626400  1
  Mg  Mg181  1  0.32292100  0.43953400  0.50700600  1
  Mg  Mg182  1  0.85362800  0.70725600  0.56919600  1
  Mg  Mg183  1  0.21077100  0.92154200  0.59300600  1
  Mg  Mg184  1  0.42505700  0.35011300  0.64062500  1
  Mg  Mg185  1  0.92505700  0.85011300  0.64062500  1
  Mg  Mg186  1  0.13934200  0.77868400  0.52157700  1
  Mg  Mg187  1  0.35362800  0.20725600  0.56919600  1
  Mg  Mg188  1  0.01326500  0.65907200  0.56216700  1
  Mg  Mg189  1  0.99002100  0.61258300  0.50479800  1
  Mg  Mg190  1  0.02188400  0.77868400  0.60491100  1
  Mg  Mg191  1  0.40827700  0.18401200  0.62384500  1
  Mg  Mg192  1  0.28866400  0.94478600  0.53835700  1
  Mg  Mg193  1  0.39965800  0.06439900  0.58110100  1
  Mg  Mg194  1  0.96077100  0.92154200  0.50967300  1
  Mg  Mg195  1  0.03219900  0.06439900  0.58110100  1
  Mg  Mg196  1  0.20451300  0.09086100  0.61007400  1
  Mg  Mg197  1  0.34889700  0.80965200  0.53298200  1
  Mg  Mg198  1  0.47375600  0.15382000  0.53081500  1
  Mg  Mg199  1  0.60364400  0.31914600  0.62922000  1
  Mg  Mg200  1  0.17805100  0.03793700  0.55212800  1
  Mg  Mg201  1  0.38433500  0.97497800  0.63138700  1
  Mg  Mg202  1  0.21702900  0.75222200  0.57593800  1
  Mg  Mg203  1  0.92978700  0.74771700  0.51017200  1
  Mg  Mg204  1  0.80492800  0.40354900  0.51233900  1
  Mg  Mg205  1  0.81789800  0.52393800  0.55679200  1
  Mg  Mg206  1  0.24349100  0.80514700  0.63388300  1
  Mg  Mg207  1  0.03720600  0.86810600  0.55462500  1
  Mg  Mg208  1  0.56791400  0.13582700  0.61681500  1
  Mg  Mg209  1  0.92505700  0.35011300  0.64062500  1
  Mg  Mg210  1  0.99648500  0.49297000  0.54538700  1
  Mg  Mg211  1  0.49648500  0.99297000  0.54538700  1
  Mg  Mg212  1  0.85362800  0.20725600  0.56919600  1
  Mg  Mg213  1  0.06791400  0.63582700  0.61681500  1
  Mg  Mg214  1  0.72755100  0.08764300  0.60978600  1
  Mg  Mg215  1  0.70430600  0.04115500  0.55241700  1
  Mg  Mg216  1  0.59331300  0.92154200  0.50967300  1
  Mg  Mg217  1  0.97970500  0.32686900  0.52860700  1
  Mg  Mg218  1  0.00295000  0.37335700  0.58597600  1
  Mg  Mg219  1  0.11394300  0.49297000  0.62872000  1
  Mg  Mg220  1  0.67505700  0.35011300  0.55729200  1
  Mg  Mg221  1  0.74648500  0.49297000  0.62872000  1
  Mg  Mg222  1  0.77594100  0.23371800  0.51483600  1
  Mg  Mg223  1  0.06318300  0.23822300  0.58060100  1
  Mg  Mg224  1  0.18804200  0.58239100  0.57843500  1
  Mg  Mg225  1  0.17507300  0.46200300  0.53398200  1
  Mg  Mg226  1  0.89233600  0.46650800  0.59974700  1
  Mg  Mg227  1  0.95576400  0.11783500  0.53614900  1
  Mg  Mg228  1  0.93131400  0.18079400  0.62355700  1
  Mg  Mg229  1  0.64407300  0.17628800  0.55779100  1
  Mg  Mg230  1  0.51921400  0.83212100  0.55995800  1
  Mg  Mg231  1  0.53218300  0.95250900  0.60441100  1
  Mg  Mg232  1  0.81492000  0.94800400  0.53864500  1
  Mg  Mg233  1  0.75149200  0.29667700  0.60224400  1
  Mg  Mg234  1  0.28219900  0.56439900  0.66443500  1
  Mg  Mg235  1  0.63934200  0.77868400  0.68824400  1
  Mg  Mg236  1  0.85362800  0.20725600  0.73586300  1
  Mg  Mg237  1  0.35362800  0.70725600  0.73586300  1
  Mg  Mg238  1  0.71077100  0.92154200  0.75967300  1
  Mg  Mg239  1  0.78219900  0.06439900  0.66443500  1
  Mg  Mg240  1  0.44183600  0.51621400  0.65740500  1
  Mg  Mg241  1  0.56144900  0.75544000  0.74289300  1
  Mg  Mg242  1  0.45045600  0.63582700  0.70014900  1
  Mg  Mg243  1  0.83684800  0.04115500  0.71908300  1
  Mg  Mg244  1  0.86009200  0.08764300  0.77645200  1
  Mg  Mg245  1  0.82822900  0.92154200  0.67633900  1
  Mg  Mg246  1  0.53219900  0.06439900  0.74776800  1
  Mg  Mg247  1  0.46077100  0.92154200  0.67633900  1
  Mg  Mg248  1  0.63308400  0.94800400  0.70531200  1
  Mg  Mg249  1  0.92032600  0.95250900  0.77107800  1
  Mg  Mg250  1  0.04518500  0.29667700  0.76891100  1
  Mg  Mg251  1  0.03221500  0.17628800  0.72445800  1
  Mg  Mg252  1  0.60662200  0.89507900  0.64736700  1
  Mg  Mg253  1  0.81290700  0.83212100  0.72662500  1
  Mg  Mg254  1  0.64560000  0.60936500  0.67117600  1
  Mg  Mg255  1  0.50121600  0.89057400  0.74826800  1
  Mg  Mg256  1  0.37635700  0.54640600  0.75043500  1
  Mg  Mg257  1  0.24646900  0.38108100  0.65203000  1
  Mg  Mg258  1  0.67206200  0.66229000  0.72912200  1
  Mg  Mg259  1  0.46577800  0.72524800  0.64986300  1
  Mg  Mg260  1  0.99648500  0.99297000  0.71205400  1
  Mg  Mg261  1  0.35362800  0.20725600  0.73586300  1
  Mg  Mg262  1  0.28219900  0.06439900  0.66443500  1
  Mg  Mg263  1  0.49648500  0.49297000  0.71205400  1
  Mg  Mg264  1  0.15612200  0.94478600  0.70502400  1
  Mg  Mg265  1  0.13287800  0.89829700  0.64765500  1
  Mg  Mg266  1  0.16474100  0.06439900  0.74776800  1
  Mg  Mg267  1  0.55113400  0.46972600  0.76670200  1
  Mg  Mg268  1  0.43152100  0.23050000  0.68121400  1
  Mg  Mg269  1  0.54251500  0.35011300  0.72395800  1
  Mg  Mg270  1  0.10362800  0.20725600  0.65253000  1
  Mg  Mg271  1  0.17505700  0.35011300  0.72395800  1
  Mg  Mg272  1  0.34737000  0.37657500  0.75293100  1
  Mg  Mg273  1  0.49175400  0.09536600  0.67584000  1
  Mg  Mg274  1  0.61661300  0.43953400  0.67367300  1
  Mg  Mg275  1  0.74650100  0.60486000  0.77207700  1
  Mg  Mg276  1  0.32090800  0.32365100  0.69498600  1
  Mg  Mg277  1  0.52719200  0.26069200  0.77424400  1
  Mg  Mg278  1  0.35988600  0.03793700  0.71879500  1
  Mg  Mg279  1  0.07264400  0.03343100  0.65302900  1
  Mg  Mg280  1  0.94778500  0.68926300  0.65519600  1
  Mg  Mg281  1  0.96075500  0.80965200  0.69964900  1
  Mg  Mg282  1  0.38634800  0.09086100  0.77674100  1
  Mg  Mg283  1  0.18006400  0.15382000  0.69748200  1
  Mg  Mg284  1  0.71077100  0.42154200  0.75967300  1
  Mg  Mg285  1  0.13934200  0.77868400  0.68824400  1
  Mg  Mg286  1  0.63934200  0.27868400  0.68824400  1
  Mg  Mg287  1  0.99648500  0.49297000  0.71205400  1
  Mg  Mg288  1  0.21077100  0.92154200  0.75967300  1
  Mg  Mg289  1  0.87040800  0.37335700  0.75264300  1
  Mg  Mg290  1  0.84716400  0.32686900  0.69527400  1
  Mg  Mg291  1  0.73617000  0.20725600  0.65253000  1
  Mg  Mg292  1  0.12256300  0.61258300  0.67146400  1
  Mg  Mg293  1  0.14580700  0.65907200  0.72883300  1
  Mg  Mg294  1  0.25680000  0.77868400  0.77157700  1
  Mg  Mg295  1  0.81791400  0.63582700  0.70014900  1
  Mg  Mg296  1  0.88934200  0.77868400  0.77157700  1
  Mg  Mg297  1  0.91879900  0.51943200  0.65769300  1
  Mg  Mg298  1  0.20604000  0.52393800  0.72345900  1
  Mg  Mg299  1  0.33089900  0.86810600  0.72129200  1
  Mg  Mg300  1  0.31793000  0.74771700  0.67683900  1
  Mg  Mg301  1  0.03519400  0.75222200  0.74260500  1
  Mg  Mg302  1  0.09862100  0.40354900  0.67900600  1
  Mg  Mg303  1  0.07417200  0.46650800  0.76641400  1
  Mg  Mg304  1  0.78693000  0.46200300  0.70064900  1
  Mg  Mg305  1  0.66207100  0.11783500  0.70281500  1
  Mg  Mg306  1  0.67504000  0.23822300  0.74726800  1
  Mg  Mg307  1  0.95777700  0.23371800  0.68150300  1
  Mg  Mg308  1  0.89434900  0.58239100  0.74510100  1
  Ir  Ir309  1  0.28812000  0.92154200  0.34300600  1
  Ir  Ir310  1  0.89447100  0.61629200  0.27072300  1
  Ir  Ir311  1  0.05686400  0.94107700  0.27243200  1
  Ir  Ir312  1  0.27627900  0.20725600  0.31919600  1
  Ir  Ir313  1  0.52707000  0.22679100  0.24862300  1
  Ir  Ir314  1  0.36467800  0.90200600  0.24691300  1
  Ir  Ir315  1  0.85954900  0.06439900  0.24776800  1
  Ir  Ir316  1  0.60875700  0.04486400  0.31834200  1
  Ir  Ir317  1  0.77114900  0.36964800  0.32005100  1
  Ir  Ir318  1  0.84770700  0.35011300  0.22395800  1
  Ir  Ir319  1  0.24135600  0.65536300  0.29624200  1
  Ir  Ir320  1  0.07896400  0.33057800  0.29453200  1
  Ir  Ir321  1  0.57383400  0.49297000  0.29538700  1
  Ir  Ir322  1  0.18018600  0.18772100  0.22310300  1
  Ir  Ir323  1  0.34257800  0.51250500  0.22481300  1
  Ir  Ir324  1  0.56199300  0.77868400  0.27157700  1
  Ir  Ir325  1  0.95564200  0.08393400  0.34386100  1
  Ir  Ir326  1  0.79324900  0.75914900  0.34215100  1
  Ir  Ir327  1  0.43097700  0.20725600  0.48586300  1
  Ir  Ir328  1  0.03732900  0.90200600  0.41358000  1
  Ir  Ir329  1  0.19972100  0.22679100  0.41528900  1
  Ir  Ir330  1  0.41913600  0.49297000  0.46205400  1
  Ir  Ir331  1  0.66992700  0.51250500  0.39148000  1
  Ir  Ir332  1  0.50753500  0.18772100  0.38977000  1
  Ir  Ir333  1  0.00240600  0.35011300  0.39062500  1
  Ir  Ir334  1  0.75161400  0.33057800  0.46119900  1
  Ir  Ir335  1  0.91400700  0.65536300  0.46290800  1
  Ir  Ir336  1  0.99056400  0.63582700  0.36681500  1
  Ir  Ir337  1  0.38421300  0.94107700  0.43909900  1
  Ir  Ir338  1  0.22182100  0.61629200  0.43738900  1
  Ir  Ir339  1  0.71669200  0.77868400  0.43824400  1
  Ir  Ir340  1  0.32304300  0.47343500  0.36596100  1
  Ir  Ir341  1  0.48543500  0.79822000  0.36767000  1
  Ir  Ir342  1  0.70485000  0.06439900  0.41443500  1
  Ir  Ir343  1  0.09849900  0.36964800  0.48671800  1
  Ir  Ir344  1  0.93610600  0.04486400  0.48500800  1
  Ir  Ir345  1  0.57383400  0.49297000  0.62872000  1
  Ir  Ir346  1  0.18018600  0.18772100  0.55643700  1
  Ir  Ir347  1  0.34257800  0.51250500  0.55814700  1
  Ir  Ir348  1  0.56199300  0.77868400  0.60491100  1
  Ir  Ir349  1  0.81278500  0.79822000  0.53433700  1
  Ir  Ir350  1  0.65039200  0.47343500  0.53262700  1
  Ir  Ir351  1  0.14526300  0.63582700  0.53348200  1
  Ir  Ir352  1  0.89447100  0.61629200  0.60405600  1
  Ir  Ir353  1  0.05686400  0.94107700  0.60576600  1
  Ir  Ir354  1  0.13342200  0.92154200  0.50967300  1
  Ir  Ir355  1  0.52707000  0.22679100  0.58195600  1
  Ir  Ir356  1  0.36467800  0.90200600  0.58024600  1
  Ir  Ir357  1  0.85954900  0.06439900  0.58110100  1
  Ir  Ir358  1  0.46590000  0.75914900  0.50881800  1
  Ir  Ir359  1  0.62829200  0.08393400  0.51052700  1
  Ir  Ir360  1  0.84770700  0.35011300  0.55729200  1
  Ir  Ir361  1  0.24135600  0.65536300  0.62957500  1
  Ir  Ir362  1  0.07896400  0.33057800  0.62786500  1
  Ir  Ir363  1  0.71669200  0.77868400  0.77157700  1
  Ir  Ir364  1  0.32304300  0.47343500  0.69929400  1
  Ir  Ir365  1  0.48543500  0.79822000  0.70100400  1
  Ir  Ir366  1  0.70485000  0.06439900  0.74776800  1
  Ir  Ir367  1  0.95564200  0.08393400  0.67719400  1
  Ir  Ir368  1  0.79324900  0.75914900  0.67548400  1
  Ir  Ir369  1  0.28812000  0.92154200  0.67633900  1
  Ir  Ir370  1  0.03732900  0.90200600  0.74691300  1
  Ir  Ir371  1  0.19972100  0.22679100  0.74862300  1
  Ir  Ir372  1  0.27627900  0.20725600  0.65253000  1
  Ir  Ir373  1  0.66992700  0.51250500  0.72481300  1
  Ir  Ir374  1  0.50753500  0.18772100  0.72310300  1
  Ir  Ir375  1  0.00240600  0.35011300  0.72395800  1
  Ir  Ir376  1  0.60875700  0.04486400  0.65167500  1
  Ir  Ir377  1  0.77114900  0.36964800  0.65338500  1
  Ir  Ir378  1  0.99056400  0.63582700  0.70014900  1
  Ir  Ir379  1  0.38421300  0.94107700  0.77243200  1
  Ir  Ir380  1  0.22182100  0.61629200  0.77072300  1
