# generated using pymatgen
data_Mg9Rh4
_symmetry_space_group_name_H-M   'P 1'
_cell_length_a   8.64031975
_cell_length_b   8.03467500
_cell_length_c   52.55701100
_cell_angle_alpha   90.00000000
_cell_angle_beta   94.71500456
_cell_angle_gamma   90.00000000
_symmetry_Int_Tables_number   1
_chemical_formula_structural   Mg9Rh4
_chemical_formula_sum   'Mg72 Rh32'
_cell_volume   3636.27396607
_cell_formula_units_Z   8
loop_
 _symmetry_equiv_pos_site_id
 _symmetry_equiv_pos_as_xyz
  1  'x, y, z'
loop_
 _atom_site_type_symbol
 _atom_site_label
 _atom_site_symmetry_multiplicity
 _atom_site_fract_x
 _atom_site_fract_y
 _atom_site_fract_z
 _atom_site_occupancy
  Mg  Mg0  1  0.72484200  0.50000000  0.30612200  1
  Mg  Mg1  1  0.72484200  0.00000000  0.30612200  1
  Mg  Mg2  1  0.21909500  0.75000000  0.29462700  1
  Mg  Mg3  1  0.23059000  0.25000000  0.31761800  1
  Mg  Mg4  1  0.02545500  0.93548400  0.33345100  1
  Mg  Mg5  1  0.45155800  0.93548400  0.33345100  1
  Mg  Mg6  1  0.99812600  0.43548400  0.27879400  1
  Mg  Mg7  1  0.42423000  0.43548400  0.27879400  1
  Mg  Mg8  1  0.02545500  0.56451600  0.33345100  1
  Mg  Mg9  1  0.45155800  0.56451600  0.33345100  1
  Mg  Mg10  1  0.99812600  0.06451600  0.27879400  1
  Mg  Mg11  1  0.42423000  0.06451600  0.27879400  1
  Mg  Mg12  1  0.29627100  0.50000000  0.44898000  1
  Mg  Mg13  1  0.29627100  0.00000000  0.44898000  1
  Mg  Mg14  1  0.79052300  0.75000000  0.43748400  1
  Mg  Mg15  1  0.44733300  0.25000000  0.37180300  1
  Mg  Mg16  1  0.06803300  0.25000000  0.37180300  1
  Mg  Mg17  1  0.95308100  0.75000000  0.38329900  1
  Mg  Mg18  1  0.57378000  0.75000000  0.38329900  1
  Mg  Mg19  1  0.80201900  0.25000000  0.46047500  1
  Mg  Mg20  1  0.75217100  0.43548400  0.36077900  1
  Mg  Mg21  1  0.59688300  0.93548400  0.47630800  1
  Mg  Mg22  1  0.02298700  0.93548400  0.47630800  1
  Mg  Mg23  1  0.56955500  0.43548400  0.42165100  1
  Mg  Mg24  1  0.99565800  0.43548400  0.42165100  1
  Mg  Mg25  1  0.26894300  0.56451600  0.39432300  1
  Mg  Mg26  1  0.59688300  0.56451600  0.47630800  1
  Mg  Mg27  1  0.26894300  0.93548400  0.39432300  1
  Mg  Mg28  1  0.02298700  0.56451600  0.47630800  1
  Mg  Mg29  1  0.56955500  0.06451600  0.42165100  1
  Mg  Mg30  1  0.75217100  0.06451600  0.36077900  1
  Mg  Mg31  1  0.99565800  0.06451600  0.42165100  1
  Mg  Mg32  1  0.86770000  0.50000000  0.59183700  1
  Mg  Mg33  1  0.86770000  0.00000000  0.59183700  1
  Mg  Mg34  1  0.36195200  0.75000000  0.58034200  1
  Mg  Mg35  1  0.01876200  0.25000000  0.51466100  1
  Mg  Mg36  1  0.63946100  0.25000000  0.51466100  1
  Mg  Mg37  1  0.52450900  0.75000000  0.52615600  1
  Mg  Mg38  1  0.14520900  0.75000000  0.52615600  1
  Mg  Mg39  1  0.37344700  0.25000000  0.60333200  1
  Mg  Mg40  1  0.32359900  0.43548400  0.50363600  1
  Mg  Mg41  1  0.16831200  0.93548400  0.61916500  1
  Mg  Mg42  1  0.59441500  0.93548400  0.61916500  1
  Mg  Mg43  1  0.14098400  0.43548400  0.56450800  1
  Mg  Mg44  1  0.56708700  0.43548400  0.56450800  1
  Mg  Mg45  1  0.84037100  0.56451600  0.53718000  1
  Mg  Mg46  1  0.16831200  0.56451600  0.61916500  1
  Mg  Mg47  1  0.84037100  0.93548400  0.53718000  1
  Mg  Mg48  1  0.59441500  0.56451600  0.61916500  1
  Mg  Mg49  1  0.14098400  0.06451600  0.56450800  1
  Mg  Mg50  1  0.32359900  0.06451600  0.50363600  1
  Mg  Mg51  1  0.56708700  0.06451600  0.56450800  1
  Mg  Mg52  1  0.43912800  0.50000000  0.73469400  1
  Mg  Mg53  1  0.43912800  0.00000000  0.73469400  1
  Mg  Mg54  1  0.93338000  0.75000000  0.72319900  1
  Mg  Mg55  1  0.59019000  0.25000000  0.65751800  1
  Mg  Mg56  1  0.21089000  0.25000000  0.65751800  1
  Mg  Mg57  1  0.09593800  0.75000000  0.66901300  1
  Mg  Mg58  1  0.71663700  0.75000000  0.66901300  1
  Mg  Mg59  1  0.94487600  0.25000000  0.74618900  1
  Mg  Mg60  1  0.89502800  0.43548400  0.64649400  1
  Mg  Mg61  1  0.73974100  0.93548400  0.76202200  1
  Mg  Mg62  1  0.16584400  0.93548400  0.76202200  1
  Mg  Mg63  1  0.71241200  0.43548400  0.70736500  1
  Mg  Mg64  1  0.13851600  0.43548400  0.70736500  1
  Mg  Mg65  1  0.41180000  0.56451600  0.68003700  1
  Mg  Mg66  1  0.73974100  0.56451600  0.76202200  1
  Mg  Mg67  1  0.41180000  0.93548400  0.68003700  1
  Mg  Mg68  1  0.16584400  0.56451600  0.76202200  1
  Mg  Mg69  1  0.71241200  0.06451600  0.70736500  1
  Mg  Mg70  1  0.89502800  0.06451600  0.64649400  1
  Mg  Mg71  1  0.13851600  0.06451600  0.70736500  1
  Rh  Rh72  1  0.20103300  0.25000000  0.25850300  1
  Rh  Rh73  1  0.24865200  0.75000000  0.35374100  1
  Rh  Rh74  1  0.74231400  0.75000000  0.34106600  1
  Rh  Rh75  1  0.91703400  0.25000000  0.32359400  1
  Rh  Rh76  1  0.55012300  0.25000000  0.32359400  1
  Rh  Rh77  1  0.89956200  0.75000000  0.28865100  1
  Rh  Rh78  1  0.53265100  0.75000000  0.28865100  1
  Rh  Rh79  1  0.70737000  0.25000000  0.27117900  1
  Rh  Rh80  1  0.77246100  0.25000000  0.40136100  1
  Rh  Rh81  1  0.82008000  0.75000000  0.49659900  1
  Rh  Rh82  1  0.31374300  0.75000000  0.48392300  1
  Rh  Rh83  1  0.48846200  0.25000000  0.46645200  1
  Rh  Rh84  1  0.12155200  0.25000000  0.46645200  1
  Rh  Rh85  1  0.47099000  0.75000000  0.43150800  1
  Rh  Rh86  1  0.10408000  0.75000000  0.43150800  1
  Rh  Rh87  1  0.27879900  0.25000000  0.41403600  1
  Rh  Rh88  1  0.34389000  0.25000000  0.54421800  1
  Rh  Rh89  1  0.39150900  0.75000000  0.63945600  1
  Rh  Rh90  1  0.88517100  0.75000000  0.62678100  1
  Rh  Rh91  1  0.05989100  0.25000000  0.60930900  1
  Rh  Rh92  1  0.69298000  0.25000000  0.60930900  1
  Rh  Rh93  1  0.04241900  0.75000000  0.57436500  1
  Rh  Rh94  1  0.67550800  0.75000000  0.57436500  1
  Rh  Rh95  1  0.85022800  0.25000000  0.55689300  1
  Rh  Rh96  1  0.91531900  0.25000000  0.68707500  1
  Rh  Rh97  1  0.96293800  0.75000000  0.78231300  1
  Rh  Rh98  1  0.45660000  0.75000000  0.76963800  1
  Rh  Rh99  1  0.63131900  0.25000000  0.75216600  1
  Rh  Rh100  1  0.26440900  0.25000000  0.75216600  1
  Rh  Rh101  1  0.61384700  0.75000000  0.71722200  1
  Rh  Rh102  1  0.24693700  0.75000000  0.71722200  1
  Rh  Rh103  1  0.42165600  0.25000000  0.69975000  1
