# generated using pymatgen
data_Li19Mg5
_symmetry_space_group_name_H-M   'P 1'
_cell_length_a   3.06669500
_cell_length_b   12.84118484
_cell_length_c   42.49336600
_cell_angle_alpha   93.95313665
_cell_angle_beta   90.00000000
_cell_angle_gamma   96.85796838
_symmetry_Int_Tables_number   1
_chemical_formula_structural   Li19Mg5
_chemical_formula_sum   'Li38 Mg10'
_cell_volume   1657.40575556
_cell_formula_units_Z   2
loop_
 _symmetry_equiv_pos_site_id
 _symmetry_equiv_pos_as_xyz
  1  'x, y, z'
loop_
 _atom_site_type_symbol
 _atom_site_label
 _atom_site_symmetry_multiplicity
 _atom_site_fract_x
 _atom_site_fract_y
 _atom_site_fract_z
 _atom_site_occupancy
  Li  Li0  1  0.94961200  0.59877000  0.24372400  1
  Li  Li1  1  0.35084300  0.40123000  0.21877600  1
  Li  Li2  1  0.54824700  0.79603900  0.26866700  1
  Li  Li3  1  0.44961200  0.59877000  0.30622400  1
  Li  Li4  1  0.85084300  0.40123000  0.28127600  1
  Li  Li5  1  0.25220800  0.20396100  0.25633300  1
  Li  Li6  1  0.04824700  0.79603900  0.33116700  1
  Li  Li7  1  0.94961200  0.59877000  0.36872400  1
  Li  Li8  1  0.35084300  0.40123000  0.34377600  1
  Li  Li9  1  0.75220800  0.20396100  0.31883300  1
  Li  Li10  1  0.54824700  0.79603900  0.39366700  1
  Li  Li11  1  0.44961200  0.59877000  0.43122400  1
  Li  Li12  1  0.85084300  0.40123000  0.40627600  1
  Li  Li13  1  0.25220800  0.20396100  0.38133300  1
  Li  Li14  1  0.04824700  0.79603900  0.45616700  1
  Li  Li15  1  0.94961200  0.59877000  0.49372400  1
  Li  Li16  1  0.35084300  0.40123000  0.46877600  1
  Li  Li17  1  0.75220800  0.20396100  0.44383300  1
  Li  Li18  1  0.54824700  0.79603900  0.51866700  1
  Li  Li19  1  0.44961200  0.59877000  0.55622400  1
  Li  Li20  1  0.85084300  0.40123000  0.53127600  1
  Li  Li21  1  0.25220800  0.20396100  0.50633300  1
  Li  Li22  1  0.04824700  0.79603900  0.58116700  1
  Li  Li23  1  0.94961200  0.59877000  0.61872400  1
  Li  Li24  1  0.35084300  0.40123000  0.59377600  1
  Li  Li25  1  0.75220800  0.20396100  0.56883300  1
  Li  Li26  1  0.54824700  0.79603900  0.64366700  1
  Li  Li27  1  0.44961200  0.59877000  0.68122400  1
  Li  Li28  1  0.85084300  0.40123000  0.65627600  1
  Li  Li29  1  0.25220800  0.20396100  0.63133300  1
  Li  Li30  1  0.04824700  0.79603900  0.70616700  1
  Li  Li31  1  0.94961200  0.59877000  0.74372400  1
  Li  Li32  1  0.35084300  0.40123000  0.71877600  1
  Li  Li33  1  0.75220800  0.20396100  0.69383300  1
  Li  Li34  1  0.54824700  0.79603900  0.76866700  1
  Li  Li35  1  0.44961200  0.59877000  0.80622400  1
  Li  Li36  1  0.85084300  0.40123000  0.78127600  1
  Li  Li37  1  0.25220800  0.20396100  0.75633300  1
  Mg  Mg38  1  0.65022800  1.00000000  0.23125000  1
  Mg  Mg39  1  0.15022800  1.00000000  0.29375000  1
  Mg  Mg40  1  0.65022800  1.00000000  0.35625000  1
  Mg  Mg41  1  0.15022800  1.00000000  0.41875000  1
  Mg  Mg42  1  0.65022800  1.00000000  0.48125000  1
  Mg  Mg43  1  0.15022800  1.00000000  0.54375000  1
  Mg  Mg44  1  0.65022800  1.00000000  0.60625000  1
  Mg  Mg45  1  0.15022800  1.00000000  0.66875000  1
  Mg  Mg46  1  0.65022800  1.00000000  0.73125000  1
  Mg  Mg47  1  0.15022800  1.00000000  0.79375000  1
