# generated using pymatgen
data_Yb10Mg3
_symmetry_space_group_name_H-M   'P 1'
_cell_length_a   5.99982500
_cell_length_b   12.72837800
_cell_length_c   44.09239500
_cell_angle_alpha   90.00000000
_cell_angle_beta   90.00000000
_cell_angle_gamma   90.00000000
_symmetry_Int_Tables_number   1
_chemical_formula_structural   Yb10Mg3
_chemical_formula_sum   'Yb40 Mg12'
_cell_volume   3367.24980859
_cell_formula_units_Z   4
loop_
 _symmetry_equiv_pos_site_id
 _symmetry_equiv_pos_as_xyz
  1  'x, y, z'
loop_
 _atom_site_type_symbol
 _atom_site_label
 _atom_site_symmetry_multiplicity
 _atom_site_fract_x
 _atom_site_fract_y
 _atom_site_fract_z
 _atom_site_occupancy
  Yb  Yb0  1  0.25000000  0.71271800  0.22829000  1
  Yb  Yb1  1  0.25000000  0.21271800  0.23004400  1
  Yb  Yb2  1  0.25000000  0.45745600  0.27083300  1
  Yb  Yb3  1  0.75000000  0.79780500  0.27083300  1
  Yb  Yb4  1  0.75000000  0.54254400  0.22829000  1
  Yb  Yb5  1  0.75000000  0.04254400  0.23004400  1
  Yb  Yb6  1  0.25000000  0.21271800  0.31162300  1
  Yb  Yb7  1  0.25000000  0.71271800  0.31337700  1
  Yb  Yb8  1  0.25000000  0.95745600  0.35416700  1
  Yb  Yb9  1  0.75000000  0.29780500  0.35416700  1
  Yb  Yb10  1  0.75000000  0.04254400  0.31162300  1
  Yb  Yb11  1  0.75000000  0.54254400  0.31337700  1
  Yb  Yb12  1  0.25000000  0.71271800  0.39495600  1
  Yb  Yb13  1  0.25000000  0.21271800  0.39671000  1
  Yb  Yb14  1  0.25000000  0.45745600  0.43750000  1
  Yb  Yb15  1  0.75000000  0.79780500  0.43750000  1
  Yb  Yb16  1  0.75000000  0.54254400  0.39495600  1
  Yb  Yb17  1  0.75000000  0.04254400  0.39671000  1
  Yb  Yb18  1  0.25000000  0.21271800  0.47829000  1
  Yb  Yb19  1  0.25000000  0.71271800  0.48004400  1
  Yb  Yb20  1  0.25000000  0.95745600  0.52083300  1
  Yb  Yb21  1  0.75000000  0.29780500  0.52083300  1
  Yb  Yb22  1  0.75000000  0.04254400  0.47829000  1
  Yb  Yb23  1  0.75000000  0.54254400  0.48004400  1
  Yb  Yb24  1  0.25000000  0.71271800  0.56162300  1
  Yb  Yb25  1  0.25000000  0.21271800  0.56337700  1
  Yb  Yb26  1  0.25000000  0.45745600  0.60416700  1
  Yb  Yb27  1  0.75000000  0.79780500  0.60416700  1
  Yb  Yb28  1  0.75000000  0.54254400  0.56162300  1
  Yb  Yb29  1  0.75000000  0.04254400  0.56337700  1
  Yb  Yb30  1  0.25000000  0.21271800  0.64495600  1
  Yb  Yb31  1  0.25000000  0.71271800  0.64671000  1
  Yb  Yb32  1  0.25000000  0.95745600  0.68750000  1
  Yb  Yb33  1  0.75000000  0.29780500  0.68750000  1
  Yb  Yb34  1  0.75000000  0.04254400  0.64495600  1
  Yb  Yb35  1  0.75000000  0.54254400  0.64671000  1
  Yb  Yb36  1  0.25000000  0.71271800  0.72829000  1
  Yb  Yb37  1  0.25000000  0.21271800  0.73004400  1
  Yb  Yb38  1  0.75000000  0.54254400  0.72829000  1
  Yb  Yb39  1  0.75000000  0.04254400  0.73004400  1
  Mg  Mg40  1  0.25000000  0.96096400  0.27083300  1
  Mg  Mg41  1  0.75000000  0.29429700  0.27083300  1
  Mg  Mg42  1  0.25000000  0.46096400  0.35416700  1
  Mg  Mg43  1  0.75000000  0.79429700  0.35416700  1
  Mg  Mg44  1  0.25000000  0.96096400  0.43750000  1
  Mg  Mg45  1  0.75000000  0.29429700  0.43750000  1
  Mg  Mg46  1  0.25000000  0.46096400  0.52083300  1
  Mg  Mg47  1  0.75000000  0.79429700  0.52083300  1
  Mg  Mg48  1  0.25000000  0.96096400  0.60416700  1
  Mg  Mg49  1  0.75000000  0.29429700  0.60416700  1
  Mg  Mg50  1  0.25000000  0.46096400  0.68750000  1
  Mg  Mg51  1  0.75000000  0.79429700  0.68750000  1
