# generated using pymatgen
data_Yb19Mg9
_symmetry_space_group_name_H-M   'P 1'
_cell_length_a   3.76282700
_cell_length_b   19.46963027
_cell_length_c   45.10541200
_cell_angle_alpha   96.74616046
_cell_angle_beta   90.00000000
_cell_angle_gamma   90.00000000
_symmetry_Int_Tables_number   1
_chemical_formula_structural   Yb19Mg9
_chemical_formula_sum   'Yb38 Mg18'
_cell_volume   3281.58185130
_cell_formula_units_Z   2
loop_
 _symmetry_equiv_pos_site_id
 _symmetry_equiv_pos_as_xyz
  1  'x, y, z'
loop_
 _atom_site_type_symbol
 _atom_site_label
 _atom_site_symmetry_multiplicity
 _atom_site_fract_x
 _atom_site_fract_y
 _atom_site_fract_z
 _atom_site_occupancy
  Yb  Yb0  1  0.00000000  0.77137900  0.24375200  1
  Yb  Yb1  1  0.50000000  0.89224100  0.29791500  1
  Yb  Yb2  1  0.00000000  0.50104200  0.28237200  1
  Yb  Yb3  1  0.50000000  0.33387900  0.30625200  1
  Yb  Yb4  1  0.50000000  0.16257700  0.25929500  1
  Yb  Yb5  1  1.00000000  0.32974100  0.23541500  1
  Yb  Yb6  1  0.50000000  0.06354200  0.34487200  1
  Yb  Yb7  1  0.00000000  0.89637900  0.36875200  1
  Yb  Yb8  1  0.00000000  0.72507700  0.32179500  1
  Yb  Yb9  1  0.50000000  0.01724100  0.42291500  1
  Yb  Yb10  1  0.00000000  0.62604200  0.40737200  1
  Yb  Yb11  1  0.50000000  0.45887900  0.43125200  1
  Yb  Yb12  1  0.50000000  0.28757700  0.38429500  1
  Yb  Yb13  1  0.00000000  0.45474100  0.36041500  1
  Yb  Yb14  1  0.50000000  0.18854200  0.46987200  1
  Yb  Yb15  1  0.00000000  0.02137900  0.49375200  1
  Yb  Yb16  1  0.00000000  0.85007700  0.44679500  1
  Yb  Yb17  1  0.50000000  0.14224100  0.54791500  1
  Yb  Yb18  1  0.00000000  0.75104200  0.53237200  1
  Yb  Yb19  1  0.50000000  0.58387900  0.55625200  1
  Yb  Yb20  1  0.50000000  0.41257700  0.50929500  1
  Yb  Yb21  1  1.00000000  0.57974100  0.48541500  1
  Yb  Yb22  1  0.50000000  0.31354200  0.59487200  1
  Yb  Yb23  1  0.00000000  0.14637900  0.61875200  1
  Yb  Yb24  1  0.00000000  0.97507700  0.57179500  1
  Yb  Yb25  1  0.50000000  0.26724100  0.67291500  1
  Yb  Yb26  1  0.00000000  0.87604200  0.65737200  1
  Yb  Yb27  1  0.50000000  0.70887900  0.68125200  1
  Yb  Yb28  1  0.50000000  0.53757700  0.63429500  1
  Yb  Yb29  1  1.00000000  0.70474100  0.61041500  1
  Yb  Yb30  1  0.50000000  0.43854200  0.71987200  1
  Yb  Yb31  1  0.00000000  0.27137900  0.74375200  1
  Yb  Yb32  1  0.00000000  0.10007700  0.69679500  1
  Yb  Yb33  1  0.50000000  0.39224100  0.79791500  1
  Yb  Yb34  1  0.00000000  0.00104200  0.78237200  1
  Yb  Yb35  1  0.50000000  0.83387900  0.80625200  1
  Yb  Yb36  1  0.50000000  0.66257700  0.75929500  1
  Yb  Yb37  1  0.00000000  0.82974100  0.73541500  1
  Mg  Mg38  1  0.50000000  0.63386600  0.26339700  1
  Mg  Mg39  1  1.00000000  0.02975400  0.27827000  1
  Mg  Mg40  1  0.50000000  0.75886600  0.38839700  1
  Mg  Mg41  1  1.00000000  0.15475400  0.40327000  1
  Mg  Mg42  1  0.00000000  0.19636600  0.32589700  1
  Mg  Mg43  1  0.50000000  0.59225400  0.34077000  1
  Mg  Mg44  1  0.50000000  0.88386600  0.51339700  1
  Mg  Mg45  1  1.00000000  0.27975400  0.52827000  1
  Mg  Mg46  1  1.00000000  0.32136600  0.45089700  1
  Mg  Mg47  1  0.50000000  0.71725400  0.46577000  1
  Mg  Mg48  1  0.50000000  0.00886600  0.63839700  1
  Mg  Mg49  1  1.00000000  0.40475400  0.65327000  1
  Mg  Mg50  1  0.00000000  0.44636600  0.57589700  1
  Mg  Mg51  1  0.50000000  0.84225400  0.59077000  1
  Mg  Mg52  1  0.50000000  0.13386600  0.76339700  1
  Mg  Mg53  1  0.00000000  0.52975400  0.77827000  1
  Mg  Mg54  1  1.00000000  0.57136600  0.70089700  1
  Mg  Mg55  1  0.50000000  0.96725400  0.71577000  1
