# generated using pymatgen
data_Mg9Si5
_symmetry_space_group_name_H-M   'P 1'
_cell_length_a   7.16868100
_cell_length_b   7.16868087
_cell_length_c   61.70781200
_cell_angle_alpha   90.00000000
_cell_angle_beta   90.00000000
_cell_angle_gamma   119.99999597
_symmetry_Int_Tables_number   1
_chemical_formula_structural   Mg9Si5
_chemical_formula_sum   'Mg54 Si30'
_cell_volume   2746.30836400
_cell_formula_units_Z   6
loop_
 _symmetry_equiv_pos_site_id
 _symmetry_equiv_pos_as_xyz
  1  'x, y, z'
loop_
 _atom_site_type_symbol
 _atom_site_label
 _atom_site_symmetry_multiplicity
 _atom_site_fract_x
 _atom_site_fract_y
 _atom_site_fract_z
 _atom_site_occupancy
  Mg  Mg0  1  0.67906600  0.08440000  0.21659200  1
  Mg  Mg1  1  0.59466600  0.67906600  0.31659200  1
  Mg  Mg2  1  0.08440000  0.40533400  0.31659200  1
  Mg  Mg3  1  0.91560000  0.59466600  0.21659200  1
  Mg  Mg4  1  0.40533400  0.32093400  0.21659200  1
  Mg  Mg5  1  0.32093400  0.91560000  0.31659200  1
  Mg  Mg6  1  0.32093400  0.91560000  0.38340800  1
  Mg  Mg7  1  0.40533400  0.32093400  0.28340800  1
  Mg  Mg8  1  0.91560000  0.59466600  0.28340800  1
  Mg  Mg9  1  0.08440000  0.40533400  0.38340800  1
  Mg  Mg10  1  0.59466600  0.67906600  0.38340800  1
  Mg  Mg11  1  0.67906600  0.08440000  0.28340800  1
  Mg  Mg12  1  0.72620500  0.07221300  0.35000000  1
  Mg  Mg13  1  0.65399200  0.72620500  0.25000000  1
  Mg  Mg14  1  0.07221300  0.34600800  0.25000000  1
  Mg  Mg15  1  0.92778700  0.65399200  0.35000000  1
  Mg  Mg16  1  0.34600800  0.27379500  0.35000000  1
  Mg  Mg17  1  0.27379500  0.92778700  0.25000000  1
  Mg  Mg18  1  0.67906600  0.08440000  0.41659200  1
  Mg  Mg19  1  0.59466600  0.67906600  0.51659200  1
  Mg  Mg20  1  0.08440000  0.40533400  0.51659200  1
  Mg  Mg21  1  0.91560000  0.59466600  0.41659200  1
  Mg  Mg22  1  0.40533400  0.32093400  0.41659200  1
  Mg  Mg23  1  0.32093400  0.91560000  0.51659200  1
  Mg  Mg24  1  0.32093400  0.91560000  0.58340800  1
  Mg  Mg25  1  0.40533400  0.32093400  0.48340800  1
  Mg  Mg26  1  0.91560000  0.59466600  0.48340800  1
  Mg  Mg27  1  0.08440000  0.40533400  0.58340800  1
  Mg  Mg28  1  0.59466600  0.67906600  0.58340800  1
  Mg  Mg29  1  0.67906600  0.08440000  0.48340800  1
  Mg  Mg30  1  0.72620500  0.07221300  0.55000000  1
  Mg  Mg31  1  0.65399200  0.72620500  0.45000000  1
  Mg  Mg32  1  0.07221300  0.34600800  0.45000000  1
  Mg  Mg33  1  0.92778700  0.65399200  0.55000000  1
  Mg  Mg34  1  0.34600800  0.27379500  0.55000000  1
  Mg  Mg35  1  0.27379500  0.92778700  0.45000000  1
  Mg  Mg36  1  0.67906600  0.08440000  0.61659200  1
  Mg  Mg37  1  0.59466600  0.67906600  0.71659200  1
  Mg  Mg38  1  0.08440000  0.40533400  0.71659200  1
  Mg  Mg39  1  0.91560000  0.59466600  0.61659200  1
  Mg  Mg40  1  0.40533400  0.32093400  0.61659200  1
  Mg  Mg41  1  0.32093400  0.91560000  0.71659200  1
  Mg  Mg42  1  0.32093400  0.91560000  0.78340800  1
  Mg  Mg43  1  0.40533400  0.32093400  0.68340800  1
  Mg  Mg44  1  0.91560000  0.59466600  0.68340800  1
  Mg  Mg45  1  0.08440000  0.40533400  0.78340800  1
  Mg  Mg46  1  0.59466600  0.67906600  0.78340800  1
  Mg  Mg47  1  0.67906600  0.08440000  0.68340800  1
  Mg  Mg48  1  0.72620500  0.07221300  0.75000000  1
  Mg  Mg49  1  0.65399200  0.72620500  0.65000000  1
  Mg  Mg50  1  0.07221300  0.34600800  0.65000000  1
  Mg  Mg51  1  0.92778700  0.65399200  0.75000000  1
  Mg  Mg52  1  0.34600800  0.27379500  0.75000000  1
  Mg  Mg53  1  0.27379500  0.92778700  0.65000000  1
  Si  Si54  1  0.00000000  0.00000000  0.37994800  1
  Si  Si55  1  0.00000000  0.00000000  0.27994800  1
  Si  Si56  1  0.00000000  0.00000000  0.22005200  1
  Si  Si57  1  0.00000000  0.00000000  0.32005200  1
  Si  Si58  1  0.33333300  0.66666700  0.35000000  1
  Si  Si59  1  0.66666700  0.33333300  0.25000000  1
  Si  Si60  1  0.66666700  0.33333300  0.31749300  1
  Si  Si61  1  0.33333300  0.66666700  0.21749300  1
  Si  Si62  1  0.33333300  0.66666700  0.28250700  1
  Si  Si63  1  0.66666700  0.33333300  0.38250700  1
  Si  Si64  1  0.00000000  0.00000000  0.57994800  1
  Si  Si65  1  0.00000000  0.00000000  0.47994800  1
  Si  Si66  1  0.00000000  0.00000000  0.42005200  1
  Si  Si67  1  0.00000000  0.00000000  0.52005200  1
  Si  Si68  1  0.33333300  0.66666700  0.55000000  1
  Si  Si69  1  0.66666700  0.33333300  0.45000000  1
  Si  Si70  1  0.66666700  0.33333300  0.51749300  1
  Si  Si71  1  0.33333300  0.66666700  0.41749300  1
  Si  Si72  1  0.33333300  0.66666700  0.48250700  1
  Si  Si73  1  0.66666700  0.33333300  0.58250700  1
  Si  Si74  1  0.00000000  0.00000000  0.77994800  1
  Si  Si75  1  0.00000000  0.00000000  0.67994800  1
  Si  Si76  1  0.00000000  0.00000000  0.62005200  1
  Si  Si77  1  0.00000000  0.00000000  0.72005200  1
  Si  Si78  1  0.33333300  0.66666700  0.75000000  1
  Si  Si79  1  0.66666700  0.33333300  0.65000000  1
  Si  Si80  1  0.66666700  0.33333300  0.71749300  1
  Si  Si81  1  0.33333300  0.66666700  0.61749300  1
  Si  Si82  1  0.33333300  0.66666700  0.68250700  1
  Si  Si83  1  0.66666700  0.33333300  0.78250700  1
