# generated using pymatgen
data_Nd7Mg3
_symmetry_space_group_name_H-M   'P 1'
_cell_length_a   3.84469700
_cell_length_b   5.67409700
_cell_length_c   52.34251900
_cell_angle_alpha   90.00000000
_cell_angle_beta   90.00000000
_cell_angle_gamma   90.00000000
_symmetry_Int_Tables_number   1
_chemical_formula_structural   Nd7Mg3
_chemical_formula_sum   'Nd14 Mg6'
_cell_volume   1141.86166802
_cell_formula_units_Z   2
loop_
 _symmetry_equiv_pos_site_id
 _symmetry_equiv_pos_as_xyz
  1  'x, y, z'
loop_
 _atom_site_type_symbol
 _atom_site_label
 _atom_site_symmetry_multiplicity
 _atom_site_fract_x
 _atom_site_fract_y
 _atom_site_fract_z
 _atom_site_occupancy
  Nd  Nd0  1  0.00000000  0.75000000  0.47346300  1
  Nd  Nd1  1  0.50000000  0.75000000  0.20060800  1
  Nd  Nd2  1  0.50000000  0.25000000  0.24875900  1
  Nd  Nd3  1  0.00000000  0.25000000  0.18828100  1
  Nd  Nd4  1  0.50000000  0.75000000  0.30679700  1
  Nd  Nd5  1  1.00000000  0.75000000  0.36727500  1
  Nd  Nd6  1  1.00000000  0.25000000  0.41542600  1
  Nd  Nd7  1  0.50000000  0.25000000  0.35494700  1
  Nd  Nd8  1  0.50000000  0.75000000  0.53394200  1
  Nd  Nd9  1  0.50000000  0.25000000  0.58209200  1
  Nd  Nd10  1  1.00000000  0.25000000  0.52161400  1
  Nd  Nd11  1  0.50000000  0.75000000  0.64013000  1
  Nd  Nd12  1  0.00000000  0.75000000  0.70060800  1
  Nd  Nd13  1  0.50000000  0.25000000  0.68828100  1
  Mg  Mg14  1  0.00000000  0.75000000  0.25430200  1
  Mg  Mg15  1  0.50000000  0.25000000  0.46792100  1
  Mg  Mg16  1  0.50000000  0.75000000  0.42096800  1
  Mg  Mg17  1  1.00000000  0.25000000  0.30125400  1
  Mg  Mg18  1  1.00000000  0.75000000  0.58763500  1
  Mg  Mg19  1  0.00000000  0.25000000  0.63458700  1
