# generated using pymatgen
data_Mg24Ir35
_symmetry_space_group_name_H-M   'P 1'
_cell_length_a   5.24707500
_cell_length_b   21.51305055
_cell_length_c   52.37228200
_cell_angle_alpha   80.49835411
_cell_angle_beta   90.00000000
_cell_angle_gamma   90.00000000
_symmetry_Int_Tables_number   1
_chemical_formula_structural   Mg24Ir35
_chemical_formula_sum   'Mg72 Ir105'
_cell_volume   5830.70907253
_cell_formula_units_Z   3
loop_
 _symmetry_equiv_pos_site_id
 _symmetry_equiv_pos_as_xyz
  1  'x, y, z'
loop_
 _atom_site_type_symbol
 _atom_site_label
 _atom_site_symmetry_multiplicity
 _atom_site_fract_x
 _atom_site_fract_y
 _atom_site_fract_z
 _atom_site_occupancy
  Mg  Mg0  1  0.50000000  0.91085000  0.34360000  1
  Mg  Mg1  1  0.00000000  0.74052100  0.23354300  1
  Mg  Mg2  1  0.00000000  0.67484200  0.33316100  1
  Mg  Mg3  1  0.50000000  0.97652800  0.24398200  1
  Mg  Mg4  1  0.50000000  0.86855000  0.29067600  1
  Mg  Mg5  1  0.00000000  0.78282100  0.28646700  1
  Mg  Mg6  1  0.50000000  0.04449700  0.33508400  1
  Mg  Mg7  1  0.00000000  0.60687300  0.24205900  1
  Mg  Mg8  1  0.50000000  0.53207800  0.22393200  1
  Mg  Mg9  1  0.00000000  0.11929200  0.35321100  1
  Mg  Mg10  1  0.00000000  0.33942100  0.27217200  1
  Mg  Mg11  1  0.50000000  0.31194900  0.30497100  1
  Mg  Mg12  1  0.50000000  0.10341400  0.26173300  1
  Mg  Mg13  1  0.00000000  0.54795700  0.31541000  1
  Mg  Mg14  1  0.00000000  0.29712100  0.21924700  1
  Mg  Mg15  1  0.50000000  0.21139200  0.21503800  1
  Mg  Mg16  1  0.00000000  0.47306900  0.26365500  1
  Mg  Mg17  1  0.50000000  0.17830200  0.31348700  1
  Mg  Mg18  1  0.00000000  0.10350600  0.29536100  1
  Mg  Mg19  1  0.50000000  0.54786400  0.28178200  1
  Mg  Mg20  1  0.50000000  0.05370700  0.48645700  1
  Mg  Mg21  1  0.00000000  0.88337800  0.37640000  1
  Mg  Mg22  1  0.00000000  0.81769900  0.47601800  1
  Mg  Mg23  1  0.50000000  0.11938500  0.38683900  1
  Mg  Mg24  1  0.50000000  0.01140700  0.43353300  1
  Mg  Mg25  1  0.00000000  0.92567800  0.42932400  1
  Mg  Mg26  1  0.50000000  0.18735400  0.47794100  1
  Mg  Mg27  1  0.00000000  0.74973000  0.38491600  1
  Mg  Mg28  1  0.50000000  0.67493500  0.36678900  1
  Mg  Mg29  1  0.00000000  0.26215000  0.49606800  1
  Mg  Mg30  1  0.00000000  0.48227800  0.41502900  1
  Mg  Mg31  1  0.50000000  0.45480600  0.44782800  1
  Mg  Mg32  1  0.50000000  0.24627100  0.40459000  1
  Mg  Mg33  1  0.00000000  0.69081400  0.45826700  1
  Mg  Mg34  1  0.00000000  0.43997800  0.36210500  1
  Mg  Mg35  1  0.50000000  0.35424900  0.35789500  1
  Mg  Mg36  1  0.00000000  0.61592600  0.40651300  1
  Mg  Mg37  1  0.50000000  0.32115900  0.45634500  1
  Mg  Mg38  1  0.00000000  0.24636400  0.43821800  1
  Mg  Mg39  1  0.50000000  0.69072100  0.42463900  1
  Mg  Mg40  1  0.50000000  0.19656400  0.62931500  1
  Mg  Mg41  1  1.00000000  0.02623500  0.51925700  1
  Mg  Mg42  1  0.00000000  0.96055600  0.61887600  1
  Mg  Mg43  1  0.50000000  0.26224200  0.52969600  1
  Mg  Mg44  1  0.50000000  0.15426400  0.57639000  1
  Mg  Mg45  1  0.00000000  0.06853500  0.57218100  1
  Mg  Mg46  1  0.50000000  0.33021200  0.62079800  1
  Mg  Mg47  1  0.00000000  0.89258700  0.52777300  1
  Mg  Mg48  1  0.50000000  0.81779200  0.50964700  1
  Mg  Mg49  1  0.00000000  0.40500700  0.63892500  1
  Mg  Mg50  1  0.00000000  0.62513500  0.55788600  1
  Mg  Mg51  1  0.50000000  0.59766400  0.59068500  1
  Mg  Mg52  1  0.50000000  0.38912800  0.54744700  1
  Mg  Mg53  1  0.00000000  0.83367100  0.60112400  1
  Mg  Mg54  1  0.00000000  0.58283500  0.50496200  1
  Mg  Mg55  1  0.50000000  0.49710600  0.50075300  1
  Mg  Mg56  1  0.00000000  0.75878300  0.54937000  1
  Mg  Mg57  1  0.50000000  0.46401600  0.59920200  1
  Mg  Mg58  1  0.00000000  0.38922100  0.58107500  1
  Mg  Mg59  1  0.50000000  0.83357800  0.56749600  1
  Mg  Mg60  1  0.00000000  0.16909200  0.66211400  1
  Mg  Mg61  1  0.50000000  0.40510000  0.67255300  1
  Mg  Mg62  1  0.50000000  0.29712100  0.71924700  1
  Mg  Mg63  1  0.00000000  0.21139200  0.71503800  1
  Mg  Mg64  1  0.00000000  0.03544400  0.67063000  1
  Mg  Mg65  1  0.50000000  0.96064900  0.65250400  1
  Mg  Mg66  1  1.00000000  0.76799200  0.70074300  1
  Mg  Mg67  1  0.50000000  0.53198500  0.69030400  1
  Mg  Mg68  1  0.00000000  0.72569300  0.64781900  1
  Mg  Mg69  1  0.50000000  0.63996300  0.64361000  1
  Mg  Mg70  1  0.00000000  0.90164000  0.69222700  1
  Mg  Mg71  1  0.50000000  0.97643500  0.71035300  1
  Ir  Ir72  1  0.00000000  0.99496400  0.33897200  1
  Ir  Ir73  1  0.50000000  0.65640700  0.23817100  1
  Ir  Ir74  1  0.24951300  0.79399000  0.33893300  1
  Ir  Ir75  1  0.25048700  0.85738000  0.23821000  1
  Ir  Ir76  1  0.74951300  0.85738000  0.23821000  1
  Ir  Ir77  1  0.75048700  0.79399000  0.33893300  1
  Ir  Ir78  1  0.00000000  0.03997100  0.25285700  1
  Ir  Ir79  1  0.50000000  0.76179400  0.25871600  1
  Ir  Ir80  1  0.00000000  0.88957700  0.31842700  1
  Ir  Ir81  1  0.50000000  0.73255500  0.30961200  1
  Ir  Ir82  1  0.00000000  0.91881600  0.26753000  1
  Ir  Ir83  1  0.26606200  0.99132600  0.29498000  1
  Ir  Ir84  1  0.23393800  0.66004400  0.28216300  1
  Ir  Ir85  1  0.76606200  0.66004400  0.28216300  1
  Ir  Ir86  1  0.73393800  0.99132600  0.29498000  1
  Ir  Ir87  1  0.50000000  0.42353500  0.26754300  1
  Ir  Ir88  1  0.00000000  0.22783500  0.30960000  1
  Ir  Ir89  1  0.74951300  0.22256100  0.26750400  1
  Ir  Ir90  1  0.75048700  0.42880900  0.30963900  1
  Ir  Ir91  1  0.24951300  0.42880900  0.30963900  1
  Ir  Ir92  1  0.25048700  0.22256100  0.26750400  1
  Ir  Ir93  1  0.50000000  0.61139900  0.32428600  1
  Ir  Ir94  1  0.00000000  0.33322200  0.33014500  1
  Ir  Ir95  1  0.50000000  0.31814800  0.24699800  1
  Ir  Ir96  1  0.00000000  0.16112600  0.23818400  1
  Ir  Ir97  1  0.50000000  0.49024400  0.33895900  1
  Ir  Ir98  1  0.76606200  0.41989800  0.22355200  1
  Ir  Ir99  1  0.73393800  0.23147300  0.35359100  1
  Ir  Ir100  1  0.26606200  0.23147300  0.35359100  1
  Ir  Ir101  1  0.23393800  0.41989800  0.22355200  1
  Ir  Ir102  1  0.00000000  0.13782100  0.48182900  1
  Ir  Ir103  1  0.50000000  0.79926400  0.38102800  1
  Ir  Ir104  1  0.24951300  0.93684700  0.48179000  1
  Ir  Ir105  1  0.25048700  0.00023700  0.38106700  1
  Ir  Ir106  1  0.74951300  0.00023700  0.38106700  1
  Ir  Ir107  1  0.75048700  0.93684700  0.48179000  1
  Ir  Ir108  1  0.00000000  0.18282800  0.39571400  1
  Ir  Ir109  1  0.50000000  0.90465100  0.40157300  1
  Ir  Ir110  1  0.00000000  0.03243400  0.46128400  1
  Ir  Ir111  1  0.50000000  0.87541200  0.45247000  1
  Ir  Ir112  1  1.00000000  0.06167300  0.41038800  1
  Ir  Ir113  1  0.26606200  0.13418300  0.43783700  1
  Ir  Ir114  1  0.23393800  0.80290100  0.42502000  1
  Ir  Ir115  1  0.76606200  0.80290100  0.42502000  1
  Ir  Ir116  1  0.73393800  0.13418300  0.43783700  1
  Ir  Ir117  1  0.50000000  0.56639200  0.41040000  1
  Ir  Ir118  1  0.00000000  0.37069200  0.45245700  1
  Ir  Ir119  1  0.74951300  0.36541900  0.41036100  1
  Ir  Ir120  1  0.75048700  0.57166600  0.45249600  1
  Ir  Ir121  1  0.24951300  0.57166600  0.45249600  1
  Ir  Ir122  1  0.25048700  0.36541900  0.41036100  1
  Ir  Ir123  1  0.50000000  0.75425700  0.46714300  1
  Ir  Ir124  1  0.00000000  0.47607900  0.47300200  1
  Ir  Ir125  1  0.50000000  0.46100500  0.38985500  1
  Ir  Ir126  1  0.00000000  0.30398300  0.38104100  1
  Ir  Ir127  1  0.50000000  0.63310200  0.48181600  1
  Ir  Ir128  1  0.76606200  0.56275500  0.36640900  1
  Ir  Ir129  1  0.73393800  0.37433000  0.49644800  1
  Ir  Ir130  1  0.26606200  0.37433000  0.49644800  1
  Ir  Ir131  1  0.23393800  0.56275500  0.36640900  1
  Ir  Ir132  1  0.00000000  0.28067800  0.62468600  1
  Ir  Ir133  1  0.50000000  0.94212100  0.52388600  1
  Ir  Ir134  1  0.24951300  0.07970400  0.62464700  1
  Ir  Ir135  1  0.25048700  0.14309500  0.52392500  1
  Ir  Ir136  1  0.74951300  0.14309500  0.52392500  1
  Ir  Ir137  1  0.75048700  0.07970400  0.62464700  1
  Ir  Ir138  1  0.00000000  0.32568500  0.53857100  1
  Ir  Ir139  1  0.50000000  0.04750800  0.54443000  1
  Ir  Ir140  1  0.00000000  0.17529100  0.60414100  1
  Ir  Ir141  1  0.50000000  0.01826900  0.59532700  1
  Ir  Ir142  1  1.00000000  0.20453000  0.55324500  1
  Ir  Ir143  1  0.26606200  0.27704100  0.58069400  1
  Ir  Ir144  1  0.23393800  0.94575800  0.56787700  1
  Ir  Ir145  1  0.76606200  0.94575800  0.56787700  1
  Ir  Ir146  1  0.73393800  0.27704100  0.58069400  1
  Ir  Ir147  1  0.50000000  0.70925000  0.55325700  1
  Ir  Ir148  1  1.00000000  0.51354900  0.59531400  1
  Ir  Ir149  1  0.74951300  0.50827600  0.55321800  1
  Ir  Ir150  1  0.75048700  0.71452300  0.59535300  1
  Ir  Ir151  1  0.24951300  0.71452300  0.59535300  1
  Ir  Ir152  1  0.25048700  0.50827600  0.55321800  1
  Ir  Ir153  1  0.50000000  0.89711400  0.61000000  1
  Ir  Ir154  1  0.00000000  0.61893600  0.61585900  1
  Ir  Ir155  1  0.50000000  0.60386200  0.53271200  1
  Ir  Ir156  1  0.00000000  0.44684000  0.52389800  1
  Ir  Ir157  1  0.50000000  0.77595900  0.62467300  1
  Ir  Ir158  1  0.76606200  0.70561200  0.50926600  1
  Ir  Ir159  1  0.73393800  0.51718700  0.63930600  1
  Ir  Ir160  1  0.26606200  0.51718700  0.63930600  1
  Ir  Ir161  1  0.23393800  0.70561200  0.50926600  1
  Ir  Ir162  1  0.50000000  0.08497800  0.66674300  1
  Ir  Ir163  1  0.25048700  0.28595200  0.66678200  1
  Ir  Ir164  1  0.74951300  0.28595200  0.66678200  1
  Ir  Ir165  1  0.00000000  0.46854200  0.68142900  1
  Ir  Ir166  1  0.50000000  0.19036500  0.68728800  1
  Ir  Ir167  1  0.00000000  0.34738700  0.69610200  1
  Ir  Ir168  1  0.23393800  0.08861600  0.71073400  1
  Ir  Ir169  1  0.76606200  0.08861600  0.71073400  1
  Ir  Ir170  1  0.50000000  0.85210700  0.69611400  1
  Ir  Ir171  1  0.74951300  0.65113300  0.69607500  1
  Ir  Ir172  1  0.25048700  0.65113300  0.69607500  1
  Ir  Ir173  1  0.50000000  0.74672000  0.67557000  1
  Ir  Ir174  1  0.00000000  0.58969700  0.66675500  1
  Ir  Ir175  1  0.76606200  0.84846900  0.65212300  1
  Ir  Ir176  1  0.23393800  0.84846900  0.65212300  1
