# generated using pymatgen
data_MgCd2
_symmetry_space_group_name_H-M   'P 1'
_cell_length_a   6.07439151
_cell_length_b   8.35399647
_cell_length_c   42.16682800
_cell_angle_alpha   91.94696428
_cell_angle_beta   90.39794456
_cell_angle_gamma   95.44863217
_symmetry_Int_Tables_number   1
_chemical_formula_structural   MgCd2
_chemical_formula_sum   'Mg20 Cd40'
_cell_volume   2128.76541892
_cell_formula_units_Z   20
loop_
 _symmetry_equiv_pos_site_id
 _symmetry_equiv_pos_as_xyz
  1  'x, y, z'
loop_
 _atom_site_type_symbol
 _atom_site_label
 _atom_site_symmetry_multiplicity
 _atom_site_fract_x
 _atom_site_fract_y
 _atom_site_fract_z
 _atom_site_occupancy
  Mg  Mg0  1  0.08989300  0.44667000  0.22752700  1
  Mg  Mg1  1  0.66010700  0.99083000  0.20997300  1
  Mg  Mg2  1  0.83989300  0.50917000  0.29002700  1
  Mg  Mg3  1  0.41010700  0.05333000  0.27247300  1
  Mg  Mg4  1  0.58989300  0.57167000  0.35252700  1
  Mg  Mg5  1  0.16010700  0.11583000  0.33497300  1
  Mg  Mg6  1  0.33989300  0.63417000  0.41502700  1
  Mg  Mg7  1  0.91010700  0.17833000  0.39747300  1
  Mg  Mg8  1  0.08989300  0.69667000  0.47752700  1
  Mg  Mg9  1  0.66010700  0.24083000  0.45997300  1
  Mg  Mg10  1  0.83989300  0.75917000  0.54002700  1
  Mg  Mg11  1  0.41010700  0.30333000  0.52247300  1
  Mg  Mg12  1  0.58989300  0.82167000  0.60252700  1
  Mg  Mg13  1  0.16010700  0.36583000  0.58497300  1
  Mg  Mg14  1  0.33989300  0.88417000  0.66502700  1
  Mg  Mg15  1  0.91010700  0.42833000  0.64747300  1
  Mg  Mg16  1  0.08989300  0.94667000  0.72752700  1
  Mg  Mg17  1  0.66010700  0.49083000  0.70997300  1
  Mg  Mg18  1  0.83989300  0.00917000  0.79002700  1
  Mg  Mg19  1  0.41010700  0.55333000  0.77247300  1
  Cd  Cd20  1  0.17336800  0.09360500  0.20665800  1
  Cd  Cd21  1  0.00657300  0.80093900  0.24835700  1
  Cd  Cd22  1  0.74342700  0.63656100  0.18914300  1
  Cd  Cd23  1  0.57663200  0.34389500  0.23084200  1
  Cd  Cd24  1  0.92336800  0.15610500  0.26915800  1
  Cd  Cd25  1  0.75657300  0.86343900  0.31085700  1
  Cd  Cd26  1  0.49342700  0.69906100  0.25164300  1
  Cd  Cd27  1  0.32663200  0.40639500  0.29334200  1
  Cd  Cd28  1  0.67336800  0.21860500  0.33165800  1
  Cd  Cd29  1  0.50657300  0.92593900  0.37335700  1
  Cd  Cd30  1  0.24342700  0.76156100  0.31414300  1
  Cd  Cd31  1  0.07663200  0.46889500  0.35584200  1
  Cd  Cd32  1  0.42336800  0.28110500  0.39415800  1
  Cd  Cd33  1  0.25657300  0.98843900  0.43585700  1
  Cd  Cd34  1  0.99342700  0.82406100  0.37664300  1
  Cd  Cd35  1  0.82663200  0.53139500  0.41834200  1
  Cd  Cd36  1  0.17336800  0.34360500  0.45665800  1
  Cd  Cd37  1  0.00657300  0.05093900  0.49835700  1
  Cd  Cd38  1  0.74342700  0.88656100  0.43914300  1
  Cd  Cd39  1  0.57663200  0.59389500  0.48084200  1
  Cd  Cd40  1  0.92336800  0.40610500  0.51915800  1
  Cd  Cd41  1  0.75657300  0.11343900  0.56085700  1
  Cd  Cd42  1  0.49342700  0.94906100  0.50164300  1
  Cd  Cd43  1  0.32663200  0.65639500  0.54334200  1
  Cd  Cd44  1  0.67336800  0.46860500  0.58165800  1
  Cd  Cd45  1  0.50657300  0.17593900  0.62335700  1
  Cd  Cd46  1  0.24342700  0.01156100  0.56414300  1
  Cd  Cd47  1  0.07663200  0.71889500  0.60584200  1
  Cd  Cd48  1  0.42336800  0.53110500  0.64415800  1
  Cd  Cd49  1  0.25657300  0.23843900  0.68585700  1
  Cd  Cd50  1  0.99342700  0.07406100  0.62664300  1
  Cd  Cd51  1  0.82663200  0.78139500  0.66834200  1
  Cd  Cd52  1  0.17336800  0.59360500  0.70665800  1
  Cd  Cd53  1  0.00657300  0.30093900  0.74835700  1
  Cd  Cd54  1  0.74342700  0.13656100  0.68914300  1
  Cd  Cd55  1  0.57663200  0.84389500  0.73084200  1
  Cd  Cd56  1  0.92336800  0.65610500  0.76915800  1
  Cd  Cd57  1  0.75657300  0.36343900  0.81085700  1
  Cd  Cd58  1  0.49342700  0.19906100  0.75164300  1
  Cd  Cd59  1  0.32663200  0.90639500  0.79334200  1
