# generated using pymatgen
data_Mg79Pd32
_symmetry_space_group_name_H-M   'P 1'
_cell_length_a   8.83883700
_cell_length_b   8.83883642
_cell_length_c   48.13812000
_cell_angle_alpha   90.00000000
_cell_angle_beta   90.00000000
_cell_angle_gamma   119.99999843
_symmetry_Int_Tables_number   1
_chemical_formula_structural   Mg79Pd32
_chemical_formula_sum   'Mg79 Pd32'
_cell_volume   3256.94170430
_cell_formula_units_Z   1
loop_
 _symmetry_equiv_pos_site_id
 _symmetry_equiv_pos_as_xyz
  1  'x, y, z'
loop_
 _atom_site_type_symbol
 _atom_site_label
 _atom_site_symmetry_multiplicity
 _atom_site_fract_x
 _atom_site_fract_y
 _atom_site_fract_z
 _atom_site_occupancy
  Mg  Mg0  1  0.80845000  0.61690000  0.31959200  1
  Mg  Mg1  1  0.38310000  0.19155000  0.31959200  1
  Mg  Mg2  1  0.80845000  0.19155000  0.31959200  1
  Mg  Mg3  1  0.19155000  0.38310000  0.17445600  1
  Mg  Mg4  1  0.61690000  0.80845000  0.17445600  1
  Mg  Mg5  1  0.19155000  0.80845000  0.17445600  1
  Mg  Mg6  1  0.19155000  0.38310000  0.23625800  1
  Mg  Mg7  1  0.61690000  0.80845000  0.23625800  1
  Mg  Mg8  1  0.19155000  0.80845000  0.23625800  1
  Mg  Mg9  1  0.80845000  0.61690000  0.25778900  1
  Mg  Mg10  1  0.38310000  0.19155000  0.25778900  1
  Mg  Mg11  1  0.80845000  0.19155000  0.25778900  1
  Mg  Mg12  1  0.46101600  0.92203200  0.28869000  1
  Mg  Mg13  1  0.07796800  0.53898400  0.28869000  1
  Mg  Mg14  1  0.46101600  0.53898400  0.28869000  1
  Mg  Mg15  1  0.53898400  0.07796800  0.20535700  1
  Mg  Mg16  1  0.92203200  0.46101600  0.20535700  1
  Mg  Mg17  1  0.53898400  0.46101600  0.20535700  1
  Mg  Mg18  1  0.00000000  0.00000000  0.33035700  1
  Mg  Mg19  1  0.00000000  0.00000000  0.24702400  1
  Mg  Mg20  1  0.80845000  0.61690000  0.48625800  1
  Mg  Mg21  1  0.38310000  0.19155000  0.48625800  1
  Mg  Mg22  1  0.80845000  0.19155000  0.48625800  1
  Mg  Mg23  1  0.19155000  0.38310000  0.34112300  1
  Mg  Mg24  1  0.61690000  0.80845000  0.34112300  1
  Mg  Mg25  1  0.19155000  0.80845000  0.34112300  1
  Mg  Mg26  1  0.19155000  0.38310000  0.40292500  1
  Mg  Mg27  1  0.61690000  0.80845000  0.40292500  1
  Mg  Mg28  1  0.19155000  0.80845000  0.40292500  1
  Mg  Mg29  1  0.80845000  0.61690000  0.42445600  1
  Mg  Mg30  1  0.38310000  0.19155000  0.42445600  1
  Mg  Mg31  1  0.80845000  0.19155000  0.42445600  1
  Mg  Mg32  1  0.46101600  0.92203200  0.45535700  1
  Mg  Mg33  1  0.07796800  0.53898400  0.45535700  1
  Mg  Mg34  1  0.46101600  0.53898400  0.45535700  1
  Mg  Mg35  1  0.53898400  0.07796800  0.37202400  1
  Mg  Mg36  1  0.92203200  0.46101600  0.37202400  1
  Mg  Mg37  1  0.53898400  0.46101600  0.37202400  1
  Mg  Mg38  1  0.00000000  0.00000000  0.49702400  1
  Mg  Mg39  1  0.00000000  0.00000000  0.41369000  1
  Mg  Mg40  1  0.80845000  0.61690000  0.65292500  1
  Mg  Mg41  1  0.38310000  0.19155000  0.65292500  1
  Mg  Mg42  1  0.80845000  0.19155000  0.65292500  1
  Mg  Mg43  1  0.19155000  0.38310000  0.50778900  1
  Mg  Mg44  1  0.61690000  0.80845000  0.50778900  1
  Mg  Mg45  1  0.19155000  0.80845000  0.50778900  1
  Mg  Mg46  1  0.19155000  0.38310000  0.56959200  1
  Mg  Mg47  1  0.61690000  0.80845000  0.56959200  1
  Mg  Mg48  1  0.19155000  0.80845000  0.56959200  1
  Mg  Mg49  1  0.80845000  0.61690000  0.59112300  1
  Mg  Mg50  1  0.38310000  0.19155000  0.59112300  1
  Mg  Mg51  1  0.80845000  0.19155000  0.59112300  1
  Mg  Mg52  1  0.46101600  0.92203200  0.62202400  1
  Mg  Mg53  1  0.07796800  0.53898400  0.62202400  1
  Mg  Mg54  1  0.46101600  0.53898400  0.62202400  1
  Mg  Mg55  1  0.53898400  0.07796800  0.53869000  1
  Mg  Mg56  1  0.92203200  0.46101600  0.53869000  1
  Mg  Mg57  1  0.53898400  0.46101600  0.53869000  1
  Mg  Mg58  1  0.00000000  0.00000000  0.66369000  1
  Mg  Mg59  1  0.00000000  0.00000000  0.58035700  1
  Mg  Mg60  1  0.80845000  0.61690000  0.81959200  1
  Mg  Mg61  1  0.38310000  0.19155000  0.81959200  1
  Mg  Mg62  1  0.80845000  0.19155000  0.81959200  1
  Mg  Mg63  1  0.19155000  0.38310000  0.67445600  1
  Mg  Mg64  1  0.61690000  0.80845000  0.67445600  1
  Mg  Mg65  1  0.19155000  0.80845000  0.67445600  1
  Mg  Mg66  1  0.19155000  0.38310000  0.73625800  1
  Mg  Mg67  1  0.61690000  0.80845000  0.73625800  1
  Mg  Mg68  1  0.19155000  0.80845000  0.73625800  1
  Mg  Mg69  1  0.80845000  0.61690000  0.75778900  1
  Mg  Mg70  1  0.38310000  0.19155000  0.75778900  1
  Mg  Mg71  1  0.80845000  0.19155000  0.75778900  1
  Mg  Mg72  1  0.46101600  0.92203200  0.78869000  1
  Mg  Mg73  1  0.07796800  0.53898400  0.78869000  1
  Mg  Mg74  1  0.46101600  0.53898400  0.78869000  1
  Mg  Mg75  1  0.53898400  0.07796800  0.70535700  1
  Mg  Mg76  1  0.92203200  0.46101600  0.70535700  1
  Mg  Mg77  1  0.53898400  0.46101600  0.70535700  1
  Mg  Mg78  1  0.00000000  0.00000000  0.74702400  1
  Pd  Pd79  1  0.12457700  0.24915300  0.28869000  1
  Pd  Pd80  1  0.75084700  0.87542300  0.28869000  1
  Pd  Pd81  1  0.12457700  0.87542300  0.28869000  1
  Pd  Pd82  1  0.87542300  0.75084700  0.20535700  1
  Pd  Pd83  1  0.24915300  0.12457700  0.20535700  1
  Pd  Pd84  1  0.87542300  0.12457700  0.20535700  1
  Pd  Pd85  1  0.66666700  0.33333300  0.28869000  1
  Pd  Pd86  1  0.33333300  0.66666700  0.20535700  1
  Pd  Pd87  1  0.12457700  0.24915300  0.45535700  1
  Pd  Pd88  1  0.75084700  0.87542300  0.45535700  1
  Pd  Pd89  1  0.12457700  0.87542300  0.45535700  1
  Pd  Pd90  1  0.87542300  0.75084700  0.37202400  1
  Pd  Pd91  1  0.24915300  0.12457700  0.37202400  1
  Pd  Pd92  1  0.87542300  0.12457700  0.37202400  1
  Pd  Pd93  1  0.66666700  0.33333300  0.45535700  1
  Pd  Pd94  1  0.33333300  0.66666700  0.37202400  1
  Pd  Pd95  1  0.12457700  0.24915300  0.62202400  1
  Pd  Pd96  1  0.75084700  0.87542300  0.62202400  1
  Pd  Pd97  1  0.12457700  0.87542300  0.62202400  1
  Pd  Pd98  1  0.87542300  0.75084700  0.53869000  1
  Pd  Pd99  1  0.24915300  0.12457700  0.53869000  1
  Pd  Pd100  1  0.87542300  0.12457700  0.53869000  1
  Pd  Pd101  1  0.66666700  0.33333300  0.62202400  1
  Pd  Pd102  1  0.33333300  0.66666700  0.53869000  1
  Pd  Pd103  1  0.12457700  0.24915300  0.78869000  1
  Pd  Pd104  1  0.75084700  0.87542300  0.78869000  1
  Pd  Pd105  1  0.12457700  0.87542300  0.78869000  1
  Pd  Pd106  1  0.87542300  0.75084700  0.70535700  1
  Pd  Pd107  1  0.24915300  0.12457700  0.70535700  1
  Pd  Pd108  1  0.87542300  0.12457700  0.70535700  1
  Pd  Pd109  1  0.66666700  0.33333300  0.78869000  1
  Pd  Pd110  1  0.33333300  0.66666700  0.70535700  1
