# generated using pymatgen
data_Mg5In2
_symmetry_space_group_name_H-M   'P 1'
_cell_length_a   8.73688590
_cell_length_b   8.73688566
_cell_length_c   47.35273800
_cell_angle_alpha   92.57587347
_cell_angle_beta   92.57587340
_cell_angle_gamma   114.09938557
_symmetry_Int_Tables_number   1
_chemical_formula_structural   Mg5In2
_chemical_formula_sum   'Mg60 In24'
_cell_volume   3288.24943082
_cell_formula_units_Z   12
loop_
 _symmetry_equiv_pos_site_id
 _symmetry_equiv_pos_as_xyz
  1  'x, y, z'
loop_
 _atom_site_type_symbol
 _atom_site_label
 _atom_site_symmetry_multiplicity
 _atom_site_fract_x
 _atom_site_fract_y
 _atom_site_fract_z
 _atom_site_occupancy
  Mg  Mg0  1  0.41417700  0.58433000  0.71654200  1
  Mg  Mg1  1  0.98582300  0.81567000  0.78345800  1
  Mg  Mg2  1  0.38433000  0.21417700  0.76654200  1
  Mg  Mg3  1  0.01567000  0.18582300  0.73345800  1
  Mg  Mg4  1  0.60000000  0.60000000  0.77500000  1
  Mg  Mg5  1  0.80000000  0.80000000  0.72500000  1
  Mg  Mg6  1  0.83656800  0.36343200  0.77500000  1
  Mg  Mg7  1  0.36343200  0.83656800  0.77500000  1
  Mg  Mg8  1  0.56343200  0.03656800  0.72500000  1
  Mg  Mg9  1  0.03656800  0.56343200  0.72500000  1
  Mg  Mg10  1  0.81417700  0.98433000  0.61654200  1
  Mg  Mg11  1  0.38582300  0.21567000  0.68345800  1
  Mg  Mg12  1  0.78433000  0.61417700  0.66654200  1
  Mg  Mg13  1  0.41567000  0.58582300  0.63345800  1
  Mg  Mg14  1  1.00000000  1.00000000  0.67500000  1
  Mg  Mg15  1  0.20000000  0.20000000  0.62500000  1
  Mg  Mg16  1  0.23656800  0.76343200  0.67500000  1
  Mg  Mg17  1  0.76343200  0.23656800  0.67500000  1
  Mg  Mg18  1  0.96343200  0.43656800  0.62500000  1
  Mg  Mg19  1  0.43656800  0.96343200  0.62500000  1
  Mg  Mg20  1  0.21417700  0.38433000  0.51654200  1
  Mg  Mg21  1  0.78582300  0.61567000  0.58345800  1
  Mg  Mg22  1  0.18433000  0.01417700  0.56654200  1
  Mg  Mg23  1  0.81567000  0.98582300  0.53345800  1
  Mg  Mg24  1  0.40000000  0.40000000  0.57500000  1
  Mg  Mg25  1  0.60000000  0.60000000  0.52500000  1
  Mg  Mg26  1  0.63656800  0.16343200  0.57500000  1
  Mg  Mg27  1  0.16343200  0.63656800  0.57500000  1
  Mg  Mg28  1  0.36343200  0.83656800  0.52500000  1
  Mg  Mg29  1  0.83656800  0.36343200  0.52500000  1
  Mg  Mg30  1  0.61417700  0.78433000  0.41654200  1
  Mg  Mg31  1  0.18582300  0.01567000  0.48345800  1
  Mg  Mg32  1  0.58433000  0.41417700  0.46654200  1
  Mg  Mg33  1  0.21567000  0.38582300  0.43345800  1
  Mg  Mg34  1  0.80000000  0.80000000  0.47500000  1
  Mg  Mg35  1  1.00000000  0.00000000  0.42500000  1
  Mg  Mg36  1  0.03656800  0.56343200  0.47500000  1
  Mg  Mg37  1  0.56343200  0.03656800  0.47500000  1
  Mg  Mg38  1  0.76343200  0.23656800  0.42500000  1
  Mg  Mg39  1  0.23656800  0.76343200  0.42500000  1
  Mg  Mg40  1  0.01417700  0.18433000  0.31654200  1
  Mg  Mg41  1  0.58582300  0.41567000  0.38345800  1
  Mg  Mg42  1  0.98433000  0.81417700  0.36654200  1
  Mg  Mg43  1  0.61567000  0.78582300  0.33345800  1
  Mg  Mg44  1  0.20000000  0.20000000  0.37500000  1
  Mg  Mg45  1  0.40000000  0.40000000  0.32500000  1
  Mg  Mg46  1  0.43656800  0.96343200  0.37500000  1
  Mg  Mg47  1  0.96343200  0.43656800  0.37500000  1
  Mg  Mg48  1  0.16343200  0.63656800  0.32500000  1
  Mg  Mg49  1  0.63656800  0.16343200  0.32500000  1
  Mg  Mg50  1  0.41417700  0.58433000  0.21654200  1
  Mg  Mg51  1  0.98582300  0.81567000  0.28345800  1
  Mg  Mg52  1  0.38433000  0.21417700  0.26654200  1
  Mg  Mg53  1  0.01567000  0.18582300  0.23345800  1
  Mg  Mg54  1  0.60000000  0.60000000  0.27500000  1
  Mg  Mg55  1  0.80000000  0.80000000  0.22500000  1
  Mg  Mg56  1  0.83656800  0.36343200  0.27500000  1
  Mg  Mg57  1  0.36343200  0.83656800  0.27500000  1
  Mg  Mg58  1  0.56343200  0.03656800  0.22500000  1
  Mg  Mg59  1  0.03656800  0.56343200  0.22500000  1
  In  In60  1  0.73466600  0.97874100  0.77611700  1
  In  In61  1  0.66533400  0.42125900  0.72388300  1
  In  In62  1  0.17874100  0.93466600  0.72611700  1
  In  In63  1  0.22125900  0.46533400  0.77388300  1
  In  In64  1  0.13466600  0.37874100  0.67611700  1
  In  In65  1  0.06533400  0.82125900  0.62388300  1
  In  In66  1  0.57874100  0.33466600  0.62611700  1
  In  In67  1  0.62125900  0.86533400  0.67388300  1
  In  In68  1  0.53466600  0.77874100  0.57611700  1
  In  In69  1  0.46533400  0.22125900  0.52388300  1
  In  In70  1  0.97874100  0.73466600  0.52611700  1
  In  In71  1  0.02125900  0.26533400  0.57388300  1
  In  In72  1  0.93466600  0.17874100  0.47611700  1
  In  In73  1  0.86533400  0.62125900  0.42388300  1
  In  In74  1  0.37874100  0.13466600  0.42611700  1
  In  In75  1  0.42125900  0.66533400  0.47388300  1
  In  In76  1  0.33466600  0.57874100  0.37611700  1
  In  In77  1  0.26533400  0.02125900  0.32388300  1
  In  In78  1  0.77874100  0.53466600  0.32611700  1
  In  In79  1  0.82125900  0.06533400  0.37388300  1
  In  In80  1  0.73466600  0.97874100  0.27611700  1
  In  In81  1  0.66533400  0.42125900  0.22388300  1
  In  In82  1  0.17874100  0.93466600  0.22611700  1
  In  In83  1  0.22125900  0.46533400  0.27388300  1
