# generated using pymatgen
data_Mg8B33
_symmetry_space_group_name_H-M   'P 1'
_cell_length_a   7.03000979
_cell_length_b   8.63140288
_cell_length_c   43.82089200
_cell_angle_alpha   93.79448005
_cell_angle_beta   87.19767736
_cell_angle_gamma   71.41702184
_symmetry_Int_Tables_number   1
_chemical_formula_structural   Mg8B33
_chemical_formula_sum   'Mg32 B132'
_cell_volume   2507.95072880
_cell_formula_units_Z   4
loop_
 _symmetry_equiv_pos_site_id
 _symmetry_equiv_pos_as_xyz
  1  'x, y, z'
loop_
 _atom_site_type_symbol
 _atom_site_label
 _atom_site_symmetry_multiplicity
 _atom_site_fract_x
 _atom_site_fract_y
 _atom_site_fract_z
 _atom_site_occupancy
  Mg  Mg0  1  0.82986100  0.38800100  0.30300800  1
  Mg  Mg1  1  0.16557800  0.21017500  0.25413500  1
  Mg  Mg2  1  0.42827900  0.65179700  0.28332400  1
  Mg  Mg3  1  0.56716000  0.94637900  0.27381900  1
  Mg  Mg4  1  0.47271800  0.24514400  0.37443600  1
  Mg  Mg5  1  0.80843500  0.06731800  0.32556400  1
  Mg  Mg6  1  0.07113600  0.50894000  0.35475300  1
  Mg  Mg7  1  0.21001700  0.80352200  0.34524700  1
  Mg  Mg8  1  0.11557500  0.10228600  0.44586500  1
  Mg  Mg9  1  0.45129200  0.92446100  0.39699200  1
  Mg  Mg10  1  0.71399300  0.36608300  0.42618100  1
  Mg  Mg11  1  0.85287400  0.66066400  0.41667600  1
  Mg  Mg12  1  0.75843200  0.95942900  0.51729300  1
  Mg  Mg13  1  0.09415000  0.78160300  0.46842100  1
  Mg  Mg14  1  0.35685000  0.22322500  0.49761000  1
  Mg  Mg15  1  0.49573100  0.51780700  0.48810400  1
  Mg  Mg16  1  0.40128900  0.81657200  0.58872200  1
  Mg  Mg17  1  0.73700700  0.63874600  0.53984900  1
  Mg  Mg18  1  0.99970800  0.08036800  0.56903800  1
  Mg  Mg19  1  0.13858800  0.37495000  0.55953300  1
  Mg  Mg20  1  0.04414600  0.67371500  0.66015100  1
  Mg  Mg21  1  0.37986400  0.49588900  0.61127800  1
  Mg  Mg22  1  0.64256500  0.93751100  0.64046700  1
  Mg  Mg23  1  0.78144600  0.23209300  0.63096200  1
  Mg  Mg24  1  0.68700400  0.53085800  0.73157900  1
  Mg  Mg25  1  0.02272100  0.35303200  0.68270700  1
  Mg  Mg26  1  0.28542200  0.79465400  0.71189600  1
  Mg  Mg27  1  0.42430300  0.08923600  0.70239000  1
  Mg  Mg28  1  0.32986100  0.38800100  0.80300800  1
  Mg  Mg29  1  0.66557800  0.21017500  0.75413500  1
  Mg  Mg30  1  0.92827900  0.65179700  0.78332400  1
  Mg  Mg31  1  0.06716000  0.94637900  0.77381900  1
  B  B32  1  0.60517300  0.21647700  0.24640600  1
  B  B33  1  0.74740900  0.52455600  0.23930800  1
  B  B34  1  0.54792800  0.43532200  0.24206400  1
  B  B35  1  0.80465400  0.30571000  0.24365000  1
  B  B36  1  0.21058400  0.92687600  0.29152200  1
  B  B37  1  0.78485500  0.67130000  0.26562100  1
  B  B38  1  0.82036100  0.16341000  0.26956600  1
  B  B39  1  0.17507800  0.43476600  0.28757700  1
  B  B40  1  0.24803000  0.07362000  0.31783500  1
  B  B41  1  0.39026600  0.38169800  0.31073700  1
  B  B42  1  0.00021500  0.96837700  0.26739800  1
  B  B43  1  0.99522400  0.62979900  0.28974500  1
  B  B44  1  0.95594600  0.77209000  0.26046000  1
  B  B45  1  0.25949700  0.91408700  0.25268200  1
  B  B46  1  0.19078500  0.29246500  0.31349300  1
  B  B47  1  0.58465000  0.21770900  0.28765100  1
  B  B48  1  0.03949300  0.82608600  0.29668200  1
  B  B49  1  0.73594200  0.68408800  0.30446100  1
  B  B50  1  0.44751100  0.16285300  0.31507900  1
  B  B51  1  0.41078900  0.38046700  0.26949200  1
  B  B52  1  0.85344100  0.78401900  0.36295000  1
  B  B53  1  0.42771200  0.52844300  0.33705000  1
  B  B54  1  0.46321800  0.02055200  0.34099500  1
  B  B55  1  0.81793500  0.29190900  0.35900500  1
  B  B56  1  0.89088700  0.93076300  0.38926300  1
  B  B57  1  0.03312300  0.23884100  0.38216500  1
  B  B58  1  0.64307200  0.82551900  0.33882600  1
  B  B59  1  0.63808100  0.48694200  0.36117400  1
  B  B60  1  0.59880300  0.62923300  0.33188900  1
  B  B61  1  0.90235400  0.77123000  0.32411000  1
  B  B62  1  0.83364200  0.14960800  0.38492100  1
  B  B63  1  0.22750700  0.07485200  0.35908000  1
  B  B64  1  0.68235000  0.68322900  0.36811100  1
  B  B65  1  0.37879900  0.54123100  0.37589000  1
  B  B66  1  0.09036800  0.01999600  0.38650700  1
  B  B67  1  0.05364600  0.23761000  0.34092000  1
  B  B68  1  0.49629800  0.64116200  0.43437900  1
  B  B69  1  0.07056900  0.38558500  0.40847800  1
  B  B70  1  0.10607600  0.87769500  0.41242300  1
  B  B71  1  0.46079200  0.14905200  0.43043400  1
  B  B72  1  0.53374400  0.78790600  0.46069200  1
  B  B73  1  0.67598000  0.09598400  0.45359400  1
  B  B74  1  0.28592900  0.68266200  0.41025500  1
  B  B75  1  0.28093900  0.34408500  0.43260200  1
  B  B76  1  0.24166000  0.48637600  0.40331800  1
  B  B77  1  0.54521100  0.62837300  0.39553900  1
  B  B78  1  0.47649900  0.00675100  0.45635000  1
  B  B79  1  0.87036500  0.93199500  0.43050800  1
  B  B80  1  0.32520800  0.54037100  0.43954000  1
  B  B81  1  0.02165600  0.39837400  0.44731800  1
  B  B82  1  0.73322500  0.87713900  0.45793600  1
  B  B83  1  0.69650300  0.09475200  0.41234900  1
  B  B84  1  0.13915500  0.49830400  0.50580700  1
  B  B85  1  0.71342700  0.24272800  0.47990700  1
  B  B86  1  0.74893300  0.73483800  0.48385200  1
  B  B87  1  0.10364900  0.00619500  0.50186200  1
  B  B88  1  0.17660100  0.64504900  0.53212000  1
  B  B89  1  0.31883800  0.95312700  0.52502200  1
  B  B90  1  0.92878600  0.53980500  0.48168300  1
  B  B91  1  0.92379600  0.20122800  0.50403100  1
  B  B92  1  0.88451700  0.34351800  0.47474600  1
  B  B93  1  0.18806800  0.48551600  0.46696700  1
  B  B94  1  0.11935700  0.86389400  0.52777800  1
  B  B95  1  0.51322200  0.78913700  0.50193700  1
  B  B96  1  0.96806500  0.39751400  0.51096800  1
  B  B97  1  0.66451400  0.25551700  0.51874700  1
  B  B98  1  0.37608200  0.73428200  0.52936500  1
  B  B99  1  0.33936000  0.95189500  0.48377800  1
  B  B100  1  0.78201200  0.35544700  0.57723600  1
  B  B101  1  0.35628400  0.09987100  0.55133500  1
  B  B102  1  0.39179000  0.59198100  0.55528100  1
  B  B103  1  0.74650600  0.86333700  0.57329100  1
  B  B104  1  0.81945800  0.50219100  0.60354900  1
  B  B105  1  0.96169500  0.81027000  0.59645100  1
  B  B106  1  0.57164300  0.39694800  0.55311200  1
  B  B107  1  0.56665300  0.05837000  0.57545900  1
  B  B108  1  0.52737400  0.20066100  0.54617500  1
  B  B109  1  0.83092500  0.34265800  0.53839600  1
  B  B110  1  0.76221400  0.72103700  0.59920700  1
  B  B111  1  0.15607900  0.64628000  0.57336500  1
  B  B112  1  0.61092200  0.25465700  0.58239700  1
  B  B113  1  0.30737100  0.11266000  0.59017500  1
  B  B114  1  0.01893900  0.59142500  0.60079300  1
  B  B115  1  0.98221700  0.80903800  0.55520600  1
  B  B116  1  0.42486900  0.21259000  0.64866500  1
  B  B117  1  0.99914100  0.95701400  0.62276400  1
  B  B118  1  0.03464700  0.44912400  0.62670900  1
  B  B119  1  0.38936300  0.72048000  0.64471900  1
  B  B120  1  0.46231600  0.35933400  0.67497800  1
  B  B121  1  0.60455200  0.66741300  0.66788000  1
  B  B122  1  0.21450000  0.25409100  0.62454100  1
  B  B123  1  0.20951000  0.91551300  0.64688800  1
  B  B124  1  0.17023100  0.05780400  0.61760300  1
  B  B125  1  0.47378200  0.19980100  0.60982500  1
  B  B126  1  0.40507100  0.57818000  0.67063500  1
  B  B127  1  0.79893600  0.50342300  0.64479400  1
  B  B128  1  0.25377900  0.11180000  0.65382500  1
  B  B129  1  0.95022800  0.96980300  0.66160400  1
  B  B130  1  0.66179700  0.44856700  0.67222200  1
  B  B131  1  0.62507400  0.66618100  0.62663500  1
  B  B132  1  0.06772700  0.06973300  0.72009300  1
  B  B133  1  0.64199800  0.81415700  0.69419300  1
  B  B134  1  0.67750400  0.30626700  0.69813800  1
  B  B135  1  0.03222000  0.57762300  0.71614800  1
  B  B136  1  0.10517300  0.21647700  0.74640600  1
  B  B137  1  0.24740900  0.52455600  0.73930800  1
  B  B138  1  0.85735700  0.11123400  0.69596900  1
  B  B139  1  0.85236700  0.77265600  0.71831700  1
  B  B140  1  0.81308800  0.91494700  0.68903200  1
  B  B141  1  0.11664000  0.05694400  0.68125300  1
  B  B142  1  0.04792800  0.43532200  0.74206400  1
  B  B143  1  0.44179300  0.36056600  0.71622200  1
  B  B144  1  0.89663600  0.96894300  0.72525400  1
  B  B145  1  0.59308500  0.82694600  0.73303300  1
  B  B146  1  0.30465400  0.30571000  0.74365000  1
  B  B147  1  0.26793100  0.52332400  0.69806300  1
  B  B148  1  0.71058400  0.92687600  0.79152200  1
  B  B149  1  0.28485500  0.67130000  0.76562100  1
  B  B150  1  0.32036100  0.16341000  0.76956600  1
  B  B151  1  0.67507800  0.43476600  0.78757700  1
  B  B152  1  0.74803000  0.07362000  0.81783500  1
  B  B153  1  0.89026600  0.38169800  0.81073700  1
  B  B154  1  0.50021500  0.96837700  0.76739800  1
  B  B155  1  0.49522400  0.62979900  0.78974500  1
  B  B156  1  0.45594600  0.77209000  0.76046000  1
  B  B157  1  0.75949700  0.91408700  0.75268200  1
  B  B158  1  0.69078500  0.29246500  0.81349300  1
  B  B159  1  0.08465000  0.21770900  0.78765100  1
  B  B160  1  0.53949300  0.82608600  0.79668200  1
  B  B161  1  0.23594200  0.68408800  0.80446100  1
  B  B162  1  0.94751100  0.16285300  0.81507900  1
  B  B163  1  0.91078900  0.38046700  0.76949200  1
