# generated using pymatgen
data_LiMg2
_symmetry_space_group_name_H-M   'P 1'
_cell_length_a   3.05132800
_cell_length_b   5.06834700
_cell_length_c   50.50617600
_cell_angle_alpha   90.00000000
_cell_angle_beta   90.00000000
_cell_angle_gamma   90.00000000
_symmetry_Int_Tables_number   1
_chemical_formula_structural   LiMg2
_chemical_formula_sum   'Li8 Mg16'
_cell_volume   781.08756331
_cell_formula_units_Z   8
loop_
 _symmetry_equiv_pos_site_id
 _symmetry_equiv_pos_as_xyz
  1  'x, y, z'
loop_
 _atom_site_type_symbol
 _atom_site_label
 _atom_site_symmetry_multiplicity
 _atom_site_fract_x
 _atom_site_fract_y
 _atom_site_fract_z
 _atom_site_occupancy
  Li  Li0  1  0.50000000  0.75000000  0.20466700  1
  Li  Li1  1  0.00000000  0.25000000  0.29533300  1
  Li  Li2  1  0.00000000  0.75000000  0.37133400  1
  Li  Li3  1  0.50000000  0.25000000  0.46199900  1
  Li  Li4  1  0.50000000  0.75000000  0.53800100  1
  Li  Li5  1  0.00000000  0.25000000  0.62866600  1
  Li  Li6  1  0.00000000  0.75000000  0.70466700  1
  Li  Li7  1  0.50000000  0.25000000  0.79533300  1
  Mg  Mg8  1  0.00000000  0.75000000  0.26067500  1
  Mg  Mg9  1  0.50000000  0.75000000  0.31628900  1
  Mg  Mg10  1  0.50000000  0.25000000  0.23932500  1
  Mg  Mg11  1  0.00000000  0.25000000  0.18371100  1
  Mg  Mg12  1  0.50000000  0.75000000  0.42734200  1
  Mg  Mg13  1  0.00000000  0.75000000  0.48295600  1
  Mg  Mg14  1  0.00000000  0.25000000  0.40599200  1
  Mg  Mg15  1  0.50000000  0.25000000  0.35037700  1
  Mg  Mg16  1  0.00000000  0.75000000  0.59400800  1
  Mg  Mg17  1  0.50000000  0.75000000  0.64962300  1
  Mg  Mg18  1  0.50000000  0.25000000  0.57265800  1
  Mg  Mg19  1  0.00000000  0.25000000  0.51704400  1
  Mg  Mg20  1  0.50000000  0.75000000  0.76067500  1
  Mg  Mg21  1  0.00000000  0.75000000  0.81628900  1
  Mg  Mg22  1  0.00000000  0.25000000  0.73932500  1
  Mg  Mg23  1  0.50000000  0.25000000  0.68371100  1
