# generated using pymatgen
data_Dy2Mg
_symmetry_space_group_name_H-M   'P 1'
_cell_length_a   3.69704700
_cell_length_b   17.95650481
_cell_length_c   41.98728100
_cell_angle_alpha   96.27093350
_cell_angle_beta   90.00000000
_cell_angle_gamma   90.00000000
_symmetry_Int_Tables_number   1
_chemical_formula_structural   Dy2Mg
_chemical_formula_sum   'Dy40 Mg20'
_cell_volume   2770.69117522
_cell_formula_units_Z   20
loop_
 _symmetry_equiv_pos_site_id
 _symmetry_equiv_pos_as_xyz
  1  'x, y, z'
loop_
 _atom_site_type_symbol
 _atom_site_label
 _atom_site_symmetry_multiplicity
 _atom_site_fract_x
 _atom_site_fract_y
 _atom_site_fract_z
 _atom_site_occupancy
  Dy  Dy0  1  0.50000000  0.01347400  0.29271800  1
  Dy  Dy1  1  1.00000000  0.73062900  0.19026700  1
  Dy  Dy2  1  1.00000000  0.67402600  0.26978200  1
  Dy  Dy3  1  0.50000000  0.83187100  0.24723300  1
  Dy  Dy4  1  0.00000000  0.45097400  0.23021800  1
  Dy  Dy5  1  0.50000000  0.29312900  0.25276700  1
  Dy  Dy6  1  0.50000000  0.11152600  0.20728200  1
  Dy  Dy7  1  1.00000000  0.39437100  0.30973300  1
  Dy  Dy8  1  0.50000000  0.13847400  0.41771800  1
  Dy  Dy9  1  1.00000000  0.85562900  0.31526700  1
  Dy  Dy10  1  0.00000000  0.79902600  0.39478200  1
  Dy  Dy11  1  0.50000000  0.95687100  0.37223300  1
  Dy  Dy12  1  0.00000000  0.57597400  0.35521800  1
  Dy  Dy13  1  0.50000000  0.41812900  0.37776700  1
  Dy  Dy14  1  0.50000000  0.23652600  0.33228200  1
  Dy  Dy15  1  0.00000000  0.51937100  0.43473300  1
  Dy  Dy16  1  0.50000000  0.26347400  0.54271800  1
  Dy  Dy17  1  0.00000000  0.98062900  0.44026700  1
  Dy  Dy18  1  1.00000000  0.92402600  0.51978200  1
  Dy  Dy19  1  0.50000000  0.08187100  0.49723300  1
  Dy  Dy20  1  1.00000000  0.70097400  0.48021800  1
  Dy  Dy21  1  0.50000000  0.54312900  0.50276700  1
  Dy  Dy22  1  0.50000000  0.36152600  0.45728200  1
  Dy  Dy23  1  0.00000000  0.64437100  0.55973300  1
  Dy  Dy24  1  0.50000000  0.38847400  0.66771800  1
  Dy  Dy25  1  1.00000000  0.10562900  0.56526700  1
  Dy  Dy26  1  0.00000000  0.04902600  0.64478200  1
  Dy  Dy27  1  0.50000000  0.20687100  0.62223300  1
  Dy  Dy28  1  0.00000000  0.82597400  0.60521800  1
  Dy  Dy29  1  0.50000000  0.66812900  0.62776700  1
  Dy  Dy30  1  0.50000000  0.48652600  0.58228200  1
  Dy  Dy31  1  0.00000000  0.76937100  0.68473300  1
  Dy  Dy32  1  0.50000000  0.51347400  0.79271800  1
  Dy  Dy33  1  0.00000000  0.23062900  0.69026700  1
  Dy  Dy34  1  0.00000000  0.17402600  0.76978200  1
  Dy  Dy35  1  0.50000000  0.33187100  0.74723300  1
  Dy  Dy36  1  1.00000000  0.95097400  0.73021800  1
  Dy  Dy37  1  0.50000000  0.79312900  0.75276700  1
  Dy  Dy38  1  0.50000000  0.61152600  0.70728200  1
  Dy  Dy39  1  1.00000000  0.89437100  0.80973300  1
  Mg  Mg40  1  0.50000000  0.58990700  0.21037000  1
  Mg  Mg41  1  0.00000000  0.97259300  0.22713000  1
  Mg  Mg42  1  0.00000000  0.15240700  0.27287000  1
  Mg  Mg43  1  0.50000000  0.53509300  0.28963000  1
  Mg  Mg44  1  0.50000000  0.71490700  0.33537000  1
  Mg  Mg45  1  0.00000000  0.09759300  0.35213000  1
  Mg  Mg46  1  1.00000000  0.27740700  0.39787000  1
  Mg  Mg47  1  0.50000000  0.66009300  0.41463000  1
  Mg  Mg48  1  0.50000000  0.83990700  0.46037000  1
  Mg  Mg49  1  0.00000000  0.22259300  0.47713000  1
  Mg  Mg50  1  0.00000000  0.40240700  0.52287000  1
  Mg  Mg51  1  0.50000000  0.78509300  0.53963000  1
  Mg  Mg52  1  0.50000000  0.96490700  0.58537000  1
  Mg  Mg53  1  1.00000000  0.34759300  0.60213000  1
  Mg  Mg54  1  0.00000000  0.52740700  0.64787000  1
  Mg  Mg55  1  0.50000000  0.91009300  0.66463000  1
  Mg  Mg56  1  0.50000000  0.08990700  0.71037000  1
  Mg  Mg57  1  1.00000000  0.47259300  0.72713000  1
  Mg  Mg58  1  0.00000000  0.65240700  0.77287000  1
  Mg  Mg59  1  0.50000000  0.03509300  0.78963000  1
