# generated using pymatgen
data_Mg9Ir2
_symmetry_space_group_name_H-M   'P 1'
_cell_length_a   8.24582600
_cell_length_b   16.34592500
_cell_length_c   56.62394600
_cell_angle_alpha   90.00000000
_cell_angle_beta   90.00000000
_cell_angle_gamma   90.00000000
_symmetry_Int_Tables_number   1
_chemical_formula_structural   Mg9Ir2
_chemical_formula_sum   'Mg144 Ir32'
_cell_volume   7632.09555738
_cell_formula_units_Z   16
loop_
 _symmetry_equiv_pos_site_id
 _symmetry_equiv_pos_as_xyz
  1  'x, y, z'
loop_
 _atom_site_type_symbol
 _atom_site_label
 _atom_site_symmetry_multiplicity
 _atom_site_fract_x
 _atom_site_fract_y
 _atom_site_fract_z
 _atom_site_occupancy
  Mg  Mg0  1  0.16666700  0.04370600  0.31250000  1
  Mg  Mg1  1  0.16666700  0.29370600  0.43750000  1
  Mg  Mg2  1  0.66666700  0.04370600  0.31250000  1
  Mg  Mg3  1  0.66666700  0.29370600  0.43750000  1
  Mg  Mg4  1  0.25000000  0.85997700  0.32103100  1
  Mg  Mg5  1  0.58333300  0.85997700  0.30396900  1
  Mg  Mg6  1  0.91666700  0.91116400  0.31250000  1
  Mg  Mg7  1  0.41666700  0.22743500  0.47063500  1
  Mg  Mg8  1  0.08333300  0.22743500  0.48769800  1
  Mg  Mg9  1  0.75000000  0.17624800  0.47916700  1
  Mg  Mg10  1  0.25000000  0.54370600  0.47916700  1
  Mg  Mg11  1  0.75000000  0.54370600  0.47916700  1
  Mg  Mg12  1  0.57867400  0.38462400  0.48703700  1
  Mg  Mg13  1  0.91200700  0.14686000  0.43166900  1
  Mg  Mg14  1  0.25465900  0.09963500  0.43953900  1
  Mg  Mg15  1  0.92132600  0.38462400  0.47129600  1
  Mg  Mg16  1  0.08799300  0.70278800  0.30462900  1
  Mg  Mg17  1  0.75465900  0.94055200  0.35999800  1
  Mg  Mg18  1  0.41200700  0.98777700  0.35212700  1
  Mg  Mg19  1  0.74534100  0.70278800  0.32037100  1
  Mg  Mg20  1  0.50000000  0.04370600  0.47916700  1
  Mg  Mg21  1  0.16666700  0.79370600  0.43750000  1
  Mg  Mg22  1  0.50000000  0.79370600  0.35416700  1
  Mg  Mg23  1  0.00000000  0.04370600  0.47916700  1
  Mg  Mg24  1  0.66666700  0.79370600  0.43750000  1
  Mg  Mg25  1  0.00000000  0.79370600  0.35416700  1
  Mg  Mg26  1  0.58333300  0.85997700  0.48769800  1
  Mg  Mg27  1  0.91666700  0.85997700  0.47063500  1
  Mg  Mg28  1  0.25000000  0.91116400  0.47916700  1
  Mg  Mg29  1  0.75000000  0.72743500  0.38730200  1
  Mg  Mg30  1  0.41666700  0.72743500  0.40436500  1
  Mg  Mg31  1  0.08333300  0.67624800  0.39583300  1
  Mg  Mg32  1  0.58333300  0.04370600  0.39583300  1
  Mg  Mg33  1  0.08333300  0.04370600  0.39583300  1
  Mg  Mg34  1  0.91200700  0.88462400  0.40370400  1
  Mg  Mg35  1  0.57867400  0.59963500  0.43546100  1
  Mg  Mg36  1  0.24534100  0.64686000  0.34833500  1
  Mg  Mg37  1  0.58799300  0.59963500  0.35620600  1
  Mg  Mg38  1  0.25465900  0.88462400  0.38796300  1
  Mg  Mg39  1  0.92132600  0.64686000  0.44333100  1
  Mg  Mg40  1  0.42132600  0.70278800  0.47129600  1
  Mg  Mg41  1  0.75465900  0.98777700  0.43953900  1
  Mg  Mg42  1  0.07867400  0.70278800  0.48703700  1
  Mg  Mg43  1  0.41200700  0.94055200  0.43166900  1
  Mg  Mg44  1  0.83333300  0.54370600  0.39583300  1
  Mg  Mg45  1  0.50000000  0.29370600  0.35416700  1
  Mg  Mg46  1  0.33333300  0.54370600  0.39583300  1
  Mg  Mg47  1  1.00000000  0.29370600  0.35416700  1
  Mg  Mg48  1  0.91666700  0.35997700  0.40436500  1
  Mg  Mg49  1  0.25000000  0.35997700  0.38730200  1
  Mg  Mg50  1  0.58333300  0.41116400  0.39583300  1
  Mg  Mg51  1  0.08333300  0.22743500  0.30396900  1
  Mg  Mg52  1  0.75000000  0.22743500  0.32103100  1
  Mg  Mg53  1  0.41666700  0.17624800  0.31250000  1
  Mg  Mg54  1  0.91666700  0.54370600  0.31250000  1
  Mg  Mg55  1  0.41666700  0.54370600  0.31250000  1
  Mg  Mg56  1  0.24534100  0.38462400  0.32037100  1
  Mg  Mg57  1  0.91200700  0.09963500  0.35212700  1
  Mg  Mg58  1  0.58799300  0.38462400  0.30462900  1
  Mg  Mg59  1  0.25465900  0.14686000  0.35999800  1
  Mg  Mg60  1  0.75465900  0.20278800  0.38796300  1
  Mg  Mg61  1  0.08799300  0.48777700  0.35620600  1
  Mg  Mg62  1  0.42132600  0.44055200  0.44333100  1
  Mg  Mg63  1  0.07867400  0.48777700  0.43546100  1
  Mg  Mg64  1  0.41200700  0.20278800  0.40370400  1
  Mg  Mg65  1  0.74534100  0.44055200  0.34833500  1
  Mg  Mg66  1  0.16666700  0.54370600  0.56250000  1
  Mg  Mg67  1  0.83333300  0.29370600  0.52083300  1
  Mg  Mg68  1  0.16666700  0.79370600  0.68750000  1
  Mg  Mg69  1  0.66666700  0.54370600  0.56250000  1
  Mg  Mg70  1  0.33333300  0.29370600  0.52083300  1
  Mg  Mg71  1  0.66666700  0.79370600  0.68750000  1
  Mg  Mg72  1  0.25000000  0.35997700  0.57103100  1
  Mg  Mg73  1  0.58333300  0.35997700  0.55396900  1
  Mg  Mg74  1  0.91666700  0.41116400  0.56250000  1
  Mg  Mg75  1  0.41666700  0.72743500  0.72063500  1
  Mg  Mg76  1  0.08333300  0.72743500  0.73769800  1
  Mg  Mg77  1  0.75000000  0.67624800  0.72916700  1
  Mg  Mg78  1  0.25000000  0.04370600  0.72916700  1
  Mg  Mg79  1  0.75000000  0.04370600  0.72916700  1
  Mg  Mg80  1  0.57867400  0.88462400  0.73703700  1
  Mg  Mg81  1  0.24534100  0.09963500  0.51879400  1
  Mg  Mg82  1  0.91200700  0.64686000  0.68166900  1
  Mg  Mg83  1  0.25465900  0.59963500  0.68953900  1
  Mg  Mg84  1  0.92132600  0.88462400  0.72129600  1
  Mg  Mg85  1  0.58799300  0.14686000  0.52666500  1
  Mg  Mg86  1  0.08799300  0.20278800  0.55462900  1
  Mg  Mg87  1  0.42132600  0.48777700  0.52287300  1
  Mg  Mg88  1  0.75465900  0.44055200  0.60999800  1
  Mg  Mg89  1  0.41200700  0.48777700  0.60212700  1
  Mg  Mg90  1  0.74534100  0.20278800  0.57037100  1
  Mg  Mg91  1  0.07867400  0.44055200  0.51500200  1
  Mg  Mg92  1  0.50000000  0.54370600  0.72916700  1
  Mg  Mg93  1  0.16666700  0.29370600  0.68750000  1
  Mg  Mg94  1  0.50000000  0.29370600  0.60416700  1
  Mg  Mg95  1  0.00000000  0.54370600  0.72916700  1
  Mg  Mg96  1  0.66666700  0.29370600  0.68750000  1
  Mg  Mg97  1  1.00000000  0.29370600  0.60416700  1
  Mg  Mg98  1  0.58333300  0.35997700  0.73769800  1
  Mg  Mg99  1  0.91666700  0.35997700  0.72063500  1
  Mg  Mg100  1  0.25000000  0.41116400  0.72916700  1
  Mg  Mg101  1  0.75000000  0.22743500  0.63730200  1
  Mg  Mg102  1  0.41666700  0.22743500  0.65436500  1
  Mg  Mg103  1  0.08333300  0.17624800  0.64583300  1
  Mg  Mg104  1  0.58333300  0.54370600  0.64583300  1
  Mg  Mg105  1  0.08333300  0.54370600  0.64583300  1
  Mg  Mg106  1  0.91200700  0.38462400  0.65370400  1
  Mg  Mg107  1  0.57867400  0.09963500  0.68546100  1
  Mg  Mg108  1  0.24534100  0.14686000  0.59833500  1
  Mg  Mg109  1  0.58799300  0.09963500  0.60620600  1
  Mg  Mg110  1  0.25465900  0.38462400  0.63796300  1
  Mg  Mg111  1  0.92132600  0.14686000  0.69333100  1
  Mg  Mg112  1  0.42132600  0.20278800  0.72129600  1
  Mg  Mg113  1  0.75465900  0.48777700  0.68953900  1
  Mg  Mg114  1  0.08799300  0.94055200  0.52666500  1
  Mg  Mg115  1  0.74534100  0.98777700  0.51879400  1
  Mg  Mg116  1  0.07867400  0.20278800  0.73703700  1
  Mg  Mg117  1  0.41200700  0.44055200  0.68166900  1
  Mg  Mg118  1  0.83333300  0.04370600  0.64583300  1
  Mg  Mg119  1  0.50000000  0.79370600  0.60416700  1
  Mg  Mg120  1  0.83333300  0.79370600  0.52083300  1
  Mg  Mg121  1  0.33333300  0.04370600  0.64583300  1
  Mg  Mg122  1  0.00000000  0.79370600  0.60416700  1
  Mg  Mg123  1  0.33333300  0.79370600  0.52083300  1
  Mg  Mg124  1  0.91666700  0.85997700  0.65436500  1
  Mg  Mg125  1  0.25000000  0.85997700  0.63730200  1
  Mg  Mg126  1  0.58333300  0.91116400  0.64583300  1
  Mg  Mg127  1  0.08333300  0.72743500  0.55396900  1
  Mg  Mg128  1  0.75000000  0.72743500  0.57103100  1
  Mg  Mg129  1  0.41666700  0.67624800  0.56250000  1
  Mg  Mg130  1  0.91666700  0.04370600  0.56250000  1
  Mg  Mg131  1  0.41666700  0.04370600  0.56250000  1
  Mg  Mg132  1  0.24534100  0.88462400  0.57037100  1
  Mg  Mg133  1  0.91200700  0.59963500  0.60212700  1
  Mg  Mg134  1  0.57867400  0.64686000  0.51500200  1
  Mg  Mg135  1  0.92132600  0.59963500  0.52287300  1
  Mg  Mg136  1  0.58799300  0.88462400  0.55462900  1
  Mg  Mg137  1  0.25465900  0.64686000  0.60999800  1
  Mg  Mg138  1  0.75465900  0.70278800  0.63796300  1
  Mg  Mg139  1  0.08799300  0.98777700  0.60620600  1
  Mg  Mg140  1  0.42132600  0.94055200  0.69333100  1
  Mg  Mg141  1  0.07867400  0.98777700  0.68546100  1
  Mg  Mg142  1  0.41200700  0.70278800  0.65370400  1
  Mg  Mg143  1  0.74534100  0.94055200  0.59833500  1
  Ir  Ir144  1  0.41666700  0.71635700  0.31250000  1
  Ir  Ir145  1  0.08333300  0.95738100  0.35267100  1
  Ir  Ir146  1  0.25000000  0.37105500  0.47916700  1
  Ir  Ir147  1  0.58333300  0.13003100  0.43899600  1
  Ir  Ir148  1  0.75000000  0.71635700  0.47916700  1
  Ir  Ir149  1  0.08333300  0.95738100  0.43899600  1
  Ir  Ir150  1  0.58333300  0.87105500  0.39583300  1
  Ir  Ir151  1  0.91666700  0.63003100  0.35566300  1
  Ir  Ir152  1  0.25000000  0.63003100  0.43600400  1
  Ir  Ir153  1  0.08333300  0.21635700  0.39583300  1
  Ir  Ir154  1  0.75000000  0.45738100  0.43600400  1
  Ir  Ir155  1  0.41666700  0.45738100  0.35566300  1
  Ir  Ir156  1  0.91666700  0.37105500  0.31250000  1
  Ir  Ir157  1  0.58333300  0.13003100  0.35267100  1
  Ir  Ir158  1  0.41666700  0.21635700  0.56250000  1
  Ir  Ir159  1  0.08333300  0.45738100  0.60267100  1
  Ir  Ir160  1  0.75000000  0.45738100  0.52232900  1
  Ir  Ir161  1  0.25000000  0.87105500  0.72916700  1
  Ir  Ir162  1  0.58333300  0.63003100  0.68899600  1
  Ir  Ir163  1  0.91666700  0.13003100  0.51933700  1
  Ir  Ir164  1  0.75000000  0.21635700  0.72916700  1
  Ir  Ir165  1  0.41666700  0.95738100  0.51933700  1
  Ir  Ir166  1  0.08333300  0.45738100  0.68899600  1
  Ir  Ir167  1  0.58333300  0.37105500  0.64583300  1
  Ir  Ir168  1  0.91666700  0.13003100  0.60566300  1
  Ir  Ir169  1  0.25000000  0.13003100  0.68600400  1
  Ir  Ir170  1  0.08333300  0.71635700  0.64583300  1
  Ir  Ir171  1  0.75000000  0.95738100  0.68600400  1
  Ir  Ir172  1  0.41666700  0.95738100  0.60566300  1
  Ir  Ir173  1  0.91666700  0.87105500  0.56250000  1
  Ir  Ir174  1  0.25000000  0.63003100  0.52232900  1
  Ir  Ir175  1  0.58333300  0.63003100  0.60267100  1
