# generated using pymatgen
data_Mg5Ir8
_symmetry_space_group_name_H-M   'P 1'
_cell_length_a   5.24707500
_cell_length_b   19.59900374
_cell_length_c   48.70839900
_cell_angle_alpha   93.84872638
_cell_angle_beta   90.00000000
_cell_angle_gamma   90.00000000
_symmetry_Int_Tables_number   1
_chemical_formula_structural   Mg5Ir8
_chemical_formula_sum   'Mg70 Ir112'
_cell_volume   4997.75050797
_cell_formula_units_Z   14
loop_
 _symmetry_equiv_pos_site_id
 _symmetry_equiv_pos_as_xyz
  1  'x, y, z'
loop_
 _atom_site_type_symbol
 _atom_site_label
 _atom_site_symmetry_multiplicity
 _atom_site_fract_x
 _atom_site_fract_y
 _atom_site_fract_z
 _atom_site_occupancy
  Mg  Mg0  1  0.00000000  0.68090700  0.29312300  1
  Mg  Mg1  1  0.50000000  0.04552700  0.26687700  1
  Mg  Mg2  1  0.50000000  0.88793500  0.26395800  1
  Mg  Mg3  1  0.00000000  0.83849900  0.29604200  1
  Mg  Mg4  1  0.50000000  0.61931700  0.26506800  1
  Mg  Mg5  1  0.00000000  0.10711700  0.29493200  1
  Mg  Mg6  1  0.00000000  0.40244000  0.28908800  1
  Mg  Mg7  1  0.50000000  0.32399400  0.27091200  1
  Mg  Mg8  1  0.00000000  0.50715200  0.25163600  1
  Mg  Mg9  1  0.50000000  0.21928200  0.30836400  1
  Mg  Mg10  1  0.50000000  0.98577400  0.37242100  1
  Mg  Mg11  1  0.00000000  0.90732700  0.35424600  1
  Mg  Mg12  1  0.00000000  0.84757400  0.45978900  1
  Mg  Mg13  1  0.50000000  0.21219400  0.43354400  1
  Mg  Mg14  1  0.50000000  0.05460200  0.43062500  1
  Mg  Mg15  1  0.00000000  0.00516600  0.46270900  1
  Mg  Mg16  1  0.50000000  0.09048500  0.33496900  1
  Mg  Mg17  1  0.00000000  0.80261500  0.39169800  1
  Mg  Mg18  1  0.50000000  0.78598400  0.43173500  1
  Mg  Mg19  1  0.00000000  0.27378300  0.46159800  1
  Mg  Mg20  1  0.00000000  0.56910700  0.45575400  1
  Mg  Mg21  1  0.50000000  0.49066000  0.43757900  1
  Mg  Mg22  1  0.50000000  0.26424000  0.37645600  1
  Mg  Mg23  1  0.00000000  0.62886000  0.35021100  1
  Mg  Mg24  1  0.00000000  0.47126800  0.34729100  1
  Mg  Mg25  1  0.50000000  0.42183200  0.37937500  1
  Mg  Mg26  1  0.00000000  0.67381900  0.41830200  1
  Mg  Mg27  1  0.50000000  0.38594800  0.47503100  1
  Mg  Mg28  1  1.00000000  0.20265000  0.34840200  1
  Mg  Mg29  1  0.50000000  0.69045000  0.37826500  1
  Mg  Mg30  1  0.50000000  0.15244000  0.53908800  1
  Mg  Mg31  1  1.00000000  0.07399400  0.52091200  1
  Mg  Mg32  1  0.00000000  0.01424000  0.62645600  1
  Mg  Mg33  1  0.50000000  0.37886000  0.60021100  1
  Mg  Mg34  1  0.50000000  0.22126800  0.59729100  1
  Mg  Mg35  1  1.00000000  0.17183200  0.62937500  1
  Mg  Mg36  1  0.50000000  0.25715200  0.50163600  1
  Mg  Mg37  1  0.00000000  0.96928200  0.55836400  1
  Mg  Mg38  1  0.50000000  0.95265000  0.59840200  1
  Mg  Mg39  1  0.00000000  0.44045000  0.62826500  1
  Mg  Mg40  1  0.00000000  0.73577400  0.62242100  1
  Mg  Mg41  1  0.50000000  0.65732700  0.60424600  1
  Mg  Mg42  1  0.50000000  0.43090700  0.54312300  1
  Mg  Mg43  1  0.00000000  0.79552700  0.51687700  1
  Mg  Mg44  1  0.00000000  0.63793500  0.51395800  1
  Mg  Mg45  1  0.50000000  0.58849900  0.54604200  1
  Mg  Mg46  1  0.00000000  0.84048500  0.58496900  1
  Mg  Mg47  1  0.50000000  0.55261500  0.64169800  1
  Mg  Mg48  1  0.00000000  0.36931700  0.51506800  1
  Mg  Mg49  1  0.50000000  0.85711700  0.54493200  1
  Mg  Mg50  1  0.50000000  0.31910700  0.70575400  1
  Mg  Mg51  1  1.00000000  0.24066000  0.68757900  1
  Mg  Mg52  1  0.00000000  0.18090700  0.79312300  1
  Mg  Mg53  1  0.50000000  0.54552700  0.76687700  1
  Mg  Mg54  1  0.50000000  0.38793500  0.76395800  1
  Mg  Mg55  1  0.00000000  0.33849900  0.79604200  1
  Mg  Mg56  1  0.50000000  0.42381900  0.66830200  1
  Mg  Mg57  1  1.00000000  0.13594800  0.72503100  1
  Mg  Mg58  1  0.50000000  0.11931700  0.76506800  1
  Mg  Mg59  1  0.00000000  0.60711700  0.79493200  1
  Mg  Mg60  1  1.00000000  0.90244000  0.78908800  1
  Mg  Mg61  1  0.50000000  0.82399400  0.77091200  1
  Mg  Mg62  1  0.50000000  0.59757400  0.70978900  1
  Mg  Mg63  1  0.00000000  0.96219400  0.68354400  1
  Mg  Mg64  1  1.00000000  0.80460200  0.68062500  1
  Mg  Mg65  1  0.50000000  0.75516600  0.71270900  1
  Mg  Mg66  1  0.00000000  0.00715200  0.75163600  1
  Mg  Mg67  1  0.50000000  0.71928200  0.80836400  1
  Mg  Mg68  1  0.00000000  0.53598400  0.68173500  1
  Mg  Mg69  1  0.50000000  0.02378300  0.71159800  1
  Ir  Ir70  1  0.75048700  0.74975800  0.24859700  1
  Ir  Ir71  1  0.74951300  0.97667600  0.31140300  1
  Ir  Ir72  1  0.25048700  0.97667600  0.31140300  1
  Ir  Ir73  1  0.24951300  0.74975800  0.24859700  1
  Ir  Ir74  1  0.00000000  0.07155000  0.23833300  1
  Ir  Ir75  1  0.50000000  0.87535700  0.32617700  1
  Ir  Ir76  1  1.00000000  0.85107700  0.23382300  1
  Ir  Ir77  1  0.50000000  0.76255500  0.29350900  1
  Ir  Ir78  1  0.00000000  0.96387900  0.26649100  1
  Ir  Ir79  1  0.50000000  0.46700200  0.26490700  1
  Ir  Ir80  1  0.00000000  0.25943100  0.29509300  1
  Ir  Ir81  1  0.25048700  0.33309100  0.33193100  1
  Ir  Ir82  1  0.24951300  0.39334300  0.22806900  1
  Ir  Ir83  1  0.75048700  0.39334300  0.22806900  1
  Ir  Ir84  1  0.74951300  0.33309100  0.33193100  1
  Ir  Ir85  1  0.50000000  0.65488400  0.32166700  1
  Ir  Ir86  1  0.00000000  0.29202400  0.24284300  1
  Ir  Ir87  1  0.50000000  0.43441000  0.31715700  1
  Ir  Ir88  1  0.23393800  0.54522800  0.30277900  1
  Ir  Ir89  1  0.26606200  0.18120500  0.25722100  1
  Ir  Ir90  1  0.73393800  0.18120500  0.25722100  1
  Ir  Ir91  1  0.76606200  0.54522800  0.30277900  1
  Ir  Ir92  1  0.00000000  0.05033600  0.34824000  1
  Ir  Ir93  1  0.50000000  0.84276500  0.37842600  1
  Ir  Ir94  1  0.75048700  0.91642500  0.41526400  1
  Ir  Ir95  1  0.74951300  0.14334300  0.47806900  1
  Ir  Ir96  1  0.25048700  0.14334300  0.47806900  1
  Ir  Ir97  1  0.24951300  0.91642500  0.41526400  1
  Ir  Ir98  1  0.00000000  0.23821700  0.40500000  1
  Ir  Ir99  1  0.50000000  0.04202400  0.49284300  1
  Ir  Ir100  1  1.00000000  0.01774300  0.40049000  1
  Ir  Ir101  1  0.50000000  0.92922100  0.46017600  1
  Ir  Ir102  1  0.00000000  0.13054600  0.43315700  1
  Ir  Ir103  1  0.73393800  0.12856200  0.38611200  1
  Ir  Ir104  1  0.76606200  0.76453900  0.34055400  1
  Ir  Ir105  1  0.23393800  0.76453900  0.34055400  1
  Ir  Ir106  1  0.26606200  0.12856200  0.38611200  1
  Ir  Ir107  1  0.50000000  0.63366900  0.43157400  1
  Ir  Ir108  1  0.00000000  0.42609800  0.46176000  1
  Ir  Ir109  1  0.25048700  0.49975800  0.49859700  1
  Ir  Ir110  1  0.24951300  0.56000900  0.39473600  1
  Ir  Ir111  1  0.75048700  0.56000900  0.39473600  1
  Ir  Ir112  1  0.74951300  0.49975800  0.49859700  1
  Ir  Ir113  1  0.50000000  0.82155000  0.48833300  1
  Ir  Ir114  1  1.00000000  0.45869000  0.40951000  1
  Ir  Ir115  1  0.50000000  0.60107700  0.48382300  1
  Ir  Ir116  1  0.00000000  0.34588800  0.37684300  1
  Ir  Ir117  1  0.50000000  0.54721200  0.34982400  1
  Ir  Ir118  1  0.23393800  0.71189500  0.46944600  1
  Ir  Ir119  1  0.26606200  0.34787200  0.42388800  1
  Ir  Ir120  1  0.73393800  0.34787200  0.42388800  1
  Ir  Ir121  1  0.76606200  0.71189500  0.46944600  1
  Ir  Ir122  1  0.00000000  0.21700200  0.51490700  1
  Ir  Ir123  1  0.50000000  0.00943100  0.54509300  1
  Ir  Ir124  1  0.75048700  0.08309100  0.58193100  1
  Ir  Ir125  1  0.74951300  0.31000900  0.64473600  1
  Ir  Ir126  1  0.25048700  0.31000900  0.64473600  1
  Ir  Ir127  1  0.24951300  0.08309100  0.58193100  1
  Ir  Ir128  1  1.00000000  0.40488400  0.57166700  1
  Ir  Ir129  1  0.50000000  0.20869000  0.65951000  1
  Ir  Ir130  1  1.00000000  0.18441000  0.56715700  1
  Ir  Ir131  1  0.50000000  0.09588800  0.62684300  1
  Ir  Ir132  1  0.00000000  0.29721200  0.59982400  1
  Ir  Ir133  1  0.73393800  0.29522800  0.55277900  1
  Ir  Ir134  1  0.76606200  0.93120500  0.50722100  1
  Ir  Ir135  1  0.23393800  0.93120500  0.50722100  1
  Ir  Ir136  1  0.26606200  0.29522800  0.55277900  1
  Ir  Ir137  1  0.50000000  0.80033600  0.59824000  1
  Ir  Ir138  1  1.00000000  0.59276500  0.62842600  1
  Ir  Ir139  1  0.25048700  0.66642500  0.66526400  1
  Ir  Ir140  1  0.24951300  0.72667600  0.56140300  1
  Ir  Ir141  1  0.75048700  0.72667600  0.56140300  1
  Ir  Ir142  1  0.74951300  0.66642500  0.66526400  1
  Ir  Ir143  1  0.50000000  0.98821700  0.65500000  1
  Ir  Ir144  1  0.00000000  0.62535700  0.57617700  1
  Ir  Ir145  1  0.50000000  0.76774300  0.65049000  1
  Ir  Ir146  1  0.00000000  0.51255500  0.54350900  1
  Ir  Ir147  1  0.50000000  0.71387900  0.51649100  1
  Ir  Ir148  1  0.23393800  0.87856200  0.63611200  1
  Ir  Ir149  1  0.26606200  0.51453900  0.59055400  1
  Ir  Ir150  1  0.73393800  0.51453900  0.59055400  1
  Ir  Ir151  1  0.76606200  0.87856200  0.63611200  1
  Ir  Ir152  1  0.00000000  0.38366900  0.68157400  1
  Ir  Ir153  1  0.50000000  0.17609800  0.71176000  1
  Ir  Ir154  1  0.75048700  0.24975800  0.74859700  1
  Ir  Ir155  1  0.74951300  0.47667600  0.81140300  1
  Ir  Ir156  1  0.25048700  0.47667600  0.81140300  1
  Ir  Ir157  1  0.24951300  0.24975800  0.74859700  1
  Ir  Ir158  1  0.00000000  0.57155000  0.73833300  1
  Ir  Ir159  1  0.50000000  0.37535700  0.82617700  1
  Ir  Ir160  1  1.00000000  0.35107700  0.73382300  1
  Ir  Ir161  1  0.50000000  0.26255500  0.79350900  1
  Ir  Ir162  1  1.00000000  0.46387900  0.76649100  1
  Ir  Ir163  1  0.73393800  0.46189500  0.71944600  1
  Ir  Ir164  1  0.76606200  0.09787200  0.67388800  1
  Ir  Ir165  1  0.23393800  0.09787200  0.67388800  1
  Ir  Ir166  1  0.26606200  0.46189500  0.71944600  1
  Ir  Ir167  1  0.50000000  0.96700200  0.76490700  1
  Ir  Ir168  1  0.00000000  0.75943100  0.79509300  1
  Ir  Ir169  1  0.25048700  0.83309100  0.83193100  1
  Ir  Ir170  1  0.24951300  0.89334300  0.72806900  1
  Ir  Ir171  1  0.75048700  0.89334300  0.72806900  1
  Ir  Ir172  1  0.74951300  0.83309100  0.83193100  1
  Ir  Ir173  1  0.50000000  0.15488400  0.82166700  1
  Ir  Ir174  1  0.00000000  0.79202400  0.74284300  1
  Ir  Ir175  1  0.50000000  0.93441000  0.81715700  1
  Ir  Ir176  1  0.00000000  0.67922100  0.71017600  1
  Ir  Ir177  1  0.50000000  0.88054600  0.68315700  1
  Ir  Ir178  1  0.23393800  0.04522800  0.80277900  1
  Ir  Ir179  1  0.26606200  0.68120500  0.75722100  1
  Ir  Ir180  1  0.73393800  0.68120500  0.75722100  1
  Ir  Ir181  1  0.76606200  0.04522800  0.80277900  1
