# generated using pymatgen
data_Mg10Zn19
_symmetry_space_group_name_H-M   'P 1'
_cell_length_a   5.22493400
_cell_length_b   7.38917200
_cell_length_c   41.79947100
_cell_angle_alpha   90.00000000
_cell_angle_beta   90.00000000
_cell_angle_gamma   90.00000000
_symmetry_Int_Tables_number   1
_chemical_formula_structural   Mg10Zn19
_chemical_formula_sum   'Mg20 Zn38'
_cell_volume   1613.79130181
_cell_formula_units_Z   2
loop_
 _symmetry_equiv_pos_site_id
 _symmetry_equiv_pos_as_xyz
  1  'x, y, z'
loop_
 _atom_site_type_symbol
 _atom_site_label
 _atom_site_symmetry_multiplicity
 _atom_site_fract_x
 _atom_site_fract_y
 _atom_site_fract_z
 _atom_site_occupancy
  Mg  Mg0  1  0.37500000  0.25000000  0.29166700  1
  Mg  Mg1  1  0.87500000  0.00000000  0.29166700  1
  Mg  Mg2  1  0.87500000  0.75000000  0.22916700  1
  Mg  Mg3  1  0.37500000  0.50000000  0.22916700  1
  Mg  Mg4  1  0.37500000  0.25000000  0.41666700  1
  Mg  Mg5  1  0.87500000  0.00000000  0.41666700  1
  Mg  Mg6  1  0.87500000  0.75000000  0.35416700  1
  Mg  Mg7  1  0.37500000  0.50000000  0.35416700  1
  Mg  Mg8  1  0.37500000  0.25000000  0.54166700  1
  Mg  Mg9  1  0.87500000  0.00000000  0.54166700  1
  Mg  Mg10  1  0.87500000  0.75000000  0.47916700  1
  Mg  Mg11  1  0.37500000  0.50000000  0.47916700  1
  Mg  Mg12  1  0.37500000  0.25000000  0.66666700  1
  Mg  Mg13  1  0.87500000  0.00000000  0.66666700  1
  Mg  Mg14  1  0.87500000  0.75000000  0.60416700  1
  Mg  Mg15  1  0.37500000  0.50000000  0.60416700  1
  Mg  Mg16  1  0.37500000  0.25000000  0.79166700  1
  Mg  Mg17  1  0.87500000  0.00000000  0.79166700  1
  Mg  Mg18  1  0.87500000  0.75000000  0.72916700  1
  Mg  Mg19  1  0.37500000  0.50000000  0.72916700  1
  Zn  Zn20  1  0.87500000  0.37500000  0.26041700  1
  Zn  Zn21  1  0.62500000  0.12500000  0.22916700  1
  Zn  Zn22  1  0.12500000  0.12500000  0.22916700  1
  Zn  Zn23  1  0.12500000  0.62500000  0.29166700  1
  Zn  Zn24  1  0.62500000  0.62500000  0.29166700  1
  Zn  Zn25  1  0.37500000  0.87500000  0.26041700  1
  Zn  Zn26  1  0.87500000  0.37500000  0.38541700  1
  Zn  Zn27  1  0.62500000  0.12500000  0.35416700  1
  Zn  Zn28  1  0.12500000  0.12500000  0.35416700  1
  Zn  Zn29  1  0.87500000  0.37500000  0.32291700  1
  Zn  Zn30  1  0.37500000  0.87500000  0.32291700  1
  Zn  Zn31  1  0.12500000  0.62500000  0.41666700  1
  Zn  Zn32  1  0.62500000  0.62500000  0.41666700  1
  Zn  Zn33  1  0.37500000  0.87500000  0.38541700  1
  Zn  Zn34  1  0.87500000  0.37500000  0.51041700  1
  Zn  Zn35  1  0.62500000  0.12500000  0.47916700  1
  Zn  Zn36  1  0.12500000  0.12500000  0.47916700  1
  Zn  Zn37  1  0.87500000  0.37500000  0.44791700  1
  Zn  Zn38  1  0.37500000  0.87500000  0.44791700  1
  Zn  Zn39  1  0.12500000  0.62500000  0.54166700  1
  Zn  Zn40  1  0.62500000  0.62500000  0.54166700  1
  Zn  Zn41  1  0.37500000  0.87500000  0.51041700  1
  Zn  Zn42  1  0.87500000  0.37500000  0.63541700  1
  Zn  Zn43  1  0.62500000  0.12500000  0.60416700  1
  Zn  Zn44  1  0.12500000  0.12500000  0.60416700  1
  Zn  Zn45  1  0.87500000  0.37500000  0.57291700  1
  Zn  Zn46  1  0.37500000  0.87500000  0.57291700  1
  Zn  Zn47  1  0.12500000  0.62500000  0.66666700  1
  Zn  Zn48  1  0.62500000  0.62500000  0.66666700  1
  Zn  Zn49  1  0.37500000  0.87500000  0.63541700  1
  Zn  Zn50  1  0.87500000  0.37500000  0.76041700  1
  Zn  Zn51  1  0.62500000  0.12500000  0.72916700  1
  Zn  Zn52  1  0.12500000  0.12500000  0.72916700  1
  Zn  Zn53  1  0.87500000  0.37500000  0.69791700  1
  Zn  Zn54  1  0.37500000  0.87500000  0.69791700  1
  Zn  Zn55  1  0.12500000  0.62500000  0.79166700  1
  Zn  Zn56  1  0.62500000  0.62500000  0.79166700  1
  Zn  Zn57  1  0.37500000  0.87500000  0.76041700  1
