# generated using pymatgen
data_Ca24Mg47
_symmetry_space_group_name_H-M   'P 1'
_cell_length_a   6.14690500
_cell_length_b   12.06769123
_cell_length_c   47.38177000
_cell_angle_alpha   91.10404210
_cell_angle_beta   90.00000000
_cell_angle_gamma   75.24511335
_symmetry_Int_Tables_number   1
_chemical_formula_structural   Ca24Mg47
_chemical_formula_sum   'Ca24 Mg47'
_cell_volume   3398.15431629
_cell_formula_units_Z   1
loop_
 _symmetry_equiv_pos_site_id
 _symmetry_equiv_pos_as_xyz
  1  'x, y, z'
loop_
 _atom_site_type_symbol
 _atom_site_label
 _atom_site_symmetry_multiplicity
 _atom_site_fract_x
 _atom_site_fract_y
 _atom_site_fract_z
 _atom_site_occupancy
  Ca  Ca0  1  0.27312300  0.91010400  0.21485400  1
  Ca  Ca1  1  0.53979000  0.37677000  0.23152100  1
  Ca  Ca2  1  0.29195700  0.87243600  0.29347900  1
  Ca  Ca3  1  0.02529000  0.40577000  0.27681200  1
  Ca  Ca4  1  0.87312300  0.71010400  0.31485400  1
  Ca  Ca5  1  0.13979000  0.17677000  0.33152100  1
  Ca  Ca6  1  0.89195700  0.67243600  0.39347900  1
  Ca  Ca7  1  0.62529000  0.20577000  0.37681200  1
  Ca  Ca8  1  0.47312300  0.51010400  0.41485400  1
  Ca  Ca9  1  0.73979000  0.97677000  0.43152100  1
  Ca  Ca10  1  0.49195700  0.47243600  0.49347900  1
  Ca  Ca11  1  0.22529000  0.00577000  0.47681200  1
  Ca  Ca12  1  0.07312300  0.31010400  0.51485400  1
  Ca  Ca13  1  0.33979000  0.77677000  0.53152100  1
  Ca  Ca14  1  0.09195700  0.27243600  0.59347900  1
  Ca  Ca15  1  0.82529000  0.80577000  0.57681200  1
  Ca  Ca16  1  0.67312300  0.11010400  0.61485400  1
  Ca  Ca17  1  0.93979000  0.57677000  0.63152100  1
  Ca  Ca18  1  0.69195700  0.07243600  0.69347900  1
  Ca  Ca19  1  0.42529000  0.60577000  0.67681200  1
  Ca  Ca20  1  0.27312300  0.91010400  0.71485400  1
  Ca  Ca21  1  0.53979000  0.37677000  0.73152100  1
  Ca  Ca22  1  0.29195700  0.87243600  0.79347900  1
  Ca  Ca23  1  0.02529000  0.40577000  0.77681200  1
  Mg  Mg24  1  0.11627000  0.22381000  0.21289700  1
  Mg  Mg25  1  0.15237900  0.65754000  0.24603200  1
  Mg  Mg26  1  0.64643100  0.65754000  0.24603200  1
  Mg  Mg27  1  0.91865000  0.12500000  0.26230200  1
  Mg  Mg28  1  0.78254000  0.89127000  0.25416700  1
  Mg  Mg29  1  0.44881000  0.55873000  0.29543700  1
  Mg  Mg30  1  0.41270100  0.12500000  0.26230200  1
  Mg  Mg31  1  0.71627000  0.02381000  0.31289700  1
  Mg  Mg32  1  0.75237900  0.45754000  0.34603200  1
  Mg  Mg33  1  0.24643100  0.45754000  0.34603200  1
  Mg  Mg34  1  0.51865000  0.92500000  0.36230200  1
  Mg  Mg35  1  0.58254000  0.29127000  0.30416700  1
  Mg  Mg36  1  0.38254000  0.69127000  0.35416700  1
  Mg  Mg37  1  0.04881000  0.35873000  0.39543700  1
  Mg  Mg38  1  0.01270100  0.92500000  0.36230200  1
  Mg  Mg39  1  0.31627000  0.82381000  0.41289700  1
  Mg  Mg40  1  0.35237900  0.25754000  0.44603200  1
  Mg  Mg41  1  0.84643100  0.25754000  0.44603200  1
  Mg  Mg42  1  0.11865000  0.72500000  0.46230200  1
  Mg  Mg43  1  0.18254000  0.09127000  0.40416700  1
  Mg  Mg44  1  0.98254000  0.49127000  0.45416700  1
  Mg  Mg45  1  0.64881000  0.15873000  0.49543700  1
  Mg  Mg46  1  0.61270100  0.72500000  0.46230200  1
  Mg  Mg47  1  0.91627000  0.62381000  0.51289700  1
  Mg  Mg48  1  0.95237900  0.05754000  0.54603200  1
  Mg  Mg49  1  0.44643100  0.05754000  0.54603200  1
  Mg  Mg50  1  0.71865000  0.52500000  0.56230200  1
  Mg  Mg51  1  0.78254000  0.89127000  0.50416700  1
  Mg  Mg52  1  0.58254000  0.29127000  0.55416700  1
  Mg  Mg53  1  0.24881000  0.95873000  0.59543700  1
  Mg  Mg54  1  0.21270100  0.52500000  0.56230200  1
  Mg  Mg55  1  0.51627000  0.42381000  0.61289700  1
  Mg  Mg56  1  0.55237900  0.85754000  0.64603200  1
  Mg  Mg57  1  0.04643100  0.85754000  0.64603200  1
  Mg  Mg58  1  0.31865000  0.32500000  0.66230200  1
  Mg  Mg59  1  0.38254000  0.69127000  0.60416700  1
  Mg  Mg60  1  0.18254000  0.09127000  0.65416700  1
  Mg  Mg61  1  0.84881000  0.75873000  0.69543700  1
  Mg  Mg62  1  0.81270100  0.32500000  0.66230200  1
  Mg  Mg63  1  0.11627000  0.22381000  0.71289700  1
  Mg  Mg64  1  0.15237900  0.65754000  0.74603200  1
  Mg  Mg65  1  0.64643100  0.65754000  0.74603200  1
  Mg  Mg66  1  0.91865000  0.12500000  0.76230200  1
  Mg  Mg67  1  0.98254000  0.49127000  0.70416700  1
  Mg  Mg68  1  0.78254000  0.89127000  0.75416700  1
  Mg  Mg69  1  0.44881000  0.55873000  0.79543700  1
  Mg  Mg70  1  0.41270100  0.12500000  0.76230200  1
