# generated using pymatgen
data_Mg19Sc9
_symmetry_space_group_name_H-M   'P 1'
_cell_length_a   6.13971348
_cell_length_b   8.45453099
_cell_length_c   43.60291500
_cell_angle_alpha   91.24883666
_cell_angle_beta   92.80791751
_cell_angle_gamma   95.84591880
_symmetry_Int_Tables_number   1
_chemical_formula_structural   Mg19Sc9
_chemical_formula_sum   'Mg38 Sc18'
_cell_volume   2248.06610484
_cell_formula_units_Z   2
loop_
 _symmetry_equiv_pos_site_id
 _symmetry_equiv_pos_as_xyz
  1  'x, y, z'
loop_
 _atom_site_type_symbol
 _atom_site_label
 _atom_site_symmetry_multiplicity
 _atom_site_fract_x
 _atom_site_fract_y
 _atom_site_fract_z
 _atom_site_occupancy
  Mg  Mg0  1  0.04831400  0.45763700  0.23792600  1
  Mg  Mg1  1  0.21498000  0.74929600  0.19625900  1
  Mg  Mg2  1  0.61838600  0.00069600  0.22040800  1
  Mg  Mg3  1  0.70172100  0.64653700  0.19957400  1
  Mg  Mg4  1  0.79831400  0.52013700  0.30042600  1
  Mg  Mg5  1  0.96498000  0.81179600  0.25875900  1
  Mg  Mg6  1  0.36838600  0.06319600  0.28290800  1
  Mg  Mg7  1  0.45172100  0.70903700  0.26207400  1
  Mg  Mg8  1  0.54831400  0.58263700  0.36292600  1
  Mg  Mg9  1  0.71498000  0.87429600  0.32125900  1
  Mg  Mg10  1  0.11838600  0.12569600  0.34540800  1
  Mg  Mg11  1  0.20172100  0.77153700  0.32457400  1
  Mg  Mg12  1  0.29831400  0.64513700  0.42542600  1
  Mg  Mg13  1  0.46498000  0.93679600  0.38375900  1
  Mg  Mg14  1  0.86838600  0.18819600  0.40790800  1
  Mg  Mg15  1  0.95172100  0.83403700  0.38707400  1
  Mg  Mg16  1  0.04831400  0.70763700  0.48792600  1
  Mg  Mg17  1  0.21498000  0.99929600  0.44625900  1
  Mg  Mg18  1  0.61838600  0.25069600  0.47040800  1
  Mg  Mg19  1  0.70172100  0.89653700  0.44957400  1
  Mg  Mg20  1  0.79831400  0.77013700  0.55042600  1
  Mg  Mg21  1  0.96498000  0.06179600  0.50875900  1
  Mg  Mg22  1  0.36838600  0.31319600  0.53290800  1
  Mg  Mg23  1  0.45172100  0.95903700  0.51207400  1
  Mg  Mg24  1  0.54831400  0.83263700  0.61292600  1
  Mg  Mg25  1  0.71498000  0.12429600  0.57125900  1
  Mg  Mg26  1  0.11838600  0.37569600  0.59540800  1
  Mg  Mg27  1  0.20172100  0.02153700  0.57457400  1
  Mg  Mg28  1  0.29831400  0.89513700  0.67542600  1
  Mg  Mg29  1  0.46498000  0.18679600  0.63375900  1
  Mg  Mg30  1  0.86838600  0.43819600  0.65790800  1
  Mg  Mg31  1  0.95172100  0.08403700  0.63707400  1
  Mg  Mg32  1  0.04831400  0.95763700  0.73792600  1
  Mg  Mg33  1  0.21498000  0.24929600  0.69625900  1
  Mg  Mg34  1  0.61838600  0.50069600  0.72040800  1
  Mg  Mg35  1  0.70172100  0.14653700  0.69957400  1
  Mg  Mg36  1  0.96498000  0.31179600  0.75875900  1
  Mg  Mg37  1  0.45172100  0.20903700  0.76207400  1
  Sc  Sc38  1  0.13168100  0.10372700  0.21708400  1
  Sc  Sc39  1  0.53502000  0.35460600  0.24124900  1
  Sc  Sc40  1  0.88168100  0.16622700  0.27958400  1
  Sc  Sc41  1  0.28502000  0.41710600  0.30374900  1
  Sc  Sc42  1  0.63168100  0.22872700  0.34208400  1
  Sc  Sc43  1  0.03502000  0.47960600  0.36624900  1
  Sc  Sc44  1  0.38168100  0.29122700  0.40458400  1
  Sc  Sc45  1  0.78502000  0.54210600  0.42874900  1
  Sc  Sc46  1  0.13168100  0.35372700  0.46708400  1
  Sc  Sc47  1  0.53502000  0.60460600  0.49124900  1
  Sc  Sc48  1  0.88168100  0.41622700  0.52958400  1
  Sc  Sc49  1  0.28502000  0.66710600  0.55374900  1
  Sc  Sc50  1  0.63168100  0.47872700  0.59208400  1
  Sc  Sc51  1  0.03502000  0.72960600  0.61624900  1
  Sc  Sc52  1  0.38168100  0.54122700  0.65458400  1
  Sc  Sc53  1  0.78502000  0.79210600  0.67874900  1
  Sc  Sc54  1  0.13168100  0.60372700  0.71708400  1
  Sc  Sc55  1  0.53502000  0.85460600  0.74124900  1
