# generated using pymatgen
data_Ba10Mg77
_symmetry_space_group_name_H-M   'P 1'
_cell_length_a   8.04420300
_cell_length_b   12.12331199
_cell_length_c   42.30595900
_cell_angle_alpha   90.00000000
_cell_angle_beta   90.00000000
_cell_angle_gamma   100.37110432
_symmetry_Int_Tables_number   1
_chemical_formula_structural   Ba10Mg77
_chemical_formula_sum   'Ba10 Mg77'
_cell_volume   4058.37255665
_cell_formula_units_Z   1
loop_
 _symmetry_equiv_pos_site_id
 _symmetry_equiv_pos_as_xyz
  1  'x, y, z'
loop_
 _atom_site_type_symbol
 _atom_site_label
 _atom_site_symmetry_multiplicity
 _atom_site_fract_x
 _atom_site_fract_y
 _atom_site_fract_z
 _atom_site_occupancy
  Ba  Ba0  1  0.01676800  0.01383600  0.27631600  1
  Ba  Ba1  1  0.69070400  0.33990000  0.27631600  1
  Ba  Ba2  1  0.01676800  0.51383600  0.40131600  1
  Ba  Ba3  1  0.69070400  0.83990000  0.40131600  1
  Ba  Ba4  1  0.01676800  0.01383600  0.52631600  1
  Ba  Ba5  1  0.69070400  0.33990000  0.52631600  1
  Ba  Ba6  1  0.01676800  0.51383600  0.65131600  1
  Ba  Ba7  1  0.69070400  0.83990000  0.65131600  1
  Ba  Ba8  1  0.01676800  0.01383600  0.77631600  1
  Ba  Ba9  1  0.69070400  0.33990000  0.77631600  1
  Mg  Mg10  1  0.64626400  0.82313200  0.23975000  1
  Mg  Mg11  1  0.20419500  0.33211500  0.27631600  1
  Mg  Mg12  1  0.25694900  0.77365400  0.27631600  1
  Mg  Mg13  1  0.06120800  0.53060400  0.31288200  1
  Mg  Mg14  1  0.45052200  0.58008200  0.27631600  1
  Mg  Mg15  1  0.64626400  0.82313200  0.31288200  1
  Mg  Mg16  1  0.50327700  0.02162100  0.27631600  1
  Mg  Mg17  1  0.06120800  0.53060400  0.23975000  1
  Mg  Mg18  1  0.85373600  0.67686800  0.27631600  1
  Mg  Mg19  1  0.64626400  0.32313200  0.36475000  1
  Mg  Mg20  1  0.00898300  0.77447400  0.33810200  1
  Mg  Mg21  1  0.20419500  0.83211500  0.40131600  1
  Mg  Mg22  1  0.25694900  0.27365400  0.40131600  1
  Mg  Mg23  1  0.35373600  0.17686800  0.32818400  1
  Mg  Mg24  1  0.06120800  0.03060400  0.43788200  1
  Mg  Mg25  1  0.00898300  0.27447400  0.33952900  1
  Mg  Mg26  1  0.45052200  0.08008200  0.40131600  1
  Mg  Mg27  1  0.64626400  0.32313200  0.43788200  1
  Mg  Mg28  1  0.35373600  0.92686800  0.33881600  1
  Mg  Mg29  1  0.35373600  0.67686800  0.34944800  1
  Mg  Mg30  1  0.50327700  0.52162100  0.40131600  1
  Mg  Mg31  1  0.69848900  0.07926200  0.33952900  1
  Mg  Mg32  1  0.69848900  0.57926200  0.33810200  1
  Mg  Mg33  1  0.35373600  0.42686800  0.33881600  1
  Mg  Mg34  1  0.06120800  0.03060400  0.36475000  1
  Mg  Mg35  1  0.85373600  0.17686800  0.40131600  1
  Mg  Mg36  1  0.64626400  0.82313200  0.48975000  1
  Mg  Mg37  1  0.00898300  0.27447400  0.46310200  1
  Mg  Mg38  1  0.20419500  0.33211500  0.52631600  1
  Mg  Mg39  1  0.25694900  0.77365400  0.52631600  1
  Mg  Mg40  1  0.35373600  0.67686800  0.45318400  1
  Mg  Mg41  1  0.06120800  0.53060400  0.56288200  1
  Mg  Mg42  1  0.00898300  0.77447400  0.46452900  1
  Mg  Mg43  1  0.45052200  0.58008200  0.52631600  1
  Mg  Mg44  1  0.64626400  0.82313200  0.56288200  1
  Mg  Mg45  1  0.35373600  0.42686800  0.46381600  1
  Mg  Mg46  1  0.35373600  0.17686800  0.47444800  1
  Mg  Mg47  1  0.50327700  0.02162100  0.52631600  1
  Mg  Mg48  1  0.69848900  0.57926200  0.46452900  1
  Mg  Mg49  1  0.69848900  0.07926200  0.46310200  1
  Mg  Mg50  1  0.35373600  0.92686800  0.46381600  1
  Mg  Mg51  1  0.06120800  0.53060400  0.48975000  1
  Mg  Mg52  1  0.85373600  0.67686800  0.52631600  1
  Mg  Mg53  1  0.64626400  0.32313200  0.61475000  1
  Mg  Mg54  1  0.00898300  0.77447400  0.58810200  1
  Mg  Mg55  1  0.20419500  0.83211500  0.65131600  1
  Mg  Mg56  1  0.25694900  0.27365400  0.65131600  1
  Mg  Mg57  1  0.35373600  0.17686800  0.57818400  1
  Mg  Mg58  1  0.06120800  0.03060400  0.68788200  1
  Mg  Mg59  1  0.00898300  0.27447400  0.58952900  1
  Mg  Mg60  1  0.45052200  0.08008200  0.65131600  1
  Mg  Mg61  1  0.64626400  0.32313200  0.68788200  1
  Mg  Mg62  1  0.35373600  0.92686800  0.58881600  1
  Mg  Mg63  1  0.35373600  0.67686800  0.59944800  1
  Mg  Mg64  1  0.50327700  0.52162100  0.65131600  1
  Mg  Mg65  1  0.69848900  0.07926200  0.58952900  1
  Mg  Mg66  1  0.69848900  0.57926200  0.58810200  1
  Mg  Mg67  1  0.35373600  0.42686800  0.58881600  1
  Mg  Mg68  1  0.06120800  0.03060400  0.61475000  1
  Mg  Mg69  1  0.85373600  0.17686800  0.65131600  1
  Mg  Mg70  1  0.64626400  0.82313200  0.73975000  1
  Mg  Mg71  1  0.00898300  0.27447400  0.71310200  1
  Mg  Mg72  1  0.20419500  0.33211500  0.77631600  1
  Mg  Mg73  1  0.25694900  0.77365400  0.77631600  1
  Mg  Mg74  1  0.35373600  0.67686800  0.70318400  1
  Mg  Mg75  1  0.06120800  0.53060400  0.81288200  1
  Mg  Mg76  1  0.00898300  0.77447400  0.71452900  1
  Mg  Mg77  1  0.45052200  0.58008200  0.77631600  1
  Mg  Mg78  1  0.64626400  0.82313200  0.81288200  1
  Mg  Mg79  1  0.35373600  0.42686800  0.71381600  1
  Mg  Mg80  1  0.35373600  0.17686800  0.72444800  1
  Mg  Mg81  1  0.50327700  0.02162100  0.77631600  1
  Mg  Mg82  1  0.69848900  0.57926200  0.71452900  1
  Mg  Mg83  1  0.69848900  0.07926200  0.71310200  1
  Mg  Mg84  1  0.35373600  0.92686800  0.71381600  1
  Mg  Mg85  1  0.06120800  0.53060400  0.73975000  1
  Mg  Mg86  1  0.85373600  0.67686800  0.77631600  1
