# generated using pymatgen
data_Mg40Zn67
_symmetry_space_group_name_H-M   'P 1'
_cell_length_a   5.07402260
_cell_length_b   13.26606241
_cell_length_c   57.00757700
_cell_angle_alpha   92.18610401
_cell_angle_beta   87.66012493
_cell_angle_gamma   100.62858194
_symmetry_Int_Tables_number   1
_chemical_formula_structural   Mg40Zn67
_chemical_formula_sum   'Mg40 Zn67'
_cell_volume   3766.49990850
_cell_formula_units_Z   1
loop_
 _symmetry_equiv_pos_site_id
 _symmetry_equiv_pos_as_xyz
  1  'x, y, z'
loop_
 _atom_site_type_symbol
 _atom_site_label
 _atom_site_symmetry_multiplicity
 _atom_site_fract_x
 _atom_site_fract_y
 _atom_site_fract_z
 _atom_site_occupancy
  Mg  Mg0  1  0.27164600  0.64485000  0.35677300  1
  Mg  Mg1  1  0.48114600  0.01167800  0.31017400  1
  Mg  Mg2  1  0.58307000  0.39250000  0.46989700  1
  Mg  Mg3  1  0.82154000  0.76556800  0.37092300  1
  Mg  Mg4  1  0.95417700  0.93958000  0.28235700  1
  Mg  Mg5  1  0.14705700  0.43553800  0.38883200  1
  Mg  Mg6  1  0.83756600  0.69519900  0.27595400  1
  Mg  Mg7  1  0.92006000  0.97603100  0.39271400  1
  Mg  Mg8  1  0.27425600  0.59511700  0.30086400  1
  Mg  Mg9  1  0.78742200  0.80202000  0.48127900  1
  Mg  Mg10  1  0.15853000  0.34910000  0.29373900  1
  Mg  Mg11  1  0.46734400  0.14648200  0.46277200  1
  Mg  Mg12  1  0.40277700  0.90818100  0.35804600  1
  Mg  Mg13  1  0.14910800  0.48960400  0.44461100  1
  Mg  Mg14  1  0.59249100  0.25199600  0.31902500  1
  Mg  Mg15  1  0.90403400  0.04640100  0.48768200  1
  Mg  Mg16  1  0.46995400  0.09674900  0.40686300  1
  Mg  Mg17  1  0.59454300  0.30606200  0.37480500  1
  Mg  Mg18  1  0.26045300  0.72992200  0.45346200  1
  Mg  Mg19  1  0.33882200  0.83341900  0.40559000  1
  Mg  Mg20  1  0.02164600  0.39485000  0.60677300  1
  Mg  Mg21  1  0.23114600  0.76167800  0.56017400  1
  Mg  Mg22  1  0.33307000  0.14250000  0.71989700  1
  Mg  Mg23  1  0.57154000  0.51556800  0.62092300  1
  Mg  Mg24  1  0.70417700  0.68958000  0.53235700  1
  Mg  Mg25  1  0.89705700  0.18553800  0.63883200  1
  Mg  Mg26  1  0.58756600  0.44519900  0.52595400  1
  Mg  Mg27  1  0.67006000  0.72603100  0.64271400  1
  Mg  Mg28  1  0.02425600  0.34511700  0.55086400  1
  Mg  Mg29  1  0.53742200  0.55202000  0.73127900  1
  Mg  Mg30  1  0.90853000  0.09910000  0.54373900  1
  Mg  Mg31  1  0.21734400  0.89648200  0.71277200  1
  Mg  Mg32  1  0.15277700  0.65818100  0.60804600  1
  Mg  Mg33  1  0.89910800  0.23960400  0.69461100  1
  Mg  Mg34  1  0.34249100  0.00199600  0.56902500  1
  Mg  Mg35  1  0.65403400  0.79640100  0.73768200  1
  Mg  Mg36  1  0.21995400  0.84674900  0.65686300  1
  Mg  Mg37  1  0.34454300  0.05606200  0.62480500  1
  Mg  Mg38  1  0.01045300  0.47992200  0.70346200  1
  Mg  Mg39  1  0.08882200  0.58341900  0.65559000  1
  Zn  Zn40  1  0.40143100  0.82193300  0.27989100  1
  Zn  Zn41  1  0.93506100  0.95221100  0.33616500  1
  Zn  Zn42  1  0.70836800  0.46867500  0.29753100  1
  Zn  Zn43  1  0.13169600  0.95345400  0.44389600  1
  Zn  Zn44  1  0.82073400  0.15517400  0.27600900  1
  Zn  Zn45  1  0.11581500  0.79254300  0.31943500  1
  Zn  Zn46  1  0.34016800  0.91966700  0.48374600  1
  Zn  Zn47  1  0.09175100  0.28004100  0.34754500  1
  Zn  Zn48  1  0.42711500  0.58607700  0.48759900  1
  Zn  Zn49  1  0.93352600  0.44555400  0.33793700  1
  Zn  Zn50  1  0.71028200  0.53881300  0.37261700  1
  Zn  Zn51  1  0.08525500  0.41714200  0.49841800  1
  Zn  Zn52  1  0.70279500  0.61271300  0.44872400  1
  Zn  Zn53  1  0.80653800  0.78938900  0.42747100  1
  Zn  Zn54  1  0.64984900  0.46155900  0.41609200  1
  Zn  Zn55  1  0.48088100  0.63418200  0.40673200  1
  Zn  Zn56  1  0.31448400  0.15552300  0.27603700  1
  Zn  Zn57  1  0.62578400  0.94905600  0.44420100  1
  Zn  Zn58  1  0.65634500  0.32445800  0.26521800  1
  Zn  Zn59  1  0.26071900  0.10741800  0.35690400  1
  Zn  Zn60  1  0.92086500  0.58642600  0.48762700  1
  Zn  Zn61  1  0.77877800  0.62179100  0.32795300  1
  Zn  Zn62  1  0.42858000  0.44391800  0.33806900  1
  Zn  Zn63  1  0.99605600  0.63727800  0.40627800  1
  Zn  Zn64  1  0.96282100  0.11980900  0.43568400  1
  Zn  Zn65  1  0.74554400  0.10432200  0.35735900  1
  Zn  Zn66  1  0.03880500  0.12888700  0.31491200  1
  Zn  Zn67  1  0.31302000  0.29768200  0.42556800  1
  Zn  Zn68  1  0.60990400  0.78814600  0.31974100  1
  Zn  Zn69  1  0.80807300  0.29604500  0.42569900  1
  Zn  Zn70  1  0.03131800  0.20278700  0.39101900  1
  Zn  Zn71  1  0.03323100  0.27292400  0.46610500  1
  Zn  Zn72  1  0.15143100  0.57193300  0.52989100  1
  Zn  Zn73  1  0.68506100  0.70221100  0.58616500  1
  Zn  Zn74  1  0.45836800  0.21867500  0.54753100  1
  Zn  Zn75  1  0.88169600  0.70345400  0.69389600  1
  Zn  Zn76  1  0.57073400  0.90517400  0.52600900  1
  Zn  Zn77  1  0.86581500  0.54254300  0.56943500  1
  Zn  Zn78  1  0.74580000  0.24580000  0.50681800  1
  Zn  Zn79  1  0.09016800  0.66966700  0.73374600  1
  Zn  Zn80  1  0.84175100  0.03004100  0.59754500  1
  Zn  Zn81  1  0.17711500  0.33607700  0.73759900  1
  Zn  Zn82  1  0.68352600  0.19555400  0.58793700  1
  Zn  Zn83  1  0.46028200  0.28881300  0.62261700  1
  Zn  Zn84  1  0.83525500  0.16714200  0.74841800  1
  Zn  Zn85  1  0.45279500  0.36271300  0.69872400  1
  Zn  Zn86  1  0.55653800  0.53938900  0.67747100  1
  Zn  Zn87  1  0.39984900  0.21155900  0.66609200  1
  Zn  Zn88  1  0.23088100  0.38418200  0.65673200  1
  Zn  Zn89  1  0.06448400  0.90552300  0.52603700  1
  Zn  Zn90  1  0.37578400  0.69905600  0.69420100  1
  Zn  Zn91  1  0.40634500  0.07445800  0.51521800  1
  Zn  Zn92  1  0.01071900  0.85741800  0.60690400  1
  Zn  Zn93  1  0.67086500  0.33642600  0.73762700  1
  Zn  Zn94  1  0.24580000  0.24580000  0.50681800  1
  Zn  Zn95  1  0.52877800  0.37179100  0.57795300  1
  Zn  Zn96  1  0.17858000  0.19391800  0.58806900  1
  Zn  Zn97  1  0.74605600  0.38727800  0.65627800  1
  Zn  Zn98  1  0.71282100  0.86980900  0.68568400  1
  Zn  Zn99  1  0.49554400  0.85432200  0.60735900  1
  Zn  Zn100  1  0.78880500  0.87888700  0.56491200  1
  Zn  Zn101  1  0.06302000  0.04768200  0.67556800  1
  Zn  Zn102  1  0.35990400  0.53814600  0.56974100  1
  Zn  Zn103  1  0.24580000  0.74580000  0.50681800  1
  Zn  Zn104  1  0.55807300  0.04604500  0.67569900  1
  Zn  Zn105  1  0.78131800  0.95278700  0.64101900  1
  Zn  Zn106  1  0.78323100  0.02292400  0.71610500  1
