# generated using pymatgen
data_Mg61Si35
_symmetry_space_group_name_H-M   'P 1'
_cell_length_a   12.34156200
_cell_length_b   12.41651900
_cell_length_c   43.01208400
_cell_angle_alpha   90.00000000
_cell_angle_beta   90.00000000
_cell_angle_gamma   90.00000000
_symmetry_Int_Tables_number   1
_chemical_formula_structural   Mg61Si35
_chemical_formula_sum   'Mg122 Si70'
_cell_volume   6591.13902266
_cell_formula_units_Z   2
loop_
 _symmetry_equiv_pos_site_id
 _symmetry_equiv_pos_as_xyz
  1  'x, y, z'
loop_
 _atom_site_type_symbol
 _atom_site_label
 _atom_site_symmetry_multiplicity
 _atom_site_fract_x
 _atom_site_fract_y
 _atom_site_fract_z
 _atom_site_occupancy
  Mg  Mg0  1  0.91704200  0.52945400  0.27566300  1
  Mg  Mg1  1  0.41704200  0.18992100  0.23314100  1
  Mg  Mg2  1  0.91704200  0.27432200  0.27876300  1
  Mg  Mg3  1  0.41704200  0.93478900  0.23624100  1
  Mg  Mg4  1  0.08295800  0.93478900  0.23624100  1
  Mg  Mg5  1  0.58295800  0.27432200  0.27876300  1
  Mg  Mg6  1  0.08295800  0.18992100  0.23314100  1
  Mg  Mg7  1  0.58295800  0.52945400  0.27566300  1
  Mg  Mg8  1  0.25000000  0.55911800  0.27275100  1
  Mg  Mg9  1  0.75000000  0.19601500  0.22426900  1
  Mg  Mg10  1  0.75000000  0.59522400  0.22110100  1
  Mg  Mg11  1  0.25000000  0.86901900  0.29080400  1
  Mg  Mg12  1  0.25000000  0.26822800  0.28763600  1
  Mg  Mg13  1  0.75000000  0.90512500  0.23915400  1
  Mg  Mg14  1  0.91704200  0.02945400  0.35899700  1
  Mg  Mg15  1  0.41704200  0.68992100  0.31647500  1
  Mg  Mg16  1  0.41704200  0.07165500  0.29847500  1
  Mg  Mg17  1  0.91704200  0.89258800  0.29676400  1
  Mg  Mg18  1  0.91704200  0.77432200  0.36209700  1
  Mg  Mg19  1  0.41704200  0.43478900  0.31957500  1
  Mg  Mg20  1  0.08295800  0.43478900  0.31957500  1
  Mg  Mg21  1  0.58295800  0.77432200  0.36209700  1
  Mg  Mg22  1  0.58295800  0.89258800  0.29676400  1
  Mg  Mg23  1  0.08295800  0.07165500  0.29847500  1
  Mg  Mg24  1  0.08295800  0.68992100  0.31647500  1
  Mg  Mg25  1  0.58295800  0.02945400  0.35899700  1
  Mg  Mg26  1  0.25000000  0.05911800  0.35608400  1
  Mg  Mg27  1  0.75000000  0.69601500  0.30760300  1
  Mg  Mg28  1  0.75000000  0.09522400  0.30443400  1
  Mg  Mg29  1  0.25000000  0.36901900  0.37413700  1
  Mg  Mg30  1  0.25000000  0.76822800  0.37096900  1
  Mg  Mg31  1  0.75000000  0.40512500  0.32248700  1
  Mg  Mg32  1  0.91704200  0.52945400  0.44233000  1
  Mg  Mg33  1  0.41704200  0.18992100  0.39980800  1
  Mg  Mg34  1  0.41704200  0.57165500  0.38180800  1
  Mg  Mg35  1  0.91704200  0.39258800  0.38009700  1
  Mg  Mg36  1  0.91704200  0.27432200  0.44543000  1
  Mg  Mg37  1  0.41704200  0.93478900  0.40290800  1
  Mg  Mg38  1  0.08295800  0.93478900  0.40290800  1
  Mg  Mg39  1  0.58295800  0.27432200  0.44543000  1
  Mg  Mg40  1  0.58295800  0.39258800  0.38009700  1
  Mg  Mg41  1  0.08295800  0.57165500  0.38180800  1
  Mg  Mg42  1  0.08295800  0.18992100  0.39980800  1
  Mg  Mg43  1  0.58295800  0.52945400  0.44233000  1
  Mg  Mg44  1  0.25000000  0.55911800  0.43941800  1
  Mg  Mg45  1  0.75000000  0.19601500  0.39093600  1
  Mg  Mg46  1  0.75000000  0.59522400  0.38776700  1
  Mg  Mg47  1  0.25000000  0.86901900  0.45747100  1
  Mg  Mg48  1  0.25000000  0.26822800  0.45430200  1
  Mg  Mg49  1  0.75000000  0.90512500  0.40582100  1
  Mg  Mg50  1  0.91704200  0.02945400  0.52566300  1
  Mg  Mg51  1  0.41704200  0.68992100  0.48314100  1
  Mg  Mg52  1  0.41704200  0.07165500  0.46514100  1
  Mg  Mg53  1  0.91704200  0.89258800  0.46343000  1
  Mg  Mg54  1  0.91704200  0.77432200  0.52876300  1
  Mg  Mg55  1  0.41704200  0.43478900  0.48624100  1
  Mg  Mg56  1  0.08295800  0.43478900  0.48624100  1
  Mg  Mg57  1  0.58295800  0.77432200  0.52876300  1
  Mg  Mg58  1  0.58295800  0.89258800  0.46343000  1
  Mg  Mg59  1  0.08295800  0.07165500  0.46514100  1
  Mg  Mg60  1  0.08295800  0.68992100  0.48314100  1
  Mg  Mg61  1  0.58295800  0.02945400  0.52566300  1
  Mg  Mg62  1  0.25000000  0.05911800  0.52275100  1
  Mg  Mg63  1  0.75000000  0.69601500  0.47426900  1
  Mg  Mg64  1  0.75000000  0.09522400  0.47110100  1
  Mg  Mg65  1  0.25000000  0.36901900  0.54080400  1
  Mg  Mg66  1  0.25000000  0.76822800  0.53763600  1
  Mg  Mg67  1  0.75000000  0.40512500  0.48915400  1
  Mg  Mg68  1  0.91704200  0.52945400  0.60899700  1
  Mg  Mg69  1  0.41704200  0.18992100  0.56647500  1
  Mg  Mg70  1  0.41704200  0.57165500  0.54847500  1
  Mg  Mg71  1  0.91704200  0.39258800  0.54676400  1
  Mg  Mg72  1  0.91704200  0.27432200  0.61209700  1
  Mg  Mg73  1  0.41704200  0.93478900  0.56957500  1
  Mg  Mg74  1  0.08295800  0.93478900  0.56957500  1
  Mg  Mg75  1  0.58295800  0.27432200  0.61209700  1
  Mg  Mg76  1  0.58295800  0.39258800  0.54676400  1
  Mg  Mg77  1  0.08295800  0.57165500  0.54847500  1
  Mg  Mg78  1  0.08295800  0.18992100  0.56647500  1
  Mg  Mg79  1  0.58295800  0.52945400  0.60899700  1
  Mg  Mg80  1  0.25000000  0.55911800  0.60608400  1
  Mg  Mg81  1  0.75000000  0.19601500  0.55760300  1
  Mg  Mg82  1  0.75000000  0.59522400  0.55443400  1
  Mg  Mg83  1  0.25000000  0.86901900  0.62413700  1
  Mg  Mg84  1  0.25000000  0.26822800  0.62096900  1
  Mg  Mg85  1  0.75000000  0.90512500  0.57248700  1
  Mg  Mg86  1  0.91704200  0.02945400  0.69233000  1
  Mg  Mg87  1  0.41704200  0.68992100  0.64980800  1
  Mg  Mg88  1  0.41704200  0.07165500  0.63180800  1
  Mg  Mg89  1  0.91704200  0.89258800  0.63009700  1
  Mg  Mg90  1  0.91704200  0.77432200  0.69543000  1
  Mg  Mg91  1  0.41704200  0.43478900  0.65290800  1
  Mg  Mg92  1  0.08295800  0.43478900  0.65290800  1
  Mg  Mg93  1  0.58295800  0.77432200  0.69543000  1
  Mg  Mg94  1  0.58295800  0.89258800  0.63009700  1
  Mg  Mg95  1  0.08295800  0.07165500  0.63180800  1
  Mg  Mg96  1  0.08295800  0.68992100  0.64980800  1
  Mg  Mg97  1  0.58295800  0.02945400  0.69233000  1
  Mg  Mg98  1  0.25000000  0.05911800  0.68941800  1
  Mg  Mg99  1  0.75000000  0.69601500  0.64093600  1
  Mg  Mg100  1  0.75000000  0.09522400  0.63776700  1
  Mg  Mg101  1  0.25000000  0.36901900  0.70747100  1
  Mg  Mg102  1  0.25000000  0.76822800  0.70430200  1
  Mg  Mg103  1  0.75000000  0.40512500  0.65582100  1
  Mg  Mg104  1  0.91704200  0.52945400  0.77566300  1
  Mg  Mg105  1  0.41704200  0.18992100  0.73314100  1
  Mg  Mg106  1  0.41704200  0.57165500  0.71514100  1
  Mg  Mg107  1  0.91704200  0.39258800  0.71343000  1
  Mg  Mg108  1  0.91704200  0.27432200  0.77876300  1
  Mg  Mg109  1  0.41704200  0.93478900  0.73624100  1
  Mg  Mg110  1  0.08295800  0.93478900  0.73624100  1
  Mg  Mg111  1  0.58295800  0.27432200  0.77876300  1
  Mg  Mg112  1  0.58295800  0.39258800  0.71343000  1
  Mg  Mg113  1  0.08295800  0.57165500  0.71514100  1
  Mg  Mg114  1  0.08295800  0.18992100  0.73314100  1
  Mg  Mg115  1  0.58295800  0.52945400  0.77566300  1
  Mg  Mg116  1  0.25000000  0.55911800  0.77275100  1
  Mg  Mg117  1  0.75000000  0.19601500  0.72426900  1
  Mg  Mg118  1  0.75000000  0.59522400  0.72110100  1
  Mg  Mg119  1  0.25000000  0.86901900  0.79080400  1
  Mg  Mg120  1  0.25000000  0.26822800  0.78763600  1
  Mg  Mg121  1  0.75000000  0.90512500  0.73915400  1
  Si  Si122  1  0.10025900  0.73212100  0.25595200  1
  Si  Si123  1  0.60025900  0.73212100  0.25595200  1
  Si  Si124  1  0.89974100  0.73212100  0.25595200  1
  Si  Si125  1  0.39974100  0.73212100  0.25595200  1
  Si  Si126  1  0.25000000  0.06545500  0.25595200  1
  Si  Si127  1  0.75000000  0.39878800  0.25595200  1
  Si  Si128  1  0.41253500  0.39878800  0.25595200  1
  Si  Si129  1  0.91253500  0.06545500  0.25595200  1
  Si  Si130  1  0.58746500  0.06545500  0.25595200  1
  Si  Si131  1  0.08746500  0.39878800  0.25595200  1
  Si  Si132  1  0.10025900  0.23212100  0.33928600  1
  Si  Si133  1  0.60025900  0.23212100  0.33928600  1
  Si  Si134  1  0.89974100  0.23212100  0.33928600  1
  Si  Si135  1  0.39974100  0.23212100  0.33928600  1
  Si  Si136  1  0.25000000  0.56545500  0.33928600  1
  Si  Si137  1  0.75000000  0.89878800  0.33928600  1
  Si  Si138  1  0.41253500  0.89878800  0.33928600  1
  Si  Si139  1  0.91253500  0.56545500  0.33928600  1
  Si  Si140  1  0.58746500  0.56545500  0.33928600  1
  Si  Si141  1  0.08746500  0.89878800  0.33928600  1
  Si  Si142  1  0.10025900  0.73212100  0.42261900  1
  Si  Si143  1  0.60025900  0.73212100  0.42261900  1
  Si  Si144  1  0.89974100  0.73212100  0.42261900  1
  Si  Si145  1  0.39974100  0.73212100  0.42261900  1
  Si  Si146  1  0.25000000  0.06545500  0.42261900  1
  Si  Si147  1  0.75000000  0.39878800  0.42261900  1
  Si  Si148  1  0.41253500  0.39878800  0.42261900  1
  Si  Si149  1  0.91253500  0.06545500  0.42261900  1
  Si  Si150  1  0.58746500  0.06545500  0.42261900  1
  Si  Si151  1  0.08746500  0.39878800  0.42261900  1
  Si  Si152  1  0.10025900  0.23212100  0.50595200  1
  Si  Si153  1  0.60025900  0.23212100  0.50595200  1
  Si  Si154  1  0.89974100  0.23212100  0.50595200  1
  Si  Si155  1  0.39974100  0.23212100  0.50595200  1
  Si  Si156  1  0.25000000  0.56545500  0.50595200  1
  Si  Si157  1  0.75000000  0.89878800  0.50595200  1
  Si  Si158  1  0.41253500  0.89878800  0.50595200  1
  Si  Si159  1  0.91253500  0.56545500  0.50595200  1
  Si  Si160  1  0.58746500  0.56545500  0.50595200  1
  Si  Si161  1  0.08746500  0.89878800  0.50595200  1
  Si  Si162  1  0.10025900  0.73212100  0.58928600  1
  Si  Si163  1  0.60025900  0.73212100  0.58928600  1
  Si  Si164  1  0.89974100  0.73212100  0.58928600  1
  Si  Si165  1  0.39974100  0.73212100  0.58928600  1
  Si  Si166  1  0.25000000  0.06545500  0.58928600  1
  Si  Si167  1  0.75000000  0.39878800  0.58928600  1
  Si  Si168  1  0.41253500  0.39878800  0.58928600  1
  Si  Si169  1  0.91253500  0.06545500  0.58928600  1
  Si  Si170  1  0.58746500  0.06545500  0.58928600  1
  Si  Si171  1  0.08746500  0.39878800  0.58928600  1
  Si  Si172  1  0.10025900  0.23212100  0.67261900  1
  Si  Si173  1  0.60025900  0.23212100  0.67261900  1
  Si  Si174  1  0.89974100  0.23212100  0.67261900  1
  Si  Si175  1  0.39974100  0.23212100  0.67261900  1
  Si  Si176  1  0.25000000  0.56545500  0.67261900  1
  Si  Si177  1  0.75000000  0.89878800  0.67261900  1
  Si  Si178  1  0.41253500  0.89878800  0.67261900  1
  Si  Si179  1  0.91253500  0.56545500  0.67261900  1
  Si  Si180  1  0.58746500  0.56545500  0.67261900  1
  Si  Si181  1  0.08746500  0.89878800  0.67261900  1
  Si  Si182  1  0.10025900  0.73212100  0.75595200  1
  Si  Si183  1  0.60025900  0.73212100  0.75595200  1
  Si  Si184  1  0.89974100  0.73212100  0.75595200  1
  Si  Si185  1  0.39974100  0.73212100  0.75595200  1
  Si  Si186  1  0.25000000  0.06545500  0.75595200  1
  Si  Si187  1  0.75000000  0.39878800  0.75595200  1
  Si  Si188  1  0.41253500  0.39878800  0.75595200  1
  Si  Si189  1  0.91253500  0.06545500  0.75595200  1
  Si  Si190  1  0.58746500  0.06545500  0.75595200  1
  Si  Si191  1  0.08746500  0.39878800  0.75595200  1
