# generated using pymatgen
data_Mg23Sc12
_symmetry_space_group_name_H-M   'P 1'
_cell_length_a   3.25178700
_cell_length_b   17.39149928
_cell_length_c   49.72144200
_cell_angle_alpha   92.07066956
_cell_angle_beta   90.00000000
_cell_angle_gamma   90.00000000
_symmetry_Int_Tables_number   1
_chemical_formula_structural   Mg23Sc12
_chemical_formula_sum   'Mg46 Sc24'
_cell_volume   2810.08302364
_cell_formula_units_Z   2
loop_
 _symmetry_equiv_pos_site_id
 _symmetry_equiv_pos_as_xyz
  1  'x, y, z'
loop_
 _atom_site_type_symbol
 _atom_site_label
 _atom_site_symmetry_multiplicity
 _atom_site_fract_x
 _atom_site_fract_y
 _atom_site_fract_z
 _atom_site_occupancy
  Mg  Mg0  1  0.00000000  0.96779700  0.27765200  1
  Mg  Mg1  1  0.50000000  0.81780000  0.29431900  1
  Mg  Mg2  1  0.50000000  0.66553700  0.25568100  1
  Mg  Mg3  1  0.00000000  0.81553400  0.23901500  1
  Mg  Mg4  1  0.50000000  0.41779700  0.22765200  1
  Mg  Mg5  1  0.00000000  0.26780000  0.24431900  1
  Mg  Mg6  1  0.00000000  0.11553700  0.20568100  1
  Mg  Mg7  1  0.50000000  0.36553400  0.28901500  1
  Mg  Mg8  1  0.00000000  0.06779700  0.37765200  1
  Mg  Mg9  1  0.50000000  0.91780000  0.39431900  1
  Mg  Mg10  1  0.50000000  0.76553700  0.35568100  1
  Mg  Mg11  1  1.00000000  0.91553400  0.33901500  1
  Mg  Mg12  1  0.50000000  0.51779700  0.32765200  1
  Mg  Mg13  1  0.00000000  0.36780000  0.34431900  1
  Mg  Mg14  1  0.00000000  0.21553700  0.30568100  1
  Mg  Mg15  1  0.50000000  0.46553400  0.38901500  1
  Mg  Mg16  1  0.00000000  0.16779700  0.47765200  1
  Mg  Mg17  1  0.50000000  0.01780000  0.49431900  1
  Mg  Mg18  1  0.50000000  0.86553700  0.45568100  1
  Mg  Mg19  1  0.00000000  0.01553400  0.43901500  1
  Mg  Mg20  1  0.50000000  0.61779700  0.42765200  1
  Mg  Mg21  1  0.00000000  0.46780000  0.44431900  1
  Mg  Mg22  1  0.00000000  0.31553700  0.40568100  1
  Mg  Mg23  1  0.50000000  0.56553400  0.48901500  1
  Mg  Mg24  1  0.00000000  0.26779700  0.57765200  1
  Mg  Mg25  1  0.50000000  0.11780000  0.59431900  1
  Mg  Mg26  1  0.50000000  0.96553700  0.55568100  1
  Mg  Mg27  1  1.00000000  0.11553400  0.53901500  1
  Mg  Mg28  1  0.50000000  0.71779700  0.52765200  1
  Mg  Mg29  1  0.00000000  0.56780000  0.54431900  1
  Mg  Mg30  1  0.00000000  0.41553700  0.50568100  1
  Mg  Mg31  1  0.50000000  0.66553400  0.58901500  1
  Mg  Mg32  1  0.00000000  0.36779700  0.67765200  1
  Mg  Mg33  1  0.50000000  0.21780000  0.69431900  1
  Mg  Mg34  1  0.50000000  0.06553700  0.65568100  1
  Mg  Mg35  1  0.00000000  0.21553400  0.63901500  1
  Mg  Mg36  1  0.50000000  0.81779700  0.62765200  1
  Mg  Mg37  1  1.00000000  0.66780000  0.64431900  1
  Mg  Mg38  1  0.00000000  0.51553700  0.60568100  1
  Mg  Mg39  1  0.50000000  0.76553400  0.68901500  1
  Mg  Mg40  1  0.00000000  0.46779700  0.77765200  1
  Mg  Mg41  1  0.50000000  0.16553700  0.75568100  1
  Mg  Mg42  1  0.00000000  0.31553400  0.73901500  1
  Mg  Mg43  1  0.50000000  0.91779700  0.72765200  1
  Mg  Mg44  1  0.00000000  0.76780000  0.74431900  1
  Mg  Mg45  1  1.00000000  0.61553700  0.70568100  1
  Sc  Sc46  1  0.00000000  0.56767700  0.21099900  1
  Sc  Sc47  1  0.50000000  0.96565600  0.22233500  1
  Sc  Sc48  1  0.50000000  0.11767700  0.26099900  1
  Sc  Sc49  1  0.00000000  0.51565600  0.27233500  1
  Sc  Sc50  1  0.00000000  0.66767700  0.31099900  1
  Sc  Sc51  1  0.50000000  0.06565600  0.32233500  1
  Sc  Sc52  1  0.50000000  0.21767700  0.36099900  1
  Sc  Sc53  1  0.00000000  0.61565600  0.37233500  1
  Sc  Sc54  1  0.00000000  0.76767700  0.41099900  1
  Sc  Sc55  1  0.50000000  0.16565600  0.42233500  1
  Sc  Sc56  1  0.50000000  0.31767700  0.46099900  1
  Sc  Sc57  1  0.00000000  0.71565600  0.47233500  1
  Sc  Sc58  1  0.00000000  0.86767700  0.51099900  1
  Sc  Sc59  1  0.50000000  0.26565600  0.52233500  1
  Sc  Sc60  1  0.50000000  0.41767700  0.56099900  1
  Sc  Sc61  1  0.00000000  0.81565600  0.57233500  1
  Sc  Sc62  1  0.00000000  0.96767700  0.61099900  1
  Sc  Sc63  1  0.50000000  0.36565600  0.62233500  1
  Sc  Sc64  1  0.50000000  0.51767700  0.66099900  1
  Sc  Sc65  1  0.00000000  0.91565600  0.67233500  1
  Sc  Sc66  1  0.00000000  0.06767700  0.71099900  1
  Sc  Sc67  1  0.50000000  0.46565600  0.72233500  1
  Sc  Sc68  1  0.50000000  0.61767700  0.76099900  1
  Sc  Sc69  1  0.00000000  0.01565600  0.77233500  1
