# generated using pymatgen
data_La2Mg
_symmetry_space_group_name_H-M   'P 1'
_cell_length_a   4.00438089
_cell_length_b   8.79796725
_cell_length_c   46.03071300
_cell_angle_alpha   86.45548874
_cell_angle_beta   87.50702690
_cell_angle_gamma   76.84570099
_symmetry_Int_Tables_number   1
_chemical_formula_structural   La2Mg
_chemical_formula_sum   'La20 Mg10'
_cell_volume   1575.38586782
_cell_formula_units_Z   10
loop_
 _symmetry_equiv_pos_site_id
 _symmetry_equiv_pos_as_xyz
  1  'x, y, z'
loop_
 _atom_site_type_symbol
 _atom_site_label
 _atom_site_symmetry_multiplicity
 _atom_site_fract_x
 _atom_site_fract_y
 _atom_site_fract_z
 _atom_site_occupancy
  La  La0  1  0.12167900  0.03541900  0.72122300  1
  La  La1  1  0.44572000  0.39228300  0.71627700  1
  La  La2  1  0.93417900  0.34791900  0.78372300  1
  La  La3  1  0.25822000  0.70478300  0.77877700  1
  La  La4  1  0.49667900  0.41041900  0.59622300  1
  La  La5  1  0.82072000  0.76728300  0.59127700  1
  La  La6  1  0.30917900  0.72291900  0.65872300  1
  La  La7  1  0.63322000  0.07978300  0.65377700  1
  La  La8  1  0.87167900  0.78541900  0.47122300  1
  La  La9  1  0.19572000  0.14228300  0.46627700  1
  La  La10  1  0.68417900  0.09791900  0.53372300  1
  La  La11  1  0.00822000  0.45478300  0.52877700  1
  La  La12  1  0.24667900  0.16041900  0.34622300  1
  La  La13  1  0.57072000  0.51728300  0.34127700  1
  La  La14  1  0.05917900  0.47291900  0.40872300  1
  La  La15  1  0.38322000  0.82978300  0.40377700  1
  La  La16  1  0.62167900  0.53541900  0.22122300  1
  La  La17  1  0.94572000  0.89228300  0.21627700  1
  La  La18  1  0.43417900  0.84791900  0.28372300  1
  La  La19  1  0.75822000  0.20478300  0.27877700  1
  Mg  Mg20  1  0.78370000  0.71385100  0.71875000  1
  Mg  Mg21  1  0.59620000  0.02635100  0.78125000  1
  Mg  Mg22  1  0.15870000  0.08885100  0.59375000  1
  Mg  Mg23  1  0.97120000  0.40135100  0.65625000  1
  Mg  Mg24  1  0.53370000  0.46385100  0.46875000  1
  Mg  Mg25  1  0.34620000  0.77635100  0.53125000  1
  Mg  Mg26  1  0.90870000  0.83885100  0.34375000  1
  Mg  Mg27  1  0.72120000  0.15135100  0.40625000  1
  Mg  Mg28  1  0.28370000  0.21385100  0.21875000  1
  Mg  Mg29  1  0.09620000  0.52635100  0.28125000  1
