# generated using pymatgen
data_Ce19Mg9
_symmetry_space_group_name_H-M   'P 1'
_cell_length_a   6.12314821
_cell_length_b   9.39222206
_cell_length_c   42.96888300
_cell_angle_alpha   94.02189718
_cell_angle_beta   91.04336207
_cell_angle_gamma   94.98002187
_symmetry_Int_Tables_number   1
_chemical_formula_structural   Ce19Mg9
_chemical_formula_sum   'Ce38 Mg18'
_cell_volume   2455.01380564
_cell_formula_units_Z   2
loop_
 _symmetry_equiv_pos_site_id
 _symmetry_equiv_pos_as_xyz
  1  'x, y, z'
loop_
 _atom_site_type_symbol
 _atom_site_label
 _atom_site_symmetry_multiplicity
 _atom_site_fract_x
 _atom_site_fract_y
 _atom_site_fract_z
 _atom_site_occupancy
  Ce  Ce0  1  0.01110100  0.50664200  0.24709800  1
  Ce  Ce1  1  0.57121500  0.97252500  0.23206900  1
  Ce  Ce2  1  0.76110100  0.56914200  0.30959800  1
  Ce  Ce3  1  0.92789200  0.86177000  0.26790000  1
  Ce  Ce4  1  0.40442400  0.67989700  0.27376700  1
  Ce  Ce5  1  0.32121500  0.03502500  0.29456900  1
  Ce  Ce6  1  0.51110100  0.63164200  0.37209800  1
  Ce  Ce7  1  0.67789200  0.92427000  0.33040000  1
  Ce  Ce8  1  0.15442400  0.74239700  0.33626700  1
  Ce  Ce9  1  0.07121500  0.09752500  0.35706900  1
  Ce  Ce10  1  0.26110100  0.69414200  0.43459800  1
  Ce  Ce11  1  0.42789200  0.98677000  0.39290000  1
  Ce  Ce12  1  0.90442400  0.80489700  0.39876700  1
  Ce  Ce13  1  0.82121500  0.16002500  0.41956900  1
  Ce  Ce14  1  0.01110100  0.75664200  0.49709800  1
  Ce  Ce15  1  0.17789200  0.04927000  0.45540000  1
  Ce  Ce16  1  0.65442400  0.86739700  0.46126700  1
  Ce  Ce17  1  0.57121500  0.22252500  0.48206900  1
  Ce  Ce18  1  0.76110100  0.81914200  0.55959800  1
  Ce  Ce19  1  0.92789200  0.11177000  0.51790000  1
  Ce  Ce20  1  0.40442400  0.92989700  0.52376700  1
  Ce  Ce21  1  0.32121500  0.28502500  0.54456900  1
  Ce  Ce22  1  0.51110100  0.88164200  0.62209800  1
  Ce  Ce23  1  0.67789200  0.17427000  0.58040000  1
  Ce  Ce24  1  0.15442400  0.99239700  0.58626700  1
  Ce  Ce25  1  0.07121500  0.34752500  0.60706900  1
  Ce  Ce26  1  0.26110100  0.94414200  0.68459800  1
  Ce  Ce27  1  0.42789200  0.23677000  0.64290000  1
  Ce  Ce28  1  0.90442400  0.05489700  0.64876700  1
  Ce  Ce29  1  0.82121500  0.41002500  0.66956900  1
  Ce  Ce30  1  0.01110100  0.00664200  0.74709800  1
  Ce  Ce31  1  0.17789200  0.29927000  0.70540000  1
  Ce  Ce32  1  0.65442400  0.11739700  0.71126700  1
  Ce  Ce33  1  0.57121500  0.47252500  0.73206900  1
  Ce  Ce34  1  0.76110100  0.06914200  0.80959800  1
  Ce  Ce35  1  0.92789200  0.36177000  0.76790000  1
  Ce  Ce36  1  0.40442400  0.17989700  0.77376700  1
  Ce  Ce37  1  0.32121500  0.53502500  0.79456900  1
  Mg  Mg38  1  0.84341700  0.20709300  0.28901900  1
  Mg  Mg39  1  0.48889900  0.33457400  0.25264800  1
  Mg  Mg40  1  0.59341700  0.26959300  0.35151900  1
  Mg  Mg41  1  0.23889900  0.39707400  0.31514800  1
  Mg  Mg42  1  0.34341700  0.33209300  0.41401900  1
  Mg  Mg43  1  0.98889900  0.45957400  0.37764800  1
  Mg  Mg44  1  0.09341700  0.39459300  0.47651900  1
  Mg  Mg45  1  0.73889900  0.52207400  0.44014800  1
  Mg  Mg46  1  0.84341700  0.45709300  0.53901900  1
  Mg  Mg47  1  0.48889900  0.58457400  0.50264800  1
  Mg  Mg48  1  0.59341700  0.51959300  0.60151900  1
  Mg  Mg49  1  0.23889900  0.64707400  0.56514800  1
  Mg  Mg50  1  0.34341700  0.58209300  0.66401900  1
  Mg  Mg51  1  0.98889900  0.70957400  0.62764800  1
  Mg  Mg52  1  0.09341700  0.64459300  0.72651900  1
  Mg  Mg53  1  0.73889900  0.77207400  0.69014800  1
  Mg  Mg54  1  0.84341700  0.70709300  0.78901900  1
  Mg  Mg55  1  0.48889900  0.83457400  0.75264800  1
