# generated using pymatgen
data_Mg2Cd
_symmetry_space_group_name_H-M   'P 1'
_cell_length_a   5.19055600
_cell_length_b   8.21260619
_cell_length_c   43.56977800
_cell_angle_alpha   89.52418583
_cell_angle_beta   90.00000000
_cell_angle_gamma   90.00000000
_symmetry_Int_Tables_number   1
_chemical_formula_structural   Mg2Cd
_chemical_formula_sum   'Mg36 Cd18'
_cell_volume   1857.22811882
_cell_formula_units_Z   18
loop_
 _symmetry_equiv_pos_site_id
 _symmetry_equiv_pos_as_xyz
  1  'x, y, z'
loop_
 _atom_site_type_symbol
 _atom_site_label
 _atom_site_symmetry_multiplicity
 _atom_site_fract_x
 _atom_site_fract_y
 _atom_site_fract_z
 _atom_site_occupancy
  Mg  Mg0  1  0.25000000  0.03523800  0.78970000  1
  Mg  Mg1  1  0.25000000  0.67297300  0.76608000  1
  Mg  Mg2  1  0.75000000  0.61274100  0.80534800  1
  Mg  Mg3  1  0.75000000  0.25047700  0.78172800  1
  Mg  Mg4  1  0.25000000  0.96380900  0.71827200  1
  Mg  Mg5  1  0.25000000  0.60154400  0.69465200  1
  Mg  Mg6  1  0.75000000  0.54131300  0.73392000  1
  Mg  Mg7  1  0.75000000  0.17904800  0.71030000  1
  Mg  Mg8  1  0.25000000  0.89238100  0.64684300  1
  Mg  Mg9  1  0.25000000  0.53011600  0.62322300  1
  Mg  Mg10  1  0.75000000  0.46988400  0.66249100  1
  Mg  Mg11  1  0.75000000  0.10761900  0.63887100  1
  Mg  Mg12  1  0.25000000  0.82095200  0.57541400  1
  Mg  Mg13  1  0.25000000  0.45868700  0.55179500  1
  Mg  Mg14  1  0.75000000  0.39845600  0.59106200  1
  Mg  Mg15  1  0.75000000  0.03619100  0.56744300  1
  Mg  Mg16  1  0.25000000  0.74952300  0.50398600  1
  Mg  Mg17  1  0.25000000  0.38725900  0.48036600  1
  Mg  Mg18  1  0.75000000  0.32702700  0.51963400  1
  Mg  Mg19  1  0.75000000  0.96476200  0.49601400  1
  Mg  Mg20  1  0.25000000  0.67809500  0.43255700  1
  Mg  Mg21  1  0.25000000  0.31583000  0.40893800  1
  Mg  Mg22  1  0.75000000  0.25559900  0.44820500  1
  Mg  Mg23  1  0.75000000  0.89333400  0.42458600  1
  Mg  Mg24  1  0.25000000  0.60666600  0.36112900  1
  Mg  Mg25  1  0.25000000  0.24440100  0.33750900  1
  Mg  Mg26  1  0.75000000  0.18417000  0.37677700  1
  Mg  Mg27  1  0.75000000  0.82190500  0.35315700  1
  Mg  Mg28  1  0.25000000  0.53523800  0.28970000  1
  Mg  Mg29  1  0.25000000  0.17297300  0.26608000  1
  Mg  Mg30  1  0.75000000  0.11274100  0.30534800  1
  Mg  Mg31  1  0.75000000  0.75047700  0.28172800  1
  Mg  Mg32  1  0.25000000  0.46380900  0.21827200  1
  Mg  Mg33  1  0.25000000  0.10154400  0.19465200  1
  Mg  Mg34  1  0.75000000  0.04131300  0.23392000  1
  Mg  Mg35  1  0.75000000  0.67904800  0.21030000  1
  Cd  Cd36  1  0.25000000  0.39419300  0.81344300  1
  Cd  Cd37  1  0.75000000  0.89152200  0.75798600  1
  Cd  Cd38  1  0.25000000  0.32276400  0.74201400  1
  Cd  Cd39  1  0.75000000  0.82009300  0.68655700  1
  Cd  Cd40  1  0.25000000  0.25133600  0.67058500  1
  Cd  Cd41  1  0.75000000  0.74866400  0.61512900  1
  Cd  Cd42  1  0.25000000  0.17990700  0.59915700  1
  Cd  Cd43  1  0.75000000  0.67723600  0.54370000  1
  Cd  Cd44  1  0.25000000  0.10847800  0.52772800  1
  Cd  Cd45  1  0.75000000  0.60580700  0.47227200  1
  Cd  Cd46  1  0.25000000  0.03705000  0.45630000  1
  Cd  Cd47  1  0.75000000  0.53437900  0.40084300  1
  Cd  Cd48  1  0.25000000  0.96562100  0.38487100  1
  Cd  Cd49  1  0.75000000  0.46295000  0.32941500  1
  Cd  Cd50  1  0.25000000  0.89419300  0.31344300  1
  Cd  Cd51  1  0.75000000  0.39152200  0.25798600  1
  Cd  Cd52  1  0.25000000  0.82276400  0.24201400  1
  Cd  Cd53  1  0.75000000  0.32009300  0.18655700  1
