# generated using pymatgen
data_Yb5Mg11
_symmetry_space_group_name_H-M   'P 1'
_cell_length_a   6.19371500
_cell_length_b   6.19371500
_cell_length_c   43.79617700
_cell_angle_alpha   90.00000000
_cell_angle_beta   90.00000000
_cell_angle_gamma   90.00000000
_symmetry_Int_Tables_number   1
_chemical_formula_structural   Yb5Mg11
_chemical_formula_sum   'Yb10 Mg22'
_cell_volume   1680.11356262
_cell_formula_units_Z   2
loop_
 _symmetry_equiv_pos_site_id
 _symmetry_equiv_pos_as_xyz
  1  'x, y, z'
loop_
 _atom_site_type_symbol
 _atom_site_label
 _atom_site_symmetry_multiplicity
 _atom_site_fract_x
 _atom_site_fract_y
 _atom_site_fract_z
 _atom_site_occupancy
  Yb  Yb0  1  0.00000000  0.50000000  0.75833300  1
  Yb  Yb1  1  0.00000000  0.00000000  0.70833300  1
  Yb  Yb2  1  0.50000000  0.00000000  0.65833300  1
  Yb  Yb3  1  0.50000000  0.50000000  0.60833300  1
  Yb  Yb4  1  0.00000000  0.50000000  0.55833300  1
  Yb  Yb5  1  0.00000000  0.00000000  0.50833300  1
  Yb  Yb6  1  0.50000000  0.00000000  0.45833300  1
  Yb  Yb7  1  0.50000000  0.50000000  0.40833300  1
  Yb  Yb8  1  0.00000000  0.50000000  0.35833300  1
  Yb  Yb9  1  0.00000000  0.00000000  0.30833300  1
  Mg  Mg10  1  0.50000000  0.75000000  0.73333300  1
  Mg  Mg11  1  0.75000000  0.00000000  0.78333300  1
  Mg  Mg12  1  0.50000000  0.25000000  0.73333300  1
  Mg  Mg13  1  0.25000000  0.00000000  0.78333300  1
  Mg  Mg14  1  0.00000000  0.25000000  0.63333300  1
  Mg  Mg15  1  0.25000000  0.50000000  0.68333300  1
  Mg  Mg16  1  0.00000000  0.75000000  0.63333300  1
  Mg  Mg17  1  0.75000000  0.50000000  0.68333300  1
  Mg  Mg18  1  0.50000000  0.75000000  0.53333300  1
  Mg  Mg19  1  0.75000000  0.00000000  0.58333300  1
  Mg  Mg20  1  0.50000000  0.25000000  0.53333300  1
  Mg  Mg21  1  0.25000000  0.00000000  0.58333300  1
  Mg  Mg22  1  0.00000000  0.25000000  0.43333300  1
  Mg  Mg23  1  0.25000000  0.50000000  0.48333300  1
  Mg  Mg24  1  0.00000000  0.75000000  0.43333300  1
  Mg  Mg25  1  0.75000000  0.50000000  0.48333300  1
  Mg  Mg26  1  0.50000000  0.75000000  0.33333300  1
  Mg  Mg27  1  0.75000000  0.00000000  0.38333300  1
  Mg  Mg28  1  0.50000000  0.25000000  0.33333300  1
  Mg  Mg29  1  0.25000000  0.00000000  0.38333300  1
  Mg  Mg30  1  0.25000000  0.50000000  0.28333300  1
  Mg  Mg31  1  0.75000000  0.50000000  0.28333300  1
