# generated using pymatgen
data_Mg10Ir21
_symmetry_space_group_name_H-M   'P 1'
_cell_length_a   5.21013600
_cell_length_b   8.45815400
_cell_length_c   45.12110200
_cell_angle_alpha   90.00000000
_cell_angle_beta   90.00000000
_cell_angle_gamma   90.00000000
_symmetry_Int_Tables_number   1
_chemical_formula_structural   Mg10Ir21
_chemical_formula_sum   'Mg20 Ir42'
_cell_volume   1988.40270820
_cell_formula_units_Z   2
loop_
 _symmetry_equiv_pos_site_id
 _symmetry_equiv_pos_as_xyz
  1  'x, y, z'
loop_
 _atom_site_type_symbol
 _atom_site_label
 _atom_site_symmetry_multiplicity
 _atom_site_fract_x
 _atom_site_fract_y
 _atom_site_fract_z
 _atom_site_occupancy
  Mg  Mg0  1  0.54294200  0.56903800  0.35833300  1
  Mg  Mg1  1  0.04294200  0.06903800  0.32500000  1
  Mg  Mg2  1  0.04294200  0.43096200  0.32500000  1
  Mg  Mg3  1  0.54294200  0.93096200  0.35833300  1
  Mg  Mg4  1  0.04294200  0.56903800  0.45833300  1
  Mg  Mg5  1  0.54294200  0.06903800  0.42500000  1
  Mg  Mg6  1  0.54294200  0.43096200  0.42500000  1
  Mg  Mg7  1  0.04294200  0.93096200  0.45833300  1
  Mg  Mg8  1  0.54294200  0.56903800  0.55833300  1
  Mg  Mg9  1  0.04294200  0.06903800  0.52500000  1
  Mg  Mg10  1  0.04294200  0.43096200  0.52500000  1
  Mg  Mg11  1  0.54294200  0.93096200  0.55833300  1
  Mg  Mg12  1  0.04294200  0.56903800  0.65833300  1
  Mg  Mg13  1  0.54294200  0.06903800  0.62500000  1
  Mg  Mg14  1  0.54294200  0.43096200  0.62500000  1
  Mg  Mg15  1  0.04294200  0.93096200  0.65833300  1
  Mg  Mg16  1  0.54294200  0.56903800  0.75833300  1
  Mg  Mg17  1  0.04294200  0.06903800  0.72500000  1
  Mg  Mg18  1  0.04294200  0.43096200  0.72500000  1
  Mg  Mg19  1  0.54294200  0.93096200  0.75833300  1
  Ir  Ir20  1  0.54294200  0.50000000  0.29166700  1
  Ir  Ir21  1  0.54294200  0.00000000  0.29166700  1
  Ir  Ir22  1  0.04294200  0.50000000  0.39166700  1
  Ir  Ir23  1  0.04294200  0.00000000  0.39166700  1
  Ir  Ir24  1  0.04294200  0.75000000  0.35731300  1
  Ir  Ir25  1  0.78529100  0.25000000  0.37449000  1
  Ir  Ir26  1  0.30059300  0.25000000  0.37449000  1
  Ir  Ir27  1  0.28529100  0.75000000  0.30884300  1
  Ir  Ir28  1  0.80059300  0.75000000  0.30884300  1
  Ir  Ir29  1  0.54294200  0.25000000  0.32602000  1
  Ir  Ir30  1  0.54294200  0.50000000  0.49166700  1
  Ir  Ir31  1  0.54294200  0.00000000  0.49166700  1
  Ir  Ir32  1  0.54294200  0.75000000  0.45731300  1
  Ir  Ir33  1  0.28529100  0.25000000  0.47449000  1
  Ir  Ir34  1  0.80059300  0.25000000  0.47449000  1
  Ir  Ir35  1  0.78529100  0.75000000  0.40884300  1
  Ir  Ir36  1  0.30059300  0.75000000  0.40884300  1
  Ir  Ir37  1  0.04294200  0.25000000  0.42602000  1
  Ir  Ir38  1  0.04294200  0.50000000  0.59166700  1
  Ir  Ir39  1  0.04294200  0.00000000  0.59166700  1
  Ir  Ir40  1  0.04294200  0.75000000  0.55731300  1
  Ir  Ir41  1  0.78529100  0.25000000  0.57449000  1
  Ir  Ir42  1  0.30059300  0.25000000  0.57449000  1
  Ir  Ir43  1  0.28529100  0.75000000  0.50884300  1
  Ir  Ir44  1  0.80059300  0.75000000  0.50884300  1
  Ir  Ir45  1  0.54294200  0.25000000  0.52602000  1
  Ir  Ir46  1  0.54294200  0.50000000  0.69166700  1
  Ir  Ir47  1  0.54294200  0.00000000  0.69166700  1
  Ir  Ir48  1  0.54294200  0.75000000  0.65731300  1
  Ir  Ir49  1  0.28529100  0.25000000  0.67449000  1
  Ir  Ir50  1  0.80059300  0.25000000  0.67449000  1
  Ir  Ir51  1  0.78529100  0.75000000  0.60884300  1
  Ir  Ir52  1  0.30059300  0.75000000  0.60884300  1
  Ir  Ir53  1  0.04294200  0.25000000  0.62602000  1
  Ir  Ir54  1  0.04294200  0.50000000  0.79166700  1
  Ir  Ir55  1  0.04294200  0.00000000  0.79166700  1
  Ir  Ir56  1  0.04294200  0.75000000  0.75731300  1
  Ir  Ir57  1  0.78529100  0.25000000  0.77449000  1
  Ir  Ir58  1  0.30059300  0.25000000  0.77449000  1
  Ir  Ir59  1  0.28529100  0.75000000  0.70884300  1
  Ir  Ir60  1  0.80059300  0.75000000  0.70884300  1
  Ir  Ir61  1  0.54294200  0.25000000  0.72602000  1
