# generated using pymatgen
data_Mg6Ag11
_symmetry_space_group_name_H-M   'P 1'
_cell_length_a   4.87780300
_cell_length_b   5.11669493
_cell_length_c   44.09373700
_cell_angle_alpha   90.48976460
_cell_angle_beta   90.00000000
_cell_angle_gamma   90.00000000
_symmetry_Int_Tables_number   1
_chemical_formula_structural   Mg6Ag11
_chemical_formula_sum   'Mg12 Ag22'
_cell_volume   1100.46141929
_cell_formula_units_Z   2
loop_
 _symmetry_equiv_pos_site_id
 _symmetry_equiv_pos_as_xyz
  1  'x, y, z'
loop_
 _atom_site_type_symbol
 _atom_site_label
 _atom_site_symmetry_multiplicity
 _atom_site_fract_x
 _atom_site_fract_y
 _atom_site_fract_z
 _atom_site_occupancy
  Mg  Mg0  1  0.75000000  0.37056300  0.71366300  1
  Mg  Mg1  1  0.25000000  0.56726400  0.75300300  1
  Mg  Mg2  1  0.75000000  0.87056300  0.61366300  1
  Mg  Mg3  1  0.25000000  0.06726400  0.65300300  1
  Mg  Mg4  1  0.75000000  0.37056300  0.51366300  1
  Mg  Mg5  1  0.25000000  0.56726400  0.55300300  1
  Mg  Mg6  1  0.75000000  0.87056300  0.41366300  1
  Mg  Mg7  1  0.25000000  0.06726400  0.45300300  1
  Mg  Mg8  1  0.75000000  0.37056300  0.31366300  1
  Mg  Mg9  1  0.25000000  0.56726400  0.35300300  1
  Mg  Mg10  1  0.75000000  0.87056300  0.21366300  1
  Mg  Mg11  1  0.25000000  0.06726400  0.25300300  1
  Ag  Ag12  1  0.75000000  0.87597800  0.74816000  1
  Ag  Ag13  1  0.25000000  0.06184900  0.71850600  1
  Ag  Ag14  1  0.25000000  0.56124200  0.68521300  1
  Ag  Ag15  1  0.75000000  0.37597800  0.64816000  1
  Ag  Ag16  1  0.75000000  0.87658500  0.68145300  1
  Ag  Ag17  1  0.25000000  0.56184900  0.61850600  1
  Ag  Ag18  1  0.25000000  0.06124200  0.58521300  1
  Ag  Ag19  1  0.75000000  0.87597800  0.54816000  1
  Ag  Ag20  1  0.75000000  0.37658500  0.58145300  1
  Ag  Ag21  1  0.25000000  0.06184900  0.51850600  1
  Ag  Ag22  1  0.25000000  0.56124200  0.48521300  1
  Ag  Ag23  1  0.75000000  0.37597800  0.44816000  1
  Ag  Ag24  1  0.75000000  0.87658500  0.48145300  1
  Ag  Ag25  1  0.25000000  0.56184900  0.41850600  1
  Ag  Ag26  1  0.25000000  0.06124200  0.38521300  1
  Ag  Ag27  1  0.75000000  0.87597800  0.34816000  1
  Ag  Ag28  1  0.75000000  0.37658500  0.38145300  1
  Ag  Ag29  1  0.25000000  0.06184900  0.31850600  1
  Ag  Ag30  1  0.25000000  0.56124200  0.28521300  1
  Ag  Ag31  1  0.75000000  0.37597800  0.24816000  1
  Ag  Ag32  1  0.75000000  0.87658500  0.28145300  1
  Ag  Ag33  1  0.25000000  0.56184900  0.21850600  1
