# generated using pymatgen
data_Ac2Mg
_symmetry_space_group_name_H-M   'P 1'
_cell_length_a   4.13946768
_cell_length_b   9.35354255
_cell_length_c   48.79401100
_cell_angle_alpha   88.87227713
_cell_angle_beta   87.56891124
_cell_angle_gamma   77.21588672
_symmetry_Int_Tables_number   1
_chemical_formula_structural   Ac2Mg
_chemical_formula_sum   'Ac20 Mg10'
_cell_volume   1840.64619680
_cell_formula_units_Z   10
loop_
 _symmetry_equiv_pos_site_id
 _symmetry_equiv_pos_as_xyz
  1  'x, y, z'
loop_
 _atom_site_type_symbol
 _atom_site_label
 _atom_site_symmetry_multiplicity
 _atom_site_fract_x
 _atom_site_fract_y
 _atom_site_fract_z
 _atom_site_occupancy
  Ac  Ac0  1  0.09612800  0.02356100  0.78418400  1
  Ac  Ac1  1  0.77919700  0.66328900  0.77831600  1
  Ac  Ac2  1  0.97112800  0.33606100  0.72168400  1
  Ac  Ac3  1  0.65419700  0.97578900  0.71581600  1
  Ac  Ac4  1  0.84612800  0.64856100  0.65918400  1
  Ac  Ac5  1  0.52919700  0.28828900  0.65331600  1
  Ac  Ac6  1  0.72112800  0.96106100  0.59668400  1
  Ac  Ac7  1  0.40419700  0.60078900  0.59081600  1
  Ac  Ac8  1  0.59612800  0.27356100  0.53418400  1
  Ac  Ac9  1  0.27919700  0.91328900  0.52831600  1
  Ac  Ac10  1  0.47112800  0.58606100  0.47168400  1
  Ac  Ac11  1  0.15419700  0.22578900  0.46581600  1
  Ac  Ac12  1  0.34612800  0.89856100  0.40918400  1
  Ac  Ac13  1  0.02919700  0.53828900  0.40331600  1
  Ac  Ac14  1  0.22112800  0.21106100  0.34668400  1
  Ac  Ac15  1  0.90419700  0.85078900  0.34081600  1
  Ac  Ac16  1  0.09612800  0.52356100  0.28418400  1
  Ac  Ac17  1  0.77919700  0.16328900  0.27831600  1
  Ac  Ac18  1  0.97112800  0.83606100  0.22168400  1
  Ac  Ac19  1  0.65419700  0.47578900  0.21581600  1
  Mg  Mg20  1  0.43766300  0.34342500  0.78125000  1
  Mg  Mg21  1  0.31266300  0.65592500  0.71875000  1
  Mg  Mg22  1  0.18766300  0.96842500  0.65625000  1
  Mg  Mg23  1  0.06266300  0.28092500  0.59375000  1
  Mg  Mg24  1  0.93766300  0.59342500  0.53125000  1
  Mg  Mg25  1  0.81266300  0.90592500  0.46875000  1
  Mg  Mg26  1  0.68766300  0.21842500  0.40625000  1
  Mg  Mg27  1  0.56266300  0.53092500  0.34375000  1
  Mg  Mg28  1  0.43766300  0.84342500  0.28125000  1
  Mg  Mg29  1  0.31266300  0.15592500  0.21875000  1
