# generated using pymatgen
data_Pm13Mg6
_symmetry_space_group_name_H-M   'P 1'
_cell_length_a   5.62611600
_cell_length_b   8.90561749
_cell_length_c   44.75229100
_cell_angle_alpha   91.16740536
_cell_angle_beta   90.00000000
_cell_angle_gamma   90.00000000
_symmetry_Int_Tables_number   1
_chemical_formula_structural   Pm13Mg6
_chemical_formula_sum   'Pm26 Mg12'
_cell_volume   2241.80503062
_cell_formula_units_Z   2
loop_
 _symmetry_equiv_pos_site_id
 _symmetry_equiv_pos_as_xyz
  1  'x, y, z'
loop_
 _atom_site_type_symbol
 _atom_site_label
 _atom_site_symmetry_multiplicity
 _atom_site_fract_x
 _atom_site_fract_y
 _atom_site_fract_z
 _atom_site_occupancy
  Pm  Pm0  1  0.75000000  0.69335700  0.71487300  1
  Pm  Pm1  1  0.25000000  0.03140300  0.72957100  1
  Pm  Pm2  1  0.75000000  0.77669100  0.63154000  1
  Pm  Pm3  1  0.75000000  0.38638900  0.65804900  1
  Pm  Pm4  1  0.25000000  0.11473700  0.64623800  1
  Pm  Pm5  1  0.25000000  0.42170500  0.70306200  1
  Pm  Pm6  1  0.75000000  0.86002400  0.54820700  1
  Pm  Pm7  1  0.75000000  0.46972200  0.57471500  1
  Pm  Pm8  1  0.25000000  0.19807000  0.56290400  1
  Pm  Pm9  1  0.25000000  0.50503900  0.61972900  1
  Pm  Pm10  1  0.75000000  0.94335700  0.46487300  1
  Pm  Pm11  1  0.75000000  0.55305500  0.49138200  1
  Pm  Pm12  1  0.25000000  0.28140300  0.47957100  1
  Pm  Pm13  1  0.25000000  0.58837200  0.53639600  1
  Pm  Pm14  1  0.75000000  0.02669100  0.38154000  1
  Pm  Pm15  1  0.75000000  0.63638900  0.40804900  1
  Pm  Pm16  1  0.25000000  0.36473700  0.39623800  1
  Pm  Pm17  1  0.25000000  0.67170500  0.45306200  1
  Pm  Pm18  1  0.75000000  0.11002400  0.29820700  1
  Pm  Pm19  1  0.75000000  0.71972200  0.32471500  1
  Pm  Pm20  1  0.25000000  0.44807000  0.31290400  1
  Pm  Pm21  1  0.25000000  0.75503900  0.36972900  1
  Pm  Pm22  1  0.75000000  0.19335700  0.21487300  1
  Pm  Pm23  1  0.75000000  0.80305500  0.24138200  1
  Pm  Pm24  1  0.25000000  0.53140300  0.22957100  1
  Pm  Pm25  1  0.25000000  0.83837200  0.28639600  1
  Mg  Mg26  1  0.75000000  0.03667500  0.68632200  1
  Mg  Mg27  1  0.25000000  0.77141900  0.67478900  1
  Mg  Mg28  1  0.75000000  0.12000800  0.60298900  1
  Mg  Mg29  1  0.25000000  0.85475200  0.59145600  1
  Mg  Mg30  1  0.75000000  0.20334100  0.51965500  1
  Mg  Mg31  1  0.25000000  0.93808600  0.50812200  1
  Mg  Mg32  1  0.75000000  0.28667500  0.43632200  1
  Mg  Mg33  1  0.25000000  0.02141900  0.42478900  1
  Mg  Mg34  1  0.75000000  0.37000800  0.35298900  1
  Mg  Mg35  1  0.25000000  0.10475200  0.34145600  1
  Mg  Mg36  1  0.75000000  0.45334100  0.26965500  1
  Mg  Mg37  1  0.25000000  0.18808600  0.25812200  1
