# generated using pymatgen
data_Mg48Ga47
_symmetry_space_group_name_H-M   'P 1'
_cell_length_a   12.02268053
_cell_length_b   12.02268044
_cell_length_c   44.88106400
_cell_angle_alpha   85.32689429
_cell_angle_beta   94.67310567
_cell_angle_gamma   102.23861087
_symmetry_Int_Tables_number   1
_chemical_formula_structural   Mg48Ga47
_chemical_formula_sum   'Mg96 Ga94'
_cell_volume   6305.07448137
_cell_formula_units_Z   2
loop_
 _symmetry_equiv_pos_site_id
 _symmetry_equiv_pos_as_xyz
  1  'x, y, z'
loop_
 _atom_site_type_symbol
 _atom_site_label
 _atom_site_symmetry_multiplicity
 _atom_site_fract_x
 _atom_site_fract_y
 _atom_site_fract_z
 _atom_site_occupancy
  Mg  Mg0  1  0.80308300  0.40175600  0.28289800  1
  Mg  Mg1  1  0.55823700  0.50117100  0.26289500  1
  Mg  Mg2  1  0.62173200  0.31885900  0.22192700  1
  Mg  Mg3  1  0.56259900  0.23256200  0.29478000  1
  Mg  Mg4  1  0.16022700  0.54461200  0.21147000  1
  Mg  Mg5  1  0.50109300  0.05831500  0.23432300  1
  Mg  Mg6  1  0.76458800  0.67600300  0.29335500  1
  Mg  Mg7  1  0.91974300  0.37541800  0.22335200  1
  Mg  Mg8  1  0.20308300  0.00175600  0.23289800  1
  Mg  Mg9  1  0.95823700  0.10117100  0.21289500  1
  Mg  Mg10  1  0.22173200  0.71885900  0.27192700  1
  Mg  Mg11  1  0.96259900  0.83256200  0.24478000  1
  Mg  Mg12  1  0.76022700  0.94461200  0.26147000  1
  Mg  Mg13  1  0.10109300  0.45831500  0.28432300  1
  Mg  Mg14  1  0.16458800  0.27600300  0.24335500  1
  Mg  Mg15  1  0.51974300  0.77541800  0.27335200  1
  Mg  Mg16  1  0.00308300  0.20175600  0.38289800  1
  Mg  Mg17  1  0.75823700  0.30117100  0.36289500  1
  Mg  Mg18  1  0.82173200  0.11885900  0.32192700  1
  Mg  Mg19  1  0.76259900  0.03256200  0.39478000  1
  Mg  Mg20  1  0.36022700  0.34461200  0.31147000  1
  Mg  Mg21  1  0.70109300  0.85831500  0.33432300  1
  Mg  Mg22  1  0.96458800  0.47600300  0.39335500  1
  Mg  Mg23  1  0.11974300  0.17541800  0.32335200  1
  Mg  Mg24  1  0.40308300  0.80175600  0.33289800  1
  Mg  Mg25  1  0.15823700  0.90117100  0.31289500  1
  Mg  Mg26  1  0.42173200  0.51885900  0.37192700  1
  Mg  Mg27  1  0.16259900  0.63256200  0.34478000  1
  Mg  Mg28  1  0.96022700  0.74461200  0.36147000  1
  Mg  Mg29  1  0.30109300  0.25831500  0.38432300  1
  Mg  Mg30  1  0.36458800  0.07600300  0.34335500  1
  Mg  Mg31  1  0.71974300  0.57541800  0.37335200  1
  Mg  Mg32  1  0.20308300  0.00175600  0.48289800  1
  Mg  Mg33  1  0.95823700  0.10117100  0.46289500  1
  Mg  Mg34  1  0.02173200  0.91885900  0.42192700  1
  Mg  Mg35  1  0.96259900  0.83256200  0.49478000  1
  Mg  Mg36  1  0.56022700  0.14461200  0.41147000  1
  Mg  Mg37  1  0.90109300  0.65831500  0.43432300  1
  Mg  Mg38  1  0.16458800  0.27600300  0.49335500  1
  Mg  Mg39  1  0.31974300  0.97541800  0.42335200  1
  Mg  Mg40  1  0.60308300  0.60175600  0.43289800  1
  Mg  Mg41  1  0.35823700  0.70117100  0.41289500  1
  Mg  Mg42  1  0.62173200  0.31885900  0.47192700  1
  Mg  Mg43  1  0.36259900  0.43256200  0.44478000  1
  Mg  Mg44  1  0.16022700  0.54461200  0.46147000  1
  Mg  Mg45  1  0.50109300  0.05831500  0.48432300  1
  Mg  Mg46  1  0.56458800  0.87600300  0.44335500  1
  Mg  Mg47  1  0.91974300  0.37541800  0.47335200  1
  Mg  Mg48  1  0.40308300  0.80175600  0.58289800  1
  Mg  Mg49  1  0.15823700  0.90117100  0.56289500  1
  Mg  Mg50  1  0.22173200  0.71885900  0.52192700  1
  Mg  Mg51  1  0.16259900  0.63256200  0.59478000  1
  Mg  Mg52  1  0.76022700  0.94461200  0.51147000  1
  Mg  Mg53  1  0.10109300  0.45831500  0.53432300  1
  Mg  Mg54  1  0.36458800  0.07600300  0.59335500  1
  Mg  Mg55  1  0.51974300  0.77541800  0.52335200  1
  Mg  Mg56  1  0.80308300  0.40175600  0.53289800  1
  Mg  Mg57  1  0.55823700  0.50117100  0.51289500  1
  Mg  Mg58  1  0.82173200  0.11885900  0.57192700  1
  Mg  Mg59  1  0.56259900  0.23256200  0.54478000  1
  Mg  Mg60  1  0.36022700  0.34461200  0.56147000  1
  Mg  Mg61  1  0.70109300  0.85831500  0.58432300  1
  Mg  Mg62  1  0.76458800  0.67600300  0.54335500  1
  Mg  Mg63  1  0.11974300  0.17541800  0.57335200  1
  Mg  Mg64  1  0.60308300  0.60175600  0.68289800  1
  Mg  Mg65  1  0.35823700  0.70117100  0.66289500  1
  Mg  Mg66  1  0.42173200  0.51885900  0.62192700  1
  Mg  Mg67  1  0.36259900  0.43256200  0.69478000  1
  Mg  Mg68  1  0.96022700  0.74461200  0.61147000  1
  Mg  Mg69  1  0.30109300  0.25831500  0.63432300  1
  Mg  Mg70  1  0.56458800  0.87600300  0.69335500  1
  Mg  Mg71  1  0.71974300  0.57541800  0.62335200  1
  Mg  Mg72  1  0.00308300  0.20175600  0.63289800  1
  Mg  Mg73  1  0.75823700  0.30117100  0.61289500  1
  Mg  Mg74  1  0.02173200  0.91885900  0.67192700  1
  Mg  Mg75  1  0.76259900  0.03256200  0.64478000  1
  Mg  Mg76  1  0.56022700  0.14461200  0.66147000  1
  Mg  Mg77  1  0.90109300  0.65831500  0.68432300  1
  Mg  Mg78  1  0.96458800  0.47600300  0.64335500  1
  Mg  Mg79  1  0.31974300  0.97541800  0.67335200  1
  Mg  Mg80  1  0.80308300  0.40175600  0.78289800  1
  Mg  Mg81  1  0.55823700  0.50117100  0.76289500  1
  Mg  Mg82  1  0.62173200  0.31885900  0.72192700  1
  Mg  Mg83  1  0.56259900  0.23256200  0.79478000  1
  Mg  Mg84  1  0.16022700  0.54461200  0.71147000  1
  Mg  Mg85  1  0.50109300  0.05831500  0.73432300  1
  Mg  Mg86  1  0.76458800  0.67600300  0.79335500  1
  Mg  Mg87  1  0.91974300  0.37541800  0.72335200  1
  Mg  Mg88  1  0.20308300  0.00175600  0.73289800  1
  Mg  Mg89  1  0.95823700  0.10117100  0.71289500  1
  Mg  Mg90  1  0.22173200  0.71885900  0.77192700  1
  Mg  Mg91  1  0.96259900  0.83256200  0.74478000  1
  Mg  Mg92  1  0.76022700  0.94461200  0.76147000  1
  Mg  Mg93  1  0.10109300  0.45831500  0.78432300  1
  Mg  Mg94  1  0.16458800  0.27600300  0.74335500  1
  Mg  Mg95  1  0.51974300  0.77541800  0.77335200  1
  Ga  Ga96  1  0.95718000  0.23707500  0.27537900  1
  Ga  Ga97  1  0.44171900  0.65001800  0.22178000  1
  Ga  Ga98  1  0.73342900  0.17483400  0.26063100  1
  Ga  Ga99  1  0.31796700  0.48777800  0.25703200  1
  Ga  Ga100  1  0.40485800  0.28939700  0.24921800  1
  Ga  Ga101  1  0.58939700  0.00234000  0.29561900  1
  Ga  Ga102  1  0.68110700  0.72715600  0.23447000  1
  Ga  Ga103  1  0.76564500  0.54010000  0.23087100  1
  Ga  Ga104  1  0.35718000  0.83707500  0.22537900  1
  Ga  Ga105  1  0.04171900  0.05001800  0.27178000  1
  Ga  Ga106  1  0.13342900  0.77483400  0.21063100  1
  Ga  Ga107  1  0.98939700  0.60234000  0.24561900  1
  Ga  Ga108  1  0.28110700  0.12715600  0.28447000  1
  Ga  Ga109  1  0.36564500  0.94010000  0.28087100  1
  Ga  Ga110  1  0.15718000  0.03707500  0.37537900  1
  Ga  Ga111  1  0.64171900  0.45001800  0.32178000  1
  Ga  Ga112  1  0.93342900  0.97483400  0.36063100  1
  Ga  Ga113  1  0.51796700  0.28777800  0.35703200  1
  Ga  Ga114  1  0.60485800  0.08939700  0.34921800  1
  Ga  Ga115  1  0.78939700  0.80234000  0.39561900  1
  Ga  Ga116  1  0.88110700  0.52715600  0.33447000  1
  Ga  Ga117  1  0.96564500  0.34010000  0.33087100  1
  Ga  Ga118  1  0.55718000  0.63707500  0.32537900  1
  Ga  Ga119  1  0.24171900  0.85001800  0.37178000  1
  Ga  Ga120  1  0.33342900  0.57483400  0.31063100  1
  Ga  Ga121  1  0.91796700  0.88777800  0.30703200  1
  Ga  Ga122  1  0.00485800  0.68939700  0.29921800  1
  Ga  Ga123  1  0.18939700  0.40234000  0.34561900  1
  Ga  Ga124  1  0.48110700  0.92715600  0.38447000  1
  Ga  Ga125  1  0.56564500  0.74010000  0.38087100  1
  Ga  Ga126  1  0.35718000  0.83707500  0.47537900  1
  Ga  Ga127  1  0.84171900  0.25001800  0.42178000  1
  Ga  Ga128  1  0.13342900  0.77483400  0.46063100  1
  Ga  Ga129  1  0.71796700  0.08777800  0.45703200  1
  Ga  Ga130  1  0.80485800  0.88939700  0.44921800  1
  Ga  Ga131  1  0.98939700  0.60234000  0.49561900  1
  Ga  Ga132  1  0.08110700  0.32715600  0.43447000  1
  Ga  Ga133  1  0.16564500  0.14010000  0.43087100  1
  Ga  Ga134  1  0.75718000  0.43707500  0.42537900  1
  Ga  Ga135  1  0.44171900  0.65001800  0.47178000  1
  Ga  Ga136  1  0.53342900  0.37483400  0.41063100  1
  Ga  Ga137  1  0.11796700  0.68777800  0.40703200  1
  Ga  Ga138  1  0.20485800  0.48939700  0.39921800  1
  Ga  Ga139  1  0.38939700  0.20234000  0.44561900  1
  Ga  Ga140  1  0.68110700  0.72715600  0.48447000  1
  Ga  Ga141  1  0.76564500  0.54010000  0.48087100  1
  Ga  Ga142  1  0.55718000  0.63707500  0.57537900  1
  Ga  Ga143  1  0.04171900  0.05001800  0.52178000  1
  Ga  Ga144  1  0.33342900  0.57483400  0.56063100  1
  Ga  Ga145  1  0.91796700  0.88777800  0.55703200  1
  Ga  Ga146  1  0.00485800  0.68939700  0.54921800  1
  Ga  Ga147  1  0.18939700  0.40234000  0.59561900  1
  Ga  Ga148  1  0.28110700  0.12715600  0.53447000  1
  Ga  Ga149  1  0.36564500  0.94010000  0.53087100  1
  Ga  Ga150  1  0.95718000  0.23707500  0.52537900  1
  Ga  Ga151  1  0.64171900  0.45001800  0.57178000  1
  Ga  Ga152  1  0.73342900  0.17483400  0.51063100  1
  Ga  Ga153  1  0.31796700  0.48777800  0.50703200  1
  Ga  Ga154  1  0.40485800  0.28939700  0.49921800  1
  Ga  Ga155  1  0.58939700  0.00234000  0.54561900  1
  Ga  Ga156  1  0.88110700  0.52715600  0.58447000  1
  Ga  Ga157  1  0.96564500  0.34010000  0.58087100  1
  Ga  Ga158  1  0.75718000  0.43707500  0.67537900  1
  Ga  Ga159  1  0.24171900  0.85001800  0.62178000  1
  Ga  Ga160  1  0.53342900  0.37483400  0.66063100  1
  Ga  Ga161  1  0.11796700  0.68777800  0.65703200  1
  Ga  Ga162  1  0.20485800  0.48939700  0.64921800  1
  Ga  Ga163  1  0.38939700  0.20234000  0.69561900  1
  Ga  Ga164  1  0.48110700  0.92715600  0.63447000  1
  Ga  Ga165  1  0.56564500  0.74010000  0.63087100  1
  Ga  Ga166  1  0.15718000  0.03707500  0.62537900  1
  Ga  Ga167  1  0.84171900  0.25001800  0.67178000  1
  Ga  Ga168  1  0.93342900  0.97483400  0.61063100  1
  Ga  Ga169  1  0.51796700  0.28777800  0.60703200  1
  Ga  Ga170  1  0.60485800  0.08939700  0.59921800  1
  Ga  Ga171  1  0.78939700  0.80234000  0.64561900  1
  Ga  Ga172  1  0.08110700  0.32715600  0.68447000  1
  Ga  Ga173  1  0.16564500  0.14010000  0.68087100  1
  Ga  Ga174  1  0.95718000  0.23707500  0.77537900  1
  Ga  Ga175  1  0.44171900  0.65001800  0.72178000  1
  Ga  Ga176  1  0.73342900  0.17483400  0.76063100  1
  Ga  Ga177  1  0.31796700  0.48777800  0.75703200  1
  Ga  Ga178  1  0.40485800  0.28939700  0.74921800  1
  Ga  Ga179  1  0.58939700  0.00234000  0.79561900  1
  Ga  Ga180  1  0.68110700  0.72715600  0.73447000  1
  Ga  Ga181  1  0.76564500  0.54010000  0.73087100  1
  Ga  Ga182  1  0.35718000  0.83707500  0.72537900  1
  Ga  Ga183  1  0.04171900  0.05001800  0.77178000  1
  Ga  Ga184  1  0.13342900  0.77483400  0.71063100  1
  Ga  Ga185  1  0.71796700  0.08777800  0.70703200  1
  Ga  Ga186  1  0.80485800  0.88939700  0.69921800  1
  Ga  Ga187  1  0.98939700  0.60234000  0.74561900  1
  Ga  Ga188  1  0.28110700  0.12715600  0.78447000  1
  Ga  Ga189  1  0.36564500  0.94010000  0.78087100  1
