# generated using pymatgen
data_Mg7Bi4
_symmetry_space_group_name_H-M   'P 1'
_cell_length_a   4.73063000
_cell_length_b   8.82222111
_cell_length_c   43.17621000
_cell_angle_alpha   86.85535067
_cell_angle_beta   86.85960654
_cell_angle_gamma   74.44823906
_symmetry_Int_Tables_number   1
_chemical_formula_structural   Mg7Bi4
_chemical_formula_sum   'Mg21 Bi12'
_cell_volume   1731.85409421
_cell_formula_units_Z   3
loop_
 _symmetry_equiv_pos_site_id
 _symmetry_equiv_pos_as_xyz
  1  'x, y, z'
loop_
 _atom_site_type_symbol
 _atom_site_label
 _atom_site_symmetry_multiplicity
 _atom_site_fract_x
 _atom_site_fract_y
 _atom_site_fract_z
 _atom_site_occupancy
  Mg  Mg0  1  0.36740700  0.44813800  0.26341900  1
  Mg  Mg1  1  0.68450200  0.81070100  0.26666700  1
  Mg  Mg2  1  0.00159700  0.17326400  0.26991400  1
  Mg  Mg3  1  0.95074000  0.19813800  0.34675200  1
  Mg  Mg4  1  0.26783500  0.56070100  0.35000000  1
  Mg  Mg5  1  0.58493000  0.92326400  0.35324800  1
  Mg  Mg6  1  0.53407400  0.94813800  0.43008600  1
  Mg  Mg7  1  0.85116900  0.31070100  0.43333300  1
  Mg  Mg8  1  0.16826300  0.67326400  0.43658100  1
  Mg  Mg9  1  0.11740700  0.69813800  0.51341900  1
  Mg  Mg10  1  0.43450200  0.06070100  0.51666700  1
  Mg  Mg11  1  0.75159700  0.42326400  0.51991400  1
  Mg  Mg12  1  0.70074000  0.44813800  0.59675200  1
  Mg  Mg13  1  0.01783500  0.81070100  0.60000000  1
  Mg  Mg14  1  0.33493000  0.17326400  0.60324800  1
  Mg  Mg15  1  0.28407400  0.19813800  0.68008600  1
  Mg  Mg16  1  0.60116900  0.56070100  0.68333300  1
  Mg  Mg17  1  0.91826300  0.92326400  0.68658100  1
  Mg  Mg18  1  0.86740700  0.94813800  0.76341900  1
  Mg  Mg19  1  0.18450200  0.31070100  0.76666700  1
  Mg  Mg20  1  0.50159700  0.67326400  0.76991400  1
  Bi  Bi21  1  0.12060000  0.89239100  0.31278000  1
  Bi  Bi22  1  0.83173700  0.47901200  0.30388600  1
  Bi  Bi23  1  0.70393400  0.64239100  0.39611400  1
  Bi  Bi24  1  0.41507000  0.22901200  0.38722000  1
  Bi  Bi25  1  0.28726700  0.39239100  0.47944700  1
  Bi  Bi26  1  0.99840300  0.97901200  0.47055300  1
  Bi  Bi27  1  0.87060000  0.14239100  0.56278000  1
  Bi  Bi28  1  0.58173700  0.72901200  0.55388600  1
  Bi  Bi29  1  0.45393400  0.89239100  0.64611400  1
  Bi  Bi30  1  0.16507000  0.47901200  0.63722000  1
  Bi  Bi31  1  0.03726700  0.64239100  0.72944700  1
  Bi  Bi32  1  0.74840300  0.22901200  0.72055300  1
