# generated using pymatgen
data_Mg36Zn197
_symmetry_space_group_name_H-M   'P 1'
_cell_length_a   12.10891185
_cell_length_b   12.10891214
_cell_length_c   49.92632400
_cell_angle_alpha   90.00000000
_cell_angle_beta   83.03472392
_cell_angle_gamma   60.00000117
_symmetry_Int_Tables_number   1
_chemical_formula_structural   Mg36Zn197
_chemical_formula_sum   'Mg36 Zn197'
_cell_volume   6277.26392985
_cell_formula_units_Z   1
loop_
 _symmetry_equiv_pos_site_id
 _symmetry_equiv_pos_as_xyz
  1  'x, y, z'
loop_
 _atom_site_type_symbol
 _atom_site_label
 _atom_site_symmetry_multiplicity
 _atom_site_fract_x
 _atom_site_fract_y
 _atom_site_fract_z
 _atom_site_occupancy
  Mg  Mg0  1  0.85708900  0.39281700  0.23153700  1
  Mg  Mg1  1  0.15964000  0.89281700  0.23153700  1
  Mg  Mg2  1  0.35708900  0.19536800  0.23153700  1
  Mg  Mg3  1  0.39657900  0.77434800  0.27102700  1
  Mg  Mg4  1  0.19913000  0.47179700  0.27102700  1
  Mg  Mg5  1  0.69913000  0.27434800  0.27102700  1
  Mg  Mg6  1  0.45708900  0.09281700  0.33153700  1
  Mg  Mg7  1  0.75964000  0.59281700  0.33153700  1
  Mg  Mg8  1  0.95708900  0.89536800  0.33153700  1
  Mg  Mg9  1  0.99657900  0.47434800  0.37102700  1
  Mg  Mg10  1  0.79913000  0.17179700  0.37102700  1
  Mg  Mg11  1  0.29913000  0.97434800  0.37102700  1
  Mg  Mg12  1  0.05708900  0.79281700  0.43153700  1
  Mg  Mg13  1  0.35964000  0.29281700  0.43153700  1
  Mg  Mg14  1  0.55708900  0.59536800  0.43153700  1
  Mg  Mg15  1  0.59657900  0.17434800  0.47102700  1
  Mg  Mg16  1  0.39913000  0.87179700  0.47102700  1
  Mg  Mg17  1  0.89913000  0.67434800  0.47102700  1
  Mg  Mg18  1  0.65708900  0.49281700  0.53153700  1
  Mg  Mg19  1  0.95964000  0.99281700  0.53153700  1
  Mg  Mg20  1  0.15708900  0.29536800  0.53153700  1
  Mg  Mg21  1  0.19657900  0.87434800  0.57102700  1
  Mg  Mg22  1  0.99913000  0.57179700  0.57102700  1
  Mg  Mg23  1  0.49913000  0.37434800  0.57102700  1
  Mg  Mg24  1  0.25708900  0.19281700  0.63153700  1
  Mg  Mg25  1  0.55964000  0.69281700  0.63153700  1
  Mg  Mg26  1  0.75708900  0.99536800  0.63153700  1
  Mg  Mg27  1  0.79657900  0.57434800  0.67102700  1
  Mg  Mg28  1  0.59913000  0.27179700  0.67102700  1
  Mg  Mg29  1  0.09913000  0.07434800  0.67102700  1
  Mg  Mg30  1  0.85708900  0.89281700  0.73153700  1
  Mg  Mg31  1  0.15964000  0.39281700  0.73153700  1
  Mg  Mg32  1  0.35708900  0.69536800  0.73153700  1
  Mg  Mg33  1  0.39657900  0.27434800  0.77102700  1
  Mg  Mg34  1  0.19913000  0.97179700  0.77102700  1
  Mg  Mg35  1  0.69913000  0.77434800  0.77102700  1
  Zn  Zn36  1  0.68756100  0.76567100  0.27391900  1
  Zn  Zn37  1  0.91393300  0.76567100  0.27391900  1
  Zn  Zn38  1  0.68756100  0.99204300  0.27391900  1
  Zn  Zn39  1  0.64228600  0.90149400  0.22864500  1
  Zn  Zn40  1  0.86865900  0.67512100  0.22864500  1
  Zn  Zn41  1  0.86865900  0.90149400  0.22864500  1
  Zn  Zn42  1  0.41506200  0.93629600  0.21704400  1
  Zn  Zn43  1  0.07268200  0.43629600  0.21704400  1
  Zn  Zn44  1  0.91506200  0.09391600  0.21704400  1
  Zn  Zn45  1  0.48353800  0.23086800  0.28552000  1
  Zn  Zn46  1  0.64115800  0.57324900  0.28552000  1
  Zn  Zn47  1  0.14115800  0.73086800  0.28552000  1
  Zn  Zn48  1  0.13429900  0.15548800  0.21699900  1
  Zn  Zn49  1  0.64667700  0.11835400  0.22937700  1
  Zn  Zn50  1  0.64667700  0.68024400  0.22937700  1
  Zn  Zn51  1  0.08478700  0.68024400  0.22937700  1
  Zn  Zn52  1  0.42192100  0.51167700  0.28556500  1
  Zn  Zn53  1  0.90954300  0.54881000  0.27318800  1
  Zn  Zn54  1  0.90954300  0.98692100  0.27318800  1
  Zn  Zn55  1  0.47143200  0.98692100  0.27318800  1
  Zn  Zn56  1  0.98080800  0.15315500  0.25870500  1
  Zn  Zn57  1  0.24841600  0.04370300  0.25870500  1
  Zn  Zn58  1  0.09025900  0.31131200  0.25870500  1
  Zn  Zn59  1  0.46596100  0.35585200  0.24385900  1
  Zn  Zn60  1  0.43432900  0.71835600  0.21222700  1
  Zn  Zn61  1  0.27617200  0.45074700  0.21222700  1
  Zn  Zn62  1  0.12189000  0.94880900  0.29033700  1
  Zn  Zn63  1  0.30780300  0.62346100  0.24385900  1
  Zn  Zn64  1  0.28004800  0.21641800  0.29033700  1
  Zn  Zn65  1  0.57541200  0.51401000  0.24385900  1
  Zn  Zn66  1  0.85428100  0.37457500  0.29033700  1
  Zn  Zn67  1  0.70193800  0.29258900  0.21222700  1
  Zn  Zn68  1  0.07811000  0.18358200  0.30128200  1
  Zn  Zn69  1  0.28756100  0.46567100  0.37391900  1
  Zn  Zn70  1  0.51393300  0.46567100  0.37391900  1
  Zn  Zn71  1  0.28756100  0.69204300  0.37391900  1
  Zn  Zn72  1  0.24228600  0.60149400  0.32864500  1
  Zn  Zn73  1  0.46865900  0.37512100  0.32864500  1
  Zn  Zn74  1  0.46865900  0.60149400  0.32864500  1
  Zn  Zn75  1  0.01506200  0.63629600  0.31704400  1
  Zn  Zn76  1  0.67268200  0.13629600  0.31704400  1
  Zn  Zn77  1  0.51506200  0.79391600  0.31704400  1
  Zn  Zn78  1  0.08353800  0.93086800  0.38552000  1
  Zn  Zn79  1  0.24115800  0.27324900  0.38552000  1
  Zn  Zn80  1  0.74115800  0.43086800  0.38552000  1
  Zn  Zn81  1  0.73429900  0.85548800  0.31699900  1
  Zn  Zn82  1  0.24667700  0.81835400  0.32937700  1
  Zn  Zn83  1  0.24667700  0.38024400  0.32937700  1
  Zn  Zn84  1  0.68478700  0.38024400  0.32937700  1
  Zn  Zn85  1  0.02192100  0.21167700  0.38556500  1
  Zn  Zn86  1  0.50954300  0.24881000  0.37318800  1
  Zn  Zn87  1  0.50954300  0.68692100  0.37318800  1
  Zn  Zn88  1  0.07143200  0.68692100  0.37318800  1
  Zn  Zn89  1  0.58080800  0.85315500  0.35870500  1
  Zn  Zn90  1  0.84841600  0.74370300  0.35870500  1
  Zn  Zn91  1  0.69025900  0.01131200  0.35870500  1
  Zn  Zn92  1  0.06596100  0.05585200  0.34385900  1
  Zn  Zn93  1  0.03432900  0.41835600  0.31222700  1
  Zn  Zn94  1  0.87617200  0.15074700  0.31222700  1
  Zn  Zn95  1  0.72189000  0.64880900  0.39033700  1
  Zn  Zn96  1  0.90780300  0.32346100  0.34385900  1
  Zn  Zn97  1  0.88004800  0.91641800  0.39033700  1
  Zn  Zn98  1  0.17541200  0.21401000  0.34385900  1
  Zn  Zn99  1  0.45428100  0.07457500  0.39033700  1
  Zn  Zn100  1  0.30193800  0.99258900  0.31222700  1
  Zn  Zn101  1  0.67811000  0.88358200  0.40128200  1
  Zn  Zn102  1  0.88756100  0.16567100  0.47391900  1
  Zn  Zn103  1  0.11393300  0.16567100  0.47391900  1
  Zn  Zn104  1  0.88756100  0.39204300  0.47391900  1
  Zn  Zn105  1  0.84228600  0.30149400  0.42864500  1
  Zn  Zn106  1  0.06865900  0.07512100  0.42864500  1
  Zn  Zn107  1  0.06865900  0.30149400  0.42864500  1
  Zn  Zn108  1  0.61506200  0.33629600  0.41704400  1
  Zn  Zn109  1  0.27268200  0.83629600  0.41704400  1
  Zn  Zn110  1  0.11506200  0.49391600  0.41704400  1
  Zn  Zn111  1  0.68353800  0.63086800  0.48552000  1
  Zn  Zn112  1  0.84115800  0.97324900  0.48552000  1
  Zn  Zn113  1  0.34115800  0.13086800  0.48552000  1
  Zn  Zn114  1  0.33429900  0.55548800  0.41699900  1
  Zn  Zn115  1  0.84667700  0.51835400  0.42937700  1
  Zn  Zn116  1  0.84667700  0.08024400  0.42937700  1
  Zn  Zn117  1  0.28478700  0.08024400  0.42937700  1
  Zn  Zn118  1  0.62192100  0.91167700  0.48556500  1
  Zn  Zn119  1  0.10954300  0.94881000  0.47318800  1
  Zn  Zn120  1  0.10954300  0.38692100  0.47318800  1
  Zn  Zn121  1  0.67143200  0.38692100  0.47318800  1
  Zn  Zn122  1  0.18080800  0.55315500  0.45870500  1
  Zn  Zn123  1  0.44841600  0.44370300  0.45870500  1
  Zn  Zn124  1  0.29025900  0.71131200  0.45870500  1
  Zn  Zn125  1  0.66596100  0.75585200  0.44385900  1
  Zn  Zn126  1  0.63432900  0.11835600  0.41222700  1
  Zn  Zn127  1  0.47617200  0.85074700  0.41222700  1
  Zn  Zn128  1  0.32189000  0.34880900  0.49033700  1
  Zn  Zn129  1  0.50780300  0.02346100  0.44385900  1
  Zn  Zn130  1  0.48004800  0.61641800  0.49033700  1
  Zn  Zn131  1  0.77541200  0.91401000  0.44385900  1
  Zn  Zn132  1  0.05428100  0.77457500  0.49033700  1
  Zn  Zn133  1  0.90193800  0.69258900  0.41222700  1
  Zn  Zn134  1  0.27811000  0.58358200  0.50128200  1
  Zn  Zn135  1  0.48756100  0.86567100  0.57391900  1
  Zn  Zn136  1  0.71393300  0.86567100  0.57391900  1
  Zn  Zn137  1  0.48756100  0.09204300  0.57391900  1
  Zn  Zn138  1  0.44228600  0.00149400  0.52864500  1
  Zn  Zn139  1  0.66865900  0.77512100  0.52864500  1
  Zn  Zn140  1  0.66865900  0.00149400  0.52864500  1
  Zn  Zn141  1  0.21506200  0.03629600  0.51704400  1
  Zn  Zn142  1  0.87268200  0.53629600  0.51704400  1
  Zn  Zn143  1  0.71506200  0.19391600  0.51704400  1
  Zn  Zn144  1  0.28353800  0.33086800  0.58552000  1
  Zn  Zn145  1  0.44115800  0.67324900  0.58552000  1
  Zn  Zn146  1  0.94115800  0.83086800  0.58552000  1
  Zn  Zn147  1  0.93429900  0.25548800  0.51699900  1
  Zn  Zn148  1  0.44667700  0.21835400  0.52937700  1
  Zn  Zn149  1  0.44667700  0.78024400  0.52937700  1
  Zn  Zn150  1  0.88478700  0.78024400  0.52937700  1
  Zn  Zn151  1  0.22192100  0.61167700  0.58556500  1
  Zn  Zn152  1  0.70954300  0.64881000  0.57318800  1
  Zn  Zn153  1  0.70954300  0.08692100  0.57318800  1
  Zn  Zn154  1  0.27143200  0.08692100  0.57318800  1
  Zn  Zn155  1  0.78080800  0.25315500  0.55870500  1
  Zn  Zn156  1  0.04841600  0.14370300  0.55870500  1
  Zn  Zn157  1  0.89025900  0.41131200  0.55870500  1
  Zn  Zn158  1  0.26596100  0.45585200  0.54385900  1
  Zn  Zn159  1  0.23432900  0.81835600  0.51222700  1
  Zn  Zn160  1  0.07617200  0.55074700  0.51222700  1
  Zn  Zn161  1  0.92189000  0.04880900  0.59033700  1
  Zn  Zn162  1  0.10780300  0.72346100  0.54385900  1
  Zn  Zn163  1  0.08004800  0.31641800  0.59033700  1
  Zn  Zn164  1  0.37541200  0.61401000  0.54385900  1
  Zn  Zn165  1  0.65428100  0.47457500  0.59033700  1
  Zn  Zn166  1  0.50193800  0.39258900  0.51222700  1
  Zn  Zn167  1  0.87811000  0.28358200  0.60128200  1
  Zn  Zn168  1  0.08756100  0.56567100  0.67391900  1
  Zn  Zn169  1  0.31393300  0.56567100  0.67391900  1
  Zn  Zn170  1  0.08756100  0.79204300  0.67391900  1
  Zn  Zn171  1  0.04228600  0.70149400  0.62864500  1
  Zn  Zn172  1  0.26865900  0.47512100  0.62864500  1
  Zn  Zn173  1  0.26865900  0.70149400  0.62864500  1
  Zn  Zn174  1  0.81506200  0.73629600  0.61704400  1
  Zn  Zn175  1  0.47268200  0.23629600  0.61704400  1
  Zn  Zn176  1  0.31506200  0.89391600  0.61704400  1
  Zn  Zn177  1  0.88353800  0.03086800  0.68552000  1
  Zn  Zn178  1  0.04115800  0.37324900  0.68552000  1
  Zn  Zn179  1  0.54115800  0.53086800  0.68552000  1
  Zn  Zn180  1  0.53429900  0.95548800  0.61699900  1
  Zn  Zn181  1  0.04667700  0.91835400  0.62937700  1
  Zn  Zn182  1  0.04667700  0.48024400  0.62937700  1
  Zn  Zn183  1  0.48478700  0.48024400  0.62937700  1
  Zn  Zn184  1  0.82192100  0.31167700  0.68556500  1
  Zn  Zn185  1  0.30954300  0.34881000  0.67318800  1
  Zn  Zn186  1  0.30954300  0.78692100  0.67318800  1
  Zn  Zn187  1  0.87143200  0.78692100  0.67318800  1
  Zn  Zn188  1  0.38080800  0.95315500  0.65870500  1
  Zn  Zn189  1  0.64841600  0.84370300  0.65870500  1
  Zn  Zn190  1  0.49025900  0.11131200  0.65870500  1
  Zn  Zn191  1  0.86596100  0.15585200  0.64385900  1
  Zn  Zn192  1  0.83432900  0.51835600  0.61222700  1
  Zn  Zn193  1  0.67617200  0.25074700  0.61222700  1
  Zn  Zn194  1  0.52189000  0.74880900  0.69033700  1
  Zn  Zn195  1  0.70780300  0.42346100  0.64385900  1
  Zn  Zn196  1  0.68004800  0.01641800  0.69033700  1
  Zn  Zn197  1  0.97541200  0.31401000  0.64385900  1
  Zn  Zn198  1  0.25428100  0.17457500  0.69033700  1
  Zn  Zn199  1  0.10193800  0.09258900  0.61222700  1
  Zn  Zn200  1  0.47811000  0.98358200  0.70128200  1
  Zn  Zn201  1  0.68756100  0.26567100  0.77391900  1
  Zn  Zn202  1  0.91393300  0.26567100  0.77391900  1
  Zn  Zn203  1  0.68756100  0.49204300  0.77391900  1
  Zn  Zn204  1  0.64228600  0.40149400  0.72864500  1
  Zn  Zn205  1  0.86865900  0.17512100  0.72864500  1
  Zn  Zn206  1  0.86865900  0.40149400  0.72864500  1
  Zn  Zn207  1  0.41506200  0.43629600  0.71704400  1
  Zn  Zn208  1  0.07268200  0.93629600  0.71704400  1
  Zn  Zn209  1  0.91506200  0.59391600  0.71704400  1
  Zn  Zn210  1  0.48353800  0.73086800  0.78552000  1
  Zn  Zn211  1  0.64115800  0.07324900  0.78552000  1
  Zn  Zn212  1  0.14115800  0.23086800  0.78552000  1
  Zn  Zn213  1  0.13429900  0.65548800  0.71699900  1
  Zn  Zn214  1  0.64667700  0.61835400  0.72937700  1
  Zn  Zn215  1  0.64667700  0.18024400  0.72937700  1
  Zn  Zn216  1  0.08478700  0.18024400  0.72937700  1
  Zn  Zn217  1  0.42192100  0.01167700  0.78556500  1
  Zn  Zn218  1  0.90954300  0.04881000  0.77318800  1
  Zn  Zn219  1  0.90954300  0.48692100  0.77318800  1
  Zn  Zn220  1  0.47143200  0.48692100  0.77318800  1
  Zn  Zn221  1  0.98080800  0.65315500  0.75870500  1
  Zn  Zn222  1  0.24841600  0.54370300  0.75870500  1
  Zn  Zn223  1  0.09025900  0.81131200  0.75870500  1
  Zn  Zn224  1  0.46596100  0.85585200  0.74385900  1
  Zn  Zn225  1  0.43432900  0.21835600  0.71222700  1
  Zn  Zn226  1  0.27617200  0.95074700  0.71222700  1
  Zn  Zn227  1  0.12189000  0.44880900  0.79033700  1
  Zn  Zn228  1  0.30780300  0.12346100  0.74385900  1
  Zn  Zn229  1  0.28004800  0.71641800  0.79033700  1
  Zn  Zn230  1  0.57541200  0.01401000  0.74385900  1
  Zn  Zn231  1  0.85428100  0.87457500  0.79033700  1
  Zn  Zn232  1  0.70193800  0.79258900  0.71222700  1
