# generated using pymatgen
data_Mg12Zn59
_symmetry_space_group_name_H-M   'P 1'
_cell_length_a   4.98183600
_cell_length_b   16.81026703
_cell_length_c   46.91195600
_cell_angle_alpha   88.98550742
_cell_angle_beta   90.00000000
_cell_angle_gamma   90.00000000
_symmetry_Int_Tables_number   1
_chemical_formula_structural   Mg12Zn59
_chemical_formula_sum   'Mg24 Zn118'
_cell_volume   3928.07253363
_cell_formula_units_Z   2
loop_
 _symmetry_equiv_pos_site_id
 _symmetry_equiv_pos_as_xyz
  1  'x, y, z'
loop_
 _atom_site_type_symbol
 _atom_site_label
 _atom_site_symmetry_multiplicity
 _atom_site_fract_x
 _atom_site_fract_y
 _atom_site_fract_z
 _atom_site_occupancy
  Mg  Mg0  1  0.50000000  0.78023700  0.36502600  1
  Mg  Mg1  1  0.00000000  0.71976300  0.32664100  1
  Mg  Mg2  1  0.50000000  0.97132800  0.36240500  1
  Mg  Mg3  1  1.00000000  0.52867200  0.32926100  1
  Mg  Mg4  1  0.00000000  0.28023700  0.26502600  1
  Mg  Mg5  1  0.50000000  0.21976300  0.22664100  1
  Mg  Mg6  1  0.00000000  0.47132800  0.26240500  1
  Mg  Mg7  1  0.50000000  0.02867200  0.22926100  1
  Mg  Mg8  1  0.50000000  0.78023700  0.56502600  1
  Mg  Mg9  1  0.00000000  0.71976300  0.52664100  1
  Mg  Mg10  1  0.50000000  0.97132800  0.56240500  1
  Mg  Mg11  1  1.00000000  0.52867200  0.52926100  1
  Mg  Mg12  1  0.00000000  0.28023700  0.46502600  1
  Mg  Mg13  1  0.50000000  0.21976300  0.42664100  1
  Mg  Mg14  1  0.00000000  0.47132800  0.46240500  1
  Mg  Mg15  1  0.50000000  0.02867200  0.42926100  1
  Mg  Mg16  1  0.50000000  0.78023700  0.76502600  1
  Mg  Mg17  1  0.00000000  0.71976300  0.72664100  1
  Mg  Mg18  1  0.50000000  0.97132800  0.76240500  1
  Mg  Mg19  1  1.00000000  0.52867200  0.72926100  1
  Mg  Mg20  1  0.00000000  0.28023700  0.66502600  1
  Mg  Mg21  1  0.50000000  0.21976300  0.62664100  1
  Mg  Mg22  1  0.00000000  0.47132800  0.66240500  1
  Mg  Mg23  1  0.50000000  0.02867200  0.62926100  1
  Zn  Zn24  1  0.50000000  0.00000000  0.29583300  1
  Zn  Zn25  1  0.50000000  0.53325400  0.22656000  1
  Zn  Zn26  1  0.50000000  0.70987800  0.22717200  1
  Zn  Zn27  1  0.50000000  0.62722100  0.32720500  1
  Zn  Zn28  1  0.00000000  0.87277900  0.36446200  1
  Zn  Zn29  1  0.74734900  0.87180400  0.21653700  1
  Zn  Zn30  1  0.75285600  0.87615900  0.31606300  1
  Zn  Zn31  1  0.00000000  0.96674600  0.26510600  1
  Zn  Zn32  1  0.00000000  0.74769600  0.19798900  1
  Zn  Zn33  1  0.25285600  0.62384100  0.37560300  1
  Zn  Zn34  1  0.24714400  0.87615900  0.31606300  1
  Zn  Zn35  1  0.74714400  0.62384100  0.37560300  1
  Zn  Zn36  1  0.24734900  0.62819600  0.27513000  1
  Zn  Zn37  1  0.00000000  0.79012200  0.26449500  1
  Zn  Zn38  1  0.25265100  0.87180400  0.21653700  1
  Zn  Zn39  1  0.75265100  0.62819600  0.27513000  1
  Zn  Zn40  1  0.00000000  0.00000000  0.39583300  1
  Zn  Zn41  1  0.50000000  0.88039100  0.26389800  1
  Zn  Zn42  1  0.00000000  0.61960900  0.22776900  1
  Zn  Zn43  1  0.50000000  0.75230400  0.29367700  1
  Zn  Zn44  1  0.00000000  0.50000000  0.39583300  1
  Zn  Zn45  1  0.00000000  0.03325400  0.32656000  1
  Zn  Zn46  1  0.00000000  0.20987800  0.32717200  1
  Zn  Zn47  1  0.00000000  0.12722100  0.22720500  1
  Zn  Zn48  1  0.50000000  0.37277900  0.26446200  1
  Zn  Zn49  1  0.24734900  0.37180400  0.31653700  1
  Zn  Zn50  1  0.25285600  0.37615900  0.21606300  1
  Zn  Zn51  1  0.50000000  0.46674600  0.36510600  1
  Zn  Zn52  1  0.50000000  0.24769600  0.29798900  1
  Zn  Zn53  1  0.75285600  0.12384100  0.27560300  1
  Zn  Zn54  1  0.74714400  0.37615900  0.21606300  1
  Zn  Zn55  1  0.24714400  0.12384100  0.27560300  1
  Zn  Zn56  1  0.74734900  0.12819600  0.37513000  1
  Zn  Zn57  1  0.50000000  0.29012200  0.36449500  1
  Zn  Zn58  1  0.75265100  0.37180400  0.31653700  1
  Zn  Zn59  1  0.25265100  0.12819600  0.37513000  1
  Zn  Zn60  1  0.50000000  0.50000000  0.29583300  1
  Zn  Zn61  1  0.00000000  0.38039100  0.36389800  1
  Zn  Zn62  1  0.50000000  0.11960900  0.32776900  1
  Zn  Zn63  1  0.00000000  0.25230400  0.39367700  1
  Zn  Zn64  1  0.50000000  0.00000000  0.49583300  1
  Zn  Zn65  1  0.50000000  0.53325400  0.42656000  1
  Zn  Zn66  1  0.50000000  0.70987800  0.42717200  1
  Zn  Zn67  1  0.50000000  0.62722100  0.52720500  1
  Zn  Zn68  1  0.00000000  0.87277900  0.56446200  1
  Zn  Zn69  1  0.74734900  0.87180400  0.41653700  1
  Zn  Zn70  1  0.75285600  0.87615900  0.51606300  1
  Zn  Zn71  1  0.00000000  0.96674600  0.46510600  1
  Zn  Zn72  1  0.00000000  0.74769600  0.39798900  1
  Zn  Zn73  1  0.25285600  0.62384100  0.57560300  1
  Zn  Zn74  1  0.24714400  0.87615900  0.51606300  1
  Zn  Zn75  1  0.74714400  0.62384100  0.57560300  1
  Zn  Zn76  1  0.24734900  0.62819600  0.47513000  1
  Zn  Zn77  1  0.00000000  0.79012200  0.46449500  1
  Zn  Zn78  1  0.25265100  0.87180400  0.41653700  1
  Zn  Zn79  1  0.75265100  0.62819600  0.47513000  1
  Zn  Zn80  1  0.00000000  0.00000000  0.59583300  1
  Zn  Zn81  1  0.50000000  0.88039100  0.46389800  1
  Zn  Zn82  1  0.00000000  0.61960900  0.42776900  1
  Zn  Zn83  1  0.50000000  0.75230400  0.49367700  1
  Zn  Zn84  1  0.00000000  0.50000000  0.59583300  1
  Zn  Zn85  1  0.00000000  0.03325400  0.52656000  1
  Zn  Zn86  1  0.00000000  0.20987800  0.52717200  1
  Zn  Zn87  1  0.00000000  0.12722100  0.42720500  1
  Zn  Zn88  1  0.50000000  0.37277900  0.46446200  1
  Zn  Zn89  1  0.24734900  0.37180400  0.51653700  1
  Zn  Zn90  1  0.25285600  0.37615900  0.41606300  1
  Zn  Zn91  1  0.50000000  0.46674600  0.56510600  1
  Zn  Zn92  1  0.50000000  0.24769600  0.49798900  1
  Zn  Zn93  1  0.75285600  0.12384100  0.47560300  1
  Zn  Zn94  1  0.74714400  0.37615900  0.41606300  1
  Zn  Zn95  1  0.24714400  0.12384100  0.47560300  1
  Zn  Zn96  1  0.74734900  0.12819600  0.57513000  1
  Zn  Zn97  1  0.50000000  0.29012200  0.56449500  1
  Zn  Zn98  1  0.75265100  0.37180400  0.51653700  1
  Zn  Zn99  1  0.25265100  0.12819600  0.57513000  1
  Zn  Zn100  1  0.50000000  0.50000000  0.49583300  1
  Zn  Zn101  1  0.00000000  0.38039100  0.56389800  1
  Zn  Zn102  1  0.50000000  0.11960900  0.52776900  1
  Zn  Zn103  1  0.00000000  0.25230400  0.59367700  1
  Zn  Zn104  1  0.50000000  1.00000000  0.69583300  1
  Zn  Zn105  1  0.50000000  0.53325400  0.62656000  1
  Zn  Zn106  1  0.50000000  0.70987800  0.62717200  1
  Zn  Zn107  1  0.50000000  0.62722100  0.72720500  1
  Zn  Zn108  1  0.00000000  0.87277900  0.76446200  1
  Zn  Zn109  1  0.74734900  0.87180400  0.61653700  1
  Zn  Zn110  1  0.75285600  0.87615900  0.71606300  1
  Zn  Zn111  1  0.00000000  0.96674600  0.66510600  1
  Zn  Zn112  1  0.00000000  0.74769600  0.59798900  1
  Zn  Zn113  1  0.25285600  0.62384100  0.77560300  1
  Zn  Zn114  1  0.24714400  0.87615900  0.71606300  1
  Zn  Zn115  1  0.74714400  0.62384100  0.77560300  1
  Zn  Zn116  1  0.24734900  0.62819600  0.67513000  1
  Zn  Zn117  1  0.00000000  0.79012200  0.66449500  1
  Zn  Zn118  1  0.25265100  0.87180400  0.61653700  1
  Zn  Zn119  1  0.75265100  0.62819600  0.67513000  1
  Zn  Zn120  1  0.50000000  0.88039100  0.66389800  1
  Zn  Zn121  1  0.00000000  0.61960900  0.62776900  1
  Zn  Zn122  1  0.50000000  0.75230400  0.69367700  1
  Zn  Zn123  1  0.00000000  0.03325400  0.72656000  1
  Zn  Zn124  1  0.00000000  0.20987800  0.72717200  1
  Zn  Zn125  1  1.00000000  0.12722100  0.62720500  1
  Zn  Zn126  1  0.50000000  0.37277900  0.66446200  1
  Zn  Zn127  1  0.24734900  0.37180400  0.71653700  1
  Zn  Zn128  1  0.25285600  0.37615900  0.61606300  1
  Zn  Zn129  1  0.50000000  0.46674600  0.76510600  1
  Zn  Zn130  1  0.50000000  0.24769600  0.69798900  1
  Zn  Zn131  1  0.75285600  0.12384100  0.67560300  1
  Zn  Zn132  1  0.74714400  0.37615900  0.61606300  1
  Zn  Zn133  1  0.24714400  0.12384100  0.67560300  1
  Zn  Zn134  1  0.74734900  0.12819600  0.77513000  1
  Zn  Zn135  1  0.50000000  0.29012200  0.76449500  1
  Zn  Zn136  1  0.75265100  0.37180400  0.71653700  1
  Zn  Zn137  1  0.25265100  0.12819600  0.77513000  1
  Zn  Zn138  1  0.50000000  0.50000000  0.69583300  1
  Zn  Zn139  1  0.00000000  0.38039100  0.76389800  1
  Zn  Zn140  1  0.50000000  0.11960900  0.72776900  1
  Zn  Zn141  1  0.00000000  0.25230400  0.79367700  1
