# generated using pymatgen
data_Mg58Zn103
_symmetry_space_group_name_H-M   'P 1'
_cell_length_a   13.26606209
_cell_length_b   14.70723619
_cell_length_c   50.02254400
_cell_angle_alpha   94.04592358
_cell_angle_beta   85.51984715
_cell_angle_gamma   104.27395804
_symmetry_Int_Tables_number   1
_chemical_formula_structural   Mg58Zn103
_chemical_formula_sum   'Mg116 Zn206'
_cell_volume   9416.24948960
_cell_formula_units_Z   2
loop_
 _symmetry_equiv_pos_site_id
 _symmetry_equiv_pos_as_xyz
  1  'x, y, z'
loop_
 _atom_site_type_symbol
 _atom_site_label
 _atom_site_symmetry_multiplicity
 _atom_site_fract_x
 _atom_site_fract_y
 _atom_site_fract_z
 _atom_site_occupancy
  Mg  Mg0  1  0.65592500  0.89982000  0.29485300  1
  Mg  Mg1  1  0.57424400  0.35231700  0.23730800  1
  Mg  Mg2  1  0.83438900  0.95641800  0.25125700  1
  Mg  Mg3  1  0.91542700  0.60215500  0.25566400  1
  Mg  Mg4  1  0.48792400  0.02805300  0.28560000  1
  Mg  Mg5  1  0.67694500  0.57654400  0.24336300  1
  Mg  Mg6  1  0.05461100  0.04358200  0.26328800  1
  Mg  Mg7  1  0.55561300  0.67618400  0.28952300  1
  Mg  Mg8  1  0.97357300  0.39784500  0.25888100  1
  Mg  Mg9  1  0.31475600  0.64768300  0.27723800  1
  Mg  Mg10  1  0.33338700  0.32381600  0.22502300  1
  Mg  Mg11  1  0.59198700  0.25117100  0.29138300  1
  Mg  Mg12  1  0.29701300  0.74882900  0.22316300  1
  Mg  Mg13  1  0.21205500  0.42345600  0.27118300  1
  Mg  Mg14  1  0.23307500  0.10018000  0.21969300  1
  Mg  Mg15  1  0.40107600  0.97194700  0.22894600  1
  Mg  Mg16  1  0.55592500  0.89982000  0.39485300  1
  Mg  Mg17  1  0.95986400  0.71342500  0.31114300  1
  Mg  Mg18  1  0.47424400  0.35231700  0.33730800  1
  Mg  Mg19  1  0.73438900  0.95641800  0.35125700  1
  Mg  Mg20  1  0.81542700  0.60215500  0.35566400  1
  Mg  Mg21  1  0.38792400  0.02805300  0.38560000  1
  Mg  Mg22  1  0.57694500  0.57654400  0.34336300  1
  Mg  Mg23  1  0.95461100  0.04358200  0.36328800  1
  Mg  Mg24  1  0.45561300  0.67618400  0.38952300  1
  Mg  Mg25  1  0.87357300  0.39784500  0.35888100  1
  Mg  Mg26  1  0.21475600  0.64768300  0.37723800  1
  Mg  Mg27  1  0.23338700  0.32381600  0.32502300  1
  Mg  Mg28  1  0.90728800  0.90491200  0.30809300  1
  Mg  Mg29  1  0.49198700  0.25117100  0.39138300  1
  Mg  Mg30  1  0.19701300  0.74882900  0.32316300  1
  Mg  Mg31  1  0.11205500  0.42345600  0.37118300  1
  Mg  Mg32  1  0.13307500  0.10018000  0.31969300  1
  Mg  Mg33  1  0.30107600  0.97194700  0.32894600  1
  Mg  Mg34  1  0.82913600  0.28657500  0.30340200  1
  Mg  Mg35  1  0.88171200  0.09508800  0.30645200  1
  Mg  Mg36  1  0.45592500  0.89982000  0.49485300  1
  Mg  Mg37  1  0.85986400  0.71342500  0.41114300  1
  Mg  Mg38  1  0.37424400  0.35231700  0.43730800  1
  Mg  Mg39  1  0.63438900  0.95641800  0.45125700  1
  Mg  Mg40  1  0.71542700  0.60215500  0.45566400  1
  Mg  Mg41  1  0.28792400  0.02805300  0.48560000  1
  Mg  Mg42  1  0.47694500  0.57654400  0.44336300  1
  Mg  Mg43  1  0.85461100  0.04358200  0.46328800  1
  Mg  Mg44  1  0.35561300  0.67618400  0.48952300  1
  Mg  Mg45  1  0.77357300  0.39784500  0.45888100  1
  Mg  Mg46  1  0.11475600  0.64768300  0.47723800  1
  Mg  Mg47  1  0.13338700  0.32381600  0.42502300  1
  Mg  Mg48  1  0.80728800  0.90491200  0.40809300  1
  Mg  Mg49  1  0.39198700  0.25117100  0.49138300  1
  Mg  Mg50  1  0.09701300  0.74882900  0.42316300  1
  Mg  Mg51  1  0.01205500  0.42345600  0.47118300  1
  Mg  Mg52  1  0.03307500  0.10018000  0.41969300  1
  Mg  Mg53  1  0.20107600  0.97194700  0.42894600  1
  Mg  Mg54  1  0.72913600  0.28657500  0.40340200  1
  Mg  Mg55  1  0.78171200  0.09508800  0.40645200  1
  Mg  Mg56  1  0.35592500  0.89982000  0.59485300  1
  Mg  Mg57  1  0.75986400  0.71342500  0.51114300  1
  Mg  Mg58  1  0.27424400  0.35231700  0.53730800  1
  Mg  Mg59  1  0.53438900  0.95641800  0.55125700  1
  Mg  Mg60  1  0.61542700  0.60215500  0.55566400  1
  Mg  Mg61  1  0.18792400  0.02805300  0.58560000  1
  Mg  Mg62  1  0.37694500  0.57654400  0.54336300  1
  Mg  Mg63  1  0.75461100  0.04358200  0.56328800  1
  Mg  Mg64  1  0.25561300  0.67618400  0.58952300  1
  Mg  Mg65  1  0.67357300  0.39784500  0.55888100  1
  Mg  Mg66  1  0.01475600  0.64768300  0.57723800  1
  Mg  Mg67  1  0.03338700  0.32381600  0.52502300  1
  Mg  Mg68  1  0.70728800  0.90491200  0.50809300  1
  Mg  Mg69  1  0.29198700  0.25117100  0.59138300  1
  Mg  Mg70  1  0.99701300  0.74882900  0.52316300  1
  Mg  Mg71  1  0.91205500  0.42345600  0.57118300  1
  Mg  Mg72  1  0.93307500  0.10018000  0.51969300  1
  Mg  Mg73  1  0.10107600  0.97194700  0.52894600  1
  Mg  Mg74  1  0.62913600  0.28657500  0.50340200  1
  Mg  Mg75  1  0.68171200  0.09508800  0.50645200  1
  Mg  Mg76  1  0.25592500  0.89982000  0.69485300  1
  Mg  Mg77  1  0.65986400  0.71342500  0.61114300  1
  Mg  Mg78  1  0.17424400  0.35231700  0.63730800  1
  Mg  Mg79  1  0.43438900  0.95641800  0.65125700  1
  Mg  Mg80  1  0.51542700  0.60215500  0.65566400  1
  Mg  Mg81  1  0.08792400  0.02805300  0.68560000  1
  Mg  Mg82  1  0.27694500  0.57654400  0.64336300  1
  Mg  Mg83  1  0.65461100  0.04358200  0.66328800  1
  Mg  Mg84  1  0.15561300  0.67618400  0.68952300  1
  Mg  Mg85  1  0.57357300  0.39784500  0.65888100  1
  Mg  Mg86  1  0.91475600  0.64768300  0.67723800  1
  Mg  Mg87  1  0.93338700  0.32381600  0.62502300  1
  Mg  Mg88  1  0.60728800  0.90491200  0.60809300  1
  Mg  Mg89  1  0.19198700  0.25117100  0.69138300  1
  Mg  Mg90  1  0.89701300  0.74882900  0.62316300  1
  Mg  Mg91  1  0.81205500  0.42345600  0.67118300  1
  Mg  Mg92  1  0.83307500  0.10018000  0.61969300  1
  Mg  Mg93  1  0.00107600  0.97194700  0.62894600  1
  Mg  Mg94  1  0.52913600  0.28657500  0.60340200  1
  Mg  Mg95  1  0.58171200  0.09508800  0.60645200  1
  Mg  Mg96  1  0.15592500  0.89982000  0.79485300  1
  Mg  Mg97  1  0.55986400  0.71342500  0.71114300  1
  Mg  Mg98  1  0.07424400  0.35231700  0.73730800  1
  Mg  Mg99  1  0.33438900  0.95641800  0.75125700  1
  Mg  Mg100  1  0.41542700  0.60215500  0.75566400  1
  Mg  Mg101  1  0.98792400  0.02805300  0.78560000  1
  Mg  Mg102  1  0.17694500  0.57654400  0.74336300  1
  Mg  Mg103  1  0.55461100  0.04358200  0.76328800  1
  Mg  Mg104  1  0.05561300  0.67618400  0.78952300  1
  Mg  Mg105  1  0.47357300  0.39784500  0.75888100  1
  Mg  Mg106  1  0.81475600  0.64768300  0.77723800  1
  Mg  Mg107  1  0.83338700  0.32381600  0.72502300  1
  Mg  Mg108  1  0.50728800  0.90491200  0.70809300  1
  Mg  Mg109  1  0.09198700  0.25117100  0.79138300  1
  Mg  Mg110  1  0.79701300  0.74882900  0.72316300  1
  Mg  Mg111  1  0.71205500  0.42345600  0.77118300  1
  Mg  Mg112  1  0.73307500  0.10018000  0.71969300  1
  Mg  Mg113  1  0.90107600  0.97194700  0.72894600  1
  Mg  Mg114  1  0.42913600  0.28657500  0.70340200  1
  Mg  Mg115  1  0.48171200  0.09508800  0.70645200  1
  Zn  Zn116  1  0.75083500  0.59229000  0.30014300  1
  Zn  Zn117  1  0.97839700  0.81738700  0.25913400  1
  Zn  Zn118  1  0.48276100  0.66285200  0.23260100  1
  Zn  Zn119  1  0.05693400  0.24831100  0.28957000  1
  Zn  Zn120  1  0.13865300  0.57676400  0.24168500  1
  Zn  Zn121  1  0.78559700  0.75046900  0.27553600  1
  Zn  Zn122  1  0.44450000  0.50000000  0.25727300  1
  Zn  Zn123  1  0.13816500  0.40771000  0.21440200  1
  Zn  Zn124  1  0.30080000  0.86290600  0.27594000  1
  Zn  Zn125  1  0.79934800  0.42312300  0.22348200  1
  Zn  Zn126  1  0.47348900  0.82447600  0.25915700  1
  Zn  Zn127  1  0.62028400  0.96319600  0.24030100  1
  Zn  Zn128  1  0.57433600  0.46639900  0.29037800  1
  Zn  Zn129  1  0.76342900  0.26762300  0.24716300  1
  Zn  Zn130  1  0.91060300  0.18261300  0.25541200  1
  Zn  Zn131  1  0.58820000  0.13709400  0.23860500  1
  Zn  Zn132  1  0.76929700  0.09965700  0.22077200  1
  Zn  Zn133  1  0.08965200  0.57687700  0.29106300  1
  Zn  Zn134  1  0.10340300  0.24953100  0.23900900  1
  Zn  Zn135  1  0.31466400  0.53360100  0.22416700  1
  Zn  Zn136  1  0.11970300  0.90034300  0.29377300  1
  Zn  Zn137  1  0.75034700  0.42323600  0.27286000  1
  Zn  Zn138  1  0.65621400  0.78453800  0.24268400  1
  Zn  Zn139  1  0.72046600  0.09783900  0.27224400  1
  Zn  Zn140  1  0.23278600  0.21546200  0.27186100  1
  Zn  Zn141  1  0.16853400  0.90216100  0.24230100  1
  Zn  Zn142  1  0.12557100  0.73237700  0.26738300  1
  Zn  Zn143  1  0.83206600  0.75168900  0.22497500  1
  Zn  Zn144  1  0.41551100  0.17552400  0.25538800  1
  Zn  Zn145  1  0.26871600  0.03680400  0.27424500  1
  Zn  Zn146  1  0.40624000  0.33714800  0.28194500  1
  Zn  Zn147  1  0.65083500  0.59229000  0.40014300  1
  Zn  Zn148  1  0.87839700  0.81738700  0.35913400  1
  Zn  Zn149  1  0.38276100  0.66285200  0.33260100  1
  Zn  Zn150  1  0.95693400  0.24831100  0.38957000  1
  Zn  Zn151  1  0.03865300  0.57676400  0.34168500  1
  Zn  Zn152  1  0.68559700  0.75046900  0.37553600  1
  Zn  Zn153  1  0.34450000  0.50000000  0.35727300  1
  Zn  Zn154  1  0.03816500  0.40771000  0.31440200  1
  Zn  Zn155  1  0.20080000  0.86290600  0.37594000  1
  Zn  Zn156  1  0.69934800  0.42312300  0.32348200  1
  Zn  Zn157  1  0.37348900  0.82447600  0.35915700  1
  Zn  Zn158  1  0.52028400  0.96319600  0.34030100  1
  Zn  Zn159  1  0.47433600  0.46639900  0.39037800  1
  Zn  Zn160  1  0.66342900  0.26762300  0.34716300  1
  Zn  Zn161  1  0.81060300  0.18261300  0.35541200  1
  Zn  Zn162  1  0.48820000  0.13709400  0.33860500  1
  Zn  Zn163  1  0.66929700  0.09965700  0.32077200  1
  Zn  Zn164  1  0.98965200  0.57687700  0.39106300  1
  Zn  Zn165  1  0.00340300  0.24953100  0.33900900  1
  Zn  Zn166  1  0.21466400  0.53360100  0.32416700  1
  Zn  Zn167  1  0.01970300  0.90034300  0.39377300  1
  Zn  Zn168  1  0.65034700  0.42323600  0.37286000  1
  Zn  Zn169  1  0.39450000  0.50000000  0.30727300  1
  Zn  Zn170  1  0.55621400  0.78453800  0.34268400  1
  Zn  Zn171  1  0.42246500  0.82500200  0.30867600  1
  Zn  Zn172  1  0.62046600  0.09783900  0.37224400  1
  Zn  Zn173  1  0.13278600  0.21546200  0.37186100  1
  Zn  Zn174  1  0.06853400  0.90216100  0.34230100  1
  Zn  Zn175  1  0.02557100  0.73237700  0.36738300  1
  Zn  Zn176  1  0.36653500  0.17499800  0.30587000  1
  Zn  Zn177  1  0.73206600  0.75168900  0.32497500  1
  Zn  Zn178  1  0.89450000  0.50000000  0.30727300  1
  Zn  Zn179  1  0.31551100  0.17552400  0.35538800  1
  Zn  Zn180  1  0.16871600  0.03680400  0.37424500  1
  Zn  Zn181  1  0.30624000  0.33714800  0.38194500  1
  Zn  Zn182  1  0.55083500  0.59229000  0.50014300  1
  Zn  Zn183  1  0.77839700  0.81738700  0.45913400  1
  Zn  Zn184  1  0.28276100  0.66285200  0.43260100  1
  Zn  Zn185  1  0.85693400  0.24831100  0.48957000  1
  Zn  Zn186  1  0.93865300  0.57676400  0.44168500  1
  Zn  Zn187  1  0.58559700  0.75046900  0.47553600  1
  Zn  Zn188  1  0.24450000  0.50000000  0.45727300  1
  Zn  Zn189  1  0.93816500  0.40771000  0.41440200  1
  Zn  Zn190  1  0.10080000  0.86290600  0.47594000  1
  Zn  Zn191  1  0.59934800  0.42312300  0.42348200  1
  Zn  Zn192  1  0.27348900  0.82447600  0.45915700  1
  Zn  Zn193  1  0.42028400  0.96319600  0.44030100  1
  Zn  Zn194  1  0.37433600  0.46639900  0.49037800  1
  Zn  Zn195  1  0.56342900  0.26762300  0.44716300  1
  Zn  Zn196  1  0.71060300  0.18261300  0.45541200  1
  Zn  Zn197  1  0.38820000  0.13709400  0.43860500  1
  Zn  Zn198  1  0.56929700  0.09965700  0.42077200  1
  Zn  Zn199  1  0.88965200  0.57687700  0.49106300  1
  Zn  Zn200  1  0.90340300  0.24953100  0.43900900  1
  Zn  Zn201  1  0.11466400  0.53360100  0.42416700  1
  Zn  Zn202  1  0.91970300  0.90034300  0.49377300  1
  Zn  Zn203  1  0.55034700  0.42323600  0.47286000  1
  Zn  Zn204  1  0.29450000  0.50000000  0.40727300  1
  Zn  Zn205  1  0.45621400  0.78453800  0.44268400  1
  Zn  Zn206  1  0.32246500  0.82500200  0.40867600  1
  Zn  Zn207  1  0.52046600  0.09783900  0.47224400  1
  Zn  Zn208  1  0.03278600  0.21546200  0.47186100  1
  Zn  Zn209  1  0.96853400  0.90216100  0.44230100  1
  Zn  Zn210  1  0.92557100  0.73237700  0.46738300  1
  Zn  Zn211  1  0.26653500  0.17499800  0.40587000  1
  Zn  Zn212  1  0.63206600  0.75168900  0.42497500  1
  Zn  Zn213  1  0.79450000  0.50000000  0.40727300  1
  Zn  Zn214  1  0.21551100  0.17552400  0.45538800  1
  Zn  Zn215  1  0.06871600  0.03680400  0.47424500  1
  Zn  Zn216  1  0.20624000  0.33714800  0.48194500  1
  Zn  Zn217  1  0.45083500  0.59229000  0.60014300  1
  Zn  Zn218  1  0.67839700  0.81738700  0.55913400  1
  Zn  Zn219  1  0.18276100  0.66285200  0.53260100  1
  Zn  Zn220  1  0.75693400  0.24831100  0.58957000  1
  Zn  Zn221  1  0.83865300  0.57676400  0.54168500  1
  Zn  Zn222  1  0.48559700  0.75046900  0.57553600  1
  Zn  Zn223  1  0.14450000  0.50000000  0.55727300  1
  Zn  Zn224  1  0.83816500  0.40771000  0.51440200  1
  Zn  Zn225  1  0.00080000  0.86290600  0.57594000  1
  Zn  Zn226  1  0.49934800  0.42312300  0.52348200  1
  Zn  Zn227  1  0.17348900  0.82447600  0.55915700  1
  Zn  Zn228  1  0.32028400  0.96319600  0.54030100  1
  Zn  Zn229  1  0.27433600  0.46639900  0.59037800  1
  Zn  Zn230  1  0.46342900  0.26762300  0.54716300  1
  Zn  Zn231  1  0.61060300  0.18261300  0.55541200  1
  Zn  Zn232  1  0.28820000  0.13709400  0.53860500  1
  Zn  Zn233  1  0.46929700  0.09965700  0.52077200  1
  Zn  Zn234  1  0.78965200  0.57687700  0.59106300  1
  Zn  Zn235  1  0.80340300  0.24953100  0.53900900  1
  Zn  Zn236  1  0.01466400  0.53360100  0.52416700  1
  Zn  Zn237  1  0.81970300  0.90034300  0.59377300  1
  Zn  Zn238  1  0.45034700  0.42323600  0.57286000  1
  Zn  Zn239  1  0.19450000  0.50000000  0.50727300  1
  Zn  Zn240  1  0.35621400  0.78453800  0.54268400  1
  Zn  Zn241  1  0.22246500  0.82500200  0.50867600  1
  Zn  Zn242  1  0.42046600  0.09783900  0.57224400  1
  Zn  Zn243  1  0.93278600  0.21546200  0.57186100  1
  Zn  Zn244  1  0.86853400  0.90216100  0.54230100  1
  Zn  Zn245  1  0.82557100  0.73237700  0.56738300  1
  Zn  Zn246  1  0.16653500  0.17499800  0.50587000  1
  Zn  Zn247  1  0.53206600  0.75168900  0.52497500  1
  Zn  Zn248  1  0.69450000  0.50000000  0.50727300  1
  Zn  Zn249  1  0.11551100  0.17552400  0.55538800  1
  Zn  Zn250  1  0.96871600  0.03680400  0.57424500  1
  Zn  Zn251  1  0.10624000  0.33714800  0.58194500  1
  Zn  Zn252  1  0.35083500  0.59229000  0.70014300  1
  Zn  Zn253  1  0.57839700  0.81738700  0.65913400  1
  Zn  Zn254  1  0.08276100  0.66285200  0.63260100  1
  Zn  Zn255  1  0.65693400  0.24831100  0.68957000  1
  Zn  Zn256  1  0.73865300  0.57676400  0.64168500  1
  Zn  Zn257  1  0.38559700  0.75046900  0.67553600  1
  Zn  Zn258  1  0.04450000  0.50000000  0.65727300  1
  Zn  Zn259  1  0.73816500  0.40771000  0.61440200  1
  Zn  Zn260  1  0.90080000  0.86290600  0.67594000  1
  Zn  Zn261  1  0.39934800  0.42312300  0.62348200  1
  Zn  Zn262  1  0.07348900  0.82447600  0.65915700  1
  Zn  Zn263  1  0.22028400  0.96319600  0.64030100  1
  Zn  Zn264  1  0.17433600  0.46639900  0.69037800  1
  Zn  Zn265  1  0.36342900  0.26762300  0.64716300  1
  Zn  Zn266  1  0.51060300  0.18261300  0.65541200  1
  Zn  Zn267  1  0.18820000  0.13709400  0.63860500  1
  Zn  Zn268  1  0.36929700  0.09965700  0.62077200  1
  Zn  Zn269  1  0.68965200  0.57687700  0.69106300  1
  Zn  Zn270  1  0.70340300  0.24953100  0.63900900  1
  Zn  Zn271  1  0.91466400  0.53360100  0.62416700  1
  Zn  Zn272  1  0.71970300  0.90034300  0.69377300  1
  Zn  Zn273  1  0.35034700  0.42323600  0.67286000  1
  Zn  Zn274  1  0.09450000  0.50000000  0.60727300  1
  Zn  Zn275  1  0.25621400  0.78453800  0.64268400  1
  Zn  Zn276  1  0.12246500  0.82500200  0.60867600  1
  Zn  Zn277  1  0.32046600  0.09783900  0.67224400  1
  Zn  Zn278  1  0.83278600  0.21546200  0.67186100  1
  Zn  Zn279  1  0.76853400  0.90216100  0.64230100  1
  Zn  Zn280  1  0.72557100  0.73237700  0.66738300  1
  Zn  Zn281  1  0.06653500  0.17499800  0.60587000  1
  Zn  Zn282  1  0.43206600  0.75168900  0.62497500  1
  Zn  Zn283  1  0.59450000  0.50000000  0.60727300  1
  Zn  Zn284  1  0.01551100  0.17552400  0.65538800  1
  Zn  Zn285  1  0.86871600  0.03680400  0.67424500  1
  Zn  Zn286  1  0.00624000  0.33714800  0.68194500  1
  Zn  Zn287  1  0.25083500  0.59229000  0.80014300  1
  Zn  Zn288  1  0.47839700  0.81738700  0.75913400  1
  Zn  Zn289  1  0.98276100  0.66285200  0.73260100  1
  Zn  Zn290  1  0.55693400  0.24831100  0.78957000  1
  Zn  Zn291  1  0.63865300  0.57676400  0.74168500  1
  Zn  Zn292  1  0.28559700  0.75046900  0.77553600  1
  Zn  Zn293  1  0.94450000  0.50000000  0.75727300  1
  Zn  Zn294  1  0.63816500  0.40771000  0.71440200  1
  Zn  Zn295  1  0.80080000  0.86290600  0.77594000  1
  Zn  Zn296  1  0.29934800  0.42312300  0.72348200  1
  Zn  Zn297  1  0.97348900  0.82447600  0.75915700  1
  Zn  Zn298  1  0.12028400  0.96319600  0.74030100  1
  Zn  Zn299  1  0.07433600  0.46639900  0.79037800  1
  Zn  Zn300  1  0.26342900  0.26762300  0.74716300  1
  Zn  Zn301  1  0.41060300  0.18261300  0.75541200  1
  Zn  Zn302  1  0.08820000  0.13709400  0.73860500  1
  Zn  Zn303  1  0.26929700  0.09965700  0.72077200  1
  Zn  Zn304  1  0.58965200  0.57687700  0.79106300  1
  Zn  Zn305  1  0.60340300  0.24953100  0.73900900  1
  Zn  Zn306  1  0.81466400  0.53360100  0.72416700  1
  Zn  Zn307  1  0.61970300  0.90034300  0.79377300  1
  Zn  Zn308  1  0.25034700  0.42323600  0.77286000  1
  Zn  Zn309  1  0.99450000  0.50000000  0.70727300  1
  Zn  Zn310  1  0.15621400  0.78453800  0.74268400  1
  Zn  Zn311  1  0.02246500  0.82500200  0.70867600  1
  Zn  Zn312  1  0.22046600  0.09783900  0.77224400  1
  Zn  Zn313  1  0.73278600  0.21546200  0.77186100  1
  Zn  Zn314  1  0.66853400  0.90216100  0.74230100  1
  Zn  Zn315  1  0.62557100  0.73237700  0.76738300  1
  Zn  Zn316  1  0.96653500  0.17499800  0.70587000  1
  Zn  Zn317  1  0.33206600  0.75168900  0.72497500  1
  Zn  Zn318  1  0.49450000  0.50000000  0.70727300  1
  Zn  Zn319  1  0.91551100  0.17552400  0.75538800  1
  Zn  Zn320  1  0.76871600  0.03680400  0.77424500  1
  Zn  Zn321  1  0.90624000  0.33714800  0.78194500  1
