# generated using pymatgen
data_Mg14Zn73
_symmetry_space_group_name_H-M   'P 1'
_cell_length_a   4.98183571
_cell_length_b   9.87228479
_cell_length_c   49.62169200
_cell_angle_alpha   87.16066620
_cell_angle_beta   87.12264785
_cell_angle_gamma   75.38550100
_symmetry_Int_Tables_number   1
_chemical_formula_structural   Mg14Zn73
_chemical_formula_sum   'Mg14 Zn73'
_cell_volume   2356.84330036
_cell_formula_units_Z   1
loop_
 _symmetry_equiv_pos_site_id
 _symmetry_equiv_pos_as_xyz
  1  'x, y, z'
loop_
 _atom_site_type_symbol
 _atom_site_label
 _atom_site_symmetry_multiplicity
 _atom_site_fract_x
 _atom_site_fract_y
 _atom_site_fract_z
 _atom_site_occupancy
  Mg  Mg0  1  0.37913600  0.55561400  0.68611500  1
  Mg  Mg1  1  0.38706200  0.47449000  0.75138500  1
  Mg  Mg2  1  0.54056200  0.26242600  0.65645000  1
  Mg  Mg3  1  0.05897000  0.26767700  0.61438400  1
  Mg  Mg4  1  0.21246900  0.05561400  0.51944800  1
  Mg  Mg5  1  0.22039600  0.97449000  0.58471900  1
  Mg  Mg6  1  0.37389500  0.76242600  0.48978300  1
  Mg  Mg7  1  0.89230300  0.76767700  0.44771700  1
  Mg  Mg8  1  0.04580200  0.55561400  0.35278100  1
  Mg  Mg9  1  0.05372900  0.47449000  0.41805200  1
  Mg  Mg10  1  0.20722900  0.26242600  0.32311600  1
  Mg  Mg11  1  0.72563600  0.26767700  0.28105000  1
  Mg  Mg12  1  0.87913600  0.05561400  0.18611500  1
  Mg  Mg13  1  0.88706200  0.97449000  0.25138500  1
  Zn  Zn14  1  0.65098300  0.00152300  0.69651200  1
  Zn  Zn15  1  0.80322400  0.62745500  0.76609600  1
  Zn  Zn16  1  0.96297400  0.40264800  0.67140400  1
  Zn  Zn17  1  0.75453100  0.27100000  0.71463700  1
  Zn  Zn18  1  0.09514900  0.13120600  0.67849600  1
  Zn  Zn19  1  0.50636600  0.75910400  0.72286300  1
  Zn  Zn20  1  0.11521500  0.02858100  0.74098800  1
  Zn  Zn21  1  0.25983200  0.27100000  0.71463700  1
  Zn  Zn22  1  0.01166700  0.75910400  0.72286300  1
  Zn  Zn23  1  0.88309900  0.51505200  0.71875000  1
  Zn  Zn24  1  0.53949400  0.16547700  0.75553600  1
  Zn  Zn25  1  0.22670400  0.86462700  0.68196400  1
  Zn  Zn26  1  0.67104900  0.89889700  0.75900400  1
  Zn  Zn27  1  0.29976600  0.76505200  0.63541700  1
  Zn  Zn28  1  0.79766000  0.73811500  0.66656500  1
  Zn  Zn29  1  0.48431600  0.50152300  0.52984500  1
  Zn  Zn30  1  0.63655800  0.12745500  0.59943000  1
  Zn  Zn31  1  0.79630700  0.90264800  0.50473700  1
  Zn  Zn32  1  0.58786400  0.77100000  0.54797000  1
  Zn  Zn33  1  0.67268100  0.52871600  0.63163500  1
  Zn  Zn34  1  0.80187100  0.79198800  0.60426900  1
  Zn  Zn35  1  0.92848200  0.63120600  0.51182900  1
  Zn  Zn36  1  0.43256300  0.00138800  0.63919900  1
  Zn  Zn37  1  0.16696900  0.52871600  0.63163500  1
  Zn  Zn38  1  0.92685100  0.00138800  0.63919900  1
  Zn  Zn39  1  0.33969900  0.25910400  0.55619700  1
  Zn  Zn40  1  0.94854900  0.52858100  0.57432100  1
  Zn  Zn41  1  0.09316600  0.77100000  0.54797000  1
  Zn  Zn42  1  0.84500000  0.25910400  0.55619700  1
  Zn  Zn43  1  0.71643200  0.01505200  0.55208300  1
  Zn  Zn44  1  0.37282700  0.66547700  0.58886900  1
  Zn  Zn45  1  0.06003800  0.36462700  0.51529800  1
  Zn  Zn46  1  0.50438300  0.39889700  0.59233700  1
  Zn  Zn47  1  0.13309900  0.26505200  0.46875000  1
  Zn  Zn48  1  0.63099300  0.23811500  0.49989800  1
  Zn  Zn49  1  0.31764900  0.00152300  0.36317900  1
  Zn  Zn50  1  0.46989100  0.62745500  0.43276300  1
  Zn  Zn51  1  0.62964100  0.40264800  0.33807000  1
  Zn  Zn52  1  0.42119800  0.27100000  0.38130300  1
  Zn  Zn53  1  0.50601400  0.02871600  0.46496800  1
  Zn  Zn54  1  0.63520500  0.29198800  0.43760200  1
  Zn  Zn55  1  0.76181500  0.13120600  0.34516300  1
  Zn  Zn56  1  0.26589600  0.50138800  0.47253200  1
  Zn  Zn57  1  0.00030200  0.02871600  0.46496800  1
  Zn  Zn58  1  0.76018400  0.50138800  0.47253200  1
  Zn  Zn59  1  0.17303300  0.75910400  0.38953000  1
  Zn  Zn60  1  0.78188200  0.02858100  0.40765500  1
  Zn  Zn61  1  0.92649900  0.27100000  0.38130300  1
  Zn  Zn62  1  0.67833400  0.75910400  0.38953000  1
  Zn  Zn63  1  0.54976600  0.51505200  0.38541700  1
  Zn  Zn64  1  0.20616000  0.16547700  0.42220200  1
  Zn  Zn65  1  0.89337100  0.86462700  0.34863100  1
  Zn  Zn66  1  0.33771600  0.89889700  0.42567100  1
  Zn  Zn67  1  0.96643200  0.76505200  0.30208300  1
  Zn  Zn68  1  0.46432700  0.73811500  0.33323100  1
  Zn  Zn69  1  0.15098300  0.50152300  0.19651200  1
  Zn  Zn70  1  0.30322400  0.12745500  0.26609600  1
  Zn  Zn71  1  0.46297400  0.90264800  0.17140400  1
  Zn  Zn72  1  0.25453100  0.77100000  0.21463700  1
  Zn  Zn73  1  0.33934700  0.52871600  0.29830100  1
  Zn  Zn74  1  0.46853800  0.79198800  0.27093500  1
  Zn  Zn75  1  0.59514900  0.63120600  0.17849600  1
  Zn  Zn76  1  0.09922900  0.00138800  0.30586500  1
  Zn  Zn77  1  0.83363600  0.52871600  0.29830100  1
  Zn  Zn78  1  0.59351800  0.00138800  0.30586500  1
  Zn  Zn79  1  0.00636600  0.25910400  0.22286300  1
  Zn  Zn80  1  0.61521500  0.52858100  0.24098800  1
  Zn  Zn81  1  0.75983200  0.77100000  0.21463700  1
  Zn  Zn82  1  0.51166700  0.25910400  0.22286300  1
  Zn  Zn83  1  0.38309900  0.01505200  0.21875000  1
  Zn  Zn84  1  0.03949400  0.66547700  0.25553600  1
  Zn  Zn85  1  0.72670400  0.36462700  0.18196400  1
  Zn  Zn86  1  0.17104900  0.39889700  0.25900400  1
