# generated using pymatgen
data_Mg3Tl
_symmetry_space_group_name_H-M   'P 1'
_cell_length_a   6.45355286
_cell_length_b   8.28726982
_cell_length_c   42.00495400
_cell_angle_alpha   90.72595205
_cell_angle_beta   94.40574067
_cell_angle_gamma   67.08497775
_symmetry_Int_Tables_number   1
_chemical_formula_structural   Mg3Tl
_chemical_formula_sum   'Mg42 Tl14'
_cell_volume   2062.75684752
_cell_formula_units_Z   14
loop_
 _symmetry_equiv_pos_site_id
 _symmetry_equiv_pos_as_xyz
  1  'x, y, z'
loop_
 _atom_site_type_symbol
 _atom_site_label
 _atom_site_symmetry_multiplicity
 _atom_site_fract_x
 _atom_site_fract_y
 _atom_site_fract_z
 _atom_site_occupancy
  Mg  Mg0  1  0.05960700  0.93353200  0.23456300  1
  Mg  Mg1  1  0.65437100  0.20368900  0.18953700  1
  Mg  Mg2  1  0.14965900  0.20368900  0.18953700  1
  Mg  Mg3  1  0.66852300  0.25085700  0.26500900  1
  Mg  Mg4  1  0.16381100  0.25085700  0.26500900  1
  Mg  Mg5  1  0.75857500  0.52101400  0.21998300  1
  Mg  Mg6  1  0.87778800  0.38807700  0.32547200  1
  Mg  Mg7  1  0.47255300  0.65823400  0.28044600  1
  Mg  Mg8  1  0.96784100  0.65823400  0.28044600  1
  Mg  Mg9  1  0.48670500  0.70540200  0.35591800  1
  Mg  Mg10  1  0.98199300  0.70540200  0.35591800  1
  Mg  Mg11  1  0.57675700  0.97555900  0.31089200  1
  Mg  Mg12  1  0.69597000  0.84262200  0.41638100  1
  Mg  Mg13  1  0.29073400  0.11278000  0.37135500  1
  Mg  Mg14  1  0.78602300  0.11278000  0.37135500  1
  Mg  Mg15  1  0.30488600  0.15994800  0.44682700  1
  Mg  Mg16  1  0.80017500  0.15994800  0.44682700  1
  Mg  Mg17  1  0.39493900  0.43010500  0.40180100  1
  Mg  Mg18  1  0.51415200  0.29716800  0.50729000  1
  Mg  Mg19  1  0.10891600  0.56732500  0.46226400  1
  Mg  Mg20  1  0.60420400  0.56732500  0.46226400  1
  Mg  Mg21  1  0.12306800  0.61449300  0.53773600  1
  Mg  Mg22  1  0.61835700  0.61449300  0.53773600  1
  Mg  Mg23  1  0.21312100  0.88465000  0.49271000  1
  Mg  Mg24  1  0.33233400  0.75171300  0.59819900  1
  Mg  Mg25  1  0.92709800  0.02187100  0.55317300  1
  Mg  Mg26  1  0.42238600  0.02187100  0.55317300  1
  Mg  Mg27  1  0.94125000  0.06903800  0.62864500  1
  Mg  Mg28  1  0.43653800  0.06903800  0.62864500  1
  Mg  Mg29  1  0.03130200  0.33919600  0.58361900  1
  Mg  Mg30  1  0.15051600  0.20625900  0.68910800  1
  Mg  Mg31  1  0.74528000  0.47641600  0.64408200  1
  Mg  Mg32  1  0.24056800  0.47641600  0.64408200  1
  Mg  Mg33  1  0.75943200  0.52358400  0.71955400  1
  Mg  Mg34  1  0.25472000  0.52358400  0.71955400  1
  Mg  Mg35  1  0.84948400  0.79374100  0.67452800  1
  Mg  Mg36  1  0.96869800  0.66080400  0.78001700  1
  Mg  Mg37  1  0.56346200  0.93096200  0.73499100  1
  Mg  Mg38  1  0.05875000  0.93096200  0.73499100  1
  Mg  Mg39  1  0.57761400  0.97812900  0.81046300  1
  Mg  Mg40  1  0.07290200  0.97812900  0.81046300  1
  Mg  Mg41  1  0.66766600  0.24828700  0.76543700  1
  Tl  Tl42  1  0.56060600  0.93181800  0.23484800  1
  Tl  Tl43  1  0.25757600  0.52272700  0.21969700  1
  Tl  Tl44  1  0.37878800  0.38636400  0.32575800  1
  Tl  Tl45  1  0.07575800  0.97727300  0.31060600  1
  Tl  Tl46  1  0.19697000  0.84090900  0.41666700  1
  Tl  Tl47  1  0.89393900  0.43181800  0.40151500  1
  Tl  Tl48  1  0.01515200  0.29545500  0.50757600  1
  Tl  Tl49  1  0.71212100  0.88636400  0.49242400  1
  Tl  Tl50  1  0.83333300  0.75000000  0.59848500  1
  Tl  Tl51  1  0.53030300  0.34090900  0.58333300  1
  Tl  Tl52  1  0.65151500  0.20454500  0.68939400  1
  Tl  Tl53  1  0.34848500  0.79545500  0.67424200  1
  Tl  Tl54  1  0.46969700  0.65909100  0.78030300  1
  Tl  Tl55  1  0.16666700  0.25000000  0.76515200  1
