# generated using pymatgen
data_Mg7Zn12
_symmetry_space_group_name_H-M   'P 1'
_cell_length_a   5.07402209
_cell_length_b   22.10207791
_cell_length_c   42.67993100
_cell_angle_alpha   98.00895109
_cell_angle_beta   93.24549340
_cell_angle_gamma   83.83945518
_symmetry_Int_Tables_number   1
_chemical_formula_structural   Mg7Zn12
_chemical_formula_sum   'Mg42 Zn72'
_cell_volume   4708.12433190
_cell_formula_units_Z   6
loop_
 _symmetry_equiv_pos_site_id
 _symmetry_equiv_pos_as_xyz
  1  'x, y, z'
loop_
 _atom_site_type_symbol
 _atom_site_label
 _atom_site_symmetry_multiplicity
 _atom_site_fract_x
 _atom_site_fract_y
 _atom_site_fract_z
 _atom_site_occupancy
  Mg  Mg0  1  0.00350400  0.25539000  0.40030800  1
  Mg  Mg1  1  0.61936500  0.99034800  0.38514700  1
  Mg  Mg2  1  0.36539800  0.58257900  0.46296200  1
  Mg  Mg3  1  0.22926400  0.82250800  0.43619500  1
  Mg  Mg4  1  0.80350400  0.85539000  0.60030800  1
  Mg  Mg5  1  0.83964800  0.60256700  0.42466900  1
  Mg  Mg6  1  0.74181300  0.84930400  0.47843300  1
  Mg  Mg7  1  0.44812500  0.43473800  0.47276600  1
  Mg  Mg8  1  0.80954900  0.76435600  0.53371100  1
  Mg  Mg9  1  0.58322100  0.24317100  0.56078500  1
  Mg  Mg10  1  0.35284200  0.67450400  0.52881800  1
  Mg  Mg11  1  0.68105600  0.99643400  0.50702200  1
  Mg  Mg12  1  0.41936500  0.59034800  0.58514700  1
  Mg  Mg13  1  0.07002700  0.17123400  0.45663700  1
  Mg  Mg14  1  0.28693300  0.68536600  0.40902300  1
  Mg  Mg15  1  0.45688700  0.34480500  0.40617400  1
  Mg  Mg16  1  0.96598200  0.50093300  0.57928100  1
  Mg  Mg17  1  0.61332000  0.08138200  0.45174300  1
  Mg  Mg18  1  0.05747100  0.26315900  0.52249200  1
  Mg  Mg19  1  0.97474400  0.41100000  0.51268800  1
  Mg  Mg20  1  0.19360500  0.02323000  0.54925900  1
  Mg  Mg21  1  0.13593600  0.16037200  0.57643100  1
  Mg  Mg22  1  0.16539800  0.18257900  0.66296200  1
  Mg  Mg23  1  0.02926400  0.42250800  0.63619500  1
  Mg  Mg24  1  0.60350400  0.45539000  0.80030800  1
  Mg  Mg25  1  0.63964800  0.20256700  0.62466900  1
  Mg  Mg26  1  0.54181300  0.44930400  0.67843300  1
  Mg  Mg27  1  0.24812500  0.03473800  0.67276600  1
  Mg  Mg28  1  0.60954900  0.36435600  0.73371100  1
  Mg  Mg29  1  0.38322100  0.84317100  0.76078500  1
  Mg  Mg30  1  0.15284200  0.27450400  0.72881800  1
  Mg  Mg31  1  0.48105600  0.59643400  0.70702200  1
  Mg  Mg32  1  0.21936500  0.19034800  0.78514700  1
  Mg  Mg33  1  0.87002700  0.77123400  0.65663700  1
  Mg  Mg34  1  0.08693300  0.28536600  0.60902300  1
  Mg  Mg35  1  0.25688700  0.94480500  0.60617400  1
  Mg  Mg36  1  0.76598200  0.10093300  0.77928100  1
  Mg  Mg37  1  0.41332000  0.68138200  0.65174300  1
  Mg  Mg38  1  0.85747100  0.86315900  0.72249200  1
  Mg  Mg39  1  0.77474400  0.01100000  0.71268800  1
  Mg  Mg40  1  0.99360500  0.62323000  0.74925900  1
  Mg  Mg41  1  0.93593600  0.76037200  0.77643100  1
  Zn  Zn42  1  0.81143500  0.12286900  0.39272700  1
  Zn  Zn43  1  0.31143500  0.12286900  0.39272700  1
  Zn  Zn44  1  0.27103000  0.80717700  0.50442800  1
  Zn  Zn45  1  0.76345500  0.74674000  0.42209800  1
  Zn  Zn46  1  0.89344100  0.63059300  0.55743900  1
  Zn  Zn47  1  0.36707000  0.13177500  0.51411900  1
  Zn  Zn48  1  0.91837500  0.94823700  0.44166100  1
  Zn  Zn49  1  0.55076800  0.71633200  0.47076100  1
  Zn  Zn50  1  0.61143500  0.72286900  0.59272700  1
  Zn  Zn51  1  0.15183900  0.03856100  0.48102600  1
  Zn  Zn52  1  0.47233200  0.45511200  0.54515300  1
  Zn  Zn53  1  0.99817500  0.89741800  0.54389100  1
  Zn  Zn54  1  0.66365900  0.54053300  0.52165700  1
  Zn  Zn55  1  0.90555500  0.50847600  0.46832600  1
  Zn  Zn56  1  0.30624800  0.80820600  0.56685900  1
  Zn  Zn57  1  0.72782200  0.98582300  0.57743900  1
  Zn  Zn58  1  0.65941400  0.09899800  0.56335600  1
  Zn  Zn59  1  0.95053700  0.39062600  0.44030200  1
  Zn  Zn60  1  0.15403000  0.47839300  0.41513700  1
  Zn  Zn61  1  0.42469500  0.94832000  0.44156300  1
  Zn  Zn62  1  0.87210100  0.12940600  0.51469300  1
  Zn  Zn63  1  0.11662100  0.03753200  0.41859500  1
  Zn  Zn64  1  0.26883900  0.36734500  0.57031800  1
  Zn  Zn65  1  0.50449400  0.89750100  0.54379300  1
  Zn  Zn66  1  0.11143500  0.72286900  0.59272700  1
  Zn  Zn67  1  0.85365400  0.63099600  0.49639500  1
  Zn  Zn68  1  0.16827800  0.53961500  0.52185300  1
  Zn  Zn69  1  0.63947400  0.48054100  0.41497200  1
  Zn  Zn70  1  0.56921500  0.21474200  0.48906000  1
  Zn  Zn71  1  0.78339500  0.36519700  0.57048300  1
  Zn  Zn72  1  0.69504700  0.85991500  0.40801600  1
  Zn  Zn73  1  0.25459100  0.30612300  0.46360100  1
  Zn  Zn74  1  0.05579900  0.71396300  0.47133600  1
  Zn  Zn75  1  0.21143500  0.92286900  0.49272700  1
  Zn  Zn76  1  0.75921000  0.30520500  0.46379700  1
  Zn  Zn77  1  0.51731400  0.33726200  0.51712900  1
  Zn  Zn78  1  0.52942800  0.21514500  0.42801500  1
  Zn  Zn79  1  0.07103000  0.40717700  0.70442800  1
  Zn  Zn80  1  0.56345500  0.34674000  0.62209800  1
  Zn  Zn81  1  0.69344100  0.23059300  0.75743900  1
  Zn  Zn82  1  0.16707000  0.73177500  0.71411900  1
  Zn  Zn83  1  0.71837500  0.54823700  0.64166100  1
  Zn  Zn84  1  0.35076800  0.31633200  0.67076100  1
  Zn  Zn85  1  0.41143500  0.32286900  0.79272700  1
  Zn  Zn86  1  0.95183900  0.63856100  0.68102600  1
  Zn  Zn87  1  0.27233200  0.05511200  0.74515300  1
  Zn  Zn88  1  0.79817500  0.49741800  0.74389100  1
  Zn  Zn89  1  0.46365900  0.14053300  0.72165700  1
  Zn  Zn90  1  0.70555500  0.10847600  0.66832600  1
  Zn  Zn91  1  0.10624800  0.40820600  0.76685900  1
  Zn  Zn92  1  0.52782200  0.58582300  0.77743900  1
  Zn  Zn93  1  0.45941400  0.69899800  0.76335600  1
  Zn  Zn94  1  0.75053700  0.99062600  0.64030200  1
  Zn  Zn95  1  0.95403000  0.07839300  0.61513700  1
  Zn  Zn96  1  0.22469500  0.54832000  0.64156300  1
  Zn  Zn97  1  0.67210100  0.72940600  0.71469300  1
  Zn  Zn98  1  0.91662100  0.63753200  0.61859500  1
  Zn  Zn99  1  0.06883900  0.96734500  0.77031800  1
  Zn  Zn100  1  0.30449400  0.49750100  0.74379300  1
  Zn  Zn101  1  0.91143500  0.32286900  0.79272700  1
  Zn  Zn102  1  0.65365400  0.23099600  0.69639500  1
  Zn  Zn103  1  0.96827800  0.13961500  0.72185300  1
  Zn  Zn104  1  0.43947400  0.08054100  0.61497200  1
  Zn  Zn105  1  0.36921500  0.81474200  0.68906000  1
  Zn  Zn106  1  0.58339500  0.96519700  0.77048300  1
  Zn  Zn107  1  0.49504700  0.45991500  0.60801600  1
  Zn  Zn108  1  0.05459100  0.90612300  0.66360100  1
  Zn  Zn109  1  0.85579900  0.31396300  0.67133600  1
  Zn  Zn110  1  0.01143500  0.52286900  0.69272700  1
  Zn  Zn111  1  0.55921000  0.90520500  0.66379700  1
  Zn  Zn112  1  0.31731400  0.93726200  0.71712900  1
  Zn  Zn113  1  0.32942800  0.81514500  0.62801500  1
