# generated using pymatgen
data_MgSn
_symmetry_space_group_name_H-M   'P 1'
_cell_length_a   3.31748500
_cell_length_b   5.53151623
_cell_length_c   42.49566300
_cell_angle_alpha   88.17291174
_cell_angle_beta   90.00000000
_cell_angle_gamma   90.00000000
_symmetry_Int_Tables_number   1
_chemical_formula_structural   MgSn
_chemical_formula_sum   'Mg10 Sn10'
_cell_volume   779.42963843
_cell_formula_units_Z   10
loop_
 _symmetry_equiv_pos_site_id
 _symmetry_equiv_pos_as_xyz
  1  'x, y, z'
loop_
 _atom_site_type_symbol
 _atom_site_label
 _atom_site_symmetry_multiplicity
 _atom_site_fract_x
 _atom_site_fract_y
 _atom_site_fract_z
 _atom_site_occupancy
  Mg  Mg0  1  0.00000000  0.81250000  0.21875000  1
  Mg  Mg1  1  0.00000000  0.43750000  0.28125000  1
  Mg  Mg2  1  0.00000000  0.06250000  0.34375000  1
  Mg  Mg3  1  0.00000000  0.68750000  0.40625000  1
  Mg  Mg4  1  0.00000000  0.31250000  0.46875000  1
  Mg  Mg5  1  0.00000000  0.93750000  0.53125000  1
  Mg  Mg6  1  0.00000000  0.56250000  0.59375000  1
  Mg  Mg7  1  0.00000000  0.18750000  0.65625000  1
  Mg  Mg8  1  0.00000000  0.81250000  0.71875000  1
  Mg  Mg9  1  0.00000000  0.43750000  0.78125000  1
  Sn  Sn10  1  0.50000000  0.31250000  0.21875000  1
  Sn  Sn11  1  0.50000000  0.93750000  0.28125000  1
  Sn  Sn12  1  0.50000000  0.56250000  0.34375000  1
  Sn  Sn13  1  0.50000000  0.18750000  0.40625000  1
  Sn  Sn14  1  0.50000000  0.81250000  0.46875000  1
  Sn  Sn15  1  0.50000000  0.43750000  0.53125000  1
  Sn  Sn16  1  0.50000000  0.06250000  0.59375000  1
  Sn  Sn17  1  0.50000000  0.68750000  0.65625000  1
  Sn  Sn18  1  0.50000000  0.31250000  0.71875000  1
  Sn  Sn19  1  0.50000000  0.93750000  0.78125000  1
