# generated using pymatgen
data_Mg2Hg
_symmetry_space_group_name_H-M   'P 1'
_cell_length_a   8.61312000
_cell_length_b   7.97718687
_cell_length_c   42.00342800
_cell_angle_alpha   89.00209837
_cell_angle_beta   90.00000000
_cell_angle_gamma   90.00000000
_symmetry_Int_Tables_number   1
_chemical_formula_structural   Mg2Hg
_chemical_formula_sum   'Mg56 Hg28'
_cell_volume   2885.55347167
_cell_formula_units_Z   28
loop_
 _symmetry_equiv_pos_site_id
 _symmetry_equiv_pos_as_xyz
  1  'x, y, z'
loop_
 _atom_site_type_symbol
 _atom_site_label
 _atom_site_symmetry_multiplicity
 _atom_site_fract_x
 _atom_site_fract_y
 _atom_site_fract_z
 _atom_site_occupancy
  Mg  Mg0  1  0.78854300  0.42983900  0.20750900  1
  Mg  Mg1  1  0.21145700  0.20652400  0.24703600  1
  Mg  Mg2  1  0.71145700  0.74802100  0.25296400  1
  Mg  Mg3  1  0.28854300  0.88834300  0.20158100  1
  Mg  Mg4  1  0.56198000  0.11432000  0.23386400  1
  Mg  Mg5  1  0.43802000  0.52204400  0.22068200  1
  Mg  Mg6  1  0.93802000  0.79613800  0.18840900  1
  Mg  Mg7  1  0.06198000  0.84022600  0.26613600  1
  Mg  Mg8  1  0.78854300  0.06620300  0.29841900  1
  Mg  Mg9  1  0.21145700  0.84288800  0.33794500  1
  Mg  Mg10  1  0.71145700  0.38438500  0.34387300  1
  Mg  Mg11  1  0.28854300  0.52470600  0.29249100  1
  Mg  Mg12  1  0.56198000  0.75068300  0.32477300  1
  Mg  Mg13  1  0.43802000  0.15840800  0.31159100  1
  Mg  Mg14  1  0.93802000  0.43250200  0.27931800  1
  Mg  Mg15  1  0.06198000  0.47658900  0.35704500  1
  Mg  Mg16  1  0.78854300  0.70256600  0.38932800  1
  Mg  Mg17  1  0.21145700  0.47925200  0.42885400  1
  Mg  Mg18  1  0.71145700  0.02074800  0.43478200  1
  Mg  Mg19  1  0.28854300  0.16107000  0.38340000  1
  Mg  Mg20  1  0.56198000  0.38704700  0.41568200  1
  Mg  Mg21  1  0.43802000  0.79477100  0.40250000  1
  Mg  Mg22  1  0.93802000  0.06886500  0.37022700  1
  Mg  Mg23  1  0.06198000  0.11295300  0.44795400  1
  Mg  Mg24  1  0.78854300  0.33893000  0.48023700  1
  Mg  Mg25  1  0.21145700  0.11561500  0.51976300  1
  Mg  Mg26  1  0.71145700  0.65711200  0.52569100  1
  Mg  Mg27  1  0.28854300  0.79743400  0.47430900  1
  Mg  Mg28  1  0.56198000  0.02341100  0.50659100  1
  Mg  Mg29  1  0.43802000  0.43113500  0.49340900  1
  Mg  Mg30  1  0.93802000  0.70522900  0.46113700  1
  Mg  Mg31  1  0.06198000  0.74931700  0.53886300  1
  Mg  Mg32  1  0.78854300  0.97529400  0.57114600  1
  Mg  Mg33  1  0.21145700  0.75197900  0.61067200  1
  Mg  Mg34  1  0.71145700  0.29347600  0.61660000  1
  Mg  Mg35  1  0.28854300  0.43379700  0.56521800  1
  Mg  Mg36  1  0.56198000  0.65977400  0.59750000  1
  Mg  Mg37  1  0.43802000  0.06749800  0.58431800  1
  Mg  Mg38  1  0.93802000  0.34159200  0.55204600  1
  Mg  Mg39  1  0.06198000  0.38568000  0.62977300  1
  Mg  Mg40  1  0.78854300  0.61165700  0.66205500  1
  Mg  Mg41  1  0.21145700  0.38834300  0.70158100  1
  Mg  Mg42  1  0.71145700  0.92983900  0.70750900  1
  Mg  Mg43  1  0.28854300  0.07016100  0.65612700  1
  Mg  Mg44  1  0.56198000  0.29613800  0.68840900  1
  Mg  Mg45  1  0.43802000  0.70386200  0.67522700  1
  Mg  Mg46  1  0.93802000  0.97795600  0.64295500  1
  Mg  Mg47  1  0.06198000  0.02204400  0.72068200  1
  Mg  Mg48  1  0.78854300  0.24802100  0.75296400  1
  Mg  Mg49  1  0.21145700  0.02470600  0.79249100  1
  Mg  Mg50  1  0.71145700  0.56620300  0.79841900  1
  Mg  Mg51  1  0.28854300  0.70652400  0.74703600  1
  Mg  Mg52  1  0.56198000  0.93250200  0.77931800  1
  Mg  Mg53  1  0.43802000  0.34022600  0.76613600  1
  Mg  Mg54  1  0.93802000  0.61432000  0.73386400  1
  Mg  Mg55  1  0.06198000  0.65840800  0.81159100  1
  Hg  Hg56  1  0.10846200  0.54925800  0.22456900  1
  Hg  Hg57  1  0.89153800  0.08710600  0.22997600  1
  Hg  Hg58  1  0.39153800  0.86744000  0.27002400  1
  Hg  Hg59  1  0.60846200  0.76892400  0.18452200  1
  Hg  Hg60  1  0.10846200  0.18562100  0.31547800  1
  Hg  Hg61  1  0.89153800  0.72347000  0.32088500  1
  Hg  Hg62  1  0.39153800  0.50380300  0.36093300  1
  Hg  Hg63  1  0.60846200  0.40528800  0.27543100  1
  Hg  Hg64  1  0.10846200  0.82198500  0.40638700  1
  Hg  Hg65  1  0.89153800  0.35983300  0.41179400  1
  Hg  Hg66  1  0.39153800  0.14016700  0.45184200  1
  Hg  Hg67  1  0.60846200  0.04165100  0.36634000  1
  Hg  Hg68  1  0.10846200  0.45834900  0.49729700  1
  Hg  Hg69  1  0.89153800  0.99619700  0.50270300  1
  Hg  Hg70  1  0.39153800  0.77653000  0.54275100  1
  Hg  Hg71  1  0.60846200  0.67801500  0.45724900  1
  Hg  Hg72  1  0.10846200  0.09471200  0.58820600  1
  Hg  Hg73  1  0.89153800  0.63256000  0.59361300  1
  Hg  Hg74  1  0.39153800  0.41289400  0.63366000  1
  Hg  Hg75  1  0.60846200  0.31437900  0.54815800  1
  Hg  Hg76  1  0.10846200  0.73107600  0.67911500  1
  Hg  Hg77  1  0.89153800  0.26892400  0.68452200  1
  Hg  Hg78  1  0.39153800  0.04925800  0.72456900  1
  Hg  Hg79  1  0.60846200  0.95074200  0.63906700  1
  Hg  Hg80  1  0.10846200  0.36744000  0.77002400  1
  Hg  Hg81  1  0.89153800  0.90528800  0.77543100  1
  Hg  Hg82  1  0.39153800  0.68562100  0.81547800  1
  Hg  Hg83  1  0.60846200  0.58710600  0.72997600  1
