# generated using pymatgen
data_Ca8Mg17
_symmetry_space_group_name_H-M   'P 1'
_cell_length_a   10.38483100
_cell_length_b   10.64675200
_cell_length_c   43.02833600
_cell_angle_alpha   90.00000000
_cell_angle_beta   90.00000000
_cell_angle_gamma   90.00000000
_symmetry_Int_Tables_number   1
_chemical_formula_structural   Ca8Mg17
_chemical_formula_sum   'Ca32 Mg68'
_cell_volume   4757.41593133
_cell_formula_units_Z   4
loop_
 _symmetry_equiv_pos_site_id
 _symmetry_equiv_pos_as_xyz
  1  'x, y, z'
loop_
 _atom_site_type_symbol
 _atom_site_label
 _atom_site_symmetry_multiplicity
 _atom_site_fract_x
 _atom_site_fract_y
 _atom_site_fract_z
 _atom_site_occupancy
  Ca  Ca0  1  0.05979100  0.29315400  0.22619000  1
  Ca  Ca1  1  0.55979100  0.95982000  0.22619000  1
  Ca  Ca2  1  0.94020900  0.95982000  0.22619000  1
  Ca  Ca3  1  0.44020900  0.29315400  0.22619000  1
  Ca  Ca4  1  0.05979100  0.79315400  0.29761900  1
  Ca  Ca5  1  0.55979100  0.45982000  0.29761900  1
  Ca  Ca6  1  0.94020900  0.45982000  0.29761900  1
  Ca  Ca7  1  0.44020900  0.79315400  0.29761900  1
  Ca  Ca8  1  0.05979100  0.29315400  0.36904800  1
  Ca  Ca9  1  0.55979100  0.95982000  0.36904800  1
  Ca  Ca10  1  0.94020900  0.95982000  0.36904800  1
  Ca  Ca11  1  0.44020900  0.29315400  0.36904800  1
  Ca  Ca12  1  0.05979100  0.79315400  0.44047600  1
  Ca  Ca13  1  0.55979100  0.45982000  0.44047600  1
  Ca  Ca14  1  0.94020900  0.45982000  0.44047600  1
  Ca  Ca15  1  0.44020900  0.79315400  0.44047600  1
  Ca  Ca16  1  0.05979100  0.29315400  0.51190500  1
  Ca  Ca17  1  0.55979100  0.95982000  0.51190500  1
  Ca  Ca18  1  0.94020900  0.95982000  0.51190500  1
  Ca  Ca19  1  0.44020900  0.29315400  0.51190500  1
  Ca  Ca20  1  0.05979100  0.79315400  0.58333300  1
  Ca  Ca21  1  0.55979100  0.45982000  0.58333300  1
  Ca  Ca22  1  0.94020900  0.45982000  0.58333300  1
  Ca  Ca23  1  0.44020900  0.79315400  0.58333300  1
  Ca  Ca24  1  0.05979100  0.29315400  0.65476200  1
  Ca  Ca25  1  0.55979100  0.95982000  0.65476200  1
  Ca  Ca26  1  0.94020900  0.95982000  0.65476200  1
  Ca  Ca27  1  0.44020900  0.29315400  0.65476200  1
  Ca  Ca28  1  0.05979100  0.79315400  0.72619000  1
  Ca  Ca29  1  0.55979100  0.45982000  0.72619000  1
  Ca  Ca30  1  0.94020900  0.45982000  0.72619000  1
  Ca  Ca31  1  0.44020900  0.79315400  0.72619000  1
  Mg  Mg32  1  0.75000000  0.71081200  0.19005100  1
  Mg  Mg33  1  0.25000000  0.54216200  0.19005100  1
  Mg  Mg34  1  0.25000000  0.79513700  0.22619000  1
  Mg  Mg35  1  0.75000000  0.45783800  0.22619000  1
  Mg  Mg36  1  0.50000000  0.62648700  0.22619000  1
  Mg  Mg37  1  0.00000000  0.62648700  0.22619000  1
  Mg  Mg38  1  0.25000000  0.04216200  0.19090100  1
  Mg  Mg39  1  0.75000000  0.21081200  0.19090100  1
  Mg  Mg40  1  0.75000000  0.21081200  0.26148000  1
  Mg  Mg41  1  0.25000000  0.04216200  0.26148000  1
  Mg  Mg42  1  0.25000000  0.29513700  0.29761900  1
  Mg  Mg43  1  0.75000000  0.95783800  0.29761900  1
  Mg  Mg44  1  0.50000000  0.12648700  0.29761900  1
  Mg  Mg45  1  0.00000000  0.12648700  0.29761900  1
  Mg  Mg46  1  0.25000000  0.54216200  0.26233000  1
  Mg  Mg47  1  0.75000000  0.71081200  0.26233000  1
  Mg  Mg48  1  0.75000000  0.71081200  0.33290800  1
  Mg  Mg49  1  0.25000000  0.54216200  0.33290800  1
  Mg  Mg50  1  0.25000000  0.79513700  0.36904800  1
  Mg  Mg51  1  0.75000000  0.45783800  0.36904800  1
  Mg  Mg52  1  0.50000000  0.62648700  0.36904800  1
  Mg  Mg53  1  0.00000000  0.62648700  0.36904800  1
  Mg  Mg54  1  0.25000000  0.04216200  0.33375800  1
  Mg  Mg55  1  0.75000000  0.21081200  0.33375800  1
  Mg  Mg56  1  0.75000000  0.21081200  0.40433700  1
  Mg  Mg57  1  0.25000000  0.04216200  0.40433700  1
  Mg  Mg58  1  0.25000000  0.29513700  0.44047600  1
  Mg  Mg59  1  0.75000000  0.95783800  0.44047600  1
  Mg  Mg60  1  0.50000000  0.12648700  0.44047600  1
  Mg  Mg61  1  0.00000000  0.12648700  0.44047600  1
  Mg  Mg62  1  0.25000000  0.54216200  0.40518700  1
  Mg  Mg63  1  0.75000000  0.71081200  0.40518700  1
  Mg  Mg64  1  0.75000000  0.71081200  0.47576600  1
  Mg  Mg65  1  0.25000000  0.54216200  0.47576600  1
  Mg  Mg66  1  0.25000000  0.79513700  0.51190500  1
  Mg  Mg67  1  0.75000000  0.45783800  0.51190500  1
  Mg  Mg68  1  0.50000000  0.62648700  0.51190500  1
  Mg  Mg69  1  0.00000000  0.62648700  0.51190500  1
  Mg  Mg70  1  0.25000000  0.04216200  0.47661500  1
  Mg  Mg71  1  0.75000000  0.21081200  0.47661500  1
  Mg  Mg72  1  0.75000000  0.21081200  0.54719400  1
  Mg  Mg73  1  0.25000000  0.04216200  0.54719400  1
  Mg  Mg74  1  0.25000000  0.29513700  0.58333300  1
  Mg  Mg75  1  0.75000000  0.95783800  0.58333300  1
  Mg  Mg76  1  0.50000000  0.12648700  0.58333300  1
  Mg  Mg77  1  0.00000000  0.12648700  0.58333300  1
  Mg  Mg78  1  0.25000000  0.54216200  0.54804400  1
  Mg  Mg79  1  0.75000000  0.71081200  0.54804400  1
  Mg  Mg80  1  0.75000000  0.71081200  0.61862300  1
  Mg  Mg81  1  0.25000000  0.54216200  0.61862300  1
  Mg  Mg82  1  0.25000000  0.79513700  0.65476200  1
  Mg  Mg83  1  0.75000000  0.45783800  0.65476200  1
  Mg  Mg84  1  0.50000000  0.62648700  0.65476200  1
  Mg  Mg85  1  0.00000000  0.62648700  0.65476200  1
  Mg  Mg86  1  0.25000000  0.04216200  0.61947300  1
  Mg  Mg87  1  0.75000000  0.21081200  0.61947300  1
  Mg  Mg88  1  0.75000000  0.21081200  0.69005100  1
  Mg  Mg89  1  0.25000000  0.04216200  0.69005100  1
  Mg  Mg90  1  0.25000000  0.29513700  0.72619000  1
  Mg  Mg91  1  0.75000000  0.95783800  0.72619000  1
  Mg  Mg92  1  0.50000000  0.12648700  0.72619000  1
  Mg  Mg93  1  0.00000000  0.12648700  0.72619000  1
  Mg  Mg94  1  0.25000000  0.54216200  0.69090100  1
  Mg  Mg95  1  0.75000000  0.71081200  0.69090100  1
  Mg  Mg96  1  0.75000000  0.71081200  0.76148000  1
  Mg  Mg97  1  0.25000000  0.54216200  0.76148000  1
  Mg  Mg98  1  0.25000000  0.04216200  0.76233000  1
  Mg  Mg99  1  0.75000000  0.21081200  0.76233000  1
