# generated using pymatgen
data_CeMg2
_symmetry_space_group_name_H-M   'P 1'
_cell_length_a   5.20463200
_cell_length_b   9.04803456
_cell_length_c   40.84261700
_cell_angle_alpha   92.44626560
_cell_angle_beta   90.00000000
_cell_angle_gamma   90.00000000
_symmetry_Int_Tables_number   1
_chemical_formula_structural   CeMg2
_chemical_formula_sum   'Ce16 Mg32'
_cell_volume   1921.59510184
_cell_formula_units_Z   16
loop_
 _symmetry_equiv_pos_site_id
 _symmetry_equiv_pos_as_xyz
  1  'x, y, z'
loop_
 _atom_site_type_symbol
 _atom_site_label
 _atom_site_symmetry_multiplicity
 _atom_site_fract_x
 _atom_site_fract_y
 _atom_site_fract_z
 _atom_site_occupancy
  Ce  Ce0  1  0.25000000  0.69468600  0.77221300  1
  Ce  Ce1  1  0.75000000  0.84377600  0.76624900  1
  Ce  Ce2  1  0.25000000  0.61776300  0.69528900  1
  Ce  Ce3  1  0.75000000  0.76685300  0.68932600  1
  Ce  Ce4  1  0.25000000  0.54083900  0.61836600  1
  Ce  Ce5  1  0.75000000  0.68993000  0.61240300  1
  Ce  Ce6  1  0.25000000  0.46391600  0.54144300  1
  Ce  Ce7  1  0.75000000  0.61300700  0.53548000  1
  Ce  Ce8  1  0.25000000  0.38699300  0.46452000  1
  Ce  Ce9  1  0.75000000  0.53608400  0.45855700  1
  Ce  Ce10  1  0.25000000  0.31007000  0.38759700  1
  Ce  Ce11  1  0.75000000  0.45916100  0.38163400  1
  Ce  Ce12  1  0.25000000  0.23314700  0.31067400  1
  Ce  Ce13  1  0.75000000  0.38223700  0.30471100  1
  Ce  Ce14  1  0.25000000  0.15622400  0.23375100  1
  Ce  Ce15  1  0.75000000  0.30531400  0.22778700  1
  Mg  Mg16  1  0.25000000  0.04921700  0.79803100  1
  Mg  Mg17  1  0.25000000  0.31189800  0.74752400  1
  Mg  Mg18  1  0.75000000  0.22656300  0.79093700  1
  Mg  Mg19  1  0.75000000  0.48924500  0.74043000  1
  Mg  Mg20  1  0.25000000  0.97229400  0.72110800  1
  Mg  Mg21  1  0.25000000  0.23497500  0.67060100  1
  Mg  Mg22  1  0.75000000  0.14964000  0.71401400  1
  Mg  Mg23  1  0.75000000  0.41232100  0.66350700  1
  Mg  Mg24  1  0.25000000  0.89537100  0.64418500  1
  Mg  Mg25  1  0.25000000  0.15805200  0.59367800  1
  Mg  Mg26  1  0.75000000  0.07271700  0.63709100  1
  Mg  Mg27  1  0.75000000  0.33539800  0.58658400  1
  Mg  Mg28  1  0.25000000  0.81844800  0.56726200  1
  Mg  Mg29  1  0.25000000  0.08112900  0.51675500  1
  Mg  Mg30  1  0.75000000  0.99579400  0.56016800  1
  Mg  Mg31  1  0.75000000  0.25847500  0.50966100  1
  Mg  Mg32  1  0.25000000  0.74152500  0.49033900  1
  Mg  Mg33  1  0.25000000  0.00420600  0.43983200  1
  Mg  Mg34  1  0.75000000  0.91887100  0.48324500  1
  Mg  Mg35  1  0.75000000  0.18155200  0.43273800  1
  Mg  Mg36  1  0.25000000  0.66460200  0.41341600  1
  Mg  Mg37  1  0.25000000  0.92728300  0.36290900  1
  Mg  Mg38  1  0.75000000  0.84194800  0.40632200  1
  Mg  Mg39  1  0.75000000  0.10462900  0.35581500  1
  Mg  Mg40  1  0.25000000  0.58767900  0.33649300  1
  Mg  Mg41  1  0.25000000  0.85036000  0.28598600  1
  Mg  Mg42  1  0.75000000  0.76502500  0.32939900  1
  Mg  Mg43  1  0.75000000  0.02770600  0.27889200  1
  Mg  Mg44  1  0.25000000  0.51075500  0.25957000  1
  Mg  Mg45  1  0.25000000  0.77343700  0.20906300  1
  Mg  Mg46  1  0.75000000  0.68810200  0.25247600  1
  Mg  Mg47  1  0.75000000  0.95078300  0.20196900  1
