# generated using pymatgen
data_Mg18Pd53
_symmetry_space_group_name_H-M   'P 1'
_cell_length_a   5.64587871
_cell_length_b   16.27383556
_cell_length_c   42.43808700
_cell_angle_alpha   100.63894427
_cell_angle_beta   93.81407213
_cell_angle_gamma   80.01066251
_symmetry_Int_Tables_number   1
_chemical_formula_structural   Mg18Pd53
_chemical_formula_sum   'Mg36 Pd106'
_cell_volume   3771.69542246
_cell_formula_units_Z   2
loop_
 _symmetry_equiv_pos_site_id
 _symmetry_equiv_pos_as_xyz
  1  'x, y, z'
loop_
 _atom_site_type_symbol
 _atom_site_label
 _atom_site_symmetry_multiplicity
 _atom_site_fract_x
 _atom_site_fract_y
 _atom_site_fract_z
 _atom_site_occupancy
  Mg  Mg0  1  0.41184200  0.37629100  0.21258600  1
  Mg  Mg1  1  0.56304700  0.12370900  0.26241400  1
  Mg  Mg2  1  0.67850900  0.87629100  0.24591900  1
  Mg  Mg3  1  0.29638000  0.62370900  0.22908100  1
  Mg  Mg4  1  0.94517600  0.37629100  0.27925300  1
  Mg  Mg5  1  0.09638000  0.12370900  0.32908100  1
  Mg  Mg6  1  0.21184200  0.87629100  0.31258600  1
  Mg  Mg7  1  0.82971400  0.62370900  0.29574700  1
  Mg  Mg8  1  0.47850900  0.37629100  0.34591900  1
  Mg  Mg9  1  0.62971400  0.12370900  0.39574700  1
  Mg  Mg10  1  0.74517600  0.87629100  0.37925300  1
  Mg  Mg11  1  0.36304700  0.62370900  0.36241400  1
  Mg  Mg12  1  0.01184200  0.37629100  0.41258600  1
  Mg  Mg13  1  0.16304700  0.12370900  0.46241400  1
  Mg  Mg14  1  0.27850900  0.87629100  0.44591900  1
  Mg  Mg15  1  0.89638000  0.62370900  0.42908100  1
  Mg  Mg16  1  0.54517600  0.37629100  0.47925300  1
  Mg  Mg17  1  0.69638000  0.12370900  0.52908100  1
  Mg  Mg18  1  0.81184200  0.87629100  0.51258600  1
  Mg  Mg19  1  0.42971400  0.62370900  0.49574700  1
  Mg  Mg20  1  0.07850900  0.37629100  0.54591900  1
  Mg  Mg21  1  0.22971400  0.12370900  0.59574700  1
  Mg  Mg22  1  0.34517600  0.87629100  0.57925300  1
  Mg  Mg23  1  0.96304700  0.62370900  0.56241400  1
  Mg  Mg24  1  0.61184200  0.37629100  0.61258600  1
  Mg  Mg25  1  0.76304700  0.12370900  0.66241400  1
  Mg  Mg26  1  0.87850900  0.87629100  0.64591900  1
  Mg  Mg27  1  0.49638000  0.62370900  0.62908100  1
  Mg  Mg28  1  0.14517600  0.37629100  0.67925300  1
  Mg  Mg29  1  0.29638000  0.12370900  0.72908100  1
  Mg  Mg30  1  0.41184200  0.87629100  0.71258600  1
  Mg  Mg31  1  0.02971400  0.62370900  0.69574700  1
  Mg  Mg32  1  0.67850900  0.37629100  0.74591900  1
  Mg  Mg33  1  0.82971400  0.12370900  0.79574700  1
  Mg  Mg34  1  0.94517600  0.87629100  0.77925300  1
  Mg  Mg35  1  0.56304700  0.62370900  0.76241400  1
  Pd  Pd36  1  0.35411100  0.00000000  0.22083300  1
  Pd  Pd37  1  0.85411100  0.00000000  0.22083300  1
  Pd  Pd38  1  0.73744500  0.25000000  0.23750000  1
  Pd  Pd39  1  0.23744500  0.25000000  0.23750000  1
  Pd  Pd40  1  0.06255500  0.12476300  0.26248400  1
  Pd  Pd41  1  0.91233400  0.37523700  0.21251600  1
  Pd  Pd42  1  0.62077800  0.50000000  0.25416700  1
  Pd  Pd43  1  0.12077800  0.50000000  0.25416700  1
  Pd  Pd44  1  0.79588900  0.62476300  0.22915100  1
  Pd  Pd45  1  0.17900100  0.87523700  0.24584900  1
  Pd  Pd46  1  0.88744500  0.00000000  0.28750000  1
  Pd  Pd47  1  0.38744500  0.00000000  0.28750000  1
  Pd  Pd48  1  0.27077800  0.25000000  0.30416700  1
  Pd  Pd49  1  0.77077800  0.25000000  0.30416700  1
  Pd  Pd50  1  0.59588900  0.12476300  0.32915100  1
  Pd  Pd51  1  0.44566700  0.37523700  0.27918200  1
  Pd  Pd52  1  0.15411100  0.50000000  0.32083300  1
  Pd  Pd53  1  0.65411100  0.50000000  0.32083300  1
  Pd  Pd54  1  0.00411100  0.75000000  0.27083300  1
  Pd  Pd55  1  0.50411100  0.75000000  0.27083300  1
  Pd  Pd56  1  0.32922200  0.62476300  0.29581800  1
  Pd  Pd57  1  0.71233400  0.87523700  0.31251600  1
  Pd  Pd58  1  0.42077800  0.00000000  0.35416700  1
  Pd  Pd59  1  0.92077800  0.00000000  0.35416700  1
  Pd  Pd60  1  0.80411100  0.25000000  0.37083300  1
  Pd  Pd61  1  0.30411100  0.25000000  0.37083300  1
  Pd  Pd62  1  0.12922200  0.12476300  0.39581800  1
  Pd  Pd63  1  0.97900100  0.37523700  0.34584900  1
  Pd  Pd64  1  0.68744500  0.50000000  0.38750000  1
  Pd  Pd65  1  0.18744500  0.50000000  0.38750000  1
  Pd  Pd66  1  0.53744500  0.75000000  0.33750000  1
  Pd  Pd67  1  0.03744500  0.75000000  0.33750000  1
  Pd  Pd68  1  0.86255500  0.62476300  0.36248400  1
  Pd  Pd69  1  0.24566700  0.87523700  0.37918200  1
  Pd  Pd70  1  0.95411100  0.00000000  0.42083300  1
  Pd  Pd71  1  0.45411100  0.00000000  0.42083300  1
  Pd  Pd72  1  0.33744500  0.25000000  0.43750000  1
  Pd  Pd73  1  0.83744500  0.25000000  0.43750000  1
  Pd  Pd74  1  0.66255500  0.12476300  0.46248400  1
  Pd  Pd75  1  0.51233400  0.37523700  0.41251600  1
  Pd  Pd76  1  0.22077800  0.50000000  0.45416700  1
  Pd  Pd77  1  0.72077800  0.50000000  0.45416700  1
  Pd  Pd78  1  0.07077800  0.75000000  0.40416700  1
  Pd  Pd79  1  0.57077800  0.75000000  0.40416700  1
  Pd  Pd80  1  0.39588900  0.62476300  0.42915100  1
  Pd  Pd81  1  0.77900100  0.87523700  0.44584900  1
  Pd  Pd82  1  0.48744500  0.00000000  0.48750000  1
  Pd  Pd83  1  0.98744500  0.00000000  0.48750000  1
  Pd  Pd84  1  0.87077800  0.25000000  0.50416700  1
  Pd  Pd85  1  0.37077800  0.25000000  0.50416700  1
  Pd  Pd86  1  0.19588900  0.12476300  0.52915100  1
  Pd  Pd87  1  0.04566700  0.37523700  0.47918200  1
  Pd  Pd88  1  0.75411100  0.50000000  0.52083300  1
  Pd  Pd89  1  0.25411100  0.50000000  0.52083300  1
  Pd  Pd90  1  0.60411100  0.75000000  0.47083300  1
  Pd  Pd91  1  0.10411100  0.75000000  0.47083300  1
  Pd  Pd92  1  0.92922200  0.62476300  0.49581800  1
  Pd  Pd93  1  0.31233400  0.87523700  0.51251600  1
  Pd  Pd94  1  0.02077800  0.00000000  0.55416700  1
  Pd  Pd95  1  0.52077800  0.00000000  0.55416700  1
  Pd  Pd96  1  0.40411100  0.25000000  0.57083300  1
  Pd  Pd97  1  0.90411100  0.25000000  0.57083300  1
  Pd  Pd98  1  0.72922200  0.12476300  0.59581800  1
  Pd  Pd99  1  0.57900100  0.37523700  0.54584900  1
  Pd  Pd100  1  0.28744500  0.50000000  0.58750000  1
  Pd  Pd101  1  0.78744500  0.50000000  0.58750000  1
  Pd  Pd102  1  0.13744500  0.75000000  0.53750000  1
  Pd  Pd103  1  0.63744500  0.75000000  0.53750000  1
  Pd  Pd104  1  0.46255500  0.62476300  0.56248400  1
  Pd  Pd105  1  0.84566700  0.87523700  0.57918200  1
  Pd  Pd106  1  0.55411100  0.00000000  0.62083300  1
  Pd  Pd107  1  0.05411100  0.00000000  0.62083300  1
  Pd  Pd108  1  0.93744500  0.25000000  0.63750000  1
  Pd  Pd109  1  0.43744500  0.25000000  0.63750000  1
  Pd  Pd110  1  0.26255500  0.12476300  0.66248400  1
  Pd  Pd111  1  0.11233400  0.37523700  0.61251600  1
  Pd  Pd112  1  0.82077800  0.50000000  0.65416700  1
  Pd  Pd113  1  0.32077800  0.50000000  0.65416700  1
  Pd  Pd114  1  0.67077800  0.75000000  0.60416700  1
  Pd  Pd115  1  0.17077800  0.75000000  0.60416700  1
  Pd  Pd116  1  0.99588900  0.62476300  0.62915100  1
  Pd  Pd117  1  0.37900100  0.87523700  0.64584900  1
  Pd  Pd118  1  0.08744500  0.00000000  0.68750000  1
  Pd  Pd119  1  0.58744500  0.00000000  0.68750000  1
  Pd  Pd120  1  0.47077800  0.25000000  0.70416700  1
  Pd  Pd121  1  0.97077800  0.25000000  0.70416700  1
  Pd  Pd122  1  0.79588900  0.12476300  0.72915100  1
  Pd  Pd123  1  0.64566700  0.37523700  0.67918200  1
  Pd  Pd124  1  0.35411100  0.50000000  0.72083300  1
  Pd  Pd125  1  0.85411100  0.50000000  0.72083300  1
  Pd  Pd126  1  0.20411100  0.75000000  0.67083300  1
  Pd  Pd127  1  0.70411100  0.75000000  0.67083300  1
  Pd  Pd128  1  0.52922200  0.62476300  0.69581800  1
  Pd  Pd129  1  0.91233400  0.87523700  0.71251600  1
  Pd  Pd130  1  0.62077800  0.00000000  0.75416700  1
  Pd  Pd131  1  0.12077800  0.00000000  0.75416700  1
  Pd  Pd132  1  0.00411100  0.25000000  0.77083300  1
  Pd  Pd133  1  0.50411100  0.25000000  0.77083300  1
  Pd  Pd134  1  0.32922200  0.12476300  0.79581800  1
  Pd  Pd135  1  0.17900100  0.37523700  0.74584900  1
  Pd  Pd136  1  0.88744500  0.50000000  0.78750000  1
  Pd  Pd137  1  0.38744500  0.50000000  0.78750000  1
  Pd  Pd138  1  0.73744500  0.75000000  0.73750000  1
  Pd  Pd139  1  0.23744500  0.75000000  0.73750000  1
  Pd  Pd140  1  0.06255500  0.62476300  0.76248400  1
  Pd  Pd141  1  0.44566700  0.87523700  0.77918200  1
