# generated using pymatgen
data_Dy12Mg11
_symmetry_space_group_name_H-M   'P 1'
_cell_length_a   5.36081252
_cell_length_b   5.36081221
_cell_length_c   41.69733400
_cell_angle_alpha   90.00000000
_cell_angle_beta   86.31434735
_cell_angle_gamma   60.00000434
_symmetry_Int_Tables_number   1
_chemical_formula_structural   Dy12Mg11
_chemical_formula_sum   'Dy12 Mg11'
_cell_volume   1034.90489502
_cell_formula_units_Z   1
loop_
 _symmetry_equiv_pos_site_id
 _symmetry_equiv_pos_as_xyz
  1  'x, y, z'
loop_
 _atom_site_type_symbol
 _atom_site_label
 _atom_site_symmetry_multiplicity
 _atom_site_fract_x
 _atom_site_fract_y
 _atom_site_fract_z
 _atom_site_occupancy
  Dy  Dy0  1  0.40789500  0.42105300  0.19736800  1
  Dy  Dy1  1  0.03947400  0.10526300  0.25000000  1
  Dy  Dy2  1  0.67105300  0.78947400  0.30263200  1
  Dy  Dy3  1  0.30263200  0.47368400  0.35526300  1
  Dy  Dy4  1  0.93421100  0.15789500  0.40789500  1
  Dy  Dy5  1  0.56578900  0.84210500  0.46052600  1
  Dy  Dy6  1  0.19736800  0.52631600  0.51315800  1
  Dy  Dy7  1  0.82894700  0.21052600  0.56578900  1
  Dy  Dy8  1  0.46052600  0.89473700  0.61842100  1
  Dy  Dy9  1  0.09210500  0.57894700  0.67105300  1
  Dy  Dy10  1  0.72368400  0.26315800  0.72368400  1
  Dy  Dy11  1  0.35526300  0.94736800  0.77631600  1
  Mg  Mg12  1  0.72368400  0.76315800  0.22368400  1
  Mg  Mg13  1  0.35526300  0.44736800  0.27631600  1
  Mg  Mg14  1  0.98684200  0.13157900  0.32894700  1
  Mg  Mg15  1  0.61842100  0.81578900  0.38157900  1
  Mg  Mg16  1  0.25000000  0.50000000  0.43421100  1
  Mg  Mg17  1  0.88157900  0.18421100  0.48684200  1
  Mg  Mg18  1  0.51315800  0.86842100  0.53947400  1
  Mg  Mg19  1  0.14473700  0.55263200  0.59210500  1
  Mg  Mg20  1  0.77631600  0.23684200  0.64473700  1
  Mg  Mg21  1  0.40789500  0.92105300  0.69736800  1
  Mg  Mg22  1  0.03947400  0.60526300  0.75000000  1
