# generated using pymatgen
data_Mg12In13
_symmetry_space_group_name_H-M   'P 1'
_cell_length_a   4.65290700
_cell_length_b   5.45780851
_cell_length_c   43.12358300
_cell_angle_alpha   87.99940934
_cell_angle_beta   90.00000000
_cell_angle_gamma   64.76946905
_symmetry_Int_Tables_number   1
_chemical_formula_structural   Mg12In13
_chemical_formula_sum   'Mg12 In13'
_cell_volume   989.89805102
_cell_formula_units_Z   1
loop_
 _symmetry_equiv_pos_site_id
 _symmetry_equiv_pos_as_xyz
  1  'x, y, z'
loop_
 _atom_site_type_symbol
 _atom_site_label
 _atom_site_symmetry_multiplicity
 _atom_site_fract_x
 _atom_site_fract_y
 _atom_site_fract_z
 _atom_site_occupancy
  Mg  Mg0  1  0.02381000  0.20238100  0.25000000  1
  Mg  Mg1  1  0.64285700  0.96428600  0.29761900  1
  Mg  Mg2  1  0.26190500  0.72619000  0.34523800  1
  Mg  Mg3  1  0.88095200  0.48809500  0.39285700  1
  Mg  Mg4  1  0.50000000  0.25000000  0.44047600  1
  Mg  Mg5  1  0.11904800  0.01190500  0.48809500  1
  Mg  Mg6  1  0.73809500  0.77381000  0.53571400  1
  Mg  Mg7  1  0.35714300  0.53571400  0.58333300  1
  Mg  Mg8  1  0.97619000  0.29761900  0.63095200  1
  Mg  Mg9  1  0.59523800  0.05952400  0.67857100  1
  Mg  Mg10  1  0.21428600  0.82142900  0.72619000  1
  Mg  Mg11  1  0.83333300  0.58333300  0.77381000  1
  In  In12  1  0.71428600  0.82142900  0.22619000  1
  In  In13  1  0.33333300  0.58333300  0.27381000  1
  In  In14  1  0.95238100  0.34523800  0.32142900  1
  In  In15  1  0.57142900  0.10714300  0.36904800  1
  In  In16  1  0.19047600  0.86904800  0.41666700  1
  In  In17  1  0.80952400  0.63095200  0.46428600  1
  In  In18  1  0.42857100  0.39285700  0.51190500  1
  In  In19  1  0.04761900  0.15476200  0.55952400  1
  In  In20  1  0.66666700  0.91666700  0.60714300  1
  In  In21  1  0.28571400  0.67857100  0.65476200  1
  In  In22  1  0.90476200  0.44047600  0.70238100  1
  In  In23  1  0.52381000  0.20238100  0.75000000  1
  In  In24  1  0.14285700  0.96428600  0.79761900  1
