# generated using pymatgen
data_Mg43Pd73
_symmetry_space_group_name_H-M   'P 1'
_cell_length_a   6.99934465
_cell_length_b   10.69961100
_cell_length_c   44.14461900
_cell_angle_alpha   90.00000000
_cell_angle_beta   89.32713813
_cell_angle_gamma   90.00000000
_symmetry_Int_Tables_number   1
_chemical_formula_structural   Mg43Pd73
_chemical_formula_sum   'Mg43 Pd73'
_cell_volume   3305.77424548
_cell_formula_units_Z   1
loop_
 _symmetry_equiv_pos_site_id
 _symmetry_equiv_pos_as_xyz
  1  'x, y, z'
loop_
 _atom_site_type_symbol
 _atom_site_label
 _atom_site_symmetry_multiplicity
 _atom_site_fract_x
 _atom_site_fract_y
 _atom_site_fract_z
 _atom_site_occupancy
  Mg  Mg0  1  0.67041200  0.50000000  0.25961500  1
  Mg  Mg1  1  0.28579700  0.50000000  0.33653800  1
  Mg  Mg2  1  0.97810500  0.00000000  0.29807700  1
  Mg  Mg3  1  0.37893500  0.86253400  0.28568100  1
  Mg  Mg4  1  0.57727400  0.13746600  0.31047300  1
  Mg  Mg5  1  0.26958200  0.36253400  0.27201200  1
  Mg  Mg6  1  0.68662800  0.63746600  0.32414200  1
  Mg  Mg7  1  0.90118200  0.50000000  0.41346200  1
  Mg  Mg8  1  0.59348900  0.00000000  0.37500000  1
  Mg  Mg9  1  0.99432000  0.86253400  0.36260400  1
  Mg  Mg10  1  0.19265900  0.13746600  0.38739600  1
  Mg  Mg11  1  0.88496600  0.36253400  0.34893500  1
  Mg  Mg12  1  0.30201200  0.63746600  0.40106500  1
  Mg  Mg13  1  0.51656600  0.50000000  0.49038500  1
  Mg  Mg14  1  0.20887400  0.00000000  0.45192300  1
  Mg  Mg15  1  0.60970500  0.86253400  0.43952700  1
  Mg  Mg16  1  0.80804300  0.13746600  0.46431900  1
  Mg  Mg17  1  0.50035100  0.36253400  0.42585800  1
  Mg  Mg18  1  0.91739700  0.63746600  0.47798800  1
  Mg  Mg19  1  0.13195100  0.50000000  0.56730800  1
  Mg  Mg20  1  0.82425900  0.00000000  0.52884600  1
  Mg  Mg21  1  0.22508900  0.86253400  0.51645000  1
  Mg  Mg22  1  0.42342800  0.13746600  0.54124200  1
  Mg  Mg23  1  0.11573600  0.36253400  0.50278100  1
  Mg  Mg24  1  0.53278200  0.63746600  0.55491200  1
  Mg  Mg25  1  0.74733500  0.50000000  0.64423100  1
  Mg  Mg26  1  0.43964300  0.00000000  0.60576900  1
  Mg  Mg27  1  0.84047400  0.86253400  0.59337300  1
  Mg  Mg28  1  0.03881300  0.13746600  0.61816500  1
  Mg  Mg29  1  0.73112000  0.36253400  0.57970400  1
  Mg  Mg30  1  0.14816600  0.63746600  0.63183500  1
  Mg  Mg31  1  0.36272000  0.50000000  0.72115400  1
  Mg  Mg32  1  0.05502800  0.00000000  0.68269200  1
  Mg  Mg33  1  0.45585800  0.86253400  0.67029600  1
  Mg  Mg34  1  0.65419700  0.13746600  0.69508800  1
  Mg  Mg35  1  0.34650500  0.36253400  0.65662700  1
  Mg  Mg36  1  0.76355100  0.63746600  0.70875800  1
  Mg  Mg37  1  0.97810500  0.50000000  0.79807700  1
  Mg  Mg38  1  0.67041200  0.00000000  0.75961500  1
  Mg  Mg39  1  0.07124300  0.86253400  0.74721900  1
  Mg  Mg40  1  0.26958200  0.13746600  0.77201200  1
  Mg  Mg41  1  0.96188900  0.36253400  0.73355000  1
  Mg  Mg42  1  0.37893500  0.63746600  0.78568100  1
  Pd  Pd43  1  0.60183400  0.25616100  0.25104300  1
  Pd  Pd44  1  0.73899100  0.74383900  0.26818800  1
  Pd  Pd45  1  0.67041200  0.00000000  0.25961500  1
  Pd  Pd46  1  0.37059400  0.61114300  0.28463800  1
  Pd  Pd47  1  0.58561500  0.38885700  0.31151600  1
  Pd  Pd48  1  0.27792300  0.11114300  0.27305400  1
  Pd  Pd49  1  0.67828600  0.88885700  0.32310000  1
  Pd  Pd50  1  0.04668300  0.75616100  0.30664900  1
  Pd  Pd51  1  0.90952600  0.24383900  0.28950500  1
  Pd  Pd52  1  0.21721900  0.25616100  0.32796600  1
  Pd  Pd53  1  0.35437500  0.74383900  0.34511100  1
  Pd  Pd54  1  0.28579700  0.00000000  0.33653800  1
  Pd  Pd55  1  0.97810500  0.50000000  0.29807700  1
  Pd  Pd56  1  0.98597900  0.61114300  0.36156100  1
  Pd  Pd57  1  0.20100000  0.38885700  0.38843900  1
  Pd  Pd58  1  0.89330800  0.11114300  0.34997700  1
  Pd  Pd59  1  0.29367100  0.88885700  0.40002300  1
  Pd  Pd60  1  0.66206800  0.75616100  0.38357200  1
  Pd  Pd61  1  0.52491100  0.24383900  0.36642800  1
  Pd  Pd62  1  0.83260300  0.25616100  0.40488900  1
  Pd  Pd63  1  0.96976000  0.74383900  0.42203400  1
  Pd  Pd64  1  0.90118200  0.00000000  0.41346200  1
  Pd  Pd65  1  0.59348900  0.50000000  0.37500000  1
  Pd  Pd66  1  0.60136300  0.61114300  0.43848400  1
  Pd  Pd67  1  0.81638500  0.38885700  0.46536200  1
  Pd  Pd68  1  0.50869200  0.11114300  0.42690000  1
  Pd  Pd69  1  0.90905600  0.88885700  0.47694600  1
  Pd  Pd70  1  0.27745200  0.75616100  0.46049500  1
  Pd  Pd71  1  0.14029600  0.24383900  0.44335100  1
  Pd  Pd72  1  0.44798800  0.25616100  0.48181200  1
  Pd  Pd73  1  0.58514500  0.74383900  0.49895700  1
  Pd  Pd74  1  0.51656600  0.00000000  0.49038500  1
  Pd  Pd75  1  0.20887400  0.50000000  0.45192300  1
  Pd  Pd76  1  0.21674800  0.61114300  0.51540700  1
  Pd  Pd77  1  0.43176900  0.38885700  0.54228500  1
  Pd  Pd78  1  0.12407700  0.11114300  0.50382300  1
  Pd  Pd79  1  0.52444000  0.88885700  0.55386900  1
  Pd  Pd80  1  0.89283700  0.75616100  0.53741800  1
  Pd  Pd81  1  0.75568000  0.24383900  0.52027400  1
  Pd  Pd82  1  0.06337300  0.25616100  0.55873500  1
  Pd  Pd83  1  0.20052900  0.74383900  0.57588000  1
  Pd  Pd84  1  0.13195100  0.00000000  0.56730800  1
  Pd  Pd85  1  0.82425900  0.50000000  0.52884600  1
  Pd  Pd86  1  0.83213200  0.61114300  0.59233000  1
  Pd  Pd87  1  0.04715400  0.38885700  0.61920800  1
  Pd  Pd88  1  0.73946200  0.11114300  0.58074700  1
  Pd  Pd89  1  0.13982500  0.88885700  0.63079200  1
  Pd  Pd90  1  0.50822100  0.75616100  0.61434200  1
  Pd  Pd91  1  0.37106500  0.24383900  0.59719700  1
  Pd  Pd92  1  0.67875700  0.25616100  0.63565800  1
  Pd  Pd93  1  0.81591400  0.74383900  0.65280300  1
  Pd  Pd94  1  0.74733500  0.00000000  0.64423100  1
  Pd  Pd95  1  0.43964300  0.50000000  0.60576900  1
  Pd  Pd96  1  0.44751700  0.61114300  0.66925300  1
  Pd  Pd97  1  0.66253900  0.38885700  0.69613100  1
  Pd  Pd98  1  0.35484600  0.11114300  0.65767000  1
  Pd  Pd99  1  0.75520900  0.88885700  0.70771500  1
  Pd  Pd100  1  0.12360600  0.75616100  0.69126500  1
  Pd  Pd101  1  0.98645000  0.24383900  0.67412000  1
  Pd  Pd102  1  0.29414200  0.25616100  0.71258200  1
  Pd  Pd103  1  0.43129800  0.74383900  0.72972600  1
  Pd  Pd104  1  0.36272000  0.00000000  0.72115400  1
  Pd  Pd105  1  0.05502800  0.50000000  0.68269200  1
  Pd  Pd106  1  0.06290200  0.61114300  0.74617700  1
  Pd  Pd107  1  0.27792300  0.38885700  0.77305400  1
  Pd  Pd108  1  0.97023100  0.11114300  0.73459300  1
  Pd  Pd109  1  0.37059400  0.88885700  0.78463800  1
  Pd  Pd110  1  0.73899100  0.75616100  0.76818800  1
  Pd  Pd111  1  0.60183400  0.24383900  0.75104300  1
  Pd  Pd112  1  0.90952600  0.25616100  0.78950500  1
  Pd  Pd113  1  0.04668300  0.74383900  0.80664900  1
  Pd  Pd114  1  0.97810500  0.00000000  0.79807700  1
  Pd  Pd115  1  0.67041200  0.50000000  0.75961500  1
