# generated using pymatgen
data_Mg9Zn4
_symmetry_space_group_name_H-M   'P 1'
_cell_length_a   4.91773400
_cell_length_b   7.92196460
_cell_length_c   42.58017600
_cell_angle_alpha   90.77495215
_cell_angle_beta   90.00000000
_cell_angle_gamma   90.00000000
_symmetry_Int_Tables_number   1
_chemical_formula_structural   Mg9Zn4
_chemical_formula_sum   'Mg36 Zn16'
_cell_volume   1658.69164908
_cell_formula_units_Z   4
loop_
 _symmetry_equiv_pos_site_id
 _symmetry_equiv_pos_as_xyz
  1  'x, y, z'
loop_
 _atom_site_type_symbol
 _atom_site_label
 _atom_site_symmetry_multiplicity
 _atom_site_fract_x
 _atom_site_fract_y
 _atom_site_fract_z
 _atom_site_occupancy
  Mg  Mg0  1  0.75000000  0.68249500  0.76688300  1
  Mg  Mg1  1  0.75000000  0.28939900  0.78936100  1
  Mg  Mg2  1  0.25000000  0.44962900  0.75825800  1
  Mg  Mg3  1  0.25000000  0.05653300  0.78073600  1
  Mg  Mg4  1  0.75000000  0.75392400  0.69545400  1
  Mg  Mg5  1  0.75000000  0.36082700  0.71793200  1
  Mg  Mg6  1  0.25000000  0.52105800  0.68683000  1
  Mg  Mg7  1  0.25000000  0.12796100  0.70930800  1
  Mg  Mg8  1  0.75000000  0.82535200  0.62402600  1
  Mg  Mg9  1  0.75000000  0.43225600  0.64650400  1
  Mg  Mg10  1  0.25000000  0.59248600  0.61540100  1
  Mg  Mg11  1  0.25000000  0.19939000  0.63787900  1
  Mg  Mg12  1  0.75000000  0.89678100  0.55259700  1
  Mg  Mg13  1  0.75000000  0.50368400  0.57507500  1
  Mg  Mg14  1  0.25000000  0.66391500  0.54397300  1
  Mg  Mg15  1  0.25000000  0.27081800  0.56645000  1
  Mg  Mg16  1  0.75000000  0.96820900  0.48116900  1
  Mg  Mg17  1  0.75000000  0.57511300  0.50364700  1
  Mg  Mg18  1  0.25000000  0.73534300  0.47254400  1
  Mg  Mg19  1  0.25000000  0.34224700  0.49502200  1
  Mg  Mg20  1  0.75000000  0.03963800  0.40974000  1
  Mg  Mg21  1  0.75000000  0.64654100  0.43221800  1
  Mg  Mg22  1  0.25000000  0.80677200  0.40111500  1
  Mg  Mg23  1  0.25000000  0.41367500  0.42359300  1
  Mg  Mg24  1  0.75000000  0.11106600  0.33831100  1
  Mg  Mg25  1  0.75000000  0.71797000  0.36078900  1
  Mg  Mg26  1  0.25000000  0.87820000  0.32968700  1
  Mg  Mg27  1  0.25000000  0.48510400  0.35216500  1
  Mg  Mg28  1  0.75000000  0.18249500  0.26688300  1
  Mg  Mg29  1  0.75000000  0.78939900  0.28936100  1
  Mg  Mg30  1  0.25000000  0.94962900  0.25825800  1
  Mg  Mg31  1  0.25000000  0.55653300  0.28073600  1
  Mg  Mg32  1  0.75000000  0.25392400  0.19545400  1
  Mg  Mg33  1  0.75000000  0.86082700  0.21793200  1
  Mg  Mg34  1  0.25000000  0.02105800  0.18683000  1
  Mg  Mg35  1  0.25000000  0.62796100  0.20930800  1
  Zn  Zn36  1  0.75000000  0.01627100  0.74220800  1
  Zn  Zn37  1  0.25000000  0.79418500  0.73398300  1
  Zn  Zn38  1  0.75000000  0.08769900  0.67077900  1
  Zn  Zn39  1  0.25000000  0.86561400  0.66255400  1
  Zn  Zn40  1  0.75000000  0.15912800  0.59935100  1
  Zn  Zn41  1  0.25000000  0.93704200  0.59112500  1
  Zn  Zn42  1  0.75000000  0.23055700  0.52792200  1
  Zn  Zn43  1  0.25000000  0.00847100  0.51969700  1
  Zn  Zn44  1  0.75000000  0.30198500  0.45649400  1
  Zn  Zn45  1  0.25000000  0.07990000  0.44826800  1
  Zn  Zn46  1  0.75000000  0.37341400  0.38506500  1
  Zn  Zn47  1  0.25000000  0.15132800  0.37684000  1
  Zn  Zn48  1  0.75000000  0.44484200  0.31363700  1
  Zn  Zn49  1  0.25000000  0.22275700  0.30541100  1
  Zn  Zn50  1  0.75000000  0.51627100  0.24220800  1
  Zn  Zn51  1  0.25000000  0.29418500  0.23398300  1
