# generated using pymatgen
data_MgPb
_symmetry_space_group_name_H-M   'P 1'
_cell_length_a   5.88306200
_cell_length_b   6.27756350
_cell_length_c   43.48762300
_cell_angle_alpha   86.67297368
_cell_angle_beta   90.00000000
_cell_angle_gamma   90.00000000
_symmetry_Int_Tables_number   1
_chemical_formula_structural   MgPb
_chemical_formula_sum   'Mg18 Pb18'
_cell_volume   1603.34732685
_cell_formula_units_Z   18
loop_
 _symmetry_equiv_pos_site_id
 _symmetry_equiv_pos_as_xyz
  1  'x, y, z'
loop_
 _atom_site_type_symbol
 _atom_site_label
 _atom_site_symmetry_multiplicity
 _atom_site_fract_x
 _atom_site_fract_y
 _atom_site_fract_z
 _atom_site_occupancy
  Mg  Mg0  1  0.81645300  0.00000000  0.25000000  1
  Mg  Mg1  1  0.18354700  0.66666700  0.21666700  1
  Mg  Mg2  1  0.81645300  0.66666700  0.31666700  1
  Mg  Mg3  1  0.18354700  0.33333300  0.28333300  1
  Mg  Mg4  1  0.81645300  0.33333300  0.38333300  1
  Mg  Mg5  1  0.18354700  0.00000000  0.35000000  1
  Mg  Mg6  1  0.81645300  0.00000000  0.45000000  1
  Mg  Mg7  1  0.18354700  0.66666700  0.41666700  1
  Mg  Mg8  1  0.81645300  0.66666700  0.51666700  1
  Mg  Mg9  1  0.18354700  0.33333300  0.48333300  1
  Mg  Mg10  1  0.81645300  0.33333300  0.58333300  1
  Mg  Mg11  1  0.18354700  0.00000000  0.55000000  1
  Mg  Mg12  1  0.81645300  1.00000000  0.65000000  1
  Mg  Mg13  1  0.18354700  0.66666700  0.61666700  1
  Mg  Mg14  1  0.81645300  0.66666700  0.71666700  1
  Mg  Mg15  1  0.18354700  0.33333300  0.68333300  1
  Mg  Mg16  1  0.81645300  0.33333300  0.78333300  1
  Mg  Mg17  1  0.18354700  1.00000000  0.75000000  1
  Pb  Pb18  1  0.29398300  0.16666700  0.21666700  1
  Pb  Pb19  1  0.70601700  0.50000000  0.25000000  1
  Pb  Pb20  1  0.29398300  0.83333300  0.28333300  1
  Pb  Pb21  1  0.70601700  0.16666700  0.31666700  1
  Pb  Pb22  1  0.29398300  0.50000000  0.35000000  1
  Pb  Pb23  1  0.70601700  0.83333300  0.38333300  1
  Pb  Pb24  1  0.29398300  0.16666700  0.41666700  1
  Pb  Pb25  1  0.70601700  0.50000000  0.45000000  1
  Pb  Pb26  1  0.29398300  0.83333300  0.48333300  1
  Pb  Pb27  1  0.70601700  0.16666700  0.51666700  1
  Pb  Pb28  1  0.29398300  0.50000000  0.55000000  1
  Pb  Pb29  1  0.70601700  0.83333300  0.58333300  1
  Pb  Pb30  1  0.29398300  0.16666700  0.61666700  1
  Pb  Pb31  1  0.70601700  0.50000000  0.65000000  1
  Pb  Pb32  1  0.29398300  0.83333300  0.68333300  1
  Pb  Pb33  1  0.70601700  0.16666700  0.71666700  1
  Pb  Pb34  1  0.29398300  0.50000000  0.75000000  1
  Pb  Pb35  1  0.70601700  0.83333300  0.78333300  1
