# generated using pymatgen
data_Mg16Zn73
_symmetry_space_group_name_H-M   'P 1'
_cell_length_a   4.98183571
_cell_length_b   9.87228479
_cell_length_c   49.62169200
_cell_angle_alpha   87.16066620
_cell_angle_beta   87.12264785
_cell_angle_gamma   75.38550100
_symmetry_Int_Tables_number   1
_chemical_formula_structural   Mg16Zn73
_chemical_formula_sum   'Mg16 Zn73'
_cell_volume   2356.84330036
_cell_formula_units_Z   1
loop_
 _symmetry_equiv_pos_site_id
 _symmetry_equiv_pos_as_xyz
  1  'x, y, z'
loop_
 _atom_site_type_symbol
 _atom_site_label
 _atom_site_symmetry_multiplicity
 _atom_site_fract_x
 _atom_site_fract_y
 _atom_site_fract_z
 _atom_site_occupancy
  Mg  Mg0  1  0.68490000  0.83486200  0.79533900  1
  Mg  Mg1  1  0.20330700  0.84011300  0.75327200  1
  Mg  Mg2  1  0.52347300  0.12805000  0.82500400  1
  Mg  Mg3  1  0.36473300  0.54692600  0.72360800  1
  Mg  Mg4  1  0.51823300  0.33486200  0.62867200  1
  Mg  Mg5  1  0.03664100  0.34011300  0.58660600  1
  Mg  Mg6  1  0.35680700  0.62805000  0.65833700  1
  Mg  Mg7  1  0.19806700  0.04692600  0.55694100  1
  Mg  Mg8  1  0.35156600  0.83486200  0.46200500  1
  Mg  Mg9  1  0.86997400  0.84011300  0.41993900  1
  Mg  Mg10  1  0.19014000  0.12805000  0.49167000  1
  Mg  Mg11  1  0.03140000  0.54692600  0.39027400  1
  Mg  Mg12  1  0.18490000  0.33486200  0.29533900  1
  Mg  Mg13  1  0.70330700  0.34011300  0.25327200  1
  Mg  Mg14  1  0.02347300  0.62805000  0.32500400  1
  Mg  Mg15  1  0.86473300  0.04692600  0.22360800  1
  Zn  Zn16  1  0.44410300  0.33748800  0.77430600  1
  Zn  Zn17  1  0.94199800  0.31055100  0.80545400  1
  Zn  Zn18  1  0.62865400  0.07395900  0.66873400  1
  Zn  Zn19  1  0.78089500  0.69989100  0.73831800  1
  Zn  Zn20  1  0.10731200  0.97508400  0.81029300  1
  Zn  Zn21  1  0.73220200  0.34343600  0.68685900  1
  Zn  Zn22  1  0.81701800  0.10115200  0.77052400  1
  Zn  Zn23  1  0.94620900  0.36442400  0.74315800  1
  Zn  Zn24  1  0.23948600  0.70364200  0.81738500  1
  Zn  Zn25  1  0.57690000  0.57382400  0.77808700  1
  Zn  Zn26  1  0.31130700  0.10115200  0.77052400  1
  Zn  Zn27  1  0.07118900  0.57382400  0.77808700  1
  Zn  Zn28  1  0.48403700  0.83154000  0.69508500  1
  Zn  Zn29  1  0.09288600  0.10101700  0.71321000  1
  Zn  Zn30  1  0.23750300  0.34343600  0.68685900  1
  Zn  Zn31  1  0.98933800  0.83154000  0.69508500  1
  Zn  Zn32  1  0.86077000  0.58748800  0.69097200  1
  Zn  Zn33  1  0.51716500  0.23791300  0.72775800  1
  Zn  Zn34  1  0.37104200  0.43706300  0.82085300  1
  Zn  Zn35  1  0.64872000  0.97133300  0.73122600  1
  Zn  Zn36  1  0.27743700  0.83748800  0.60763900  1
  Zn  Zn37  1  0.77533100  0.81055100  0.63878700  1
  Zn  Zn38  1  0.46198700  0.57395900  0.50206700  1
  Zn  Zn39  1  0.61422800  0.19989100  0.57165200  1
  Zn  Zn40  1  0.94064500  0.47508400  0.64362600  1
  Zn  Zn41  1  0.56553500  0.84343600  0.52019200  1
  Zn  Zn42  1  0.65035100  0.60115200  0.60385700  1
  Zn  Zn43  1  0.77954200  0.86442400  0.57649100  1
  Zn  Zn44  1  0.07282000  0.20364200  0.65071800  1
  Zn  Zn45  1  0.41023400  0.07382400  0.61142100  1
  Zn  Zn46  1  0.14464000  0.60115200  0.60385700  1
  Zn  Zn47  1  0.90452200  0.07382400  0.61142100  1
  Zn  Zn48  1  0.31737000  0.33154000  0.52841900  1
  Zn  Zn49  1  0.92622000  0.60101700  0.54654400  1
  Zn  Zn50  1  0.07083700  0.84343600  0.52019200  1
  Zn  Zn51  1  0.82267100  0.33154000  0.52841900  1
  Zn  Zn52  1  0.69410300  0.08748800  0.52430600  1
  Zn  Zn53  1  0.35049800  0.73791300  0.56109100  1
  Zn  Zn54  1  0.20437500  0.93706300  0.65418600  1
  Zn  Zn55  1  0.48205400  0.47133300  0.56456000  1
  Zn  Zn56  1  0.11077000  0.33748800  0.44097200  1
  Zn  Zn57  1  0.60866400  0.31055100  0.47212000  1
  Zn  Zn58  1  0.29532000  0.07395900  0.33540100  1
  Zn  Zn59  1  0.44756200  0.69989100  0.40498500  1
  Zn  Zn60  1  0.77397800  0.97508400  0.47695900  1
  Zn  Zn61  1  0.39886900  0.34343600  0.35352600  1
  Zn  Zn62  1  0.48368500  0.10115200  0.43719000  1
  Zn  Zn63  1  0.61287600  0.36442400  0.40982400  1
  Zn  Zn64  1  0.90615300  0.70364200  0.48405200  1
  Zn  Zn65  1  0.24356700  0.57382400  0.44475400  1
  Zn  Zn66  1  0.97797300  0.10115200  0.43719000  1
  Zn  Zn67  1  0.73785500  0.57382400  0.44475400  1
  Zn  Zn68  1  0.15070400  0.83154000  0.36175200  1
  Zn  Zn69  1  0.75955300  0.10101700  0.37987700  1
  Zn  Zn70  1  0.90417000  0.34343600  0.35352600  1
  Zn  Zn71  1  0.65600500  0.83154000  0.36175200  1
  Zn  Zn72  1  0.52743700  0.58748800  0.35763900  1
  Zn  Zn73  1  0.18383100  0.23791300  0.39442500  1
  Zn  Zn74  1  0.03770900  0.43706300  0.48752000  1
  Zn  Zn75  1  0.31538700  0.97133300  0.39789300  1
  Zn  Zn76  1  0.94410300  0.83748800  0.27430600  1
  Zn  Zn77  1  0.44199800  0.81055100  0.30545400  1
  Zn  Zn78  1  0.28089500  0.19989100  0.23831800  1
  Zn  Zn79  1  0.60731200  0.47508400  0.31029300  1
  Zn  Zn80  1  0.31701800  0.60115200  0.27052400  1
  Zn  Zn81  1  0.44620900  0.86442400  0.24315800  1
  Zn  Zn82  1  0.73948600  0.20364200  0.31738500  1
  Zn  Zn83  1  0.07690000  0.07382400  0.27808700  1
  Zn  Zn84  1  0.81130700  0.60115200  0.27052400  1
  Zn  Zn85  1  0.57118900  0.07382400  0.27808700  1
  Zn  Zn86  1  0.01716500  0.73791300  0.22775800  1
  Zn  Zn87  1  0.87104200  0.93706300  0.32085300  1
  Zn  Zn88  1  0.14872000  0.47133300  0.23122600  1
