# generated using pymatgen
data_MgP4
_symmetry_space_group_name_H-M   'P 1'
_cell_length_a   7.29415393
_cell_length_b   9.16199215
_cell_length_c   40.89486900
_cell_angle_alpha   88.10754905
_cell_angle_beta   87.28743917
_cell_angle_gamma   107.72281959
_symmetry_Int_Tables_number   1
_chemical_formula_structural   MgP4
_chemical_formula_sum   'Mg16 P64'
_cell_volume   2597.10717612
_cell_formula_units_Z   16
loop_
 _symmetry_equiv_pos_site_id
 _symmetry_equiv_pos_as_xyz
  1  'x, y, z'
loop_
 _atom_site_type_symbol
 _atom_site_label
 _atom_site_symmetry_multiplicity
 _atom_site_fract_x
 _atom_site_fract_y
 _atom_site_fract_z
 _atom_site_occupancy
  Mg  Mg0  1  0.19230800  0.88461500  0.23076900  1
  Mg  Mg1  1  0.19230800  0.38461500  0.23076900  1
  Mg  Mg2  1  0.57692300  0.65384600  0.30769200  1
  Mg  Mg3  1  0.57692300  0.15384600  0.30769200  1
  Mg  Mg4  1  0.96153800  0.42307700  0.38461500  1
  Mg  Mg5  1  0.96153800  0.92307700  0.38461500  1
  Mg  Mg6  1  0.34615400  0.19230800  0.46153800  1
  Mg  Mg7  1  0.34615400  0.69230800  0.46153800  1
  Mg  Mg8  1  0.73076900  0.96153800  0.53846200  1
  Mg  Mg9  1  0.73076900  0.46153800  0.53846200  1
  Mg  Mg10  1  0.11538500  0.73076900  0.61538500  1
  Mg  Mg11  1  0.11538500  0.23076900  0.61538500  1
  Mg  Mg12  1  0.50000000  0.50000000  0.69230800  1
  Mg  Mg13  1  0.50000000  0.00000000  0.69230800  1
  Mg  Mg14  1  0.88461500  0.26923100  0.76923100  1
  Mg  Mg15  1  0.88461500  0.76923100  0.76923100  1
  P  P16  1  0.86199400  0.18471000  0.21529700  1
  P  P17  1  0.36280000  0.18041400  0.21427700  1
  P  P18  1  0.52262100  0.58452100  0.24624100  1
  P  P19  1  0.02181600  0.58881700  0.24726200  1
  P  P20  1  0.75235100  0.50999600  0.22215600  1
  P  P21  1  0.54887500  0.80926800  0.22270500  1
  P  P22  1  0.63226500  0.25923500  0.23938300  1
  P  P23  1  0.83574000  0.95996200  0.23883300  1
  P  P24  1  0.24660900  0.95394100  0.29222000  1
  P  P25  1  0.74741500  0.94964500  0.29120000  1
  P  P26  1  0.90723700  0.35375200  0.32316400  1
  P  P27  1  0.40643100  0.35804800  0.32418500  1
  P  P28  1  0.13696600  0.27922700  0.29907900  1
  P  P29  1  0.93349100  0.57849900  0.29962800  1
  P  P30  1  0.01688000  0.02846600  0.31630600  1
  P  P31  1  0.22035500  0.72919300  0.31575600  1
  P  P32  1  0.63122500  0.72317100  0.36914300  1
  P  P33  1  0.13203100  0.71887500  0.36812300  1
  P  P34  1  0.29185200  0.12298200  0.40008700  1
  P  P35  1  0.79104600  0.12727900  0.40110800  1
  P  P36  1  0.52158200  0.04845800  0.37600200  1
  P  P37  1  0.31810600  0.34773000  0.37655100  1
  P  P38  1  0.40149500  0.79769600  0.39322900  1
  P  P39  1  0.60497100  0.49842400  0.39268000  1
  P  P40  1  0.01584000  0.49240200  0.44606700  1
  P  P41  1  0.51664600  0.48810600  0.44504600  1
  P  P42  1  0.67646800  0.89221300  0.47701000  1
  P  P43  1  0.17566200  0.89650900  0.47803100  1
  P  P44  1  0.90619700  0.81768800  0.45292500  1
  P  P45  1  0.70272200  0.11696100  0.45347400  1
  P  P46  1  0.78611100  0.56692700  0.47015200  1
  P  P47  1  0.98958600  0.26765500  0.46960300  1
  P  P48  1  0.40045500  0.26163300  0.52299000  1
  P  P49  1  0.90126100  0.25733700  0.52196900  1
  P  P50  1  0.06108300  0.66144400  0.55393300  1
  P  P51  1  0.56027700  0.66574000  0.55495400  1
  P  P52  1  0.29081200  0.58691900  0.52984800  1
  P  P53  1  0.08733700  0.88619100  0.53039700  1
  P  P54  1  0.17072600  0.33615800  0.54707500  1
  P  P55  1  0.37420200  0.03688600  0.54652600  1
  P  P56  1  0.78507100  0.03086400  0.59991300  1
  P  P57  1  0.28587700  0.02656800  0.59889200  1
  P  P58  1  0.44569800  0.43067500  0.63085700  1
  P  P59  1  0.94489200  0.43497100  0.63187700  1
  P  P60  1  0.67542800  0.35615000  0.60677100  1
  P  P61  1  0.47195200  0.65542200  0.60732000  1
  P  P62  1  0.55534200  0.10538900  0.62399800  1
  P  P63  1  0.75881700  0.80611600  0.62344900  1
  P  P64  1  0.16968600  0.80009500  0.67683600  1
  P  P65  1  0.67049200  0.79579800  0.67581500  1
  P  P66  1  0.83031400  0.19990500  0.70778000  1
  P  P67  1  0.32950800  0.20420200  0.70880000  1
  P  P68  1  0.06004300  0.12538100  0.68369400  1
  P  P69  1  0.85656800  0.42465300  0.68424400  1
  P  P70  1  0.93995700  0.87461900  0.70092100  1
  P  P71  1  0.14343200  0.57534700  0.70037200  1
  P  P72  1  0.55430200  0.56932500  0.75375900  1
  P  P73  1  0.05510800  0.56502900  0.75273800  1
  P  P74  1  0.21492900  0.96913600  0.78470300  1
  P  P75  1  0.71412300  0.97343200  0.78572300  1
  P  P76  1  0.44465800  0.89461100  0.76061700  1
  P  P77  1  0.24118300  0.19388400  0.76116700  1
  P  P78  1  0.32457200  0.64385000  0.77784400  1
  P  P79  1  0.52804800  0.34457800  0.77729500  1
