# generated using pymatgen
data_Mg16Pd27
_symmetry_space_group_name_H-M   'P 1'
_cell_length_a   4.30853900
_cell_length_b   12.03781485
_cell_length_c   49.04360200
_cell_angle_alpha   91.40300406
_cell_angle_beta   90.00000000
_cell_angle_gamma   90.00000000
_symmetry_Int_Tables_number   1
_chemical_formula_structural   Mg16Pd27
_chemical_formula_sum   'Mg32 Pd54'
_cell_volume   2542.90320535
_cell_formula_units_Z   2
loop_
 _symmetry_equiv_pos_site_id
 _symmetry_equiv_pos_as_xyz
  1  'x, y, z'
loop_
 _atom_site_type_symbol
 _atom_site_label
 _atom_site_symmetry_multiplicity
 _atom_site_fract_x
 _atom_site_fract_y
 _atom_site_fract_z
 _atom_site_occupancy
  Mg  Mg0  1  0.50000000  0.19368400  0.28361800  1
  Mg  Mg1  1  0.50000000  0.47809100  0.27888200  1
  Mg  Mg2  1  1.00000000  0.23588700  0.33125000  1
  Mg  Mg3  1  0.00000000  0.73588700  0.33125000  1
  Mg  Mg4  1  0.50000000  0.55814400  0.35138800  1
  Mg  Mg5  1  0.50000000  0.91363000  0.31111200  1
  Mg  Mg6  1  0.50000000  0.99368400  0.38361800  1
  Mg  Mg7  1  0.50000000  0.27809100  0.37888200  1
  Mg  Mg8  1  0.00000000  0.03588700  0.43125000  1
  Mg  Mg9  1  0.00000000  0.53588700  0.43125000  1
  Mg  Mg10  1  0.50000000  0.35814400  0.45138800  1
  Mg  Mg11  1  0.50000000  0.71363000  0.41111200  1
  Mg  Mg12  1  0.50000000  0.79368400  0.48361800  1
  Mg  Mg13  1  0.50000000  0.07809100  0.47888200  1
  Mg  Mg14  1  0.00000000  0.83588700  0.53125000  1
  Mg  Mg15  1  0.00000000  0.33588700  0.53125000  1
  Mg  Mg16  1  0.50000000  0.15814400  0.55138800  1
  Mg  Mg17  1  0.50000000  0.51363000  0.51111200  1
  Mg  Mg18  1  0.50000000  0.59368400  0.58361800  1
  Mg  Mg19  1  0.50000000  0.87809100  0.57888200  1
  Mg  Mg20  1  0.00000000  0.63588700  0.63125000  1
  Mg  Mg21  1  1.00000000  0.13588700  0.63125000  1
  Mg  Mg22  1  0.50000000  0.95814400  0.65138800  1
  Mg  Mg23  1  0.50000000  0.31363000  0.61111200  1
  Mg  Mg24  1  0.50000000  0.39368400  0.68361800  1
  Mg  Mg25  1  0.50000000  0.67809100  0.67888200  1
  Mg  Mg26  1  0.00000000  0.43588700  0.73125000  1
  Mg  Mg27  1  0.00000000  0.93588700  0.73125000  1
  Mg  Mg28  1  0.50000000  0.75814400  0.75138800  1
  Mg  Mg29  1  0.50000000  0.11363000  0.71111200  1
  Mg  Mg30  1  0.50000000  0.19368400  0.78361800  1
  Mg  Mg31  1  0.50000000  0.47809100  0.77888200  1
  Pd  Pd32  1  0.00000000  0.06310400  0.29572200  1
  Pd  Pd33  1  0.00000000  0.60867000  0.26677800  1
  Pd  Pd34  1  0.00000000  0.83588700  0.28125000  1
  Pd  Pd35  1  0.00000000  0.33588700  0.28125000  1
  Pd  Pd36  1  0.50000000  0.35974300  0.32489400  1
  Pd  Pd37  1  0.50000000  0.11203200  0.33760600  1
  Pd  Pd38  1  0.50000000  0.78986100  0.35983500  1
  Pd  Pd39  1  0.50000000  0.68191400  0.30266500  1
  Pd  Pd40  1  0.00000000  0.51852900  0.31801000  1
  Pd  Pd41  1  0.00000000  0.95324600  0.34449000  1
  Pd  Pd42  1  0.00000000  0.86310400  0.39572200  1
  Pd  Pd43  1  0.00000000  0.40867000  0.36677800  1
  Pd  Pd44  1  0.00000000  0.63588700  0.38125000  1
  Pd  Pd45  1  0.00000000  0.13588700  0.38125000  1
  Pd  Pd46  1  0.50000000  0.15974300  0.42489400  1
  Pd  Pd47  1  0.50000000  0.91203200  0.43760600  1
  Pd  Pd48  1  0.50000000  0.58986100  0.45983500  1
  Pd  Pd49  1  0.50000000  0.48191400  0.40266500  1
  Pd  Pd50  1  0.00000000  0.31852900  0.41801000  1
  Pd  Pd51  1  1.00000000  0.75324600  0.44449000  1
  Pd  Pd52  1  0.00000000  0.66310400  0.49572200  1
  Pd  Pd53  1  0.00000000  0.20867000  0.46677800  1
  Pd  Pd54  1  0.00000000  0.43588700  0.48125000  1
  Pd  Pd55  1  1.00000000  0.93588700  0.48125000  1
  Pd  Pd56  1  0.50000000  0.95974300  0.52489400  1
  Pd  Pd57  1  0.50000000  0.71203200  0.53760600  1
  Pd  Pd58  1  0.50000000  0.38986100  0.55983500  1
  Pd  Pd59  1  0.50000000  0.28191400  0.50266500  1
  Pd  Pd60  1  0.00000000  0.11852900  0.51801000  1
  Pd  Pd61  1  0.00000000  0.55324600  0.54449000  1
  Pd  Pd62  1  0.00000000  0.46310400  0.59572200  1
  Pd  Pd63  1  0.00000000  0.00867000  0.56677800  1
  Pd  Pd64  1  0.00000000  0.23588700  0.58125000  1
  Pd  Pd65  1  0.00000000  0.73588700  0.58125000  1
  Pd  Pd66  1  0.50000000  0.75974300  0.62489400  1
  Pd  Pd67  1  0.50000000  0.51203200  0.63760600  1
  Pd  Pd68  1  0.50000000  0.18986100  0.65983500  1
  Pd  Pd69  1  0.50000000  0.08191400  0.60266500  1
  Pd  Pd70  1  0.00000000  0.91852900  0.61801000  1
  Pd  Pd71  1  0.00000000  0.35324600  0.64449000  1
  Pd  Pd72  1  0.00000000  0.26310400  0.69572200  1
  Pd  Pd73  1  0.00000000  0.80867000  0.66677800  1
  Pd  Pd74  1  0.00000000  0.03588700  0.68125000  1
  Pd  Pd75  1  1.00000000  0.53588700  0.68125000  1
  Pd  Pd76  1  0.50000000  0.55974300  0.72489400  1
  Pd  Pd77  1  0.50000000  0.31203200  0.73760600  1
  Pd  Pd78  1  0.50000000  0.98986100  0.75983500  1
  Pd  Pd79  1  0.50000000  0.88191400  0.70266500  1
  Pd  Pd80  1  1.00000000  0.71852900  0.71801000  1
  Pd  Pd81  1  0.00000000  0.15324600  0.74449000  1
  Pd  Pd82  1  1.00000000  0.06310400  0.79572200  1
  Pd  Pd83  1  0.00000000  0.60867000  0.76677800  1
  Pd  Pd84  1  0.00000000  0.83588700  0.78125000  1
  Pd  Pd85  1  0.00000000  0.33588700  0.78125000  1
