# generated using pymatgen
data_Mg3Sb2
_symmetry_space_group_name_H-M   'P 1'
_cell_length_a   4.60697361
_cell_length_b   7.26072800
_cell_length_c   43.94772400
_cell_angle_alpha   90.00000000
_cell_angle_beta   93.00449124
_cell_angle_gamma   90.00000000
_symmetry_Int_Tables_number   1
_chemical_formula_structural   Mg3Sb2
_chemical_formula_sum   'Mg21 Sb14'
_cell_volume   1468.02990112
_cell_formula_units_Z   7
loop_
 _symmetry_equiv_pos_site_id
 _symmetry_equiv_pos_as_xyz
  1  'x, y, z'
loop_
 _atom_site_type_symbol
 _atom_site_label
 _atom_site_symmetry_multiplicity
 _atom_site_fract_x
 _atom_site_fract_y
 _atom_site_fract_z
 _atom_site_occupancy
  Mg  Mg0  1  0.77272700  0.00000000  0.22727300  1
  Mg  Mg1  1  0.28787900  0.36720200  0.25757600  1
  Mg  Mg2  1  0.25757600  0.63279800  0.19697000  1
  Mg  Mg3  1  0.31818200  0.00000000  0.31818200  1
  Mg  Mg4  1  0.83333300  0.36720200  0.34848500  1
  Mg  Mg5  1  0.80303000  0.63279800  0.28787900  1
  Mg  Mg6  1  0.86363600  0.00000000  0.40909100  1
  Mg  Mg7  1  0.37878800  0.36720200  0.43939400  1
  Mg  Mg8  1  0.34848500  0.63279800  0.37878800  1
  Mg  Mg9  1  0.40909100  0.00000000  0.50000000  1
  Mg  Mg10  1  0.92424200  0.36720200  0.53030300  1
  Mg  Mg11  1  0.89393900  0.63279800  0.46969700  1
  Mg  Mg12  1  0.95454500  0.00000000  0.59090900  1
  Mg  Mg13  1  0.46969700  0.36720200  0.62121200  1
  Mg  Mg14  1  0.43939400  0.63279800  0.56060600  1
  Mg  Mg15  1  0.50000000  0.00000000  0.68181800  1
  Mg  Mg16  1  0.01515200  0.36720200  0.71212100  1
  Mg  Mg17  1  0.98484800  0.63279800  0.65151500  1
  Mg  Mg18  1  0.04545500  0.00000000  0.77272700  1
  Mg  Mg19  1  0.56060600  0.36720200  0.80303000  1
  Mg  Mg20  1  0.53030300  0.63279800  0.74242400  1
  Sb  Sb21  1  0.28787900  0.77448800  0.25757600  1
  Sb  Sb22  1  0.25757600  0.22551200  0.19697000  1
  Sb  Sb23  1  0.83333300  0.77448800  0.34848500  1
  Sb  Sb24  1  0.80303000  0.22551200  0.28787900  1
  Sb  Sb25  1  0.37878800  0.77448800  0.43939400  1
  Sb  Sb26  1  0.34848500  0.22551200  0.37878800  1
  Sb  Sb27  1  0.92424200  0.77448800  0.53030300  1
  Sb  Sb28  1  0.89393900  0.22551200  0.46969700  1
  Sb  Sb29  1  0.46969700  0.77448800  0.62121200  1
  Sb  Sb30  1  0.43939400  0.22551200  0.56060600  1
  Sb  Sb31  1  0.01515200  0.77448800  0.71212100  1
  Sb  Sb32  1  0.98484800  0.22551200  0.65151500  1
  Sb  Sb33  1  0.56060600  0.77448800  0.80303000  1
  Sb  Sb34  1  0.53030300  0.22551200  0.74242400  1
