# generated using pymatgen
data_Mg8Pd13
_symmetry_space_group_name_H-M   'P 1'
_cell_length_a   4.30853900
_cell_length_b   12.03781485
_cell_length_c   49.04360200
_cell_angle_alpha   91.40300406
_cell_angle_beta   90.00000000
_cell_angle_gamma   90.00000000
_symmetry_Int_Tables_number   1
_chemical_formula_structural   Mg8Pd13
_chemical_formula_sum   'Mg32 Pd52'
_cell_volume   2542.90320535
_cell_formula_units_Z   4
loop_
 _symmetry_equiv_pos_site_id
 _symmetry_equiv_pos_as_xyz
  1  'x, y, z'
loop_
 _atom_site_type_symbol
 _atom_site_label
 _atom_site_symmetry_multiplicity
 _atom_site_fract_x
 _atom_site_fract_y
 _atom_site_fract_z
 _atom_site_occupancy
  Mg  Mg0  1  0.50000000  0.17463700  0.28986800  1
  Mg  Mg1  1  0.50000000  0.45904400  0.28513200  1
  Mg  Mg2  1  0.00000000  0.21684100  0.33750000  1
  Mg  Mg3  1  0.00000000  0.71684100  0.33750000  1
  Mg  Mg4  1  0.50000000  0.53909700  0.35763800  1
  Mg  Mg5  1  0.50000000  0.89458400  0.31736200  1
  Mg  Mg6  1  0.50000000  0.97463700  0.38986800  1
  Mg  Mg7  1  0.50000000  0.25904400  0.38513200  1
  Mg  Mg8  1  0.00000000  0.01684100  0.43750000  1
  Mg  Mg9  1  0.00000000  0.51684100  0.43750000  1
  Mg  Mg10  1  0.50000000  0.33909700  0.45763800  1
  Mg  Mg11  1  0.50000000  0.69458400  0.41736200  1
  Mg  Mg12  1  0.50000000  0.77463700  0.48986800  1
  Mg  Mg13  1  0.50000000  0.05904400  0.48513200  1
  Mg  Mg14  1  0.00000000  0.81684100  0.53750000  1
  Mg  Mg15  1  0.00000000  0.31684100  0.53750000  1
  Mg  Mg16  1  0.50000000  0.13909700  0.55763800  1
  Mg  Mg17  1  0.50000000  0.49458400  0.51736200  1
  Mg  Mg18  1  0.50000000  0.57463700  0.58986800  1
  Mg  Mg19  1  0.50000000  0.85904400  0.58513200  1
  Mg  Mg20  1  0.00000000  0.61684100  0.63750000  1
  Mg  Mg21  1  0.00000000  0.11684100  0.63750000  1
  Mg  Mg22  1  0.50000000  0.93909700  0.65763800  1
  Mg  Mg23  1  0.50000000  0.29458400  0.61736200  1
  Mg  Mg24  1  0.50000000  0.37463700  0.68986800  1
  Mg  Mg25  1  0.50000000  0.65904400  0.68513200  1
  Mg  Mg26  1  0.00000000  0.41684100  0.73750000  1
  Mg  Mg27  1  0.00000000  0.91684100  0.73750000  1
  Mg  Mg28  1  0.50000000  0.73909700  0.75763800  1
  Mg  Mg29  1  0.50000000  0.09458400  0.71736200  1
  Mg  Mg30  1  0.50000000  0.17463700  0.78986800  1
  Mg  Mg31  1  0.50000000  0.45904400  0.78513200  1
  Pd  Pd32  1  0.00000000  0.81684100  0.28750000  1
  Pd  Pd33  1  1.00000000  0.31684100  0.28750000  1
  Pd  Pd34  1  0.50000000  0.34069600  0.33114400  1
  Pd  Pd35  1  0.50000000  0.09298500  0.34385600  1
  Pd  Pd36  1  0.50000000  0.77081400  0.36608500  1
  Pd  Pd37  1  0.50000000  0.66286700  0.30891500  1
  Pd  Pd38  1  0.00000000  0.49948200  0.32426000  1
  Pd  Pd39  1  0.00000000  0.93419900  0.35074000  1
  Pd  Pd40  1  0.00000000  0.04405800  0.30197200  1
  Pd  Pd41  1  0.00000000  0.38962300  0.37302800  1
  Pd  Pd42  1  0.00000000  0.61684100  0.38750000  1
  Pd  Pd43  1  1.00000000  0.11684100  0.38750000  1
  Pd  Pd44  1  0.50000000  0.14069600  0.43114400  1
  Pd  Pd45  1  0.50000000  0.89298500  0.44385600  1
  Pd  Pd46  1  0.50000000  0.57081400  0.46608500  1
  Pd  Pd47  1  0.50000000  0.46286700  0.40891500  1
  Pd  Pd48  1  0.00000000  0.29948200  0.42426000  1
  Pd  Pd49  1  0.00000000  0.73419900  0.45074000  1
  Pd  Pd50  1  0.00000000  0.84405800  0.40197200  1
  Pd  Pd51  1  0.00000000  0.18962300  0.47302800  1
  Pd  Pd52  1  0.00000000  0.41684100  0.48750000  1
  Pd  Pd53  1  0.00000000  0.91684100  0.48750000  1
  Pd  Pd54  1  0.50000000  0.94069600  0.53114400  1
  Pd  Pd55  1  0.50000000  0.69298500  0.54385600  1
  Pd  Pd56  1  0.50000000  0.37081400  0.56608500  1
  Pd  Pd57  1  0.50000000  0.26286700  0.50891500  1
  Pd  Pd58  1  0.00000000  0.09948200  0.52426000  1
  Pd  Pd59  1  0.00000000  0.53419900  0.55074000  1
  Pd  Pd60  1  0.00000000  0.64405800  0.50197200  1
  Pd  Pd61  1  0.00000000  0.98962300  0.57302800  1
  Pd  Pd62  1  0.00000000  0.21684100  0.58750000  1
  Pd  Pd63  1  0.00000000  0.71684100  0.58750000  1
  Pd  Pd64  1  0.50000000  0.74069600  0.63114400  1
  Pd  Pd65  1  0.50000000  0.49298500  0.64385600  1
  Pd  Pd66  1  0.50000000  0.17081400  0.66608500  1
  Pd  Pd67  1  0.50000000  0.06286700  0.60891500  1
  Pd  Pd68  1  0.00000000  0.89948200  0.62426000  1
  Pd  Pd69  1  0.00000000  0.33419900  0.65074000  1
  Pd  Pd70  1  1.00000000  0.44405800  0.60197200  1
  Pd  Pd71  1  0.00000000  0.78962300  0.67302800  1
  Pd  Pd72  1  0.00000000  0.01684100  0.68750000  1
  Pd  Pd73  1  0.00000000  0.51684100  0.68750000  1
  Pd  Pd74  1  0.50000000  0.54069600  0.73114400  1
  Pd  Pd75  1  0.50000000  0.29298500  0.74385600  1
  Pd  Pd76  1  0.50000000  0.97081400  0.76608500  1
  Pd  Pd77  1  0.50000000  0.86286700  0.70891500  1
  Pd  Pd78  1  0.00000000  0.69948200  0.72426000  1
  Pd  Pd79  1  0.00000000  0.13419900  0.75074000  1
  Pd  Pd80  1  0.00000000  0.24405800  0.70197200  1
  Pd  Pd81  1  0.00000000  0.58962300  0.77302800  1
  Pd  Pd82  1  0.00000000  0.81684100  0.78750000  1
  Pd  Pd83  1  0.00000000  0.31684100  0.78750000  1
