# generated using pymatgen
data_Mg81Ir20
_symmetry_space_group_name_H-M   'P 1'
_cell_length_a   9.82944242
_cell_length_b   9.82944290
_cell_length_c   50.01409000
_cell_angle_alpha   92.36329606
_cell_angle_beta   92.36329617
_cell_angle_gamma   112.50167663
_symmetry_Int_Tables_number   1
_chemical_formula_structural   Mg81Ir20
_chemical_formula_sum   'Mg81 Ir20'
_cell_volume   4452.05614699
_cell_formula_units_Z   1
loop_
 _symmetry_equiv_pos_site_id
 _symmetry_equiv_pos_as_xyz
  1  'x, y, z'
loop_
 _atom_site_type_symbol
 _atom_site_label
 _atom_site_symmetry_multiplicity
 _atom_site_fract_x
 _atom_site_fract_y
 _atom_site_fract_z
 _atom_site_occupancy
  Mg  Mg0  1  0.61160900  0.11160900  0.65401800  1
  Mg  Mg1  1  0.11160900  0.61160900  0.65401800  1
  Mg  Mg2  1  0.11160900  0.11160900  0.65401800  1
  Mg  Mg3  1  0.89732300  0.89732300  0.58258900  1
  Mg  Mg4  1  0.18303700  0.68303700  0.51116100  1
  Mg  Mg5  1  0.68303700  0.18303700  0.51116100  1
  Mg  Mg6  1  0.68303700  0.68303700  0.51116100  1
  Mg  Mg7  1  0.39732300  0.89732300  0.58258900  1
  Mg  Mg8  1  0.89732300  0.39732300  0.58258900  1
  Mg  Mg9  1  0.71444200  0.08190000  0.56581000  1
  Mg  Mg10  1  0.49846000  0.86591800  0.52794000  1
  Mg  Mg11  1  0.87192400  0.13700800  0.61830400  1
  Mg  Mg12  1  0.08020400  0.71274600  0.59936900  1
  Mg  Mg13  1  0.29618600  0.92872800  0.63723800  1
  Mg  Mg14  1  0.92272200  0.65763800  0.54687500  1
  Mg  Mg15  1  0.50446600  0.50446600  0.61830400  1
  Mg  Mg16  1  0.29018000  0.29018000  0.54687500  1
  Mg  Mg17  1  0.23825500  0.55642000  0.56685300  1
  Mg  Mg18  1  0.23222300  0.12036500  0.59632500  1
  Mg  Mg19  1  0.62033800  0.41403100  0.55087300  1
  Mg  Mg20  1  0.88856600  0.77670900  0.64028200  1
  Mg  Mg21  1  0.02394000  0.34210500  0.52689700  1
  Mg  Mg22  1  0.16632900  0.96002200  0.54287700  1
  Mg  Mg23  1  0.55639100  0.23822600  0.59832600  1
  Mg  Mg24  1  0.56242300  0.67428100  0.56885400  1
  Mg  Mg25  1  0.17430700  0.38061500  0.61430600  1
  Mg  Mg26  1  0.90607900  0.01793700  0.52489600  1
  Mg  Mg27  1  0.77070600  0.45254100  0.63828100  1
  Mg  Mg28  1  0.62831700  0.83462400  0.62230100  1
  Mg  Mg29  1  0.46875100  0.46875100  0.43973200  1
  Mg  Mg30  1  0.75446600  0.25446600  0.36830400  1
  Mg  Mg31  1  0.25446600  0.75446600  0.36830400  1
  Mg  Mg32  1  0.25446600  0.25446600  0.36830400  1
  Mg  Mg33  1  0.96875100  0.46875100  0.43973200  1
  Mg  Mg34  1  0.46875100  0.96875100  0.43973200  1
  Mg  Mg35  1  0.28587000  0.65332900  0.42295200  1
  Mg  Mg36  1  0.06988900  0.43734700  0.38508300  1
  Mg  Mg37  1  0.44335200  0.70843600  0.47544600  1
  Mg  Mg38  1  0.65163200  0.28417400  0.45651200  1
  Mg  Mg39  1  0.86761400  0.50015600  0.49438100  1
  Mg  Mg40  1  0.49415000  0.22906700  0.40401800  1
  Mg  Mg41  1  0.07589400  0.07589400  0.47544600  1
  Mg  Mg42  1  0.86160900  0.86160900  0.40401800  1
  Mg  Mg43  1  0.80968400  0.12784800  0.42399500  1
  Mg  Mg44  1  0.80365100  0.69179400  0.45346800  1
  Mg  Mg45  1  0.19176700  0.98546000  0.40801600  1
  Mg  Mg46  1  0.45999500  0.34813700  0.49742500  1
  Mg  Mg47  1  0.59536900  0.91353400  0.38404000  1
  Mg  Mg48  1  0.73775700  0.53145000  0.40002000  1
  Mg  Mg49  1  0.12781900  0.80965400  0.45546900  1
  Mg  Mg50  1  0.13385200  0.24570900  0.42599600  1
  Mg  Mg51  1  0.74573600  0.95204300  0.47144900  1
  Mg  Mg52  1  0.47750800  0.58936600  0.38203900  1
  Mg  Mg53  1  0.34213400  0.02396900  0.49542400  1
  Mg  Mg54  1  0.19974500  0.40605300  0.47944400  1
  Mg  Mg55  1  0.04018000  0.04018000  0.29687500  1
  Mg  Mg56  1  0.32589400  0.82589400  0.22544600  1
  Mg  Mg57  1  0.82589400  0.32589400  0.22544600  1
  Mg  Mg58  1  0.82589400  0.82589400  0.22544600  1
  Mg  Mg59  1  0.54018000  0.04018000  0.29687500  1
  Mg  Mg60  1  0.04018000  0.54018000  0.29687500  1
  Mg  Mg61  1  0.85729900  0.22475700  0.28009500  1
  Mg  Mg62  1  0.64131700  0.00877500  0.24222600  1
  Mg  Mg63  1  0.01478100  0.27986500  0.33258900  1
  Mg  Mg64  1  0.22306100  0.85560300  0.31365500  1
  Mg  Mg65  1  0.43904300  0.07158500  0.35152400  1
  Mg  Mg66  1  0.06557900  0.80049500  0.26116100  1
  Mg  Mg67  1  0.64732300  0.64732300  0.33258900  1
  Mg  Mg68  1  0.43303700  0.43303700  0.26116100  1
  Mg  Mg69  1  0.38111200  0.69927700  0.28113800  1
  Mg  Mg70  1  0.37508000  0.26322200  0.31061100  1
  Mg  Mg71  1  0.76319600  0.55688800  0.26515900  1
  Mg  Mg72  1  0.03142300  0.91956600  0.35456800  1
  Mg  Mg73  1  0.16679700  0.48496200  0.24118300  1
  Mg  Mg74  1  0.30918600  0.10287900  0.25716300  1
  Mg  Mg75  1  0.69924800  0.38108300  0.31261200  1
  Mg  Mg76  1  0.70528000  0.81713800  0.28313900  1
  Mg  Mg77  1  0.31716400  0.52347200  0.32859100  1
  Mg  Mg78  1  0.04893700  0.16079400  0.23918200  1
  Mg  Mg79  1  0.91356300  0.59539800  0.35256700  1
  Mg  Mg80  1  0.77117400  0.97748100  0.33658700  1
  Ir  Ir81  1  0.81740900  0.99006000  0.66506800  1
  Ir  Ir82  1  0.40580800  0.23315700  0.64296800  1
  Ir  Ir83  1  0.46283100  0.11752900  0.54687500  1
  Ir  Ir84  1  0.01887200  0.19152200  0.57153900  1
  Ir  Ir85  1  0.38883800  0.56148800  0.52221100  1
  Ir  Ir86  1  0.33181500  0.67711600  0.61830400  1
  Ir  Ir87  1  0.77577400  0.60312300  0.59363900  1
  Ir  Ir88  1  0.97723700  0.80458600  0.50011100  1
  Ir  Ir89  1  0.03425900  0.68895800  0.40401800  1
  Ir  Ir90  1  0.59030000  0.76295100  0.42868200  1
  Ir  Ir91  1  0.96026600  0.13291700  0.37935300  1
  Ir  Ir92  1  0.90324400  0.24854500  0.47544600  1
  Ir  Ir93  1  0.34720200  0.17455200  0.45078200  1
  Ir  Ir94  1  0.54866500  0.37601500  0.35725400  1
  Ir  Ir95  1  0.60568800  0.26038600  0.26116100  1
  Ir  Ir96  1  0.16172900  0.33438000  0.28582500  1
  Ir  Ir97  1  0.53169500  0.70434500  0.23649600  1
  Ir  Ir98  1  0.47467200  0.81997400  0.33258900  1
  Ir  Ir99  1  0.91863100  0.74598000  0.30792500  1
  Ir  Ir100  1  0.12009400  0.94744300  0.21439700  1
