# generated using pymatgen
data_MgZn
_symmetry_space_group_name_H-M   'P 1'
_cell_length_a   3.26915800
_cell_length_b   6.65860591
_cell_length_c   43.27254900
_cell_angle_alpha   92.06015934
_cell_angle_beta   90.00000000
_cell_angle_gamma   90.00000000
_symmetry_Int_Tables_number   1
_chemical_formula_structural   MgZn
_chemical_formula_sum   'Mg16 Zn16'
_cell_volume   941.34949986
_cell_formula_units_Z   16
loop_
 _symmetry_equiv_pos_site_id
 _symmetry_equiv_pos_as_xyz
  1  'x, y, z'
loop_
 _atom_site_type_symbol
 _atom_site_label
 _atom_site_symmetry_multiplicity
 _atom_site_fract_x
 _atom_site_fract_y
 _atom_site_fract_z
 _atom_site_occupancy
  Mg  Mg0  1  0.50000000  0.54131300  0.23392400  1
  Mg  Mg1  1  0.50000000  0.99714900  0.22761500  1
  Mg  Mg2  1  0.50000000  0.07977500  0.31084700  1
  Mg  Mg3  1  0.50000000  0.53561000  0.30453800  1
  Mg  Mg4  1  0.50000000  0.61823600  0.38777000  1
  Mg  Mg5  1  0.50000000  0.07407200  0.38146100  1
  Mg  Mg6  1  0.50000000  0.15669800  0.46469300  1
  Mg  Mg7  1  0.50000000  0.61253300  0.45838400  1
  Mg  Mg8  1  0.50000000  0.69515900  0.54161600  1
  Mg  Mg9  1  0.50000000  0.15099500  0.53530700  1
  Mg  Mg10  1  0.50000000  0.23362100  0.61853900  1
  Mg  Mg11  1  0.50000000  0.68945600  0.61223000  1
  Mg  Mg12  1  0.50000000  0.77208200  0.69546200  1
  Mg  Mg13  1  0.50000000  0.22791800  0.68915300  1
  Mg  Mg14  1  0.50000000  0.31054400  0.77238500  1
  Mg  Mg15  1  0.50000000  0.76637900  0.76607600  1
  Zn  Zn16  1  0.00000000  0.28128800  0.19677700  1
  Zn  Zn17  1  0.00000000  0.25717400  0.26476100  1
  Zn  Zn18  1  0.00000000  0.81975000  0.27370000  1
  Zn  Zn19  1  0.00000000  0.79563500  0.34168400  1
  Zn  Zn20  1  0.00000000  0.35821100  0.35062400  1
  Zn  Zn21  1  0.00000000  0.33409700  0.41860700  1
  Zn  Zn22  1  0.00000000  0.89667300  0.42754700  1
  Zn  Zn23  1  0.00000000  0.87255800  0.49553000  1
  Zn  Zn24  1  0.00000000  0.43513400  0.50447000  1
  Zn  Zn25  1  1.00000000  0.41102000  0.57245300  1
  Zn  Zn26  1  0.00000000  0.97359600  0.58139300  1
  Zn  Zn27  1  0.00000000  0.94948100  0.64937600  1
  Zn  Zn28  1  0.00000000  0.51205700  0.65831600  1
  Zn  Zn29  1  0.00000000  0.48794300  0.72630000  1
  Zn  Zn30  1  0.00000000  0.05051900  0.73523900  1
  Zn  Zn31  1  0.00000000  0.02640400  0.80322300  1
