# generated using pymatgen
data_Ce8Mg71
_symmetry_space_group_name_H-M   'P 1'
_cell_length_a   10.33012900
_cell_length_b   10.33012863
_cell_length_c   50.43243300
_cell_angle_alpha   90.00000000
_cell_angle_beta   90.00000000
_cell_angle_gamma   119.99999798
_symmetry_Int_Tables_number   1
_chemical_formula_structural   Ce8Mg71
_chemical_formula_sum   'Ce8 Mg71'
_cell_volume   4660.70950690
_cell_formula_units_Z   1
loop_
 _symmetry_equiv_pos_site_id
 _symmetry_equiv_pos_as_xyz
  1  'x, y, z'
loop_
 _atom_site_type_symbol
 _atom_site_label
 _atom_site_symmetry_multiplicity
 _atom_site_fract_x
 _atom_site_fract_y
 _atom_site_fract_z
 _atom_site_occupancy
  Ce  Ce0  1  0.00000000  0.00000000  0.54210500  1
  Ce  Ce1  1  0.00000000  0.00000000  0.44210500  1
  Ce  Ce2  1  0.33333300  0.66666700  0.54210500  1
  Ce  Ce3  1  0.66666700  0.33333300  0.44210500  1
  Ce  Ce4  1  0.00000000  0.00000000  0.74210500  1
  Ce  Ce5  1  0.00000000  0.00000000  0.64210500  1
  Ce  Ce6  1  0.33333300  0.66666700  0.74210500  1
  Ce  Ce7  1  0.66666700  0.33333300  0.64210500  1
  Mg  Mg8  1  1.00000000  0.50000000  0.39210500  1
  Mg  Mg9  1  0.50000000  0.00000000  0.39210500  1
  Mg  Mg10  1  0.50000000  0.50000000  0.39210500  1
  Mg  Mg11  1  1.00000000  0.50000000  0.59210500  1
  Mg  Mg12  1  0.50000000  0.00000000  0.59210500  1
  Mg  Mg13  1  0.16222000  0.32444000  0.58778700  1
  Mg  Mg14  1  0.16222000  0.83778000  0.49642300  1
  Mg  Mg15  1  0.32444000  0.16222000  0.39642300  1
  Mg  Mg16  1  0.63874300  0.96683000  0.44210500  1
  Mg  Mg17  1  0.33333300  0.66666700  0.47256800  1
  Mg  Mg18  1  0.66666700  0.33333300  0.57256800  1
  Mg  Mg19  1  0.83778000  0.16222000  0.48778700  1
  Mg  Mg20  1  0.32808700  0.96683000  0.44210500  1
  Mg  Mg21  1  0.36125700  0.32808700  0.54210500  1
  Mg  Mg22  1  0.16222000  0.32444000  0.49642300  1
  Mg  Mg23  1  0.96683000  0.32808700  0.54210500  1
  Mg  Mg24  1  0.63874300  0.67191300  0.44210500  1
  Mg  Mg25  1  0.16222000  0.83778000  0.58778700  1
  Mg  Mg26  1  0.67556000  0.83778000  0.58778700  1
  Mg  Mg27  1  0.32444000  0.16222000  0.48778700  1
  Mg  Mg28  1  0.67556000  0.83778000  0.49642300  1
  Mg  Mg29  1  0.33333300  0.66666700  0.41164300  1
  Mg  Mg30  1  0.83778000  0.16222000  0.39642300  1
  Mg  Mg31  1  0.50000000  0.50000000  0.49210500  1
  Mg  Mg32  1  0.96683000  0.63874300  0.54210500  1
  Mg  Mg33  1  0.36125700  0.03317000  0.54210500  1
  Mg  Mg34  1  0.66666700  0.33333300  0.51164300  1
  Mg  Mg35  1  0.83778000  0.67556000  0.39642300  1
  Mg  Mg36  1  0.67191300  0.63874300  0.54210500  1
  Mg  Mg37  1  0.03317000  0.36125700  0.44210500  1
  Mg  Mg38  1  0.83778000  0.67556000  0.48778700  1
  Mg  Mg39  1  0.67191300  0.03317000  0.54210500  1
  Mg  Mg40  1  0.50000000  0.00000000  0.49210500  1
  Mg  Mg41  1  0.32808700  0.36125700  0.44210500  1
  Mg  Mg42  1  0.03317000  0.67191300  0.44210500  1
  Mg  Mg43  1  0.50000000  0.50000000  0.59210500  1
  Mg  Mg44  1  1.00000000  0.50000000  0.49210500  1
  Mg  Mg45  1  1.00000000  0.50000000  0.79210500  1
  Mg  Mg46  1  0.50000000  0.00000000  0.79210500  1
  Mg  Mg47  1  0.16222000  0.32444000  0.78778700  1
  Mg  Mg48  1  0.16222000  0.83778000  0.69642300  1
  Mg  Mg49  1  0.32444000  0.16222000  0.59642300  1
  Mg  Mg50  1  0.63874300  0.96683000  0.64210500  1
  Mg  Mg51  1  0.33333300  0.66666700  0.67256800  1
  Mg  Mg52  1  0.66666700  0.33333300  0.77256800  1
  Mg  Mg53  1  0.83778000  0.16222000  0.68778700  1
  Mg  Mg54  1  0.32808700  0.96683000  0.64210500  1
  Mg  Mg55  1  0.36125700  0.32808700  0.74210500  1
  Mg  Mg56  1  0.16222000  0.32444000  0.69642300  1
  Mg  Mg57  1  0.96683000  0.32808700  0.74210500  1
  Mg  Mg58  1  0.63874300  0.67191300  0.64210500  1
  Mg  Mg59  1  0.16222000  0.83778000  0.78778700  1
  Mg  Mg60  1  0.67556000  0.83778000  0.78778700  1
  Mg  Mg61  1  0.32444000  0.16222000  0.68778700  1
  Mg  Mg62  1  0.67556000  0.83778000  0.69642300  1
  Mg  Mg63  1  0.33333300  0.66666700  0.61164300  1
  Mg  Mg64  1  0.83778000  0.16222000  0.59642300  1
  Mg  Mg65  1  0.50000000  0.50000000  0.69210500  1
  Mg  Mg66  1  0.96683000  0.63874300  0.74210500  1
  Mg  Mg67  1  0.36125700  0.03317000  0.74210500  1
  Mg  Mg68  1  0.66666700  0.33333300  0.71164300  1
  Mg  Mg69  1  0.83778000  0.67556000  0.59642300  1
  Mg  Mg70  1  0.67191300  0.63874300  0.74210500  1
  Mg  Mg71  1  0.03317000  0.36125700  0.64210500  1
  Mg  Mg72  1  0.83778000  0.67556000  0.68778700  1
  Mg  Mg73  1  0.67191300  0.03317000  0.74210500  1
  Mg  Mg74  1  0.50000000  0.00000000  0.69210500  1
  Mg  Mg75  1  0.32808700  0.36125700  0.64210500  1
  Mg  Mg76  1  0.03317000  0.67191300  0.64210500  1
  Mg  Mg77  1  0.50000000  0.50000000  0.79210500  1
  Mg  Mg78  1  1.00000000  0.50000000  0.69210500  1
