# generated using pymatgen
data_Mg13P48
_symmetry_space_group_name_H-M   'P 1'
_cell_length_a   7.59593140
_cell_length_b   7.29415453
_cell_length_c   43.61493600
_cell_angle_alpha   89.71196281
_cell_angle_beta   86.14110133
_cell_angle_gamma   83.88680126
_symmetry_Int_Tables_number   1
_chemical_formula_structural   Mg13P48
_chemical_formula_sum   'Mg13 P48'
_cell_volume   2397.32981822
_cell_formula_units_Z   1
loop_
 _symmetry_equiv_pos_site_id
 _symmetry_equiv_pos_as_xyz
  1  'x, y, z'
loop_
 _atom_site_type_symbol
 _atom_site_label
 _atom_site_symmetry_multiplicity
 _atom_site_fract_x
 _atom_site_fract_y
 _atom_site_fract_z
 _atom_site_occupancy
  Mg  Mg0  1  0.95669700  0.25981900  0.25416700  1
  Mg  Mg1  1  0.49836300  0.00981900  0.21250000  1
  Mg  Mg2  1  0.87336300  0.75981900  0.33750000  1
  Mg  Mg3  1  0.41503000  0.50981900  0.29583300  1
  Mg  Mg4  1  0.79003000  0.25981900  0.42083300  1
  Mg  Mg5  1  0.33169700  0.00981900  0.37916700  1
  Mg  Mg6  1  0.70669700  0.75981900  0.50416700  1
  Mg  Mg7  1  0.24836300  0.50981900  0.46250000  1
  Mg  Mg8  1  0.62336300  0.25981900  0.58750000  1
  Mg  Mg9  1  0.16503000  0.00981900  0.54583300  1
  Mg  Mg10  1  0.54003000  0.75981900  0.67083300  1
  Mg  Mg11  1  0.08169700  0.50981900  0.62916700  1
  Mg  Mg12  1  0.99836300  0.00981900  0.71250000  1
  P  P13  1  0.66511700  0.74018100  0.29206800  1
  P  P14  1  0.67198200  0.23722700  0.29256000  1
  P  P15  1  0.24827700  0.77945800  0.21626500  1
  P  P16  1  0.24141200  0.28241200  0.21577300  1
  P  P17  1  0.38119700  0.51246700  0.23012600  1
  P  P18  1  0.05579500  0.86557800  0.25460800  1
  P  P19  1  0.53219600  0.00717200  0.27820700  1
  P  P20  1  0.85759800  0.65406100  0.25372500  1
  P  P21  1  0.58178400  0.24018100  0.37540100  1
  P  P22  1  0.58864900  0.73722700  0.37589400  1
  P  P23  1  0.16494300  0.27945800  0.29959900  1
  P  P24  1  0.15807800  0.78241200  0.29910600  1
  P  P25  1  0.29786400  0.01246700  0.31346000  1
  P  P26  1  0.97246200  0.36557800  0.33794100  1
  P  P27  1  0.44886300  0.50717200  0.36154000  1
  P  P28  1  0.77426500  0.15406100  0.33705900  1
  P  P29  1  0.49845000  0.74018100  0.45873500  1
  P  P30  1  0.50531500  0.23722700  0.45922700  1
  P  P31  1  0.08161000  0.77945800  0.38293200  1
  P  P32  1  0.07474500  0.28241200  0.38244000  1
  P  P33  1  0.21453100  0.51246700  0.39679300  1
  P  P34  1  0.88912800  0.86557800  0.42127500  1
  P  P35  1  0.36552900  0.00717200  0.44487400  1
  P  P36  1  0.69093200  0.65406100  0.42039200  1
  P  P37  1  0.41511700  0.24018100  0.54206800  1
  P  P38  1  0.42198200  0.73722700  0.54256000  1
  P  P39  1  0.99827700  0.27945800  0.46626500  1
  P  P40  1  0.99141200  0.78241200  0.46577300  1
  P  P41  1  0.13119700  0.01246700  0.48012600  1
  P  P42  1  0.80579500  0.36557800  0.50460800  1
  P  P43  1  0.28219600  0.50717200  0.52820700  1
  P  P44  1  0.60759800  0.15406100  0.50372500  1
  P  P45  1  0.33178400  0.74018100  0.62540100  1
  P  P46  1  0.33864900  0.23722700  0.62589400  1
  P  P47  1  0.91494300  0.77945800  0.54959900  1
  P  P48  1  0.90807800  0.28241200  0.54910600  1
  P  P49  1  0.04786400  0.51246700  0.56346000  1
  P  P50  1  0.72246200  0.86557800  0.58794100  1
  P  P51  1  0.19886300  0.00717200  0.61154000  1
  P  P52  1  0.52426500  0.65406100  0.58705900  1
  P  P53  1  0.24845000  0.24018100  0.70873500  1
  P  P54  1  0.25531500  0.73722700  0.70922700  1
  P  P55  1  0.83161000  0.27945800  0.63293200  1
  P  P56  1  0.82474500  0.78241200  0.63244000  1
  P  P57  1  0.96453100  0.01246700  0.64679300  1
  P  P58  1  0.63912800  0.36557800  0.67127500  1
  P  P59  1  0.11552900  0.50717200  0.69487400  1
  P  P60  1  0.44093200  0.15406100  0.67039200  1
