# generated using pymatgen
data_Ce2Mg19
_symmetry_space_group_name_H-M   'P 1'
_cell_length_a   10.33012841
_cell_length_b   10.08648700
_cell_length_c   45.02798700
_cell_angle_alpha   90.00000000
_cell_angle_beta   83.41322442
_cell_angle_gamma   90.00000000
_symmetry_Int_Tables_number   1
_chemical_formula_structural   Ce2Mg19
_chemical_formula_sum   'Ce8 Mg76'
_cell_volume   4660.70935486
_cell_formula_units_Z   4
loop_
 _symmetry_equiv_pos_site_id
 _symmetry_equiv_pos_as_xyz
  1  'x, y, z'
loop_
 _atom_site_type_symbol
 _atom_site_label
 _atom_site_symmetry_multiplicity
 _atom_site_fract_x
 _atom_site_fract_y
 _atom_site_fract_z
 _atom_site_occupancy
  Ce  Ce0  1  0.60680300  0.75000000  0.32105300  1
  Ce  Ce1  1  0.60680300  0.25000000  0.32105300  1
  Ce  Ce2  1  0.07347000  0.75000000  0.38771900  1
  Ce  Ce3  1  0.14013600  0.25000000  0.25438600  1
  Ce  Ce4  1  0.00680300  0.75000000  0.52105300  1
  Ce  Ce5  1  0.00680300  0.25000000  0.52105300  1
  Ce  Ce6  1  0.47347000  0.75000000  0.58771900  1
  Ce  Ce7  1  0.54013600  0.25000000  0.45438600  1
  Mg  Mg8  1  0.10680300  0.00000000  0.32105300  1
  Mg  Mg9  1  0.90680300  0.00000000  0.22105300  1
  Mg  Mg10  1  0.83391100  0.97841000  0.35349700  1
  Mg  Mg11  1  0.34725100  0.52159000  0.35349700  1
  Mg  Mg12  1  0.57435900  0.02159000  0.38594100  1
  Mg  Mg13  1  0.79038700  0.25000000  0.24880100  1
  Mg  Mg14  1  0.07347000  0.40231100  0.38771900  1
  Mg  Mg15  1  0.14013600  0.90231100  0.25438600  1
  Mg  Mg16  1  0.86635500  0.47841000  0.28860900  1
  Mg  Mg17  1  0.37678100  0.25000000  0.38667000  1
  Mg  Mg18  1  0.31813600  0.75000000  0.19330400  1
  Mg  Mg19  1  0.83391100  0.52159000  0.35349700  1
  Mg  Mg20  1  0.95479200  0.75000000  0.31441900  1
  Mg  Mg21  1  0.49547000  0.25000000  0.24880100  1
  Mg  Mg22  1  0.34725100  0.97841000  0.35349700  1
  Mg  Mg23  1  0.63924700  0.97841000  0.25616500  1
  Mg  Mg24  1  0.57435900  0.47841000  0.38594100  1
  Mg  Mg25  1  0.63924700  0.52159000  0.25616500  1
  Mg  Mg26  1  0.07347000  0.09768900  0.38771900  1
  Mg  Mg27  1  0.86635500  0.02159000  0.28860900  1
  Mg  Mg28  1  0.40680300  0.50000000  0.22105300  1
  Mg  Mg29  1  0.26544800  0.75000000  0.31441900  1
  Mg  Mg30  1  0.02321900  0.75000000  0.19330400  1
  Mg  Mg31  1  0.14013600  0.59768900  0.25438600  1
  Mg  Mg32  1  0.37969500  0.02159000  0.28860900  1
  Mg  Mg33  1  0.44239900  0.75000000  0.25543500  1
  Mg  Mg34  1  0.94815800  0.25000000  0.32768700  1
  Mg  Mg35  1  0.37969500  0.47841000  0.28860900  1
  Mg  Mg36  1  0.83682500  0.75000000  0.25543500  1
  Mg  Mg37  1  0.90680300  0.50000000  0.22105300  1
  Mg  Mg38  1  0.77120700  0.25000000  0.38667000  1
  Mg  Mg39  1  0.25881400  0.25000000  0.32768700  1
  Mg  Mg40  1  0.40680300  0.00000000  0.22105300  1
  Mg  Mg41  1  0.10680300  0.50000000  0.32105300  1
  Mg  Mg42  1  0.50680300  0.00000000  0.52105300  1
  Mg  Mg43  1  0.30680300  0.00000000  0.42105300  1
  Mg  Mg44  1  0.23391100  0.97841000  0.55349700  1
  Mg  Mg45  1  0.74725100  0.52159000  0.55349700  1
  Mg  Mg46  1  0.97435900  0.02159000  0.58594100  1
  Mg  Mg47  1  0.19038700  0.25000000  0.44880100  1
  Mg  Mg48  1  0.47347000  0.40231100  0.58771900  1
  Mg  Mg49  1  0.54013600  0.90231100  0.45438600  1
  Mg  Mg50  1  0.26635500  0.47841000  0.48860900  1
  Mg  Mg51  1  0.77678100  0.25000000  0.58667000  1
  Mg  Mg52  1  0.71813600  0.75000000  0.39330400  1
  Mg  Mg53  1  0.23391100  0.52159000  0.55349700  1
  Mg  Mg54  1  0.35479200  0.75000000  0.51441900  1
  Mg  Mg55  1  0.89547000  0.25000000  0.44880100  1
  Mg  Mg56  1  0.74725100  0.97841000  0.55349700  1
  Mg  Mg57  1  0.03924700  0.97841000  0.45616500  1
  Mg  Mg58  1  0.97435900  0.47841000  0.58594100  1
  Mg  Mg59  1  0.03924700  0.52159000  0.45616500  1
  Mg  Mg60  1  0.47347000  0.09768900  0.58771900  1
  Mg  Mg61  1  0.26635500  0.02159000  0.48860900  1
  Mg  Mg62  1  0.80680300  0.50000000  0.42105300  1
  Mg  Mg63  1  0.66544800  0.75000000  0.51441900  1
  Mg  Mg64  1  0.42321900  0.75000000  0.39330400  1
  Mg  Mg65  1  0.54013600  0.59768900  0.45438600  1
  Mg  Mg66  1  0.77969500  0.02159000  0.48860900  1
  Mg  Mg67  1  0.84239900  0.75000000  0.45543500  1
  Mg  Mg68  1  0.34815800  0.25000000  0.52768700  1
  Mg  Mg69  1  0.77969500  0.47841000  0.48860900  1
  Mg  Mg70  1  0.23682500  0.75000000  0.45543500  1
  Mg  Mg71  1  0.30680300  0.50000000  0.42105300  1
  Mg  Mg72  1  0.17120700  0.25000000  0.58667000  1
  Mg  Mg73  1  0.65881400  0.25000000  0.52768700  1
  Mg  Mg74  1  0.80680300  0.00000000  0.42105300  1
  Mg  Mg75  1  0.50680300  0.50000000  0.52105300  1
  Mg  Mg76  1  0.70680300  0.00000000  0.62105300  1
  Mg  Mg77  1  0.59038700  0.25000000  0.64880100  1
  Mg  Mg78  1  0.11813600  0.75000000  0.59330400  1
  Mg  Mg79  1  0.29547000  0.25000000  0.64880100  1
  Mg  Mg80  1  0.20680300  0.50000000  0.62105300  1
  Mg  Mg81  1  0.82321900  0.75000000  0.59330400  1
  Mg  Mg82  1  0.70680300  0.50000000  0.62105300  1
  Mg  Mg83  1  0.20680300  0.00000000  0.62105300  1
