# generated using pymatgen
data_Mg57Si35
_symmetry_space_group_name_H-M   'P 1'
_cell_length_a   12.34156200
_cell_length_b   12.41651900
_cell_length_c   43.01208400
_cell_angle_alpha   90.00000000
_cell_angle_beta   90.00000000
_cell_angle_gamma   90.00000000
_symmetry_Int_Tables_number   1
_chemical_formula_structural   Mg57Si35
_chemical_formula_sum   'Mg114 Si70'
_cell_volume   6591.13902266
_cell_formula_units_Z   2
loop_
 _symmetry_equiv_pos_site_id
 _symmetry_equiv_pos_as_xyz
  1  'x, y, z'
loop_
 _atom_site_type_symbol
 _atom_site_label
 _atom_site_symmetry_multiplicity
 _atom_site_fract_x
 _atom_site_fract_y
 _atom_site_fract_z
 _atom_site_occupancy
  Mg  Mg0  1  0.91704200  0.42489900  0.28756800  1
  Mg  Mg1  1  0.41704200  0.83023300  0.24814600  1
  Mg  Mg2  1  0.08295800  0.83023300  0.24814600  1
  Mg  Mg3  1  0.58295800  0.42489900  0.28756800  1
  Mg  Mg4  1  0.25000000  0.45456300  0.28465600  1
  Mg  Mg5  1  0.75000000  0.80057000  0.25105900  1
  Mg  Mg6  1  0.91704200  0.92489900  0.37090200  1
  Mg  Mg7  1  0.41704200  0.58536600  0.32837900  1
  Mg  Mg8  1  0.41704200  0.96710000  0.31037900  1
  Mg  Mg9  1  0.91704200  0.78803300  0.30866800  1
  Mg  Mg10  1  0.91704200  0.16976700  0.29066800  1
  Mg  Mg11  1  0.41704200  0.33023300  0.33147900  1
  Mg  Mg12  1  0.08295800  0.33023300  0.33147900  1
  Mg  Mg13  1  0.58295800  0.16976700  0.29066800  1
  Mg  Mg14  1  0.58295800  0.78803300  0.30866800  1
  Mg  Mg15  1  0.08295800  0.96710000  0.31037900  1
  Mg  Mg16  1  0.08295800  0.58536600  0.32837900  1
  Mg  Mg17  1  0.58295800  0.92489900  0.37090200  1
  Mg  Mg18  1  0.25000000  0.95456300  0.36798900  1
  Mg  Mg19  1  0.75000000  0.59146000  0.31950700  1
  Mg  Mg20  1  0.75000000  0.99066900  0.31633900  1
  Mg  Mg21  1  0.25000000  0.76446400  0.30270900  1
  Mg  Mg22  1  0.25000000  0.16367300  0.29954000  1
  Mg  Mg23  1  0.75000000  0.30057000  0.33439200  1
  Mg  Mg24  1  0.91704200  0.42489900  0.45423500  1
  Mg  Mg25  1  0.41704200  0.08536600  0.41171300  1
  Mg  Mg26  1  0.41704200  0.46710000  0.39371300  1
  Mg  Mg27  1  0.91704200  0.28803300  0.39200200  1
  Mg  Mg28  1  0.91704200  0.66976700  0.37400100  1
  Mg  Mg29  1  0.41704200  0.83023300  0.41481300  1
  Mg  Mg30  1  0.08295800  0.83023300  0.41481300  1
  Mg  Mg31  1  0.58295800  0.66976700  0.37400100  1
  Mg  Mg32  1  0.58295800  0.28803300  0.39200200  1
  Mg  Mg33  1  0.08295800  0.46710000  0.39371300  1
  Mg  Mg34  1  0.08295800  0.08536600  0.41171300  1
  Mg  Mg35  1  0.58295800  0.42489900  0.45423500  1
  Mg  Mg36  1  0.25000000  0.45456300  0.45132200  1
  Mg  Mg37  1  0.75000000  0.09146000  0.40284100  1
  Mg  Mg38  1  0.75000000  0.49066900  0.39967200  1
  Mg  Mg39  1  0.25000000  0.26446400  0.38604200  1
  Mg  Mg40  1  0.25000000  0.66367300  0.38287400  1
  Mg  Mg41  1  0.75000000  0.80057000  0.41772500  1
  Mg  Mg42  1  0.91704200  0.92489900  0.53756800  1
  Mg  Mg43  1  0.41704200  0.58536600  0.49504600  1
  Mg  Mg44  1  0.41704200  0.96710000  0.47704600  1
  Mg  Mg45  1  0.91704200  0.78803300  0.47533500  1
  Mg  Mg46  1  0.91704200  0.16976700  0.45733500  1
  Mg  Mg47  1  0.41704200  0.33023300  0.49814600  1
  Mg  Mg48  1  0.08295800  0.33023300  0.49814600  1
  Mg  Mg49  1  0.58295800  0.16976700  0.45733500  1
  Mg  Mg50  1  0.58295800  0.78803300  0.47533500  1
  Mg  Mg51  1  0.08295800  0.96710000  0.47704600  1
  Mg  Mg52  1  0.08295800  0.58536600  0.49504600  1
  Mg  Mg53  1  0.58295800  0.92489900  0.53756800  1
  Mg  Mg54  1  0.25000000  0.95456300  0.53465600  1
  Mg  Mg55  1  0.75000000  0.59146000  0.48617400  1
  Mg  Mg56  1  0.75000000  0.99066900  0.48300500  1
  Mg  Mg57  1  0.25000000  0.76446400  0.46937600  1
  Mg  Mg58  1  0.25000000  0.16367300  0.46620700  1
  Mg  Mg59  1  0.75000000  0.30057000  0.50105900  1
  Mg  Mg60  1  0.91704200  0.42489900  0.62090200  1
  Mg  Mg61  1  0.41704200  0.08536600  0.57837900  1
  Mg  Mg62  1  0.41704200  0.46710000  0.56037900  1
  Mg  Mg63  1  0.91704200  0.28803300  0.55866800  1
  Mg  Mg64  1  0.91704200  0.66976700  0.54066800  1
  Mg  Mg65  1  0.41704200  0.83023300  0.58147900  1
  Mg  Mg66  1  0.08295800  0.83023300  0.58147900  1
  Mg  Mg67  1  0.58295800  0.66976700  0.54066800  1
  Mg  Mg68  1  0.58295800  0.28803300  0.55866800  1
  Mg  Mg69  1  0.08295800  0.46710000  0.56037900  1
  Mg  Mg70  1  0.08295800  0.08536600  0.57837900  1
  Mg  Mg71  1  0.58295800  0.42489900  0.62090200  1
  Mg  Mg72  1  0.25000000  0.45456300  0.61798900  1
  Mg  Mg73  1  0.75000000  0.09146000  0.56950700  1
  Mg  Mg74  1  0.75000000  0.49066900  0.56633900  1
  Mg  Mg75  1  0.25000000  0.26446400  0.55270900  1
  Mg  Mg76  1  0.25000000  0.66367300  0.54954000  1
  Mg  Mg77  1  0.75000000  0.80057000  0.58439200  1
  Mg  Mg78  1  0.91704200  0.92489900  0.70423500  1
  Mg  Mg79  1  0.41704200  0.58536600  0.66171300  1
  Mg  Mg80  1  0.41704200  0.96710000  0.64371300  1
  Mg  Mg81  1  0.91704200  0.78803300  0.64200200  1
  Mg  Mg82  1  0.91704200  0.16976700  0.62400100  1
  Mg  Mg83  1  0.41704200  0.33023300  0.66481300  1
  Mg  Mg84  1  0.08295800  0.33023300  0.66481300  1
  Mg  Mg85  1  0.58295800  0.16976700  0.62400100  1
  Mg  Mg86  1  0.58295800  0.78803300  0.64200200  1
  Mg  Mg87  1  0.08295800  0.96710000  0.64371300  1
  Mg  Mg88  1  0.08295800  0.58536600  0.66171300  1
  Mg  Mg89  1  0.58295800  0.92489900  0.70423500  1
  Mg  Mg90  1  0.25000000  0.95456300  0.70132200  1
  Mg  Mg91  1  0.75000000  0.59146000  0.65284100  1
  Mg  Mg92  1  0.75000000  0.99066900  0.64967200  1
  Mg  Mg93  1  0.25000000  0.76446400  0.63604200  1
  Mg  Mg94  1  0.25000000  0.16367300  0.63287400  1
  Mg  Mg95  1  0.75000000  0.30057000  0.66772500  1
  Mg  Mg96  1  0.91704200  0.42489900  0.78756800  1
  Mg  Mg97  1  0.41704200  0.08536600  0.74504600  1
  Mg  Mg98  1  0.41704200  0.46710000  0.72704600  1
  Mg  Mg99  1  0.91704200  0.28803300  0.72533500  1
  Mg  Mg100  1  0.91704200  0.66976700  0.70733500  1
  Mg  Mg101  1  0.41704200  0.83023300  0.74814600  1
  Mg  Mg102  1  0.08295800  0.83023300  0.74814600  1
  Mg  Mg103  1  0.58295800  0.66976700  0.70733500  1
  Mg  Mg104  1  0.58295800  0.28803300  0.72533500  1
  Mg  Mg105  1  0.08295800  0.46710000  0.72704600  1
  Mg  Mg106  1  0.08295800  0.08536600  0.74504600  1
  Mg  Mg107  1  0.58295800  0.42489900  0.78756800  1
  Mg  Mg108  1  0.25000000  0.45456300  0.78465600  1
  Mg  Mg109  1  0.75000000  0.09146000  0.73617400  1
  Mg  Mg110  1  0.75000000  0.49066900  0.73300500  1
  Mg  Mg111  1  0.25000000  0.26446400  0.71937600  1
  Mg  Mg112  1  0.25000000  0.66367300  0.71620700  1
  Mg  Mg113  1  0.75000000  0.80057000  0.75105900  1
  Si  Si114  1  0.10025900  0.62756600  0.26785700  1
  Si  Si115  1  0.60025900  0.62756600  0.26785700  1
  Si  Si116  1  0.89974100  0.62756600  0.26785700  1
  Si  Si117  1  0.39974100  0.62756600  0.26785700  1
  Si  Si118  1  0.25000000  0.96090000  0.26785700  1
  Si  Si119  1  0.75000000  0.29423300  0.26785700  1
  Si  Si120  1  0.41253500  0.29423300  0.26785700  1
  Si  Si121  1  0.91253500  0.96090000  0.26785700  1
  Si  Si122  1  0.58746500  0.96090000  0.26785700  1
  Si  Si123  1  0.08746500  0.29423300  0.26785700  1
  Si  Si124  1  0.10025900  0.12756600  0.35119000  1
  Si  Si125  1  0.60025900  0.12756600  0.35119000  1
  Si  Si126  1  0.89974100  0.12756600  0.35119000  1
  Si  Si127  1  0.39974100  0.12756600  0.35119000  1
  Si  Si128  1  0.25000000  0.46090000  0.35119000  1
  Si  Si129  1  0.75000000  0.79423300  0.35119000  1
  Si  Si130  1  0.41253500  0.79423300  0.35119000  1
  Si  Si131  1  0.91253500  0.46090000  0.35119000  1
  Si  Si132  1  0.58746500  0.46090000  0.35119000  1
  Si  Si133  1  0.08746500  0.79423300  0.35119000  1
  Si  Si134  1  0.10025900  0.62756600  0.43452400  1
  Si  Si135  1  0.60025900  0.62756600  0.43452400  1
  Si  Si136  1  0.89974100  0.62756600  0.43452400  1
  Si  Si137  1  0.39974100  0.62756600  0.43452400  1
  Si  Si138  1  0.25000000  0.96090000  0.43452400  1
  Si  Si139  1  0.75000000  0.29423300  0.43452400  1
  Si  Si140  1  0.41253500  0.29423300  0.43452400  1
  Si  Si141  1  0.91253500  0.96090000  0.43452400  1
  Si  Si142  1  0.58746500  0.96090000  0.43452400  1
  Si  Si143  1  0.08746500  0.29423300  0.43452400  1
  Si  Si144  1  0.10025900  0.12756600  0.51785700  1
  Si  Si145  1  0.60025900  0.12756600  0.51785700  1
  Si  Si146  1  0.89974100  0.12756600  0.51785700  1
  Si  Si147  1  0.39974100  0.12756600  0.51785700  1
  Si  Si148  1  0.25000000  0.46090000  0.51785700  1
  Si  Si149  1  0.75000000  0.79423300  0.51785700  1
  Si  Si150  1  0.41253500  0.79423300  0.51785700  1
  Si  Si151  1  0.91253500  0.46090000  0.51785700  1
  Si  Si152  1  0.58746500  0.46090000  0.51785700  1
  Si  Si153  1  0.08746500  0.79423300  0.51785700  1
  Si  Si154  1  0.10025900  0.62756600  0.60119000  1
  Si  Si155  1  0.60025900  0.62756600  0.60119000  1
  Si  Si156  1  0.89974100  0.62756600  0.60119000  1
  Si  Si157  1  0.39974100  0.62756600  0.60119000  1
  Si  Si158  1  0.25000000  0.96090000  0.60119000  1
  Si  Si159  1  0.75000000  0.29423300  0.60119000  1
  Si  Si160  1  0.41253500  0.29423300  0.60119000  1
  Si  Si161  1  0.91253500  0.96090000  0.60119000  1
  Si  Si162  1  0.58746500  0.96090000  0.60119000  1
  Si  Si163  1  0.08746500  0.29423300  0.60119000  1
  Si  Si164  1  0.10025900  0.12756600  0.68452400  1
  Si  Si165  1  0.60025900  0.12756600  0.68452400  1
  Si  Si166  1  0.89974100  0.12756600  0.68452400  1
  Si  Si167  1  0.39974100  0.12756600  0.68452400  1
  Si  Si168  1  0.25000000  0.46090000  0.68452400  1
  Si  Si169  1  0.75000000  0.79423300  0.68452400  1
  Si  Si170  1  0.41253500  0.79423300  0.68452400  1
  Si  Si171  1  0.91253500  0.46090000  0.68452400  1
  Si  Si172  1  0.58746500  0.46090000  0.68452400  1
  Si  Si173  1  0.08746500  0.79423300  0.68452400  1
  Si  Si174  1  0.10025900  0.62756600  0.76785700  1
  Si  Si175  1  0.60025900  0.62756600  0.76785700  1
  Si  Si176  1  0.89974100  0.62756600  0.76785700  1
  Si  Si177  1  0.39974100  0.62756600  0.76785700  1
  Si  Si178  1  0.25000000  0.96090000  0.76785700  1
  Si  Si179  1  0.75000000  0.29423300  0.76785700  1
  Si  Si180  1  0.41253500  0.29423300  0.76785700  1
  Si  Si181  1  0.91253500  0.96090000  0.76785700  1
  Si  Si182  1  0.58746500  0.96090000  0.76785700  1
  Si  Si183  1  0.08746500  0.29423300  0.76785700  1
