# generated using pymatgen
data_Ce5Mg56
_symmetry_space_group_name_H-M   'P 1'
_cell_length_a   7.86989906
_cell_length_b   7.86989915
_cell_length_c   41.05208600
_cell_angle_alpha   89.75311460
_cell_angle_beta   89.75311460
_cell_angle_gamma   81.87972292
_symmetry_Int_Tables_number   1
_chemical_formula_structural   Ce5Mg56
_chemical_formula_sum   'Ce5 Mg56'
_cell_volume   2517.04027290
_cell_formula_units_Z   1
loop_
 _symmetry_equiv_pos_site_id
 _symmetry_equiv_pos_as_xyz
  1  'x, y, z'
loop_
 _atom_site_type_symbol
 _atom_site_label
 _atom_site_symmetry_multiplicity
 _atom_site_fract_x
 _atom_site_fract_y
 _atom_site_fract_z
 _atom_site_occupancy
  Ce  Ce0  1  0.14359900  0.14359900  0.73076900  1
  Ce  Ce1  1  0.39359900  0.39359900  0.60576900  1
  Ce  Ce2  1  0.64359900  0.64359900  0.48076900  1
  Ce  Ce3  1  0.89359900  0.89359900  0.35576900  1
  Ce  Ce4  1  0.14359900  0.14359900  0.23076900  1
  Mg  Mg5  1  0.85916100  0.85916100  0.76669600  1
  Mg  Mg6  1  0.42803800  0.42803800  0.69484200  1
  Mg  Mg7  1  0.79239400  0.49480500  0.73076900  1
  Mg  Mg8  1  0.49480500  0.79239400  0.73076900  1
  Mg  Mg9  1  0.40700300  0.40700300  0.77467000  1
  Mg  Mg10  1  0.88019500  0.88019500  0.68686900  1
  Mg  Mg11  1  0.64359900  0.14359900  0.73076900  1
  Mg  Mg12  1  0.14359900  0.64359900  0.73076900  1
  Mg  Mg13  1  0.48118400  0.05601500  0.66826900  1
  Mg  Mg14  1  0.05601500  0.48118400  0.66826900  1
  Mg  Mg15  1  0.10916100  0.10916100  0.64169600  1
  Mg  Mg16  1  0.67803800  0.67803800  0.56984200  1
  Mg  Mg17  1  0.04239400  0.74480500  0.60576900  1
  Mg  Mg18  1  0.74480500  0.04239400  0.60576900  1
  Mg  Mg19  1  0.65700300  0.65700300  0.64967000  1
  Mg  Mg20  1  0.13019500  0.13019500  0.56186900  1
  Mg  Mg21  1  0.76859900  0.26859900  0.66826900  1
  Mg  Mg22  1  0.89359900  0.39359900  0.60576900  1
  Mg  Mg23  1  0.39359900  0.89359900  0.60576900  1
  Mg  Mg24  1  0.26859900  0.76859900  0.66826900  1
  Mg  Mg25  1  0.73118400  0.30601500  0.54326900  1
  Mg  Mg26  1  0.30601500  0.73118400  0.54326900  1
  Mg  Mg27  1  0.35916100  0.35916100  0.51669600  1
  Mg  Mg28  1  0.92803800  0.92803800  0.44484200  1
  Mg  Mg29  1  0.29239400  0.99480500  0.48076900  1
  Mg  Mg30  1  0.99480500  0.29239400  0.48076900  1
  Mg  Mg31  1  0.90700300  0.90700300  0.52467000  1
  Mg  Mg32  1  0.38019500  0.38019500  0.43686900  1
  Mg  Mg33  1  0.01859900  0.51859900  0.54326900  1
  Mg  Mg34  1  0.14359900  0.64359900  0.48076900  1
  Mg  Mg35  1  0.64359900  0.14359900  0.48076900  1
  Mg  Mg36  1  0.51859900  0.01859900  0.54326900  1
  Mg  Mg37  1  0.98118400  0.55601500  0.41826900  1
  Mg  Mg38  1  0.55601500  0.98118400  0.41826900  1
  Mg  Mg39  1  0.60916100  0.60916100  0.39169600  1
  Mg  Mg40  1  0.17803800  0.17803800  0.31984200  1
  Mg  Mg41  1  0.54239400  0.24480500  0.35576900  1
  Mg  Mg42  1  0.24480500  0.54239400  0.35576900  1
  Mg  Mg43  1  0.15700300  0.15700300  0.39967000  1
  Mg  Mg44  1  0.63019500  0.63019500  0.31186900  1
  Mg  Mg45  1  0.26859900  0.76859900  0.41826900  1
  Mg  Mg46  1  0.39359900  0.89359900  0.35576900  1
  Mg  Mg47  1  0.89359900  0.39359900  0.35576900  1
  Mg  Mg48  1  0.76859900  0.26859900  0.41826900  1
  Mg  Mg49  1  0.23118400  0.80601500  0.29326900  1
  Mg  Mg50  1  0.80601500  0.23118400  0.29326900  1
  Mg  Mg51  1  0.85916100  0.85916100  0.26669600  1
  Mg  Mg52  1  0.42803800  0.42803800  0.19484200  1
  Mg  Mg53  1  0.79239400  0.49480500  0.23076900  1
  Mg  Mg54  1  0.49480500  0.79239400  0.23076900  1
  Mg  Mg55  1  0.40700300  0.40700300  0.27467000  1
  Mg  Mg56  1  0.88019500  0.88019500  0.18686900  1
  Mg  Mg57  1  0.51859900  0.01859900  0.29326900  1
  Mg  Mg58  1  0.64359900  0.14359900  0.23076900  1
  Mg  Mg59  1  0.14359900  0.64359900  0.23076900  1
  Mg  Mg60  1  0.01859900  0.51859900  0.29326900  1
