# generated using pymatgen
data_Ac16Mg7
_symmetry_space_group_name_H-M   'P 1'
_cell_length_a   4.13946800
_cell_length_b   7.31839630
_cell_length_c   47.51736100
_cell_angle_alpha   91.04882459
_cell_angle_beta   90.00000000
_cell_angle_gamma   106.42813583
_symmetry_Int_Tables_number   1
_chemical_formula_structural   Ac16Mg7
_chemical_formula_sum   'Ac16 Mg7'
_cell_volume   1380.48476287
_cell_formula_units_Z   1
loop_
 _symmetry_equiv_pos_site_id
 _symmetry_equiv_pos_as_xyz
  1  'x, y, z'
loop_
 _atom_site_type_symbol
 _atom_site_label
 _atom_site_symmetry_multiplicity
 _atom_site_fract_x
 _atom_site_fract_y
 _atom_site_fract_z
 _atom_site_occupancy
  Ac  Ac0  1  0.00016600  0.00033200  0.31866600  1
  Ac  Ac1  1  0.80452600  0.60905200  0.20911100  1
  Ac  Ac2  1  0.08350000  0.16699900  0.23533300  1
  Ac  Ac3  1  0.72119300  0.44238500  0.29244500  1
  Ac  Ac4  1  0.83350000  0.66699900  0.48533300  1
  Ac  Ac5  1  0.63785900  0.27571900  0.37577800  1
  Ac  Ac6  1  0.91683300  0.83366600  0.40200000  1
  Ac  Ac7  1  0.55452600  0.10905200  0.45911100  1
  Ac  Ac8  1  0.66683300  0.33366600  0.65200000  1
  Ac  Ac9  1  0.47119300  0.94238500  0.54244500  1
  Ac  Ac10  1  0.75016600  0.50033200  0.56866600  1
  Ac  Ac11  1  0.38785900  0.77571900  0.62577800  1
  Ac  Ac12  1  0.50016600  0.00033200  0.81866600  1
  Ac  Ac13  1  0.30452600  0.60905200  0.70911100  1
  Ac  Ac14  1  0.58350000  0.16699900  0.73533300  1
  Ac  Ac15  1  0.22119300  0.44238500  0.79244500  1
  Mg  Mg16  1  0.40234600  0.80469200  0.26388900  1
  Mg  Mg17  1  0.23567900  0.47135900  0.43055600  1
  Mg  Mg18  1  0.31901300  0.63802500  0.34722200  1
  Mg  Mg19  1  0.06901300  0.13802500  0.59722200  1
  Mg  Mg20  1  0.15234600  0.30469200  0.51388900  1
  Mg  Mg21  1  0.90234600  0.80469200  0.76388900  1
  Mg  Mg22  1  0.98567900  0.97135900  0.68055600  1
