# generated using pymatgen
data_Mg10Zn17
_symmetry_space_group_name_H-M   'P 1'
_cell_length_a   5.07402229
_cell_length_b   14.70723601
_cell_length_c   50.49845100
_cell_angle_alpha   88.21601723
_cell_angle_beta   89.67566990
_cell_angle_gamma   90.29193359
_symmetry_Int_Tables_number   1
_chemical_formula_structural   Mg10Zn17
_chemical_formula_sum   'Mg30 Zn51'
_cell_volume   3766.49971225
_cell_formula_units_Z   3
loop_
 _symmetry_equiv_pos_site_id
 _symmetry_equiv_pos_as_xyz
  1  'x, y, z'
loop_
 _atom_site_type_symbol
 _atom_site_label
 _atom_site_symmetry_multiplicity
 _atom_site_fract_x
 _atom_site_fract_y
 _atom_site_fract_z
 _atom_site_occupancy
  Mg  Mg0  1  0.13181600  0.85398900  0.49684000  1
  Mg  Mg1  1  0.12902900  0.12044100  0.41678200  1
  Mg  Mg2  1  0.13765500  0.61668500  0.28164600  1
  Mg  Mg3  1  0.63520700  0.83110800  0.46312300  1
  Mg  Mg4  1  0.63385800  0.20673200  0.44176100  1
  Mg  Mg5  1  0.63572000  0.93144200  0.29115300  1
  Mg  Mg6  1  0.13148100  0.41964700  0.25445700  1
  Mg  Mg7  1  0.63102300  0.80200700  0.40505900  1
  Mg  Mg8  1  0.63229500  0.30121400  0.27325000  1
  Mg  Mg9  1  0.63237200  0.42638300  0.42642100  1
  Mg  Mg10  1  0.62857500  0.26643000  0.33653600  1
  Mg  Mg11  1  0.13393500  0.58190100  0.34493200  1
  Mg  Mg12  1  0.13171400  0.91504800  0.43068900  1
  Mg  Mg13  1  0.63281200  0.73578600  0.26369200  1
  Mg  Mg14  1  0.13341800  0.14732900  0.35449000  1
  Mg  Mg15  1  0.63474900  0.46346800  0.36372500  1
  Mg  Mg16  1  0.13441300  0.77912600  0.37134200  1
  Mg  Mg17  1  0.13050900  0.95167300  0.32702900  1
  Mg  Mg18  1  0.13720000  0.51267400  0.45139900  1
  Mg  Mg19  1  0.13451600  0.71806700  0.43749300  1
  Mg  Mg20  1  0.63765500  0.36668500  0.53164600  1
  Mg  Mg21  1  0.13572000  0.68144200  0.54115300  1
  Mg  Mg22  1  0.63148100  0.16964700  0.50445700  1
  Mg  Mg23  1  0.13229500  0.05121400  0.52325000  1
  Mg  Mg24  1  0.12857500  0.01643000  0.58653600  1
  Mg  Mg25  1  0.63393500  0.33190100  0.59493200  1
  Mg  Mg26  1  0.13281200  0.48578600  0.51369200  1
  Mg  Mg27  1  0.63341800  0.89732900  0.60449000  1
  Mg  Mg28  1  0.13474900  0.21346800  0.61372500  1
  Mg  Mg29  1  0.63050900  0.70167300  0.57702900  1
  Zn  Zn30  1  0.12901300  0.18656900  0.47179000  1
  Zn  Zn31  1  0.63238500  0.00810900  0.42515200  1
  Zn  Zn32  1  0.13662700  0.28210200  0.30569400  1
  Zn  Zn33  1  0.38250700  0.60443000  0.39790800  1
  Zn  Zn34  1  0.87827200  0.28443500  0.38945000  1
  Zn  Zn35  1  0.38016200  0.03092900  0.46925100  1
  Zn  Zn36  1  0.88311500  0.44155700  0.30909100  1
  Zn  Zn37  1  0.13721600  0.44654600  0.39639200  1
  Zn  Zn38  1  0.63392100  0.04739300  0.34034900  1
  Zn  Zn39  1  0.88154800  0.34869900  0.47882600  1
  Zn  Zn40  1  0.87970600  0.12479900  0.30137300  1
  Zn  Zn41  1  0.13224000  0.01806400  0.26938800  1
  Zn  Zn42  1  0.63353100  0.51589400  0.26835600  1
  Zn  Zn43  1  0.63862400  0.50113900  0.48188600  1
  Zn  Zn44  1  0.63384400  0.62500600  0.44303000  1
  Zn  Zn45  1  0.13230900  0.83572200  0.27783300  1
  Zn  Zn46  1  0.89226800  0.66397500  0.48701700  1
  Zn  Zn47  1  0.38468200  0.28441600  0.38935500  1
  Zn  Zn48  1  0.88606700  0.60218600  0.39893100  1
  Zn  Zn49  1  0.13269900  0.36722100  0.34982600  1
  Zn  Zn50  1  0.37396200  0.96914000  0.38116500  1
  Zn  Zn51  1  0.38795800  0.34868000  0.47873200  1
  Zn  Zn52  1  0.38311500  0.44155700  0.30909100  1
  Zn  Zn53  1  0.12756400  0.20630100  0.25981000  1
  Zn  Zn54  1  0.38376900  0.12389700  0.30174900  1
  Zn  Zn55  1  0.37886800  0.66645300  0.48635600  1
  Zn  Zn56  1  0.63866500  0.67681400  0.35837200  1
  Zn  Zn57  1  0.88736200  0.96666200  0.38182500  1
  Zn  Zn58  1  0.62760600  0.13197600  0.38629600  1
  Zn  Zn59  1  0.38246100  0.75921700  0.31643300  1
  Zn  Zn60  1  0.88372200  0.02868500  0.47027400  1
  Zn  Zn61  1  0.13311500  0.31655700  0.43409100  1
  Zn  Zn62  1  0.88652400  0.75831500  0.31680900  1
  Zn  Zn63  1  0.63399000  0.86505100  0.34879400  1
  Zn  Zn64  1  0.62960200  0.60101200  0.31248800  1
  Zn  Zn65  1  0.63662700  0.03210200  0.55569400  1
  Zn  Zn66  1  0.38311500  0.19155700  0.55909100  1
  Zn  Zn67  1  0.13392100  0.79739300  0.59034900  1
  Zn  Zn68  1  0.37970600  0.87479900  0.55137300  1
  Zn  Zn69  1  0.63224000  0.76806400  0.51938800  1
  Zn  Zn70  1  0.13353100  0.26589400  0.51835600  1
  Zn  Zn71  1  0.63230900  0.58572200  0.52783300  1
  Zn  Zn72  1  0.63269900  0.11722100  0.59982600  1
  Zn  Zn73  1  0.88311500  0.19155700  0.55909100  1
  Zn  Zn74  1  0.62756400  0.95630100  0.50981000  1
  Zn  Zn75  1  0.88376900  0.87389700  0.55174900  1
  Zn  Zn76  1  0.13866500  0.42681400  0.60837200  1
  Zn  Zn77  1  0.88246100  0.50921700  0.56643300  1
  Zn  Zn78  1  0.38652400  0.50831500  0.56680900  1
  Zn  Zn79  1  0.13399000  0.61505100  0.59879400  1
  Zn  Zn80  1  0.12960200  0.35101200  0.56248800  1
