# generated using pymatgen
data_LiMg2
_symmetry_space_group_name_H-M   'P 1'
_cell_length_a   5.06834700
_cell_length_b   8.55483815
_cell_length_c   42.04420300
_cell_angle_alpha   91.27622824
_cell_angle_beta   90.00000000
_cell_angle_gamma   90.00000000
_symmetry_Int_Tables_number   1
_chemical_formula_structural   LiMg2
_chemical_formula_sum   'Li18 Mg36'
_cell_volume   1822.53768168
_cell_formula_units_Z   18
loop_
 _symmetry_equiv_pos_site_id
 _symmetry_equiv_pos_as_xyz
  1  'x, y, z'
loop_
 _atom_site_type_symbol
 _atom_site_label
 _atom_site_symmetry_multiplicity
 _atom_site_fract_x
 _atom_site_fract_y
 _atom_site_fract_z
 _atom_site_occupancy
  Li  Li0  1  0.25000000  0.00557400  0.77757100  1
  Li  Li1  1  0.75000000  0.56585400  0.79385700  1
  Li  Li2  1  0.25000000  0.93414600  0.70614300  1
  Li  Li3  1  0.75000000  0.49442600  0.72242900  1
  Li  Li4  1  0.25000000  0.86271700  0.63471400  1
  Li  Li5  1  0.75000000  0.42299700  0.65100000  1
  Li  Li6  1  0.25000000  0.79128900  0.56328600  1
  Li  Li7  1  0.75000000  0.35156800  0.57957200  1
  Li  Li8  1  0.25000000  0.71986000  0.49185700  1
  Li  Li9  1  0.75000000  0.28014000  0.50814300  1
  Li  Li10  1  0.25000000  0.64843200  0.42042800  1
  Li  Li11  1  0.75000000  0.20871100  0.43671400  1
  Li  Li12  1  0.25000000  0.57700300  0.34900000  1
  Li  Li13  1  0.75000000  0.13728300  0.36528600  1
  Li  Li14  1  0.25000000  0.50557400  0.27757100  1
  Li  Li15  1  0.75000000  0.06585400  0.29385700  1
  Li  Li16  1  0.25000000  0.43414600  0.20614300  1
  Li  Li17  1  0.75000000  0.99442600  0.22242900  1
  Mg  Mg18  1  0.25000000  0.36533400  0.80128400  1
  Mg  Mg19  1  0.25000000  0.65138900  0.75365200  1
  Mg  Mg20  1  0.75000000  0.20609400  0.77014500  1
  Mg  Mg21  1  0.75000000  0.92003900  0.81777600  1
  Mg  Mg22  1  0.25000000  0.29390600  0.72985500  1
  Mg  Mg23  1  0.25000000  0.57996100  0.68222400  1
  Mg  Mg24  1  0.75000000  0.13466600  0.69871600  1
  Mg  Mg25  1  0.75000000  0.84861100  0.74634800  1
  Mg  Mg26  1  0.25000000  0.22247700  0.65842700  1
  Mg  Mg27  1  0.25000000  0.50853200  0.61079500  1
  Mg  Mg28  1  0.75000000  0.06323700  0.62728800  1
  Mg  Mg29  1  0.75000000  0.77718200  0.67491900  1
  Mg  Mg30  1  0.25000000  0.15104900  0.58699800  1
  Mg  Mg31  1  0.25000000  0.43710300  0.53936700  1
  Mg  Mg32  1  0.75000000  0.99180800  0.55585900  1
  Mg  Mg33  1  0.75000000  0.70575400  0.60349100  1
  Mg  Mg34  1  0.25000000  0.07962000  0.51557000  1
  Mg  Mg35  1  0.25000000  0.36567500  0.46793800  1
  Mg  Mg36  1  0.75000000  0.92038000  0.48443000  1
  Mg  Mg37  1  0.75000000  0.63432500  0.53206200  1
  Mg  Mg38  1  0.25000000  0.00819200  0.44414100  1
  Mg  Mg39  1  0.25000000  0.29424600  0.39650900  1
  Mg  Mg40  1  0.75000000  0.84895100  0.41300200  1
  Mg  Mg41  1  0.75000000  0.56289700  0.46063300  1
  Mg  Mg42  1  0.25000000  0.93676300  0.37271200  1
  Mg  Mg43  1  0.25000000  0.22281800  0.32508100  1
  Mg  Mg44  1  0.75000000  0.77752300  0.34157300  1
  Mg  Mg45  1  0.75000000  0.49146800  0.38920500  1
  Mg  Mg46  1  0.25000000  0.86533400  0.30128400  1
  Mg  Mg47  1  0.25000000  0.15138900  0.25365200  1
  Mg  Mg48  1  0.75000000  0.70609400  0.27014500  1
  Mg  Mg49  1  0.75000000  0.42003900  0.31777600  1
  Mg  Mg50  1  0.25000000  0.79390600  0.22985500  1
  Mg  Mg51  1  0.25000000  0.07996100  0.18222400  1
  Mg  Mg52  1  0.75000000  0.63466600  0.19871600  1
  Mg  Mg53  1  0.75000000  0.34861100  0.24634800  1
