# generated using pymatgen
data_Pm2Mg
_symmetry_space_group_name_H-M   'P 1'
_cell_length_a   6.79888396
_cell_length_b   8.90561694
_cell_length_c   43.55696400
_cell_angle_alpha   90.95301810
_cell_angle_beta   92.28710105
_cell_angle_gamma   96.91119972
_symmetry_Int_Tables_number   1
_chemical_formula_structural   Pm2Mg
_chemical_formula_sum   'Pm36 Mg18'
_cell_volume   2615.43875584
_cell_formula_units_Z   18
loop_
 _symmetry_equiv_pos_site_id
 _symmetry_equiv_pos_as_xyz
  1  'x, y, z'
loop_
 _atom_site_type_symbol
 _atom_site_label
 _atom_site_symmetry_multiplicity
 _atom_site_fract_x
 _atom_site_fract_y
 _atom_site_fract_z
 _atom_site_occupancy
  Pm  Pm0  1  0.20376700  0.36650100  0.19013000  1
  Pm  Pm1  1  0.11288100  0.75301600  0.21285100  1
  Pm  Pm2  1  0.51051800  0.06207000  0.23844200  1
  Pm  Pm3  1  0.60140500  0.67555500  0.21572000  1
  Pm  Pm4  1  0.91805300  0.43793000  0.26155800  1
  Pm  Pm5  1  0.82716600  0.82444500  0.28428000  1
  Pm  Pm6  1  0.22480400  0.13349900  0.30987000  1
  Pm  Pm7  1  0.31569100  0.74698400  0.28714900  1
  Pm  Pm8  1  0.63233900  0.50935900  0.33298700  1
  Pm  Pm9  1  0.54145200  0.89587400  0.35570800  1
  Pm  Pm10  1  0.93909000  0.20492700  0.38129900  1
  Pm  Pm11  1  0.02997600  0.81841200  0.35857700  1
  Pm  Pm12  1  0.34662500  0.58078700  0.40441500  1
  Pm  Pm13  1  0.25573800  0.96730200  0.42713700  1
  Pm  Pm14  1  0.65337500  0.27635600  0.45272800  1
  Pm  Pm15  1  0.74426200  0.88984100  0.43000600  1
  Pm  Pm16  1  0.06091000  0.65221600  0.47584400  1
  Pm  Pm17  1  0.97002400  0.03873100  0.49856600  1
  Pm  Pm18  1  0.36766100  0.34778400  0.52415600  1
  Pm  Pm19  1  0.45854800  0.96126900  0.50143400  1
  Pm  Pm20  1  0.77519600  0.72364400  0.54727200  1
  Pm  Pm21  1  0.68430900  0.11015900  0.56999400  1
  Pm  Pm22  1  0.08194700  0.41921300  0.59558500  1
  Pm  Pm23  1  0.17283400  0.03269800  0.57286300  1
  Pm  Pm24  1  0.48948200  0.79507300  0.61870100  1
  Pm  Pm25  1  0.39859500  0.18158800  0.64142300  1
  Pm  Pm26  1  0.79623300  0.49064100  0.66701300  1
  Pm  Pm27  1  0.88711900  0.10412600  0.64429200  1
  Pm  Pm28  1  0.20376700  0.86650100  0.69013000  1
  Pm  Pm29  1  0.11288100  0.25301600  0.71285100  1
  Pm  Pm30  1  0.51051800  0.56207000  0.73844200  1
  Pm  Pm31  1  0.60140500  0.17555500  0.71572000  1
  Pm  Pm32  1  0.91805300  0.93793000  0.76155800  1
  Pm  Pm33  1  0.82716600  0.32444500  0.78428000  1
  Pm  Pm34  1  0.22480400  0.63349900  0.80987000  1
  Pm  Pm35  1  0.31569100  0.24698400  0.78714900  1
  Mg  Mg36  1  0.01594400  0.09869100  0.23708600  1
  Mg  Mg37  1  0.69834200  0.32988000  0.19148600  1
  Mg  Mg38  1  0.73022900  0.17012000  0.30851400  1
  Mg  Mg39  1  0.41262800  0.40130900  0.26291400  1
  Mg  Mg40  1  0.44451500  0.24154800  0.37994300  1
  Mg  Mg41  1  0.12691300  0.47273700  0.33434300  1
  Mg  Mg42  1  0.15880100  0.31297700  0.45137100  1
  Mg  Mg43  1  0.84119900  0.54416600  0.40577200  1
  Mg  Mg44  1  0.87308700  0.38440600  0.52280000  1
  Mg  Mg45  1  0.55548500  0.61559400  0.47720000  1
  Mg  Mg46  1  0.58737200  0.45583400  0.59422800  1
  Mg  Mg47  1  0.26977100  0.68702300  0.54862900  1
  Mg  Mg48  1  0.30165800  0.52726300  0.66565700  1
  Mg  Mg49  1  0.98405600  0.75845200  0.62005700  1
  Mg  Mg50  1  0.01594400  0.59869100  0.73708600  1
  Mg  Mg51  1  0.69834200  0.82988000  0.69148600  1
  Mg  Mg52  1  0.73022900  0.67012000  0.80851400  1
  Mg  Mg53  1  0.41262800  0.90130900  0.76291400  1
