# generated using pymatgen
data_Mg41Au21
_symmetry_space_group_name_H-M   'P 1'
_cell_length_a   9.63509784
_cell_length_b   19.42687858
_cell_length_c   43.05516600
_cell_angle_alpha   101.95555315
_cell_angle_beta   93.60749084
_cell_angle_gamma   84.09650850
_symmetry_Int_Tables_number   1
_chemical_formula_structural   Mg41Au21
_chemical_formula_sum   'Mg164 Au84'
_cell_volume   7835.26025205
_cell_formula_units_Z   4
loop_
 _symmetry_equiv_pos_site_id
 _symmetry_equiv_pos_as_xyz
  1  'x, y, z'
loop_
 _atom_site_type_symbol
 _atom_site_label
 _atom_site_symmetry_multiplicity
 _atom_site_fract_x
 _atom_site_fract_y
 _atom_site_fract_z
 _atom_site_occupancy
  Mg  Mg0  1  0.93971500  0.94424700  0.18971500  1
  Mg  Mg1  1  0.52452500  0.44424700  0.19913800  1
  Mg  Mg2  1  0.91334200  0.05575300  0.25473000  1
  Mg  Mg3  1  0.32853200  0.55575300  0.24530600  1
  Mg  Mg4  1  0.81809300  0.61223800  0.25042300  1
  Mg  Mg5  1  0.40324100  0.11223800  0.25988300  1
  Mg  Mg6  1  0.03496400  0.38776200  0.19402200  1
  Mg  Mg7  1  0.26799800  0.88776200  0.27547000  1
  Mg  Mg8  1  0.87504600  0.27669700  0.21946800  1
  Mg  Mg9  1  0.46830300  0.77669700  0.22983000  1
  Mg  Mg10  1  0.97801100  0.72330300  0.22497600  1
  Mg  Mg11  1  0.38475400  0.22330300  0.21461400  1
  Mg  Mg12  1  0.16645700  0.82132500  0.20125000  1
  Mg  Mg13  1  0.16066300  0.32132500  0.25616200  1
  Mg  Mg14  1  0.68660000  0.17867500  0.24319400  1
  Mg  Mg15  1  0.69239400  0.67867500  0.18828200  1
  Mg  Mg16  1  0.03944400  0.48719800  0.26112400  1
  Mg  Mg17  1  0.22735900  0.98719800  0.22644800  1
  Mg  Mg18  1  0.63179500  0.51280200  0.27423000  1
  Mg  Mg19  1  0.62569800  0.01280200  0.21799700  1
  Mg  Mg20  1  0.10113200  0.15308100  0.23085400  1
  Mg  Mg21  1  0.28716800  0.65308100  0.19596900  1
  Mg  Mg22  1  0.75192500  0.84691900  0.21359100  1
  Mg  Mg23  1  0.56588900  0.34691900  0.24847500  1
  Mg  Mg24  1  0.75789700  0.94424700  0.28062400  1
  Mg  Mg25  1  0.34270700  0.44424700  0.29004700  1
  Mg  Mg26  1  0.73152400  0.05575300  0.34563900  1
  Mg  Mg27  1  0.14671400  0.55575300  0.33621500  1
  Mg  Mg28  1  0.63627500  0.61223800  0.34133200  1
  Mg  Mg29  1  0.22142300  0.11223800  0.35079200  1
  Mg  Mg30  1  0.85314600  0.38776200  0.28493100  1
  Mg  Mg31  1  0.08618000  0.88776200  0.36637900  1
  Mg  Mg32  1  0.69322800  0.27669700  0.31037700  1
  Mg  Mg33  1  0.28648500  0.77669700  0.32073900  1
  Mg  Mg34  1  0.79619300  0.72330300  0.31588500  1
  Mg  Mg35  1  0.20293500  0.22330300  0.30552300  1
  Mg  Mg36  1  0.98463900  0.82132500  0.29216000  1
  Mg  Mg37  1  0.97884500  0.32132500  0.34707100  1
  Mg  Mg38  1  0.50478200  0.17867500  0.33410300  1
  Mg  Mg39  1  0.51057500  0.67867500  0.27919100  1
  Mg  Mg40  1  0.85762600  0.48719800  0.35203300  1
  Mg  Mg41  1  0.04554100  0.98719800  0.31735700  1
  Mg  Mg42  1  0.44997700  0.51280200  0.36513900  1
  Mg  Mg43  1  0.44387900  0.01280200  0.30890600  1
  Mg  Mg44  1  0.91931400  0.15308100  0.32176300  1
  Mg  Mg45  1  0.10535000  0.65308100  0.28687800  1
  Mg  Mg46  1  0.57010700  0.84691900  0.30450000  1
  Mg  Mg47  1  0.38407100  0.34691900  0.33938500  1
  Mg  Mg48  1  0.57607800  0.94424700  0.37153300  1
  Mg  Mg49  1  0.16088900  0.44424700  0.38095600  1
  Mg  Mg50  1  0.54970600  0.05575300  0.43654800  1
  Mg  Mg51  1  0.96489600  0.55575300  0.42712400  1
  Mg  Mg52  1  0.45445700  0.61223800  0.43224100  1
  Mg  Mg53  1  0.03960400  0.11223800  0.44170200  1
  Mg  Mg54  1  0.67132700  0.38776200  0.37584000  1
  Mg  Mg55  1  0.90436200  0.88776200  0.45728800  1
  Mg  Mg56  1  0.51140900  0.27669700  0.40128600  1
  Mg  Mg57  1  0.10466700  0.77669700  0.41164800  1
  Mg  Mg58  1  0.61437500  0.72330300  0.40679400  1
  Mg  Mg59  1  0.02111700  0.22330300  0.39643200  1
  Mg  Mg60  1  0.80282100  0.82132500  0.38306900  1
  Mg  Mg61  1  0.79702700  0.32132500  0.43798000  1
  Mg  Mg62  1  0.32296400  0.17867500  0.42501200  1
  Mg  Mg63  1  0.32875700  0.67867500  0.37010000  1
  Mg  Mg64  1  0.67580800  0.48719800  0.44294200  1
  Mg  Mg65  1  0.86372300  0.98719800  0.40826600  1
  Mg  Mg66  1  0.26815900  0.51280200  0.45604800  1
  Mg  Mg67  1  0.26206100  0.01280200  0.39981500  1
  Mg  Mg68  1  0.73749600  0.15308100  0.41267200  1
  Mg  Mg69  1  0.92353100  0.65308100  0.37778700  1
  Mg  Mg70  1  0.38828800  0.84691900  0.39540900  1
  Mg  Mg71  1  0.20225300  0.34691900  0.43029400  1
  Mg  Mg72  1  0.39426000  0.94424700  0.46244200  1
  Mg  Mg73  1  0.97907100  0.44424700  0.47186500  1
  Mg  Mg74  1  0.36788800  0.05575300  0.52745700  1
  Mg  Mg75  1  0.78307700  0.55575300  0.51803400  1
  Mg  Mg76  1  0.27263900  0.61223800  0.52315000  1
  Mg  Mg77  1  0.85778600  0.11223800  0.53261100  1
  Mg  Mg78  1  0.48950900  0.38776200  0.46674900  1
  Mg  Mg79  1  0.72254400  0.88776200  0.54819700  1
  Mg  Mg80  1  0.32959100  0.27669700  0.49219500  1
  Mg  Mg81  1  0.92284900  0.77669700  0.50255700  1
  Mg  Mg82  1  0.43255700  0.72330300  0.49770400  1
  Mg  Mg83  1  0.83929900  0.22330300  0.48734200  1
  Mg  Mg84  1  0.62100300  0.82132500  0.47397800  1
  Mg  Mg85  1  0.61520900  0.32132500  0.52889000  1
  Mg  Mg86  1  0.14114500  0.17867500  0.51592100  1
  Mg  Mg87  1  0.14693900  0.67867500  0.46100900  1
  Mg  Mg88  1  0.49398900  0.48719800  0.53385100  1
  Mg  Mg89  1  0.68190500  0.98719800  0.49917500  1
  Mg  Mg90  1  0.08634000  0.51280200  0.54695700  1
  Mg  Mg91  1  0.08024300  0.01280200  0.49072400  1
  Mg  Mg92  1  0.55567800  0.15308100  0.50358100  1
  Mg  Mg93  1  0.74171300  0.65308100  0.46869600  1
  Mg  Mg94  1  0.20647000  0.84691900  0.48631800  1
  Mg  Mg95  1  0.02043500  0.34691900  0.52120300  1
  Mg  Mg96  1  0.21244200  0.94424700  0.55335100  1
  Mg  Mg97  1  0.79725200  0.44424700  0.56277500  1
  Mg  Mg98  1  0.18607000  0.05575300  0.61836600  1
  Mg  Mg99  1  0.60125900  0.55575300  0.60894300  1
  Mg  Mg100  1  0.09082100  0.61223800  0.61405900  1
  Mg  Mg101  1  0.67596800  0.11223800  0.62352000  1
  Mg  Mg102  1  0.30769100  0.38776200  0.55765800  1
  Mg  Mg103  1  0.54072500  0.88776200  0.63910700  1
  Mg  Mg104  1  0.14777300  0.27669700  0.58310500  1
  Mg  Mg105  1  0.74103100  0.77669700  0.59346700  1
  Mg  Mg106  1  0.25073900  0.72330300  0.58861300  1
  Mg  Mg107  1  0.65748100  0.22330300  0.57825100  1
  Mg  Mg108  1  0.43918400  0.82132500  0.56488700  1
  Mg  Mg109  1  0.43339100  0.32132500  0.61979900  1
  Mg  Mg110  1  0.95932700  0.17867500  0.60683000  1
  Mg  Mg111  1  0.96512100  0.67867500  0.55191900  1
  Mg  Mg112  1  0.31217100  0.48719800  0.62476000  1
  Mg  Mg113  1  0.50008700  0.98719800  0.59008400  1
  Mg  Mg114  1  0.90452200  0.51280200  0.63786600  1
  Mg  Mg115  1  0.89842500  0.01280200  0.58163300  1
  Mg  Mg116  1  0.37386000  0.15308100  0.59449000  1
  Mg  Mg117  1  0.55989500  0.65308100  0.55960500  1
  Mg  Mg118  1  0.02465200  0.84691900  0.57722700  1
  Mg  Mg119  1  0.83861600  0.34691900  0.61211200  1
  Mg  Mg120  1  0.03062400  0.94424700  0.64426000  1
  Mg  Mg121  1  0.61543400  0.44424700  0.65368400  1
  Mg  Mg122  1  0.00425100  0.05575300  0.70927500  1
  Mg  Mg123  1  0.41944100  0.55575300  0.69985200  1
  Mg  Mg124  1  0.90900200  0.61223800  0.70496800  1
  Mg  Mg125  1  0.49415000  0.11223800  0.71442900  1
  Mg  Mg126  1  0.12587300  0.38776200  0.64856700  1
  Mg  Mg127  1  0.35890700  0.88776200  0.73001600  1
  Mg  Mg128  1  0.96595500  0.27669700  0.67401400  1
  Mg  Mg129  1  0.55921300  0.77669700  0.68437600  1
  Mg  Mg130  1  0.06892000  0.72330300  0.67952200  1
  Mg  Mg131  1  0.47566300  0.22330300  0.66916000  1
  Mg  Mg132  1  0.25736600  0.82132500  0.65579600  1
  Mg  Mg133  1  0.25157300  0.32132500  0.71070800  1
  Mg  Mg134  1  0.77750900  0.17867500  0.69773900  1
  Mg  Mg135  1  0.78330300  0.67867500  0.64282800  1
  Mg  Mg136  1  0.13035300  0.48719800  0.71566900  1
  Mg  Mg137  1  0.31826900  0.98719800  0.68099300  1
  Mg  Mg138  1  0.72270400  0.51280200  0.72877500  1
  Mg  Mg139  1  0.71660700  0.01280200  0.67254200  1
  Mg  Mg140  1  0.19204100  0.15308100  0.68539900  1
  Mg  Mg141  1  0.37807700  0.65308100  0.65051400  1
  Mg  Mg142  1  0.84283400  0.84691900  0.66813600  1
  Mg  Mg143  1  0.65679800  0.34691900  0.70302100  1
  Mg  Mg144  1  0.84880600  0.94424700  0.73516900  1
  Mg  Mg145  1  0.43361600  0.44424700  0.74459300  1
  Mg  Mg146  1  0.82243300  0.05575300  0.80018400  1
  Mg  Mg147  1  0.23762300  0.55575300  0.79076100  1
  Mg  Mg148  1  0.72718400  0.61223800  0.79587700  1
  Mg  Mg149  1  0.94405500  0.38776200  0.73947600  1
  Mg  Mg150  1  0.78413700  0.27669700  0.76492300  1
  Mg  Mg151  1  0.37739400  0.77669700  0.77528500  1
  Mg  Mg152  1  0.88710200  0.72330300  0.77043100  1
  Mg  Mg153  1  0.29384500  0.22330300  0.76006900  1
  Mg  Mg154  1  0.07554800  0.82132500  0.74670500  1
  Mg  Mg155  1  0.06975400  0.32132500  0.80161700  1
  Mg  Mg156  1  0.59569100  0.17867500  0.78864900  1
  Mg  Mg157  1  0.60148500  0.67867500  0.73373700  1
  Mg  Mg158  1  0.13645000  0.98719800  0.77190200  1
  Mg  Mg159  1  0.53478900  0.01280200  0.76345100  1
  Mg  Mg160  1  0.01022300  0.15308100  0.77630800  1
  Mg  Mg161  1  0.19625900  0.65308100  0.74142400  1
  Mg  Mg162  1  0.66101600  0.84691900  0.75904500  1
  Mg  Mg163  1  0.47498000  0.34691900  0.79393000  1
  Au  Au164  1  0.84845200  0.08760800  0.19550400  1
  Au  Au165  1  0.56365700  0.58760800  0.21941500  1
  Au  Au166  1  0.00460500  0.91239200  0.24894100  1
  Au  Au167  1  0.28940000  0.41239200  0.22502900  1
  Au  Au168  1  0.78853100  0.42008800  0.22578800  1
  Au  Au169  1  0.50267600  0.92008800  0.24958200  1
  Au  Au170  1  0.06452600  0.57991200  0.21865700  1
  Au  Au171  1  0.35038100  0.07991200  0.19486300  1
  Au  Au172  1  0.73191100  0.75574700  0.25679200  1
  Au  Au173  1  0.61905600  0.25574700  0.18869700  1
  Au  Au174  1  0.12114600  0.24425300  0.18765200  1
  Au  Au175  1  0.23400100  0.74425300  0.25574700  1
  Au  Au176  1  0.66663400  0.08760800  0.28641300  1
  Au  Au177  1  0.38183900  0.58760800  0.31032400  1
  Au  Au178  1  0.82278700  0.91239200  0.33985000  1
  Au  Au179  1  0.10758200  0.41239200  0.31593800  1
  Au  Au180  1  0.60671300  0.42008800  0.31669700  1
  Au  Au181  1  0.32085800  0.92008800  0.34049100  1
  Au  Au182  1  0.88270800  0.57991200  0.30956600  1
  Au  Au183  1  0.16856300  0.07991200  0.28577200  1
  Au  Au184  1  0.55009300  0.75574700  0.34770100  1
  Au  Au185  1  0.43723800  0.25574700  0.27960600  1
  Au  Au186  1  0.93932800  0.24425300  0.27856100  1
  Au  Au187  1  0.05218300  0.74425300  0.34665600  1
  Au  Au188  1  0.48481500  0.08760800  0.37732200  1
  Au  Au189  1  0.20002000  0.58760800  0.40123300  1
  Au  Au190  1  0.64096900  0.91239200  0.43075900  1
  Au  Au191  1  0.92576400  0.41239200  0.40684700  1
  Au  Au192  1  0.42489400  0.42008800  0.40760600  1
  Au  Au193  1  0.13904000  0.92008800  0.43140000  1
  Au  Au194  1  0.70089000  0.57991200  0.40047500  1
  Au  Au195  1  0.98674500  0.07991200  0.37668100  1
  Au  Au196  1  0.36827500  0.75574700  0.43861000  1
  Au  Au197  1  0.25541900  0.25574700  0.37051500  1
  Au  Au198  1  0.75750900  0.24425300  0.36947000  1
  Au  Au199  1  0.87036500  0.74425300  0.43756500  1
  Au  Au200  1  0.30299700  0.08760800  0.46823100  1
  Au  Au201  1  0.01820200  0.58760800  0.49214200  1
  Au  Au202  1  0.45915100  0.91239200  0.52166800  1
  Au  Au203  1  0.74394600  0.41239200  0.49775700  1
  Au  Au204  1  0.24307600  0.42008800  0.49851500  1
  Au  Au205  1  0.95722100  0.92008800  0.52230900  1
  Au  Au206  1  0.51907200  0.57991200  0.49138400  1
  Au  Au207  1  0.80492700  0.07991200  0.46759000  1
  Au  Au208  1  0.18645700  0.75574700  0.52952000  1
  Au  Au209  1  0.07360100  0.25574700  0.46142400  1
  Au  Au210  1  0.57569100  0.24425300  0.46037900  1
  Au  Au211  1  0.68854700  0.74425300  0.52847500  1
  Au  Au212  1  0.12117900  0.08760800  0.55914000  1
  Au  Au213  1  0.83638400  0.58760800  0.58305200  1
  Au  Au214  1  0.27733300  0.91239200  0.61257700  1
  Au  Au215  1  0.56212800  0.41239200  0.58866600  1
  Au  Au216  1  0.06125800  0.42008800  0.58942400  1
  Au  Au217  1  0.77540300  0.92008800  0.61321800  1
  Au  Au218  1  0.33725400  0.57991200  0.58229300  1
  Au  Au219  1  0.62310800  0.07991200  0.55849900  1
  Au  Au220  1  0.00463900  0.75574700  0.62042900  1
  Au  Au221  1  0.89178300  0.25574700  0.55233400  1
  Au  Au222  1  0.39387300  0.24425300  0.55128900  1
  Au  Au223  1  0.50672900  0.74425300  0.61938400  1
  Au  Au224  1  0.93936100  0.08760800  0.65004900  1
  Au  Au225  1  0.65456600  0.58760800  0.67396100  1
  Au  Au226  1  0.09551400  0.91239200  0.70348600  1
  Au  Au227  1  0.38030900  0.41239200  0.67957500  1
  Au  Au228  1  0.87944000  0.42008800  0.68033300  1
  Au  Au229  1  0.59358500  0.92008800  0.70412700  1
  Au  Au230  1  0.15543500  0.57991200  0.67320200  1
  Au  Au231  1  0.44129000  0.07991200  0.64940800  1
  Au  Au232  1  0.82282000  0.75574700  0.71133800  1
  Au  Au233  1  0.70996500  0.25574700  0.64324300  1
  Au  Au234  1  0.21205500  0.24425300  0.64219800  1
  Au  Au235  1  0.32491000  0.74425300  0.71029300  1
  Au  Au236  1  0.75754300  0.08760800  0.74095800  1
  Au  Au237  1  0.47274800  0.58760800  0.76487000  1
  Au  Au238  1  0.91369600  0.91239200  0.79439500  1
  Au  Au239  1  0.19849100  0.41239200  0.77048400  1
  Au  Au240  1  0.69762200  0.42008800  0.77124200  1
  Au  Au241  1  0.41176700  0.92008800  0.79503600  1
  Au  Au242  1  0.97361700  0.57991200  0.76411100  1
  Au  Au243  1  0.25947200  0.07991200  0.74031700  1
  Au  Au244  1  0.64100200  0.75574700  0.80224700  1
  Au  Au245  1  0.52814700  0.25574700  0.73415200  1
  Au  Au246  1  0.03023700  0.24425300  0.73310700  1
  Au  Au247  1  0.14309200  0.74425300  0.80120200  1
