# generated using pymatgen
data_MgSc2
_symmetry_space_group_name_H-M   'P 1'
_cell_length_a   3.35466600
_cell_length_b   5.16406100
_cell_length_c   49.45614300
_cell_angle_alpha   90.00000000
_cell_angle_beta   90.00000000
_cell_angle_gamma   90.00000000
_symmetry_Int_Tables_number   1
_chemical_formula_structural   MgSc2
_chemical_formula_sum   'Mg8 Sc16'
_cell_volume   856.76337750
_cell_formula_units_Z   8
loop_
 _symmetry_equiv_pos_site_id
 _symmetry_equiv_pos_as_xyz
  1  'x, y, z'
loop_
 _atom_site_type_symbol
 _atom_site_label
 _atom_site_symmetry_multiplicity
 _atom_site_fract_x
 _atom_site_fract_y
 _atom_site_fract_z
 _atom_site_occupancy
  Mg  Mg0  1  0.50000000  0.25000000  0.22919900  1
  Mg  Mg1  1  1.00000000  0.75000000  0.43746700  1
  Mg  Mg2  1  1.00000000  0.25000000  0.39586600  1
  Mg  Mg3  1  0.50000000  0.75000000  0.27080100  1
  Mg  Mg4  1  0.50000000  0.25000000  0.56253300  1
  Mg  Mg5  1  1.00000000  0.75000000  0.77080100  1
  Mg  Mg6  1  1.00000000  0.25000000  0.72919900  1
  Mg  Mg7  1  0.50000000  0.75000000  0.60413400  1
  Sc  Sc8  1  0.50000000  0.25000000  0.45080000  1
  Sc  Sc9  1  1.00000000  0.25000000  0.17440700  1
  Sc  Sc10  1  1.00000000  0.75000000  0.21586700  1
  Sc  Sc11  1  0.50000000  0.75000000  0.49225900  1
  Sc  Sc12  1  0.00000000  0.25000000  0.28413300  1
  Sc  Sc13  1  0.50000000  0.25000000  0.34107400  1
  Sc  Sc14  1  0.50000000  0.75000000  0.38253400  1
  Sc  Sc15  1  1.00000000  0.75000000  0.32559300  1
  Sc  Sc16  1  0.50000000  0.25000000  0.78413300  1
  Sc  Sc17  1  1.00000000  0.25000000  0.50774100  1
  Sc  Sc18  1  1.00000000  0.75000000  0.54920000  1
  Sc  Sc19  1  0.50000000  0.75000000  0.82559300  1
  Sc  Sc20  1  1.00000000  0.25000000  0.61746600  1
  Sc  Sc21  1  0.50000000  0.25000000  0.67440700  1
  Sc  Sc22  1  0.50000000  0.75000000  0.71586700  1
  Sc  Sc23  1  1.00000000  0.75000000  0.65892600  1
