# generated using pymatgen
data_Mg3Zr5
_symmetry_space_group_name_H-M   'P 1'
_cell_length_a   3.23467100
_cell_length_b   3.23467053
_cell_length_c   70.28606400
_cell_angle_alpha   90.00000000
_cell_angle_beta   90.00000000
_cell_angle_gamma   119.99999462
_symmetry_Int_Tables_number   1
_chemical_formula_structural   Mg3Zr5
_chemical_formula_sum   'Mg6 Zr10'
_cell_volume   636.88356964
_cell_formula_units_Z   2
loop_
 _symmetry_equiv_pos_site_id
 _symmetry_equiv_pos_as_xyz
  1  'x, y, z'
loop_
 _atom_site_type_symbol
 _atom_site_label
 _atom_site_symmetry_multiplicity
 _atom_site_fract_x
 _atom_site_fract_y
 _atom_site_fract_z
 _atom_site_occupancy
  Mg  Mg0  1  0.00000000  0.00000000  0.48148100  1
  Mg  Mg1  1  0.66666700  0.33333300  0.25925900  1
  Mg  Mg2  1  0.33333300  0.66666700  0.37037000  1
  Mg  Mg3  1  0.00000000  0.00000000  0.81481500  1
  Mg  Mg4  1  0.66666700  0.33333300  0.59259300  1
  Mg  Mg5  1  0.33333300  0.66666700  0.70370400  1
  Zr  Zr6  1  0.33333300  0.66666700  0.44347300  1
  Zr  Zr7  1  0.00000000  0.00000000  0.40837800  1
  Zr  Zr8  1  0.66666700  0.33333300  0.33236200  1
  Zr  Zr9  1  0.33333300  0.66666700  0.29726700  1
  Zr  Zr10  1  0.33333300  0.66666700  0.77680700  1
  Zr  Zr11  1  0.00000000  0.00000000  0.74171200  1
  Zr  Zr12  1  0.00000000  0.00000000  0.55458500  1
  Zr  Zr13  1  0.66666700  0.33333300  0.51949000  1
  Zr  Zr14  1  0.66666700  0.33333300  0.66569600  1
  Zr  Zr15  1  0.33333300  0.66666700  0.63060100  1
