# generated using pymatgen
data_Mg2Hg
_symmetry_space_group_name_H-M   'P 1'
_cell_length_a   4.75496500
_cell_length_b   10.73367025
_cell_length_c   41.14994800
_cell_angle_alpha   87.73861022
_cell_angle_beta   90.00000000
_cell_angle_gamma   90.00000000
_symmetry_Int_Tables_number   1
_chemical_formula_structural   Mg2Hg
_chemical_formula_sum   'Mg40 Hg20'
_cell_volume   2098.58473503
_cell_formula_units_Z   20
loop_
 _symmetry_equiv_pos_site_id
 _symmetry_equiv_pos_as_xyz
  1  'x, y, z'
loop_
 _atom_site_type_symbol
 _atom_site_label
 _atom_site_symmetry_multiplicity
 _atom_site_fract_x
 _atom_site_fract_y
 _atom_site_fract_z
 _atom_site_occupancy
  Mg  Mg0  1  0.75000000  0.66811300  0.22764300  1
  Mg  Mg1  1  0.25000000  0.95688700  0.27235700  1
  Mg  Mg2  1  0.75000000  0.43243400  0.28050800  1
  Mg  Mg3  1  0.25000000  0.19256600  0.21949200  1
  Mg  Mg4  1  0.25000000  0.23029900  0.29806000  1
  Mg  Mg5  1  0.75000000  0.39470100  0.20194000  1
  Mg  Mg6  1  0.25000000  0.65282400  0.28256500  1
  Mg  Mg7  1  0.75000000  0.97217600  0.21743500  1
  Mg  Mg8  1  0.75000000  0.29311300  0.35264300  1
  Mg  Mg9  1  0.25000000  0.58188700  0.39735700  1
  Mg  Mg10  1  0.75000000  0.05743400  0.40550800  1
  Mg  Mg11  1  0.25000000  0.81756600  0.34449200  1
  Mg  Mg12  1  0.25000000  0.85529900  0.42306000  1
  Mg  Mg13  1  0.75000000  0.01970100  0.32694000  1
  Mg  Mg14  1  0.25000000  0.27782400  0.40756500  1
  Mg  Mg15  1  0.75000000  0.59717600  0.34243500  1
  Mg  Mg16  1  0.75000000  0.91811300  0.47764300  1
  Mg  Mg17  1  0.25000000  0.20688700  0.52235700  1
  Mg  Mg18  1  0.75000000  0.68243400  0.53050800  1
  Mg  Mg19  1  0.25000000  0.44256600  0.46949200  1
  Mg  Mg20  1  0.25000000  0.48029900  0.54806000  1
  Mg  Mg21  1  0.75000000  0.64470100  0.45194000  1
  Mg  Mg22  1  0.25000000  0.90282400  0.53256500  1
  Mg  Mg23  1  0.75000000  0.22217600  0.46743500  1
  Mg  Mg24  1  0.75000000  0.54311300  0.60264300  1
  Mg  Mg25  1  0.25000000  0.83188700  0.64735700  1
  Mg  Mg26  1  0.75000000  0.30743400  0.65550800  1
  Mg  Mg27  1  0.25000000  0.06756600  0.59449200  1
  Mg  Mg28  1  0.25000000  0.10529900  0.67306000  1
  Mg  Mg29  1  0.75000000  0.26970100  0.57694000  1
  Mg  Mg30  1  0.25000000  0.52782400  0.65756500  1
  Mg  Mg31  1  0.75000000  0.84717600  0.59243500  1
  Mg  Mg32  1  0.75000000  0.16811300  0.72764300  1
  Mg  Mg33  1  0.25000000  0.45688700  0.77235700  1
  Mg  Mg34  1  0.75000000  0.93243400  0.78050800  1
  Mg  Mg35  1  0.25000000  0.69256600  0.71949200  1
  Mg  Mg36  1  0.25000000  0.73029900  0.79806000  1
  Mg  Mg37  1  0.75000000  0.89470100  0.70194000  1
  Mg  Mg38  1  0.25000000  0.15282400  0.78256500  1
  Mg  Mg39  1  0.75000000  0.47217600  0.71743500  1
  Hg  Hg40  1  0.75000000  0.79769000  0.29109100  1
  Hg  Hg41  1  0.25000000  0.82731000  0.20890900  1
  Hg  Hg42  1  0.75000000  0.16211300  0.26397500  1
  Hg  Hg43  1  0.25000000  0.46288700  0.23602500  1
  Hg  Hg44  1  0.75000000  0.42269000  0.41609100  1
  Hg  Hg45  1  0.25000000  0.45231000  0.33390900  1
  Hg  Hg46  1  0.75000000  0.78711300  0.38897500  1
  Hg  Hg47  1  0.25000000  0.08788700  0.36102500  1
  Hg  Hg48  1  0.75000000  0.04769000  0.54109100  1
  Hg  Hg49  1  0.25000000  0.07731000  0.45890900  1
  Hg  Hg50  1  0.75000000  0.41211300  0.51397500  1
  Hg  Hg51  1  0.25000000  0.71288700  0.48602500  1
  Hg  Hg52  1  0.75000000  0.67269000  0.66609100  1
  Hg  Hg53  1  0.25000000  0.70231000  0.58390900  1
  Hg  Hg54  1  0.75000000  0.03711300  0.63897500  1
  Hg  Hg55  1  0.25000000  0.33788700  0.61102500  1
  Hg  Hg56  1  0.75000000  0.29769000  0.79109100  1
  Hg  Hg57  1  0.25000000  0.32731000  0.70890900  1
  Hg  Hg58  1  0.75000000  0.66211300  0.76397500  1
  Hg  Hg59  1  0.25000000  0.96288700  0.73602500  1
