# generated using pymatgen
data_Mg25Ag9
_symmetry_space_group_name_H-M   'P 1'
_cell_length_a   4.93092000
_cell_length_b   10.67684900
_cell_length_c   43.14997300
_cell_angle_alpha   90.00000000
_cell_angle_beta   90.00000000
_cell_angle_gamma   90.00000000
_symmetry_Int_Tables_number   1
_chemical_formula_structural   Mg25Ag9
_chemical_formula_sum   'Mg50 Ag18'
_cell_volume   2271.70317744
_cell_formula_units_Z   2
loop_
 _symmetry_equiv_pos_site_id
 _symmetry_equiv_pos_as_xyz
  1  'x, y, z'
loop_
 _atom_site_type_symbol
 _atom_site_label
 _atom_site_symmetry_multiplicity
 _atom_site_fract_x
 _atom_site_fract_y
 _atom_site_fract_z
 _atom_site_occupancy
  Mg  Mg0  1  0.25000000  0.45727300  0.23214300  1
  Mg  Mg1  1  0.75000000  0.79909200  0.23214300  1
  Mg  Mg2  1  0.25000000  0.21363700  0.26694800  1
  Mg  Mg3  1  0.25000000  0.71363700  0.26876600  1
  Mg  Mg4  1  0.25000000  0.95727300  0.30357100  1
  Mg  Mg5  1  0.75000000  0.29909200  0.30357100  1
  Mg  Mg6  1  0.75000000  0.04272700  0.26694800  1
  Mg  Mg7  1  0.75000000  0.54272700  0.26876600  1
  Mg  Mg8  1  0.25000000  0.71363700  0.33837700  1
  Mg  Mg9  1  0.25000000  0.21363700  0.34019500  1
  Mg  Mg10  1  0.25000000  0.45727300  0.37500000  1
  Mg  Mg11  1  0.75000000  0.79909200  0.37500000  1
  Mg  Mg12  1  0.75000000  0.54272700  0.33837700  1
  Mg  Mg13  1  0.75000000  0.04272700  0.34019500  1
  Mg  Mg14  1  0.25000000  0.21363700  0.40980500  1
  Mg  Mg15  1  0.25000000  0.71363700  0.41162300  1
  Mg  Mg16  1  0.25000000  0.95727300  0.44642900  1
  Mg  Mg17  1  0.75000000  0.29909200  0.44642900  1
  Mg  Mg18  1  0.75000000  0.04272700  0.40980500  1
  Mg  Mg19  1  0.75000000  0.54272700  0.41162300  1
  Mg  Mg20  1  0.25000000  0.71363700  0.48123400  1
  Mg  Mg21  1  0.25000000  0.21363700  0.48305200  1
  Mg  Mg22  1  0.25000000  0.45727300  0.51785700  1
  Mg  Mg23  1  0.75000000  0.79909200  0.51785700  1
  Mg  Mg24  1  0.75000000  0.54272700  0.48123400  1
  Mg  Mg25  1  0.75000000  0.04272700  0.48305200  1
  Mg  Mg26  1  0.25000000  0.21363700  0.55266200  1
  Mg  Mg27  1  0.25000000  0.71363700  0.55448100  1
  Mg  Mg28  1  0.25000000  0.95727300  0.58928600  1
  Mg  Mg29  1  0.75000000  0.29909200  0.58928600  1
  Mg  Mg30  1  0.75000000  0.04272700  0.55266200  1
  Mg  Mg31  1  0.75000000  0.54272700  0.55448100  1
  Mg  Mg32  1  0.25000000  0.71363700  0.62409100  1
  Mg  Mg33  1  0.25000000  0.21363700  0.62590900  1
  Mg  Mg34  1  0.25000000  0.45727300  0.66071400  1
  Mg  Mg35  1  0.75000000  0.79909200  0.66071400  1
  Mg  Mg36  1  0.75000000  0.54272700  0.62409100  1
  Mg  Mg37  1  0.75000000  0.04272700  0.62590900  1
  Mg  Mg38  1  0.25000000  0.21363700  0.69551900  1
  Mg  Mg39  1  0.25000000  0.71363700  0.69733800  1
  Mg  Mg40  1  0.25000000  0.95727300  0.73214300  1
  Mg  Mg41  1  0.75000000  0.29909200  0.73214300  1
  Mg  Mg42  1  0.75000000  0.04272700  0.69551900  1
  Mg  Mg43  1  0.75000000  0.54272700  0.69733800  1
  Mg  Mg44  1  0.25000000  0.71363700  0.76694800  1
  Mg  Mg45  1  0.25000000  0.21363700  0.76876600  1
  Mg  Mg46  1  0.25000000  0.45727300  0.80357100  1
  Mg  Mg47  1  0.75000000  0.79909200  0.80357100  1
  Mg  Mg48  1  0.75000000  0.54272700  0.76694800  1
  Mg  Mg49  1  0.75000000  0.04272700  0.76876600  1
  Ag  Ag50  1  0.25000000  0.96151500  0.23214300  1
  Ag  Ag51  1  0.75000000  0.29484900  0.23214300  1
  Ag  Ag52  1  0.25000000  0.46151500  0.30357100  1
  Ag  Ag53  1  0.75000000  0.79484900  0.30357100  1
  Ag  Ag54  1  0.25000000  0.96151500  0.37500000  1
  Ag  Ag55  1  0.75000000  0.29484900  0.37500000  1
  Ag  Ag56  1  0.25000000  0.46151500  0.44642900  1
  Ag  Ag57  1  0.75000000  0.79484900  0.44642900  1
  Ag  Ag58  1  0.25000000  0.96151500  0.51785700  1
  Ag  Ag59  1  0.75000000  0.29484900  0.51785700  1
  Ag  Ag60  1  0.25000000  0.46151500  0.58928600  1
  Ag  Ag61  1  0.75000000  0.79484900  0.58928600  1
  Ag  Ag62  1  0.25000000  0.96151500  0.66071400  1
  Ag  Ag63  1  0.75000000  0.29484900  0.66071400  1
  Ag  Ag64  1  0.25000000  0.46151500  0.73214300  1
  Ag  Ag65  1  0.75000000  0.79484900  0.73214300  1
  Ag  Ag66  1  0.25000000  0.96151500  0.80357100  1
  Ag  Ag67  1  0.75000000  0.29484900  0.80357100  1
