# generated using pymatgen
data_Mg17Au49
_symmetry_space_group_name_H-M   'P 1'
_cell_length_a   9.58286600
_cell_length_b   10.43041211
_cell_length_c   46.00314700
_cell_angle_alpha   94.13499482
_cell_angle_beta   90.00000000
_cell_angle_gamma   90.00000000
_symmetry_Int_Tables_number   1
_chemical_formula_structural   Mg17Au49
_chemical_formula_sum   'Mg34 Au98'
_cell_volume   4586.19431584
_cell_formula_units_Z   2
loop_
 _symmetry_equiv_pos_site_id
 _symmetry_equiv_pos_as_xyz
  1  'x, y, z'
loop_
 _atom_site_type_symbol
 _atom_site_label
 _atom_site_symmetry_multiplicity
 _atom_site_fract_x
 _atom_site_fract_y
 _atom_site_fract_z
 _atom_site_occupancy
  Mg  Mg0  1  0.49920200  0.11518800  0.75767000  1
  Mg  Mg1  1  0.50079800  0.65069900  0.72670500  1
  Mg  Mg2  1  0.99920200  0.65069900  0.72670500  1
  Mg  Mg3  1  0.00079800  0.11518800  0.75767000  1
  Mg  Mg4  1  0.25000000  0.75058000  0.80003000  1
  Mg  Mg5  1  0.75000000  0.89030600  0.80934500  1
  Mg  Mg6  1  0.25000000  0.33964500  0.70596800  1
  Mg  Mg7  1  0.75000000  0.42624100  0.77840700  1
  Mg  Mg8  1  0.49920200  0.24018800  0.63267000  1
  Mg  Mg9  1  0.50079800  0.77569900  0.60170500  1
  Mg  Mg10  1  0.99920200  0.77569900  0.60170500  1
  Mg  Mg11  1  0.00079800  0.24018800  0.63267000  1
  Mg  Mg12  1  0.25000000  0.87558000  0.67503000  1
  Mg  Mg13  1  0.75000000  0.01530600  0.68434500  1
  Mg  Mg14  1  0.25000000  0.46464500  0.58096800  1
  Mg  Mg15  1  0.75000000  0.55124100  0.65340700  1
  Mg  Mg16  1  0.49920200  0.36518800  0.50767000  1
  Mg  Mg17  1  0.50079800  0.90069900  0.47670500  1
  Mg  Mg18  1  0.99920200  0.90069900  0.47670500  1
  Mg  Mg19  1  0.00079800  0.36518800  0.50767000  1
  Mg  Mg20  1  0.25000000  0.00058000  0.55003000  1
  Mg  Mg21  1  0.75000000  0.14030600  0.55934500  1
  Mg  Mg22  1  0.25000000  0.58964500  0.45596800  1
  Mg  Mg23  1  0.75000000  0.67624100  0.52840700  1
  Mg  Mg24  1  0.49920200  0.49018800  0.38267000  1
  Mg  Mg25  1  0.50079800  0.02569900  0.35170500  1
  Mg  Mg26  1  0.99920200  0.02569900  0.35170500  1
  Mg  Mg27  1  0.00079800  0.49018800  0.38267000  1
  Mg  Mg28  1  0.25000000  0.12558000  0.42503000  1
  Mg  Mg29  1  0.75000000  0.26530600  0.43434500  1
  Mg  Mg30  1  0.25000000  0.71464500  0.33096800  1
  Mg  Mg31  1  0.75000000  0.80124100  0.40340700  1
  Mg  Mg32  1  0.25000000  0.25058000  0.30003000  1
  Mg  Mg33  1  0.75000000  0.39030600  0.30934500  1
  Au  Au34  1  0.00000000  0.85155300  0.77357800  1
  Au  Au35  1  0.50000000  0.91433300  0.71079700  1
  Au  Au36  1  0.00000000  0.91433300  0.71079700  1
  Au  Au37  1  0.50000000  0.85155300  0.77357800  1
  Au  Au38  1  0.00054900  0.58412200  0.78893300  1
  Au  Au39  1  0.99945100  0.18176500  0.69544200  1
  Au  Au40  1  0.50054900  0.18176500  0.69544200  1
  Au  Au41  1  0.49945100  0.58412200  0.78893300  1
  Au  Au42  1  0.75000000  0.15805600  0.79358900  1
  Au  Au43  1  0.25000000  0.54584200  0.75277500  1
  Au  Au44  1  0.25000000  0.60783100  0.69078600  1
  Au  Au45  1  0.75000000  0.22004500  0.73160000  1
  Au  Au46  1  0.75000000  0.68849700  0.76261800  1
  Au  Au47  1  0.25000000  0.01477700  0.78437000  1
  Au  Au48  1  0.25000000  0.07738900  0.72175700  1
  Au  Au49  1  0.75000000  0.75111000  0.70000500  1
  Au  Au50  1  0.50000000  0.38294300  0.74218700  1
  Au  Au51  1  0.50000000  0.32044300  0.80468700  1
  Au  Au52  1  0.00000000  0.38294300  0.74218800  1
  Au  Au53  1  0.00000000  0.32044300  0.80468800  1
  Au  Au54  1  0.25000000  0.28002300  0.76865900  1
  Au  Au55  1  0.75000000  0.48586300  0.71571600  1
  Au  Au56  1  0.25000000  0.80684700  0.73711400  1
  Au  Au57  1  0.75000000  0.95903900  0.74726100  1
  Au  Au58  1  0.00000000  0.97655300  0.64857800  1
  Au  Au59  1  0.50000000  0.03933300  0.58579700  1
  Au  Au60  1  0.00000000  0.03933300  0.58579700  1
  Au  Au61  1  0.50000000  0.97655300  0.64857800  1
  Au  Au62  1  0.00054900  0.70912200  0.66393300  1
  Au  Au63  1  0.99945100  0.30676500  0.57044200  1
  Au  Au64  1  0.50054900  0.30676500  0.57044200  1
  Au  Au65  1  0.49945100  0.70912200  0.66393300  1
  Au  Au66  1  0.75000000  0.28305600  0.66858900  1
  Au  Au67  1  0.25000000  0.67084200  0.62777500  1
  Au  Au68  1  0.25000000  0.73283100  0.56578600  1
  Au  Au69  1  0.75000000  0.34504500  0.60660000  1
  Au  Au70  1  0.75000000  0.81349700  0.63761800  1
  Au  Au71  1  0.25000000  0.13977700  0.65937000  1
  Au  Au72  1  0.25000000  0.20238900  0.59675700  1
  Au  Au73  1  0.75000000  0.87611000  0.57500500  1
  Au  Au74  1  0.50000000  0.50794300  0.61718800  1
  Au  Au75  1  0.50000000  0.44544300  0.67968700  1
  Au  Au76  1  0.00000000  0.50794300  0.61718800  1
  Au  Au77  1  0.00000000  0.44544300  0.67968700  1
  Au  Au78  1  0.25000000  0.40502300  0.64365900  1
  Au  Au79  1  0.75000000  0.61086300  0.59071600  1
  Au  Au80  1  0.25000000  0.93184700  0.61211400  1
  Au  Au81  1  0.75000000  0.08403900  0.62226100  1
  Au  Au82  1  0.00000000  0.10155300  0.52357800  1
  Au  Au83  1  0.50000000  0.16433300  0.46079700  1
  Au  Au84  1  0.00000000  0.16433300  0.46079700  1
  Au  Au85  1  0.50000000  0.10155300  0.52357800  1
  Au  Au86  1  0.00054900  0.83412200  0.53893300  1
  Au  Au87  1  0.99945100  0.43176500  0.44544200  1
  Au  Au88  1  0.50054900  0.43176500  0.44544200  1
  Au  Au89  1  0.49945100  0.83412200  0.53893300  1
  Au  Au90  1  0.75000000  0.40805600  0.54358900  1
  Au  Au91  1  0.25000000  0.79584200  0.50277500  1
  Au  Au92  1  0.25000000  0.85783100  0.44078600  1
  Au  Au93  1  0.75000000  0.47004500  0.48160000  1
  Au  Au94  1  0.75000000  0.93849700  0.51261800  1
  Au  Au95  1  0.25000000  0.26477700  0.53437000  1
  Au  Au96  1  0.25000000  0.32738900  0.47175700  1
  Au  Au97  1  0.75000000  0.00111000  0.45000500  1
  Au  Au98  1  0.50000000  0.63294300  0.49218800  1
  Au  Au99  1  0.50000000  0.57044300  0.55468700  1
  Au  Au100  1  0.00000000  0.63294300  0.49218800  1
  Au  Au101  1  0.00000000  0.57044300  0.55468700  1
  Au  Au102  1  0.25000000  0.53002300  0.51865900  1
  Au  Au103  1  0.75000000  0.73586300  0.46571600  1
  Au  Au104  1  0.25000000  0.05684700  0.48711400  1
  Au  Au105  1  0.75000000  0.20903900  0.49726100  1
  Au  Au106  1  0.00000000  0.22655300  0.39857800  1
  Au  Au107  1  0.50000000  0.28933300  0.33579700  1
  Au  Au108  1  0.00000000  0.28933300  0.33579700  1
  Au  Au109  1  0.50000000  0.22655300  0.39857800  1
  Au  Au110  1  0.00054900  0.95912200  0.41393300  1
  Au  Au111  1  0.99945100  0.55676500  0.32044200  1
  Au  Au112  1  0.50054900  0.55676500  0.32044200  1
  Au  Au113  1  0.49945100  0.95912200  0.41393300  1
  Au  Au114  1  0.75000000  0.53305600  0.41858900  1
  Au  Au115  1  0.25000000  0.92084200  0.37777500  1
  Au  Au116  1  0.25000000  0.98283100  0.31578600  1
  Au  Au117  1  0.75000000  0.59504500  0.35660000  1
  Au  Au118  1  0.75000000  0.06349700  0.38761800  1
  Au  Au119  1  0.25000000  0.38977700  0.40937000  1
  Au  Au120  1  0.25000000  0.45238900  0.34675700  1
  Au  Au121  1  0.75000000  0.12611000  0.32500500  1
  Au  Au122  1  0.50000000  0.75794300  0.36718700  1
  Au  Au123  1  0.50000000  0.69544300  0.42968700  1
  Au  Au124  1  0.00000000  0.75794300  0.36718700  1
  Au  Au125  1  0.00000000  0.69544300  0.42968700  1
  Au  Au126  1  0.25000000  0.65502300  0.39365900  1
  Au  Au127  1  0.75000000  0.86086300  0.34071600  1
  Au  Au128  1  0.25000000  0.18184700  0.36211400  1
  Au  Au129  1  0.75000000  0.33403900  0.37226100  1
  Au  Au130  1  0.50000000  0.82044300  0.30468700  1
  Au  Au131  1  0.00000000  0.82044300  0.30468700  1
