# generated using pymatgen
data_LiMg2
_symmetry_space_group_name_H-M   'P 1'
_cell_length_a   5.91597348
_cell_length_b   8.55483817
_cell_length_c   41.39076100
_cell_angle_alpha   92.80394366
_cell_angle_beta   91.01073281
_cell_angle_gamma   95.27772267
_symmetry_Int_Tables_number   1
_chemical_formula_structural   LiMg2
_chemical_formula_sum   'Li20 Mg40'
_cell_volume   2082.90014689
_cell_formula_units_Z   20
loop_
 _symmetry_equiv_pos_site_id
 _symmetry_equiv_pos_as_xyz
  1  'x, y, z'
loop_
 _atom_site_type_symbol
 _atom_site_label
 _atom_site_symmetry_multiplicity
 _atom_site_fract_x
 _atom_site_fract_y
 _atom_site_fract_z
 _atom_site_occupancy
  Li  Li0  1  0.09100000  0.45525300  0.22725000  1
  Li  Li1  1  0.65900000  0.98224700  0.21025000  1
  Li  Li2  1  0.84100000  0.51775300  0.28975000  1
  Li  Li3  1  0.40900000  0.04474700  0.27275000  1
  Li  Li4  1  0.59100000  0.58025300  0.35225000  1
  Li  Li5  1  0.15900000  0.10724700  0.33525000  1
  Li  Li6  1  0.34100000  0.64275300  0.41475000  1
  Li  Li7  1  0.90900000  0.16974700  0.39775000  1
  Li  Li8  1  0.09100000  0.70525300  0.47725000  1
  Li  Li9  1  0.65900000  0.23224700  0.46025000  1
  Li  Li10  1  0.84100000  0.76775300  0.53975000  1
  Li  Li11  1  0.40900000  0.29474700  0.52275000  1
  Li  Li12  1  0.59100000  0.83025300  0.60225000  1
  Li  Li13  1  0.15900000  0.35724700  0.58525000  1
  Li  Li14  1  0.34100000  0.89275300  0.66475000  1
  Li  Li15  1  0.90900000  0.41974700  0.64775000  1
  Li  Li16  1  0.09100000  0.95525300  0.72725000  1
  Li  Li17  1  0.65900000  0.48224700  0.71025000  1
  Li  Li18  1  0.84100000  0.01775300  0.78975000  1
  Li  Li19  1  0.40900000  0.54474700  0.77275000  1
  Mg  Mg20  1  0.00800600  0.81204900  0.24799800  1
  Mg  Mg21  1  0.17471700  0.10405800  0.20632100  1
  Mg  Mg22  1  0.74199400  0.62545100  0.18950200  1
  Mg  Mg23  1  0.57528300  0.33344200  0.23117900  1
  Mg  Mg24  1  0.75800600  0.87454900  0.31049800  1
  Mg  Mg25  1  0.92471700  0.16655800  0.26882100  1
  Mg  Mg26  1  0.49199400  0.68795100  0.25200200  1
  Mg  Mg27  1  0.32528300  0.39594200  0.29367900  1
  Mg  Mg28  1  0.50800600  0.93704900  0.37299800  1
  Mg  Mg29  1  0.67471700  0.22905800  0.33132100  1
  Mg  Mg30  1  0.24199400  0.75045100  0.31450200  1
  Mg  Mg31  1  0.07528300  0.45844200  0.35617900  1
  Mg  Mg32  1  0.25800600  0.99954900  0.43549800  1
  Mg  Mg33  1  0.42471700  0.29155800  0.39382100  1
  Mg  Mg34  1  0.99199400  0.81295100  0.37700200  1
  Mg  Mg35  1  0.82528300  0.52094200  0.41867900  1
  Mg  Mg36  1  0.00800600  0.06204900  0.49799800  1
  Mg  Mg37  1  0.17471700  0.35405800  0.45632100  1
  Mg  Mg38  1  0.74199400  0.87545100  0.43950200  1
  Mg  Mg39  1  0.57528300  0.58344200  0.48117900  1
  Mg  Mg40  1  0.75800600  0.12454900  0.56049800  1
  Mg  Mg41  1  0.92471700  0.41655800  0.51882100  1
  Mg  Mg42  1  0.49199400  0.93795100  0.50200200  1
  Mg  Mg43  1  0.32528300  0.64594200  0.54367900  1
  Mg  Mg44  1  0.50800600  0.18704900  0.62299800  1
  Mg  Mg45  1  0.67471700  0.47905800  0.58132100  1
  Mg  Mg46  1  0.24199400  0.00045100  0.56450200  1
  Mg  Mg47  1  0.07528300  0.70844200  0.60617900  1
  Mg  Mg48  1  0.25800600  0.24954900  0.68549800  1
  Mg  Mg49  1  0.42471700  0.54155800  0.64382100  1
  Mg  Mg50  1  0.99199400  0.06295100  0.62700200  1
  Mg  Mg51  1  0.82528300  0.77094200  0.66867900  1
  Mg  Mg52  1  0.00800600  0.31204900  0.74799800  1
  Mg  Mg53  1  0.17471700  0.60405800  0.70632100  1
  Mg  Mg54  1  0.74199400  0.12545100  0.68950200  1
  Mg  Mg55  1  0.57528300  0.83344200  0.73117900  1
  Mg  Mg56  1  0.75800600  0.37454900  0.81049800  1
  Mg  Mg57  1  0.92471700  0.66655800  0.76882100  1
  Mg  Mg58  1  0.49199400  0.18795100  0.75200200  1
  Mg  Mg59  1  0.32528300  0.89594200  0.79367900  1
