# generated using pymatgen
data_Sr6Mg49
_symmetry_space_group_name_H-M   'P 1'
_cell_length_a   10.60291304
_cell_length_b   10.12691700
_cell_length_c   46.21702700
_cell_angle_alpha   90.00000000
_cell_angle_beta   96.58677806
_cell_angle_gamma   90.00000000
_symmetry_Int_Tables_number   1
_chemical_formula_structural   Sr6Mg49
_chemical_formula_sum   'Sr12 Mg98'
_cell_volume   4929.78851558
_cell_formula_units_Z   2
loop_
 _symmetry_equiv_pos_site_id
 _symmetry_equiv_pos_as_xyz
  1  'x, y, z'
loop_
 _atom_site_type_symbol
 _atom_site_label
 _atom_site_symmetry_multiplicity
 _atom_site_fract_x
 _atom_site_fract_y
 _atom_site_fract_z
 _atom_site_occupancy
  Sr  Sr0  1  0.30644100  0.75000000  0.37719300  1
  Sr  Sr1  1  0.23977400  0.25000000  0.24386000  1
  Sr  Sr2  1  0.77310700  0.25000000  0.31052600  1
  Sr  Sr3  1  0.77310700  0.75000000  0.31052600  1
  Sr  Sr4  1  0.90644100  0.75000000  0.57719300  1
  Sr  Sr5  1  0.83977400  0.25000000  0.44386000  1
  Sr  Sr6  1  0.37310700  0.25000000  0.51052600  1
  Sr  Sr7  1  0.37310700  0.75000000  0.51052600  1
  Sr  Sr8  1  0.50644100  0.75000000  0.77719300  1
  Sr  Sr9  1  0.43977400  0.25000000  0.64386000  1
  Sr  Sr10  1  0.97310700  0.25000000  0.71052600  1
  Sr  Sr11  1  0.97310700  0.75000000  0.71052600  1
  Mg  Mg12  1  0.80603800  0.02155600  0.37638800  1
  Mg  Mg13  1  0.00362200  0.02155600  0.27759600  1
  Mg  Mg14  1  0.50966200  0.02155600  0.27759600  1
  Mg  Mg15  1  0.03655300  0.52155600  0.34345700  1
  Mg  Mg16  1  0.23977400  0.59810200  0.24386000  1
  Mg  Mg17  1  0.30644100  0.09810200  0.37719300  1
  Mg  Mg18  1  0.30644100  0.40189800  0.37719300  1
  Mg  Mg19  1  0.23977400  0.90189800  0.24386000  1
  Mg  Mg20  1  0.27310700  0.50000000  0.31052600  1
  Mg  Mg21  1  0.27310700  0.00000000  0.31052600  1
  Mg  Mg22  1  0.42238400  0.75000000  0.30311900  1
  Mg  Mg23  1  0.60467200  0.25000000  0.37622700  1
  Mg  Mg24  1  0.59082000  0.25000000  0.23741900  1
  Mg  Mg25  1  0.95539500  0.75000000  0.38363400  1
  Mg  Mg26  1  0.94154300  0.75000000  0.24482600  1
  Mg  Mg27  1  0.42979100  0.25000000  0.31793300  1
  Mg  Mg28  1  0.88228800  0.25000000  0.23741900  1
  Mg  Mg29  1  0.12383100  0.25000000  0.31793300  1
  Mg  Mg30  1  0.00724400  0.25000000  0.37622700  1
  Mg  Mg31  1  0.53897100  0.75000000  0.24482600  1
  Mg  Mg32  1  0.11642400  0.75000000  0.30311900  1
  Mg  Mg33  1  0.66392700  0.75000000  0.38363400  1
  Mg  Mg34  1  0.50966200  0.47844400  0.27759600  1
  Mg  Mg35  1  0.54259300  0.97844400  0.34345700  1
  Mg  Mg36  1  0.74017700  0.97844400  0.24466500  1
  Mg  Mg37  1  0.80603800  0.47844400  0.37638800  1
  Mg  Mg38  1  0.00362200  0.47844400  0.27759600  1
  Mg  Mg39  1  0.54259300  0.52155600  0.34345700  1
  Mg  Mg40  1  0.74017700  0.52155600  0.24466500  1
  Mg  Mg41  1  0.03655300  0.97844400  0.34345700  1
  Mg  Mg42  1  0.40603800  0.02155600  0.57638800  1
  Mg  Mg43  1  0.60362200  0.02155600  0.47759600  1
  Mg  Mg44  1  0.10966200  0.02155600  0.47759600  1
  Mg  Mg45  1  0.63655300  0.52155600  0.54345700  1
  Mg  Mg46  1  0.83977400  0.59810200  0.44386000  1
  Mg  Mg47  1  0.90644100  0.09810200  0.57719300  1
  Mg  Mg48  1  0.90644100  0.40189800  0.57719300  1
  Mg  Mg49  1  0.83977400  0.90189800  0.44386000  1
  Mg  Mg50  1  0.87310700  0.50000000  0.51052600  1
  Mg  Mg51  1  0.57310700  0.00000000  0.41052600  1
  Mg  Mg52  1  0.07310700  0.00000000  0.41052600  1
  Mg  Mg53  1  0.07310700  0.50000000  0.41052600  1
  Mg  Mg54  1  0.57310700  0.50000000  0.41052600  1
  Mg  Mg55  1  0.87310700  0.00000000  0.51052600  1
  Mg  Mg56  1  0.02238400  0.75000000  0.50311900  1
  Mg  Mg57  1  0.20467200  0.25000000  0.57622700  1
  Mg  Mg58  1  0.19082000  0.25000000  0.43741900  1
  Mg  Mg59  1  0.55539500  0.75000000  0.58363400  1
  Mg  Mg60  1  0.54154300  0.75000000  0.44482600  1
  Mg  Mg61  1  0.02979100  0.25000000  0.51793300  1
  Mg  Mg62  1  0.48228800  0.25000000  0.43741900  1
  Mg  Mg63  1  0.72383100  0.25000000  0.51793300  1
  Mg  Mg64  1  0.60724400  0.25000000  0.57622700  1
  Mg  Mg65  1  0.13897100  0.75000000  0.44482600  1
  Mg  Mg66  1  0.71642400  0.75000000  0.50311900  1
  Mg  Mg67  1  0.26392700  0.75000000  0.58363400  1
  Mg  Mg68  1  0.10966200  0.47844400  0.47759600  1
  Mg  Mg69  1  0.14259300  0.97844400  0.54345700  1
  Mg  Mg70  1  0.34017700  0.97844400  0.44466500  1
  Mg  Mg71  1  0.40603800  0.47844400  0.57638800  1
  Mg  Mg72  1  0.60362200  0.47844400  0.47759600  1
  Mg  Mg73  1  0.14259300  0.52155600  0.54345700  1
  Mg  Mg74  1  0.34017700  0.52155600  0.44466500  1
  Mg  Mg75  1  0.63655300  0.97844400  0.54345700  1
  Mg  Mg76  1  0.00603800  0.02155600  0.77638800  1
  Mg  Mg77  1  0.20362200  0.02155600  0.67759600  1
  Mg  Mg78  1  0.70966200  0.02155600  0.67759600  1
  Mg  Mg79  1  0.23655300  0.52155600  0.74345700  1
  Mg  Mg80  1  0.43977400  0.59810200  0.64386000  1
  Mg  Mg81  1  0.50644100  0.09810200  0.77719300  1
  Mg  Mg82  1  0.50644100  0.40189800  0.77719300  1
  Mg  Mg83  1  0.43977400  0.90189800  0.64386000  1
  Mg  Mg84  1  0.47310700  0.50000000  0.71052600  1
  Mg  Mg85  1  0.17310700  0.00000000  0.61052600  1
  Mg  Mg86  1  0.67310700  0.00000000  0.61052600  1
  Mg  Mg87  1  0.67310700  0.50000000  0.61052600  1
  Mg  Mg88  1  0.17310700  0.50000000  0.61052600  1
  Mg  Mg89  1  0.47310700  0.00000000  0.71052600  1
  Mg  Mg90  1  0.62238400  0.75000000  0.70311900  1
  Mg  Mg91  1  0.80467200  0.25000000  0.77622700  1
  Mg  Mg92  1  0.79082000  0.25000000  0.63741900  1
  Mg  Mg93  1  0.15539500  0.75000000  0.78363400  1
  Mg  Mg94  1  0.14154300  0.75000000  0.64482600  1
  Mg  Mg95  1  0.62979100  0.25000000  0.71793300  1
  Mg  Mg96  1  0.08228800  0.25000000  0.63741900  1
  Mg  Mg97  1  0.32383100  0.25000000  0.71793300  1
  Mg  Mg98  1  0.20724400  0.25000000  0.77622700  1
  Mg  Mg99  1  0.73897100  0.75000000  0.64482600  1
  Mg  Mg100  1  0.31642400  0.75000000  0.70311900  1
  Mg  Mg101  1  0.86392700  0.75000000  0.78363400  1
  Mg  Mg102  1  0.70966200  0.47844400  0.67759600  1
  Mg  Mg103  1  0.74259300  0.97844400  0.74345700  1
  Mg  Mg104  1  0.94017700  0.97844400  0.64466500  1
  Mg  Mg105  1  0.00603800  0.47844400  0.77638800  1
  Mg  Mg106  1  0.20362200  0.47844400  0.67759600  1
  Mg  Mg107  1  0.74259300  0.52155600  0.74345700  1
  Mg  Mg108  1  0.94017700  0.52155600  0.64466500  1
  Mg  Mg109  1  0.23655300  0.97844400  0.74345700  1
