# generated using pymatgen
data_Mg24Zn139
_symmetry_space_group_name_H-M   'P 1'
_cell_length_a   8.56229400
_cell_length_b   12.10891200
_cell_length_c   48.43564800
_cell_angle_alpha   90.00000000
_cell_angle_beta   90.00000000
_cell_angle_gamma   90.00000000
_symmetry_Int_Tables_number   1
_chemical_formula_structural   Mg24Zn139
_chemical_formula_sum   'Mg24 Zn139'
_cell_volume   5021.81111185
_cell_formula_units_Z   1
loop_
 _symmetry_equiv_pos_site_id
 _symmetry_equiv_pos_as_xyz
  1  'x, y, z'
loop_
 _atom_site_type_symbol
 _atom_site_label
 _atom_site_symmetry_multiplicity
 _atom_site_fract_x
 _atom_site_fract_y
 _atom_site_fract_z
 _atom_site_occupancy
  Mg  Mg0  1  0.50000000  0.17863800  0.38846300  1
  Mg  Mg1  1  0.00000000  0.12608700  0.32596300  1
  Mg  Mg2  1  0.69744900  0.77736300  0.36378200  1
  Mg  Mg3  1  0.00000000  0.42863800  0.40160100  1
  Mg  Mg4  1  0.30255100  0.77736300  0.36378200  1
  Mg  Mg5  1  0.50000000  0.37608700  0.33910100  1
  Mg  Mg6  1  0.50000000  0.67863800  0.51346300  1
  Mg  Mg7  1  0.00000000  0.62608700  0.45096300  1
  Mg  Mg8  1  0.69744900  0.27736300  0.48878200  1
  Mg  Mg9  1  0.00000000  0.92863800  0.52660100  1
  Mg  Mg10  1  0.30255100  0.27736300  0.48878200  1
  Mg  Mg11  1  0.50000000  0.87608700  0.46410100  1
  Mg  Mg12  1  0.50000000  0.17863800  0.63846300  1
  Mg  Mg13  1  0.00000000  0.12608700  0.57596300  1
  Mg  Mg14  1  0.69744900  0.77736300  0.61378200  1
  Mg  Mg15  1  1.00000000  0.42863800  0.65160100  1
  Mg  Mg16  1  0.30255100  0.77736300  0.61378200  1
  Mg  Mg17  1  0.50000000  0.37608700  0.58910100  1
  Mg  Mg18  1  0.50000000  0.67863800  0.76346300  1
  Mg  Mg19  1  0.00000000  0.62608700  0.70096300  1
  Mg  Mg20  1  0.69744900  0.27736300  0.73878200  1
  Mg  Mg21  1  0.00000000  0.92863800  0.77660100  1
  Mg  Mg22  1  0.30255100  0.27736300  0.73878200  1
  Mg  Mg23  1  0.50000000  0.87608700  0.71410100  1
  Zn  Zn24  1  0.50000000  0.02736300  0.30128200  1
  Zn  Zn25  1  0.77362700  0.52736300  0.30128200  1
  Zn  Zn26  1  0.22637300  0.52736300  0.30128200  1
  Zn  Zn27  1  0.21905500  0.74641800  0.30128200  1
  Zn  Zn28  1  0.21905500  0.30830700  0.30128200  1
  Zn  Zn29  1  0.78094500  0.30830700  0.30128200  1
  Zn  Zn30  1  0.78094500  0.74641800  0.30128200  1
  Zn  Zn31  1  0.50000000  0.52736300  0.42628200  1
  Zn  Zn32  1  0.00000000  0.14054900  0.39798500  1
  Zn  Zn33  1  0.00000000  0.91417600  0.39798500  1
  Zn  Zn34  1  0.77362700  0.02736300  0.42628200  1
  Zn  Zn35  1  0.00000000  0.64054900  0.32957900  1
  Zn  Zn36  1  0.22637300  0.02736300  0.42628200  1
  Zn  Zn37  1  0.00000000  0.41417600  0.32957900  1
  Zn  Zn38  1  0.00000000  0.85617300  0.34408000  1
  Zn  Zn39  1  0.50000000  0.94855300  0.40658000  1
  Zn  Zn40  1  0.84238000  0.27736300  0.36378200  1
  Zn  Zn41  1  0.50000000  0.60617300  0.32098500  1
  Zn  Zn42  1  0.15762000  0.27736300  0.36378200  1
  Zn  Zn43  1  0.00000000  0.69855300  0.38348500  1
  Zn  Zn44  1  0.78094500  0.02736300  0.37151800  1
  Zn  Zn45  1  0.78094500  0.52736300  0.35604600  1
  Zn  Zn46  1  0.21905500  0.24641800  0.42628200  1
  Zn  Zn47  1  0.21905500  0.80830700  0.42628200  1
  Zn  Zn48  1  0.21905500  0.52736300  0.35604600  1
  Zn  Zn49  1  0.21905500  0.02736300  0.37151800  1
  Zn  Zn50  1  0.78094500  0.80830700  0.42628200  1
  Zn  Zn51  1  0.78094500  0.24641800  0.42628200  1
  Zn  Zn52  1  0.65815800  0.16116700  0.33473300  1
  Zn  Zn53  1  0.76760900  0.94828400  0.32105200  1
  Zn  Zn54  1  0.50000000  0.97263700  0.35450300  1
  Zn  Zn55  1  0.50000000  0.58208800  0.37306100  1
  Zn  Zn56  1  0.23239100  0.94828400  0.32105200  1
  Zn  Zn57  1  0.50000000  0.74024600  0.41260100  1
  Zn  Zn58  1  0.76760900  0.60644200  0.40651200  1
  Zn  Zn59  1  0.23239100  0.60644200  0.40651200  1
  Zn  Zn60  1  0.50000000  0.81447900  0.31496300  1
  Zn  Zn61  1  0.34184200  0.39355800  0.39283100  1
  Zn  Zn62  1  0.34184200  0.16116700  0.33473300  1
  Zn  Zn63  1  0.65815800  0.39355800  0.39283100  1
  Zn  Zn64  1  0.50000000  0.02736300  0.55128200  1
  Zn  Zn65  1  0.00000000  0.64054900  0.52298500  1
  Zn  Zn66  1  0.00000000  0.41417600  0.52298500  1
  Zn  Zn67  1  0.77362700  0.52736300  0.55128200  1
  Zn  Zn68  1  0.00000000  0.14054900  0.45457900  1
  Zn  Zn69  1  0.22637300  0.52736300  0.55128200  1
  Zn  Zn70  1  0.00000000  0.91417600  0.45457900  1
  Zn  Zn71  1  0.00000000  0.35617300  0.46908000  1
  Zn  Zn72  1  0.50000000  0.44855300  0.53158000  1
  Zn  Zn73  1  0.84238000  0.77736300  0.48878200  1
  Zn  Zn74  1  0.50000000  0.10617300  0.44598500  1
  Zn  Zn75  1  0.15762000  0.77736300  0.48878200  1
  Zn  Zn76  1  0.00000000  0.19855300  0.50848500  1
  Zn  Zn77  1  0.78094500  0.52736300  0.49651800  1
  Zn  Zn78  1  0.78094500  0.02736300  0.48104600  1
  Zn  Zn79  1  0.21905500  0.74641800  0.55128200  1
  Zn  Zn80  1  0.21905500  0.30830700  0.55128200  1
  Zn  Zn81  1  0.21905500  0.02736300  0.48104600  1
  Zn  Zn82  1  0.21905500  0.52736300  0.49651800  1
  Zn  Zn83  1  0.78094500  0.30830700  0.55128200  1
  Zn  Zn84  1  0.78094500  0.74641800  0.55128200  1
  Zn  Zn85  1  0.65815800  0.66116700  0.45973300  1
  Zn  Zn86  1  0.76760900  0.44828400  0.44605200  1
  Zn  Zn87  1  0.50000000  0.47263700  0.47950300  1
  Zn  Zn88  1  0.50000000  0.08208800  0.49806100  1
  Zn  Zn89  1  0.23239100  0.44828400  0.44605200  1
  Zn  Zn90  1  0.50000000  0.24024600  0.53760100  1
  Zn  Zn91  1  0.76760900  0.10644200  0.53151200  1
  Zn  Zn92  1  0.23239100  0.10644200  0.53151200  1
  Zn  Zn93  1  0.50000000  0.31447900  0.43996300  1
  Zn  Zn94  1  0.34184200  0.89355800  0.51783100  1
  Zn  Zn95  1  0.34184200  0.66116700  0.45973300  1
  Zn  Zn96  1  0.65815800  0.89355800  0.51783100  1
  Zn  Zn97  1  0.50000000  0.52736300  0.67628200  1
  Zn  Zn98  1  0.00000000  0.14054900  0.64798500  1
  Zn  Zn99  1  0.00000000  0.91417600  0.64798500  1
  Zn  Zn100  1  0.77362700  0.02736300  0.67628200  1
  Zn  Zn101  1  0.00000000  0.64054900  0.57957900  1
  Zn  Zn102  1  0.22637300  0.02736300  0.67628200  1
  Zn  Zn103  1  0.00000000  0.41417600  0.57957900  1
  Zn  Zn104  1  0.00000000  0.85617300  0.59408000  1
  Zn  Zn105  1  0.50000000  0.94855300  0.65658000  1
  Zn  Zn106  1  0.84238000  0.27736300  0.61378200  1
  Zn  Zn107  1  0.50000000  0.60617300  0.57098500  1
  Zn  Zn108  1  0.15762000  0.27736300  0.61378200  1
  Zn  Zn109  1  0.00000000  0.69855300  0.63348500  1
  Zn  Zn110  1  0.78094500  0.02736300  0.62151800  1
  Zn  Zn111  1  0.78094500  0.52736300  0.60604600  1
  Zn  Zn112  1  0.21905500  0.24641800  0.67628200  1
  Zn  Zn113  1  0.21905500  0.80830700  0.67628200  1
  Zn  Zn114  1  0.21905500  0.52736300  0.60604600  1
  Zn  Zn115  1  0.21905500  0.02736300  0.62151800  1
  Zn  Zn116  1  0.78094500  0.80830700  0.67628200  1
  Zn  Zn117  1  0.78094500  0.24641800  0.67628200  1
  Zn  Zn118  1  0.65815800  0.16116700  0.58473300  1
  Zn  Zn119  1  0.76760900  0.94828400  0.57105200  1
  Zn  Zn120  1  0.50000000  0.97263700  0.60450300  1
  Zn  Zn121  1  0.50000000  0.58208800  0.62306100  1
  Zn  Zn122  1  0.23239100  0.94828400  0.57105200  1
  Zn  Zn123  1  0.50000000  0.74024600  0.66260100  1
  Zn  Zn124  1  0.76760900  0.60644200  0.65651200  1
  Zn  Zn125  1  0.23239100  0.60644200  0.65651200  1
  Zn  Zn126  1  0.50000000  0.81447900  0.56496300  1
  Zn  Zn127  1  0.34184200  0.39355800  0.64283100  1
  Zn  Zn128  1  0.34184200  0.16116700  0.58473300  1
  Zn  Zn129  1  0.65815800  0.39355800  0.64283100  1
  Zn  Zn130  1  0.50000000  0.02736300  0.80128200  1
  Zn  Zn131  1  0.00000000  0.64054900  0.77298500  1
  Zn  Zn132  1  0.00000000  0.41417600  0.77298500  1
  Zn  Zn133  1  0.77362700  0.52736300  0.80128200  1
  Zn  Zn134  1  0.00000000  0.14054900  0.70457900  1
  Zn  Zn135  1  0.22637300  0.52736300  0.80128200  1
  Zn  Zn136  1  0.00000000  0.91417600  0.70457900  1
  Zn  Zn137  1  0.00000000  0.35617300  0.71908000  1
  Zn  Zn138  1  0.50000000  0.44855300  0.78158000  1
  Zn  Zn139  1  0.84238000  0.77736300  0.73878200  1
  Zn  Zn140  1  0.50000000  0.10617300  0.69598500  1
  Zn  Zn141  1  0.15762000  0.77736300  0.73878200  1
  Zn  Zn142  1  0.00000000  0.19855300  0.75848500  1
  Zn  Zn143  1  0.78094500  0.52736300  0.74651800  1
  Zn  Zn144  1  0.78094500  0.02736300  0.73104600  1
  Zn  Zn145  1  0.21905500  0.74641800  0.80128200  1
  Zn  Zn146  1  0.21905500  0.30830700  0.80128200  1
  Zn  Zn147  1  0.21905500  0.02736300  0.73104600  1
  Zn  Zn148  1  0.21905500  0.52736300  0.74651800  1
  Zn  Zn149  1  0.78094500  0.30830700  0.80128200  1
  Zn  Zn150  1  0.78094500  0.74641800  0.80128200  1
  Zn  Zn151  1  0.65815800  0.66116700  0.70973300  1
  Zn  Zn152  1  0.76760900  0.44828400  0.69605200  1
  Zn  Zn153  1  0.50000000  0.47263700  0.72950300  1
  Zn  Zn154  1  0.50000000  0.08208800  0.74806100  1
  Zn  Zn155  1  0.23239100  0.44828400  0.69605200  1
  Zn  Zn156  1  0.50000000  0.24024600  0.78760100  1
  Zn  Zn157  1  0.76760900  0.10644200  0.78151200  1
  Zn  Zn158  1  0.23239100  0.10644200  0.78151200  1
  Zn  Zn159  1  0.50000000  0.31447900  0.68996300  1
  Zn  Zn160  1  0.34184200  0.89355800  0.76783100  1
  Zn  Zn161  1  0.34184200  0.66116700  0.70973300  1
  Zn  Zn162  1  0.65815800  0.89355800  0.76783100  1
