# generated using pymatgen
data_Mg23B156
_symmetry_space_group_name_H-M   'P 1'
_cell_length_a   7.26364870
_cell_length_b   7.26364888
_cell_length_c   48.33922800
_cell_angle_alpha   94.01003019
_cell_angle_beta   94.01003029
_cell_angle_gamma   92.20890678
_symmetry_Int_Tables_number   1
_chemical_formula_structural   Mg23B156
_chemical_formula_sum   'Mg23 B156'
_cell_volume   2535.51535720
_cell_formula_units_Z   1
loop_
 _symmetry_equiv_pos_site_id
 _symmetry_equiv_pos_as_xyz
  1  'x, y, z'
loop_
 _atom_site_type_symbol
 _atom_site_label
 _atom_site_symmetry_multiplicity
 _atom_site_fract_x
 _atom_site_fract_y
 _atom_site_fract_z
 _atom_site_occupancy
  Mg  Mg0  1  0.22435400  0.72435400  0.72968800  1
  Mg  Mg1  1  0.55556200  0.05556200  0.71615300  1
  Mg  Mg2  1  0.89314600  0.39314600  0.74322200  1
  Mg  Mg3  1  0.02435400  0.52435400  0.67968800  1
  Mg  Mg4  1  0.82435400  0.32435400  0.62968700  1
  Mg  Mg5  1  0.15556200  0.65556200  0.61615300  1
  Mg  Mg6  1  0.49314600  0.99314600  0.64322200  1
  Mg  Mg7  1  0.62435400  0.12435400  0.57968700  1
  Mg  Mg8  1  0.42435400  0.92435400  0.52968800  1
  Mg  Mg9  1  0.75556200  0.25556200  0.51615300  1
  Mg  Mg10  1  0.09314600  0.59314600  0.54322200  1
  Mg  Mg11  1  0.22435400  0.72435400  0.47968800  1
  Mg  Mg12  1  0.02435400  0.52435400  0.42968700  1
  Mg  Mg13  1  0.35556200  0.85556200  0.41615300  1
  Mg  Mg14  1  0.69314600  0.19314600  0.44322200  1
  Mg  Mg15  1  0.82435400  0.32435400  0.37968800  1
  Mg  Mg16  1  0.62435400  0.12435400  0.32968700  1
  Mg  Mg17  1  0.95556200  0.45556200  0.31615300  1
  Mg  Mg18  1  0.29314600  0.79314600  0.34322200  1
  Mg  Mg19  1  0.42435400  0.92435400  0.27968700  1
  Mg  Mg20  1  0.22435400  0.72435400  0.22968800  1
  Mg  Mg21  1  0.55556200  0.05556200  0.21615300  1
  Mg  Mg22  1  0.89314600  0.39314600  0.24322200  1
  B  B23  1  0.29569900  0.01469600  0.74121400  1
  B  B24  1  0.37671100  0.22104200  0.75949900  1
  B  B25  1  0.17400000  0.01833100  0.70882100  1
  B  B26  1  0.52382600  0.39653500  0.74779000  1
  B  B27  1  0.51469600  0.79569900  0.74121400  1
  B  B28  1  0.72104200  0.87671100  0.75949900  1
  B  B29  1  0.51833100  0.67400000  0.70882100  1
  B  B30  1  0.55217200  0.42488200  0.71158500  1
  B  B31  1  0.89653500  0.02382600  0.74779000  1
  B  B32  1  0.93037700  0.77470800  0.75055400  1
  B  B33  1  0.72766500  0.57199700  0.69987600  1
  B  B34  1  0.93401200  0.65300800  0.71816100  1
  B  B35  1  0.92488200  0.05217200  0.71158500  1
  B  B36  1  0.27470800  0.43037700  0.75055400  1
  B  B37  1  0.07199700  0.22766500  0.69987600  1
  B  B38  1  0.15300800  0.43401200  0.71816100  1
  B  B39  1  0.89569900  0.61469600  0.64121400  1
  B  B40  1  0.97671100  0.82104200  0.65949900  1
  B  B41  1  0.77400000  0.61833100  0.60882100  1
  B  B42  1  0.04786200  0.21245600  0.66205300  1
  B  B43  1  0.20511800  0.87285300  0.67724900  1
  B  B44  1  0.12382600  0.99653500  0.64779000  1
  B  B45  1  0.24827300  0.12098200  0.67890200  1
  B  B46  1  0.33625200  0.50084600  0.69732200  1
  B  B47  1  0.11469600  0.39569900  0.64121400  1
  B  B48  1  0.37285300  0.70511800  0.67724900  1
  B  B49  1  0.32104200  0.47671100  0.65949900  1
  B  B50  1  0.11833100  0.27400000  0.60882100  1
  B  B51  1  0.42772600  0.30043500  0.68047300  1
  B  B52  1  0.15217200  0.02488200  0.61158500  1
  B  B53  1  0.49653500  0.62382600  0.64779000  1
  B  B54  1  0.62098200  0.74827300  0.67890200  1
  B  B55  1  0.53037700  0.37470800  0.65055400  1
  B  B56  1  0.32766500  0.17199700  0.59987600  1
  B  B57  1  0.67585500  0.34359000  0.68212600  1
  B  B58  1  0.53401200  0.25300800  0.61816100  1
  B  B59  1  0.71245600  0.54786200  0.66205300  1
  B  B60  1  0.80043500  0.92772600  0.68047300  1
  B  B61  1  0.52488200  0.65217200  0.61158500  1
  B  B62  1  0.84359000  0.17585500  0.68212600  1
  B  B63  1  0.00084600  0.83625200  0.69732200  1
  B  B64  1  0.87470800  0.03037700  0.65055400  1
  B  B65  1  0.67199700  0.82766500  0.59987600  1
  B  B66  1  0.75300800  0.03401200  0.61816100  1
  B  B67  1  0.49569900  0.21469600  0.54121400  1
  B  B68  1  0.57671100  0.42104200  0.55949900  1
  B  B69  1  0.37400000  0.21833100  0.50882100  1
  B  B70  1  0.64786200  0.81245600  0.56205300  1
  B  B71  1  0.80511800  0.47285300  0.57724900  1
  B  B72  1  0.72382600  0.59653500  0.54779000  1
  B  B73  1  0.84827300  0.72098200  0.57890200  1
  B  B74  1  0.93625200  0.10084600  0.59732200  1
  B  B75  1  0.71469600  0.99569900  0.54121400  1
  B  B76  1  0.97285300  0.30511800  0.57724900  1
  B  B77  1  0.92104200  0.07671100  0.55949900  1
  B  B78  1  0.71833100  0.87400000  0.50882100  1
  B  B79  1  0.02772600  0.90043500  0.58047300  1
  B  B80  1  0.75217200  0.62488200  0.51158500  1
  B  B81  1  0.09653500  0.22382600  0.54779000  1
  B  B82  1  0.22098200  0.34827300  0.57890200  1
  B  B83  1  0.13037700  0.97470800  0.55055400  1
  B  B84  1  0.92766500  0.77199700  0.49987600  1
  B  B85  1  0.27585500  0.94359000  0.58212600  1
  B  B86  1  0.13401200  0.85300800  0.51816100  1
  B  B87  1  0.31245600  0.14786200  0.56205300  1
  B  B88  1  0.40043500  0.52772600  0.58047300  1
  B  B89  1  0.12488200  0.25217200  0.51158500  1
  B  B90  1  0.44359000  0.77585500  0.58212600  1
  B  B91  1  0.60084600  0.43625200  0.59732200  1
  B  B92  1  0.47470800  0.63037700  0.55055400  1
  B  B93  1  0.27199700  0.42766500  0.49987600  1
  B  B94  1  0.35300800  0.63401200  0.51816100  1
  B  B95  1  0.09569900  0.81469600  0.44121400  1
  B  B96  1  0.17671100  0.02104200  0.45949900  1
  B  B97  1  0.97400000  0.81833100  0.40882100  1
  B  B98  1  0.24786200  0.41245600  0.46205300  1
  B  B99  1  0.40511800  0.07285300  0.47724900  1
  B  B100  1  0.32382600  0.19653500  0.44779000  1
  B  B101  1  0.44827300  0.32098200  0.47890200  1
  B  B102  1  0.53625200  0.70084600  0.49732200  1
  B  B103  1  0.31469600  0.59569900  0.44121400  1
  B  B104  1  0.57285300  0.90511800  0.47724900  1
  B  B105  1  0.52104200  0.67671100  0.45949900  1
  B  B106  1  0.31833100  0.47400000  0.40882100  1
  B  B107  1  0.62772600  0.50043500  0.48047300  1
  B  B108  1  0.35217200  0.22488200  0.41158500  1
  B  B109  1  0.69653500  0.82382600  0.44779000  1
  B  B110  1  0.82098200  0.94827300  0.47890200  1
  B  B111  1  0.73037700  0.57470800  0.45055400  1
  B  B112  1  0.52766500  0.37199700  0.39987600  1
  B  B113  1  0.87585500  0.54359000  0.48212600  1
  B  B114  1  0.73401200  0.45300800  0.41816100  1
  B  B115  1  0.91245600  0.74786200  0.46205300  1
  B  B116  1  0.00043500  0.12772600  0.48047300  1
  B  B117  1  0.72488200  0.85217200  0.41158500  1
  B  B118  1  0.04359000  0.37585500  0.48212600  1
  B  B119  1  0.20084600  0.03625200  0.49732200  1
  B  B120  1  0.07470800  0.23037700  0.45055400  1
  B  B121  1  0.87199700  0.02766500  0.39987600  1
  B  B122  1  0.95300800  0.23401200  0.41816100  1
  B  B123  1  0.69569900  0.41469600  0.34121400  1
  B  B124  1  0.77671100  0.62104200  0.35949900  1
  B  B125  1  0.57400000  0.41833100  0.30882100  1
  B  B126  1  0.84786200  0.01245600  0.36205300  1
  B  B127  1  0.00511800  0.67285300  0.37724900  1
  B  B128  1  0.92382600  0.79653500  0.34779000  1
  B  B129  1  0.04827300  0.92098200  0.37890200  1
  B  B130  1  0.13625200  0.30084600  0.39732200  1
  B  B131  1  0.91469600  0.19569900  0.34121400  1
  B  B132  1  0.17285300  0.50511800  0.37724900  1
  B  B133  1  0.12104200  0.27671100  0.35949900  1
  B  B134  1  0.91833100  0.07400000  0.30882100  1
  B  B135  1  0.22772600  0.10043500  0.38047300  1
  B  B136  1  0.95217200  0.82488200  0.31158500  1
  B  B137  1  0.29653500  0.42382600  0.34779000  1
  B  B138  1  0.42098200  0.54827300  0.37890200  1
  B  B139  1  0.33037700  0.17470800  0.35055400  1
  B  B140  1  0.12766500  0.97199700  0.29987600  1
  B  B141  1  0.47585500  0.14359000  0.38212600  1
  B  B142  1  0.33401200  0.05300800  0.31816100  1
  B  B143  1  0.51245600  0.34786200  0.36205300  1
  B  B144  1  0.60043500  0.72772600  0.38047300  1
  B  B145  1  0.32488200  0.45217200  0.31158500  1
  B  B146  1  0.64359000  0.97585500  0.38212600  1
  B  B147  1  0.80084600  0.63625200  0.39732200  1
  B  B148  1  0.67470800  0.83037700  0.35055400  1
  B  B149  1  0.47199700  0.62766500  0.29987600  1
  B  B150  1  0.55300800  0.83401200  0.31816100  1
  B  B151  1  0.29569900  0.01469600  0.24121400  1
  B  B152  1  0.37671100  0.22104200  0.25949900  1
  B  B153  1  0.17400000  0.01833100  0.20882100  1
  B  B154  1  0.44786200  0.61245600  0.26205300  1
  B  B155  1  0.60511800  0.27285300  0.27724900  1
  B  B156  1  0.52382600  0.39653500  0.24779000  1
  B  B157  1  0.64827300  0.52098200  0.27890200  1
  B  B158  1  0.73625200  0.90084600  0.29732200  1
  B  B159  1  0.51469600  0.79569900  0.24121400  1
  B  B160  1  0.77285300  0.10511800  0.27724900  1
  B  B161  1  0.72104200  0.87671100  0.25949900  1
  B  B162  1  0.51833100  0.67400000  0.20882100  1
  B  B163  1  0.82772600  0.70043500  0.28047300  1
  B  B164  1  0.55217200  0.42488200  0.21158500  1
  B  B165  1  0.89653500  0.02382600  0.24779000  1
  B  B166  1  0.02098200  0.14827300  0.27890200  1
  B  B167  1  0.93037700  0.77470800  0.25055400  1
  B  B168  1  0.72766500  0.57199700  0.19987600  1
  B  B169  1  0.07585500  0.74359000  0.28212600  1
  B  B170  1  0.93401200  0.65300800  0.21816100  1
  B  B171  1  0.11245600  0.94786200  0.26205300  1
  B  B172  1  0.20043500  0.32772600  0.28047300  1
  B  B173  1  0.92488200  0.05217200  0.21158500  1
  B  B174  1  0.24359000  0.57585500  0.28212600  1
  B  B175  1  0.40084600  0.23625200  0.29732200  1
  B  B176  1  0.27470800  0.43037700  0.25055400  1
  B  B177  1  0.07199700  0.22766500  0.19987600  1
  B  B178  1  0.15300800  0.43401200  0.21816100  1
