# generated using pymatgen
data_Mg52Ni101
_symmetry_space_group_name_H-M   'P 1'
_cell_length_a   4.81848500
_cell_length_b   16.44013798
_cell_length_c   44.59142500
_cell_angle_alpha   84.29083893
_cell_angle_beta   90.00000000
_cell_angle_gamma   81.57316207
_symmetry_Int_Tables_number   1
_chemical_formula_structural   Mg52Ni101
_chemical_formula_sum   'Mg52 Ni101'
_cell_volume   3476.52899218
_cell_formula_units_Z   1
loop_
 _symmetry_equiv_pos_site_id
 _symmetry_equiv_pos_as_xyz
  1  'x, y, z'
loop_
 _atom_site_type_symbol
 _atom_site_label
 _atom_site_symmetry_multiplicity
 _atom_site_fract_x
 _atom_site_fract_y
 _atom_site_fract_z
 _atom_site_occupancy
  Mg  Mg0  1  0.64598100  0.83622000  0.24722900  1
  Mg  Mg1  1  0.56145700  0.00526700  0.26413400  1
  Mg  Mg2  1  0.27525700  0.57766700  0.25470800  1
  Mg  Mg3  1  0.93218100  0.26382000  0.25665600  1
  Mg  Mg4  1  0.19143500  0.74531100  0.33813900  1
  Mg  Mg5  1  0.10691200  0.91435800  0.35504300  1
  Mg  Mg6  1  0.41870800  0.29076600  0.29268400  1
  Mg  Mg7  1  0.33418500  0.45981300  0.30958900  1
  Mg  Mg8  1  0.56313600  0.00191000  0.33046500  1
  Mg  Mg9  1  0.18975600  0.74866900  0.27180800  1
  Mg  Mg10  1  0.82071200  0.48675800  0.34561700  1
  Mg  Mg11  1  0.47763500  0.17291100  0.34756500  1
  Mg  Mg12  1  0.73689000  0.65440200  0.42904800  1
  Mg  Mg13  1  0.65236600  0.82344900  0.44595200  1
  Mg  Mg14  1  0.96416200  0.19985700  0.38359300  1
  Mg  Mg15  1  0.87963900  0.36890300  0.40049800  1
  Mg  Mg16  1  0.10859000  0.91100100  0.42137400  1
  Mg  Mg17  1  0.73521100  0.65776000  0.36271700  1
  Mg  Mg18  1  0.36616600  0.39584900  0.43652600  1
  Mg  Mg19  1  0.02309000  0.08200200  0.43847400  1
  Mg  Mg20  1  0.28234400  0.56349300  0.51995700  1
  Mg  Mg21  1  0.19782100  0.73254000  0.53686100  1
  Mg  Mg22  1  0.50961700  0.10894800  0.47450200  1
  Mg  Mg23  1  0.42509400  0.27799400  0.49140700  1
  Mg  Mg24  1  0.65404500  0.82009200  0.51228300  1
  Mg  Mg25  1  0.28066600  0.56685100  0.45362600  1
  Mg  Mg26  1  0.91162100  0.30494000  0.52743500  1
  Mg  Mg27  1  0.56854400  0.99109300  0.52938300  1
  Mg  Mg28  1  0.82779900  0.47258400  0.61086600  1
  Mg  Mg29  1  0.74327500  0.64163100  0.62777100  1
  Mg  Mg30  1  0.05507100  0.01803900  0.56541100  1
  Mg  Mg31  1  0.97054800  0.18708500  0.58231600  1
  Mg  Mg32  1  0.19950000  0.72918200  0.60319200  1
  Mg  Mg33  1  0.82612000  0.47594100  0.54453500  1
  Mg  Mg34  1  0.45707500  0.21403100  0.61834400  1
  Mg  Mg35  1  0.11399900  0.90018400  0.62029200  1
  Mg  Mg36  1  0.37325300  0.38167500  0.70177500  1
  Mg  Mg37  1  0.28873000  0.55072200  0.71868000  1
  Mg  Mg38  1  0.60052600  0.92713000  0.65632000  1
  Mg  Mg39  1  0.51600300  0.09617600  0.67322500  1
  Mg  Mg40  1  0.74495400  0.63827300  0.69410100  1
  Mg  Mg41  1  0.37157500  0.38503200  0.63544400  1
  Mg  Mg42  1  0.00253000  0.12312200  0.70925300  1
  Mg  Mg43  1  0.65945300  0.80927500  0.71120200  1
  Mg  Mg44  1  0.91870800  0.29076600  0.79268400  1
  Mg  Mg45  1  0.83418500  0.45981300  0.80958900  1
  Mg  Mg46  1  0.14598100  0.83622000  0.74722900  1
  Mg  Mg47  1  0.06145700  0.00526700  0.76413400  1
  Mg  Mg48  1  0.29040900  0.54736400  0.78501100  1
  Mg  Mg49  1  0.91702900  0.29412300  0.72635300  1
  Mg  Mg50  1  0.54798400  0.03221300  0.80016200  1
  Mg  Mg51  1  0.20490800  0.71836600  0.80211100  1
  Ni  Ni52  1  0.10371900  0.92074400  0.25568200  1
  Ni  Ni53  1  0.60371900  0.42074400  0.25568200  1
  Ni  Ni54  1  0.10371900  0.42074400  0.25568200  1
  Ni  Ni55  1  0.73230900  0.66356400  0.26286200  1
  Ni  Ni56  1  0.47512900  0.17792400  0.24850200  1
  Ni  Ni57  1  0.69085200  0.74647800  0.30492200  1
  Ni  Ni58  1  0.06204100  0.00410100  0.29735100  1
  Ni  Ni59  1  0.94842800  0.23132600  0.32007300  1
  Ni  Ni60  1  0.80446500  0.51925200  0.28219900  1
  Ni  Ni61  1  0.37644600  0.87528900  0.30113600  1
  Ni  Ni62  1  0.64917300  0.82983500  0.34659100  1
  Ni  Ni63  1  0.87644600  0.87528900  0.30113600  1
  Ni  Ni64  1  0.14917300  0.32983500  0.34659100  1
  Ni  Ni65  1  0.87644600  0.37528900  0.30113600  1
  Ni  Ni66  1  0.64917300  0.32983500  0.34659100  1
  Ni  Ni67  1  0.00859900  0.61751600  0.30891000  1
  Ni  Ni68  1  0.27776300  0.57265500  0.35377100  1
  Ni  Ni69  1  0.50206700  0.61751600  0.30891000  1
  Ni  Ni70  1  0.74429400  0.13306300  0.29336300  1
  Ni  Ni71  1  0.02058400  0.08701500  0.33941100  1
  Ni  Ni72  1  0.25082500  0.13306300  0.29336300  1
  Ni  Ni73  1  0.23630600  0.65556900  0.39583100  1
  Ni  Ni74  1  0.60749500  0.91319100  0.38826000  1
  Ni  Ni75  1  0.49388200  0.14041700  0.41098300  1
  Ni  Ni76  1  0.34991900  0.42834300  0.37310800  1
  Ni  Ni77  1  0.92190100  0.78438000  0.39204500  1
  Ni  Ni78  1  0.19462800  0.73892600  0.43750000  1
  Ni  Ni79  1  0.42190100  0.78438000  0.39204500  1
  Ni  Ni80  1  0.69462800  0.23892600  0.43750000  1
  Ni  Ni81  1  0.42190100  0.28438000  0.39204500  1
  Ni  Ni82  1  0.19462800  0.23892600  0.43750000  1
  Ni  Ni83  1  0.55405300  0.52660600  0.39981900  1
  Ni  Ni84  1  0.82321800  0.48174600  0.44468000  1
  Ni  Ni85  1  0.04752200  0.52660600  0.39981900  1
  Ni  Ni86  1  0.28974800  0.04215400  0.38427200  1
  Ni  Ni87  1  0.56603800  0.99610600  0.43032000  1
  Ni  Ni88  1  0.79628000  0.04215400  0.38427200  1
  Ni  Ni89  1  0.78176100  0.56466000  0.48674000  1
  Ni  Ni90  1  0.15295000  0.82228200  0.47916900  1
  Ni  Ni91  1  0.03933700  0.04950800  0.50189200  1
  Ni  Ni92  1  0.89537400  0.33743400  0.46401700  1
  Ni  Ni93  1  0.46735500  0.69347100  0.48295500  1
  Ni  Ni94  1  0.74008300  0.64801700  0.52840900  1
  Ni  Ni95  1  0.96735500  0.69347100  0.48295500  1
  Ni  Ni96  1  0.24008300  0.14801700  0.52840900  1
  Ni  Ni97  1  0.96735500  0.19347100  0.48295500  1
  Ni  Ni98  1  0.74008300  0.14801700  0.52840900  1
  Ni  Ni99  1  0.09950800  0.43569700  0.49072800  1
  Ni  Ni100  1  0.36867300  0.39083700  0.53558900  1
  Ni  Ni101  1  0.59297600  0.43569700  0.49072800  1
  Ni  Ni102  1  0.83520300  0.95124500  0.47518100  1
  Ni  Ni103  1  0.11149300  0.90519600  0.52122900  1
  Ni  Ni104  1  0.34173400  0.95124500  0.47518100  1
  Ni  Ni105  1  0.32721500  0.47375100  0.57764900  1
  Ni  Ni106  1  0.69840400  0.73137300  0.57007800  1
  Ni  Ni107  1  0.58479100  0.95859900  0.59280100  1
  Ni  Ni108  1  0.44082800  0.24652500  0.55492700  1
  Ni  Ni109  1  0.01281000  0.60256200  0.57386400  1
  Ni  Ni110  1  0.28553700  0.55710700  0.61931800  1
  Ni  Ni111  1  0.51281000  0.60256200  0.57386400  1
  Ni  Ni112  1  0.78553700  0.05710700  0.61931800  1
  Ni  Ni113  1  0.51281000  0.10256200  0.57386400  1
  Ni  Ni114  1  0.28553700  0.05710700  0.61931800  1
  Ni  Ni115  1  0.64496200  0.34478800  0.58163700  1
  Ni  Ni116  1  0.91412700  0.29992800  0.62649800  1
  Ni  Ni117  1  0.13843100  0.34478800  0.58163700  1
  Ni  Ni118  1  0.38065700  0.86033600  0.56609000  1
  Ni  Ni119  1  0.65694700  0.81428700  0.61213800  1
  Ni  Ni120  1  0.88718900  0.86033600  0.56609000  1
  Ni  Ni121  1  0.87267000  0.38284200  0.66855800  1
  Ni  Ni122  1  0.24385900  0.64046400  0.66098700  1
  Ni  Ni123  1  0.13024600  0.86769000  0.68371000  1
  Ni  Ni124  1  0.98628300  0.15561600  0.64583600  1
  Ni  Ni125  1  0.55826400  0.51165300  0.66477300  1
  Ni  Ni126  1  0.83099200  0.46619800  0.71022700  1
  Ni  Ni127  1  0.05826400  0.51165300  0.66477300  1
  Ni  Ni128  1  0.33099200  0.96619800  0.71022700  1
  Ni  Ni129  1  0.05826400  0.01165300  0.66477300  1
  Ni  Ni130  1  0.83099200  0.96619800  0.71022700  1
  Ni  Ni131  1  0.19041700  0.25387900  0.67254600  1
  Ni  Ni132  1  0.45958200  0.20901800  0.71740700  1
  Ni  Ni133  1  0.68388600  0.25387900  0.67254600  1
  Ni  Ni134  1  0.92611200  0.76942700  0.65699900  1
  Ni  Ni135  1  0.20240200  0.72337800  0.70304700  1
  Ni  Ni136  1  0.43264300  0.76942700  0.65699900  1
  Ni  Ni137  1  0.41812500  0.29193200  0.75946700  1
  Ni  Ni138  1  0.78931300  0.54955500  0.75189600  1
  Ni  Ni139  1  0.67570000  0.77678100  0.77461900  1
  Ni  Ni140  1  0.53173800  0.06470700  0.73674500  1
  Ni  Ni141  1  0.10371900  0.42074400  0.75568200  1
  Ni  Ni142  1  0.37644600  0.37528900  0.80113600  1
  Ni  Ni143  1  0.60371900  0.42074400  0.75568200  1
  Ni  Ni144  1  0.87644600  0.87528900  0.80113600  1
  Ni  Ni145  1  0.60371900  0.92074400  0.75568200  1
  Ni  Ni146  1  0.37644600  0.87528900  0.80113600  1
  Ni  Ni147  1  0.73587100  0.16297000  0.76345500  1
  Ni  Ni148  1  0.00503600  0.11810900  0.80831600  1
  Ni  Ni149  1  0.22934000  0.16297000  0.76345500  1
  Ni  Ni150  1  0.47156600  0.67851700  0.74790800  1
  Ni  Ni151  1  0.74785600  0.63246900  0.79395600  1
  Ni  Ni152  1  0.97809800  0.67851700  0.74790800  1
