# generated using pymatgen
data_Sr4Mg37
_symmetry_space_group_name_H-M   'P 1'
_cell_length_a   10.60291300
_cell_length_b   14.66206680
_cell_length_c   47.66603800
_cell_angle_alpha   92.42755603
_cell_angle_beta   90.00000000
_cell_angle_gamma   68.80296164
_symmetry_Int_Tables_number   1
_chemical_formula_structural   Sr4Mg37
_chemical_formula_sum   'Sr12 Mg111'
_cell_volume   6901.70350145
_cell_formula_units_Z   3
loop_
 _symmetry_equiv_pos_site_id
 _symmetry_equiv_pos_as_xyz
  1  'x, y, z'
loop_
 _atom_site_type_symbol
 _atom_site_label
 _atom_site_symmetry_multiplicity
 _atom_site_fract_x
 _atom_site_fract_y
 _atom_site_fract_z
 _atom_site_occupancy
  Sr  Sr0  1  0.46748000  0.06504000  0.31453600  1
  Sr  Sr1  1  0.18176600  0.63646800  0.29072700  1
  Sr  Sr2  1  0.75319400  0.49361100  0.33834600  1
  Sr  Sr3  1  0.89605100  0.20789700  0.26691700  1
  Sr  Sr4  1  0.18176600  0.63646800  0.45739300  1
  Sr  Sr5  1  0.89605100  0.20789700  0.43358400  1
  Sr  Sr6  1  0.46748000  0.06504000  0.48120300  1
  Sr  Sr7  1  0.61033700  0.77932600  0.40977400  1
  Sr  Sr8  1  0.89605100  0.20789700  0.60025100  1
  Sr  Sr9  1  0.61033700  0.77932600  0.57644100  1
  Sr  Sr10  1  0.18176600  0.63646800  0.62406000  1
  Sr  Sr11  1  0.32462300  0.35075400  0.55263200  1
  Mg  Mg12  1  0.88903000  0.22194100  0.35275500  1
  Mg  Mg13  1  0.03016100  0.43363800  0.28218900  1
  Mg  Mg14  1  0.53620100  0.43363800  0.28218900  1
  Mg  Mg15  1  0.24358400  0.00679200  0.25780400  1
  Mg  Mg16  1  0.08230800  0.83538400  0.34045600  1
  Mg  Mg17  1  0.65373600  0.69252700  0.22140800  1
  Mg  Mg18  1  0.56693800  0.86612400  0.26480700  1
  Mg  Mg19  1  0.28122400  0.43755300  0.24099800  1
  Mg  Mg20  1  0.46748000  0.06504000  0.23120300  1
  Mg  Mg21  1  0.96748000  0.56504000  0.23120300  1
  Mg  Mg22  1  0.46748000  0.56504000  0.23120300  1
  Mg  Mg23  1  0.32462300  0.85075400  0.30263200  1
  Mg  Mg24  1  0.82462300  0.85075400  0.30263200  1
  Mg  Mg25  1  0.32462300  0.35075400  0.30263200  1
  Mg  Mg26  1  0.54109600  0.22376900  0.26162700  1
  Mg  Mg27  1  0.90801600  0.78139600  0.24241800  1
  Mg  Mg28  1  0.52913100  0.65027000  0.28612600  1
  Mg  Mg29  1  0.12011500  0.05123800  0.31913700  1
  Mg  Mg30  1  0.02694400  0.34868400  0.21998800  1
  Mg  Mg31  1  0.41411100  0.47773900  0.34363700  1
  Mg  Mg32  1  0.82059900  0.65027000  0.28612600  1
  Mg  Mg33  1  0.10815000  0.47773900  0.34363700  1
  Mg  Mg34  1  0.31058800  0.78139600  0.24241800  1
  Mg  Mg35  1  0.62437200  0.34868400  0.21998800  1
  Mg  Mg36  1  0.23513500  0.22376900  0.26162700  1
  Mg  Mg37  1  0.82864700  0.05123800  0.31913700  1
  Mg  Mg38  1  0.40566200  0.69471600  0.34745900  1
  Mg  Mg39  1  0.61908500  0.26787100  0.32307400  1
  Mg  Mg40  1  0.76021600  0.47956800  0.25250800  1
  Mg  Mg41  1  0.04420500  0.91159100  0.27516700  1
  Mg  Mg42  1  0.89962200  0.69471600  0.34745900  1
  Mg  Mg43  1  0.74962400  0.00679200  0.25780400  1
  Mg  Mg44  1  0.60504100  0.78991800  0.33009600  1
  Mg  Mg45  1  0.11304500  0.26787100  0.32307400  1
  Mg  Mg46  1  0.60331500  0.79336900  0.49561200  1
  Mg  Mg47  1  0.74444700  0.00506600  0.42504600  1
  Mg  Mg48  1  0.25048700  0.00506600  0.42504600  1
  Mg  Mg49  1  0.95787000  0.57822100  0.40066100  1
  Mg  Mg50  1  0.79659400  0.40681300  0.48331300  1
  Mg  Mg51  1  0.36802200  0.26395600  0.36426500  1
  Mg  Mg52  1  0.28122400  0.43755300  0.40766500  1
  Mg  Mg53  1  0.99550900  0.00898100  0.38385500  1
  Mg  Mg54  1  0.18176600  0.63646800  0.37406000  1
  Mg  Mg55  1  0.68176600  0.13646800  0.37406000  1
  Mg  Mg56  1  0.18176600  0.13646800  0.37406000  1
  Mg  Mg57  1  0.03890900  0.42218300  0.44548900  1
  Mg  Mg58  1  0.53890900  0.42218300  0.44548900  1
  Mg  Mg59  1  0.03890900  0.92218300  0.44548900  1
  Mg  Mg60  1  0.25538100  0.79519800  0.40448400  1
  Mg  Mg61  1  0.62230200  0.35282500  0.38527500  1
  Mg  Mg62  1  0.24341700  0.22169900  0.42898300  1
  Mg  Mg63  1  0.83440000  0.62266700  0.46199400  1
  Mg  Mg64  1  0.74123000  0.92011200  0.36284600  1
  Mg  Mg65  1  0.12839600  0.04916800  0.48649400  1
  Mg  Mg66  1  0.53488500  0.22169900  0.42898300  1
  Mg  Mg67  1  0.82243600  0.04916800  0.48649400  1
  Mg  Mg68  1  0.02487400  0.35282500  0.38527500  1
  Mg  Mg69  1  0.33865800  0.92011200  0.36284600  1
  Mg  Mg70  1  0.94942100  0.79519800  0.40448400  1
  Mg  Mg71  1  0.54293300  0.62266700  0.46199400  1
  Mg  Mg72  1  0.11994800  0.26614500  0.49031600  1
  Mg  Mg73  1  0.33337000  0.83929900  0.46593100  1
  Mg  Mg74  1  0.47450200  0.05099600  0.39536500  1
  Mg  Mg75  1  0.75849000  0.48301900  0.41802500  1
  Mg  Mg76  1  0.61390700  0.26614500  0.49031600  1
  Mg  Mg77  1  0.46391000  0.57822100  0.40066100  1
  Mg  Mg78  1  0.31932700  0.36134600  0.47295300  1
  Mg  Mg79  1  0.82733000  0.83929900  0.46593100  1
  Mg  Mg80  1  0.31760100  0.36479800  0.63846900  1
  Mg  Mg81  1  0.45873300  0.57649500  0.56790300  1
  Mg  Mg82  1  0.96477300  0.57649500  0.56790300  1
  Mg  Mg83  1  0.67215500  0.14964900  0.54351900  1
  Mg  Mg84  1  0.51087900  0.97824100  0.62617000  1
  Mg  Mg85  1  0.08230800  0.83538400  0.50712200  1
  Mg  Mg86  1  0.99550900  0.00898100  0.55052200  1
  Mg  Mg87  1  0.70979500  0.58041000  0.52671200  1
  Mg  Mg88  1  0.89605100  0.20789700  0.51691700  1
  Mg  Mg89  1  0.39605100  0.70789700  0.51691700  1
  Mg  Mg90  1  0.89605100  0.70789700  0.51691700  1
  Mg  Mg91  1  0.75319400  0.99361100  0.58834600  1
  Mg  Mg92  1  0.25319400  0.99361100  0.58834600  1
  Mg  Mg93  1  0.75319400  0.49361100  0.58834600  1
  Mg  Mg94  1  0.96966700  0.36662600  0.54734100  1
  Mg  Mg95  1  0.33658800  0.92425300  0.52813200  1
  Mg  Mg96  1  0.95770200  0.79312700  0.57184100  1
  Mg  Mg97  1  0.54868600  0.19409500  0.60485100  1
  Mg  Mg98  1  0.45551500  0.49154100  0.50570300  1
  Mg  Mg99  1  0.84268200  0.62059700  0.62935100  1
  Mg  Mg100  1  0.24917000  0.79312700  0.57184100  1
  Mg  Mg101  1  0.53672200  0.62059700  0.62935100  1
  Mg  Mg102  1  0.73915900  0.92425300  0.52813200  1
  Mg  Mg103  1  0.05294400  0.49154100  0.50570300  1
  Mg  Mg104  1  0.66370700  0.36662600  0.54734100  1
  Mg  Mg105  1  0.25721800  0.19409500  0.60485100  1
  Mg  Mg106  1  0.83423300  0.83757400  0.63317300  1
  Mg  Mg107  1  0.04765600  0.41072800  0.60878800  1
  Mg  Mg108  1  0.18878800  0.62242500  0.53822300  1
  Mg  Mg109  1  0.47277600  0.05444800  0.56088200  1
  Mg  Mg110  1  0.32819300  0.83757400  0.63317300  1
  Mg  Mg111  1  0.17819500  0.14964900  0.54351900  1
  Mg  Mg112  1  0.03361300  0.93277500  0.61581000  1
  Mg  Mg113  1  0.54161600  0.41072800  0.60878800  1
  Mg  Mg114  1  0.79659400  0.40681300  0.64998000  1
  Mg  Mg115  1  0.42408100  0.15183900  0.66956900  1
  Mg  Mg116  1  0.61033700  0.77932600  0.65977400  1
  Mg  Mg117  1  0.11033700  0.27932600  0.65977400  1
  Mg  Mg118  1  0.61033700  0.27932600  0.65977400  1
  Mg  Mg119  1  0.05087300  0.49568200  0.67098900  1
  Mg  Mg120  1  0.16980100  0.06297000  0.64856000  1
  Mg  Mg121  1  0.45344500  0.49568200  0.67098900  1
  Mg  Mg122  1  0.76722900  0.06297000  0.64856000  1
