# generated using pymatgen
data_MgCd2
_symmetry_space_group_name_H-M   'P 1'
_cell_length_a   5.22123900
_cell_length_b   8.35399632
_cell_length_c   42.70485800
_cell_angle_alpha   90.37435949
_cell_angle_beta   90.00000000
_cell_angle_gamma   90.00000000
_symmetry_Int_Tables_number   1
_chemical_formula_structural   MgCd2
_chemical_formula_sum   'Mg18 Cd36'
_cell_volume   1862.66976329
_cell_formula_units_Z   18
loop_
 _symmetry_equiv_pos_site_id
 _symmetry_equiv_pos_as_xyz
  1  'x, y, z'
loop_
 _atom_site_type_symbol
 _atom_site_label
 _atom_site_symmetry_multiplicity
 _atom_site_fract_x
 _atom_site_fract_y
 _atom_site_fract_z
 _atom_site_occupancy
  Mg  Mg0  1  0.25000000  0.99703100  0.77788800  1
  Mg  Mg1  1  0.75000000  0.57439800  0.79354100  1
  Mg  Mg2  1  0.25000000  0.92560200  0.70645900  1
  Mg  Mg3  1  0.75000000  0.50296900  0.72211200  1
  Mg  Mg4  1  0.25000000  0.85417300  0.63503100  1
  Mg  Mg5  1  0.75000000  0.43154100  0.65068400  1
  Mg  Mg6  1  0.25000000  0.78274500  0.56360200  1
  Mg  Mg7  1  0.75000000  0.36011200  0.57925500  1
  Mg  Mg8  1  0.25000000  0.71131600  0.49217300  1
  Mg  Mg9  1  0.75000000  0.28868400  0.50782700  1
  Mg  Mg10  1  0.25000000  0.63988800  0.42074500  1
  Mg  Mg11  1  0.75000000  0.21725500  0.43639800  1
  Mg  Mg12  1  0.25000000  0.56845900  0.34931600  1
  Mg  Mg13  1  0.75000000  0.14582700  0.36496900  1
  Mg  Mg14  1  0.25000000  0.49703100  0.27788800  1
  Mg  Mg15  1  0.75000000  0.07439800  0.29354100  1
  Mg  Mg16  1  0.25000000  0.42560200  0.20645900  1
  Mg  Mg17  1  0.75000000  0.00296900  0.22211200  1
  Cd  Cd18  1  0.25000000  0.64098500  0.75403800  1
  Cd  Cd19  1  0.25000000  0.35427600  0.80169300  1
  Cd  Cd20  1  0.75000000  0.21715300  0.76973500  1
  Cd  Cd21  1  0.75000000  0.93044400  0.81739100  1
  Cd  Cd22  1  0.25000000  0.56955600  0.68260900  1
  Cd  Cd23  1  0.25000000  0.28284700  0.73026500  1
  Cd  Cd24  1  0.75000000  0.14572400  0.69830700  1
  Cd  Cd25  1  0.75000000  0.85901500  0.74596200  1
  Cd  Cd26  1  0.25000000  0.49812700  0.61118000  1
  Cd  Cd27  1  0.25000000  0.21141800  0.65883600  1
  Cd  Cd28  1  0.75000000  0.07429600  0.62687800  1
  Cd  Cd29  1  0.75000000  0.78758700  0.67453400  1
  Cd  Cd30  1  0.25000000  0.42669900  0.53975200  1
  Cd  Cd31  1  0.25000000  0.13999000  0.58740800  1
  Cd  Cd32  1  0.75000000  0.00286700  0.55544900  1
  Cd  Cd33  1  0.75000000  0.71615800  0.60310500  1
  Cd  Cd34  1  0.25000000  0.35527000  0.46832300  1
  Cd  Cd35  1  0.25000000  0.06856100  0.51597900  1
  Cd  Cd36  1  0.75000000  0.93143900  0.48402100  1
  Cd  Cd37  1  0.75000000  0.64473000  0.53167700  1
  Cd  Cd38  1  0.25000000  0.28384200  0.39689500  1
  Cd  Cd39  1  0.25000000  0.99713300  0.44455100  1
  Cd  Cd40  1  0.75000000  0.86001000  0.41259200  1
  Cd  Cd41  1  0.75000000  0.57330100  0.46024800  1
  Cd  Cd42  1  0.25000000  0.21241300  0.32546600  1
  Cd  Cd43  1  0.25000000  0.92570400  0.37312200  1
  Cd  Cd44  1  0.75000000  0.78858200  0.34116400  1
  Cd  Cd45  1  0.75000000  0.50187300  0.38882000  1
  Cd  Cd46  1  0.25000000  0.14098500  0.25403800  1
  Cd  Cd47  1  0.25000000  0.85427600  0.30169300  1
  Cd  Cd48  1  0.75000000  0.71715300  0.26973500  1
  Cd  Cd49  1  0.75000000  0.43044400  0.31739100  1
  Cd  Cd50  1  0.25000000  0.06955600  0.18260900  1
  Cd  Cd51  1  0.25000000  0.78284700  0.23026500  1
  Cd  Cd52  1  0.75000000  0.64572400  0.19830700  1
  Cd  Cd53  1  0.75000000  0.35901500  0.24596200  1
