# generated using pymatgen
data_Mg17Cd8
_symmetry_space_group_name_H-M   'P 1'
_cell_length_a   5.19055600
_cell_length_b   8.21260619
_cell_length_c   43.56977800
_cell_angle_alpha   89.52418583
_cell_angle_beta   90.00000000
_cell_angle_gamma   90.00000000
_symmetry_Int_Tables_number   1
_chemical_formula_structural   Mg17Cd8
_chemical_formula_sum   'Mg34 Cd16'
_cell_volume   1857.22811882
_cell_formula_units_Z   2
loop_
 _symmetry_equiv_pos_site_id
 _symmetry_equiv_pos_as_xyz
  1  'x, y, z'
loop_
 _atom_site_type_symbol
 _atom_site_label
 _atom_site_symmetry_multiplicity
 _atom_site_fract_x
 _atom_site_fract_y
 _atom_site_fract_z
 _atom_site_occupancy
  Mg  Mg0  1  0.25000000  0.05923700  0.81351000  1
  Mg  Mg1  1  0.25000000  0.69697200  0.78989000  1
  Mg  Mg2  1  0.75000000  0.56531200  0.75772900  1
  Mg  Mg3  1  0.75000000  0.27447600  0.80553800  1
  Mg  Mg4  1  0.25000000  0.98780800  0.74208100  1
  Mg  Mg5  1  0.25000000  0.62554400  0.71846100  1
  Mg  Mg6  1  0.75000000  0.49388300  0.68630100  1
  Mg  Mg7  1  0.75000000  0.20304700  0.73410900  1
  Mg  Mg8  1  0.25000000  0.91638000  0.67065300  1
  Mg  Mg9  1  0.25000000  0.55411500  0.64703300  1
  Mg  Mg10  1  0.75000000  0.42245500  0.61487200  1
  Mg  Mg11  1  0.75000000  0.13161900  0.66268100  1
  Mg  Mg12  1  0.25000000  0.84495100  0.59922400  1
  Mg  Mg13  1  0.25000000  0.48268600  0.57560400  1
  Mg  Mg14  1  0.75000000  0.35102600  0.54344300  1
  Mg  Mg15  1  0.75000000  0.06019000  0.59125200  1
  Mg  Mg16  1  0.25000000  0.77352300  0.52779500  1
  Mg  Mg17  1  0.25000000  0.41125800  0.50417600  1
  Mg  Mg18  1  0.75000000  0.27959800  0.47201500  1
  Mg  Mg19  1  0.75000000  0.98876200  0.51982400  1
  Mg  Mg20  1  0.25000000  0.70209400  0.45636700  1
  Mg  Mg21  1  0.25000000  0.33982900  0.43274700  1
  Mg  Mg22  1  0.75000000  0.20816900  0.40058600  1
  Mg  Mg23  1  0.75000000  0.91733300  0.44839500  1
  Mg  Mg24  1  0.25000000  0.63066500  0.38493800  1
  Mg  Mg25  1  0.25000000  0.26840100  0.36131800  1
  Mg  Mg26  1  0.75000000  0.13674100  0.32915800  1
  Mg  Mg27  1  0.75000000  0.84590400  0.37696600  1
  Mg  Mg28  1  0.25000000  0.55923700  0.31351000  1
  Mg  Mg29  1  0.25000000  0.19697200  0.28989000  1
  Mg  Mg30  1  0.75000000  0.06531200  0.25772900  1
  Mg  Mg31  1  0.75000000  0.77447600  0.30553800  1
  Mg  Mg32  1  0.25000000  0.48780800  0.24208100  1
  Mg  Mg33  1  0.75000000  0.70304700  0.23410900  1
  Cd  Cd34  1  0.25000000  0.34676300  0.76582400  1
  Cd  Cd35  1  0.75000000  0.91552100  0.78179500  1
  Cd  Cd36  1  0.25000000  0.27533500  0.69439500  1
  Cd  Cd37  1  0.75000000  0.84409200  0.71036700  1
  Cd  Cd38  1  0.25000000  0.20390600  0.62296600  1
  Cd  Cd39  1  0.75000000  0.77266400  0.63893800  1
  Cd  Cd40  1  0.25000000  0.13247800  0.55153800  1
  Cd  Cd41  1  0.75000000  0.70123500  0.56751000  1
  Cd  Cd42  1  0.25000000  0.06104900  0.48010900  1
  Cd  Cd43  1  0.75000000  0.62980700  0.49608100  1
  Cd  Cd44  1  0.25000000  0.98962000  0.40868100  1
  Cd  Cd45  1  0.75000000  0.55837800  0.42465300  1
  Cd  Cd46  1  0.25000000  0.91819200  0.33725200  1
  Cd  Cd47  1  0.75000000  0.48694900  0.35322400  1
  Cd  Cd48  1  0.25000000  0.84676300  0.26582400  1
  Cd  Cd49  1  0.75000000  0.41552100  0.28179500  1
