# generated using pymatgen
data_MgSc2
_symmetry_space_group_name_H-M   'P 1'
_cell_length_a   5.16406100
_cell_length_b   8.41162256
_cell_length_c   42.73576700
_cell_angle_alpha   89.61839643
_cell_angle_beta   90.00000000
_cell_angle_gamma   90.00000000
_symmetry_Int_Tables_number   1
_chemical_formula_structural   MgSc2
_chemical_formula_sum   'Mg16 Sc32'
_cell_volume   1856.32071650
_cell_formula_units_Z   16
loop_
 _symmetry_equiv_pos_site_id
 _symmetry_equiv_pos_as_xyz
  1  'x, y, z'
loop_
 _atom_site_type_symbol
 _atom_site_label
 _atom_site_symmetry_multiplicity
 _atom_site_fract_x
 _atom_site_fract_y
 _atom_site_fract_z
 _atom_site_occupancy
  Mg  Mg0  1  0.75000000  0.03384300  0.77403100  1
  Mg  Mg1  1  0.25000000  0.27385000  0.76443100  1
  Mg  Mg2  1  0.75000000  0.95691900  0.69710800  1
  Mg  Mg3  1  0.25000000  0.19692700  0.68750800  1
  Mg  Mg4  1  0.75000000  0.87999600  0.62018500  1
  Mg  Mg5  1  0.25000000  0.12000400  0.61058400  1
  Mg  Mg6  1  0.75000000  0.80307300  0.54326200  1
  Mg  Mg7  1  0.25000000  0.04308100  0.53366100  1
  Mg  Mg8  1  0.75000000  0.72615000  0.46633900  1
  Mg  Mg9  1  0.25000000  0.96615700  0.45673800  1
  Mg  Mg10  1  0.75000000  0.64922700  0.38941600  1
  Mg  Mg11  1  0.25000000  0.88923400  0.37981500  1
  Mg  Mg12  1  0.75000000  0.57230400  0.31249200  1
  Mg  Mg13  1  0.25000000  0.81231100  0.30289200  1
  Mg  Mg14  1  0.75000000  0.49538100  0.23556900  1
  Mg  Mg15  1  0.25000000  0.73538800  0.22596900  1
  Sc  Sc16  1  0.75000000  0.38922800  0.79981500  1
  Sc  Sc17  1  0.75000000  0.67927400  0.74821400  1
  Sc  Sc18  1  0.25000000  0.91846400  0.73864600  1
  Sc  Sc19  1  0.25000000  0.62841900  0.79024800  1
  Sc  Sc20  1  0.75000000  0.31230500  0.72289200  1
  Sc  Sc21  1  0.75000000  0.60235100  0.67129100  1
  Sc  Sc22  1  0.25000000  0.84154100  0.66172300  1
  Sc  Sc23  1  0.25000000  0.55149600  0.71332500  1
  Sc  Sc24  1  0.75000000  0.23538200  0.64596900  1
  Sc  Sc25  1  0.75000000  0.52542800  0.59436800  1
  Sc  Sc26  1  0.25000000  0.76461800  0.58480000  1
  Sc  Sc27  1  0.25000000  0.47457200  0.63640200  1
  Sc  Sc28  1  0.75000000  0.15845900  0.56904600  1
  Sc  Sc29  1  0.75000000  0.44850400  0.51744400  1
  Sc  Sc30  1  0.25000000  0.68769500  0.50787700  1
  Sc  Sc31  1  0.25000000  0.39764900  0.55947900  1
  Sc  Sc32  1  0.75000000  0.08153600  0.49212300  1
  Sc  Sc33  1  0.75000000  0.37158100  0.44052100  1
  Sc  Sc34  1  0.25000000  0.61077200  0.43095400  1
  Sc  Sc35  1  0.25000000  0.32072600  0.48255600  1
  Sc  Sc36  1  0.75000000  0.00461300  0.41520000  1
  Sc  Sc37  1  0.75000000  0.29465800  0.36359800  1
  Sc  Sc38  1  0.25000000  0.53384900  0.35403100  1
  Sc  Sc39  1  0.25000000  0.24380300  0.40563200  1
  Sc  Sc40  1  0.75000000  0.92769000  0.33827700  1
  Sc  Sc41  1  0.75000000  0.21773500  0.28667500  1
  Sc  Sc42  1  0.25000000  0.45692600  0.27710800  1
  Sc  Sc43  1  0.25000000  0.16688000  0.32870900  1
  Sc  Sc44  1  0.75000000  0.85076700  0.26135400  1
  Sc  Sc45  1  0.75000000  0.14081200  0.20975200  1
  Sc  Sc46  1  0.25000000  0.38000300  0.20018500  1
  Sc  Sc47  1  0.25000000  0.08995700  0.25178600  1
