# generated using pymatgen
data_Mg16Zn29
_symmetry_space_group_name_H-M   'P 1'
_cell_length_a   5.07402260
_cell_length_b   13.26606241
_cell_length_c   57.00757700
_cell_angle_alpha   92.18610401
_cell_angle_beta   87.66012493
_cell_angle_gamma   100.62858194
_symmetry_Int_Tables_number   1
_chemical_formula_structural   Mg16Zn29
_chemical_formula_sum   'Mg32 Zn58'
_cell_volume   3766.49990850
_cell_formula_units_Z   2
loop_
 _symmetry_equiv_pos_site_id
 _symmetry_equiv_pos_as_xyz
  1  'x, y, z'
loop_
 _atom_site_type_symbol
 _atom_site_label
 _atom_site_symmetry_multiplicity
 _atom_site_fract_x
 _atom_site_fract_y
 _atom_site_fract_z
 _atom_site_occupancy
  Mg  Mg0  1  0.19561300  0.56881800  0.42950100  1
  Mg  Mg1  1  0.40511400  0.93564500  0.38290200  1
  Mg  Mg2  1  0.75703700  0.56646700  0.29262500  1
  Mg  Mg3  1  0.74550700  0.68953600  0.44365000  1
  Mg  Mg4  1  0.87814500  0.86354700  0.35508400  1
  Mg  Mg5  1  0.07102400  0.35950500  0.46155900  1
  Mg  Mg6  1  0.76153300  0.61916600  0.34868200  1
  Mg  Mg7  1  0.84402700  0.89999900  0.46544100  1
  Mg  Mg8  1  0.19822300  0.51908400  0.37359200  1
  Mg  Mg9  1  0.96138900  0.97598700  0.30400700  1
  Mg  Mg10  1  0.08249700  0.27306700  0.36646600  1
  Mg  Mg11  1  0.64131100  0.32045000  0.28549900  1
  Mg  Mg12  1  0.32674500  0.83214800  0.43077300  1
  Mg  Mg13  1  0.32307600  0.66357100  0.26733800  1
  Mg  Mg14  1  0.51645800  0.17596300  0.39175300  1
  Mg  Mg15  1  0.07800100  0.22036800  0.31040900  1
  Mg  Mg16  1  0.39392100  0.02071700  0.47959000  1
  Mg  Mg17  1  0.51851000  0.23002900  0.44753200  1
  Mg  Mg18  1  0.43442100  0.90388900  0.27618900  1
  Mg  Mg19  1  0.26278900  0.75738600  0.47831800  1
  Mg  Mg20  1  0.15511400  0.68564500  0.63290200  1
  Mg  Mg21  1  0.50703700  0.31646700  0.54262500  1
  Mg  Mg22  1  0.62814500  0.61354700  0.60508400  1
  Mg  Mg23  1  0.51153300  0.36916600  0.59868200  1
  Mg  Mg24  1  0.94822300  0.26908400  0.62359200  1
  Mg  Mg25  1  0.71138900  0.72598700  0.55400700  1
  Mg  Mg26  1  0.83249700  0.02306700  0.61646600  1
  Mg  Mg27  1  0.39131100  0.07045000  0.53549900  1
  Mg  Mg28  1  0.07307600  0.41357100  0.51733800  1
  Mg  Mg29  1  0.26645800  0.92596300  0.64175300  1
  Mg  Mg30  1  0.82800100  0.97036800  0.56040900  1
  Mg  Mg31  1  0.18442100  0.65388900  0.52618900  1
  Zn  Zn32  1  0.32539900  0.74590000  0.35261800  1
  Zn  Zn33  1  0.85902900  0.87617800  0.40889200  1
  Zn  Zn34  1  0.63233600  0.39264300  0.37025900  1
  Zn  Zn35  1  0.30566300  0.12742100  0.26662300  1
  Zn  Zn36  1  0.74470100  0.07914100  0.34873600  1
  Zn  Zn37  1  0.03978300  0.71651100  0.39216300  1
  Zn  Zn38  1  0.91976700  0.41976700  0.32954500  1
  Zn  Zn39  1  0.51413500  0.09363400  0.30647300  1
  Zn  Zn40  1  0.01571800  0.20400800  0.42027200  1
  Zn  Zn41  1  0.60108200  0.76004400  0.31032600  1
  Zn  Zn42  1  0.85749300  0.36952100  0.41066500  1
  Zn  Zn43  1  0.63424900  0.46278000  0.44534500  1
  Zn  Zn44  1  0.25922200  0.59110900  0.32114500  1
  Zn  Zn45  1  0.87676200  0.78668000  0.27145100  1
  Zn  Zn46  1  0.98050500  0.96335600  0.25019900  1
  Zn  Zn47  1  0.57381600  0.38552600  0.48881900  1
  Zn  Zn48  1  0.40484800  0.55814900  0.47946000  1
  Zn  Zn49  1  0.23845200  0.07949000  0.34876500  1
  Zn  Zn50  1  0.79975100  0.12302300  0.26692800  1
  Zn  Zn51  1  0.58031200  0.24842500  0.33794600  1
  Zn  Zn52  1  0.18468600  0.03138500  0.42963100  1
  Zn  Zn53  1  0.09483300  0.76039300  0.31035400  1
  Zn  Zn54  1  0.41976700  0.41976700  0.32954500  1
  Zn  Zn55  1  0.70274600  0.54575800  0.40068000  1
  Zn  Zn56  1  0.35254700  0.36788500  0.41079600  1
  Zn  Zn57  1  0.92002300  0.56124500  0.47900500  1
  Zn  Zn58  1  0.13678800  0.29377600  0.25841100  1
  Zn  Zn59  1  0.66951100  0.02828900  0.43008600  1
  Zn  Zn60  1  0.96277200  0.05285400  0.38764000  1
  Zn  Zn61  1  0.23698700  0.22164900  0.49829500  1
  Zn  Zn62  1  0.53387100  0.71211300  0.39246800  1
  Zn  Zn63  1  0.41976700  0.91976700  0.32954500  1
  Zn  Zn64  1  0.73204100  0.22001300  0.49842600  1
  Zn  Zn65  1  0.95528500  0.12675400  0.46374600  1
  Zn  Zn66  1  0.20719800  0.44689100  0.28883200  1
  Zn  Zn67  1  0.07539900  0.49590000  0.60261800  1
  Zn  Zn68  1  0.60902900  0.62617800  0.65889200  1
  Zn  Zn69  1  0.38233600  0.14264300  0.62025900  1
  Zn  Zn70  1  0.05566300  0.87742100  0.51662300  1
  Zn  Zn71  1  0.49470100  0.82914100  0.59873600  1
  Zn  Zn72  1  0.78978300  0.46651100  0.64216300  1
  Zn  Zn73  1  0.66976700  0.16976700  0.57954500  1
  Zn  Zn74  1  0.26413500  0.84363400  0.55647300  1
  Zn  Zn75  1  0.35108200  0.51004400  0.56032600  1
  Zn  Zn76  1  0.00922200  0.34110900  0.57114500  1
  Zn  Zn77  1  0.62676200  0.53668000  0.52145100  1
  Zn  Zn78  1  0.73050500  0.71335600  0.50019900  1
  Zn  Zn79  1  0.98845200  0.82949000  0.59876500  1
  Zn  Zn80  1  0.54975100  0.87302300  0.51692800  1
  Zn  Zn81  1  0.33031200  0.99842500  0.58794600  1
  Zn  Zn82  1  0.84483300  0.51039300  0.56035400  1
  Zn  Zn83  1  0.16976700  0.16976700  0.57954500  1
  Zn  Zn84  1  0.45274600  0.29575800  0.65068000  1
  Zn  Zn85  1  0.88678800  0.04377600  0.50841100  1
  Zn  Zn86  1  0.71277200  0.80285400  0.63764000  1
  Zn  Zn87  1  0.28387100  0.46211300  0.64246800  1
  Zn  Zn88  1  0.16976700  0.66976700  0.57954500  1
  Zn  Zn89  1  0.95719800  0.19689100  0.53883200  1
