# generated using pymatgen
data_Mg2Rh
_symmetry_space_group_name_H-M   'P 1'
_cell_length_a   3.23900900
_cell_length_b   9.85584300
_cell_length_c   42.10712000
_cell_angle_alpha   90.00000000
_cell_angle_beta   90.00000000
_cell_angle_gamma   90.00000000
_symmetry_Int_Tables_number   1
_chemical_formula_structural   Mg2Rh
_chemical_formula_sum   'Mg32 Rh16'
_cell_volume   1344.19250489
_cell_formula_units_Z   16
loop_
 _symmetry_equiv_pos_site_id
 _symmetry_equiv_pos_as_xyz
  1  'x, y, z'
loop_
 _atom_site_type_symbol
 _atom_site_label
 _atom_site_symmetry_multiplicity
 _atom_site_fract_x
 _atom_site_fract_y
 _atom_site_fract_z
 _atom_site_occupancy
  Mg  Mg0  1  0.00000000  0.35455500  0.25000000  1
  Mg  Mg1  1  0.50000000  0.14544500  0.21153800  1
  Mg  Mg2  1  0.50000000  0.85455500  0.21153800  1
  Mg  Mg3  1  0.00000000  0.64544500  0.25000000  1
  Mg  Mg4  1  0.00000000  0.35455500  0.32692300  1
  Mg  Mg5  1  0.50000000  0.14544500  0.28846200  1
  Mg  Mg6  1  0.50000000  0.85455500  0.28846200  1
  Mg  Mg7  1  0.00000000  0.64544500  0.32692300  1
  Mg  Mg8  1  0.00000000  0.35455500  0.40384600  1
  Mg  Mg9  1  0.50000000  0.14544500  0.36538500  1
  Mg  Mg10  1  0.50000000  0.85455500  0.36538500  1
  Mg  Mg11  1  0.00000000  0.64544500  0.40384600  1
  Mg  Mg12  1  0.00000000  0.35455500  0.48076900  1
  Mg  Mg13  1  0.50000000  0.14544500  0.44230800  1
  Mg  Mg14  1  0.50000000  0.85455500  0.44230800  1
  Mg  Mg15  1  0.00000000  0.64544500  0.48076900  1
  Mg  Mg16  1  0.00000000  0.35455500  0.55769200  1
  Mg  Mg17  1  0.50000000  0.14544500  0.51923100  1
  Mg  Mg18  1  0.50000000  0.85455500  0.51923100  1
  Mg  Mg19  1  0.00000000  0.64544500  0.55769200  1
  Mg  Mg20  1  0.00000000  0.35455500  0.63461500  1
  Mg  Mg21  1  0.50000000  0.14544500  0.59615400  1
  Mg  Mg22  1  0.50000000  0.85455500  0.59615400  1
  Mg  Mg23  1  0.00000000  0.64544500  0.63461500  1
  Mg  Mg24  1  0.00000000  0.35455500  0.71153800  1
  Mg  Mg25  1  0.50000000  0.14544500  0.67307700  1
  Mg  Mg26  1  0.50000000  0.85455500  0.67307700  1
  Mg  Mg27  1  0.00000000  0.64544500  0.71153800  1
  Mg  Mg28  1  0.00000000  0.35455500  0.78846200  1
  Mg  Mg29  1  0.50000000  0.14544500  0.75000000  1
  Mg  Mg30  1  0.50000000  0.85455500  0.75000000  1
  Mg  Mg31  1  0.00000000  0.64544500  0.78846200  1
  Rh  Rh32  1  0.00000000  0.00000000  0.25000000  1
  Rh  Rh33  1  0.50000000  0.50000000  0.21153800  1
  Rh  Rh34  1  0.00000000  0.00000000  0.32692300  1
  Rh  Rh35  1  0.50000000  0.50000000  0.28846200  1
  Rh  Rh36  1  0.00000000  0.00000000  0.40384600  1
  Rh  Rh37  1  0.50000000  0.50000000  0.36538500  1
  Rh  Rh38  1  0.00000000  0.00000000  0.48076900  1
  Rh  Rh39  1  0.50000000  0.50000000  0.44230800  1
  Rh  Rh40  1  0.00000000  0.00000000  0.55769200  1
  Rh  Rh41  1  0.50000000  0.50000000  0.51923100  1
  Rh  Rh42  1  0.00000000  0.00000000  0.63461500  1
  Rh  Rh43  1  0.50000000  0.50000000  0.59615400  1
  Rh  Rh44  1  0.00000000  0.00000000  0.71153800  1
  Rh  Rh45  1  0.50000000  0.50000000  0.67307700  1
  Rh  Rh46  1  0.00000000  0.00000000  0.78846200  1
  Rh  Rh47  1  0.50000000  0.50000000  0.75000000  1
