# generated using pymatgen
data_Mg5In18
_symmetry_space_group_name_H-M   'P 1'
_cell_length_a   4.64407100
_cell_length_b   5.76415153
_cell_length_c   41.70588900
_cell_angle_alpha   90.83358952
_cell_angle_beta   90.00000000
_cell_angle_gamma   113.75588667
_symmetry_Int_Tables_number   1
_chemical_formula_structural   Mg5In18
_chemical_formula_sum   'Mg5 In18'
_cell_volume   1021.70619129
_cell_formula_units_Z   1
loop_
 _symmetry_equiv_pos_site_id
 _symmetry_equiv_pos_as_xyz
  1  'x, y, z'
loop_
 _atom_site_type_symbol
 _atom_site_label
 _atom_site_symmetry_multiplicity
 _atom_site_fract_x
 _atom_site_fract_y
 _atom_site_fract_z
 _atom_site_occupancy
  Mg  Mg0  1  0.82500000  0.65000000  0.71250000  1
  Mg  Mg1  1  0.62500000  0.25000000  0.61250000  1
  Mg  Mg2  1  0.42500000  0.85000000  0.51250000  1
  Mg  Mg3  1  0.22500000  0.45000000  0.41250000  1
  Mg  Mg4  1  0.02500000  0.05000000  0.31250000  1
  In  In5  1  0.42500000  0.85000000  0.76250000  1
  In  In6  1  0.72500000  0.45000000  0.78750000  1
  In  In7  1  0.12500000  0.25000000  0.73750000  1
  In  In8  1  0.22500000  0.45000000  0.66250000  1
  In  In9  1  0.52500000  0.05000000  0.68750000  1
  In  In10  1  0.92500000  0.85000000  0.63750000  1
  In  In11  1  0.02500000  0.05000000  0.56250000  1
  In  In12  1  0.32500000  0.65000000  0.58750000  1
  In  In13  1  0.72500000  0.45000000  0.53750000  1
  In  In14  1  0.82500000  0.65000000  0.46250000  1
  In  In15  1  0.12500000  0.25000000  0.48750000  1
  In  In16  1  0.52500000  0.05000000  0.43750000  1
  In  In17  1  0.62500000  0.25000000  0.36250000  1
  In  In18  1  0.92500000  0.85000000  0.38750000  1
  In  In19  1  0.32500000  0.65000000  0.33750000  1
  In  In20  1  0.42500000  0.85000000  0.26250000  1
  In  In21  1  0.72500000  0.45000000  0.28750000  1
  In  In22  1  0.12500000  0.25000000  0.23750000  1
