# generated using pymatgen
data_Mg7Zn12
_symmetry_space_group_name_H-M   'P 1'
_cell_length_a   5.07402229
_cell_length_b   14.70723601
_cell_length_c   50.49845100
_cell_angle_alpha   88.21601723
_cell_angle_beta   89.67566990
_cell_angle_gamma   90.29193359
_symmetry_Int_Tables_number   1
_chemical_formula_structural   Mg7Zn12
_chemical_formula_sum   'Mg28 Zn48'
_cell_volume   3766.49971225
_cell_formula_units_Z   4
loop_
 _symmetry_equiv_pos_site_id
 _symmetry_equiv_pos_as_xyz
  1  'x, y, z'
loop_
 _atom_site_type_symbol
 _atom_site_label
 _atom_site_symmetry_multiplicity
 _atom_site_fract_x
 _atom_site_fract_y
 _atom_site_fract_z
 _atom_site_occupancy
  Mg  Mg0  1  0.08835100  0.10010200  0.43496400  1
  Mg  Mg1  1  0.59452900  0.81076800  0.48130400  1
  Mg  Mg2  1  0.59318000  0.18639300  0.45994300  1
  Mg  Mg3  1  0.59034400  0.78166800  0.42324100  1
  Mg  Mg4  1  0.59169300  0.40604300  0.44460200  1
  Mg  Mg5  1  0.09103600  0.89470900  0.44887000  1
  Mg  Mg6  1  0.09652200  0.49233500  0.46958100  1
  Mg  Mg7  1  0.09383800  0.69772800  0.45567500  1
  Mg  Mg8  1  0.09113800  0.83364900  0.51502100  1
  Mg  Mg9  1  0.58835100  0.85010200  0.68496400  1
  Mg  Mg10  1  0.59697700  0.34634600  0.54982800  1
  Mg  Mg11  1  0.09452900  0.56076800  0.73130400  1
  Mg  Mg12  1  0.09318000  0.93639300  0.70994300  1
  Mg  Mg13  1  0.09504200  0.66110300  0.55933500  1
  Mg  Mg14  1  0.59080200  0.14930800  0.52263900  1
  Mg  Mg15  1  0.09034400  0.53166800  0.67324100  1
  Mg  Mg16  1  0.09161600  0.03087500  0.54143200  1
  Mg  Mg17  1  0.09169300  0.15604300  0.69460200  1
  Mg  Mg18  1  0.08789700  0.99609100  0.60471800  1
  Mg  Mg19  1  0.59325700  0.31156200  0.61311400  1
  Mg  Mg20  1  0.59103600  0.64470900  0.69887000  1
  Mg  Mg21  1  0.09213400  0.46544700  0.53187400  1
  Mg  Mg22  1  0.59274000  0.87699000  0.62267200  1
  Mg  Mg23  1  0.09407100  0.19312900  0.63190700  1
  Mg  Mg24  1  0.59373500  0.50878700  0.63952400  1
  Mg  Mg25  1  0.58983100  0.68133400  0.59521100  1
  Mg  Mg26  1  0.59652200  0.24233500  0.71958100  1
  Mg  Mg27  1  0.59383800  0.44772800  0.70567500  1
  Zn  Zn28  1  0.08833500  0.16623000  0.48997100  1
  Zn  Zn29  1  0.59170700  0.98777000  0.44333300  1
  Zn  Zn30  1  0.34182900  0.58409100  0.41609000  1
  Zn  Zn31  1  0.83759400  0.26409600  0.40763100  1
  Zn  Zn32  1  0.33948400  0.01059000  0.48743300  1
  Zn  Zn33  1  0.09653800  0.42620700  0.41457400  1
  Zn  Zn34  1  0.84086900  0.32836000  0.49700800  1
  Zn  Zn35  1  0.59316600  0.60466600  0.46121200  1
  Zn  Zn36  1  0.34400400  0.26407700  0.40753700  1
  Zn  Zn37  1  0.84538900  0.58184700  0.41711300  1
  Zn  Zn38  1  0.34727900  0.32834100  0.49691400  1
  Zn  Zn39  1  0.84304400  0.00834600  0.48845600  1
  Zn  Zn40  1  0.09243700  0.29621800  0.45227300  1
  Zn  Zn41  1  0.58833500  0.91623000  0.73997100  1
  Zn  Zn42  1  0.09170700  0.73777000  0.69333300  1
  Zn  Zn43  1  0.59594900  0.01176300  0.57387600  1
  Zn  Zn44  1  0.84182900  0.33409100  0.66609000  1
  Zn  Zn45  1  0.33759400  0.01409600  0.65763100  1
  Zn  Zn46  1  0.83948400  0.76059000  0.73743300  1
  Zn  Zn47  1  0.34243700  0.17121800  0.57727300  1
  Zn  Zn48  1  0.59653800  0.17620700  0.66457400  1
  Zn  Zn49  1  0.09324300  0.77705400  0.60853100  1
  Zn  Zn50  1  0.34086900  0.07836000  0.74700800  1
  Zn  Zn51  1  0.33902800  0.85446000  0.56955400  1
  Zn  Zn52  1  0.59156100  0.74772500  0.53757000  1
  Zn  Zn53  1  0.09285200  0.24555500  0.53653700  1
  Zn  Zn54  1  0.59794500  0.48080000  0.50006800  1
  Zn  Zn55  1  0.09316600  0.35466600  0.71121200  1
  Zn  Zn56  1  0.59163000  0.56538300  0.54601500  1
  Zn  Zn57  1  0.85158900  0.64363600  0.50519900  1
  Zn  Zn58  1  0.84400400  0.01407700  0.65753700  1
  Zn  Zn59  1  0.34538900  0.33184700  0.66711300  1
  Zn  Zn60  1  0.59202100  0.09688200  0.61800800  1
  Zn  Zn61  1  0.83328400  0.69880100  0.64934700  1
  Zn  Zn62  1  0.84727900  0.07834100  0.74691400  1
  Zn  Zn63  1  0.84243700  0.17121800  0.57727300  1
  Zn  Zn64  1  0.58688600  0.93596200  0.52799100  1
  Zn  Zn65  1  0.84309000  0.85355800  0.56993100  1
  Zn  Zn66  1  0.33819000  0.64611400  0.50453800  1
  Zn  Zn67  1  0.09798700  0.40647500  0.62655400  1
  Zn  Zn68  1  0.34668300  0.69632200  0.65000700  1
  Zn  Zn69  1  0.08692800  0.86163600  0.65447700  1
  Zn  Zn70  1  0.84178300  0.48887800  0.58461500  1
  Zn  Zn71  1  0.34304400  0.75834600  0.73845600  1
  Zn  Zn72  1  0.59243700  0.04621800  0.70227300  1
  Zn  Zn73  1  0.34584500  0.48797600  0.58499100  1
  Zn  Zn74  1  0.09331200  0.59471100  0.61697600  1
  Zn  Zn75  1  0.08892400  0.33067300  0.58067000  1
