# generated using pymatgen
data_Mg52Ir79
_symmetry_space_group_name_H-M   'P 1'
_cell_length_a   9.72091470
_cell_length_b   10.02721169
_cell_length_c   42.99921300
_cell_angle_alpha   94.02267208
_cell_angle_beta   94.30460560
_cell_angle_gamma   92.31047724
_symmetry_Int_Tables_number   1
_chemical_formula_structural   Mg52Ir79
_chemical_formula_sum   'Mg52 Ir79'
_cell_volume   4164.79203527
_cell_formula_units_Z   1
loop_
 _symmetry_equiv_pos_site_id
 _symmetry_equiv_pos_as_xyz
  1  'x, y, z'
loop_
 _atom_site_type_symbol
 _atom_site_label
 _atom_site_symmetry_multiplicity
 _atom_site_fract_x
 _atom_site_fract_y
 _atom_site_fract_z
 _atom_site_occupancy
  Mg  Mg0  1  0.98902500  0.67738400  0.29421300  1
  Mg  Mg1  1  0.21972000  0.87349900  0.28178700  1
  Mg  Mg2  1  0.48058100  0.55066400  0.35152000  1
  Mg  Mg3  1  0.62816400  0.30021900  0.32448000  1
  Mg  Mg4  1  0.88902500  0.97738400  0.39421300  1
  Mg  Mg5  1  0.11972000  0.17349900  0.38178700  1
  Mg  Mg6  1  0.49637900  0.79936900  0.31447300  1
  Mg  Mg7  1  0.61236600  0.05151400  0.36152700  1
  Mg  Mg8  1  0.20221400  0.45023100  0.34555900  1
  Mg  Mg9  1  0.90653000  0.40065200  0.33044100  1
  Mg  Mg10  1  0.98255600  0.69614200  0.36775300  1
  Mg  Mg11  1  0.12618900  0.15474200  0.30824700  1
  Mg  Mg12  1  0.38058100  0.85066400  0.45152000  1
  Mg  Mg13  1  0.52816400  0.60021900  0.42448000  1
  Mg  Mg14  1  0.78902500  0.27738400  0.49421300  1
  Mg  Mg15  1  0.01972000  0.47349900  0.48178700  1
  Mg  Mg16  1  0.39637900  0.09936900  0.41447300  1
  Mg  Mg17  1  0.51236600  0.35151400  0.46152700  1
  Mg  Mg18  1  0.10221400  0.75023100  0.44555900  1
  Mg  Mg19  1  0.80653000  0.70065200  0.43044100  1
  Mg  Mg20  1  0.88255600  0.99614200  0.46775300  1
  Mg  Mg21  1  0.02618900  0.45474200  0.40824700  1
  Mg  Mg22  1  0.28058100  0.15066400  0.55152000  1
  Mg  Mg23  1  0.42816400  0.90021900  0.52448000  1
  Mg  Mg24  1  0.68902500  0.57738400  0.59421300  1
  Mg  Mg25  1  0.91972000  0.77349900  0.58178700  1
  Mg  Mg26  1  0.29637900  0.39936900  0.51447300  1
  Mg  Mg27  1  0.41236600  0.65151400  0.56152700  1
  Mg  Mg28  1  0.00221400  0.05023100  0.54555900  1
  Mg  Mg29  1  0.70653000  0.00065200  0.53044100  1
  Mg  Mg30  1  0.78255600  0.29614200  0.56775300  1
  Mg  Mg31  1  0.92618900  0.75474200  0.50824700  1
  Mg  Mg32  1  0.18058100  0.45066400  0.65152000  1
  Mg  Mg33  1  0.32816400  0.20021900  0.62448000  1
  Mg  Mg34  1  0.58902500  0.87738400  0.69421300  1
  Mg  Mg35  1  0.81972000  0.07349900  0.68178700  1
  Mg  Mg36  1  0.19637900  0.69936900  0.61447300  1
  Mg  Mg37  1  0.31236600  0.95151400  0.66152700  1
  Mg  Mg38  1  0.90221400  0.35023100  0.64555900  1
  Mg  Mg39  1  0.60653000  0.30065200  0.63044100  1
  Mg  Mg40  1  0.68255600  0.59614200  0.66775300  1
  Mg  Mg41  1  0.82618900  0.05474200  0.60824700  1
  Mg  Mg42  1  0.08058100  0.75066400  0.75152000  1
  Mg  Mg43  1  0.22816400  0.50021900  0.72448000  1
  Mg  Mg44  1  0.48902500  0.17738400  0.79421300  1
  Mg  Mg45  1  0.71972000  0.37349900  0.78178700  1
  Mg  Mg46  1  0.09637900  0.99936900  0.71447300  1
  Mg  Mg47  1  0.21236600  0.25151400  0.76152700  1
  Mg  Mg48  1  0.80221400  0.65023100  0.74555900  1
  Mg  Mg49  1  0.50653000  0.60065200  0.73044100  1
  Mg  Mg50  1  0.58255600  0.89614200  0.76775300  1
  Mg  Mg51  1  0.72618900  0.35474200  0.70824700  1
  Ir  Ir52  1  0.66834400  0.03076900  0.29210100  1
  Ir  Ir53  1  0.54040100  0.52011500  0.28389900  1
  Ir  Ir54  1  0.27981500  0.58962500  0.29409200  1
  Ir  Ir55  1  0.92892900  0.96125800  0.28190800  1
  Ir  Ir56  1  0.35633500  0.33460300  0.29828000  1
  Ir  Ir57  1  0.75240900  0.51628100  0.37772000  1
  Ir  Ir58  1  0.73328100  0.61058200  0.32320400  1
  Ir  Ir59  1  0.37546400  0.24030100  0.35279600  1
  Ir  Ir60  1  0.42556100  0.09000900  0.30269800  1
  Ir  Ir61  1  0.68318300  0.76087400  0.37330200  1
  Ir  Ir62  1  0.05437200  0.92544200  0.33800000  1
  Ir  Ir63  1  0.56834400  0.33076900  0.39210100  1
  Ir  Ir64  1  0.44040100  0.82011500  0.38389900  1
  Ir  Ir65  1  0.79298700  0.86151300  0.32772900  1
  Ir  Ir66  1  0.31575800  0.98937100  0.34827100  1
  Ir  Ir67  1  0.17981500  0.88962500  0.39409200  1
  Ir  Ir68  1  0.82892900  0.26125800  0.38190800  1
  Ir  Ir69  1  0.87571700  0.12089500  0.33512000  1
  Ir  Ir70  1  0.23302800  0.72998800  0.34088000  1
  Ir  Ir71  1  0.25633500  0.63460300  0.39828000  1
  Ir  Ir72  1  0.65240900  0.81628100  0.47772000  1
  Ir  Ir73  1  0.63328100  0.91058200  0.42320400  1
  Ir  Ir74  1  0.27546400  0.54030100  0.45279600  1
  Ir  Ir75  1  0.32556100  0.39000900  0.40269800  1
  Ir  Ir76  1  0.58318300  0.06087400  0.47330200  1
  Ir  Ir77  1  0.95437200  0.22544200  0.43800000  1
  Ir  Ir78  1  0.46834400  0.63076900  0.49210100  1
  Ir  Ir79  1  0.34040100  0.12011500  0.48389900  1
  Ir  Ir80  1  0.69298700  0.16151300  0.42772900  1
  Ir  Ir81  1  0.21575800  0.28937100  0.44827100  1
  Ir  Ir82  1  0.07981500  0.18962500  0.49409200  1
  Ir  Ir83  1  0.72892900  0.56125800  0.48190800  1
  Ir  Ir84  1  0.77571700  0.42089500  0.43512000  1
  Ir  Ir85  1  0.13302800  0.02998800  0.44088000  1
  Ir  Ir86  1  0.15633500  0.93460300  0.49828000  1
  Ir  Ir87  1  0.55240900  0.11628100  0.57772000  1
  Ir  Ir88  1  0.53328100  0.21058200  0.52320400  1
  Ir  Ir89  1  0.17546400  0.84030100  0.55279600  1
  Ir  Ir90  1  0.22556100  0.69000900  0.50269800  1
  Ir  Ir91  1  0.48318300  0.36087400  0.57330200  1
  Ir  Ir92  1  0.85437200  0.52544200  0.53800000  1
  Ir  Ir93  1  0.36834400  0.93076900  0.59210100  1
  Ir  Ir94  1  0.24040100  0.42011500  0.58389900  1
  Ir  Ir95  1  0.59298700  0.46151300  0.52772900  1
  Ir  Ir96  1  0.11575800  0.58937100  0.54827100  1
  Ir  Ir97  1  0.97981500  0.48962500  0.59409200  1
  Ir  Ir98  1  0.62892900  0.86125800  0.58190800  1
  Ir  Ir99  1  0.67571700  0.72089500  0.53512000  1
  Ir  Ir100  1  0.03302800  0.32998800  0.54088000  1
  Ir  Ir101  1  0.05633500  0.23460300  0.59828000  1
  Ir  Ir102  1  0.45240900  0.41628100  0.67772000  1
  Ir  Ir103  1  0.43328100  0.51058200  0.62320400  1
  Ir  Ir104  1  0.07546400  0.14030100  0.65279600  1
  Ir  Ir105  1  0.12556100  0.99000900  0.60269800  1
  Ir  Ir106  1  0.38318300  0.66087400  0.67330200  1
  Ir  Ir107  1  0.75437200  0.82544200  0.63800000  1
  Ir  Ir108  1  0.26834400  0.23076900  0.69210100  1
  Ir  Ir109  1  0.14040100  0.72011500  0.68389900  1
  Ir  Ir110  1  0.49298700  0.76151300  0.62772900  1
  Ir  Ir111  1  0.01575800  0.88937100  0.64827100  1
  Ir  Ir112  1  0.87981500  0.78962500  0.69409200  1
  Ir  Ir113  1  0.52892900  0.16125800  0.68190800  1
  Ir  Ir114  1  0.57571700  0.02089500  0.63512000  1
  Ir  Ir115  1  0.93302800  0.62998800  0.64088000  1
  Ir  Ir116  1  0.95633500  0.53460300  0.69828000  1
  Ir  Ir117  1  0.35240900  0.71628100  0.77772000  1
  Ir  Ir118  1  0.33328100  0.81058200  0.72320400  1
  Ir  Ir119  1  0.97546400  0.44030100  0.75279600  1
  Ir  Ir120  1  0.02556100  0.29000900  0.70269800  1
  Ir  Ir121  1  0.28318300  0.96087400  0.77330200  1
  Ir  Ir122  1  0.65437200  0.12544200  0.73800000  1
  Ir  Ir123  1  0.16834400  0.53076900  0.79210100  1
  Ir  Ir124  1  0.04040100  0.02011500  0.78389900  1
  Ir  Ir125  1  0.39298700  0.06151300  0.72772900  1
  Ir  Ir126  1  0.91575800  0.18937100  0.74827100  1
  Ir  Ir127  1  0.77981500  0.08962500  0.79409200  1
  Ir  Ir128  1  0.42892900  0.46125800  0.78190800  1
  Ir  Ir129  1  0.47571700  0.32089500  0.73512000  1
  Ir  Ir130  1  0.83302800  0.92998800  0.74088000  1
