# generated using pymatgen
data_Mg11Zn57
_symmetry_space_group_name_H-M   'P 1'
_cell_length_a   9.38239100
_cell_length_b   16.81026703
_cell_length_c   49.81835500
_cell_angle_alpha   90.00000000
_cell_angle_beta   90.00000000
_cell_angle_gamma   88.98550742
_symmetry_Int_Tables_number   1
_chemical_formula_structural   Mg11Zn57
_chemical_formula_sum   'Mg44 Zn228'
_cell_volume   7856.14411132
_cell_formula_units_Z   4
loop_
 _symmetry_equiv_pos_site_id
 _symmetry_equiv_pos_as_xyz
  1  'x, y, z'
loop_
 _atom_site_type_symbol
 _atom_site_label
 _atom_site_symmetry_multiplicity
 _atom_site_fract_x
 _atom_site_fract_y
 _atom_site_fract_z
 _atom_site_occupancy
  Mg  Mg0  1  0.84596200  0.78023700  0.23333300  1
  Mg  Mg1  1  0.65403800  0.71976300  0.28333300  1
  Mg  Mg2  1  0.83286000  0.97132800  0.23333300  1
  Mg  Mg3  1  0.66714000  0.52867200  0.28333300  1
  Mg  Mg4  1  0.34596200  0.28023700  0.28333300  1
  Mg  Mg5  1  0.15403800  0.21976300  0.23333300  1
  Mg  Mg6  1  0.33286000  0.47132800  0.28333300  1
  Mg  Mg7  1  0.16714000  0.02867200  0.23333300  1
  Mg  Mg8  1  0.84596200  0.78023700  0.33333300  1
  Mg  Mg9  1  0.65403800  0.71976300  0.38333300  1
  Mg  Mg10  1  0.83286000  0.97132800  0.33333300  1
  Mg  Mg11  1  0.66714000  0.52867200  0.38333300  1
  Mg  Mg12  1  0.34596200  0.28023700  0.38333300  1
  Mg  Mg13  1  0.15403800  0.21976300  0.33333300  1
  Mg  Mg14  1  0.33286000  0.47132800  0.38333300  1
  Mg  Mg15  1  0.16714000  0.02867200  0.33333300  1
  Mg  Mg16  1  0.84596200  0.78023700  0.43333300  1
  Mg  Mg17  1  0.65403800  0.71976300  0.48333300  1
  Mg  Mg18  1  0.83286000  0.97132800  0.43333300  1
  Mg  Mg19  1  0.66714000  0.52867200  0.48333300  1
  Mg  Mg20  1  0.34596200  0.28023700  0.48333300  1
  Mg  Mg21  1  0.15403800  0.21976300  0.43333300  1
  Mg  Mg22  1  0.33286000  0.47132800  0.48333300  1
  Mg  Mg23  1  0.16714000  0.02867200  0.43333300  1
  Mg  Mg24  1  0.84596200  0.78023700  0.53333300  1
  Mg  Mg25  1  0.65403800  0.71976300  0.58333300  1
  Mg  Mg26  1  0.83286000  0.97132800  0.53333300  1
  Mg  Mg27  1  0.66714000  0.52867200  0.58333300  1
  Mg  Mg28  1  0.34596200  0.28023700  0.58333300  1
  Mg  Mg29  1  0.15403800  0.21976300  0.53333300  1
  Mg  Mg30  1  0.33286000  0.47132800  0.58333300  1
  Mg  Mg31  1  0.16714000  0.02867200  0.53333300  1
  Mg  Mg32  1  0.84596200  0.78023700  0.63333300  1
  Mg  Mg33  1  0.65403800  0.71976300  0.68333300  1
  Mg  Mg34  1  0.83286000  0.97132800  0.63333300  1
  Mg  Mg35  1  0.66714000  0.52867200  0.68333300  1
  Mg  Mg36  1  0.34596200  0.28023700  0.68333300  1
  Mg  Mg37  1  0.15403800  0.21976300  0.63333300  1
  Mg  Mg38  1  0.33286000  0.47132800  0.68333300  1
  Mg  Mg39  1  0.16714000  0.02867200  0.63333300  1
  Mg  Mg40  1  0.84596200  0.78023700  0.73333300  1
  Mg  Mg41  1  0.83286000  0.97132800  0.73333300  1
  Mg  Mg42  1  0.15403800  0.21976300  0.73333300  1
  Mg  Mg43  1  0.16714000  0.02867200  0.73333300  1
  Zn  Zn44  1  0.50000000  0.00000000  0.23333300  1
  Zn  Zn45  1  0.15363400  0.53325400  0.23333300  1
  Zn  Zn46  1  0.15669300  0.70987800  0.23333300  1
  Zn  Zn47  1  0.65685600  0.62722100  0.23333300  1
  Zn  Zn48  1  0.84314400  0.87277900  0.28333300  1
  Zn  Zn49  1  0.10351700  0.87180400  0.25806800  1
  Zn  Zn50  1  0.60114900  0.87615900  0.25861900  1
  Zn  Zn51  1  0.34636600  0.96674600  0.28333300  1
  Zn  Zn52  1  0.01078000  0.74769600  0.28333300  1
  Zn  Zn53  1  0.89885100  0.62384100  0.20861900  1
  Zn  Zn54  1  0.60114900  0.87615900  0.20804800  1
  Zn  Zn55  1  0.89885100  0.62384100  0.25804800  1
  Zn  Zn56  1  0.39648300  0.62819600  0.20806800  1
  Zn  Zn57  1  0.34330700  0.79012200  0.28333300  1
  Zn  Zn58  1  0.10351700  0.87180400  0.20859800  1
  Zn  Zn59  1  0.39648300  0.62819600  0.25859800  1
  Zn  Zn60  1  0.00000000  0.00000000  0.28333300  1
  Zn  Zn61  1  0.34032400  0.88039100  0.23333300  1
  Zn  Zn62  1  0.15967600  0.61960900  0.28333300  1
  Zn  Zn63  1  0.48922000  0.75230400  0.23333300  1
  Zn  Zn64  1  0.00000000  0.50000000  0.28333300  1
  Zn  Zn65  1  0.65363400  0.03325400  0.28333300  1
  Zn  Zn66  1  0.65669300  0.20987800  0.28333300  1
  Zn  Zn67  1  0.15685600  0.12722100  0.28333300  1
  Zn  Zn68  1  0.34314400  0.37277900  0.23333300  1
  Zn  Zn69  1  0.60351700  0.37180400  0.20806800  1
  Zn  Zn70  1  0.10114900  0.37615900  0.20861900  1
  Zn  Zn71  1  0.84636600  0.46674600  0.23333300  1
  Zn  Zn72  1  0.51078000  0.24769600  0.23333300  1
  Zn  Zn73  1  0.39885100  0.12384100  0.25861900  1
  Zn  Zn74  1  0.10114900  0.37615900  0.25804800  1
  Zn  Zn75  1  0.39885100  0.12384100  0.20804800  1
  Zn  Zn76  1  0.89648300  0.12819600  0.25806800  1
  Zn  Zn77  1  0.84330700  0.29012200  0.23333300  1
  Zn  Zn78  1  0.60351700  0.37180400  0.25859800  1
  Zn  Zn79  1  0.89648300  0.12819600  0.20859800  1
  Zn  Zn80  1  0.50000000  0.50000000  0.23333300  1
  Zn  Zn81  1  0.84032400  0.38039100  0.28333300  1
  Zn  Zn82  1  0.65967600  0.11960900  0.23333300  1
  Zn  Zn83  1  0.98922000  0.25230400  0.28333300  1
  Zn  Zn84  1  0.50000000  0.00000000  0.33333300  1
  Zn  Zn85  1  0.15363400  0.53325400  0.33333300  1
  Zn  Zn86  1  0.15669300  0.70987800  0.33333300  1
  Zn  Zn87  1  0.65685600  0.62722100  0.33333300  1
  Zn  Zn88  1  0.84314400  0.87277900  0.38333300  1
  Zn  Zn89  1  0.10351700  0.87180400  0.35806800  1
  Zn  Zn90  1  0.60114900  0.87615900  0.35861900  1
  Zn  Zn91  1  0.34636600  0.96674600  0.38333300  1
  Zn  Zn92  1  0.01078000  0.74769600  0.38333300  1
  Zn  Zn93  1  0.89885100  0.62384100  0.30861900  1
  Zn  Zn94  1  0.60114900  0.87615900  0.30804800  1
  Zn  Zn95  1  0.89885100  0.62384100  0.35804800  1
  Zn  Zn96  1  0.39648300  0.62819600  0.30806800  1
  Zn  Zn97  1  0.34330700  0.79012200  0.38333300  1
  Zn  Zn98  1  0.10351700  0.87180400  0.30859800  1
  Zn  Zn99  1  0.39648300  0.62819600  0.35859800  1
  Zn  Zn100  1  0.00000000  0.00000000  0.38333300  1
  Zn  Zn101  1  0.34032400  0.88039100  0.33333300  1
  Zn  Zn102  1  0.15967600  0.61960900  0.38333300  1
  Zn  Zn103  1  0.48922000  0.75230400  0.33333300  1
  Zn  Zn104  1  0.00000000  0.50000000  0.38333300  1
  Zn  Zn105  1  0.65363400  0.03325400  0.38333300  1
  Zn  Zn106  1  0.65669300  0.20987800  0.38333300  1
  Zn  Zn107  1  0.15685600  0.12722100  0.38333300  1
  Zn  Zn108  1  0.34314400  0.37277900  0.33333300  1
  Zn  Zn109  1  0.60351700  0.37180400  0.30806800  1
  Zn  Zn110  1  0.10114900  0.37615900  0.30861900  1
  Zn  Zn111  1  0.84636600  0.46674600  0.33333300  1
  Zn  Zn112  1  0.51078000  0.24769600  0.33333300  1
  Zn  Zn113  1  0.39885100  0.12384100  0.35861900  1
  Zn  Zn114  1  0.10114900  0.37615900  0.35804800  1
  Zn  Zn115  1  0.39885100  0.12384100  0.30804800  1
  Zn  Zn116  1  0.89648300  0.12819600  0.35806800  1
  Zn  Zn117  1  0.84330700  0.29012200  0.33333300  1
  Zn  Zn118  1  0.60351700  0.37180400  0.35859800  1
  Zn  Zn119  1  0.89648300  0.12819600  0.30859800  1
  Zn  Zn120  1  0.50000000  0.50000000  0.33333300  1
  Zn  Zn121  1  0.84032400  0.38039100  0.38333300  1
  Zn  Zn122  1  0.65967600  0.11960900  0.33333300  1
  Zn  Zn123  1  0.98922000  0.25230400  0.38333300  1
  Zn  Zn124  1  0.50000000  0.00000000  0.43333300  1
  Zn  Zn125  1  0.15363400  0.53325400  0.43333300  1
  Zn  Zn126  1  0.15669300  0.70987800  0.43333300  1
  Zn  Zn127  1  0.65685600  0.62722100  0.43333300  1
  Zn  Zn128  1  0.84314400  0.87277900  0.48333300  1
  Zn  Zn129  1  0.10351700  0.87180400  0.45806800  1
  Zn  Zn130  1  0.60114900  0.87615900  0.45861900  1
  Zn  Zn131  1  0.34636600  0.96674600  0.48333300  1
  Zn  Zn132  1  0.01078000  0.74769600  0.48333300  1
  Zn  Zn133  1  0.89885100  0.62384100  0.40861900  1
  Zn  Zn134  1  0.60114900  0.87615900  0.40804800  1
  Zn  Zn135  1  0.89885100  0.62384100  0.45804800  1
  Zn  Zn136  1  0.39648300  0.62819600  0.40806800  1
  Zn  Zn137  1  0.34330700  0.79012200  0.48333300  1
  Zn  Zn138  1  0.10351700  0.87180400  0.40859800  1
  Zn  Zn139  1  0.39648300  0.62819600  0.45859800  1
  Zn  Zn140  1  0.00000000  0.00000000  0.48333300  1
  Zn  Zn141  1  0.34032400  0.88039100  0.43333300  1
  Zn  Zn142  1  0.15967600  0.61960900  0.48333300  1
  Zn  Zn143  1  0.48922000  0.75230400  0.43333300  1
  Zn  Zn144  1  0.00000000  0.50000000  0.48333300  1
  Zn  Zn145  1  0.65363400  0.03325400  0.48333300  1
  Zn  Zn146  1  0.65669300  0.20987800  0.48333300  1
  Zn  Zn147  1  0.15685600  0.12722100  0.48333300  1
  Zn  Zn148  1  0.34314400  0.37277900  0.43333300  1
  Zn  Zn149  1  0.60351700  0.37180400  0.40806800  1
  Zn  Zn150  1  0.10114900  0.37615900  0.40861900  1
  Zn  Zn151  1  0.84636600  0.46674600  0.43333300  1
  Zn  Zn152  1  0.51078000  0.24769600  0.43333300  1
  Zn  Zn153  1  0.39885100  0.12384100  0.45861900  1
  Zn  Zn154  1  0.10114900  0.37615900  0.45804800  1
  Zn  Zn155  1  0.39885100  0.12384100  0.40804800  1
  Zn  Zn156  1  0.89648300  0.12819600  0.45806800  1
  Zn  Zn157  1  0.84330700  0.29012200  0.43333300  1
  Zn  Zn158  1  0.60351700  0.37180400  0.45859800  1
  Zn  Zn159  1  0.89648300  0.12819600  0.40859800  1
  Zn  Zn160  1  0.50000000  0.50000000  0.43333300  1
  Zn  Zn161  1  0.84032400  0.38039100  0.48333300  1
  Zn  Zn162  1  0.65967600  0.11960900  0.43333300  1
  Zn  Zn163  1  0.98922000  0.25230400  0.48333300  1
  Zn  Zn164  1  0.50000000  0.00000000  0.53333300  1
  Zn  Zn165  1  0.15363400  0.53325400  0.53333300  1
  Zn  Zn166  1  0.15669300  0.70987800  0.53333300  1
  Zn  Zn167  1  0.65685600  0.62722100  0.53333300  1
  Zn  Zn168  1  0.84314400  0.87277900  0.58333300  1
  Zn  Zn169  1  0.10351700  0.87180400  0.55806800  1
  Zn  Zn170  1  0.60114900  0.87615900  0.55861900  1
  Zn  Zn171  1  0.34636600  0.96674600  0.58333300  1
  Zn  Zn172  1  0.01078000  0.74769600  0.58333300  1
  Zn  Zn173  1  0.89885100  0.62384100  0.50861900  1
  Zn  Zn174  1  0.60114900  0.87615900  0.50804800  1
  Zn  Zn175  1  0.89885100  0.62384100  0.55804800  1
  Zn  Zn176  1  0.39648300  0.62819600  0.50806800  1
  Zn  Zn177  1  0.34330700  0.79012200  0.58333300  1
  Zn  Zn178  1  0.10351700  0.87180400  0.50859800  1
  Zn  Zn179  1  0.39648300  0.62819600  0.55859800  1
  Zn  Zn180  1  0.00000000  0.00000000  0.58333300  1
  Zn  Zn181  1  0.34032400  0.88039100  0.53333300  1
  Zn  Zn182  1  0.15967600  0.61960900  0.58333300  1
  Zn  Zn183  1  0.48922000  0.75230400  0.53333300  1
  Zn  Zn184  1  0.00000000  0.50000000  0.58333300  1
  Zn  Zn185  1  0.65363400  0.03325400  0.58333300  1
  Zn  Zn186  1  0.65669300  0.20987800  0.58333300  1
  Zn  Zn187  1  0.15685600  0.12722100  0.58333300  1
  Zn  Zn188  1  0.34314400  0.37277900  0.53333300  1
  Zn  Zn189  1  0.60351700  0.37180400  0.50806800  1
  Zn  Zn190  1  0.10114900  0.37615900  0.50861900  1
  Zn  Zn191  1  0.84636600  0.46674600  0.53333300  1
  Zn  Zn192  1  0.51078000  0.24769600  0.53333300  1
  Zn  Zn193  1  0.39885100  0.12384100  0.55861900  1
  Zn  Zn194  1  0.10114900  0.37615900  0.55804800  1
  Zn  Zn195  1  0.39885100  0.12384100  0.50804800  1
  Zn  Zn196  1  0.89648300  0.12819600  0.55806800  1
  Zn  Zn197  1  0.84330700  0.29012200  0.53333300  1
  Zn  Zn198  1  0.60351700  0.37180400  0.55859800  1
  Zn  Zn199  1  0.89648300  0.12819600  0.50859800  1
  Zn  Zn200  1  0.50000000  0.50000000  0.53333300  1
  Zn  Zn201  1  0.84032400  0.38039100  0.58333300  1
  Zn  Zn202  1  0.65967600  0.11960900  0.53333300  1
  Zn  Zn203  1  0.98922000  0.25230400  0.58333300  1
  Zn  Zn204  1  0.50000000  0.00000000  0.63333300  1
  Zn  Zn205  1  0.15363400  0.53325400  0.63333300  1
  Zn  Zn206  1  0.15669300  0.70987800  0.63333300  1
  Zn  Zn207  1  0.65685600  0.62722100  0.63333300  1
  Zn  Zn208  1  0.84314400  0.87277900  0.68333300  1
  Zn  Zn209  1  0.10351700  0.87180400  0.65806800  1
  Zn  Zn210  1  0.60114900  0.87615900  0.65861900  1
  Zn  Zn211  1  0.34636600  0.96674600  0.68333300  1
  Zn  Zn212  1  0.01078000  0.74769600  0.68333300  1
  Zn  Zn213  1  0.89885100  0.62384100  0.60861900  1
  Zn  Zn214  1  0.60114900  0.87615900  0.60804800  1
  Zn  Zn215  1  0.89885100  0.62384100  0.65804800  1
  Zn  Zn216  1  0.39648300  0.62819600  0.60806800  1
  Zn  Zn217  1  0.34330700  0.79012200  0.68333300  1
  Zn  Zn218  1  0.10351700  0.87180400  0.60859800  1
  Zn  Zn219  1  0.39648300  0.62819600  0.65859800  1
  Zn  Zn220  1  0.00000000  0.00000000  0.68333300  1
  Zn  Zn221  1  0.34032400  0.88039100  0.63333300  1
  Zn  Zn222  1  0.15967600  0.61960900  0.68333300  1
  Zn  Zn223  1  0.48922000  0.75230400  0.63333300  1
  Zn  Zn224  1  0.00000000  0.50000000  0.68333300  1
  Zn  Zn225  1  0.65363400  0.03325400  0.68333300  1
  Zn  Zn226  1  0.65669300  0.20987800  0.68333300  1
  Zn  Zn227  1  0.15685600  0.12722100  0.68333300  1
  Zn  Zn228  1  0.34314400  0.37277900  0.63333300  1
  Zn  Zn229  1  0.60351700  0.37180400  0.60806800  1
  Zn  Zn230  1  0.10114900  0.37615900  0.60861900  1
  Zn  Zn231  1  0.84636600  0.46674600  0.63333300  1
  Zn  Zn232  1  0.51078000  0.24769600  0.63333300  1
  Zn  Zn233  1  0.39885100  0.12384100  0.65861900  1
  Zn  Zn234  1  0.10114900  0.37615900  0.65804800  1
  Zn  Zn235  1  0.39885100  0.12384100  0.60804800  1
  Zn  Zn236  1  0.89648300  0.12819600  0.65806800  1
  Zn  Zn237  1  0.84330700  0.29012200  0.63333300  1
  Zn  Zn238  1  0.60351700  0.37180400  0.65859800  1
  Zn  Zn239  1  0.89648300  0.12819600  0.60859800  1
  Zn  Zn240  1  0.50000000  0.50000000  0.63333300  1
  Zn  Zn241  1  0.84032400  0.38039100  0.68333300  1
  Zn  Zn242  1  0.65967600  0.11960900  0.63333300  1
  Zn  Zn243  1  0.98922000  0.25230400  0.68333300  1
  Zn  Zn244  1  0.50000000  0.00000000  0.73333300  1
  Zn  Zn245  1  0.15363400  0.53325400  0.73333300  1
  Zn  Zn246  1  0.15669300  0.70987800  0.73333300  1
  Zn  Zn247  1  0.65685600  0.62722100  0.73333300  1
  Zn  Zn248  1  0.10351700  0.87180400  0.75806800  1
  Zn  Zn249  1  0.60114900  0.87615900  0.75861900  1
  Zn  Zn250  1  0.89885100  0.62384100  0.70861900  1
  Zn  Zn251  1  0.60114900  0.87615900  0.70804800  1
  Zn  Zn252  1  0.89885100  0.62384100  0.75804800  1
  Zn  Zn253  1  0.39648300  0.62819600  0.70806800  1
  Zn  Zn254  1  0.10351700  0.87180400  0.70859800  1
  Zn  Zn255  1  0.39648300  0.62819600  0.75859800  1
  Zn  Zn256  1  0.34032400  0.88039100  0.73333300  1
  Zn  Zn257  1  0.48922000  0.75230400  0.73333300  1
  Zn  Zn258  1  0.34314400  0.37277900  0.73333300  1
  Zn  Zn259  1  0.60351700  0.37180400  0.70806800  1
  Zn  Zn260  1  0.10114900  0.37615900  0.70861900  1
  Zn  Zn261  1  0.84636600  0.46674600  0.73333300  1
  Zn  Zn262  1  0.51078000  0.24769600  0.73333300  1
  Zn  Zn263  1  0.39885100  0.12384100  0.75861900  1
  Zn  Zn264  1  0.10114900  0.37615900  0.75804800  1
  Zn  Zn265  1  0.39885100  0.12384100  0.70804800  1
  Zn  Zn266  1  0.89648300  0.12819600  0.75806800  1
  Zn  Zn267  1  0.84330700  0.29012200  0.73333300  1
  Zn  Zn268  1  0.60351700  0.37180400  0.75859800  1
  Zn  Zn269  1  0.89648300  0.12819600  0.70859800  1
  Zn  Zn270  1  0.50000000  0.50000000  0.73333300  1
  Zn  Zn271  1  0.65967600  0.11960900  0.73333300  1
