# generated using pymatgen
data_Er2Mg
_symmetry_space_group_name_H-M   'P 1'
_cell_length_a   5.42669900
_cell_length_b   8.70370642
_cell_length_c   46.42048700
_cell_angle_alpha   91.54237289
_cell_angle_beta   90.00000000
_cell_angle_gamma   90.00000000
_symmetry_Int_Tables_number   1
_chemical_formula_structural   Er2Mg
_chemical_formula_sum   'Er32 Mg16'
_cell_volume   2191.75639656
_cell_formula_units_Z   16
loop_
 _symmetry_equiv_pos_site_id
 _symmetry_equiv_pos_as_xyz
  1  'x, y, z'
loop_
 _atom_site_type_symbol
 _atom_site_label
 _atom_site_symmetry_multiplicity
 _atom_site_fract_x
 _atom_site_fract_y
 _atom_site_fract_z
 _atom_site_occupancy
  Er  Er0  1  0.25000000  0.66510100  0.76198900  1
  Er  Er1  1  0.25000000  0.28256300  0.78668700  1
  Er  Er2  1  0.75000000  0.02720700  0.77647300  1
  Er  Er3  1  0.75000000  0.40974500  0.75177400  1
  Er  Er4  1  0.25000000  0.74202400  0.68506600  1
  Er  Er5  1  0.25000000  0.35948600  0.70976400  1
  Er  Er6  1  0.75000000  0.10413000  0.69955000  1
  Er  Er7  1  0.75000000  0.48666800  0.67485100  1
  Er  Er8  1  0.25000000  0.81894700  0.60814200  1
  Er  Er9  1  0.25000000  0.43640900  0.63284100  1
  Er  Er10  1  0.75000000  0.18105300  0.62262700  1
  Er  Er11  1  0.75000000  0.56359100  0.59792800  1
  Er  Er12  1  0.25000000  0.89587000  0.53121900  1
  Er  Er13  1  0.25000000  0.51333200  0.55591800  1
  Er  Er14  1  0.75000000  0.25797600  0.54570400  1
  Er  Er15  1  0.75000000  0.64051400  0.52100500  1
  Er  Er16  1  0.25000000  0.97279300  0.45429600  1
  Er  Er17  1  0.25000000  0.59025500  0.47899500  1
  Er  Er18  1  0.75000000  0.33489900  0.46878100  1
  Er  Er19  1  0.75000000  0.71743700  0.44408200  1
  Er  Er20  1  0.25000000  0.04971600  0.37737300  1
  Er  Er21  1  0.25000000  0.66717800  0.40207200  1
  Er  Er22  1  0.75000000  0.41182200  0.39185800  1
  Er  Er23  1  0.75000000  0.79436000  0.36715900  1
  Er  Er24  1  0.25000000  0.12663900  0.30045000  1
  Er  Er25  1  0.25000000  0.74410100  0.32514900  1
  Er  Er26  1  0.75000000  0.48874600  0.31493400  1
  Er  Er27  1  0.75000000  0.87128300  0.29023600  1
  Er  Er28  1  0.25000000  0.20356200  0.22352700  1
  Er  Er29  1  0.25000000  0.82102400  0.24822600  1
  Er  Er30  1  0.75000000  0.56566900  0.23801100  1
  Er  Er31  1  0.75000000  0.94820700  0.21331300  1
  Mg  Mg32  1  0.25000000  0.01062100  0.73580900  1
  Mg  Mg33  1  0.75000000  0.68168700  0.80265200  1
  Mg  Mg34  1  0.25000000  0.08754400  0.65888600  1
  Mg  Mg35  1  0.75000000  0.75861000  0.72572900  1
  Mg  Mg36  1  0.25000000  0.16446700  0.58196300  1
  Mg  Mg37  1  0.75000000  0.83553300  0.64880600  1
  Mg  Mg38  1  0.25000000  0.24139000  0.50504000  1
  Mg  Mg39  1  0.75000000  0.91245600  0.57188300  1
  Mg  Mg40  1  0.25000000  0.31831300  0.42811700  1
  Mg  Mg41  1  0.75000000  0.98937900  0.49496000  1
  Mg  Mg42  1  0.25000000  0.39523600  0.35119400  1
  Mg  Mg43  1  0.75000000  0.06630200  0.41803700  1
  Mg  Mg44  1  0.25000000  0.47215900  0.27427100  1
  Mg  Mg45  1  0.75000000  0.14322500  0.34111400  1
  Mg  Mg46  1  0.25000000  0.54908200  0.19734800  1
  Mg  Mg47  1  0.75000000  0.22014800  0.26419100  1
