# generated using pymatgen
data_Ba20Mg39
_symmetry_space_group_name_H-M   'P 1'
_cell_length_a   6.58888000
_cell_length_b   12.70238114
_cell_length_c   40.54514400
_cell_angle_alpha   85.48813798
_cell_angle_beta   90.00000000
_cell_angle_gamma   74.96814132
_symmetry_Int_Tables_number   1
_chemical_formula_structural   Ba20Mg39
_chemical_formula_sum   'Ba20 Mg39'
_cell_volume   3266.39809970
_cell_formula_units_Z   1
loop_
 _symmetry_equiv_pos_site_id
 _symmetry_equiv_pos_as_xyz
  1  'x, y, z'
loop_
 _atom_site_type_symbol
 _atom_site_label
 _atom_site_symmetry_multiplicity
 _atom_site_fract_x
 _atom_site_fract_y
 _atom_site_fract_z
 _atom_site_occupancy
  Ba  Ba0  1  0.12141000  0.80038000  0.25833300  1
  Ba  Ba1  1  0.39224300  0.25871400  0.27916600  1
  Ba  Ba2  1  0.53599000  0.97122000  0.23125000  1
  Ba  Ba3  1  0.26515700  0.51288600  0.21041700  1
  Ba  Ba4  1  0.74641000  0.55038000  0.38333300  1
  Ba  Ba5  1  0.01724300  0.00871400  0.40416600  1
  Ba  Ba6  1  0.16099000  0.72122000  0.35625000  1
  Ba  Ba7  1  0.89015700  0.26288600  0.33541700  1
  Ba  Ba8  1  0.37141000  0.30038000  0.50833300  1
  Ba  Ba9  1  0.64224300  0.75871400  0.52916600  1
  Ba  Ba10  1  0.78599000  0.47122000  0.48125000  1
  Ba  Ba11  1  0.51515700  0.01288600  0.46041700  1
  Ba  Ba12  1  0.99641000  0.05038000  0.63333300  1
  Ba  Ba13  1  0.26724300  0.50871400  0.65416600  1
  Ba  Ba14  1  0.41099000  0.22122000  0.60625000  1
  Ba  Ba15  1  0.14015700  0.76288600  0.58541700  1
  Ba  Ba16  1  0.62141000  0.80038000  0.75833300  1
  Ba  Ba17  1  0.89224300  0.25871400  0.77916600  1
  Ba  Ba18  1  0.03599000  0.97122000  0.73125000  1
  Ba  Ba19  1  0.76515700  0.51288600  0.71041700  1
  Mg  Mg20  1  0.96335000  0.11650000  0.25444200  1
  Mg  Mg21  1  0.00080000  0.53240000  0.29649200  1
  Mg  Mg22  1  0.51000000  0.53240000  0.29649200  1
  Mg  Mg23  1  0.14740000  0.23920000  0.19309200  1
  Mg  Mg24  1  0.82870000  0.38580000  0.24479200  1
  Mg  Mg25  1  0.64120000  0.76080000  0.30729200  1
  Mg  Mg26  1  0.69405000  0.65510000  0.23514200  1
  Mg  Mg27  1  0.65660000  0.23920000  0.19309200  1
  Mg  Mg28  1  0.58835000  0.86650000  0.37944200  1
  Mg  Mg29  1  0.62580000  0.28240000  0.42149200  1
  Mg  Mg30  1  0.13500000  0.28240000  0.42149200  1
  Mg  Mg31  1  0.77240000  0.98920000  0.31809200  1
  Mg  Mg32  1  0.45370000  0.13580000  0.36979200  1
  Mg  Mg33  1  0.26620000  0.51080000  0.43229200  1
  Mg  Mg34  1  0.31905000  0.40510000  0.36014200  1
  Mg  Mg35  1  0.28160000  0.98920000  0.31809200  1
  Mg  Mg36  1  0.21335000  0.61650000  0.50444200  1
  Mg  Mg37  1  0.25080000  0.03240000  0.54649200  1
  Mg  Mg38  1  0.76000000  0.03240000  0.54649200  1
  Mg  Mg39  1  0.39740000  0.73920000  0.44309200  1
  Mg  Mg40  1  0.07870000  0.88580000  0.49479200  1
  Mg  Mg41  1  0.89120000  0.26080000  0.55729200  1
  Mg  Mg42  1  0.94405000  0.15510000  0.48514200  1
  Mg  Mg43  1  0.90660000  0.73920000  0.44309200  1
  Mg  Mg44  1  0.83835000  0.36650000  0.62944200  1
  Mg  Mg45  1  0.87580000  0.78240000  0.67149200  1
  Mg  Mg46  1  0.38500000  0.78240000  0.67149200  1
  Mg  Mg47  1  0.02240000  0.48920000  0.56809200  1
  Mg  Mg48  1  0.70370000  0.63580000  0.61979200  1
  Mg  Mg49  1  0.51620000  0.01080000  0.68229200  1
  Mg  Mg50  1  0.56905000  0.90510000  0.61014200  1
  Mg  Mg51  1  0.53160000  0.48920000  0.56809200  1
  Mg  Mg52  1  0.46335000  0.11650000  0.75444200  1
  Mg  Mg53  1  0.50080000  0.53240000  0.79649200  1
  Mg  Mg54  1  0.01000000  0.53240000  0.79649200  1
  Mg  Mg55  1  0.64740000  0.23920000  0.69309200  1
  Mg  Mg56  1  0.32870000  0.38580000  0.74479200  1
  Mg  Mg57  1  0.19405000  0.65510000  0.73514200  1
  Mg  Mg58  1  0.15660000  0.23920000  0.69309200  1
