# generated using pymatgen
data_Mg31Hg16
_symmetry_space_group_name_H-M   'P 1'
_cell_length_a   7.97718666
_cell_length_b   9.83847239
_cell_length_c   45.39858300
_cell_angle_alpha   91.26955969
_cell_angle_beta   89.07673454
_cell_angle_gamma   73.25679879
_symmetry_Int_Tables_number   1
_chemical_formula_structural   Mg31Hg16
_chemical_formula_sum   'Mg62 Hg32'
_cell_volume   3410.19980381
_cell_formula_units_Z   2
loop_
 _symmetry_equiv_pos_site_id
 _symmetry_equiv_pos_as_xyz
  1  'x, y, z'
loop_
 _atom_site_type_symbol
 _atom_site_label
 _atom_site_symmetry_multiplicity
 _atom_site_fract_x
 _atom_site_fract_y
 _atom_site_fract_z
 _atom_site_occupancy
  Mg  Mg0  1  0.32241600  0.13896700  0.23170700  1
  Mg  Mg1  1  0.34384200  0.69416200  0.24265200  1
  Mg  Mg2  1  0.55200600  0.37527400  0.22683500  1
  Mg  Mg3  1  0.11425200  0.45785500  0.24752400  1
  Mg  Mg4  1  0.01386400  0.98016300  0.23637000  1
  Mg  Mg5  1  0.65239400  0.85296600  0.23798900  1
  Mg  Mg6  1  0.01472400  0.98512100  0.30863000  1
  Mg  Mg7  1  0.03614900  0.54031600  0.31957500  1
  Mg  Mg8  1  0.64485100  0.12727100  0.27609800  1
  Mg  Mg9  1  0.71371400  0.55201200  0.27518400  1
  Mg  Mg10  1  0.24431300  0.22142800  0.30375800  1
  Mg  Mg11  1  0.80656000  0.30400900  0.32444700  1
  Mg  Mg12  1  0.70617200  0.82631700  0.31329300  1
  Mg  Mg13  1  0.34470100  0.69911900  0.31491200  1
  Mg  Mg14  1  0.70703100  0.83127500  0.38555300  1
  Mg  Mg15  1  0.72845700  0.38646900  0.39649900  1
  Mg  Mg16  1  0.33715900  0.97342500  0.35302100  1
  Mg  Mg17  1  0.40602200  0.39816600  0.35210700  1
  Mg  Mg18  1  0.93662100  0.06758200  0.38068100  1
  Mg  Mg19  1  0.49886700  0.15016200  0.40137000  1
  Mg  Mg20  1  0.39847900  0.67247100  0.39021600  1
  Mg  Mg21  1  0.03700900  0.54527300  0.39183500  1
  Mg  Mg22  1  0.39933900  0.67742900  0.46247600  1
  Mg  Mg23  1  0.42076500  0.23262300  0.47342200  1
  Mg  Mg24  1  0.02946600  0.81957800  0.42994400  1
  Mg  Mg25  1  0.09833000  0.24432000  0.42903000  1
  Mg  Mg26  1  0.62892900  0.91373600  0.45760400  1
  Mg  Mg27  1  0.19117500  0.99631600  0.47829400  1
  Mg  Mg28  1  0.09078700  0.51862500  0.46713900  1
  Mg  Mg29  1  0.72931700  0.39142700  0.46875800  1
  Mg  Mg30  1  0.09164700  0.52358200  0.53939900  1
  Mg  Mg31  1  0.11307300  0.07877700  0.55034500  1
  Mg  Mg32  1  0.72177400  0.66573200  0.50686700  1
  Mg  Mg33  1  0.79063700  0.09047300  0.50595300  1
  Mg  Mg34  1  0.32123600  0.75988900  0.53452700  1
  Mg  Mg35  1  0.88348300  0.84247000  0.55521700  1
  Mg  Mg36  1  0.78309500  0.36477900  0.54406200  1
  Mg  Mg37  1  0.42162400  0.23758100  0.54568100  1
  Mg  Mg38  1  0.78395400  0.36973600  0.61632200  1
  Mg  Mg39  1  0.80538000  0.92493100  0.62726800  1
  Mg  Mg40  1  0.41408200  0.51188600  0.58379000  1
  Mg  Mg41  1  0.48294500  0.93662700  0.58287700  1
  Mg  Mg42  1  0.01354400  0.60604300  0.61145000  1
  Mg  Mg43  1  0.57579000  0.68862400  0.63214000  1
  Mg  Mg44  1  0.47540300  0.21093200  0.62098500  1
  Mg  Mg45  1  0.11393200  0.08373500  0.62260400  1
  Mg  Mg46  1  0.47626200  0.21589000  0.69324500  1
  Mg  Mg47  1  0.49768800  0.77108500  0.70419100  1
  Mg  Mg48  1  0.10638900  0.35804000  0.66071300  1
  Mg  Mg49  1  0.17525300  0.78278100  0.65980000  1
  Mg  Mg50  1  0.70585200  0.45219700  0.68837300  1
  Mg  Mg51  1  0.26809800  0.53477800  0.70906300  1
  Mg  Mg52  1  0.16771000  0.05708600  0.69790900  1
  Mg  Mg53  1  0.80624000  0.92988900  0.69952700  1
  Mg  Mg54  1  0.16857000  0.06204400  0.77016800  1
  Mg  Mg55  1  0.18999600  0.61723900  0.78111400  1
  Mg  Mg56  1  0.79869700  0.20419400  0.73763600  1
  Mg  Mg57  1  0.86756100  0.62893500  0.73672300  1
  Mg  Mg58  1  0.39815900  0.29835100  0.76529600  1
  Mg  Mg59  1  0.96040600  0.38093200  0.78598600  1
  Mg  Mg60  1  0.86001800  0.90324000  0.77483200  1
  Mg  Mg61  1  0.49854700  0.77604300  0.77645000  1
  Hg  Hg62  1  0.98324300  0.74329100  0.26958500  1
  Hg  Hg63  1  0.68301400  0.08983800  0.20477400  1
  Hg  Hg64  1  0.72419000  0.58068800  0.20934900  1
  Hg  Hg65  1  0.94206800  0.25244100  0.26501000  1
  Hg  Hg66  1  0.67555100  0.58944500  0.34650800  1
  Hg  Hg67  1  0.37532200  0.93599200  0.28169700  1
  Hg  Hg68  1  0.41649800  0.42684200  0.28627200  1
  Hg  Hg69  1  0.63437500  0.09859500  0.34193300  1
  Hg  Hg70  1  0.36785900  0.43559800  0.42343100  1
  Hg  Hg71  1  0.06763000  0.78214600  0.35862000  1
  Hg  Hg72  1  0.10880500  0.27299600  0.36319500  1
  Hg  Hg73  1  0.32668300  0.94474900  0.41885600  1
  Hg  Hg74  1  0.06016600  0.28175200  0.50035500  1
  Hg  Hg75  1  0.75993700  0.62830000  0.43554300  1
  Hg  Hg76  1  0.80111300  0.11914900  0.44011800  1
  Hg  Hg77  1  0.01899100  0.79090200  0.49577900  1
  Hg  Hg78  1  0.75247400  0.12790600  0.57727800  1
  Hg  Hg79  1  0.45224500  0.47445300  0.51246600  1
  Hg  Hg80  1  0.49342100  0.96530300  0.51704100  1
  Hg  Hg81  1  0.71129900  0.63705600  0.57270300  1
  Hg  Hg82  1  0.44478200  0.97406000  0.65420100  1
  Hg  Hg83  1  0.14455300  0.32060700  0.58938900  1
  Hg  Hg84  1  0.18572800  0.81145700  0.59396400  1
  Hg  Hg85  1  0.40360600  0.48321000  0.64962600  1
  Hg  Hg86  1  0.13709000  0.82021400  0.73112400  1
  Hg  Hg87  1  0.83686000  0.16676100  0.66631200  1
  Hg  Hg88  1  0.87803600  0.65761100  0.67088700  1
  Hg  Hg89  1  0.09591400  0.32936400  0.72654900  1
  Hg  Hg90  1  0.82939700  0.66636800  0.80804700  1
  Hg  Hg91  1  0.52916800  0.01291500  0.74323500  1
  Hg  Hg92  1  0.57034400  0.50376500  0.74781000  1
  Hg  Hg93  1  0.78822200  0.17551800  0.80347200  1
