# generated using pymatgen
data_Ac7Mg3
_symmetry_space_group_name_H-M   'P 1'
_cell_length_a   4.15035232
_cell_length_b   7.30057625
_cell_length_c   43.50716900
_cell_angle_alpha   90.69825644
_cell_angle_beta   90.08266461
_cell_angle_gamma   106.25718942
_symmetry_Int_Tables_number   1
_chemical_formula_structural   Ac7Mg3
_chemical_formula_sum   'Ac14 Mg6'
_cell_volume   1265.44427510
_cell_formula_units_Z   2
loop_
 _symmetry_equiv_pos_site_id
 _symmetry_equiv_pos_as_xyz
  1  'x, y, z'
loop_
 _atom_site_type_symbol
 _atom_site_label
 _atom_site_symmetry_multiplicity
 _atom_site_fract_x
 _atom_site_fract_y
 _atom_site_fract_z
 _atom_site_occupancy
  Ac  Ac0  1  0.62358300  0.60010300  0.77144800  1
  Ac  Ac1  1  0.89156800  0.15500300  0.74370300  1
  Ac  Ac2  1  0.53267400  0.41828400  0.68053900  1
  Ac  Ac3  1  0.80065900  0.97318500  0.65279400  1
  Ac  Ac4  1  0.44176500  0.23646600  0.58963000  1
  Ac  Ac5  1  0.70975000  0.79136700  0.56188500  1
  Ac  Ac6  1  0.35085600  0.05464800  0.49872100  1
  Ac  Ac7  1  0.61884100  0.60954800  0.47097600  1
  Ac  Ac8  1  0.25994700  0.87283000  0.40781200  1
  Ac  Ac9  1  0.52793200  0.42773000  0.38006700  1
  Ac  Ac10  1  0.16903800  0.69101200  0.31690300  1
  Ac  Ac11  1  0.43702300  0.24591200  0.28915800  1
  Ac  Ac12  1  0.07812900  0.50919300  0.22599400  1
  Ac  Ac13  1  0.34611400  0.06409400  0.19824900  1
  Mg  Mg14  1  0.21212100  0.78664400  0.71212100  1
  Mg  Mg15  1  0.12121200  0.60482500  0.62121200  1
  Mg  Mg16  1  0.03030300  0.42300700  0.53030300  1
  Mg  Mg17  1  0.93939400  0.24118900  0.43939400  1
  Mg  Mg18  1  0.84848500  0.05937100  0.34848500  1
  Mg  Mg19  1  0.75757600  0.87755300  0.25757600  1
