# generated using pymatgen
data_Mg7Tl6
_symmetry_space_group_name_H-M   'P 1'
_cell_length_a   3.67499500
_cell_length_b   3.67499500
_cell_length_c   44.09994000
_cell_angle_alpha   90.00000000
_cell_angle_beta   90.00000000
_cell_angle_gamma   90.00000000
_symmetry_Int_Tables_number   1
_chemical_formula_structural   Mg7Tl6
_chemical_formula_sum   'Mg7 Tl6'
_cell_volume   595.59563149
_cell_formula_units_Z   1
loop_
 _symmetry_equiv_pos_site_id
 _symmetry_equiv_pos_as_xyz
  1  'x, y, z'
loop_
 _atom_site_type_symbol
 _atom_site_label
 _atom_site_symmetry_multiplicity
 _atom_site_fract_x
 _atom_site_fract_y
 _atom_site_fract_z
 _atom_site_occupancy
  Mg  Mg0  1  0.00000000  0.00000000  0.27083300  1
  Mg  Mg1  1  0.00000000  0.00000000  0.35416700  1
  Mg  Mg2  1  0.00000000  0.00000000  0.43750000  1
  Mg  Mg3  1  0.00000000  0.00000000  0.52083300  1
  Mg  Mg4  1  0.00000000  0.00000000  0.60416700  1
  Mg  Mg5  1  0.00000000  0.00000000  0.68750000  1
  Mg  Mg6  1  0.00000000  0.00000000  0.77083300  1
  Tl  Tl7  1  0.50000000  0.50000000  0.31250000  1
  Tl  Tl8  1  0.50000000  0.50000000  0.39583300  1
  Tl  Tl9  1  0.50000000  0.50000000  0.47916700  1
  Tl  Tl10  1  0.50000000  0.50000000  0.56250000  1
  Tl  Tl11  1  0.50000000  0.50000000  0.64583300  1
  Tl  Tl12  1  0.50000000  0.50000000  0.72916700  1
