# generated using pymatgen
data_Mg34Ir55
_symmetry_space_group_name_H-M   'P 1'
_cell_length_a   5.24707500
_cell_length_b   8.54477426
_cell_length_c   55.75889500
_cell_angle_alpha   88.31672616
_cell_angle_beta   90.00000000
_cell_angle_gamma   90.00000000
_symmetry_Int_Tables_number   1
_chemical_formula_structural   Mg34Ir55
_chemical_formula_sum   'Mg34 Ir55'
_cell_volume   2498.87525280
_cell_formula_units_Z   1
loop_
 _symmetry_equiv_pos_site_id
 _symmetry_equiv_pos_as_xyz
  1  'x, y, z'
loop_
 _atom_site_type_symbol
 _atom_site_label
 _atom_site_symmetry_multiplicity
 _atom_site_fract_x
 _atom_site_fract_y
 _atom_site_fract_z
 _atom_site_occupancy
  Mg  Mg0  1  0.50000000  0.87981600  0.20328800  1
  Mg  Mg1  1  0.00000000  0.02905000  0.22337900  1
  Mg  Mg2  1  0.00000000  0.50598400  0.27847800  1
  Mg  Mg3  1  0.50000000  0.06954800  0.48152200  1
  Mg  Mg4  1  0.50000000  0.52351100  0.19974700  1
  Mg  Mg5  1  0.00000000  0.38535400  0.22692000  1
  Mg  Mg6  1  0.50000000  0.67642000  0.48923300  1
  Mg  Mg7  1  0.00000000  0.89911200  0.27076700  1
  Mg  Mg8  1  0.50000000  0.69666800  0.28965600  1
  Mg  Mg9  1  0.00000000  0.87886400  0.47034400  1
  Mg  Mg10  1  0.00000000  0.71314900  0.36995500  1
  Mg  Mg11  1  0.50000000  0.86238300  0.39004500  1
  Mg  Mg12  1  0.50000000  0.33931800  0.44514400  1
  Mg  Mg13  1  1.00000000  0.23621400  0.31485600  1
  Mg  Mg14  1  0.00000000  0.35684500  0.36641300  1
  Mg  Mg15  1  0.50000000  0.21868700  0.39358700  1
  Mg  Mg16  1  1.00000000  0.84308600  0.32256700  1
  Mg  Mg17  1  0.50000000  0.73244600  0.43743300  1
  Mg  Mg18  1  0.00000000  0.53000100  0.45632300  1
  Mg  Mg19  1  0.50000000  0.04553100  0.30367700  1
  Mg  Mg20  1  0.50000000  0.54648200  0.53662100  1
  Mg  Mg21  1  0.00000000  0.69571600  0.55671200  1
  Mg  Mg22  1  0.00000000  0.17265100  0.61181100  1
  Mg  Mg23  1  0.50000000  0.19017800  0.53308000  1
  Mg  Mg24  1  0.00000000  0.05202100  0.56025300  1
  Mg  Mg25  1  0.00000000  0.56577900  0.60410000  1
  Mg  Mg26  1  0.50000000  0.36333400  0.62298900  1
  Mg  Mg27  1  0.00000000  0.37981600  0.70328800  1
  Mg  Mg28  1  0.50000000  0.52905000  0.72337900  1
  Mg  Mg29  1  0.00000000  0.90288100  0.64818900  1
  Mg  Mg30  1  0.00000000  0.02351100  0.69974700  1
  Mg  Mg31  1  0.50000000  0.88535400  0.72692000  1
  Mg  Mg32  1  0.00000000  0.50975300  0.65590000  1
  Mg  Mg33  1  0.50000000  0.71219800  0.63701100  1
  Ir  Ir34  1  0.00000000  0.96573800  0.17370700  1
  Ir  Ir35  1  0.50000000  0.94312700  0.25295900  1
  Ir  Ir36  1  0.24951300  0.69755300  0.24068500  1
  Ir  Ir37  1  0.25048700  0.21131300  0.18598100  1
  Ir  Ir38  1  0.74951300  0.21131300  0.18598100  1
  Ir  Ir39  1  0.75048700  0.69755300  0.24068500  1
  Ir  Ir40  1  0.00000000  0.20443300  0.46333300  1
  Ir  Ir41  1  0.50000000  0.20006400  0.22467900  1
  Ir  Ir42  1  0.00000000  0.70880100  0.20198800  1
  Ir  Ir43  1  0.50000000  0.44949100  0.25139100  1
  Ir  Ir44  1  0.00000000  0.45937500  0.17527600  1
  Ir  Ir45  1  0.26606200  0.37827000  0.49358900  1
  Ir  Ir46  1  0.23393800  0.19726200  0.26641100  1
  Ir  Ir47  1  0.76606200  0.19726200  0.26641100  1
  Ir  Ir48  1  0.73393800  0.37827000  0.49358900  1
  Ir  Ir49  1  0.50000000  0.79907100  0.34037400  1
  Ir  Ir50  1  0.00000000  0.77646100  0.41962600  1
  Ir  Ir51  1  0.74951300  0.53088600  0.40735200  1
  Ir  Ir52  1  0.75048700  0.04464600  0.35264800  1
  Ir  Ir53  1  0.24951300  0.04464600  0.35264800  1
  Ir  Ir54  1  0.25048700  0.53088600  0.40735200  1
  Ir  Ir55  1  0.50000000  0.37109900  0.29666700  1
  Ir  Ir56  1  1.00000000  0.03339800  0.39134500  1
  Ir  Ir57  1  0.50000000  0.54213400  0.36865500  1
  Ir  Ir58  1  1.00000000  0.28282400  0.41805700  1
  Ir  Ir59  1  0.50000000  0.29270800  0.34194300  1
  Ir  Ir60  1  0.76606200  0.54493600  0.32692300  1
  Ir  Ir61  1  0.73393800  0.03059600  0.43307700  1
  Ir  Ir62  1  0.26606200  0.03059600  0.43307700  1
  Ir  Ir63  1  0.23393800  0.54493600  0.32692300  1
  Ir  Ir64  1  0.00000000  0.63240500  0.50704100  1
  Ir  Ir65  1  0.50000000  0.60979400  0.58629300  1
  Ir  Ir66  1  0.24951300  0.36421900  0.57401900  1
  Ir  Ir67  1  0.25048700  0.87797900  0.51931500  1
  Ir  Ir68  1  0.74951300  0.87797900  0.51931500  1
  Ir  Ir69  1  0.75048700  0.36421900  0.57401900  1
  Ir  Ir70  1  0.50000000  0.86673100  0.55801200  1
  Ir  Ir71  1  0.00000000  0.37546800  0.53532100  1
  Ir  Ir72  1  0.50000000  0.11615700  0.58472400  1
  Ir  Ir73  1  1.00000000  0.12604100  0.50860900  1
  Ir  Ir74  1  0.23393800  0.86392900  0.59974400  1
  Ir  Ir75  1  0.76606200  0.86392900  0.59974400  1
  Ir  Ir76  1  0.50000000  0.46573800  0.67370700  1
  Ir  Ir77  1  1.00000000  0.44312700  0.75295900  1
  Ir  Ir78  1  0.74951300  0.19755300  0.74068500  1
  Ir  Ir79  1  0.75048700  0.71131300  0.68598100  1
  Ir  Ir80  1  0.24951300  0.71131300  0.68598100  1
  Ir  Ir81  1  0.25048700  0.19755300  0.74068500  1
  Ir  Ir82  1  0.50000000  0.03776600  0.63000000  1
  Ir  Ir83  1  0.00000000  0.70006400  0.72467900  1
  Ir  Ir84  1  0.50000000  0.20880100  0.70198800  1
  Ir  Ir85  1  0.00000000  0.94949100  0.75139100  1
  Ir  Ir86  1  0.50000000  0.95937500  0.67527600  1
  Ir  Ir87  1  0.76606200  0.21160300  0.66025600  1
  Ir  Ir88  1  0.23393800  0.21160300  0.66025600  1
