# generated using pymatgen
data_Mg2Rh
_symmetry_space_group_name_H-M   'P 1'
_cell_length_a   3.23900900
_cell_length_b   3.23900900
_cell_length_c   49.27921500
_cell_angle_alpha   90.00000000
_cell_angle_beta   90.00000000
_cell_angle_gamma   90.00000000
_symmetry_Int_Tables_number   1
_chemical_formula_structural   Mg2Rh
_chemical_formula_sum   'Mg12 Rh6'
_cell_volume   516.99708043
_cell_formula_units_Z   6
loop_
 _symmetry_equiv_pos_site_id
 _symmetry_equiv_pos_as_xyz
  1  'x, y, z'
loop_
 _atom_site_type_symbol
 _atom_site_label
 _atom_site_symmetry_multiplicity
 _atom_site_fract_x
 _atom_site_fract_y
 _atom_site_fract_z
 _atom_site_occupancy
  Mg  Mg0  1  0.00000000  0.00000000  0.22091100  1
  Mg  Mg1  1  0.50000000  0.50000000  0.37908900  1
  Mg  Mg2  1  0.50000000  0.50000000  0.32091100  1
  Mg  Mg3  1  0.00000000  0.00000000  0.27908900  1
  Mg  Mg4  1  0.00000000  0.00000000  0.42091100  1
  Mg  Mg5  1  0.50000000  0.50000000  0.57908900  1
  Mg  Mg6  1  0.50000000  0.50000000  0.52091100  1
  Mg  Mg7  1  0.00000000  0.00000000  0.47908900  1
  Mg  Mg8  1  0.00000000  0.00000000  0.62091100  1
  Mg  Mg9  1  0.50000000  0.50000000  0.77908900  1
  Mg  Mg10  1  0.50000000  0.50000000  0.72091100  1
  Mg  Mg11  1  0.00000000  0.00000000  0.67908900  1
  Rh  Rh12  1  0.00000000  0.00000000  0.35000000  1
  Rh  Rh13  1  0.50000000  0.50000000  0.25000000  1
  Rh  Rh14  1  0.00000000  0.00000000  0.55000000  1
  Rh  Rh15  1  0.50000000  0.50000000  0.45000000  1
  Rh  Rh16  1  0.00000000  0.00000000  0.75000000  1
  Rh  Rh17  1  0.50000000  0.50000000  0.65000000  1
