# generated using pymatgen
data_CaMg3
_symmetry_space_group_name_H-M   'P 1'
_cell_length_a   8.66046537
_cell_length_b   8.66046500
_cell_length_c   43.30232700
_cell_angle_alpha   93.52148380
_cell_angle_beta   86.47851635
_cell_angle_gamma   93.52148617
_symmetry_Int_Tables_number   1
_chemical_formula_structural   CaMg3
_chemical_formula_sum   'Ca18 Mg54'
_cell_volume   3230.15747518
_cell_formula_units_Z   18
loop_
 _symmetry_equiv_pos_site_id
 _symmetry_equiv_pos_as_xyz
  1  'x, y, z'
loop_
 _atom_site_type_symbol
 _atom_site_label
 _atom_site_symmetry_multiplicity
 _atom_site_fract_x
 _atom_site_fract_y
 _atom_site_fract_z
 _atom_site_occupancy
  Ca  Ca0  1  0.41968000  0.24698700  0.21666700  1
  Ca  Ca1  1  0.91968000  0.41365300  0.25000000  1
  Ca  Ca2  1  0.75301300  0.91365300  0.28333300  1
  Ca  Ca3  1  0.25301300  0.08032000  0.31666700  1
  Ca  Ca4  1  0.08634700  0.58032000  0.35000000  1
  Ca  Ca5  1  0.58634700  0.74698700  0.38333300  1
  Ca  Ca6  1  0.41968000  0.24698700  0.41666700  1
  Ca  Ca7  1  0.91968000  0.41365300  0.45000000  1
  Ca  Ca8  1  0.75301300  0.91365300  0.48333300  1
  Ca  Ca9  1  0.25301300  0.08032000  0.51666700  1
  Ca  Ca10  1  0.08634700  0.58032000  0.55000000  1
  Ca  Ca11  1  0.58634700  0.74698700  0.58333300  1
  Ca  Ca12  1  0.41968000  0.24698700  0.61666700  1
  Ca  Ca13  1  0.91968000  0.41365300  0.65000000  1
  Ca  Ca14  1  0.75301300  0.91365300  0.68333300  1
  Ca  Ca15  1  0.25301300  0.08032000  0.71666700  1
  Ca  Ca16  1  0.08634700  0.58032000  0.75000000  1
  Ca  Ca17  1  0.58634700  0.74698700  0.78333300  1
  Mg  Mg18  1  0.08634700  0.07429400  0.24879500  1
  Mg  Mg19  1  0.58032000  0.58032000  0.25120500  1
  Mg  Mg20  1  0.92570600  0.75301300  0.21666700  1
  Mg  Mg21  1  0.41365300  0.90762700  0.25000000  1
  Mg  Mg22  1  0.25301300  0.58634700  0.21787200  1
  Mg  Mg23  1  0.75904000  0.08032000  0.21546100  1
  Mg  Mg24  1  0.41968000  0.74096000  0.31546100  1
  Mg  Mg25  1  0.91365300  0.24698700  0.31787200  1
  Mg  Mg26  1  0.25904000  0.41968000  0.28333300  1
  Mg  Mg27  1  0.74698700  0.57429400  0.31666700  1
  Mg  Mg28  1  0.58634700  0.25301300  0.28453900  1
  Mg  Mg29  1  0.09237300  0.74698700  0.28212800  1
  Mg  Mg30  1  0.75301300  0.40762700  0.38212800  1
  Mg  Mg31  1  0.24698700  0.91365300  0.38453900  1
  Mg  Mg32  1  0.59237300  0.08634700  0.35000000  1
  Mg  Mg33  1  0.08032000  0.24096000  0.38333300  1
  Mg  Mg34  1  0.91968000  0.91968000  0.35120500  1
  Mg  Mg35  1  0.42570600  0.41365300  0.34879500  1
  Mg  Mg36  1  0.08634700  0.07429400  0.44879500  1
  Mg  Mg37  1  0.58032000  0.58032000  0.45120500  1
  Mg  Mg38  1  0.92570600  0.75301300  0.41666700  1
  Mg  Mg39  1  0.41365300  0.90762700  0.45000000  1
  Mg  Mg40  1  0.25301300  0.58634700  0.41787200  1
  Mg  Mg41  1  0.75904000  0.08032000  0.41546100  1
  Mg  Mg42  1  0.41968000  0.74096000  0.51546100  1
  Mg  Mg43  1  0.91365300  0.24698700  0.51787200  1
  Mg  Mg44  1  0.25904000  0.41968000  0.48333300  1
  Mg  Mg45  1  0.74698700  0.57429400  0.51666700  1
  Mg  Mg46  1  0.58634700  0.25301300  0.48453900  1
  Mg  Mg47  1  0.09237300  0.74698700  0.48212800  1
  Mg  Mg48  1  0.75301300  0.40762700  0.58212800  1
  Mg  Mg49  1  0.24698700  0.91365300  0.58453900  1
  Mg  Mg50  1  0.59237300  0.08634700  0.55000000  1
  Mg  Mg51  1  0.08032000  0.24096000  0.58333300  1
  Mg  Mg52  1  0.91968000  0.91968000  0.55120500  1
  Mg  Mg53  1  0.42570600  0.41365300  0.54879500  1
  Mg  Mg54  1  0.08634700  0.07429400  0.64879500  1
  Mg  Mg55  1  0.58032000  0.58032000  0.65120500  1
  Mg  Mg56  1  0.92570600  0.75301300  0.61666700  1
  Mg  Mg57  1  0.41365300  0.90762700  0.65000000  1
  Mg  Mg58  1  0.25301300  0.58634700  0.61787200  1
  Mg  Mg59  1  0.75904000  0.08032000  0.61546100  1
  Mg  Mg60  1  0.41968000  0.74096000  0.71546100  1
  Mg  Mg61  1  0.91365300  0.24698700  0.71787200  1
  Mg  Mg62  1  0.25904000  0.41968000  0.68333300  1
  Mg  Mg63  1  0.74698700  0.57429400  0.71666700  1
  Mg  Mg64  1  0.58634700  0.25301300  0.68453900  1
  Mg  Mg65  1  0.09237300  0.74698700  0.68212800  1
  Mg  Mg66  1  0.75301300  0.40762700  0.78212800  1
  Mg  Mg67  1  0.24698700  0.91365300  0.78453900  1
  Mg  Mg68  1  0.59237300  0.08634700  0.75000000  1
  Mg  Mg69  1  0.08032000  0.24096000  0.78333300  1
  Mg  Mg70  1  0.91968000  0.91968000  0.75120500  1
  Mg  Mg71  1  0.42570600  0.41365300  0.74879500  1
