# generated using pymatgen
data_Li4Mg
_symmetry_space_group_name_H-M   'P 1'
_cell_length_a   3.06669500
_cell_length_b   38.15560900
_cell_length_c   42.49336600
_cell_angle_alpha   90.00000000
_cell_angle_beta   90.00000000
_cell_angle_gamma   90.00000000
_symmetry_Int_Tables_number   1
_chemical_formula_structural   Li4Mg
_chemical_formula_sum   'Li120 Mg30'
_cell_volume   4972.21739699
_cell_formula_units_Z   30
loop_
 _symmetry_equiv_pos_site_id
 _symmetry_equiv_pos_as_xyz
  1  'x, y, z'
loop_
 _atom_site_type_symbol
 _atom_site_label
 _atom_site_symmetry_multiplicity
 _atom_site_fract_x
 _atom_site_fract_y
 _atom_site_fract_z
 _atom_site_occupancy
  Li  Li0  1  0.08333300  0.93201300  0.21875000  1
  Li  Li1  1  0.58333300  0.86625700  0.19791700  1
  Li  Li2  1  0.58333300  0.80041000  0.23958300  1
  Li  Li3  1  0.08333300  0.73465400  0.21875000  1
  Li  Li4  1  0.58333300  0.26534600  0.19791700  1
  Li  Li5  1  0.58333300  0.19959000  0.23958300  1
  Li  Li6  1  0.08333300  0.13374300  0.21875000  1
  Li  Li7  1  0.58333300  0.06798700  0.19791700  1
  Li  Li8  1  0.58333300  0.59868000  0.23958300  1
  Li  Li9  1  0.08333300  0.53292300  0.21875000  1
  Li  Li10  1  0.58333300  0.46707700  0.19791700  1
  Li  Li11  1  0.58333300  0.40132000  0.23958300  1
  Li  Li12  1  0.58333300  0.93201300  0.28125000  1
  Li  Li13  1  0.08333300  0.86625700  0.26041700  1
  Li  Li14  1  0.08333300  0.80041000  0.30208300  1
  Li  Li15  1  0.58333300  0.73465400  0.28125000  1
  Li  Li16  1  0.08333300  0.26534600  0.26041700  1
  Li  Li17  1  0.08333300  0.19959000  0.30208300  1
  Li  Li18  1  0.58333300  0.13374300  0.28125000  1
  Li  Li19  1  0.08333300  0.06798700  0.26041700  1
  Li  Li20  1  0.08333300  0.59868000  0.30208300  1
  Li  Li21  1  0.58333300  0.53292300  0.28125000  1
  Li  Li22  1  0.08333300  0.46707700  0.26041700  1
  Li  Li23  1  0.08333300  0.40132000  0.30208300  1
  Li  Li24  1  0.08333300  0.93201300  0.34375000  1
  Li  Li25  1  0.58333300  0.86625700  0.32291700  1
  Li  Li26  1  0.58333300  0.80041000  0.36458300  1
  Li  Li27  1  0.08333300  0.73465400  0.34375000  1
  Li  Li28  1  0.58333300  0.26534600  0.32291700  1
  Li  Li29  1  0.58333300  0.19959000  0.36458300  1
  Li  Li30  1  0.08333300  0.13374300  0.34375000  1
  Li  Li31  1  0.58333300  0.06798700  0.32291700  1
  Li  Li32  1  0.58333300  0.59868000  0.36458300  1
  Li  Li33  1  0.08333300  0.53292300  0.34375000  1
  Li  Li34  1  0.58333300  0.46707700  0.32291700  1
  Li  Li35  1  0.58333300  0.40132000  0.36458300  1
  Li  Li36  1  0.58333300  0.93201300  0.40625000  1
  Li  Li37  1  0.08333300  0.86625700  0.38541700  1
  Li  Li38  1  0.08333300  0.80041000  0.42708300  1
  Li  Li39  1  0.58333300  0.73465400  0.40625000  1
  Li  Li40  1  0.08333300  0.26534600  0.38541700  1
  Li  Li41  1  0.08333300  0.19959000  0.42708300  1
  Li  Li42  1  0.58333300  0.13374300  0.40625000  1
  Li  Li43  1  0.08333300  0.06798700  0.38541700  1
  Li  Li44  1  0.08333300  0.59868000  0.42708300  1
  Li  Li45  1  0.58333300  0.53292300  0.40625000  1
  Li  Li46  1  0.08333300  0.46707700  0.38541700  1
  Li  Li47  1  0.08333300  0.40132000  0.42708300  1
  Li  Li48  1  0.08333300  0.93201300  0.46875000  1
  Li  Li49  1  0.58333300  0.86625700  0.44791700  1
  Li  Li50  1  0.58333300  0.80041000  0.48958300  1
  Li  Li51  1  0.08333300  0.73465400  0.46875000  1
  Li  Li52  1  0.58333300  0.26534600  0.44791700  1
  Li  Li53  1  0.58333300  0.19959000  0.48958300  1
  Li  Li54  1  0.08333300  0.13374300  0.46875000  1
  Li  Li55  1  0.58333300  0.06798700  0.44791700  1
  Li  Li56  1  0.58333300  0.59868000  0.48958300  1
  Li  Li57  1  0.08333300  0.53292300  0.46875000  1
  Li  Li58  1  0.58333300  0.46707700  0.44791700  1
  Li  Li59  1  0.58333300  0.40132000  0.48958300  1
  Li  Li60  1  0.58333300  0.93201300  0.53125000  1
  Li  Li61  1  0.08333300  0.86625700  0.51041700  1
  Li  Li62  1  0.08333300  0.80041000  0.55208300  1
  Li  Li63  1  0.58333300  0.73465400  0.53125000  1
  Li  Li64  1  0.08333300  0.26534600  0.51041700  1
  Li  Li65  1  0.08333300  0.19959000  0.55208300  1
  Li  Li66  1  0.58333300  0.13374300  0.53125000  1
  Li  Li67  1  0.08333300  0.06798700  0.51041700  1
  Li  Li68  1  0.08333300  0.59868000  0.55208300  1
  Li  Li69  1  0.58333300  0.53292300  0.53125000  1
  Li  Li70  1  0.08333300  0.46707700  0.51041700  1
  Li  Li71  1  0.08333300  0.40132000  0.55208300  1
  Li  Li72  1  0.08333300  0.93201300  0.59375000  1
  Li  Li73  1  0.58333300  0.86625700  0.57291700  1
  Li  Li74  1  0.58333300  0.80041000  0.61458300  1
  Li  Li75  1  0.08333300  0.73465400  0.59375000  1
  Li  Li76  1  0.58333300  0.26534600  0.57291700  1
  Li  Li77  1  0.58333300  0.19959000  0.61458300  1
  Li  Li78  1  0.08333300  0.13374300  0.59375000  1
  Li  Li79  1  0.58333300  0.06798700  0.57291700  1
  Li  Li80  1  0.58333300  0.59868000  0.61458300  1
  Li  Li81  1  0.08333300  0.53292300  0.59375000  1
  Li  Li82  1  0.58333300  0.46707700  0.57291700  1
  Li  Li83  1  0.58333300  0.40132000  0.61458300  1
  Li  Li84  1  0.58333300  0.93201300  0.65625000  1
  Li  Li85  1  0.08333300  0.86625700  0.63541700  1
  Li  Li86  1  0.08333300  0.80041000  0.67708300  1
  Li  Li87  1  0.58333300  0.73465400  0.65625000  1
  Li  Li88  1  0.08333300  0.26534600  0.63541700  1
  Li  Li89  1  0.08333300  0.19959000  0.67708300  1
  Li  Li90  1  0.58333300  0.13374300  0.65625000  1
  Li  Li91  1  0.08333300  0.06798700  0.63541700  1
  Li  Li92  1  0.08333300  0.59868000  0.67708300  1
  Li  Li93  1  0.58333300  0.53292300  0.65625000  1
  Li  Li94  1  0.08333300  0.46707700  0.63541700  1
  Li  Li95  1  0.08333300  0.40132000  0.67708300  1
  Li  Li96  1  0.08333300  0.93201300  0.71875000  1
  Li  Li97  1  0.58333300  0.86625700  0.69791700  1
  Li  Li98  1  0.58333300  0.80041000  0.73958300  1
  Li  Li99  1  0.08333300  0.73465400  0.71875000  1
  Li  Li100  1  0.58333300  0.26534600  0.69791700  1
  Li  Li101  1  0.58333300  0.19959000  0.73958300  1
  Li  Li102  1  0.08333300  0.13374300  0.71875000  1
  Li  Li103  1  0.58333300  0.06798700  0.69791700  1
  Li  Li104  1  0.58333300  0.59868000  0.73958300  1
  Li  Li105  1  0.08333300  0.53292300  0.71875000  1
  Li  Li106  1  0.58333300  0.46707700  0.69791700  1
  Li  Li107  1  0.58333300  0.40132000  0.73958300  1
  Li  Li108  1  0.58333300  0.93201300  0.78125000  1
  Li  Li109  1  0.08333300  0.86625700  0.76041700  1
  Li  Li110  1  0.08333300  0.80041000  0.80208300  1
  Li  Li111  1  0.58333300  0.73465400  0.78125000  1
  Li  Li112  1  0.08333300  0.26534600  0.76041700  1
  Li  Li113  1  0.08333300  0.19959000  0.80208300  1
  Li  Li114  1  0.58333300  0.13374300  0.78125000  1
  Li  Li115  1  0.08333300  0.06798700  0.76041700  1
  Li  Li116  1  0.08333300  0.59868000  0.80208300  1
  Li  Li117  1  0.58333300  0.53292300  0.78125000  1
  Li  Li118  1  0.08333300  0.46707700  0.76041700  1
  Li  Li119  1  0.08333300  0.40132000  0.80208300  1
  Mg  Mg120  1  0.58333300  0.00000000  0.23958300  1
  Mg  Mg121  1  0.08333300  0.33333300  0.21875000  1
  Mg  Mg122  1  0.58333300  0.66666700  0.19791700  1
  Mg  Mg123  1  0.08333300  0.00000000  0.30208300  1
  Mg  Mg124  1  0.58333300  0.33333300  0.28125000  1
  Mg  Mg125  1  0.08333300  0.66666700  0.26041700  1
  Mg  Mg126  1  0.58333300  0.00000000  0.36458300  1
  Mg  Mg127  1  0.08333300  0.33333300  0.34375000  1
  Mg  Mg128  1  0.58333300  0.66666700  0.32291700  1
  Mg  Mg129  1  0.08333300  0.00000000  0.42708300  1
  Mg  Mg130  1  0.58333300  0.33333300  0.40625000  1
  Mg  Mg131  1  0.08333300  0.66666700  0.38541700  1
  Mg  Mg132  1  0.58333300  0.00000000  0.48958300  1
  Mg  Mg133  1  0.08333300  0.33333300  0.46875000  1
  Mg  Mg134  1  0.58333300  0.66666700  0.44791700  1
  Mg  Mg135  1  0.08333300  0.00000000  0.55208300  1
  Mg  Mg136  1  0.58333300  0.33333300  0.53125000  1
  Mg  Mg137  1  0.08333300  0.66666700  0.51041700  1
  Mg  Mg138  1  0.58333300  0.00000000  0.61458300  1
  Mg  Mg139  1  0.08333300  0.33333300  0.59375000  1
  Mg  Mg140  1  0.58333300  0.66666700  0.57291700  1
  Mg  Mg141  1  0.08333300  0.00000000  0.67708300  1
  Mg  Mg142  1  0.58333300  0.33333300  0.65625000  1
  Mg  Mg143  1  0.08333300  0.66666700  0.63541700  1
  Mg  Mg144  1  0.58333300  0.00000000  0.73958300  1
  Mg  Mg145  1  0.08333300  0.33333300  0.71875000  1
  Mg  Mg146  1  0.58333300  0.66666700  0.69791700  1
  Mg  Mg147  1  0.08333300  0.00000000  0.80208300  1
  Mg  Mg148  1  0.58333300  0.33333300  0.78125000  1
  Mg  Mg149  1  0.08333300  0.66666700  0.76041700  1
