# generated using pymatgen
data_Mg7Ga15
_symmetry_space_group_name_H-M   'P 1'
_cell_length_a   4.34920200
_cell_length_b   8.34732573
_cell_length_c   43.30735800
_cell_angle_alpha   88.34823179
_cell_angle_beta   90.00000000
_cell_angle_gamma   74.89939561
_symmetry_Int_Tables_number   1
_chemical_formula_structural   Mg7Ga15
_chemical_formula_sum   'Mg14 Ga30'
_cell_volume   1517.27295674
_cell_formula_units_Z   2
loop_
 _symmetry_equiv_pos_site_id
 _symmetry_equiv_pos_as_xyz
  1  'x, y, z'
loop_
 _atom_site_type_symbol
 _atom_site_label
 _atom_site_symmetry_multiplicity
 _atom_site_fract_x
 _atom_site_fract_y
 _atom_site_fract_z
 _atom_site_occupancy
  Mg  Mg0  1  0.60941100  0.01564600  0.27564100  1
  Mg  Mg1  1  0.41710300  0.40026200  0.31410300  1
  Mg  Mg2  1  0.22479500  0.78487700  0.35256400  1
  Mg  Mg3  1  0.03248700  0.16949200  0.39102600  1
  Mg  Mg4  1  0.84018000  0.55410800  0.42948700  1
  Mg  Mg5  1  0.64787200  0.93872300  0.46794900  1
  Mg  Mg6  1  0.45556400  0.32333900  0.50641000  1
  Mg  Mg7  1  0.26325700  0.70795400  0.54487200  1
  Mg  Mg8  1  0.07094900  0.09256900  0.58333300  1
  Mg  Mg9  1  0.87864100  0.47718500  0.62179500  1
  Mg  Mg10  1  0.68633400  0.86180000  0.66025600  1
  Mg  Mg11  1  0.49402600  0.24641600  0.69871800  1
  Mg  Mg12  1  0.30171800  0.63103100  0.73717900  1
  Mg  Mg13  1  0.10941100  0.01564600  0.77564100  1
  Ga  Ga14  1  0.95469200  0.32508300  0.27325100  1
  Ga  Ga15  1  0.45643700  0.32159400  0.23956900  1
  Ga  Ga16  1  0.22392300  0.78662200  0.28607200  1
  Ga  Ga17  1  0.57007700  0.09431400  0.35017400  1
  Ga  Ga18  1  0.07182100  0.09082500  0.31649200  1
  Ga  Ga19  1  0.80259100  0.62928600  0.30367200  1
  Ga  Ga20  1  0.83930700  0.55585300  0.36299500  1
  Ga  Ga21  1  0.18546100  0.86354500  0.42709800  1
  Ga  Ga22  1  0.68720600  0.86005500  0.39341500  1
  Ga  Ga23  1  0.41797500  0.39851700  0.38059500  1
  Ga  Ga24  1  0.45469200  0.32508300  0.43991800  1
  Ga  Ga25  1  0.80084600  0.63277600  0.50402100  1
  Ga  Ga26  1  0.30259100  0.62928600  0.47033800  1
  Ga  Ga27  1  0.03336000  0.16774800  0.45751800  1
  Ga  Ga28  1  0.07007700  0.09431400  0.51684100  1
  Ga  Ga29  1  0.41623000  0.40200600  0.58094400  1
  Ga  Ga30  1  0.91797500  0.39851700  0.54726100  1
  Ga  Ga31  1  0.64874400  0.93697800  0.53444100  1
  Ga  Ga32  1  0.68546100  0.86354500  0.59376400  1
  Ga  Ga33  1  0.03161500  0.17123700  0.65786700  1
  Ga  Ga34  1  0.53336000  0.16774800  0.62418400  1
  Ga  Ga35  1  0.26412900  0.70620900  0.61136400  1
  Ga  Ga36  1  0.30084600  0.63277600  0.67068700  1
  Ga  Ga37  1  0.64700000  0.94046800  0.73479000  1
  Ga  Ga38  1  0.14874400  0.93697800  0.70110800  1
  Ga  Ga39  1  0.87951400  0.47544000  0.68828700  1
  Ga  Ga40  1  0.91623000  0.40200600  0.74761000  1
  Ga  Ga41  1  0.26238400  0.70969900  0.81171300  1
  Ga  Ga42  1  0.76412900  0.70620900  0.77803100  1
  Ga  Ga43  1  0.49489800  0.24467100  0.76521000  1
