# generated using pymatgen
data_Mg8Pd13
_symmetry_space_group_name_H-M   'P 1'
_cell_length_a   6.99934446
_cell_length_b   11.53452174
_cell_length_c   42.24661500
_cell_angle_alpha   91.81842266
_cell_angle_beta   85.69593602
_cell_angle_gamma   76.70681611
_symmetry_Int_Tables_number   1
_chemical_formula_structural   Mg8Pd13
_chemical_formula_sum   'Mg48 Pd78'
_cell_volume   3305.77428051
_cell_formula_units_Z   6
loop_
 _symmetry_equiv_pos_site_id
 _symmetry_equiv_pos_as_xyz
  1  'x, y, z'
loop_
 _atom_site_type_symbol
 _atom_site_label
 _atom_site_symmetry_multiplicity
 _atom_site_fract_x
 _atom_site_fract_y
 _atom_site_fract_z
 _atom_site_occupancy
  Mg  Mg0  1  0.81991600  0.46398300  0.22596200  1
  Mg  Mg1  1  0.31991600  0.96398300  0.22596200  1
  Mg  Mg2  1  0.86621300  0.07847900  0.24893200  1
  Mg  Mg3  1  0.77361800  0.84948700  0.20299100  1
  Mg  Mg4  1  0.16787500  0.60327100  0.22414000  1
  Mg  Mg5  1  0.47195700  0.32469500  0.22778300  1
  Mg  Mg6  1  0.43530000  0.38706000  0.30288500  1
  Mg  Mg7  1  0.93530000  0.88706000  0.30288500  1
  Mg  Mg8  1  0.48159800  0.00155600  0.32585500  1
  Mg  Mg9  1  0.38900300  0.77256400  0.27991400  1
  Mg  Mg10  1  0.78325900  0.52634800  0.30106300  1
  Mg  Mg11  1  0.08734100  0.24777200  0.30470600  1
  Mg  Mg12  1  0.05068500  0.31013700  0.37980800  1
  Mg  Mg13  1  0.55068500  0.81013700  0.37980800  1
  Mg  Mg14  1  0.09698300  0.92463300  0.40277800  1
  Mg  Mg15  1  0.00438700  0.69564100  0.35683700  1
  Mg  Mg16  1  0.39864400  0.44942500  0.37798600  1
  Mg  Mg17  1  0.70272600  0.17084900  0.38163000  1
  Mg  Mg18  1  0.66607000  0.23321400  0.45673100  1
  Mg  Mg19  1  0.16607000  0.73321400  0.45673100  1
  Mg  Mg20  1  0.71236700  0.84771000  0.47970100  1
  Mg  Mg21  1  0.61977200  0.61871800  0.43376000  1
  Mg  Mg22  1  0.01402900  0.37250200  0.45490900  1
  Mg  Mg23  1  0.31811100  0.09392600  0.45855300  1
  Mg  Mg24  1  0.28145400  0.15629100  0.53365400  1
  Mg  Mg25  1  0.78145400  0.65629100  0.53365400  1
  Mg  Mg26  1  0.32775200  0.77078700  0.55662400  1
  Mg  Mg27  1  0.23515700  0.54179500  0.51068300  1
  Mg  Mg28  1  0.62941300  0.29557900  0.53183200  1
  Mg  Mg29  1  0.93349500  0.01700300  0.53547600  1
  Mg  Mg30  1  0.89683900  0.07936800  0.61057700  1
  Mg  Mg31  1  0.39683900  0.57936800  0.61057700  1
  Mg  Mg32  1  0.94313600  0.69386400  0.63354700  1
  Mg  Mg33  1  0.85054100  0.46487200  0.58760600  1
  Mg  Mg34  1  0.24479800  0.21865600  0.60875500  1
  Mg  Mg35  1  0.54888000  0.94008000  0.61239900  1
  Mg  Mg36  1  0.51222300  0.00244500  0.68750000  1
  Mg  Mg37  1  0.01222300  0.50244500  0.68750000  1
  Mg  Mg38  1  0.55852100  0.61694100  0.71047100  1
  Mg  Mg39  1  0.46592600  0.38794900  0.66452900  1
  Mg  Mg40  1  0.86018200  0.14173300  0.68567800  1
  Mg  Mg41  1  0.16426400  0.86315600  0.68932200  1
  Mg  Mg42  1  0.12760800  0.92552200  0.76442300  1
  Mg  Mg43  1  0.62760800  0.42552200  0.76442300  1
  Mg  Mg44  1  0.17390600  0.54001700  0.78739400  1
  Mg  Mg45  1  0.08131000  0.31102600  0.74145300  1
  Mg  Mg46  1  0.47556700  0.06481000  0.76260100  1
  Mg  Mg47  1  0.77964900  0.78623300  0.76624500  1
  Pd  Pd48  1  0.16248100  0.38641200  0.19238900  1
  Pd  Pd49  1  0.47735000  0.54155400  0.25953400  1
  Pd  Pd50  1  0.06284500  0.83636700  0.24243500  1
  Pd  Pd51  1  0.57698700  0.09159900  0.20948800  1
  Pd  Pd52  1  0.15755300  0.19763700  0.23614600  1
  Pd  Pd53  1  0.48227800  0.73032900  0.21577700  1
  Pd  Pd54  1  0.79471000  0.68049300  0.25329100  1
  Pd  Pd55  1  0.84512200  0.24747400  0.19863200  1
  Pd  Pd56  1  0.62760800  0.92552200  0.26442300  1
  Pd  Pd57  1  0.12760800  0.42552200  0.26442300  1
  Pd  Pd58  1  0.77786600  0.30948900  0.26931200  1
  Pd  Pd59  1  0.09273500  0.46463100  0.33645700  1
  Pd  Pd60  1  0.67822900  0.75944400  0.31935800  1
  Pd  Pd61  1  0.19237100  0.01467600  0.28641100  1
  Pd  Pd62  1  0.77293800  0.12071400  0.31306900  1
  Pd  Pd63  1  0.09766300  0.65340600  0.29270000  1
  Pd  Pd64  1  0.41009500  0.60357000  0.33021400  1
  Pd  Pd65  1  0.46050600  0.17055100  0.27555600  1
  Pd  Pd66  1  0.24299300  0.84859900  0.34134600  1
  Pd  Pd67  1  0.74299300  0.34859900  0.34134600  1
  Pd  Pd68  1  0.39325100  0.23256600  0.34623600  1
  Pd  Pd69  1  0.70811900  0.38770800  0.41338000  1
  Pd  Pd70  1  0.29361400  0.68252100  0.39628100  1
  Pd  Pd71  1  0.80775600  0.93775300  0.36333400  1
  Pd  Pd72  1  0.38832300  0.04379100  0.38999200  1
  Pd  Pd73  1  0.71304700  0.57648300  0.36962300  1
  Pd  Pd74  1  0.02547900  0.52664600  0.40713700  1
  Pd  Pd75  1  0.07589100  0.09362800  0.35247900  1
  Pd  Pd76  1  0.85837700  0.77167500  0.41826900  1
  Pd  Pd77  1  0.35837700  0.27167500  0.41826900  1
  Pd  Pd78  1  0.00863500  0.15564300  0.42315900  1
  Pd  Pd79  1  0.32350400  0.31078500  0.49030300  1
  Pd  Pd80  1  0.90899800  0.60559800  0.47320400  1
  Pd  Pd81  1  0.42314100  0.86083000  0.44025800  1
  Pd  Pd82  1  0.00370700  0.96686800  0.46691500  1
  Pd  Pd83  1  0.32843200  0.49956000  0.44654600  1
  Pd  Pd84  1  0.64086400  0.44972300  0.48406000  1
  Pd  Pd85  1  0.69127500  0.01670400  0.42940200  1
  Pd  Pd86  1  0.47376200  0.69475200  0.49519200  1
  Pd  Pd87  1  0.97376200  0.19475200  0.49519200  1
  Pd  Pd88  1  0.62402000  0.07872000  0.50008200  1
  Pd  Pd89  1  0.93888900  0.23386200  0.56722600  1
  Pd  Pd90  1  0.52438300  0.52867500  0.55012700  1
  Pd  Pd91  1  0.03852500  0.78390700  0.51718100  1
  Pd  Pd92  1  0.61909200  0.88994500  0.54383800  1
  Pd  Pd93  1  0.94381700  0.42263700  0.52346900  1
  Pd  Pd94  1  0.25624800  0.37280000  0.56098300  1
  Pd  Pd95  1  0.30666000  0.93978100  0.50632500  1
  Pd  Pd96  1  0.08914700  0.61782900  0.57211500  1
  Pd  Pd97  1  0.58914700  0.11782900  0.57211500  1
  Pd  Pd98  1  0.23940500  0.00179700  0.57700500  1
  Pd  Pd99  1  0.55427300  0.15693900  0.64414900  1
  Pd  Pd100  1  0.13976800  0.45175200  0.62705000  1
  Pd  Pd101  1  0.65391000  0.70698400  0.59410400  1
  Pd  Pd102  1  0.23447700  0.81302200  0.62076100  1
  Pd  Pd103  1  0.55920100  0.34571400  0.60039200  1
  Pd  Pd104  1  0.87163300  0.29587700  0.63790600  1
  Pd  Pd105  1  0.92204500  0.86285800  0.58324800  1
  Pd  Pd106  1  0.70453100  0.54090600  0.64903800  1
  Pd  Pd107  1  0.20453100  0.04090600  0.64903800  1
  Pd  Pd108  1  0.85478900  0.92487400  0.65392800  1
  Pd  Pd109  1  0.16965800  0.08001500  0.72107200  1
  Pd  Pd110  1  0.75515200  0.37482800  0.70397300  1
  Pd  Pd111  1  0.26929500  0.63006100  0.67102700  1
  Pd  Pd112  1  0.84986100  0.73609900  0.69768500  1
  Pd  Pd113  1  0.17458600  0.26879100  0.67731500  1
  Pd  Pd114  1  0.48701800  0.21895400  0.71482900  1
  Pd  Pd115  1  0.53742900  0.78593500  0.66017100  1
  Pd  Pd116  1  0.31991600  0.46398300  0.72596200  1
  Pd  Pd117  1  0.81991600  0.96398300  0.72596200  1
  Pd  Pd118  1  0.47017400  0.84795100  0.73085100  1
  Pd  Pd119  1  0.78504200  0.00309200  0.79799500  1
  Pd  Pd120  1  0.37053700  0.29790500  0.78089600  1
  Pd  Pd121  1  0.88467900  0.55313800  0.74795000  1
  Pd  Pd122  1  0.46524600  0.65917600  0.77460800  1
  Pd  Pd123  1  0.78997000  0.19186800  0.75423900  1
  Pd  Pd124  1  0.10240200  0.14203100  0.79175200  1
  Pd  Pd125  1  0.15281400  0.70901200  0.73709400  1
