# generated using pymatgen
data_Mg2Hg
_symmetry_space_group_name_H-M   'P 1'
_cell_length_a   4.75496500
_cell_length_b   8.61312000
_cell_length_c   44.83598300
_cell_angle_alpha   90.00000000
_cell_angle_beta   90.00000000
_cell_angle_gamma   90.00000000
_symmetry_Int_Tables_number   1
_chemical_formula_structural   Mg2Hg
_chemical_formula_sum   'Mg28 Hg14'
_cell_volume   1836.26145630
_cell_formula_units_Z   14
loop_
 _symmetry_equiv_pos_site_id
 _symmetry_equiv_pos_as_xyz
  1  'x, y, z'
loop_
 _atom_site_type_symbol
 _atom_site_label
 _atom_site_symmetry_multiplicity
 _atom_site_fract_x
 _atom_site_fract_y
 _atom_site_fract_z
 _atom_site_occupancy
  Mg  Mg0  1  0.75000000  0.78854300  0.25465800  1
  Mg  Mg1  1  0.25000000  0.21145700  0.24534200  1
  Mg  Mg2  1  0.75000000  0.71145700  0.32608600  1
  Mg  Mg3  1  0.25000000  0.28854300  0.31677100  1
  Mg  Mg4  1  0.25000000  0.56198000  0.22464300  1
  Mg  Mg5  1  0.75000000  0.43802000  0.27535700  1
  Mg  Mg6  1  0.25000000  0.93802000  0.29607200  1
  Mg  Mg7  1  0.75000000  0.06198000  0.34678500  1
  Mg  Mg8  1  0.75000000  0.78854300  0.39751500  1
  Mg  Mg9  1  0.25000000  0.21145700  0.38819900  1
  Mg  Mg10  1  0.75000000  0.71145700  0.46894300  1
  Mg  Mg11  1  0.25000000  0.28854300  0.45962800  1
  Mg  Mg12  1  0.25000000  0.56198000  0.36750000  1
  Mg  Mg13  1  0.75000000  0.43802000  0.41821400  1
  Mg  Mg14  1  0.25000000  0.93802000  0.43892900  1
  Mg  Mg15  1  0.75000000  0.06198000  0.48964300  1
  Mg  Mg16  1  0.75000000  0.78854300  0.54037200  1
  Mg  Mg17  1  0.25000000  0.21145700  0.53105700  1
  Mg  Mg18  1  0.75000000  0.71145700  0.61180100  1
  Mg  Mg19  1  0.25000000  0.28854300  0.60248500  1
  Mg  Mg20  1  0.25000000  0.56198000  0.51035700  1
  Mg  Mg21  1  0.75000000  0.43802000  0.56107100  1
  Mg  Mg22  1  0.25000000  0.93802000  0.58178600  1
  Mg  Mg23  1  0.75000000  0.06198000  0.63250000  1
  Mg  Mg24  1  0.75000000  0.78854300  0.68322900  1
  Mg  Mg25  1  0.25000000  0.21145700  0.67391400  1
  Mg  Mg26  1  0.25000000  0.56198000  0.65321500  1
  Mg  Mg27  1  0.75000000  0.43802000  0.70392800  1
  Hg  Hg28  1  0.75000000  0.10846200  0.28146600  1
  Hg  Hg29  1  0.25000000  0.89153800  0.21853400  1
  Hg  Hg30  1  0.75000000  0.39153800  0.35289500  1
  Hg  Hg31  1  0.25000000  0.60846200  0.28996300  1
  Hg  Hg32  1  0.75000000  0.10846200  0.42432300  1
  Hg  Hg33  1  0.25000000  0.89153800  0.36139100  1
  Hg  Hg34  1  0.75000000  0.39153800  0.49575200  1
  Hg  Hg35  1  0.25000000  0.60846200  0.43282000  1
  Hg  Hg36  1  0.75000000  0.10846200  0.56718000  1
  Hg  Hg37  1  0.25000000  0.89153800  0.50424800  1
  Hg  Hg38  1  0.75000000  0.39153800  0.63860900  1
  Hg  Hg39  1  0.25000000  0.60846200  0.57567700  1
  Hg  Hg40  1  0.75000000  0.10846200  0.71003700  1
  Hg  Hg41  1  0.25000000  0.89153800  0.64710500  1
