# generated using pymatgen
data_Mg2Hg
_symmetry_space_group_name_H-M   'P 1'
_cell_length_a   5.97810100
_cell_length_b   8.30244934
_cell_length_c   50.50182800
_cell_angle_alpha   94.71500304
_cell_angle_beta   90.00000000
_cell_angle_gamma   90.00000000
_symmetry_Int_Tables_number   1
_chemical_formula_structural   Mg2Hg
_chemical_formula_sum   'Mg40 Hg20'
_cell_volume   2498.06877802
_cell_formula_units_Z   20
loop_
 _symmetry_equiv_pos_site_id
 _symmetry_equiv_pos_as_xyz
  1  'x, y, z'
loop_
 _atom_site_type_symbol
 _atom_site_label
 _atom_site_symmetry_multiplicity
 _atom_site_fract_x
 _atom_site_fract_y
 _atom_site_fract_z
 _atom_site_occupancy
  Mg  Mg0  1  0.25000000  0.97427900  0.30357100  1
  Mg  Mg1  1  0.75000000  0.83260400  0.26815300  1
  Mg  Mg2  1  0.75000000  0.86802200  0.33899000  1
  Mg  Mg3  1  0.25000000  0.58467200  0.26815300  1
  Mg  Mg4  1  0.25000000  0.62009100  0.33899000  1
  Mg  Mg5  1  0.75000000  0.47841600  0.30357100  1
  Mg  Mg6  1  0.50000000  0.20253800  0.25595200  1
  Mg  Mg7  1  0.00000000  0.25015700  0.35119000  1
  Mg  Mg8  1  0.50000000  0.25015700  0.35119000  1
  Mg  Mg9  1  0.00000000  0.20253800  0.25595200  1
  Mg  Mg10  1  0.25000000  0.54570700  0.44642900  1
  Mg  Mg11  1  0.75000000  0.40403200  0.41101000  1
  Mg  Mg12  1  0.75000000  0.43945100  0.48184700  1
  Mg  Mg13  1  0.25000000  0.15610100  0.41101000  1
  Mg  Mg14  1  0.25000000  0.19152000  0.48184700  1
  Mg  Mg15  1  0.75000000  0.04984500  0.44642900  1
  Mg  Mg16  1  0.50000000  0.77396600  0.39881000  1
  Mg  Mg17  1  0.00000000  0.82158600  0.49404800  1
  Mg  Mg18  1  0.50000000  0.82158600  0.49404800  1
  Mg  Mg19  1  0.00000000  0.77396600  0.39881000  1
  Mg  Mg20  1  0.25000000  0.11713600  0.58928600  1
  Mg  Mg21  1  0.75000000  0.97546100  0.55386700  1
  Mg  Mg22  1  0.75000000  0.01088000  0.62470400  1
  Mg  Mg23  1  0.25000000  0.72753000  0.55386700  1
  Mg  Mg24  1  0.25000000  0.76294800  0.62470400  1
  Mg  Mg25  1  0.75000000  0.62127300  0.58928600  1
  Mg  Mg26  1  0.50000000  0.34539500  0.54166700  1
  Mg  Mg27  1  0.00000000  0.39301400  0.63690500  1
  Mg  Mg28  1  0.50000000  0.39301400  0.63690500  1
  Mg  Mg29  1  0.00000000  0.34539500  0.54166700  1
  Mg  Mg30  1  0.25000000  0.68856400  0.73214300  1
  Mg  Mg31  1  0.75000000  0.54688900  0.69672400  1
  Mg  Mg32  1  0.75000000  0.58230800  0.76756200  1
  Mg  Mg33  1  0.25000000  0.29895800  0.69672400  1
  Mg  Mg34  1  0.25000000  0.33437700  0.76756200  1
  Mg  Mg35  1  0.75000000  0.19270200  0.73214300  1
  Mg  Mg36  1  0.50000000  0.91682400  0.68452400  1
  Mg  Mg37  1  0.00000000  0.96444300  0.77976200  1
  Mg  Mg38  1  0.50000000  0.96444300  0.77976200  1
  Mg  Mg39  1  0.00000000  0.91682400  0.68452400  1
  Hg  Hg40  1  0.25000000  0.33672600  0.30357100  1
  Hg  Hg41  1  0.75000000  0.11596900  0.30357100  1
  Hg  Hg42  1  0.25000000  0.90815500  0.44642900  1
  Hg  Hg43  1  0.75000000  0.55936700  0.35923200  1
  Hg  Hg44  1  0.75000000  0.07513500  0.39076800  1
  Hg  Hg45  1  0.25000000  0.94898800  0.35923200  1
  Hg  Hg46  1  0.25000000  0.46475700  0.39076800  1
  Hg  Hg47  1  0.75000000  0.68739700  0.44642900  1
  Hg  Hg48  1  0.25000000  0.47958300  0.58928600  1
  Hg  Hg49  1  0.75000000  0.13079500  0.50208900  1
  Hg  Hg50  1  0.75000000  0.64656400  0.53362600  1
  Hg  Hg51  1  0.25000000  0.52041700  0.50208900  1
  Hg  Hg52  1  0.25000000  0.03618500  0.53362600  1
  Hg  Hg53  1  0.75000000  0.25882600  0.58928600  1
  Hg  Hg54  1  0.25000000  0.05101200  0.73214300  1
  Hg  Hg55  1  0.75000000  0.70222400  0.64494600  1
  Hg  Hg56  1  0.75000000  0.21799200  0.67648300  1
  Hg  Hg57  1  0.25000000  0.09184500  0.64494600  1
  Hg  Hg58  1  0.25000000  0.60761400  0.67648300  1
  Hg  Hg59  1  0.75000000  0.83025400  0.73214300  1
