# generated using pymatgen
data_Ce2Mg
_symmetry_space_group_name_H-M   'P 1'
_cell_length_a   6.12314821
_cell_length_b   9.39222206
_cell_length_c   42.96888300
_cell_angle_alpha   94.02189718
_cell_angle_beta   91.04336207
_cell_angle_gamma   94.98002187
_symmetry_Int_Tables_number   1
_chemical_formula_structural   Ce2Mg
_chemical_formula_sum   'Ce40 Mg20'
_cell_volume   2455.01380564
_cell_formula_units_Z   20
loop_
 _symmetry_equiv_pos_site_id
 _symmetry_equiv_pos_as_xyz
  1  'x, y, z'
loop_
 _atom_site_type_symbol
 _atom_site_label
 _atom_site_symmetry_multiplicity
 _atom_site_fract_x
 _atom_site_fract_y
 _atom_site_fract_z
 _atom_site_occupancy
  Ce  Ce0  1  0.09494300  0.48580800  0.22626400  1
  Ce  Ce1  1  0.01173400  0.84093600  0.24706700  1
  Ce  Ce2  1  0.73826600  0.59656400  0.19043300  1
  Ce  Ce3  1  0.65505700  0.95169200  0.21123600  1
  Ce  Ce4  1  0.84494300  0.54830800  0.28876400  1
  Ce  Ce5  1  0.76173400  0.90343600  0.30956700  1
  Ce  Ce6  1  0.48826600  0.65906400  0.25293300  1
  Ce  Ce7  1  0.40505700  0.01419200  0.27373600  1
  Ce  Ce8  1  0.59494300  0.61080800  0.35126400  1
  Ce  Ce9  1  0.51173400  0.96593600  0.37206700  1
  Ce  Ce10  1  0.23826600  0.72156400  0.31543300  1
  Ce  Ce11  1  0.15505700  0.07669200  0.33623600  1
  Ce  Ce12  1  0.34494300  0.67330800  0.41376400  1
  Ce  Ce13  1  0.26173400  0.02843600  0.43456700  1
  Ce  Ce14  1  0.98826600  0.78406400  0.37793300  1
  Ce  Ce15  1  0.90505700  0.13919200  0.39873600  1
  Ce  Ce16  1  0.09494300  0.73580800  0.47626400  1
  Ce  Ce17  1  0.01173400  0.09093600  0.49706700  1
  Ce  Ce18  1  0.73826600  0.84656400  0.44043300  1
  Ce  Ce19  1  0.65505700  0.20169200  0.46123600  1
  Ce  Ce20  1  0.84494300  0.79830800  0.53876400  1
  Ce  Ce21  1  0.76173400  0.15343600  0.55956700  1
  Ce  Ce22  1  0.48826600  0.90906400  0.50293300  1
  Ce  Ce23  1  0.40505700  0.26419200  0.52373600  1
  Ce  Ce24  1  0.59494300  0.86080800  0.60126400  1
  Ce  Ce25  1  0.51173400  0.21593600  0.62206700  1
  Ce  Ce26  1  0.23826600  0.97156400  0.56543300  1
  Ce  Ce27  1  0.15505700  0.32669200  0.58623600  1
  Ce  Ce28  1  0.34494300  0.92330800  0.66376400  1
  Ce  Ce29  1  0.26173400  0.27843600  0.68456700  1
  Ce  Ce30  1  0.98826600  0.03406400  0.62793300  1
  Ce  Ce31  1  0.90505700  0.38919200  0.64873600  1
  Ce  Ce32  1  0.09494300  0.98580800  0.72626400  1
  Ce  Ce33  1  0.01173400  0.34093600  0.74706700  1
  Ce  Ce34  1  0.73826600  0.09656400  0.69043300  1
  Ce  Ce35  1  0.65505700  0.45169200  0.71123600  1
  Ce  Ce36  1  0.84494300  0.04830800  0.78876400  1
  Ce  Ce37  1  0.76173400  0.40343600  0.80956700  1
  Ce  Ce38  1  0.48826600  0.15906400  0.75293300  1
  Ce  Ce39  1  0.40505700  0.51419200  0.77373600  1
  Mg  Mg40  1  0.17725900  0.12375900  0.20568500  1
  Mg  Mg41  1  0.57274100  0.31374100  0.23181500  1
  Mg  Mg42  1  0.92725900  0.18625900  0.26818500  1
  Mg  Mg43  1  0.32274100  0.37624100  0.29431500  1
  Mg  Mg44  1  0.67725900  0.24875900  0.33068500  1
  Mg  Mg45  1  0.07274100  0.43874100  0.35681500  1
  Mg  Mg46  1  0.42725900  0.31125900  0.39318500  1
  Mg  Mg47  1  0.82274100  0.50124100  0.41931500  1
  Mg  Mg48  1  0.17725900  0.37375900  0.45568500  1
  Mg  Mg49  1  0.57274100  0.56374100  0.48181500  1
  Mg  Mg50  1  0.92725900  0.43625900  0.51818500  1
  Mg  Mg51  1  0.32274100  0.62624100  0.54431500  1
  Mg  Mg52  1  0.67725900  0.49875900  0.58068500  1
  Mg  Mg53  1  0.07274100  0.68874100  0.60681500  1
  Mg  Mg54  1  0.42725900  0.56125900  0.64318500  1
  Mg  Mg55  1  0.82274100  0.75124100  0.66931500  1
  Mg  Mg56  1  0.17725900  0.62375900  0.70568500  1
  Mg  Mg57  1  0.57274100  0.81374100  0.73181500  1
  Mg  Mg58  1  0.92725900  0.68625900  0.76818500  1
  Mg  Mg59  1  0.32274100  0.87624100  0.79431500  1
