# generated using pymatgen
data_Mg3Sc7
_symmetry_space_group_name_H-M   'P 1'
_cell_length_a   3.35466600
_cell_length_b   5.16406100
_cell_length_c   49.45614300
_cell_angle_alpha   90.00000000
_cell_angle_beta   90.00000000
_cell_angle_gamma   90.00000000
_symmetry_Int_Tables_number   1
_chemical_formula_structural   Mg3Sc7
_chemical_formula_sum   'Mg6 Sc14'
_cell_volume   856.76337750
_cell_formula_units_Z   2
loop_
 _symmetry_equiv_pos_site_id
 _symmetry_equiv_pos_as_xyz
  1  'x, y, z'
loop_
 _atom_site_type_symbol
 _atom_site_label
 _atom_site_symmetry_multiplicity
 _atom_site_fract_x
 _atom_site_fract_y
 _atom_site_fract_z
 _atom_site_occupancy
  Mg  Mg0  1  0.50000000  0.25000000  0.25697700  1
  Mg  Mg1  1  0.00000000  0.75000000  0.46524500  1
  Mg  Mg2  1  1.00000000  0.25000000  0.42364400  1
  Mg  Mg3  1  0.50000000  0.75000000  0.29857800  1
  Mg  Mg4  1  0.50000000  0.25000000  0.59031000  1
  Mg  Mg5  1  0.50000000  0.75000000  0.63191200  1
  Sc  Sc6  1  0.50000000  0.25000000  0.47857700  1
  Sc  Sc7  1  1.00000000  0.25000000  0.20218500  1
  Sc  Sc8  1  1.00000000  0.75000000  0.24364500  1
  Sc  Sc9  1  0.50000000  0.75000000  0.18670400  1
  Sc  Sc10  1  1.00000000  0.25000000  0.31191100  1
  Sc  Sc11  1  0.50000000  0.25000000  0.36885200  1
  Sc  Sc12  1  0.50000000  0.75000000  0.41031200  1
  Sc  Sc13  1  1.00000000  0.75000000  0.35337000  1
  Sc  Sc14  1  1.00000000  0.25000000  0.53551900  1
  Sc  Sc15  1  1.00000000  0.75000000  0.57697800  1
  Sc  Sc16  1  0.50000000  0.75000000  0.52003700  1
  Sc  Sc17  1  1.00000000  0.25000000  0.64524400  1
  Sc  Sc18  1  0.50000000  0.25000000  0.70218500  1
  Sc  Sc19  1  1.00000000  0.75000000  0.68670400  1
