# generated using pymatgen
data_MgPd2
_symmetry_space_group_name_H-M   'P 1'
_cell_length_a   4.19057600
_cell_length_b   8.17953600
_cell_length_c   44.31077100
_cell_angle_alpha   90.00000000
_cell_angle_beta   90.00000000
_cell_angle_gamma   90.00000000
_symmetry_Int_Tables_number   1
_chemical_formula_structural   MgPd2
_chemical_formula_sum   'Mg18 Pd36'
_cell_volume   1518.83884651
_cell_formula_units_Z   18
loop_
 _symmetry_equiv_pos_site_id
 _symmetry_equiv_pos_as_xyz
  1  'x, y, z'
loop_
 _atom_site_type_symbol
 _atom_site_label
 _atom_site_symmetry_multiplicity
 _atom_site_fract_x
 _atom_site_fract_y
 _atom_site_fract_z
 _atom_site_occupancy
  Mg  Mg0  1  0.25000000  0.59827400  0.26017400  1
  Mg  Mg1  1  0.75000000  0.40172600  0.30232600  1
  Mg  Mg2  1  0.25000000  0.90172600  0.19767400  1
  Mg  Mg3  1  0.75000000  0.09827400  0.23982600  1
  Mg  Mg4  1  0.25000000  0.59827400  0.38517400  1
  Mg  Mg5  1  0.75000000  0.40172600  0.42732600  1
  Mg  Mg6  1  0.25000000  0.90172600  0.32267400  1
  Mg  Mg7  1  0.75000000  0.09827400  0.36482600  1
  Mg  Mg8  1  0.25000000  0.59827400  0.51017400  1
  Mg  Mg9  1  0.75000000  0.40172600  0.55232600  1
  Mg  Mg10  1  0.25000000  0.90172600  0.44767400  1
  Mg  Mg11  1  0.75000000  0.09827400  0.48982600  1
  Mg  Mg12  1  0.25000000  0.59827400  0.63517400  1
  Mg  Mg13  1  0.75000000  0.40172600  0.67732600  1
  Mg  Mg14  1  0.25000000  0.90172600  0.57267400  1
  Mg  Mg15  1  0.75000000  0.09827400  0.61482600  1
  Mg  Mg16  1  0.25000000  0.90172600  0.69767400  1
  Mg  Mg17  1  0.75000000  0.09827400  0.73982600  1
  Pd  Pd18  1  0.25000000  0.92737900  0.26138800  1
  Pd  Pd19  1  0.75000000  0.07262100  0.30111200  1
  Pd  Pd20  1  0.25000000  0.57262100  0.19888800  1
  Pd  Pd21  1  0.75000000  0.42737900  0.23861200  1
  Pd  Pd22  1  0.25000000  0.26411300  0.27274100  1
  Pd  Pd23  1  0.75000000  0.73588700  0.28975900  1
  Pd  Pd24  1  0.25000000  0.23588700  0.21024100  1
  Pd  Pd25  1  0.75000000  0.76411300  0.22725900  1
  Pd  Pd26  1  0.25000000  0.92737900  0.38638800  1
  Pd  Pd27  1  0.75000000  0.07262100  0.42611200  1
  Pd  Pd28  1  0.25000000  0.57262100  0.32388800  1
  Pd  Pd29  1  0.75000000  0.42737900  0.36361200  1
  Pd  Pd30  1  0.25000000  0.26411300  0.39774100  1
  Pd  Pd31  1  0.75000000  0.73588700  0.41475900  1
  Pd  Pd32  1  0.25000000  0.23588700  0.33524100  1
  Pd  Pd33  1  0.75000000  0.76411300  0.35225900  1
  Pd  Pd34  1  0.25000000  0.92737900  0.51138800  1
  Pd  Pd35  1  0.75000000  0.07262100  0.55111200  1
  Pd  Pd36  1  0.25000000  0.57262100  0.44888800  1
  Pd  Pd37  1  0.75000000  0.42737900  0.48861200  1
  Pd  Pd38  1  0.25000000  0.26411300  0.52274100  1
  Pd  Pd39  1  0.75000000  0.73588700  0.53975900  1
  Pd  Pd40  1  0.25000000  0.23588700  0.46024100  1
  Pd  Pd41  1  0.75000000  0.76411300  0.47725900  1
  Pd  Pd42  1  0.25000000  0.92737900  0.63638800  1
  Pd  Pd43  1  0.75000000  0.07262100  0.67611200  1
  Pd  Pd44  1  0.25000000  0.57262100  0.57388800  1
  Pd  Pd45  1  0.75000000  0.42737900  0.61361200  1
  Pd  Pd46  1  0.25000000  0.26411300  0.64774100  1
  Pd  Pd47  1  0.75000000  0.73588700  0.66475900  1
  Pd  Pd48  1  0.25000000  0.23588700  0.58524100  1
  Pd  Pd49  1  0.75000000  0.76411300  0.60225900  1
  Pd  Pd50  1  0.25000000  0.57262100  0.69888800  1
  Pd  Pd51  1  0.75000000  0.42737900  0.73861200  1
  Pd  Pd52  1  0.25000000  0.23588700  0.71024100  1
  Pd  Pd53  1  0.75000000  0.76411300  0.72725900  1
