# generated using pymatgen
data_Mg14Ir29
_symmetry_space_group_name_H-M   'P 1'
_cell_length_a   9.02422000
_cell_length_b   9.93407692
_cell_length_c   44.98304800
_cell_angle_alpha   85.57227208
_cell_angle_beta   90.00000000
_cell_angle_gamma   62.98618901
_symmetry_Int_Tables_number   1
_chemical_formula_structural   Mg14Ir29
_chemical_formula_sum   'Mg42 Ir87'
_cell_volume   3579.12472746
_cell_formula_units_Z   3
loop_
 _symmetry_equiv_pos_site_id
 _symmetry_equiv_pos_as_xyz
  1  'x, y, z'
loop_
 _atom_site_type_symbol
 _atom_site_label
 _atom_site_symmetry_multiplicity
 _atom_site_fract_x
 _atom_site_fract_y
 _atom_site_fract_z
 _atom_site_occupancy
  Mg  Mg0  1  0.15472500  0.52438600  0.21911300  1
  Mg  Mg1  1  0.26583700  0.96883100  0.24689100  1
  Mg  Mg2  1  0.54942600  0.40165200  0.21144200  1
  Mg  Mg3  1  0.99387000  0.84609600  0.23922000  1
  Mg  Mg4  1  0.71028100  0.41327500  0.27466900  1
  Mg  Mg5  1  0.82139200  0.85771900  0.30244700  1
  Mg  Mg6  1  0.10498200  0.29054100  0.26699800  1
  Mg  Mg7  1  0.54942600  0.73498500  0.29477600  1
  Mg  Mg8  1  0.26583700  0.30216400  0.33022400  1
  Mg  Mg9  1  0.37694800  0.74660800  0.35800200  1
  Mg  Mg10  1  0.66053700  0.17942900  0.32255300  1
  Mg  Mg11  1  0.10498200  0.62387400  0.35033100  1
  Mg  Mg12  1  0.82139200  0.19105300  0.38578000  1
  Mg  Mg13  1  0.93250300  0.63549700  0.41355800  1
  Mg  Mg14  1  0.21609300  0.06831800  0.37810900  1
  Mg  Mg15  1  0.66053700  0.51276300  0.40588700  1
  Mg  Mg16  1  0.37694800  0.07994200  0.44133500  1
  Mg  Mg17  1  0.48805900  0.52438600  0.46911300  1
  Mg  Mg18  1  0.77164800  0.95720700  0.43366500  1
  Mg  Mg19  1  0.21609300  0.40165200  0.46144200  1
  Mg  Mg20  1  0.93250300  0.96883100  0.49689100  1
  Mg  Mg21  1  0.04361400  0.41327500  0.52466900  1
  Mg  Mg22  1  0.32720400  0.84609600  0.48922000  1
  Mg  Mg23  1  0.77164800  0.29054100  0.51699800  1
  Mg  Mg24  1  0.48805900  0.85771900  0.55244700  1
  Mg  Mg25  1  0.59917000  0.30216400  0.58022400  1
  Mg  Mg26  1  0.88275900  0.73498500  0.54477600  1
  Mg  Mg27  1  0.32720400  0.17942900  0.57255300  1
  Mg  Mg28  1  0.04361400  0.74660800  0.60800200  1
  Mg  Mg29  1  0.15472500  0.19105300  0.63578000  1
  Mg  Mg30  1  0.43831500  0.62387400  0.60033100  1
  Mg  Mg31  1  0.88275900  0.06831800  0.62810900  1
  Mg  Mg32  1  0.59917000  0.63549700  0.66355800  1
  Mg  Mg33  1  0.71028100  0.07994200  0.69133500  1
  Mg  Mg34  1  0.99387000  0.51276300  0.65588700  1
  Mg  Mg35  1  0.43831500  0.95720700  0.68366500  1
  Mg  Mg36  1  0.15472500  0.52438600  0.71911300  1
  Mg  Mg37  1  0.26583700  0.96883100  0.74689100  1
  Mg  Mg38  1  0.54942600  0.40165200  0.71144200  1
  Mg  Mg39  1  0.99387000  0.84609600  0.73922000  1
  Mg  Mg40  1  0.71028100  0.41327500  0.77466900  1
  Mg  Mg41  1  0.10498200  0.29054100  0.76699800  1
  Ir  Ir42  1  0.85207600  0.46301900  0.21527800  1
  Ir  Ir43  1  0.62985400  0.90746300  0.24305600  1
  Ir  Ir44  1  0.79822000  0.74249700  0.20053900  1
  Ir  Ir45  1  0.40423100  0.18694100  0.22831700  1
  Ir  Ir46  1  0.13495400  0.24079700  0.20138900  1
  Ir  Ir47  1  0.56919700  0.68524100  0.22916700  1
  Ir  Ir48  1  0.29992100  0.73909600  0.20223900  1
  Ir  Ir49  1  0.90593100  0.18354100  0.23001700  1
  Ir  Ir50  1  0.40763100  0.35190800  0.27083300  1
  Ir  Ir51  1  0.18540900  0.79635200  0.29861100  1
  Ir  Ir52  1  0.35377600  0.63138600  0.25609400  1
  Ir  Ir53  1  0.95978600  0.07583000  0.28387200  1
  Ir  Ir54  1  0.69051000  0.12968600  0.25694400  1
  Ir  Ir55  1  0.12475300  0.57413000  0.28472200  1
  Ir  Ir56  1  0.85547600  0.62798500  0.25779500  1
  Ir  Ir57  1  0.46148700  0.07243000  0.28557200  1
  Ir  Ir58  1  0.96318700  0.24079700  0.32638900  1
  Ir  Ir59  1  0.74096500  0.68524100  0.35416700  1
  Ir  Ir60  1  0.90933200  0.52027500  0.31165000  1
  Ir  Ir61  1  0.51534200  0.96471900  0.33942800  1
  Ir  Ir62  1  0.24606600  0.01857400  0.31250000  1
  Ir  Ir63  1  0.68030800  0.46301900  0.34027800  1
  Ir  Ir64  1  0.41103200  0.51687400  0.31335000  1
  Ir  Ir65  1  0.01704200  0.96131900  0.34112800  1
  Ir  Ir66  1  0.51874200  0.12968600  0.38194400  1
  Ir  Ir67  1  0.29652000  0.57413000  0.40972200  1
  Ir  Ir68  1  0.46488700  0.40916400  0.36720500  1
  Ir  Ir69  1  0.07089700  0.85360800  0.39498300  1
  Ir  Ir70  1  0.80162100  0.90746300  0.36805600  1
  Ir  Ir71  1  0.23586400  0.35190800  0.39583300  1
  Ir  Ir72  1  0.96658700  0.40576300  0.36890600  1
  Ir  Ir73  1  0.57259800  0.85020800  0.39668300  1
  Ir  Ir74  1  0.07429800  0.01857400  0.43750000  1
  Ir  Ir75  1  0.85207600  0.46301900  0.46527800  1
  Ir  Ir76  1  0.02044300  0.29805300  0.42276100  1
  Ir  Ir77  1  0.62645300  0.74249700  0.45053900  1
  Ir  Ir78  1  0.35717700  0.79635200  0.42361100  1
  Ir  Ir79  1  0.79141900  0.24079700  0.45138900  1
  Ir  Ir80  1  0.52214300  0.29465200  0.42446100  1
  Ir  Ir81  1  0.12815300  0.73909600  0.45223900  1
  Ir  Ir82  1  0.62985400  0.90746300  0.49305600  1
  Ir  Ir83  1  0.40763100  0.35190800  0.52083300  1
  Ir  Ir84  1  0.57599800  0.18694100  0.47831700  1
  Ir  Ir85  1  0.18200800  0.63138600  0.50609400  1
  Ir  Ir86  1  0.91273200  0.68524100  0.47916700  1
  Ir  Ir87  1  0.34697500  0.12968600  0.50694400  1
  Ir  Ir88  1  0.07769900  0.18354100  0.48001700  1
  Ir  Ir89  1  0.68370900  0.62798500  0.50779500  1
  Ir  Ir90  1  0.18540900  0.79635200  0.54861100  1
  Ir  Ir91  1  0.96318700  0.24079700  0.57638900  1
  Ir  Ir92  1  0.13155400  0.07583000  0.53387200  1
  Ir  Ir93  1  0.73756400  0.52027500  0.56165000  1
  Ir  Ir94  1  0.46828800  0.57413000  0.53472200  1
  Ir  Ir95  1  0.90253000  0.01857400  0.56250000  1
  Ir  Ir96  1  0.63325400  0.07243000  0.53557200  1
  Ir  Ir97  1  0.23926400  0.51687400  0.56335000  1
  Ir  Ir98  1  0.74096500  0.68524100  0.60416700  1
  Ir  Ir99  1  0.51874200  0.12968600  0.63194400  1
  Ir  Ir100  1  0.68710900  0.96471900  0.58942800  1
  Ir  Ir101  1  0.29312000  0.40916400  0.61720500  1
  Ir  Ir102  1  0.02384300  0.46301900  0.59027800  1
  Ir  Ir103  1  0.45808600  0.90746300  0.61805600  1
  Ir  Ir104  1  0.18881000  0.96131900  0.59112800  1
  Ir  Ir105  1  0.79482000  0.40576300  0.61890600  1
  Ir  Ir106  1  0.29652000  0.57413000  0.65972200  1
  Ir  Ir107  1  0.07429800  0.01857400  0.68750000  1
  Ir  Ir108  1  0.24266500  0.85360800  0.64498300  1
  Ir  Ir109  1  0.84867500  0.29805300  0.67276100  1
  Ir  Ir110  1  0.57939900  0.35190800  0.64583300  1
  Ir  Ir111  1  0.01364200  0.79635200  0.67361100  1
  Ir  Ir112  1  0.74436500  0.85020800  0.64668300  1
  Ir  Ir113  1  0.35037500  0.29465200  0.67446100  1
  Ir  Ir114  1  0.85207600  0.46301900  0.71527800  1
  Ir  Ir115  1  0.62985400  0.90746300  0.74305600  1
  Ir  Ir116  1  0.79822000  0.74249700  0.70053900  1
  Ir  Ir117  1  0.40423100  0.18694100  0.72831700  1
  Ir  Ir118  1  0.13495400  0.24079700  0.70138900  1
  Ir  Ir119  1  0.56919700  0.68524100  0.72916700  1
  Ir  Ir120  1  0.29992100  0.73909600  0.70223900  1
  Ir  Ir121  1  0.90593100  0.18354100  0.73001700  1
  Ir  Ir122  1  0.40763100  0.35190800  0.77083300  1
  Ir  Ir123  1  0.35377600  0.63138600  0.75609400  1
  Ir  Ir124  1  0.95978600  0.07583000  0.78387200  1
  Ir  Ir125  1  0.69051000  0.12968600  0.75694400  1
  Ir  Ir126  1  0.12475300  0.57413000  0.78472200  1
  Ir  Ir127  1  0.85547600  0.62798500  0.75779500  1
  Ir  Ir128  1  0.46148700  0.07243000  0.78557200  1
