# generated using pymatgen
data_Mg19Hg11
_symmetry_space_group_name_H-M   'P 1'
_cell_length_a   5.97810100
_cell_length_b   8.30244934
_cell_length_c   50.50182800
_cell_angle_alpha   94.71500304
_cell_angle_beta   90.00000000
_cell_angle_gamma   90.00000000
_symmetry_Int_Tables_number   1
_chemical_formula_structural   Mg19Hg11
_chemical_formula_sum   'Mg38 Hg22'
_cell_volume   2498.06877802
_cell_formula_units_Z   2
loop_
 _symmetry_equiv_pos_site_id
 _symmetry_equiv_pos_as_xyz
  1  'x, y, z'
loop_
 _atom_site_type_symbol
 _atom_site_label
 _atom_site_symmetry_multiplicity
 _atom_site_fract_x
 _atom_site_fract_y
 _atom_site_fract_z
 _atom_site_occupancy
  Mg  Mg0  1  0.25000000  0.87248800  0.33928600  1
  Mg  Mg1  1  0.75000000  0.73081300  0.30386700  1
  Mg  Mg2  1  0.75000000  0.19480300  0.23184700  1
  Mg  Mg3  1  0.25000000  0.48288200  0.30386700  1
  Mg  Mg4  1  0.25000000  0.94687200  0.23184700  1
  Mg  Mg5  1  0.75000000  0.37662600  0.33928600  1
  Mg  Mg6  1  0.50000000  0.10074700  0.29166700  1
  Mg  Mg7  1  0.00000000  0.57693800  0.24404800  1
  Mg  Mg8  1  0.50000000  0.57693800  0.24404800  1
  Mg  Mg9  1  0.00000000  0.10074700  0.29166700  1
  Mg  Mg10  1  0.25000000  0.44391600  0.48214300  1
  Mg  Mg11  1  0.75000000  0.30224100  0.44672400  1
  Mg  Mg12  1  0.75000000  0.76623200  0.37470400  1
  Mg  Mg13  1  0.25000000  0.05431000  0.44672400  1
  Mg  Mg14  1  0.25000000  0.51830000  0.37470400  1
  Mg  Mg15  1  0.75000000  0.94805400  0.48214300  1
  Mg  Mg16  1  0.50000000  0.67217600  0.43452400  1
  Mg  Mg17  1  0.00000000  0.14836600  0.38690500  1
  Mg  Mg18  1  0.50000000  0.14836600  0.38690500  1
  Mg  Mg19  1  0.00000000  0.67217600  0.43452400  1
  Mg  Mg20  1  0.25000000  0.01534500  0.62500000  1
  Mg  Mg21  1  0.75000000  0.87367000  0.58958100  1
  Mg  Mg22  1  0.75000000  0.33766000  0.51756200  1
  Mg  Mg23  1  0.25000000  0.62573900  0.58958100  1
  Mg  Mg24  1  0.25000000  0.08972900  0.51756200  1
  Mg  Mg25  1  0.75000000  0.51948300  0.62500000  1
  Mg  Mg26  1  0.50000000  0.24360400  0.57738100  1
  Mg  Mg27  1  1.00000000  0.71979500  0.52976200  1
  Mg  Mg28  1  0.50000000  0.71979500  0.52976200  1
  Mg  Mg29  1  0.00000000  0.24360400  0.57738100  1
  Mg  Mg30  1  0.75000000  0.44509900  0.73243800  1
  Mg  Mg31  1  0.75000000  0.90908900  0.66041900  1
  Mg  Mg32  1  0.25000000  0.19716700  0.73243800  1
  Mg  Mg33  1  0.25000000  0.66115800  0.66041900  1
  Mg  Mg34  1  0.50000000  0.81503300  0.72023800  1
  Mg  Mg35  1  0.00000000  0.29122300  0.67261900  1
  Mg  Mg36  1  0.50000000  0.29122300  0.67261900  1
  Mg  Mg37  1  0.00000000  0.81503300  0.72023800  1
  Hg  Hg38  1  0.25000000  0.23493500  0.33928600  1
  Hg  Hg39  1  0.75000000  0.88614800  0.25208900  1
  Hg  Hg40  1  0.75000000  0.40191600  0.28362600  1
  Hg  Hg41  1  0.25000000  0.27576900  0.25208900  1
  Hg  Hg42  1  0.25000000  0.79153700  0.28362600  1
  Hg  Hg43  1  0.75000000  0.01417800  0.33928600  1
  Hg  Hg44  1  0.25000000  0.80636400  0.48214300  1
  Hg  Hg45  1  0.75000000  0.45757600  0.39494600  1
  Hg  Hg46  1  0.75000000  0.97334400  0.42648300  1
  Hg  Hg47  1  0.25000000  0.84719700  0.39494600  1
  Hg  Hg48  1  0.25000000  0.36296600  0.42648300  1
  Hg  Hg49  1  0.75000000  0.58560700  0.48214300  1
  Hg  Hg50  1  0.25000000  0.37779300  0.62500000  1
  Hg  Hg51  1  0.75000000  0.02900500  0.53780300  1
  Hg  Hg52  1  0.75000000  0.54477300  0.56934000  1
  Hg  Hg53  1  0.25000000  0.41862600  0.53780300  1
  Hg  Hg54  1  0.25000000  0.93439400  0.56934000  1
  Hg  Hg55  1  0.75000000  0.15703500  0.62500000  1
  Hg  Hg56  1  0.75000000  0.60043300  0.68066000  1
  Hg  Hg57  1  0.75000000  0.11620200  0.71219700  1
  Hg  Hg58  1  0.25000000  0.99005500  0.68066000  1
  Hg  Hg59  1  0.25000000  0.50582300  0.71219700  1
