# generated using pymatgen
data_Mg23Tl7
_symmetry_space_group_name_H-M   'P 1'
_cell_length_a   5.19908500
_cell_length_b   11.17788228
_cell_length_c   42.31877800
_cell_angle_alpha   97.58908695
_cell_angle_beta   90.00000000
_cell_angle_gamma   90.00000000
_symmetry_Int_Tables_number   1
_chemical_formula_structural   Mg23Tl7
_chemical_formula_sum   'Mg46 Tl14'
_cell_volume   2437.80351648
_cell_formula_units_Z   2
loop_
 _symmetry_equiv_pos_site_id
 _symmetry_equiv_pos_as_xyz
  1  'x, y, z'
loop_
 _atom_site_type_symbol
 _atom_site_label
 _atom_site_symmetry_multiplicity
 _atom_site_fract_x
 _atom_site_fract_y
 _atom_site_fract_z
 _atom_site_occupancy
  Mg  Mg0  1  0.25000000  0.71625700  0.21190100  1
  Mg  Mg1  1  0.25000000  0.21589500  0.21117600  1
  Mg  Mg2  1  0.25000000  0.48766300  0.25000000  1
  Mg  Mg3  1  0.75000000  0.81785500  0.25000000  1
  Mg  Mg4  1  0.75000000  0.55116100  0.21190100  1
  Mg  Mg5  1  0.75000000  0.05079900  0.21117600  1
  Mg  Mg6  1  0.25000000  0.25471900  0.28882400  1
  Mg  Mg7  1  0.25000000  0.75435600  0.28809900  1
  Mg  Mg8  1  0.25000000  0.02612400  0.32692300  1
  Mg  Mg9  1  0.75000000  0.35631600  0.32692300  1
  Mg  Mg10  1  0.75000000  0.08962300  0.28882400  1
  Mg  Mg11  1  0.75000000  0.58926000  0.28809900  1
  Mg  Mg12  1  0.25000000  0.79318000  0.36574700  1
  Mg  Mg13  1  0.25000000  0.29281800  0.36502200  1
  Mg  Mg14  1  0.25000000  0.56458600  0.40384600  1
  Mg  Mg15  1  0.75000000  0.89477800  0.40384600  1
  Mg  Mg16  1  0.75000000  0.62808400  0.36574700  1
  Mg  Mg17  1  0.75000000  0.12772200  0.36502200  1
  Mg  Mg18  1  0.25000000  0.33164200  0.44267000  1
  Mg  Mg19  1  0.25000000  0.83128000  0.44194500  1
  Mg  Mg20  1  0.25000000  0.10304700  0.48076900  1
  Mg  Mg21  1  0.75000000  0.43324000  0.48076900  1
  Mg  Mg22  1  0.75000000  0.16654600  0.44267000  1
  Mg  Mg23  1  0.75000000  0.66618300  0.44194500  1
  Mg  Mg24  1  0.25000000  0.87010300  0.51959300  1
  Mg  Mg25  1  0.25000000  0.36974100  0.51886800  1
  Mg  Mg26  1  0.25000000  0.64150900  0.55769200  1
  Mg  Mg27  1  0.75000000  0.97170100  0.55769200  1
  Mg  Mg28  1  0.75000000  0.70500700  0.51959300  1
  Mg  Mg29  1  0.75000000  0.20464500  0.51886800  1
  Mg  Mg30  1  0.25000000  0.40856500  0.59651600  1
  Mg  Mg31  1  0.25000000  0.90820300  0.59579100  1
  Mg  Mg32  1  0.25000000  0.17997000  0.63461500  1
  Mg  Mg33  1  0.75000000  0.51016300  0.63461500  1
  Mg  Mg34  1  0.75000000  0.24346900  0.59651600  1
  Mg  Mg35  1  0.75000000  0.74310600  0.59579100  1
  Mg  Mg36  1  0.25000000  0.94702700  0.67343900  1
  Mg  Mg37  1  0.25000000  0.44666400  0.67271400  1
  Mg  Mg38  1  0.25000000  0.71843200  0.71153800  1
  Mg  Mg39  1  0.75000000  0.04862400  0.71153800  1
  Mg  Mg40  1  0.75000000  0.78193000  0.67343900  1
  Mg  Mg41  1  0.75000000  0.28156800  0.67271400  1
  Mg  Mg42  1  0.25000000  0.48548800  0.75036200  1
  Mg  Mg43  1  0.25000000  0.98512600  0.74963800  1
  Mg  Mg44  1  0.75000000  0.32039200  0.75036200  1
  Mg  Mg45  1  0.75000000  0.82003000  0.74963800  1
  Tl  Tl46  1  0.25000000  0.98609200  0.25000000  1
  Tl  Tl47  1  0.75000000  0.31942500  0.25000000  1
  Tl  Tl48  1  0.25000000  0.52455400  0.32692300  1
  Tl  Tl49  1  0.75000000  0.85788700  0.32692300  1
  Tl  Tl50  1  0.25000000  0.06301500  0.40384600  1
  Tl  Tl51  1  0.75000000  0.39634900  0.40384600  1
  Tl  Tl52  1  0.25000000  0.60147700  0.48076900  1
  Tl  Tl53  1  0.75000000  0.93481000  0.48076900  1
  Tl  Tl54  1  0.25000000  0.13993800  0.55769200  1
  Tl  Tl55  1  0.75000000  0.47327200  0.55769200  1
  Tl  Tl56  1  0.25000000  0.67840000  0.63461500  1
  Tl  Tl57  1  0.75000000  0.01173300  0.63461500  1
  Tl  Tl58  1  0.25000000  0.21686100  0.71153800  1
  Tl  Tl59  1  0.75000000  0.55019500  0.71153800  1
