# generated using pymatgen
data_Mg3B20
_symmetry_space_group_name_H-M   'P 1'
_cell_length_a   5.97250300
_cell_length_b   10.46844400
_cell_length_c   48.66413200
_cell_angle_alpha   90.00000000
_cell_angle_beta   90.00000000
_cell_angle_gamma   90.00000000
_symmetry_Int_Tables_number   1
_chemical_formula_structural   Mg3B20
_chemical_formula_sum   'Mg30 B200'
_cell_volume   3042.61843435
_cell_formula_units_Z   10
loop_
 _symmetry_equiv_pos_site_id
 _symmetry_equiv_pos_as_xyz
  1  'x, y, z'
loop_
 _atom_site_type_symbol
 _atom_site_label
 _atom_site_symmetry_multiplicity
 _atom_site_fract_x
 _atom_site_fract_y
 _atom_site_fract_z
 _atom_site_occupancy
  Mg  Mg0  1  0.75000000  0.25000000  0.25781200  1
  Mg  Mg1  1  0.25000000  0.25000000  0.25781200  1
  Mg  Mg2  1  0.50000000  0.75000000  0.23870400  1
  Mg  Mg3  1  0.50000000  0.25000000  0.19358800  1
  Mg  Mg4  1  0.25000000  0.75000000  0.17447900  1
  Mg  Mg5  1  0.75000000  0.75000000  0.17447900  1
  Mg  Mg6  1  0.00000000  0.25000000  0.32203700  1
  Mg  Mg7  1  0.00000000  0.75000000  0.27692100  1
  Mg  Mg8  1  0.75000000  0.25000000  0.42447900  1
  Mg  Mg9  1  0.25000000  0.25000000  0.42447900  1
  Mg  Mg10  1  0.50000000  0.75000000  0.40537000  1
  Mg  Mg11  1  0.50000000  0.25000000  0.36025500  1
  Mg  Mg12  1  0.25000000  0.75000000  0.34114600  1
  Mg  Mg13  1  0.75000000  0.75000000  0.34114600  1
  Mg  Mg14  1  0.00000000  0.25000000  0.48870400  1
  Mg  Mg15  1  0.00000000  0.75000000  0.44358800  1
  Mg  Mg16  1  0.75000000  0.25000000  0.59114600  1
  Mg  Mg17  1  0.25000000  0.25000000  0.59114600  1
  Mg  Mg18  1  0.50000000  0.75000000  0.57203700  1
  Mg  Mg19  1  0.50000000  0.25000000  0.52692100  1
  Mg  Mg20  1  0.25000000  0.75000000  0.50781200  1
  Mg  Mg21  1  0.75000000  0.75000000  0.50781200  1
  Mg  Mg22  1  0.00000000  0.25000000  0.65537000  1
  Mg  Mg23  1  0.00000000  0.75000000  0.61025500  1
  Mg  Mg24  1  0.75000000  0.25000000  0.75781200  1
  Mg  Mg25  1  0.25000000  0.25000000  0.75781200  1
  Mg  Mg26  1  0.50000000  0.75000000  0.73870400  1
  Mg  Mg27  1  0.50000000  0.25000000  0.69358800  1
  Mg  Mg28  1  0.25000000  0.75000000  0.67447900  1
  Mg  Mg29  1  0.75000000  0.75000000  0.67447900  1
  B  B30  1  0.50000000  0.85949800  0.19693600  1
  B  B31  1  0.24661100  0.92216600  0.20869200  1
  B  B32  1  0.75338900  0.92216600  0.20869200  1
  B  B33  1  1.00000000  0.08229700  0.24553600  1
  B  B34  1  0.00000000  0.83386800  0.22021000  1
  B  B35  1  0.15555800  0.93635500  0.24338200  1
  B  B36  1  0.84444200  0.93635500  0.24338200  1
  B  B37  1  0.50000000  0.08229700  0.27008900  1
  B  B38  1  0.50000000  0.64050200  0.19693600  1
  B  B39  1  0.00000000  0.66613200  0.22021000  1
  B  B40  1  0.24661100  0.57783400  0.20869200  1
  B  B41  1  0.75338900  0.57783400  0.20869200  1
  B  B42  1  0.65555800  0.93635500  0.27224300  1
  B  B43  1  0.34444200  0.93635500  0.27224300  1
  B  B44  1  0.65555800  0.06364500  0.32671500  1
  B  B45  1  0.34444200  0.06364500  0.32671500  1
  B  B46  1  0.24661100  0.42216600  0.22359900  1
  B  B47  1  0.75338900  0.42216600  0.22359900  1
  B  B48  1  0.00000000  0.33386800  0.21208200  1
  B  B49  1  0.50000000  0.35949800  0.23535600  1
  B  B50  1  0.50000000  0.91770300  0.16220300  1
  B  B51  1  0.15555800  0.06364500  0.18891000  1
  B  B52  1  0.84444200  0.06364500  0.18891000  1
  B  B53  1  0.00000000  0.16613200  0.21208200  1
  B  B54  1  0.00000000  0.91770300  0.18675600  1
  B  B55  1  0.24661100  0.07783400  0.22359900  1
  B  B56  1  0.75338900  0.07783400  0.22359900  1
  B  B57  1  0.50000000  0.14050200  0.23535600  1
  B  B58  1  0.00000000  0.35949800  0.28026900  1
  B  B59  1  0.74661100  0.42216600  0.29202600  1
  B  B60  1  0.25338900  0.42216600  0.29202600  1
  B  B61  1  0.50000000  0.58229700  0.16220300  1
  B  B62  1  0.50000000  0.33386800  0.30354300  1
  B  B63  1  0.65555800  0.43635500  0.32671500  1
  B  B64  1  0.34444200  0.43635500  0.32671500  1
  B  B65  1  0.00000000  0.58229700  0.18675600  1
  B  B66  1  0.00000000  0.14050200  0.28026900  1
  B  B67  1  0.50000000  0.16613200  0.30354300  1
  B  B68  1  0.74661100  0.07783400  0.29202600  1
  B  B69  1  0.25338900  0.07783400  0.29202600  1
  B  B70  1  0.15555800  0.43635500  0.18891000  1
  B  B71  1  0.84444200  0.43635500  0.18891000  1
  B  B72  1  0.15555800  0.56364500  0.24338200  1
  B  B73  1  0.84444200  0.56364500  0.24338200  1
  B  B74  1  0.74661100  0.92216600  0.30693300  1
  B  B75  1  0.25338900  0.92216600  0.30693300  1
  B  B76  1  0.50000000  0.83386800  0.29541500  1
  B  B77  1  0.00000000  0.85949800  0.31868900  1
  B  B78  1  1.00000000  0.41770300  0.24553600  1
  B  B79  1  0.65555800  0.56364500  0.27224300  1
  B  B80  1  0.34444200  0.56364500  0.27224300  1
  B  B81  1  0.50000000  0.66613200  0.29541500  1
  B  B82  1  0.50000000  0.41770300  0.27008900  1
  B  B83  1  0.74661100  0.57783400  0.30693300  1
  B  B84  1  0.25338900  0.57783400  0.30693300  1
  B  B85  1  0.00000000  0.64050200  0.31868900  1
  B  B86  1  0.50000000  0.85949800  0.36360200  1
  B  B87  1  0.24661100  0.92216600  0.37535900  1
  B  B88  1  0.75338900  0.92216600  0.37535900  1
  B  B89  1  0.00000000  0.08229700  0.41220300  1
  B  B90  1  0.00000000  0.83386800  0.38687700  1
  B  B91  1  0.15555800  0.93635500  0.41004900  1
  B  B92  1  0.84444200  0.93635500  0.41004900  1
  B  B93  1  0.50000000  0.08229700  0.43675600  1
  B  B94  1  0.50000000  0.64050200  0.36360200  1
  B  B95  1  0.00000000  0.66613200  0.38687700  1
  B  B96  1  0.24661100  0.57783400  0.37535900  1
  B  B97  1  0.75338900  0.57783400  0.37535900  1
  B  B98  1  0.65555800  0.93635500  0.43891000  1
  B  B99  1  0.34444200  0.93635500  0.43891000  1
  B  B100  1  0.65555800  0.06364500  0.49338200  1
  B  B101  1  0.34444200  0.06364500  0.49338200  1
  B  B102  1  0.24661100  0.42216600  0.39026600  1
  B  B103  1  0.75338900  0.42216600  0.39026600  1
  B  B104  1  0.00000000  0.33386800  0.37874800  1
  B  B105  1  0.50000000  0.35949800  0.40202300  1
  B  B106  1  0.50000000  0.91770300  0.32886900  1
  B  B107  1  0.15555800  0.06364500  0.35557600  1
  B  B108  1  0.84444200  0.06364500  0.35557600  1
  B  B109  1  0.00000000  0.16613200  0.37874800  1
  B  B110  1  0.00000000  0.91770300  0.35342200  1
  B  B111  1  0.24661100  0.07783400  0.39026600  1
  B  B112  1  0.75338900  0.07783400  0.39026600  1
  B  B113  1  0.50000000  0.14050200  0.40202300  1
  B  B114  1  0.00000000  0.35949800  0.44693600  1
  B  B115  1  0.74661100  0.42216600  0.45869200  1
  B  B116  1  0.25338900  0.42216600  0.45869200  1
  B  B117  1  0.50000000  0.58229700  0.32886900  1
  B  B118  1  0.50000000  0.33386800  0.47021000  1
  B  B119  1  0.65555800  0.43635500  0.49338200  1
  B  B120  1  0.34444200  0.43635500  0.49338200  1
  B  B121  1  0.00000000  0.58229700  0.35342200  1
  B  B122  1  0.00000000  0.14050200  0.44693600  1
  B  B123  1  0.50000000  0.16613200  0.47021000  1
  B  B124  1  0.74661100  0.07783400  0.45869200  1
  B  B125  1  0.25338900  0.07783400  0.45869200  1
  B  B126  1  0.15555800  0.43635500  0.35557600  1
  B  B127  1  0.84444200  0.43635500  0.35557600  1
  B  B128  1  0.15555800  0.56364500  0.41004900  1
  B  B129  1  0.84444200  0.56364500  0.41004900  1
  B  B130  1  0.74661100  0.92216600  0.47359900  1
  B  B131  1  0.25338900  0.92216600  0.47359900  1
  B  B132  1  0.50000000  0.83386800  0.46208200  1
  B  B133  1  0.00000000  0.85949800  0.48535600  1
  B  B134  1  1.00000000  0.41770300  0.41220300  1
  B  B135  1  0.65555800  0.56364500  0.43891000  1
  B  B136  1  0.34444200  0.56364500  0.43891000  1
  B  B137  1  0.50000000  0.66613200  0.46208200  1
  B  B138  1  0.50000000  0.41770300  0.43675600  1
  B  B139  1  0.74661100  0.57783400  0.47359900  1
  B  B140  1  0.25338900  0.57783400  0.47359900  1
  B  B141  1  0.00000000  0.64050200  0.48535600  1
  B  B142  1  0.50000000  0.85949800  0.53026900  1
  B  B143  1  0.24661100  0.92216600  0.54202600  1
  B  B144  1  0.75338900  0.92216600  0.54202600  1
  B  B145  1  1.00000000  0.08229700  0.57886900  1
  B  B146  1  0.00000000  0.83386800  0.55354300  1
  B  B147  1  0.15555800  0.93635500  0.57671500  1
  B  B148  1  0.84444200  0.93635500  0.57671500  1
  B  B149  1  0.50000000  0.08229700  0.60342200  1
  B  B150  1  0.50000000  0.64050200  0.53026900  1
  B  B151  1  0.00000000  0.66613200  0.55354300  1
  B  B152  1  0.24661100  0.57783400  0.54202600  1
  B  B153  1  0.75338900  0.57783400  0.54202600  1
  B  B154  1  0.65555800  0.93635500  0.60557600  1
  B  B155  1  0.34444200  0.93635500  0.60557600  1
  B  B156  1  0.65555800  0.06364500  0.66004900  1
  B  B157  1  0.34444200  0.06364500  0.66004900  1
  B  B158  1  0.24661100  0.42216600  0.55693300  1
  B  B159  1  0.75338900  0.42216600  0.55693300  1
  B  B160  1  0.00000000  0.33386800  0.54541500  1
  B  B161  1  0.50000000  0.35949800  0.56868900  1
  B  B162  1  0.50000000  0.91770300  0.49553600  1
  B  B163  1  0.15555800  0.06364500  0.52224300  1
  B  B164  1  0.84444200  0.06364500  0.52224300  1
  B  B165  1  0.00000000  0.16613200  0.54541500  1
  B  B166  1  0.00000000  0.91770300  0.52008900  1
  B  B167  1  0.24661100  0.07783400  0.55693300  1
  B  B168  1  0.75338900  0.07783400  0.55693300  1
  B  B169  1  0.50000000  0.14050200  0.56868900  1
  B  B170  1  0.00000000  0.35949800  0.61360200  1
  B  B171  1  0.74661100  0.42216600  0.62535900  1
  B  B172  1  0.25338900  0.42216600  0.62535900  1
  B  B173  1  0.50000000  0.58229700  0.49553600  1
  B  B174  1  0.50000000  0.33386800  0.63687700  1
  B  B175  1  0.65555800  0.43635500  0.66004900  1
  B  B176  1  0.34444200  0.43635500  0.66004900  1
  B  B177  1  0.00000000  0.58229700  0.52008900  1
  B  B178  1  0.00000000  0.14050200  0.61360200  1
  B  B179  1  0.50000000  0.16613200  0.63687700  1
  B  B180  1  0.74661100  0.07783400  0.62535900  1
  B  B181  1  0.25338900  0.07783400  0.62535900  1
  B  B182  1  0.15555800  0.43635500  0.52224300  1
  B  B183  1  0.84444200  0.43635500  0.52224300  1
  B  B184  1  0.15555800  0.56364500  0.57671500  1
  B  B185  1  0.84444200  0.56364500  0.57671500  1
  B  B186  1  0.74661100  0.92216600  0.64026600  1
  B  B187  1  0.25338900  0.92216600  0.64026600  1
  B  B188  1  0.50000000  0.83386800  0.62874800  1
  B  B189  1  0.00000000  0.85949800  0.65202300  1
  B  B190  1  1.00000000  0.41770300  0.57886900  1
  B  B191  1  0.65555800  0.56364500  0.60557600  1
  B  B192  1  0.34444200  0.56364500  0.60557600  1
  B  B193  1  0.50000000  0.66613200  0.62874800  1
  B  B194  1  0.50000000  0.41770300  0.60342200  1
  B  B195  1  0.74661100  0.57783400  0.64026600  1
  B  B196  1  0.25338900  0.57783400  0.64026600  1
  B  B197  1  0.00000000  0.64050200  0.65202300  1
  B  B198  1  0.50000000  0.85949800  0.69693600  1
  B  B199  1  0.24661100  0.92216600  0.70869200  1
  B  B200  1  0.75338900  0.92216600  0.70869200  1
  B  B201  1  0.00000000  0.08229700  0.74553600  1
  B  B202  1  0.00000000  0.83386800  0.72021000  1
  B  B203  1  0.15555800  0.93635500  0.74338200  1
  B  B204  1  0.84444200  0.93635500  0.74338200  1
  B  B205  1  0.50000000  0.08229700  0.77008900  1
  B  B206  1  0.50000000  0.64050200  0.69693600  1
  B  B207  1  0.00000000  0.66613200  0.72021000  1
  B  B208  1  0.24661100  0.57783400  0.70869200  1
  B  B209  1  0.75338900  0.57783400  0.70869200  1
  B  B210  1  0.24661100  0.42216600  0.72359900  1
  B  B211  1  0.75338900  0.42216600  0.72359900  1
  B  B212  1  0.00000000  0.33386800  0.71208200  1
  B  B213  1  0.50000000  0.35949800  0.73535600  1
  B  B214  1  0.50000000  0.91770300  0.66220300  1
  B  B215  1  0.15555800  0.06364500  0.68891000  1
  B  B216  1  0.84444200  0.06364500  0.68891000  1
  B  B217  1  0.00000000  0.16613200  0.71208200  1
  B  B218  1  0.00000000  0.91770300  0.68675600  1
  B  B219  1  0.24661100  0.07783400  0.72359900  1
  B  B220  1  0.75338900  0.07783400  0.72359900  1
  B  B221  1  0.50000000  0.14050200  0.73535600  1
  B  B222  1  0.50000000  0.58229700  0.66220300  1
  B  B223  1  0.00000000  0.58229700  0.68675600  1
  B  B224  1  0.15555800  0.43635500  0.68891000  1
  B  B225  1  0.84444200  0.43635500  0.68891000  1
  B  B226  1  0.15555800  0.56364500  0.74338200  1
  B  B227  1  0.84444200  0.56364500  0.74338200  1
  B  B228  1  1.00000000  0.41770300  0.74553600  1
  B  B229  1  0.50000000  0.41770300  0.77008900  1
