# generated using pymatgen
data_Mg5Rh2
_symmetry_space_group_name_H-M   'P 1'
_cell_length_a   8.64031975
_cell_length_b   8.03467500
_cell_length_c   52.55701100
_cell_angle_alpha   90.00000000
_cell_angle_beta   94.71500456
_cell_angle_gamma   90.00000000
_symmetry_Int_Tables_number   1
_chemical_formula_structural   Mg5Rh2
_chemical_formula_sum   'Mg80 Rh32'
_cell_volume   3636.27396607
_cell_formula_units_Z   16
loop_
 _symmetry_equiv_pos_site_id
 _symmetry_equiv_pos_as_xyz
  1  'x, y, z'
loop_
 _atom_site_type_symbol
 _atom_site_label
 _atom_site_symmetry_multiplicity
 _atom_site_fract_x
 _atom_site_fract_y
 _atom_site_fract_z
 _atom_site_occupancy
  Mg  Mg0  1  0.78571400  0.50000000  0.28571400  1
  Mg  Mg1  1  0.78571400  0.00000000  0.28571400  1
  Mg  Mg2  1  0.27996700  0.75000000  0.27421900  1
  Mg  Mg3  1  0.50820500  0.25000000  0.35139500  1
  Mg  Mg4  1  0.12890400  0.25000000  0.35139500  1
  Mg  Mg5  1  0.44252400  0.75000000  0.22003300  1
  Mg  Mg6  1  0.06322400  0.75000000  0.22003300  1
  Mg  Mg7  1  0.29146200  0.25000000  0.29720900  1
  Mg  Mg8  1  0.81304300  0.43548400  0.34037100  1
  Mg  Mg9  1  0.08632700  0.93548400  0.31304300  1
  Mg  Mg10  1  0.51243000  0.93548400  0.31304300  1
  Mg  Mg11  1  0.05899800  0.43548400  0.25838600  1
  Mg  Mg12  1  0.48510200  0.43548400  0.25838600  1
  Mg  Mg13  1  0.75838600  0.56451600  0.23105700  1
  Mg  Mg14  1  0.08632700  0.56451600  0.31304300  1
  Mg  Mg15  1  0.75838600  0.93548400  0.23105700  1
  Mg  Mg16  1  0.51243000  0.56451600  0.31304300  1
  Mg  Mg17  1  0.05899800  0.06451600  0.25838600  1
  Mg  Mg18  1  0.81304300  0.06451600  0.34037100  1
  Mg  Mg19  1  0.48510200  0.06451600  0.25838600  1
  Mg  Mg20  1  0.35714300  0.50000000  0.42857100  1
  Mg  Mg21  1  0.35714300  0.00000000  0.42857100  1
  Mg  Mg22  1  0.85139500  0.75000000  0.41707600  1
  Mg  Mg23  1  0.07963400  0.25000000  0.49425200  1
  Mg  Mg24  1  0.70033300  0.25000000  0.49425200  1
  Mg  Mg25  1  0.01395300  0.75000000  0.36289000  1
  Mg  Mg26  1  0.63465200  0.75000000  0.36289000  1
  Mg  Mg27  1  0.86289000  0.25000000  0.44006700  1
  Mg  Mg28  1  0.38447100  0.43548400  0.48322800  1
  Mg  Mg29  1  0.65775500  0.93548400  0.45590000  1
  Mg  Mg30  1  0.08385900  0.93548400  0.45590000  1
  Mg  Mg31  1  0.63042700  0.43548400  0.40124300  1
  Mg  Mg32  1  0.05653000  0.43548400  0.40124300  1
  Mg  Mg33  1  0.32981400  0.56451600  0.37391500  1
  Mg  Mg34  1  0.65775500  0.56451600  0.45590000  1
  Mg  Mg35  1  0.32981400  0.93548400  0.37391500  1
  Mg  Mg36  1  0.08385900  0.56451600  0.45590000  1
  Mg  Mg37  1  0.63042700  0.06451600  0.40124300  1
  Mg  Mg38  1  0.38447100  0.06451600  0.48322800  1
  Mg  Mg39  1  0.05653000  0.06451600  0.40124300  1
  Mg  Mg40  1  0.92857100  0.50000000  0.57142900  1
  Mg  Mg41  1  0.92857100  0.00000000  0.57142900  1
  Mg  Mg42  1  0.42282400  0.75000000  0.55993300  1
  Mg  Mg43  1  0.65106200  0.25000000  0.63711000  1
  Mg  Mg44  1  0.27176200  0.25000000  0.63711000  1
  Mg  Mg45  1  0.58538100  0.75000000  0.50574800  1
  Mg  Mg46  1  0.20608100  0.75000000  0.50574800  1
  Mg  Mg47  1  0.43431900  0.25000000  0.58292400  1
  Mg  Mg48  1  0.95590000  0.43548400  0.62608500  1
  Mg  Mg49  1  0.22918400  0.93548400  0.59875700  1
  Mg  Mg50  1  0.65528700  0.93548400  0.59875700  1
  Mg  Mg51  1  0.20185600  0.43548400  0.54410000  1
  Mg  Mg52  1  0.62795900  0.43548400  0.54410000  1
  Mg  Mg53  1  0.90124300  0.56451600  0.51677200  1
  Mg  Mg54  1  0.22918400  0.56451600  0.59875700  1
  Mg  Mg55  1  0.90124300  0.93548400  0.51677200  1
  Mg  Mg56  1  0.65528700  0.56451600  0.59875700  1
  Mg  Mg57  1  0.20185600  0.06451600  0.54410000  1
  Mg  Mg58  1  0.95590000  0.06451600  0.62608500  1
  Mg  Mg59  1  0.62795900  0.06451600  0.54410000  1
  Mg  Mg60  1  0.50000000  0.50000000  0.71428600  1
  Mg  Mg61  1  0.50000000  0.00000000  0.71428600  1
  Mg  Mg62  1  0.99425200  0.75000000  0.70279100  1
  Mg  Mg63  1  0.22249100  0.25000000  0.77996700  1
  Mg  Mg64  1  0.84319000  0.25000000  0.77996700  1
  Mg  Mg65  1  0.15681000  0.75000000  0.64860500  1
  Mg  Mg66  1  0.77750900  0.75000000  0.64860500  1
  Mg  Mg67  1  0.00574800  0.25000000  0.72578100  1
  Mg  Mg68  1  0.52732800  0.43548400  0.76894300  1
  Mg  Mg69  1  0.80061200  0.93548400  0.74161400  1
  Mg  Mg70  1  0.22671600  0.93548400  0.74161400  1
  Mg  Mg71  1  0.77328400  0.43548400  0.68695700  1
  Mg  Mg72  1  0.19938800  0.43548400  0.68695700  1
  Mg  Mg73  1  0.47267200  0.56451600  0.65962900  1
  Mg  Mg74  1  0.80061200  0.56451600  0.74161400  1
  Mg  Mg75  1  0.47267200  0.93548400  0.65962900  1
  Mg  Mg76  1  0.22671600  0.56451600  0.74161400  1
  Mg  Mg77  1  0.77328400  0.06451600  0.68695700  1
  Mg  Mg78  1  0.52732800  0.06451600  0.76894300  1
  Mg  Mg79  1  0.19938800  0.06451600  0.68695700  1
  Rh  Rh80  1  0.26190500  0.25000000  0.23809500  1
  Rh  Rh81  1  0.30952400  0.75000000  0.33333300  1
  Rh  Rh82  1  0.80318600  0.75000000  0.32065800  1
  Rh  Rh83  1  0.97790500  0.25000000  0.30318600  1
  Rh  Rh84  1  0.61099500  0.25000000  0.30318600  1
  Rh  Rh85  1  0.96043400  0.75000000  0.26824200  1
  Rh  Rh86  1  0.59352300  0.75000000  0.26824200  1
  Rh  Rh87  1  0.76824200  0.25000000  0.25077000  1
  Rh  Rh88  1  0.83333300  0.25000000  0.38095200  1
  Rh  Rh89  1  0.88095200  0.75000000  0.47619000  1
  Rh  Rh90  1  0.37461500  0.75000000  0.46351500  1
  Rh  Rh91  1  0.54933400  0.25000000  0.44604300  1
  Rh  Rh92  1  0.18242400  0.25000000  0.44604300  1
  Rh  Rh93  1  0.53186200  0.75000000  0.41110000  1
  Rh  Rh94  1  0.16495200  0.75000000  0.41110000  1
  Rh  Rh95  1  0.33967100  0.25000000  0.39362800  1
  Rh  Rh96  1  0.40476200  0.25000000  0.52381000  1
  Rh  Rh97  1  0.45238100  0.75000000  0.61904800  1
  Rh  Rh98  1  0.94604300  0.75000000  0.60637200  1
  Rh  Rh99  1  0.12076300  0.25000000  0.58890000  1
  Rh  Rh100  1  0.75385200  0.25000000  0.58890000  1
  Rh  Rh101  1  0.10329100  0.75000000  0.55395700  1
  Rh  Rh102  1  0.73638000  0.75000000  0.55395700  1
  Rh  Rh103  1  0.91110000  0.25000000  0.53648500  1
  Rh  Rh104  1  0.97619000  0.25000000  0.66666700  1
  Rh  Rh105  1  0.02381000  0.75000000  0.76190500  1
  Rh  Rh106  1  0.51747200  0.75000000  0.74923000  1
  Rh  Rh107  1  0.69219100  0.25000000  0.73175800  1
  Rh  Rh108  1  0.32528100  0.25000000  0.73175800  1
  Rh  Rh109  1  0.67471900  0.75000000  0.69681400  1
  Rh  Rh110  1  0.30780900  0.75000000  0.69681400  1
  Rh  Rh111  1  0.48252800  0.25000000  0.67934200  1
