# generated using pymatgen
data_Mg4Zn7
_symmetry_space_group_name_H-M   'P 1'
_cell_length_a   5.07402229
_cell_length_b   14.70723601
_cell_length_c   50.49845100
_cell_angle_alpha   88.21601723
_cell_angle_beta   89.67566990
_cell_angle_gamma   90.29193359
_symmetry_Int_Tables_number   1
_chemical_formula_structural   Mg4Zn7
_chemical_formula_sum   'Mg28 Zn49'
_cell_volume   3766.49971225
_cell_formula_units_Z   7
loop_
 _symmetry_equiv_pos_site_id
 _symmetry_equiv_pos_as_xyz
  1  'x, y, z'
loop_
 _atom_site_type_symbol
 _atom_site_label
 _atom_site_symmetry_multiplicity
 _atom_site_fract_x
 _atom_site_fract_y
 _atom_site_fract_z
 _atom_site_occupancy
  Mg  Mg0  1  0.15402100  0.86509100  0.48774900  1
  Mg  Mg1  1  0.15123400  0.13154300  0.40769100  1
  Mg  Mg2  1  0.15986000  0.62778700  0.27255500  1
  Mg  Mg3  1  0.65741200  0.84221000  0.45403200  1
  Mg  Mg4  1  0.65606300  0.21783500  0.43267000  1
  Mg  Mg5  1  0.65792500  0.94254400  0.28206200  1
  Mg  Mg6  1  0.65368500  0.18074900  0.49536600  1
  Mg  Mg7  1  0.65322700  0.81311000  0.39596800  1
  Mg  Mg8  1  0.65449900  0.31231600  0.26415900  1
  Mg  Mg9  1  0.65457600  0.43748500  0.41733000  1
  Mg  Mg10  1  0.65078000  0.27753200  0.32744500  1
  Mg  Mg11  1  0.15614000  0.59300300  0.33584100  1
  Mg  Mg12  1  0.15391900  0.92615000  0.42159800  1
  Mg  Mg13  1  0.65501700  0.74688800  0.25460100  1
  Mg  Mg14  1  0.15562300  0.15843100  0.34539900  1
  Mg  Mg15  1  0.65695400  0.47457000  0.35463400  1
  Mg  Mg16  1  0.15661800  0.79022900  0.36225100  1
  Mg  Mg17  1  0.15271400  0.96277500  0.31793800  1
  Mg  Mg18  1  0.15940500  0.52377600  0.44230900  1
  Mg  Mg19  1  0.15672100  0.72916900  0.42840200  1
  Mg  Mg20  1  0.65986000  0.37778700  0.52255500  1
  Mg  Mg21  1  0.15792500  0.69254400  0.53206200  1
  Mg  Mg22  1  0.15449900  0.06231600  0.51415900  1
  Mg  Mg23  1  0.15078000  0.02753200  0.57744500  1
  Mg  Mg24  1  0.65614000  0.34300300  0.58584100  1
  Mg  Mg25  1  0.15501700  0.49688800  0.50460100  1
  Mg  Mg26  1  0.65562300  0.90843100  0.59539900  1
  Mg  Mg27  1  0.65271400  0.71277500  0.56793800  1
  Zn  Zn28  1  0.15121800  0.19767100  0.46269900  1
  Zn  Zn29  1  0.65459000  0.01921200  0.41606100  1
  Zn  Zn30  1  0.15883200  0.29320500  0.29660300  1
  Zn  Zn31  1  0.40471200  0.61553200  0.38881700  1
  Zn  Zn32  1  0.90047700  0.29553700  0.38035900  1
  Zn  Zn33  1  0.40236700  0.04203100  0.46016000  1
  Zn  Zn34  1  0.90532000  0.45266000  0.30000000  1
  Zn  Zn35  1  0.15942100  0.45764800  0.38730100  1
  Zn  Zn36  1  0.65612600  0.05849500  0.33125800  1
  Zn  Zn37  1  0.90375200  0.35980100  0.46973600  1
  Zn  Zn38  1  0.90191100  0.13590200  0.29228200  1
  Zn  Zn39  1  0.15444400  0.02916700  0.26029700  1
  Zn  Zn40  1  0.65573500  0.52699600  0.25926500  1
  Zn  Zn41  1  0.66082800  0.51224200  0.47279500  1
  Zn  Zn42  1  0.65604900  0.63610800  0.43393900  1
  Zn  Zn43  1  0.15451300  0.84682400  0.26874200  1
  Zn  Zn44  1  0.91447200  0.67507700  0.47792600  1
  Zn  Zn45  1  0.40688700  0.29551800  0.38026400  1
  Zn  Zn46  1  0.90827200  0.61328800  0.38984000  1
  Zn  Zn47  1  0.15490400  0.37832300  0.34073500  1
  Zn  Zn48  1  0.39616700  0.98024300  0.37207400  1
  Zn  Zn49  1  0.41016200  0.35978300  0.46964100  1
  Zn  Zn50  1  0.40532000  0.45266000  0.30000000  1
  Zn  Zn51  1  0.64976900  0.96740300  0.50071900  1
  Zn  Zn52  1  0.40597300  0.13500000  0.29265800  1
  Zn  Zn53  1  0.40107300  0.67755600  0.47726600  1
  Zn  Zn54  1  0.66087000  0.68791600  0.34928100  1
  Zn  Zn55  1  0.90956600  0.97776400  0.37273400  1
  Zn  Zn56  1  0.64981100  0.14307800  0.37720500  1
  Zn  Zn57  1  0.40466600  0.77032000  0.30734200  1
  Zn  Zn58  1  0.90592700  0.03978800  0.46118300  1
  Zn  Zn59  1  0.15532000  0.32766000  0.42500000  1
  Zn  Zn60  1  0.90872800  0.76941800  0.30771800  1
  Zn  Zn61  1  0.65619500  0.87615300  0.33970300  1
  Zn  Zn62  1  0.65180700  0.61211500  0.30339700  1
  Zn  Zn63  1  0.65883200  0.04320500  0.54660300  1
  Zn  Zn64  1  0.40532000  0.20266000  0.55000000  1
  Zn  Zn65  1  0.15612600  0.80849500  0.58125800  1
  Zn  Zn66  1  0.40191100  0.88590200  0.54228200  1
  Zn  Zn67  1  0.65444400  0.77916700  0.51029700  1
  Zn  Zn68  1  0.15573500  0.27699600  0.50926500  1
  Zn  Zn69  1  0.65451300  0.59682400  0.51874200  1
  Zn  Zn70  1  0.65490400  0.12832300  0.59073500  1
  Zn  Zn71  1  0.90532000  0.20266000  0.55000000  1
  Zn  Zn72  1  0.90597300  0.88500000  0.54265800  1
  Zn  Zn73  1  0.90466600  0.52032000  0.55734200  1
  Zn  Zn74  1  0.40872800  0.51941800  0.55771800  1
  Zn  Zn75  1  0.15619500  0.62615300  0.58970300  1
  Zn  Zn76  1  0.15180700  0.36211500  0.55339700  1
