# generated using pymatgen
data_Mg108Zn197
_symmetry_space_group_name_H-M   'P 1'
_cell_length_a   14.70723629
_cell_length_b   15.05206002
_cell_length_c   44.20851200
_cell_angle_alpha   83.82995566
_cell_angle_beta   98.78068454
_cell_angle_gamma   102.44989049
_symmetry_Int_Tables_number   1
_chemical_formula_structural   Mg108Zn197
_chemical_formula_sum   'Mg108 Zn197'
_cell_volume   9416.24993022
_cell_formula_units_Z   1
loop_
 _symmetry_equiv_pos_site_id
 _symmetry_equiv_pos_as_xyz
  1  'x, y, z'
loop_
 _atom_site_type_symbol
 _atom_site_label
 _atom_site_symmetry_multiplicity
 _atom_site_fract_x
 _atom_site_fract_y
 _atom_site_fract_z
 _atom_site_occupancy
  Mg  Mg0  1  0.10018000  0.12027100  0.26479200  1
  Mg  Mg1  1  0.28657500  0.89666800  0.21647900  1
  Mg  Mg2  1  0.64768300  0.31656200  0.23626000  1
  Mg  Mg3  1  0.04358200  0.92518600  0.29490100  1
  Mg  Mg4  1  0.39784500  0.86564300  0.28194900  1
  Mg  Mg5  1  0.97194700  0.24356800  0.29177100  1
  Mg  Mg6  1  0.42345600  0.24166700  0.21932900  1
  Mg  Mg7  1  0.95641800  0.76344500  0.25964400  1
  Mg  Mg8  1  0.32381600  0.19412500  0.28068600  1
  Mg  Mg9  1  0.60215500  0.82298700  0.27259600  1
  Mg  Mg10  1  0.35231700  0.57206900  0.21828600  1
  Mg  Mg11  1  0.67618400  0.49450600  0.27385900  1
  Mg  Mg12  1  0.09508800  0.93506900  0.22509100  1
  Mg  Mg13  1  0.74882900  0.16725800  0.27500300  1
  Mg  Mg14  1  0.25117100  0.52137200  0.27954300  1
  Mg  Mg15  1  0.57654400  0.64696300  0.23521600  1
  Mg  Mg16  1  0.89982000  0.56835900  0.28975300  1
  Mg  Mg17  1  0.02805300  0.44506200  0.26277500  1
  Mg  Mg18  1  0.71342500  0.99196200  0.23806600  1
  Mg  Mg19  1  0.90491200  0.95356100  0.22945400  1
  Mg  Mg20  1  0.10018000  0.92027100  0.36479200  1
  Mg  Mg21  1  0.28657500  0.69666800  0.31647900  1
  Mg  Mg22  1  0.64768300  0.11656200  0.33626000  1
  Mg  Mg23  1  0.04358200  0.72518600  0.39490100  1
  Mg  Mg24  1  0.39784500  0.66564300  0.38194900  1
  Mg  Mg25  1  0.97194700  0.04356800  0.39177100  1
  Mg  Mg26  1  0.42345600  0.04166700  0.31932900  1
  Mg  Mg27  1  0.95641800  0.56344500  0.35964400  1
  Mg  Mg28  1  0.32381600  0.99412500  0.38068600  1
  Mg  Mg29  1  0.60215500  0.62298700  0.37259600  1
  Mg  Mg30  1  0.35231700  0.37206900  0.31828600  1
  Mg  Mg31  1  0.67618400  0.29450600  0.37385900  1
  Mg  Mg32  1  0.09508800  0.73506900  0.32509100  1
  Mg  Mg33  1  0.74882900  0.96725800  0.37500300  1
  Mg  Mg34  1  0.25117100  0.32137200  0.37954300  1
  Mg  Mg35  1  0.57654400  0.44696300  0.33521600  1
  Mg  Mg36  1  0.89982000  0.36835900  0.38975300  1
  Mg  Mg37  1  0.02805300  0.24506200  0.36277500  1
  Mg  Mg38  1  0.71342500  0.79196200  0.33806600  1
  Mg  Mg39  1  0.90491200  0.75356100  0.32945400  1
  Mg  Mg40  1  0.10018000  0.72027100  0.46479200  1
  Mg  Mg41  1  0.28657500  0.49666800  0.41647900  1
  Mg  Mg42  1  0.64768300  0.91656200  0.43626000  1
  Mg  Mg43  1  0.04358200  0.52518600  0.49490100  1
  Mg  Mg44  1  0.39784500  0.46564300  0.48194900  1
  Mg  Mg45  1  0.97194700  0.84356800  0.49177100  1
  Mg  Mg46  1  0.42345600  0.84166700  0.41932900  1
  Mg  Mg47  1  0.95641800  0.36344500  0.45964400  1
  Mg  Mg48  1  0.32381600  0.79412500  0.48068600  1
  Mg  Mg49  1  0.60215500  0.42298700  0.47259600  1
  Mg  Mg50  1  0.35231700  0.17206900  0.41828600  1
  Mg  Mg51  1  0.67618400  0.09450600  0.47385900  1
  Mg  Mg52  1  0.09508800  0.53506900  0.42509100  1
  Mg  Mg53  1  0.74882900  0.76725800  0.47500300  1
  Mg  Mg54  1  0.25117100  0.12137200  0.47954300  1
  Mg  Mg55  1  0.57654400  0.24696300  0.43521600  1
  Mg  Mg56  1  0.89982000  0.16835900  0.48975300  1
  Mg  Mg57  1  0.02805300  0.04506200  0.46277500  1
  Mg  Mg58  1  0.71342500  0.59196200  0.43806600  1
  Mg  Mg59  1  0.90491200  0.55356100  0.42945400  1
  Mg  Mg60  1  0.10018000  0.52027100  0.56479200  1
  Mg  Mg61  1  0.28657500  0.29666800  0.51647900  1
  Mg  Mg62  1  0.64768300  0.71656200  0.53626000  1
  Mg  Mg63  1  0.04358200  0.32518600  0.59490100  1
  Mg  Mg64  1  0.39784500  0.26564300  0.58194900  1
  Mg  Mg65  1  0.97194700  0.64356800  0.59177100  1
  Mg  Mg66  1  0.42345600  0.64166700  0.51932900  1
  Mg  Mg67  1  0.95641800  0.16344500  0.55964400  1
  Mg  Mg68  1  0.32381600  0.59412500  0.58068600  1
  Mg  Mg69  1  0.60215500  0.22298700  0.57259600  1
  Mg  Mg70  1  0.35231700  0.97206900  0.51828600  1
  Mg  Mg71  1  0.67618400  0.89450600  0.57385900  1
  Mg  Mg72  1  0.09508800  0.33506900  0.52509100  1
  Mg  Mg73  1  0.74882900  0.56725800  0.57500300  1
  Mg  Mg74  1  0.25117100  0.92137200  0.57954300  1
  Mg  Mg75  1  0.57654400  0.04696300  0.53521600  1
  Mg  Mg76  1  0.89982000  0.96835900  0.58975300  1
  Mg  Mg77  1  0.02805300  0.84506200  0.56277500  1
  Mg  Mg78  1  0.71342500  0.39196200  0.53806600  1
  Mg  Mg79  1  0.90491200  0.35356100  0.52945400  1
  Mg  Mg80  1  0.10018000  0.32027100  0.66479200  1
  Mg  Mg81  1  0.28657500  0.09666800  0.61647900  1
  Mg  Mg82  1  0.64768300  0.51656200  0.63626000  1
  Mg  Mg83  1  0.04358200  0.12518600  0.69490100  1
  Mg  Mg84  1  0.39784500  0.06564300  0.68194900  1
  Mg  Mg85  1  0.97194700  0.44356800  0.69177100  1
  Mg  Mg86  1  0.42345600  0.44166700  0.61932900  1
  Mg  Mg87  1  0.95641800  0.96344500  0.65964400  1
  Mg  Mg88  1  0.32381600  0.39412500  0.68068600  1
  Mg  Mg89  1  0.60215500  0.02298700  0.67259600  1
  Mg  Mg90  1  0.35231700  0.77206900  0.61828600  1
  Mg  Mg91  1  0.67618400  0.69450600  0.67385900  1
  Mg  Mg92  1  0.09508800  0.13506900  0.62509100  1
  Mg  Mg93  1  0.74882900  0.36725800  0.67500300  1
  Mg  Mg94  1  0.25117100  0.72137200  0.67954300  1
  Mg  Mg95  1  0.57654400  0.84696300  0.63521600  1
  Mg  Mg96  1  0.89982000  0.76835900  0.68975300  1
  Mg  Mg97  1  0.02805300  0.64506200  0.66277500  1
  Mg  Mg98  1  0.71342500  0.19196200  0.63806600  1
  Mg  Mg99  1  0.90491200  0.15356100  0.62945400  1
  Mg  Mg100  1  0.28657500  0.89666800  0.71647900  1
  Mg  Mg101  1  0.64768300  0.31656200  0.73626000  1
  Mg  Mg102  1  0.42345600  0.24166700  0.71932900  1
  Mg  Mg103  1  0.35231700  0.57206900  0.71828600  1
  Mg  Mg104  1  0.09508800  0.93506900  0.72509100  1
  Mg  Mg105  1  0.57654400  0.64696300  0.73521600  1
  Mg  Mg106  1  0.71342500  0.99196200  0.73806600  1
  Mg  Mg107  1  0.90491200  0.95356100  0.72945400  1
  Zn  Zn108  1  0.40771000  0.05069200  0.24948200  1
  Zn  Zn109  1  0.18261300  0.81943100  0.27183600  1
  Zn  Zn110  1  0.33714800  0.38410100  0.25058600  1
  Zn  Zn111  1  0.75168900  0.79312500  0.23050200  1
  Zn  Zn112  1  0.42323600  0.67028800  0.27500400  1
  Zn  Zn113  1  0.24953100  0.99335300  0.27307300  1
  Zn  Zn114  1  0.50000000  0.44431500  0.22727300  1
  Zn  Zn115  1  0.59229000  0.83793900  0.20506400  1
  Zn  Zn116  1  0.13709400  0.58167700  0.22110800  1
  Zn  Zn117  1  0.57687700  0.11988800  0.22895700  1
  Zn  Zn118  1  0.17552400  0.42338600  0.22230100  1
  Zn  Zn119  1  0.03680400  0.28332200  0.22836300  1
  Zn  Zn120  1  0.53360100  0.18017300  0.27787300  1
  Zn  Zn121  1  0.73237700  0.17704000  0.20650100  1
  Zn  Zn122  1  0.81738700  0.86920000  0.28270900  1
  Zn  Zn123  1  0.86290600  0.30695400  0.23343700  1
  Zn  Zn124  1  0.90034300  0.14067700  0.23494400  1
  Zn  Zn125  1  0.42312300  0.76874200  0.22558800  1
  Zn  Zn126  1  0.75046900  0.69527700  0.28147200  1
  Zn  Zn127  1  0.46639900  0.50845700  0.27667200  1
  Zn  Zn128  1  0.09965700  0.74795300  0.21960200  1
  Zn  Zn129  1  0.57676400  0.01834200  0.27954200  1
  Zn  Zn130  1  0.50000000  0.34431500  0.27727300  1
  Zn  Zn131  1  0.21546200  0.25743800  0.22214900  1
  Zn  Zn132  1  0.17499800  0.32362700  0.27293300  1
  Zn  Zn133  1  0.90216100  0.04150800  0.28320700  1
  Zn  Zn134  1  0.78453800  0.63119300  0.23239700  1
  Zn  Zn135  1  0.09783900  0.64712200  0.27133800  1
  Zn  Zn136  1  0.26762300  0.71159000  0.24804500  1
  Zn  Zn137  1  0.82500200  0.36500400  0.28161300  1
  Zn  Zn138  1  0.24831100  0.09550600  0.22404300  1
  Zn  Zn139  1  0.50000000  0.94431500  0.22727300  1
  Zn  Zn140  1  0.82447600  0.46524500  0.23224500  1
  Zn  Zn141  1  0.96319600  0.60530900  0.22618200  1
  Zn  Zn142  1  0.66285200  0.50453000  0.20396000  1
  Zn  Zn143  1  0.40771000  0.85069200  0.34948200  1
  Zn  Zn144  1  0.18261300  0.61943100  0.37183600  1
  Zn  Zn145  1  0.33714800  0.18410100  0.35058600  1
  Zn  Zn146  1  0.75168900  0.59312500  0.33050200  1
  Zn  Zn147  1  0.42323600  0.47028800  0.37500400  1
  Zn  Zn148  1  0.24953100  0.79335300  0.37307300  1
  Zn  Zn149  1  0.50000000  0.24431500  0.32727300  1
  Zn  Zn150  1  0.59229000  0.63793900  0.30506400  1
  Zn  Zn151  1  0.13709400  0.38167700  0.32110800  1
  Zn  Zn152  1  0.57687700  0.91988800  0.32895700  1
  Zn  Zn153  1  0.17552400  0.22338600  0.32230100  1
  Zn  Zn154  1  0.03680400  0.08332200  0.32836300  1
  Zn  Zn155  1  0.53360100  0.98017300  0.37787300  1
  Zn  Zn156  1  0.73237700  0.97704000  0.30650100  1
  Zn  Zn157  1  0.81738700  0.66920000  0.38270900  1
  Zn  Zn158  1  0.86290600  0.10695400  0.33343700  1
  Zn  Zn159  1  0.90034300  0.94067700  0.33494400  1
  Zn  Zn160  1  0.42312300  0.56874200  0.32558800  1
  Zn  Zn161  1  0.75046900  0.49527700  0.38147200  1
  Zn  Zn162  1  0.46639900  0.30845700  0.37667200  1
  Zn  Zn163  1  0.09965700  0.54795300  0.31960200  1
  Zn  Zn164  1  0.57676400  0.81834200  0.37954200  1
  Zn  Zn165  1  0.50000000  0.14431500  0.37727300  1
  Zn  Zn166  1  0.21546200  0.05743800  0.32214900  1
  Zn  Zn167  1  0.17499800  0.12362700  0.37293300  1
  Zn  Zn168  1  0.90216100  0.84150800  0.38320700  1
  Zn  Zn169  1  0.78453800  0.43119300  0.33239700  1
  Zn  Zn170  1  0.09783900  0.44712200  0.37133800  1
  Zn  Zn171  1  0.26762300  0.51159000  0.34804500  1
  Zn  Zn172  1  0.82500200  0.16500400  0.38161300  1
  Zn  Zn173  1  0.24831100  0.89550600  0.32404300  1
  Zn  Zn174  1  0.50000000  0.74431500  0.32727300  1
  Zn  Zn175  1  0.82447600  0.26524500  0.33224500  1
  Zn  Zn176  1  0.96319600  0.40530900  0.32618200  1
  Zn  Zn177  1  0.66285200  0.30453000  0.30396000  1
  Zn  Zn178  1  0.40771000  0.65069200  0.44948200  1
  Zn  Zn179  1  0.18261300  0.41943100  0.47183600  1
  Zn  Zn180  1  0.33714800  0.98410100  0.45058600  1
  Zn  Zn181  1  0.75168900  0.39312500  0.43050200  1
  Zn  Zn182  1  0.42323600  0.27028800  0.47500400  1
  Zn  Zn183  1  0.24953100  0.59335300  0.47307300  1
  Zn  Zn184  1  0.50000000  0.04431500  0.42727300  1
  Zn  Zn185  1  0.59229000  0.43793900  0.40506400  1
  Zn  Zn186  1  0.13709400  0.18167700  0.42110800  1
  Zn  Zn187  1  0.57687700  0.71988800  0.42895700  1
  Zn  Zn188  1  0.17552400  0.02338600  0.42230100  1
  Zn  Zn189  1  0.03680400  0.88332200  0.42836300  1
  Zn  Zn190  1  0.53360100  0.78017300  0.47787300  1
  Zn  Zn191  1  0.73237700  0.77704000  0.40650100  1
  Zn  Zn192  1  0.81738700  0.46920000  0.48270900  1
  Zn  Zn193  1  0.86290600  0.90695400  0.43343700  1
  Zn  Zn194  1  0.90034300  0.74067700  0.43494400  1
  Zn  Zn195  1  0.42312300  0.36874200  0.42558800  1
  Zn  Zn196  1  0.75046900  0.29527700  0.48147200  1
  Zn  Zn197  1  0.46639900  0.10845700  0.47667200  1
  Zn  Zn198  1  0.09965700  0.34795300  0.41960200  1
  Zn  Zn199  1  0.57676400  0.61834200  0.47954200  1
  Zn  Zn200  1  0.50000000  0.94431500  0.47727300  1
  Zn  Zn201  1  0.21546200  0.85743800  0.42214900  1
  Zn  Zn202  1  0.17499800  0.92362700  0.47293300  1
  Zn  Zn203  1  0.90216100  0.64150800  0.48320700  1
  Zn  Zn204  1  0.78453800  0.23119300  0.43239700  1
  Zn  Zn205  1  0.09783900  0.24712200  0.47133800  1
  Zn  Zn206  1  0.26762300  0.31159000  0.44804500  1
  Zn  Zn207  1  0.82500200  0.96500400  0.48161300  1
  Zn  Zn208  1  0.24831100  0.69550600  0.42404300  1
  Zn  Zn209  1  0.50000000  0.54431500  0.42727300  1
  Zn  Zn210  1  0.82447600  0.06524500  0.43224500  1
  Zn  Zn211  1  0.96319600  0.20530900  0.42618200  1
  Zn  Zn212  1  0.66285200  0.10453000  0.40396000  1
  Zn  Zn213  1  0.40771000  0.45069200  0.54948200  1
  Zn  Zn214  1  0.18261300  0.21943100  0.57183600  1
  Zn  Zn215  1  0.33714800  0.78410100  0.55058600  1
  Zn  Zn216  1  0.75168900  0.19312500  0.53050200  1
  Zn  Zn217  1  0.42323600  0.07028800  0.57500400  1
  Zn  Zn218  1  0.24953100  0.39335300  0.57307300  1
  Zn  Zn219  1  0.50000000  0.84431500  0.52727300  1
  Zn  Zn220  1  0.59229000  0.23793900  0.50506400  1
  Zn  Zn221  1  0.13709400  0.98167700  0.52110800  1
  Zn  Zn222  1  0.57687700  0.51988800  0.52895700  1
  Zn  Zn223  1  0.17552400  0.82338600  0.52230100  1
  Zn  Zn224  1  0.03680400  0.68332200  0.52836300  1
  Zn  Zn225  1  0.53360100  0.58017300  0.57787300  1
  Zn  Zn226  1  0.73237700  0.57704000  0.50650100  1
  Zn  Zn227  1  0.81738700  0.26920000  0.58270900  1
  Zn  Zn228  1  0.86290600  0.70695400  0.53343700  1
  Zn  Zn229  1  0.90034300  0.54067700  0.53494400  1
  Zn  Zn230  1  0.42312300  0.16874200  0.52558800  1
  Zn  Zn231  1  0.75046900  0.09527700  0.58147200  1
  Zn  Zn232  1  0.46639900  0.90845700  0.57667200  1
  Zn  Zn233  1  0.09965700  0.14795300  0.51960200  1
  Zn  Zn234  1  0.57676400  0.41834200  0.57954200  1
  Zn  Zn235  1  0.50000000  0.74431500  0.57727300  1
  Zn  Zn236  1  0.21546200  0.65743800  0.52214900  1
  Zn  Zn237  1  0.17499800  0.72362700  0.57293300  1
  Zn  Zn238  1  0.90216100  0.44150800  0.58320700  1
  Zn  Zn239  1  0.78453800  0.03119300  0.53239700  1
  Zn  Zn240  1  0.09783900  0.04712200  0.57133800  1
  Zn  Zn241  1  0.26762300  0.11159000  0.54804500  1
  Zn  Zn242  1  0.82500200  0.76500400  0.58161300  1
  Zn  Zn243  1  0.24831100  0.49550600  0.52404300  1
  Zn  Zn244  1  0.50000000  0.34431500  0.52727300  1
  Zn  Zn245  1  0.82447600  0.86524500  0.53224500  1
  Zn  Zn246  1  0.96319600  0.00530900  0.52618200  1
  Zn  Zn247  1  0.66285200  0.90453000  0.50396000  1
  Zn  Zn248  1  0.40771000  0.25069200  0.64948200  1
  Zn  Zn249  1  0.18261300  0.01943100  0.67183600  1
  Zn  Zn250  1  0.33714800  0.58410100  0.65058600  1
  Zn  Zn251  1  0.75168900  0.99312500  0.63050200  1
  Zn  Zn252  1  0.42323600  0.87028800  0.67500400  1
  Zn  Zn253  1  0.24953100  0.19335300  0.67307300  1
  Zn  Zn254  1  0.50000000  0.64431500  0.62727300  1
  Zn  Zn255  1  0.59229000  0.03793900  0.60506400  1
  Zn  Zn256  1  0.13709400  0.78167700  0.62110800  1
  Zn  Zn257  1  0.57687700  0.31988800  0.62895700  1
  Zn  Zn258  1  0.17552400  0.62338600  0.62230100  1
  Zn  Zn259  1  0.03680400  0.48332200  0.62836300  1
  Zn  Zn260  1  0.53360100  0.38017300  0.67787300  1
  Zn  Zn261  1  0.73237700  0.37704000  0.60650100  1
  Zn  Zn262  1  0.81738700  0.06920000  0.68270900  1
  Zn  Zn263  1  0.86290600  0.50695400  0.63343700  1
  Zn  Zn264  1  0.90034300  0.34067700  0.63494400  1
  Zn  Zn265  1  0.42312300  0.96874200  0.62558800  1
  Zn  Zn266  1  0.75046900  0.89527700  0.68147200  1
  Zn  Zn267  1  0.46639900  0.70845700  0.67667200  1
  Zn  Zn268  1  0.09965700  0.94795300  0.61960200  1
  Zn  Zn269  1  0.57676400  0.21834200  0.67954200  1
  Zn  Zn270  1  0.50000000  0.54431500  0.67727300  1
  Zn  Zn271  1  0.21546200  0.45743800  0.62214900  1
  Zn  Zn272  1  0.17499800  0.52362700  0.67293300  1
  Zn  Zn273  1  0.90216100  0.24150800  0.68320700  1
  Zn  Zn274  1  0.78453800  0.83119300  0.63239700  1
  Zn  Zn275  1  0.09783900  0.84712200  0.67133800  1
  Zn  Zn276  1  0.26762300  0.91159000  0.64804500  1
  Zn  Zn277  1  0.82500200  0.56500400  0.68161300  1
  Zn  Zn278  1  0.24831100  0.29550600  0.62404300  1
  Zn  Zn279  1  0.50000000  0.14431500  0.62727300  1
  Zn  Zn280  1  0.82447600  0.66524500  0.63224500  1
  Zn  Zn281  1  0.96319600  0.80530900  0.62618200  1
  Zn  Zn282  1  0.66285200  0.70453000  0.60396000  1
  Zn  Zn283  1  0.40771000  0.05069200  0.74948200  1
  Zn  Zn284  1  0.33714800  0.38410100  0.75058600  1
  Zn  Zn285  1  0.75168900  0.79312500  0.73050200  1
  Zn  Zn286  1  0.50000000  0.44431500  0.72727300  1
  Zn  Zn287  1  0.59229000  0.83793900  0.70506400  1
  Zn  Zn288  1  0.13709400  0.58167700  0.72110800  1
  Zn  Zn289  1  0.57687700  0.11988800  0.72895700  1
  Zn  Zn290  1  0.17552400  0.42338600  0.72230100  1
  Zn  Zn291  1  0.03680400  0.28332200  0.72836300  1
  Zn  Zn292  1  0.73237700  0.17704000  0.70650100  1
  Zn  Zn293  1  0.86290600  0.30695400  0.73343700  1
  Zn  Zn294  1  0.90034300  0.14067700  0.73494400  1
  Zn  Zn295  1  0.42312300  0.76874200  0.72558800  1
  Zn  Zn296  1  0.09965700  0.74795300  0.71960200  1
  Zn  Zn297  1  0.21546200  0.25743800  0.72214900  1
  Zn  Zn298  1  0.78453800  0.63119300  0.73239700  1
  Zn  Zn299  1  0.26762300  0.71159000  0.74804500  1
  Zn  Zn300  1  0.24831100  0.09550600  0.72404300  1
  Zn  Zn301  1  0.50000000  0.94431500  0.72727300  1
  Zn  Zn302  1  0.82447600  0.46524500  0.73224500  1
  Zn  Zn303  1  0.96319600  0.60530900  0.72618200  1
  Zn  Zn304  1  0.66285200  0.50453000  0.70396000  1
