# generated using pymatgen
data_Ce2Mg19
_symmetry_space_group_name_H-M   'P 1'
_cell_length_a   10.08648700
_cell_length_b   17.89230800
_cell_length_c   41.32051500
_cell_angle_alpha   90.00000000
_cell_angle_beta   90.00000000
_cell_angle_gamma   90.00000000
_symmetry_Int_Tables_number   1
_chemical_formula_structural   Ce2Mg19
_chemical_formula_sum   'Ce16 Mg152'
_cell_volume   7457.13532630
_cell_formula_units_Z   8
loop_
 _symmetry_equiv_pos_site_id
 _symmetry_equiv_pos_as_xyz
  1  'x, y, z'
loop_
 _atom_site_type_symbol
 _atom_site_label
 _atom_site_symmetry_multiplicity
 _atom_site_fract_x
 _atom_site_fract_y
 _atom_site_fract_z
 _atom_site_occupancy
  Ce  Ce0  1  0.25000000  0.67233600  0.27631600  1
  Ce  Ce1  1  0.75000000  0.67233600  0.27631600  1
  Ce  Ce2  1  0.25000000  0.00566900  0.27631600  1
  Ce  Ce3  1  0.75000000  0.33900200  0.27631600  1
  Ce  Ce4  1  0.25000000  0.17233600  0.40131600  1
  Ce  Ce5  1  0.75000000  0.17233600  0.40131600  1
  Ce  Ce6  1  0.25000000  0.50566900  0.40131600  1
  Ce  Ce7  1  0.75000000  0.83900200  0.40131600  1
  Ce  Ce8  1  0.25000000  0.67233600  0.52631600  1
  Ce  Ce9  1  0.75000000  0.67233600  0.52631600  1
  Ce  Ce10  1  0.25000000  0.00566900  0.52631600  1
  Ce  Ce11  1  0.75000000  0.33900200  0.52631600  1
  Ce  Ce12  1  0.25000000  0.17233600  0.65131600  1
  Ce  Ce13  1  0.75000000  0.17233600  0.65131600  1
  Ce  Ce14  1  0.25000000  0.50566900  0.65131600  1
  Ce  Ce15  1  0.75000000  0.83900200  0.65131600  1
  Mg  Mg16  1  0.00000000  0.42233600  0.21381600  1
  Mg  Mg17  1  0.00000000  0.92233600  0.21381600  1
  Mg  Mg18  1  0.02159000  0.59122600  0.21548300  1
  Mg  Mg19  1  0.47841000  0.83455600  0.27631600  1
  Mg  Mg20  1  0.97841000  0.75344600  0.21548300  1
  Mg  Mg21  1  0.75000000  0.00829200  0.20061900  1
  Mg  Mg22  1  0.59768900  0.00566900  0.27631600  1
  Mg  Mg23  1  0.09768900  0.33900200  0.27631600  1
  Mg  Mg24  1  0.52159000  0.51011600  0.27631600  1
  Mg  Mg25  1  0.75000000  0.85296400  0.23945100  1
  Mg  Mg26  1  0.25000000  0.18892100  0.31514800  1
  Mg  Mg27  1  0.47841000  0.59122600  0.21548300  1
  Mg  Mg28  1  0.25000000  0.49170800  0.23945100  1
  Mg  Mg29  1  0.75000000  0.15575100  0.23748400  1
  Mg  Mg30  1  0.02159000  0.83455600  0.27631600  1
  Mg  Mg31  1  0.02159000  0.09122600  0.21214800  1
  Mg  Mg32  1  0.52159000  0.75344600  0.21548300  1
  Mg  Mg33  1  0.47841000  0.09122600  0.21214800  1
  Mg  Mg34  1  0.90231100  0.00566900  0.27631600  1
  Mg  Mg35  1  0.97841000  0.51011600  0.27631600  1
  Mg  Mg36  1  0.50000000  0.17233600  0.27631600  1
  Mg  Mg37  1  0.25000000  0.33637900  0.20061900  1
  Mg  Mg38  1  0.25000000  0.83637900  0.22701300  1
  Mg  Mg39  1  0.40231100  0.33900200  0.27631600  1
  Mg  Mg40  1  0.97841000  0.25344600  0.21214800  1
  Mg  Mg41  1  0.25000000  0.18892100  0.23748400  1
  Mg  Mg42  1  0.75000000  0.50829200  0.22701300  1
  Mg  Mg43  1  0.52159000  0.25344600  0.21214800  1
  Mg  Mg44  1  0.25000000  0.49170800  0.31318000  1
  Mg  Mg45  1  0.50000000  0.92233600  0.21381600  1
  Mg  Mg46  1  0.75000000  0.15575100  0.31514800  1
  Mg  Mg47  1  0.75000000  0.85296400  0.31318000  1
  Mg  Mg48  1  1.00000000  0.17233600  0.27631600  1
  Mg  Mg49  1  0.50000000  0.42233600  0.21381600  1
  Mg  Mg50  1  0.00000000  0.92233600  0.33881600  1
  Mg  Mg51  1  0.00000000  0.42233600  0.33881600  1
  Mg  Mg52  1  0.02159000  0.09122600  0.34048300  1
  Mg  Mg53  1  0.47841000  0.33455600  0.40131600  1
  Mg  Mg54  1  0.97841000  0.25344600  0.34048300  1
  Mg  Mg55  1  0.75000000  0.50829200  0.32561900  1
  Mg  Mg56  1  0.59768900  0.50566900  0.40131600  1
  Mg  Mg57  1  0.09768900  0.83900200  0.40131600  1
  Mg  Mg58  1  0.52159000  0.01011600  0.40131600  1
  Mg  Mg59  1  0.75000000  0.35296400  0.36445100  1
  Mg  Mg60  1  0.25000000  0.68892100  0.44014800  1
  Mg  Mg61  1  0.47841000  0.09122600  0.34048300  1
  Mg  Mg62  1  0.25000000  0.99170800  0.36445100  1
  Mg  Mg63  1  0.75000000  0.65575100  0.36248400  1
  Mg  Mg64  1  0.02159000  0.33455600  0.40131600  1
  Mg  Mg65  1  0.02159000  0.59122600  0.33714800  1
  Mg  Mg66  1  0.52159000  0.25344600  0.34048300  1
  Mg  Mg67  1  0.47841000  0.59122600  0.33714800  1
  Mg  Mg68  1  0.90231100  0.50566900  0.40131600  1
  Mg  Mg69  1  0.97841000  0.01011600  0.40131600  1
  Mg  Mg70  1  0.50000000  0.67233600  0.40131600  1
  Mg  Mg71  1  0.25000000  0.83637900  0.32561900  1
  Mg  Mg72  1  0.25000000  0.33637900  0.35201300  1
  Mg  Mg73  1  0.40231100  0.83900200  0.40131600  1
  Mg  Mg74  1  0.97841000  0.75344600  0.33714800  1
  Mg  Mg75  1  0.25000000  0.68892100  0.36248400  1
  Mg  Mg76  1  0.75000000  0.00829200  0.35201300  1
  Mg  Mg77  1  0.52159000  0.75344600  0.33714800  1
  Mg  Mg78  1  0.25000000  0.99170800  0.43818000  1
  Mg  Mg79  1  0.50000000  0.42233600  0.33881600  1
  Mg  Mg80  1  0.75000000  0.65575100  0.44014800  1
  Mg  Mg81  1  0.75000000  0.35296400  0.43818000  1
  Mg  Mg82  1  1.00000000  0.67233600  0.40131600  1
  Mg  Mg83  1  0.50000000  0.92233600  0.33881600  1
  Mg  Mg84  1  0.00000000  0.42233600  0.46381600  1
  Mg  Mg85  1  0.00000000  0.92233600  0.46381600  1
  Mg  Mg86  1  0.02159000  0.59122600  0.46548300  1
  Mg  Mg87  1  0.47841000  0.83455600  0.52631600  1
  Mg  Mg88  1  0.97841000  0.75344600  0.46548300  1
  Mg  Mg89  1  0.75000000  0.00829200  0.45061900  1
  Mg  Mg90  1  0.59768900  0.00566900  0.52631600  1
  Mg  Mg91  1  0.09768900  0.33900200  0.52631600  1
  Mg  Mg92  1  0.52159000  0.51011600  0.52631600  1
  Mg  Mg93  1  0.75000000  0.85296400  0.48945100  1
  Mg  Mg94  1  0.25000000  0.18892100  0.56514800  1
  Mg  Mg95  1  0.47841000  0.59122600  0.46548300  1
  Mg  Mg96  1  0.25000000  0.49170800  0.48945100  1
  Mg  Mg97  1  0.75000000  0.15575100  0.48748400  1
  Mg  Mg98  1  0.02159000  0.83455600  0.52631600  1
  Mg  Mg99  1  0.02159000  0.09122600  0.46214800  1
  Mg  Mg100  1  0.52159000  0.75344600  0.46548300  1
  Mg  Mg101  1  0.47841000  0.09122600  0.46214800  1
  Mg  Mg102  1  0.90231100  0.00566900  0.52631600  1
  Mg  Mg103  1  0.97841000  0.51011600  0.52631600  1
  Mg  Mg104  1  0.50000000  0.17233600  0.52631600  1
  Mg  Mg105  1  0.25000000  0.33637900  0.45061900  1
  Mg  Mg106  1  0.25000000  0.83637900  0.47701300  1
  Mg  Mg107  1  0.40231100  0.33900200  0.52631600  1
  Mg  Mg108  1  0.97841000  0.25344600  0.46214800  1
  Mg  Mg109  1  0.25000000  0.18892100  0.48748400  1
  Mg  Mg110  1  0.75000000  0.50829200  0.47701300  1
  Mg  Mg111  1  0.52159000  0.25344600  0.46214800  1
  Mg  Mg112  1  0.25000000  0.49170800  0.56318000  1
  Mg  Mg113  1  0.50000000  0.92233600  0.46381600  1
  Mg  Mg114  1  0.75000000  0.15575100  0.56514800  1
  Mg  Mg115  1  0.75000000  0.85296400  0.56318000  1
  Mg  Mg116  1  0.00000000  0.17233600  0.52631600  1
  Mg  Mg117  1  0.50000000  0.42233600  0.46381600  1
  Mg  Mg118  1  0.00000000  0.92233600  0.58881600  1
  Mg  Mg119  1  0.00000000  0.42233600  0.58881600  1
  Mg  Mg120  1  0.02159000  0.09122600  0.59048300  1
  Mg  Mg121  1  0.47841000  0.33455600  0.65131600  1
  Mg  Mg122  1  0.97841000  0.25344600  0.59048300  1
  Mg  Mg123  1  0.75000000  0.50829200  0.57561900  1
  Mg  Mg124  1  0.59768900  0.50566900  0.65131600  1
  Mg  Mg125  1  0.09768900  0.83900200  0.65131600  1
  Mg  Mg126  1  0.52159000  0.01011600  0.65131600  1
  Mg  Mg127  1  0.75000000  0.35296400  0.61445100  1
  Mg  Mg128  1  0.25000000  0.68892100  0.69014800  1
  Mg  Mg129  1  0.47841000  0.09122600  0.59048300  1
  Mg  Mg130  1  0.25000000  0.99170800  0.61445100  1
  Mg  Mg131  1  0.75000000  0.65575100  0.61248400  1
  Mg  Mg132  1  0.02159000  0.33455600  0.65131600  1
  Mg  Mg133  1  0.02159000  0.59122600  0.58714800  1
  Mg  Mg134  1  0.52159000  0.25344600  0.59048300  1
  Mg  Mg135  1  0.47841000  0.59122600  0.58714800  1
  Mg  Mg136  1  0.90231100  0.50566900  0.65131600  1
  Mg  Mg137  1  0.97841000  0.01011600  0.65131600  1
  Mg  Mg138  1  0.50000000  0.67233600  0.65131600  1
  Mg  Mg139  1  0.25000000  0.83637900  0.57561900  1
  Mg  Mg140  1  0.25000000  0.33637900  0.60201300  1
  Mg  Mg141  1  0.40231100  0.83900200  0.65131600  1
  Mg  Mg142  1  0.97841000  0.75344600  0.58714800  1
  Mg  Mg143  1  0.25000000  0.68892100  0.61248400  1
  Mg  Mg144  1  0.75000000  0.00829200  0.60201300  1
  Mg  Mg145  1  0.52159000  0.75344600  0.58714800  1
  Mg  Mg146  1  0.25000000  0.99170800  0.68818000  1
  Mg  Mg147  1  0.50000000  0.42233600  0.58881600  1
  Mg  Mg148  1  0.75000000  0.65575100  0.69014800  1
  Mg  Mg149  1  0.75000000  0.35296400  0.68818000  1
  Mg  Mg150  1  0.00000000  0.67233600  0.65131600  1
  Mg  Mg151  1  0.50000000  0.92233600  0.58881600  1
  Mg  Mg152  1  0.00000000  0.42233600  0.71381600  1
  Mg  Mg153  1  0.00000000  0.92233600  0.71381600  1
  Mg  Mg154  1  0.02159000  0.59122600  0.71548300  1
  Mg  Mg155  1  0.97841000  0.75344600  0.71548300  1
  Mg  Mg156  1  0.75000000  0.00829200  0.70061900  1
  Mg  Mg157  1  0.47841000  0.59122600  0.71548300  1
  Mg  Mg158  1  0.02159000  0.09122600  0.71214800  1
  Mg  Mg159  1  0.52159000  0.75344600  0.71548300  1
  Mg  Mg160  1  0.47841000  0.09122600  0.71214800  1
  Mg  Mg161  1  0.25000000  0.33637900  0.70061900  1
  Mg  Mg162  1  0.25000000  0.83637900  0.72701300  1
  Mg  Mg163  1  0.97841000  0.25344600  0.71214800  1
  Mg  Mg164  1  0.75000000  0.50829200  0.72701300  1
  Mg  Mg165  1  0.52159000  0.25344600  0.71214800  1
  Mg  Mg166  1  0.50000000  0.92233600  0.71381600  1
  Mg  Mg167  1  0.50000000  0.42233600  0.71381600  1
