# generated using pymatgen
data_MgB4
_symmetry_space_group_name_H-M   'P 1'
_cell_length_a   7.42725500
_cell_length_b   7.03001057
_cell_length_c   44.60570800
_cell_angle_alpha   90.78128318
_cell_angle_beta   90.00000000
_cell_angle_gamma   90.00000000
_symmetry_Int_Tables_number   1
_chemical_formula_structural   MgB4
_chemical_formula_sum   'Mg30 B120'
_cell_volume   2328.81168884
_cell_formula_units_Z   30
loop_
 _symmetry_equiv_pos_site_id
 _symmetry_equiv_pos_as_xyz
  1  'x, y, z'
loop_
 _atom_site_type_symbol
 _atom_site_label
 _atom_site_symmetry_multiplicity
 _atom_site_fract_x
 _atom_site_fract_y
 _atom_site_fract_z
 _atom_site_occupancy
  Mg  Mg0  1  0.36221400  0.33580100  0.23428300  1
  Mg  Mg1  1  0.63778600  0.08727600  0.26571700  1
  Mg  Mg2  1  0.13778600  0.02810900  0.19582100  1
  Mg  Mg3  1  0.86221400  0.77958300  0.22725600  1
  Mg  Mg4  1  0.36221400  0.95118600  0.31120600  1
  Mg  Mg5  1  0.63778600  0.70266000  0.34264000  1
  Mg  Mg6  1  0.13778600  0.64349400  0.27274400  1
  Mg  Mg7  1  0.86221400  0.39496800  0.30417900  1
  Mg  Mg8  1  0.36221400  0.56657000  0.38812900  1
  Mg  Mg9  1  0.63778600  0.31804500  0.41956300  1
  Mg  Mg10  1  0.13778600  0.25887800  0.34966700  1
  Mg  Mg11  1  0.86221400  0.01035300  0.38110200  1
  Mg  Mg12  1  0.36221400  0.18195500  0.46505200  1
  Mg  Mg13  1  0.63778600  0.93343000  0.49648600  1
  Mg  Mg14  1  0.13778600  0.87426300  0.42659100  1
  Mg  Mg15  1  0.86221400  0.62573700  0.45802500  1
  Mg  Mg16  1  0.36221400  0.79734000  0.54197500  1
  Mg  Mg17  1  0.63778600  0.54881400  0.57340900  1
  Mg  Mg18  1  0.13778600  0.48964700  0.50351400  1
  Mg  Mg19  1  0.86221400  0.24112200  0.53494800  1
  Mg  Mg20  1  0.36221400  0.41272400  0.61889800  1
  Mg  Mg21  1  0.63778600  0.16419900  0.65033300  1
  Mg  Mg22  1  0.13778600  0.10503200  0.58043700  1
  Mg  Mg23  1  0.86221400  0.85650600  0.61187100  1
  Mg  Mg24  1  0.36221400  0.02810900  0.69582100  1
  Mg  Mg25  1  0.63778600  0.77958300  0.72725600  1
  Mg  Mg26  1  0.13778600  0.72041700  0.65736000  1
  Mg  Mg27  1  0.86221400  0.47189100  0.68879400  1
  Mg  Mg28  1  0.13778600  0.33580100  0.73428300  1
  Mg  Mg29  1  0.86221400  0.08727600  0.76571700  1
  B  B30  1  0.84631100  0.13685200  0.20941400  1
  B  B31  1  0.15368900  0.67084100  0.21366300  1
  B  B32  1  0.65368900  0.44454400  0.24787600  1
  B  B33  1  0.34631100  0.97853300  0.25212400  1
  B  B34  1  0.64694100  0.03284500  0.19641300  1
  B  B35  1  0.35305900  0.77484700  0.22666400  1
  B  B36  1  0.85305900  0.34053800  0.23487500  1
  B  B37  1  0.14694100  0.08253900  0.26512500  1
  B  B38  1  0.06322000  0.46297000  0.22617900  1
  B  B39  1  0.93678000  0.10779600  0.24428300  1
  B  B40  1  0.43678000  0.00758900  0.21725600  1
  B  B41  1  0.56322000  0.65241500  0.23535900  1
  B  B42  1  0.93678000  0.34472300  0.19689700  1
  B  B43  1  0.06322000  0.31528100  0.25571700  1
  B  B44  1  0.56322000  0.80010400  0.20582100  1
  B  B45  1  0.43678000  0.77066200  0.26464100  1
  B  B46  1  0.84631100  0.75223600  0.28633700  1
  B  B47  1  0.15368900  0.28622500  0.29058600  1
  B  B48  1  0.65368900  0.05992900  0.32479900  1
  B  B49  1  0.34631100  0.59391700  0.32904700  1
  B  B50  1  0.64694100  0.64823000  0.27333600  1
  B  B51  1  0.35305900  0.39023200  0.30358700  1
  B  B52  1  0.85305900  0.95592200  0.31179800  1
  B  B53  1  0.14694100  0.69792400  0.34204800  1
  B  B54  1  0.06322000  0.07835400  0.30310300  1
  B  B55  1  0.93678000  0.72318100  0.32120600  1
  B  B56  1  0.43678000  0.62297300  0.29417900  1
  B  B57  1  0.56322000  0.26780000  0.31228200  1
  B  B58  1  0.93678000  0.96010700  0.27382100  1
  B  B59  1  0.06322000  0.93066600  0.33264000  1
  B  B60  1  0.56322000  0.41548800  0.28274400  1
  B  B61  1  0.43678000  0.38604700  0.34156400  1
  B  B62  1  0.84631100  0.36762100  0.36326000  1
  B  B63  1  0.15368900  0.90161000  0.36750900  1
  B  B64  1  0.65368900  0.67531300  0.40172200  1
  B  B65  1  0.34631100  0.20930200  0.40597000  1
  B  B66  1  0.64694100  0.26361400  0.35025900  1
  B  B67  1  0.35305900  0.00561600  0.38051000  1
  B  B68  1  0.85305900  0.57130700  0.38872100  1
  B  B69  1  0.14694100  0.31330900  0.41897100  1
  B  B70  1  0.06322000  0.69373900  0.38002600  1
  B  B71  1  0.93678000  0.33856500  0.39812900  1
  B  B72  1  0.43678000  0.23835800  0.37110200  1
  B  B73  1  0.56322000  0.88318400  0.38920500  1
  B  B74  1  0.93678000  0.57549200  0.35074400  1
  B  B75  1  0.06322000  0.54605000  0.40956300  1
  B  B76  1  0.56322000  0.03087300  0.35966700  1
  B  B77  1  0.43678000  0.00143100  0.41848700  1
  B  B78  1  0.84631100  0.98300600  0.44018300  1
  B  B79  1  0.15368900  0.51699400  0.44443200  1
  B  B80  1  0.65368900  0.29069800  0.47864500  1
  B  B81  1  0.34631100  0.82468700  0.48289400  1
  B  B82  1  0.64694100  0.87899900  0.42718300  1
  B  B83  1  0.35305900  0.62100100  0.45743300  1
  B  B84  1  0.85305900  0.18669100  0.46564400  1
  B  B85  1  0.14694100  0.92869300  0.49589400  1
  B  B86  1  0.06322000  0.30912300  0.45694900  1
  B  B87  1  0.93678000  0.95395000  0.47505200  1
  B  B88  1  0.43678000  0.85374300  0.44802500  1
  B  B89  1  0.56322000  0.49856900  0.46612800  1
  B  B90  1  0.93678000  0.19087700  0.42766700  1
  B  B91  1  0.06322000  0.16143500  0.48648600  1
  B  B92  1  0.56322000  0.64625700  0.43659000  1
  B  B93  1  0.43678000  0.61681600  0.49541000  1
  B  B94  1  0.84631100  0.59839000  0.51710600  1
  B  B95  1  0.15368900  0.13237900  0.52135500  1
  B  B96  1  0.65368900  0.90608300  0.55556800  1
  B  B97  1  0.34631100  0.44007100  0.55981700  1
  B  B98  1  0.64694100  0.49438400  0.50410600  1
  B  B99  1  0.35305900  0.23638600  0.53435600  1
  B  B100  1  0.85305900  0.80207600  0.54256700  1
  B  B101  1  0.14694100  0.54407800  0.57281700  1
  B  B102  1  0.06322000  0.92450800  0.53387200  1
  B  B103  1  0.93678000  0.56933400  0.55197500  1
  B  B104  1  0.43678000  0.46912700  0.52494800  1
  B  B105  1  0.56322000  0.11395300  0.54305100  1
  B  B106  1  0.93678000  0.80626100  0.50459000  1
  B  B107  1  0.06322000  0.77681900  0.56341000  1
  B  B108  1  0.56322000  0.26164200  0.51351400  1
  B  B109  1  0.43678000  0.23220000  0.57233300  1
  B  B110  1  0.84631100  0.21377500  0.59403000  1
  B  B111  1  0.15368900  0.74776400  0.59827800  1
  B  B112  1  0.65368900  0.52146700  0.63249100  1
  B  B113  1  0.34631100  0.05545600  0.63674000  1
  B  B114  1  0.64694100  0.10976800  0.58102900  1
  B  B115  1  0.35305900  0.85177000  0.61127900  1
  B  B116  1  0.85305900  0.41746100  0.61949000  1
  B  B117  1  0.14694100  0.15946200  0.64974100  1
  B  B118  1  0.06322000  0.53989300  0.61079500  1
  B  B119  1  0.93678000  0.18471900  0.62889800  1
  B  B120  1  0.43678000  0.08451200  0.60187100  1
  B  B121  1  0.56322000  0.72933800  0.61997400  1
  B  B122  1  0.93678000  0.42164600  0.58151300  1
  B  B123  1  0.06322000  0.39220400  0.64033300  1
  B  B124  1  0.56322000  0.87702700  0.59043700  1
  B  B125  1  0.43678000  0.84758500  0.64925600  1
  B  B126  1  0.84631100  0.82915900  0.67095300  1
  B  B127  1  0.15368900  0.36314800  0.67520100  1
  B  B128  1  0.65368900  0.13685200  0.70941400  1
  B  B129  1  0.34631100  0.67084100  0.71366300  1
  B  B130  1  0.64694100  0.72515300  0.65795200  1
  B  B131  1  0.35305900  0.46715500  0.68820200  1
  B  B132  1  0.85305900  0.03284500  0.69641300  1
  B  B133  1  0.14694100  0.77484700  0.72666400  1
  B  B134  1  0.06322000  0.15527700  0.68771800  1
  B  B135  1  0.93678000  0.80010400  0.70582100  1
  B  B136  1  0.43678000  0.69989600  0.67879400  1
  B  B137  1  0.56322000  0.34472300  0.69689700  1
  B  B138  1  0.93678000  0.03703000  0.65843600  1
  B  B139  1  0.06322000  0.00758900  0.71725600  1
  B  B140  1  0.56322000  0.49241100  0.66736000  1
  B  B141  1  0.43678000  0.46297000  0.72617900  1
  B  B142  1  0.84631100  0.44454400  0.74787600  1
  B  B143  1  0.15368900  0.97853300  0.75212400  1
  B  B144  1  0.64694100  0.34053800  0.73487500  1
  B  B145  1  0.35305900  0.08253900  0.76512500  1
  B  B146  1  0.06322000  0.77066200  0.76464100  1
  B  B147  1  0.43678000  0.31528100  0.75571700  1
  B  B148  1  0.93678000  0.65241500  0.73535900  1
  B  B149  1  0.56322000  0.10779600  0.74428300  1
