# generated using pymatgen
data_Mg17Pd27
_symmetry_space_group_name_H-M   'P 1'
_cell_length_a   5.51609600
_cell_length_b   10.69961100
_cell_length_c   43.08539000
_cell_angle_alpha   90.00000000
_cell_angle_beta   90.00000000
_cell_angle_gamma   90.00000000
_symmetry_Int_Tables_number   1
_chemical_formula_structural   Mg17Pd27
_chemical_formula_sum   'Mg34 Pd54'
_cell_volume   2542.90322662
_cell_formula_units_Z   2
loop_
 _symmetry_equiv_pos_site_id
 _symmetry_equiv_pos_as_xyz
  1  'x, y, z'
loop_
 _atom_site_type_symbol
 _atom_site_label
 _atom_site_symmetry_multiplicity
 _atom_site_fract_x
 _atom_site_fract_y
 _atom_site_fract_z
 _atom_site_occupancy
  Mg  Mg0  1  0.00000000  0.50000000  0.27500000  1
  Mg  Mg1  1  0.50000000  0.00000000  0.27500000  1
  Mg  Mg2  1  0.16115000  0.13746600  0.22500000  1
  Mg  Mg3  1  0.83885000  0.86253400  0.22500000  1
  Mg  Mg4  1  0.33885000  0.63746600  0.22500000  1
  Mg  Mg5  1  0.66115000  0.36253400  0.22500000  1
  Mg  Mg6  1  0.00000000  0.50000000  0.37500000  1
  Mg  Mg7  1  0.50000000  0.00000000  0.37500000  1
  Mg  Mg8  1  0.16115000  0.13746600  0.32500000  1
  Mg  Mg9  1  0.83885000  0.86253400  0.32500000  1
  Mg  Mg10  1  0.33885000  0.63746600  0.32500000  1
  Mg  Mg11  1  0.66115000  0.36253400  0.32500000  1
  Mg  Mg12  1  0.00000000  0.50000000  0.47500000  1
  Mg  Mg13  1  0.50000000  0.00000000  0.47500000  1
  Mg  Mg14  1  0.16115000  0.13746600  0.42500000  1
  Mg  Mg15  1  0.83885000  0.86253400  0.42500000  1
  Mg  Mg16  1  0.33885000  0.63746600  0.42500000  1
  Mg  Mg17  1  0.66115000  0.36253400  0.42500000  1
  Mg  Mg18  1  0.00000000  0.50000000  0.57500000  1
  Mg  Mg19  1  0.50000000  0.00000000  0.57500000  1
  Mg  Mg20  1  0.16115000  0.13746600  0.52500000  1
  Mg  Mg21  1  0.83885000  0.86253400  0.52500000  1
  Mg  Mg22  1  0.33885000  0.63746600  0.52500000  1
  Mg  Mg23  1  0.66115000  0.36253400  0.52500000  1
  Mg  Mg24  1  0.00000000  0.50000000  0.67500000  1
  Mg  Mg25  1  0.50000000  0.00000000  0.67500000  1
  Mg  Mg26  1  0.16115000  0.13746600  0.62500000  1
  Mg  Mg27  1  0.83885000  0.86253400  0.62500000  1
  Mg  Mg28  1  0.33885000  0.63746600  0.62500000  1
  Mg  Mg29  1  0.66115000  0.36253400  0.62500000  1
  Mg  Mg30  1  0.16115000  0.13746600  0.72500000  1
  Mg  Mg31  1  0.83885000  0.86253400  0.72500000  1
  Mg  Mg32  1  0.33885000  0.63746600  0.72500000  1
  Mg  Mg33  1  0.66115000  0.36253400  0.72500000  1
  Pd  Pd34  1  0.17470500  0.38885700  0.22500000  1
  Pd  Pd35  1  0.82529500  0.61114300  0.22500000  1
  Pd  Pd36  1  0.32529500  0.88885700  0.22500000  1
  Pd  Pd37  1  0.67470500  0.11114300  0.22500000  1
  Pd  Pd38  1  0.38856000  0.24383900  0.27500000  1
  Pd  Pd39  1  0.61144000  0.75616100  0.27500000  1
  Pd  Pd40  1  0.11144000  0.74383900  0.27500000  1
  Pd  Pd41  1  0.88856000  0.25616100  0.27500000  1
  Pd  Pd42  1  0.00000000  0.00000000  0.27500000  1
  Pd  Pd43  1  0.50000000  0.50000000  0.27500000  1
  Pd  Pd44  1  0.17470500  0.38885700  0.32500000  1
  Pd  Pd45  1  0.82529500  0.61114300  0.32500000  1
  Pd  Pd46  1  0.32529500  0.88885700  0.32500000  1
  Pd  Pd47  1  0.67470500  0.11114300  0.32500000  1
  Pd  Pd48  1  0.38856000  0.24383900  0.37500000  1
  Pd  Pd49  1  0.61144000  0.75616100  0.37500000  1
  Pd  Pd50  1  0.11144000  0.74383900  0.37500000  1
  Pd  Pd51  1  0.88856000  0.25616100  0.37500000  1
  Pd  Pd52  1  0.00000000  0.00000000  0.37500000  1
  Pd  Pd53  1  0.50000000  0.50000000  0.37500000  1
  Pd  Pd54  1  0.17470500  0.38885700  0.42500000  1
  Pd  Pd55  1  0.82529500  0.61114300  0.42500000  1
  Pd  Pd56  1  0.32529500  0.88885700  0.42500000  1
  Pd  Pd57  1  0.67470500  0.11114300  0.42500000  1
  Pd  Pd58  1  0.38856000  0.24383900  0.47500000  1
  Pd  Pd59  1  0.61144000  0.75616100  0.47500000  1
  Pd  Pd60  1  0.11144000  0.74383900  0.47500000  1
  Pd  Pd61  1  0.88856000  0.25616100  0.47500000  1
  Pd  Pd62  1  0.00000000  0.00000000  0.47500000  1
  Pd  Pd63  1  0.50000000  0.50000000  0.47500000  1
  Pd  Pd64  1  0.17470500  0.38885700  0.52500000  1
  Pd  Pd65  1  0.82529500  0.61114300  0.52500000  1
  Pd  Pd66  1  0.32529500  0.88885700  0.52500000  1
  Pd  Pd67  1  0.67470500  0.11114300  0.52500000  1
  Pd  Pd68  1  0.38856000  0.24383900  0.57500000  1
  Pd  Pd69  1  0.61144000  0.75616100  0.57500000  1
  Pd  Pd70  1  0.11144000  0.74383900  0.57500000  1
  Pd  Pd71  1  0.88856000  0.25616100  0.57500000  1
  Pd  Pd72  1  0.00000000  0.00000000  0.57500000  1
  Pd  Pd73  1  0.50000000  0.50000000  0.57500000  1
  Pd  Pd74  1  0.17470500  0.38885700  0.62500000  1
  Pd  Pd75  1  0.82529500  0.61114300  0.62500000  1
  Pd  Pd76  1  0.32529500  0.88885700  0.62500000  1
  Pd  Pd77  1  0.67470500  0.11114300  0.62500000  1
  Pd  Pd78  1  0.38856000  0.24383900  0.67500000  1
  Pd  Pd79  1  0.61144000  0.75616100  0.67500000  1
  Pd  Pd80  1  0.11144000  0.74383900  0.67500000  1
  Pd  Pd81  1  0.88856000  0.25616100  0.67500000  1
  Pd  Pd82  1  0.00000000  0.00000000  0.67500000  1
  Pd  Pd83  1  0.50000000  0.50000000  0.67500000  1
  Pd  Pd84  1  0.17470500  0.38885700  0.72500000  1
  Pd  Pd85  1  0.82529500  0.61114300  0.72500000  1
  Pd  Pd86  1  0.32529500  0.88885700  0.72500000  1
  Pd  Pd87  1  0.67470500  0.11114300  0.72500000  1
