# generated using pymatgen
data_Ba24Mg191
_symmetry_space_group_name_H-M   'P 1'
_cell_length_a   10.57649000
_cell_length_b   18.93828387
_cell_length_c   48.26522000
_cell_angle_alpha   99.95427710
_cell_angle_beta   90.00000000
_cell_angle_gamma   73.78540565
_symmetry_Int_Tables_number   1
_chemical_formula_structural   Ba24Mg191
_chemical_formula_sum   'Ba24 Mg191'
_cell_volume   9131.33884670
_cell_formula_units_Z   1
loop_
 _symmetry_equiv_pos_site_id
 _symmetry_equiv_pos_as_xyz
  1  'x, y, z'
loop_
 _atom_site_type_symbol
 _atom_site_label
 _atom_site_symmetry_multiplicity
 _atom_site_fract_x
 _atom_site_fract_y
 _atom_site_fract_z
 _atom_site_occupancy
  Ba  Ba0  1  0.22953800  0.22038200  0.26840000  1
  Ba  Ba1  1  0.12085000  0.43775800  0.21405600  1
  Ba  Ba2  1  0.00731600  0.66482600  0.32395600  1
  Ba  Ba3  1  0.89862800  0.88220200  0.26961200  1
  Ba  Ba4  1  0.45176000  0.77593700  0.21284500  1
  Ba  Ba5  1  0.67640500  0.32664700  0.32516700  1
  Ba  Ba6  1  0.56287100  0.55371500  0.43506700  1
  Ba  Ba7  1  0.45418300  0.77109100  0.38072300  1
  Ba  Ba8  1  0.34064900  0.99815900  0.49062200  1
  Ba  Ba9  1  0.23196100  0.21553600  0.43627800  1
  Ba  Ba10  1  0.78509300  0.10927000  0.37951100  1
  Ba  Ba11  1  0.00973900  0.65998000  0.49183400  1
  Ba  Ba12  1  0.89620500  0.88704800  0.60173300  1
  Ba  Ba13  1  0.78751600  0.10442500  0.54738900  1
  Ba  Ba14  1  0.67398200  0.33149300  0.65728900  1
  Ba  Ba15  1  0.56529400  0.54886900  0.60294500  1
  Ba  Ba16  1  0.11842700  0.44260400  0.54617800  1
  Ba  Ba17  1  0.34307200  0.99331300  0.65850000  1
  Ba  Ba18  1  0.22953800  0.22038200  0.76840000  1
  Ba  Ba19  1  0.12085000  0.43775800  0.71405600  1
  Ba  Ba20  1  0.00731600  0.66482600  0.82395600  1
  Ba  Ba21  1  0.89862800  0.88220200  0.76961200  1
  Ba  Ba22  1  0.45176000  0.77593700  0.71284500  1
  Ba  Ba23  1  0.67640500  0.32664700  0.82516700  1
  Mg  Mg24  1  0.59128600  0.20435700  0.26220500  1
  Mg  Mg25  1  0.11456400  0.45033000  0.29519700  1
  Mg  Mg26  1  0.89868600  0.37637800  0.27154300  1
  Mg  Mg27  1  0.30959800  0.06026100  0.30843000  1
  Mg  Mg28  1  0.88381400  0.20435700  0.26220500  1
  Mg  Mg29  1  0.27155500  0.55129200  0.26900600  1
  Mg  Mg30  1  0.84186000  0.49573600  0.32456100  1
  Mg  Mg31  1  0.40439300  0.37637800  0.27154300  1
  Mg  Mg32  1  0.85661100  0.55129200  0.26900600  1
  Mg  Mg33  1  0.34186000  0.49573600  0.32456100  1
  Mg  Mg34  1  0.36906400  0.64880100  0.31776100  1
  Mg  Mg35  1  0.66159200  0.64880100  0.31776100  1
  Mg  Mg36  1  0.75910100  0.45378300  0.22025100  1
  Mg  Mg37  1  0.72377300  0.72620600  0.26646900  1
  Mg  Mg38  1  0.81856700  0.04232300  0.22958100  1
  Mg  Mg39  1  0.04933200  0.99573600  0.32456100  1
  Mg  Mg40  1  0.28630500  0.60684800  0.21345000  1
  Mg  Mg41  1  0.46657300  0.45378300  0.22025100  1
  Mg  Mg42  1  0.22947900  0.72620600  0.26646900  1
  Mg  Mg43  1  0.01360200  0.65225400  0.24281400  1
  Mg  Mg44  1  0.67519400  0.32907000  0.24122800  1
  Mg  Mg45  1  0.63438900  0.99573600  0.32456100  1
  Mg  Mg46  1  0.78630500  0.60684800  0.21345000  1
  Mg  Mg47  1  0.33678600  0.00588600  0.23964200  1
  Mg  Mg48  1  0.12090800  0.93193400  0.21598800  1
  Mg  Mg49  1  0.53182100  0.61581600  0.25287500  1
  Mg  Mg50  1  0.53687900  0.89822700  0.27580700  1
  Mg  Mg51  1  0.50155000  0.17065000  0.32202400  1
  Mg  Mg52  1  0.59634500  0.48676800  0.28513700  1
  Mg  Mg53  1  0.49377700  0.10684800  0.21345000  1
  Mg  Mg54  1  0.06408300  0.05129200  0.26900600  1
  Mg  Mg55  1  0.24435100  0.89822700  0.27580700  1
  Mg  Mg56  1  0.00725700  0.17065000  0.32202400  1
  Mg  Mg57  1  0.79138000  0.09669800  0.29837000  1
  Mg  Mg58  1  0.62661500  0.93193400  0.21598800  1
  Mg  Mg59  1  0.45297200  0.77351400  0.29678400  1
  Mg  Mg60  1  0.07883300  0.10684800  0.21345000  1
  Mg  Mg61  1  0.56408300  0.05129200  0.26900600  1
  Mg  Mg62  1  0.92462000  0.53769000  0.42887200  1
  Mg  Mg63  1  0.44789700  0.78366300  0.46186400  1
  Mg  Mg64  1  0.23202000  0.70971200  0.43821000  1
  Mg  Mg65  1  0.64293200  0.39359400  0.47509700  1
  Mg  Mg66  1  0.21714800  0.53769000  0.42887200  1
  Mg  Mg67  1  0.31465700  0.34267100  0.33136200  1
  Mg  Mg68  1  0.27932800  0.61509500  0.37758000  1
  Mg  Mg69  1  0.37412300  0.93121200  0.34069200  1
  Mg  Mg70  1  0.60488800  0.88462500  0.43567300  1
  Mg  Mg71  1  0.17519400  0.82907000  0.49122800  1
  Mg  Mg72  1  0.02212900  0.34267100  0.33136200  1
  Mg  Mg73  1  0.78503500  0.61509500  0.37758000  1
  Mg  Mg74  1  0.56915700  0.54114300  0.35392500  1
  Mg  Mg75  1  0.73772600  0.70971200  0.43821000  1
  Mg  Mg76  1  0.23074900  0.21795900  0.35233900  1
  Mg  Mg77  1  0.18994400  0.88462500  0.43567300  1
  Mg  Mg78  1  0.67519400  0.82907000  0.49122800  1
  Mg  Mg79  1  0.70239700  0.98213500  0.48442700  1
  Mg  Mg80  1  0.89234100  0.89477400  0.35075300  1
  Mg  Mg81  1  0.67646400  0.82082300  0.32709900  1
  Mg  Mg82  1  0.08737600  0.50470500  0.36398600  1
  Mg  Mg83  1  0.99492500  0.98213500  0.48442700  1
  Mg  Mg84  1  0.09243500  0.78711600  0.38691800  1
  Mg  Mg85  1  0.05710600  0.05953900  0.43313500  1
  Mg  Mg86  1  0.15190000  0.37565700  0.39624800  1
  Mg  Mg87  1  0.38266600  0.32907000  0.49122800  1
  Mg  Mg88  1  0.61963800  0.94018100  0.38011700  1
  Mg  Mg89  1  0.79990700  0.78711600  0.38691800  1
  Mg  Mg90  1  0.56281200  0.05953900  0.43313500  1
  Mg  Mg91  1  0.34693500  0.98558700  0.40948100  1
  Mg  Mg92  1  0.18217100  0.82082300  0.32709900  1
  Mg  Mg93  1  0.00852700  0.66240300  0.40789500  1
  Mg  Mg94  1  0.96772200  0.32907000  0.49122800  1
  Mg  Mg95  1  0.11963800  0.94018100  0.38011700  1
  Mg  Mg96  1  0.14684200  0.09324600  0.37331600  1
  Mg  Mg97  1  0.67011900  0.33921900  0.40630900  1
  Mg  Mg98  1  0.45424200  0.26526700  0.38265400  1
  Mg  Mg99  1  0.86515400  0.94915000  0.41954100  1
  Mg  Mg100  1  0.43937000  0.09324600  0.37331600  1
  Mg  Mg101  1  0.87021300  0.23156000  0.44247300  1
  Mg  Mg102  1  0.83488400  0.50398300  0.48869100  1
  Mg  Mg103  1  0.92967800  0.82010100  0.45180400  1
  Mg  Mg104  1  0.82711000  0.44018100  0.38011700  1
  Mg  Mg105  1  0.39741600  0.38462500  0.43567300  1
  Mg  Mg106  1  0.57768400  0.23156000  0.44247300  1
  Mg  Mg107  1  0.34059000  0.50398300  0.48869100  1
  Mg  Mg108  1  0.12471300  0.43003200  0.46503600  1
  Mg  Mg109  1  0.95994800  0.26526700  0.38265400  1
  Mg  Mg110  1  0.78630500  0.10684800  0.46345000  1
  Mg  Mg111  1  0.41216600  0.44018100  0.38011700  1
  Mg  Mg112  1  0.89741600  0.38462500  0.43567300  1
  Mg  Mg113  1  0.25795300  0.87102400  0.59553800  1
  Mg  Mg114  1  0.78123000  0.11699700  0.62853100  1
  Mg  Mg115  1  0.56535300  0.04304500  0.60487600  1
  Mg  Mg116  1  0.97626500  0.72692700  0.64176400  1
  Mg  Mg117  1  0.55048100  0.87102400  0.59553800  1
  Mg  Mg118  1  0.64799000  0.67600500  0.49802900  1
  Mg  Mg119  1  0.61266200  0.94842800  0.54424600  1
  Mg  Mg120  1  0.70745600  0.26454500  0.50735900  1
  Mg  Mg121  1  0.93822100  0.21795900  0.60233900  1
  Mg  Mg122  1  0.50852700  0.16240300  0.65789500  1
  Mg  Mg123  1  0.35546200  0.67600500  0.49802900  1
  Mg  Mg124  1  0.11836800  0.94842800  0.54424600  1
  Mg  Mg125  1  0.90249100  0.87447600  0.52059200  1
  Mg  Mg126  1  0.07105900  0.04304500  0.60487600  1
  Mg  Mg127  1  0.56408300  0.55129200  0.51900600  1
  Mg  Mg128  1  0.52327800  0.21795900  0.60233900  1
  Mg  Mg129  1  0.00852700  0.16240300  0.65789500  1
  Mg  Mg130  1  0.03573100  0.31546800  0.65109400  1
  Mg  Mg131  1  0.22567500  0.22810800  0.51742000  1
  Mg  Mg132  1  0.00979700  0.15415600  0.49376500  1
  Mg  Mg133  1  0.42070900  0.83803900  0.53065300  1
  Mg  Mg134  1  0.32825900  0.31546800  0.65109400  1
  Mg  Mg135  1  0.42576800  0.12044900  0.55358400  1
  Mg  Mg136  1  0.39043900  0.39287200  0.59980200  1
  Mg  Mg137  1  0.48523400  0.70899000  0.56291500  1
  Mg  Mg138  1  0.71599900  0.66240300  0.65789500  1
  Mg  Mg139  1  0.95297200  0.27351400  0.54678400  1
  Mg  Mg140  1  0.13324000  0.12044900  0.55358400  1
  Mg  Mg141  1  0.89614600  0.39287200  0.59980200  1
  Mg  Mg142  1  0.68026800  0.31892100  0.57614800  1
  Mg  Mg143  1  0.51550400  0.15415600  0.49376500  1
  Mg  Mg144  1  0.34186000  0.99573600  0.57456100  1
  Mg  Mg145  1  0.30105500  0.66240300  0.65789500  1
  Mg  Mg146  1  0.45297200  0.27351400  0.54678400  1
  Mg  Mg147  1  0.48017500  0.42657900  0.53998300  1
  Mg  Mg148  1  0.00345300  0.67255200  0.57297500  1
  Mg  Mg149  1  0.78757500  0.59860100  0.54932100  1
  Mg  Mg150  1  0.19848700  0.28248300  0.58620800  1
  Mg  Mg151  1  0.77270300  0.42657900  0.53998300  1
  Mg  Mg152  1  0.20354600  0.56489400  0.60914000  1
  Mg  Mg153  1  0.16821700  0.83731700  0.65535700  1
  Mg  Mg154  1  0.26301200  0.15343400  0.61847000  1
  Mg  Mg155  1  0.16044300  0.77351400  0.54678400  1
  Mg  Mg156  1  0.73074900  0.71795900  0.60233900  1
  Mg  Mg157  1  0.91101800  0.56489400  0.60914000  1
  Mg  Mg158  1  0.67392400  0.83731700  0.65535700  1
  Mg  Mg159  1  0.45804600  0.76336500  0.63170300  1
  Mg  Mg160  1  0.29328200  0.59860100  0.54932100  1
  Mg  Mg161  1  0.11963800  0.44018100  0.63011700  1
  Mg  Mg162  1  0.74550000  0.77351400  0.54678400  1
  Mg  Mg163  1  0.23074900  0.71795900  0.60233900  1
  Mg  Mg164  1  0.59128600  0.20435700  0.76220500  1
  Mg  Mg165  1  0.11456400  0.45033000  0.79519700  1
  Mg  Mg166  1  0.89868600  0.37637800  0.77154300  1
  Mg  Mg167  1  0.30959800  0.06026100  0.80843000  1
  Mg  Mg168  1  0.88381400  0.20435700  0.76220500  1
  Mg  Mg169  1  0.98132400  0.00933800  0.66469600  1
  Mg  Mg170  1  0.94599500  0.28176100  0.71091300  1
  Mg  Mg171  1  0.04078900  0.59787900  0.67402600  1
  Mg  Mg172  1  0.27155500  0.55129200  0.76900600  1
  Mg  Mg173  1  0.84186000  0.49573600  0.82456100  1
  Mg  Mg174  1  0.68879600  0.00933800  0.66469600  1
  Mg  Mg175  1  0.45170100  0.28176100  0.71091300  1
  Mg  Mg176  1  0.23582400  0.20780900  0.68725900  1
  Mg  Mg177  1  0.40439300  0.37637800  0.77154300  1
  Mg  Mg178  1  0.89741600  0.88462500  0.68567300  1
  Mg  Mg179  1  0.85661100  0.55129200  0.76900600  1
  Mg  Mg180  1  0.34186000  0.49573600  0.82456100  1
  Mg  Mg181  1  0.36906400  0.64880100  0.81776100  1
  Mg  Mg182  1  0.55900800  0.56144100  0.68408600  1
  Mg  Mg183  1  0.34313100  0.48748900  0.66043200  1
  Mg  Mg184  1  0.75404300  0.17137200  0.69731900  1
  Mg  Mg185  1  0.66159200  0.64880100  0.81776100  1
  Mg  Mg186  1  0.75910100  0.45378300  0.72025100  1
  Mg  Mg187  1  0.72377300  0.72620600  0.76646900  1
  Mg  Mg188  1  0.81856700  0.04232300  0.72958100  1
  Mg  Mg189  1  0.04933200  0.99573600  0.82456100  1
  Mg  Mg190  1  0.28630500  0.60684800  0.71345000  1
  Mg  Mg191  1  0.46657300  0.45378300  0.72025100  1
  Mg  Mg192  1  0.22947900  0.72620600  0.76646900  1
  Mg  Mg193  1  0.01360200  0.65225400  0.74281400  1
  Mg  Mg194  1  0.84883700  0.48748900  0.66043200  1
  Mg  Mg195  1  0.67519400  0.32907000  0.74122800  1
  Mg  Mg196  1  0.63438900  0.99573600  0.82456100  1
  Mg  Mg197  1  0.78630500  0.60684800  0.71345000  1
  Mg  Mg198  1  0.81350800  0.75991200  0.70664900  1
  Mg  Mg199  1  0.33678600  0.00588600  0.73964200  1
  Mg  Mg200  1  0.12090800  0.93193400  0.71598800  1
  Mg  Mg201  1  0.53182100  0.61581600  0.75287500  1
  Mg  Mg202  1  0.10603700  0.75991200  0.70664900  1
  Mg  Mg203  1  0.53687900  0.89822700  0.77580700  1
  Mg  Mg204  1  0.50155000  0.17065000  0.82202400  1
  Mg  Mg205  1  0.59634500  0.48676800  0.78513700  1
  Mg  Mg206  1  0.49377700  0.10684800  0.71345000  1
  Mg  Mg207  1  0.06408300  0.05129200  0.76900600  1
  Mg  Mg208  1  0.24435100  0.89822700  0.77580700  1
  Mg  Mg209  1  0.00725700  0.17065000  0.82202400  1
  Mg  Mg210  1  0.79138000  0.09669800  0.79837000  1
  Mg  Mg211  1  0.62661500  0.93193400  0.71598800  1
  Mg  Mg212  1  0.45297200  0.77351400  0.79678400  1
  Mg  Mg213  1  0.07883300  0.10684800  0.71345000  1
  Mg  Mg214  1  0.56408300  0.05129200  0.76900600  1
