# generated using pymatgen
data_Mg12Ga25
_symmetry_space_group_name_H-M   'P 1'
_cell_length_a   7.53303863
_cell_length_b   8.34732543
_cell_length_c   43.86758100
_cell_angle_alpha   85.94994107
_cell_angle_beta   85.07445657
_cell_angle_gamma   63.17771197
_symmetry_Int_Tables_number   1
_chemical_formula_structural   Mg12Ga25
_chemical_formula_sum   'Mg24 Ga50'
_cell_volume   2450.97913731
_cell_formula_units_Z   2
loop_
 _symmetry_equiv_pos_site_id
 _symmetry_equiv_pos_as_xyz
  1  'x, y, z'
loop_
 _atom_site_type_symbol
 _atom_site_label
 _atom_site_symmetry_multiplicity
 _atom_site_fract_x
 _atom_site_fract_y
 _atom_site_fract_z
 _atom_site_occupancy
  Mg  Mg0  1  0.47673100  0.14534600  0.24206300  1
  Mg  Mg1  1  0.23863500  0.59772700  0.26587300  1
  Mg  Mg2  1  0.00054000  0.05010800  0.28968300  1
  Mg  Mg3  1  0.76244500  0.50248900  0.31349200  1
  Mg  Mg4  1  0.52435000  0.95487000  0.33730200  1
  Mg  Mg5  1  0.28625400  0.40725100  0.36111100  1
  Mg  Mg6  1  0.04815900  0.85963200  0.38492100  1
  Mg  Mg7  1  0.81006400  0.31201300  0.40873000  1
  Mg  Mg8  1  0.57196900  0.76439400  0.43254000  1
  Mg  Mg9  1  0.33387300  0.21677500  0.45634900  1
  Mg  Mg10  1  0.09577800  0.66915600  0.48015900  1
  Mg  Mg11  1  0.85768300  0.12153700  0.50396800  1
  Mg  Mg12  1  0.61958800  0.57391800  0.52777800  1
  Mg  Mg13  1  0.38149200  0.02629800  0.55158700  1
  Mg  Mg14  1  0.14339700  0.47867900  0.57539700  1
  Mg  Mg15  1  0.90530200  0.93106000  0.59920600  1
  Mg  Mg16  1  0.66720700  0.38344100  0.62301600  1
  Mg  Mg17  1  0.42911100  0.83582200  0.64682500  1
  Mg  Mg18  1  0.19101600  0.28820300  0.67063500  1
  Mg  Mg19  1  0.95292100  0.74058400  0.69444400  1
  Mg  Mg20  1  0.71482600  0.19296500  0.71825400  1
  Mg  Mg21  1  0.47673100  0.64534600  0.74206300  1
  Mg  Mg22  1  0.23863500  0.09772700  0.76587300  1
  Mg  Mg23  1  0.00054000  0.55010800  0.78968300  1
  Ga  Ga24  1  0.23755500  0.96644600  0.23264800  1
  Ga  Ga25  1  0.95400100  0.87186500  0.22767000  1
  Ga  Ga26  1  0.76136500  0.87120800  0.28026700  1
  Ga  Ga27  1  0.66612700  0.41882700  0.25645700  1
  Ga  Ga28  1  0.04923900  0.32424600  0.25147900  1
  Ga  Ga29  1  0.47781100  0.77662700  0.27528900  1
  Ga  Ga30  1  0.28517400  0.77597000  0.32788600  1
  Ga  Ga31  1  0.18993600  0.32358900  0.30407600  1
  Ga  Ga32  1  0.57304900  0.22900800  0.29909800  1
  Ga  Ga33  1  0.00162000  0.68138900  0.32290800  1
  Ga  Ga34  1  0.80898400  0.68073200  0.37550500  1
  Ga  Ga35  1  0.71374600  0.22835100  0.35169500  1
  Ga  Ga36  1  0.09685800  0.13377000  0.34671700  1
  Ga  Ga37  1  0.52543000  0.58615100  0.37052700  1
  Ga  Ga38  1  0.33279300  0.58549400  0.42312400  1
  Ga  Ga39  1  0.23755500  0.13311300  0.39931400  1
  Ga  Ga40  1  0.62066800  0.03853200  0.39433600  1
  Ga  Ga41  1  0.04923900  0.49091300  0.41814600  1
  Ga  Ga42  1  0.85660300  0.49025500  0.47074300  1
  Ga  Ga43  1  0.76136500  0.03787400  0.44693300  1
  Ga  Ga44  1  0.14447700  0.94329400  0.44195500  1
  Ga  Ga45  1  0.57304900  0.39567500  0.46576500  1
  Ga  Ga46  1  0.38041200  0.39501700  0.51836200  1
  Ga  Ga47  1  0.28517400  0.94263600  0.49455200  1
  Ga  Ga48  1  0.66828700  0.84805600  0.48957500  1
  Ga  Ga49  1  0.09685800  0.30043700  0.51338400  1
  Ga  Ga50  1  0.90422200  0.29977900  0.56598100  1
  Ga  Ga51  1  0.80898400  0.84739800  0.54217200  1
  Ga  Ga52  1  0.19209600  0.75281800  0.53719400  1
  Ga  Ga53  1  0.62066800  0.20519900  0.56100300  1
  Ga  Ga54  1  0.42803100  0.20454100  0.61360000  1
  Ga  Ga55  1  0.33279300  0.75216000  0.58979100  1
  Ga  Ga56  1  0.71590600  0.65758000  0.58481300  1
  Ga  Ga57  1  0.14447700  0.10996100  0.60862200  1
  Ga  Ga58  1  0.95184100  0.10930300  0.66121900  1
  Ga  Ga59  1  0.85660300  0.65692200  0.63741000  1
  Ga  Ga60  1  0.23971500  0.56234200  0.63243200  1
  Ga  Ga61  1  0.66828700  0.01472300  0.65624100  1
  Ga  Ga62  1  0.47565000  0.01406500  0.70883800  1
  Ga  Ga63  1  0.38041200  0.56168400  0.68502900  1
  Ga  Ga64  1  0.76352500  0.46710300  0.68005100  1
  Ga  Ga65  1  0.19209600  0.91948400  0.70386000  1
  Ga  Ga66  1  0.99946000  0.91882700  0.75645700  1
  Ga  Ga67  1  0.90422200  0.46644600  0.73264800  1
  Ga  Ga68  1  0.28733400  0.37186500  0.72767000  1
  Ga  Ga69  1  0.71590600  0.82424600  0.75147900  1
  Ga  Ga70  1  0.52326900  0.82358900  0.80407600  1
  Ga  Ga71  1  0.42803100  0.37120800  0.78026700  1
  Ga  Ga72  1  0.81114400  0.27662700  0.77528900  1
  Ga  Ga73  1  0.23971500  0.72900800  0.79909800  1
