# generated using pymatgen
data_Mg26Co51
_symmetry_space_group_name_H-M   'P 1'
_cell_length_a   4.82826386
_cell_length_b   9.24833190
_cell_length_c   44.51983400
_cell_angle_alpha   86.73171124
_cell_angle_beta   93.10844041
_cell_angle_gamma   74.86855310
_symmetry_Int_Tables_number   1
_chemical_formula_structural   Mg26Co51
_chemical_formula_sum   'Mg26 Co51'
_cell_volume   1910.98448662
_cell_formula_units_Z   1
loop_
 _symmetry_equiv_pos_site_id
 _symmetry_equiv_pos_as_xyz
  1  'x, y, z'
loop_
 _atom_site_type_symbol
 _atom_site_label
 _atom_site_symmetry_multiplicity
 _atom_site_fract_x
 _atom_site_fract_y
 _atom_site_fract_z
 _atom_site_occupancy
  Mg  Mg0  1  0.02981100  0.33560800  0.28652100  1
  Mg  Mg1  1  0.23864400  0.86573400  0.23431300  1
  Mg  Mg2  1  0.64092300  0.04394100  0.21707600  1
  Mg  Mg3  1  0.51642200  0.32406700  0.24820100  1
  Mg  Mg4  1  0.69647800  0.08560800  0.36985400  1
  Mg  Mg5  1  0.90531100  0.61573400  0.31764600  1
  Mg  Mg6  1  0.30758900  0.79394100  0.30041000  1
  Mg  Mg7  1  0.18308900  0.07406700  0.33153500  1
  Mg  Mg8  1  0.36314500  0.83560800  0.45318700  1
  Mg  Mg9  1  0.57197800  0.36573400  0.40097900  1
  Mg  Mg10  1  0.97425600  0.54394100  0.38374300  1
  Mg  Mg11  1  0.84975500  0.82406700  0.41486800  1
  Mg  Mg12  1  0.02981100  0.58560800  0.53652100  1
  Mg  Mg13  1  0.23864400  0.11573400  0.48431300  1
  Mg  Mg14  1  0.64092300  0.29394100  0.46707600  1
  Mg  Mg15  1  0.51642200  0.57406700  0.49820100  1
  Mg  Mg16  1  0.69647800  0.33560800  0.61985400  1
  Mg  Mg17  1  0.90531100  0.86573400  0.56764600  1
  Mg  Mg18  1  0.30758900  0.04394100  0.55041000  1
  Mg  Mg19  1  0.18308900  0.32406700  0.58153500  1
  Mg  Mg20  1  0.36314500  0.08560800  0.70318700  1
  Mg  Mg21  1  0.57197800  0.61573400  0.65097900  1
  Mg  Mg22  1  0.97425600  0.79394100  0.63374300  1
  Mg  Mg23  1  0.84975500  0.07406700  0.66486800  1
  Mg  Mg24  1  0.23864400  0.36573400  0.73431300  1
  Mg  Mg25  1  0.64092300  0.54394100  0.71707600  1
  Co  Co26  1  0.93978300  0.45483800  0.22569400  1
  Co  Co27  1  0.62897300  0.59968600  0.26074500  1
  Co  Co28  1  0.14079600  0.59968600  0.26074500  1
  Co  Co29  1  0.79958100  0.72764100  0.21809300  1
  Co  Co30  1  0.77311700  0.82983800  0.26736100  1
  Co  Co31  1  0.07998600  0.18203400  0.23329600  1
  Co  Co32  1  0.40543700  0.05998900  0.27397700  1
  Co  Co33  1  0.91726000  0.05998900  0.27397700  1
  Co  Co34  1  0.60645000  0.20483800  0.30902800  1
  Co  Co35  1  0.29564000  0.34968600  0.34407800  1
  Co  Co36  1  0.80746300  0.34968600  0.34407800  1
  Co  Co37  1  0.46624800  0.47764100  0.30142600  1
  Co  Co38  1  0.43978300  0.57983800  0.35069400  1
  Co  Co39  1  0.74665300  0.93203400  0.31662900  1
  Co  Co40  1  0.07210400  0.80998900  0.35731000  1
  Co  Co41  1  0.58392700  0.80998900  0.35731000  1
  Co  Co42  1  0.27311700  0.95483800  0.39236100  1
  Co  Co43  1  0.96230600  0.09968600  0.42741200  1
  Co  Co44  1  0.47413000  0.09968600  0.42741200  1
  Co  Co45  1  0.13291400  0.22764100  0.38476000  1
  Co  Co46  1  0.10645000  0.32983800  0.43402800  1
  Co  Co47  1  0.41331900  0.68203400  0.39996200  1
  Co  Co48  1  0.73877100  0.55998900  0.44064400  1
  Co  Co49  1  0.25059400  0.55998900  0.44064400  1
  Co  Co50  1  0.93978300  0.70483800  0.47569400  1
  Co  Co51  1  0.62897300  0.84968600  0.51074500  1
  Co  Co52  1  0.14079600  0.84968600  0.51074500  1
  Co  Co53  1  0.79958100  0.97764100  0.46809300  1
  Co  Co54  1  0.77311700  0.07983800  0.51736100  1
  Co  Co55  1  0.07998600  0.43203400  0.48329600  1
  Co  Co56  1  0.40543700  0.30998900  0.52397700  1
  Co  Co57  1  0.91726000  0.30998900  0.52397700  1
  Co  Co58  1  0.60645000  0.45483800  0.55902800  1
  Co  Co59  1  0.29564000  0.59968600  0.59407800  1
  Co  Co60  1  0.80746300  0.59968600  0.59407800  1
  Co  Co61  1  0.46624800  0.72764100  0.55142600  1
  Co  Co62  1  0.43978300  0.82983800  0.60069400  1
  Co  Co63  1  0.74665300  0.18203400  0.56662900  1
  Co  Co64  1  0.07210400  0.05998900  0.60731000  1
  Co  Co65  1  0.58392700  0.05998900  0.60731000  1
  Co  Co66  1  0.27311700  0.20483800  0.64236100  1
  Co  Co67  1  0.96230600  0.34968600  0.67741200  1
  Co  Co68  1  0.47413000  0.34968600  0.67741200  1
  Co  Co69  1  0.13291400  0.47764100  0.63476000  1
  Co  Co70  1  0.10645000  0.57983800  0.68402800  1
  Co  Co71  1  0.41331900  0.93203400  0.64996200  1
  Co  Co72  1  0.73877100  0.80998900  0.69064400  1
  Co  Co73  1  0.25059400  0.80998900  0.69064400  1
  Co  Co74  1  0.93978300  0.95483800  0.72569400  1
  Co  Co75  1  0.79958100  0.22764100  0.71809300  1
  Co  Co76  1  0.07998600  0.68203400  0.73329600  1
