# generated using pymatgen
data_Mg4Zn7
_symmetry_space_group_name_H-M   'P 1'
_cell_length_a   5.07402260
_cell_length_b   13.26606241
_cell_length_c   57.00757700
_cell_angle_alpha   92.18610401
_cell_angle_beta   87.66012493
_cell_angle_gamma   100.62858194
_symmetry_Int_Tables_number   1
_chemical_formula_structural   Mg4Zn7
_chemical_formula_sum   'Mg40 Zn70'
_cell_volume   3766.49990850
_cell_formula_units_Z   10
loop_
 _symmetry_equiv_pos_site_id
 _symmetry_equiv_pos_as_xyz
  1  'x, y, z'
loop_
 _atom_site_type_symbol
 _atom_site_label
 _atom_site_symmetry_multiplicity
 _atom_site_fract_x
 _atom_site_fract_y
 _atom_site_fract_z
 _atom_site_occupancy
  Mg  Mg0  1  0.15084600  0.52405000  0.47495500  1
  Mg  Mg1  1  0.36034700  0.89087800  0.42835600  1
  Mg  Mg2  1  0.71227000  0.52170000  0.33807900  1
  Mg  Mg3  1  0.70074000  0.64476800  0.48910500  1
  Mg  Mg4  1  0.83337800  0.81878000  0.40053900  1
  Mg  Mg5  1  0.27625700  0.56473800  0.25701300  1
  Mg  Mg6  1  0.71676600  0.57439900  0.39413600  1
  Mg  Mg7  1  0.04926000  0.10523200  0.26089500  1
  Mg  Mg8  1  0.15345600  0.47431700  0.41904600  1
  Mg  Mg9  1  0.91662200  0.93122000  0.34946100  1
  Mg  Mg10  1  0.03773000  0.22830000  0.41192100  1
  Mg  Mg11  1  0.59654400  0.27568300  0.33095400  1
  Mg  Mg12  1  0.28197800  0.78738100  0.47622800  1
  Mg  Mg13  1  0.27830900  0.61880400  0.31279300  1
  Mg  Mg14  1  0.47169100  0.13119600  0.43720700  1
  Mg  Mg15  1  0.03323400  0.17560100  0.35586400  1
  Mg  Mg16  1  0.59915400  0.22595000  0.27504500  1
  Mg  Mg17  1  0.47374300  0.18526200  0.49298700  1
  Mg  Mg18  1  0.38965300  0.85912200  0.32164400  1
  Mg  Mg19  1  0.46802200  0.96261900  0.27377200  1
  Mg  Mg20  1  0.90084600  0.27405000  0.72495500  1
  Mg  Mg21  1  0.11034700  0.64087800  0.67835600  1
  Mg  Mg22  1  0.46227000  0.27170000  0.58807900  1
  Mg  Mg23  1  0.45074000  0.39476800  0.73910500  1
  Mg  Mg24  1  0.58337800  0.56878000  0.65053900  1
  Mg  Mg25  1  0.02625700  0.31473800  0.50701300  1
  Mg  Mg26  1  0.46676600  0.32439900  0.64413600  1
  Mg  Mg27  1  0.79926000  0.85523200  0.51089500  1
  Mg  Mg28  1  0.90345600  0.22431700  0.66904600  1
  Mg  Mg29  1  0.66662200  0.68122000  0.59946100  1
  Mg  Mg30  1  0.78773000  0.97830000  0.66192100  1
  Mg  Mg31  1  0.34654400  0.02568300  0.58095400  1
  Mg  Mg32  1  0.03197800  0.53738100  0.72622800  1
  Mg  Mg33  1  0.02830900  0.36880400  0.56279300  1
  Mg  Mg34  1  0.22169100  0.88119600  0.68720700  1
  Mg  Mg35  1  0.78323400  0.92560100  0.60586400  1
  Mg  Mg36  1  0.34915400  0.97595000  0.52504500  1
  Mg  Mg37  1  0.22374300  0.93526200  0.74298700  1
  Mg  Mg38  1  0.13965300  0.60912200  0.57164400  1
  Mg  Mg39  1  0.21802200  0.71261900  0.52377200  1
  Zn  Zn40  1  0.28063200  0.70113300  0.39807200  1
  Zn  Zn41  1  0.81426200  0.83141100  0.45434700  1
  Zn  Zn42  1  0.58756900  0.34787600  0.41571300  1
  Zn  Zn43  1  0.26089600  0.08265400  0.31207800  1
  Zn  Zn44  1  0.69993400  0.03437400  0.39419100  1
  Zn  Zn45  1  0.99501600  0.67174400  0.43761700  1
  Zn  Zn46  1  0.87500000  0.37500000  0.37500000  1
  Zn  Zn47  1  0.46936800  0.04886700  0.35192800  1
  Zn  Zn48  1  0.97095100  0.15924100  0.46572700  1
  Zn  Zn49  1  0.55631500  0.71527700  0.35578100  1
  Zn  Zn50  1  0.81272600  0.32475400  0.45611900  1
  Zn  Zn51  1  0.58948200  0.41801300  0.49079900  1
  Zn  Zn52  1  0.21445500  0.54634200  0.36660000  1
  Zn  Zn53  1  0.83199500  0.74191300  0.31690600  1
  Zn  Zn54  1  0.93573800  0.91858900  0.29565300  1
  Zn  Zn55  1  0.77904900  0.59075900  0.28427300  1
  Zn  Zn56  1  0.61008100  0.76338200  0.27491400  1
  Zn  Zn57  1  0.19368500  0.03472300  0.39421900  1
  Zn  Zn58  1  0.75498400  0.07825600  0.31238300  1
  Zn  Zn59  1  0.53554500  0.20365800  0.38340000  1
  Zn  Zn60  1  0.13991900  0.98661800  0.47508600  1
  Zn  Zn61  1  0.05006600  0.71562600  0.35580900  1
  Zn  Zn62  1  0.37500000  0.37500000  0.37500000  1
  Zn  Zn63  1  0.65797900  0.50099100  0.44613400  1
  Zn  Zn64  1  0.30778000  0.32311800  0.45625100  1
  Zn  Zn65  1  0.12525600  0.76647800  0.27446000  1
  Zn  Zn66  1  0.09202100  0.24900900  0.30386600  1
  Zn  Zn67  1  0.62474400  0.98352200  0.47554000  1
  Zn  Zn68  1  0.91800500  0.00808700  0.43309400  1
  Zn  Zn69  1  0.44222000  0.42688200  0.29374900  1
  Zn  Zn70  1  0.48910400  0.66734600  0.43792200  1
  Zn  Zn71  1  0.37500000  0.87500000  0.37500000  1
  Zn  Zn72  1  0.93727400  0.42524600  0.29388100  1
  Zn  Zn73  1  0.16051800  0.33198700  0.25920100  1
  Zn  Zn74  1  0.16243100  0.40212400  0.33428700  1
  Zn  Zn75  1  0.03063200  0.45113300  0.64807200  1
  Zn  Zn76  1  0.56426200  0.58141100  0.70434700  1
  Zn  Zn77  1  0.33756900  0.09787600  0.66571300  1
  Zn  Zn78  1  0.01089600  0.83265400  0.56207800  1
  Zn  Zn79  1  0.44993400  0.78437400  0.64419100  1
  Zn  Zn80  1  0.74501600  0.42174400  0.68761700  1
  Zn  Zn81  1  0.62500000  0.12500000  0.62500000  1
  Zn  Zn82  1  0.21936800  0.79886700  0.60192800  1
  Zn  Zn83  1  0.72095100  0.90924100  0.71572700  1
  Zn  Zn84  1  0.30631500  0.46527700  0.60578100  1
  Zn  Zn85  1  0.56272600  0.07475400  0.70611900  1
  Zn  Zn86  1  0.33948200  0.16801300  0.74079900  1
  Zn  Zn87  1  0.96445500  0.29634200  0.61660000  1
  Zn  Zn88  1  0.58199500  0.49191300  0.56690600  1
  Zn  Zn89  1  0.68573800  0.66858900  0.54565300  1
  Zn  Zn90  1  0.52904900  0.34075900  0.53427300  1
  Zn  Zn91  1  0.36008100  0.51338200  0.52491400  1
  Zn  Zn92  1  0.94368500  0.78472300  0.64421900  1
  Zn  Zn93  1  0.50498400  0.82825600  0.56238300  1
  Zn  Zn94  1  0.28554500  0.95365800  0.63340000  1
  Zn  Zn95  1  0.88991900  0.73661800  0.72508600  1
  Zn  Zn96  1  0.80006600  0.46562600  0.60580900  1
  Zn  Zn97  1  0.12500000  0.12500000  0.62500000  1
  Zn  Zn98  1  0.40797900  0.25099100  0.69613400  1
  Zn  Zn99  1  0.05778000  0.07311800  0.70625100  1
  Zn  Zn100  1  0.87525600  0.51647800  0.52446000  1
  Zn  Zn101  1  0.84202100  0.99900900  0.55386600  1
  Zn  Zn102  1  0.37474400  0.73352200  0.72554000  1
  Zn  Zn103  1  0.66800500  0.75808700  0.68309400  1
  Zn  Zn104  1  0.19222000  0.17688200  0.54374900  1
  Zn  Zn105  1  0.23910400  0.41734600  0.68792200  1
  Zn  Zn106  1  0.12500000  0.62500000  0.62500000  1
  Zn  Zn107  1  0.68727400  0.17524600  0.54388100  1
  Zn  Zn108  1  0.91051800  0.08198700  0.50920100  1
  Zn  Zn109  1  0.91243100  0.15212400  0.58428700  1
