# generated using pymatgen
data_Yb2Mg
_symmetry_space_group_name_H-M   'P 1'
_cell_length_a   3.76282700
_cell_length_b   19.46963027
_cell_length_c   45.10541200
_cell_angle_alpha   96.74616046
_cell_angle_beta   90.00000000
_cell_angle_gamma   90.00000000
_symmetry_Int_Tables_number   1
_chemical_formula_structural   Yb2Mg
_chemical_formula_sum   'Yb40 Mg20'
_cell_volume   3281.58185130
_cell_formula_units_Z   20
loop_
 _symmetry_equiv_pos_site_id
 _symmetry_equiv_pos_as_xyz
  1  'x, y, z'
loop_
 _atom_site_type_symbol
 _atom_site_label
 _atom_site_symmetry_multiplicity
 _atom_site_fract_x
 _atom_site_fract_y
 _atom_site_fract_z
 _atom_site_occupancy
  Yb  Yb0  1  0.50000000  0.91923200  0.19903800  1
  Yb  Yb1  1  0.00000000  0.75206900  0.22291900  1
  Yb  Yb2  1  0.00000000  0.70576800  0.30096200  1
  Yb  Yb3  1  0.50000000  0.87293100  0.27708100  1
  Yb  Yb4  1  0.00000000  0.48173200  0.26153800  1
  Yb  Yb5  1  0.50000000  0.31456900  0.28541900  1
  Yb  Yb6  1  0.50000000  0.14326800  0.23846200  1
  Yb  Yb7  1  0.00000000  0.31043100  0.21458100  1
  Yb  Yb8  1  0.50000000  0.04423200  0.32403800  1
  Yb  Yb9  1  0.00000000  0.87706900  0.34791900  1
  Yb  Yb10  1  0.00000000  0.83076800  0.42596200  1
  Yb  Yb11  1  0.50000000  0.99793100  0.40208100  1
  Yb  Yb12  1  0.00000000  0.60673200  0.38653800  1
  Yb  Yb13  1  0.50000000  0.43956900  0.41041900  1
  Yb  Yb14  1  0.50000000  0.26826800  0.36346200  1
  Yb  Yb15  1  0.00000000  0.43543100  0.33958100  1
  Yb  Yb16  1  0.50000000  0.16923200  0.44903800  1
  Yb  Yb17  1  0.00000000  0.00206900  0.47291900  1
  Yb  Yb18  1  0.00000000  0.95576800  0.55096200  1
  Yb  Yb19  1  0.50000000  0.12293100  0.52708100  1
  Yb  Yb20  1  0.00000000  0.73173200  0.51153800  1
  Yb  Yb21  1  0.50000000  0.56456900  0.53541900  1
  Yb  Yb22  1  0.50000000  0.39326800  0.48846200  1
  Yb  Yb23  1  1.00000000  0.56043100  0.46458100  1
  Yb  Yb24  1  0.50000000  0.29423200  0.57403800  1
  Yb  Yb25  1  0.00000000  0.12706900  0.59791900  1
  Yb  Yb26  1  0.00000000  0.08076800  0.67596200  1
  Yb  Yb27  1  0.50000000  0.24793100  0.65208100  1
  Yb  Yb28  1  0.00000000  0.85673200  0.63653800  1
  Yb  Yb29  1  0.50000000  0.68956900  0.66041900  1
  Yb  Yb30  1  0.50000000  0.51826800  0.61346200  1
  Yb  Yb31  1  0.00000000  0.68543100  0.58958100  1
  Yb  Yb32  1  0.50000000  0.41923200  0.69903800  1
  Yb  Yb33  1  0.00000000  0.25206900  0.72291900  1
  Yb  Yb34  1  0.00000000  0.20576800  0.80096200  1
  Yb  Yb35  1  0.50000000  0.37293100  0.77708100  1
  Yb  Yb36  1  0.00000000  0.98173200  0.76153800  1
  Yb  Yb37  1  0.50000000  0.81456900  0.78541900  1
  Yb  Yb38  1  0.50000000  0.64326800  0.73846200  1
  Yb  Yb39  1  1.00000000  0.81043100  0.71458100  1
  Mg  Mg40  1  0.50000000  0.61455600  0.24256300  1
  Mg  Mg41  1  0.00000000  0.01044400  0.25743700  1
  Mg  Mg42  1  0.00000000  0.17705600  0.30506300  1
  Mg  Mg43  1  0.50000000  0.44794400  0.19493700  1
  Mg  Mg44  1  0.50000000  0.73955600  0.36756300  1
  Mg  Mg45  1  0.00000000  0.13544400  0.38243700  1
  Mg  Mg46  1  0.00000000  0.30205600  0.43006300  1
  Mg  Mg47  1  0.50000000  0.57294400  0.31993700  1
  Mg  Mg48  1  0.50000000  0.86455600  0.49256300  1
  Mg  Mg49  1  0.00000000  0.26044400  0.50743700  1
  Mg  Mg50  1  1.00000000  0.42705600  0.55506300  1
  Mg  Mg51  1  0.50000000  0.69794400  0.44493700  1
  Mg  Mg52  1  0.50000000  0.98955600  0.61756300  1
  Mg  Mg53  1  0.00000000  0.38544400  0.63243700  1
  Mg  Mg54  1  1.00000000  0.55205600  0.68006300  1
  Mg  Mg55  1  0.50000000  0.82294400  0.56993700  1
  Mg  Mg56  1  0.50000000  0.11455600  0.74256300  1
  Mg  Mg57  1  0.00000000  0.51044400  0.75743700  1
  Mg  Mg58  1  0.00000000  0.67705600  0.80506300  1
  Mg  Mg59  1  0.50000000  0.94794400  0.69493700  1
