# generated using pymatgen
data_Mg24Al47
_symmetry_space_group_name_H-M   'P 1'
_cell_length_a   5.50999200
_cell_length_b   10.24190098
_cell_length_c   41.89781300
_cell_angle_alpha   94.42221519
_cell_angle_beta   90.00000000
_cell_angle_gamma   74.39566803
_symmetry_Int_Tables_number   1
_chemical_formula_structural   Mg24Al47
_chemical_formula_sum   'Mg24 Al47'
_cell_volume   2269.95445228
_cell_formula_units_Z   1
loop_
 _symmetry_equiv_pos_site_id
 _symmetry_equiv_pos_as_xyz
  1  'x, y, z'
loop_
 _atom_site_type_symbol
 _atom_site_label
 _atom_site_symmetry_multiplicity
 _atom_site_fract_x
 _atom_site_fract_y
 _atom_site_fract_z
 _atom_site_occupancy
  Mg  Mg0  1  0.02156300  0.41120100  0.27754200  1
  Mg  Mg1  1  0.28822900  0.87786700  0.29420900  1
  Mg  Mg2  1  0.54189800  0.37053000  0.23079100  1
  Mg  Mg3  1  0.27523100  0.90386300  0.21412500  1
  Mg  Mg4  1  0.62156300  0.21120100  0.37754200  1
  Mg  Mg5  1  0.88822900  0.67786700  0.39420900  1
  Mg  Mg6  1  0.14189800  0.17053000  0.33079100  1
  Mg  Mg7  1  0.87523100  0.70386300  0.31412500  1
  Mg  Mg8  1  0.22156300  0.01120100  0.47754200  1
  Mg  Mg9  1  0.48822900  0.47786700  0.49420900  1
  Mg  Mg10  1  0.74189800  0.97053000  0.43079100  1
  Mg  Mg11  1  0.47523100  0.50386300  0.41412500  1
  Mg  Mg12  1  0.82156300  0.81120100  0.57754200  1
  Mg  Mg13  1  0.08822900  0.27786700  0.59420900  1
  Mg  Mg14  1  0.34189800  0.77053000  0.53079100  1
  Mg  Mg15  1  0.07523100  0.30386300  0.51412500  1
  Mg  Mg16  1  0.42156300  0.61120100  0.67754200  1
  Mg  Mg17  1  0.68822900  0.07786700  0.69420900  1
  Mg  Mg18  1  0.94189800  0.57053000  0.63079100  1
  Mg  Mg19  1  0.67523100  0.10386300  0.61412500  1
  Mg  Mg20  1  0.02156300  0.41120100  0.77754200  1
  Mg  Mg21  1  0.28822900  0.87786700  0.79420900  1
  Mg  Mg22  1  0.54189800  0.37053000  0.73079100  1
  Mg  Mg23  1  0.27523100  0.90386300  0.71412500  1
  Al  Al24  1  0.78173000  0.89086500  0.25416700  1
  Al  Al25  1  0.11586500  0.22259600  0.21330100  1
  Al  Al26  1  0.15480900  0.65673000  0.24623400  1
  Al  Al27  1  0.64278700  0.65673000  0.24623400  1
  Al  Al28  1  0.92067400  0.12500000  0.26209900  1
  Al  Al29  1  0.40865200  0.12500000  0.26209900  1
  Al  Al30  1  0.44759600  0.55913500  0.29503200  1
  Al  Al31  1  0.58173000  0.29086500  0.30416700  1
  Al  Al32  1  0.38173000  0.69086500  0.35416700  1
  Al  Al33  1  0.71586500  0.02259600  0.31330100  1
  Al  Al34  1  0.75480900  0.45673000  0.34623400  1
  Al  Al35  1  0.24278700  0.45673000  0.34623400  1
  Al  Al36  1  0.52067400  0.92500000  0.36209900  1
  Al  Al37  1  0.00865200  0.92500000  0.36209900  1
  Al  Al38  1  0.04759600  0.35913500  0.39503200  1
  Al  Al39  1  0.18173000  0.09086500  0.40416700  1
  Al  Al40  1  0.98173000  0.49086500  0.45416700  1
  Al  Al41  1  0.31586500  0.82259600  0.41330100  1
  Al  Al42  1  0.35480900  0.25673000  0.44623400  1
  Al  Al43  1  0.84278700  0.25673000  0.44623400  1
  Al  Al44  1  0.12067400  0.72500000  0.46209900  1
  Al  Al45  1  0.60865200  0.72500000  0.46209900  1
  Al  Al46  1  0.64759600  0.15913500  0.49503200  1
  Al  Al47  1  0.78173000  0.89086500  0.50416700  1
  Al  Al48  1  0.58173000  0.29086500  0.55416700  1
  Al  Al49  1  0.91586500  0.62259600  0.51330100  1
  Al  Al50  1  0.95480900  0.05673000  0.54623400  1
  Al  Al51  1  0.44278700  0.05673000  0.54623400  1
  Al  Al52  1  0.72067400  0.52500000  0.56209900  1
  Al  Al53  1  0.20865200  0.52500000  0.56209900  1
  Al  Al54  1  0.24759600  0.95913500  0.59503200  1
  Al  Al55  1  0.38173000  0.69086500  0.60416700  1
  Al  Al56  1  0.18173000  0.09086500  0.65416700  1
  Al  Al57  1  0.51586500  0.42259600  0.61330100  1
  Al  Al58  1  0.55480900  0.85673000  0.64623400  1
  Al  Al59  1  0.04278700  0.85673000  0.64623400  1
  Al  Al60  1  0.32067400  0.32500000  0.66209900  1
  Al  Al61  1  0.80865200  0.32500000  0.66209900  1
  Al  Al62  1  0.84759600  0.75913500  0.69503200  1
  Al  Al63  1  0.98173000  0.49086500  0.70416700  1
  Al  Al64  1  0.78173000  0.89086500  0.75416700  1
  Al  Al65  1  0.11586500  0.22259600  0.71330100  1
  Al  Al66  1  0.15480900  0.65673000  0.74623400  1
  Al  Al67  1  0.64278700  0.65673000  0.74623400  1
  Al  Al68  1  0.92067400  0.12500000  0.76209900  1
  Al  Al69  1  0.40865200  0.12500000  0.76209900  1
  Al  Al70  1  0.44759600  0.55913500  0.79503200  1
