# generated using pymatgen
data_Mg22Zn117
_symmetry_space_group_name_H-M   'P 1'
_cell_length_a   10.62299173
_cell_length_b   17.53293388
_cell_length_c   43.15075500
_cell_angle_alpha   81.29988746
_cell_angle_beta   89.35999185
_cell_angle_gamma   81.47469625
_symmetry_Int_Tables_number   1
_chemical_formula_structural   Mg22Zn117
_chemical_formula_sum   'Mg44 Zn234'
_cell_volume   7856.14450224
_cell_formula_units_Z   2
loop_
 _symmetry_equiv_pos_site_id
 _symmetry_equiv_pos_as_xyz
  1  'x, y, z'
loop_
 _atom_site_type_symbol
 _atom_site_label
 _atom_site_symmetry_multiplicity
 _atom_site_fract_x
 _atom_site_fract_y
 _atom_site_fract_z
 _atom_site_occupancy
  Mg  Mg0  1  0.68153200  0.69802200  0.27303700  1
  Mg  Mg1  1  0.48878700  0.43949500  0.27999800  1
  Mg  Mg2  1  0.04008700  0.16278800  0.24779700  1
  Mg  Mg3  1  0.23283200  0.42131400  0.24083500  1
  Mg  Mg4  1  0.48153200  0.59802200  0.37303700  1
  Mg  Mg5  1  0.44008700  0.61278800  0.29779700  1
  Mg  Mg6  1  0.63283200  0.87131400  0.29083500  1
  Mg  Mg7  1  0.28878700  0.33949500  0.37999800  1
  Mg  Mg8  1  0.08153200  0.14802200  0.32303700  1
  Mg  Mg9  1  0.84008700  0.06278800  0.34779700  1
  Mg  Mg10  1  0.03283200  0.32131400  0.34083500  1
  Mg  Mg11  1  0.88878700  0.88949500  0.32999800  1
  Mg  Mg12  1  0.28153200  0.49802200  0.47303700  1
  Mg  Mg13  1  0.24008700  0.51278800  0.39779700  1
  Mg  Mg14  1  0.43283200  0.77131400  0.39083500  1
  Mg  Mg15  1  0.08878700  0.23949500  0.47999800  1
  Mg  Mg16  1  0.88153200  0.04802200  0.42303700  1
  Mg  Mg17  1  0.64008700  0.96278800  0.44779700  1
  Mg  Mg18  1  0.83283200  0.22131400  0.44083500  1
  Mg  Mg19  1  0.68878700  0.78949500  0.42999800  1
  Mg  Mg20  1  0.08153200  0.39802200  0.57303700  1
  Mg  Mg21  1  0.04008700  0.41278800  0.49779700  1
  Mg  Mg22  1  0.23283200  0.67131400  0.49083500  1
  Mg  Mg23  1  0.88878700  0.13949500  0.57999800  1
  Mg  Mg24  1  0.68153200  0.94802200  0.52303700  1
  Mg  Mg25  1  0.44008700  0.86278800  0.54779700  1
  Mg  Mg26  1  0.63283200  0.12131400  0.54083500  1
  Mg  Mg27  1  0.48878700  0.68949500  0.52999800  1
  Mg  Mg28  1  0.88153200  0.29802200  0.67303700  1
  Mg  Mg29  1  0.84008700  0.31278800  0.59779700  1
  Mg  Mg30  1  0.03283200  0.57131400  0.59083500  1
  Mg  Mg31  1  0.68878700  0.03949500  0.67999800  1
  Mg  Mg32  1  0.48153200  0.84802200  0.62303700  1
  Mg  Mg33  1  0.24008700  0.76278800  0.64779700  1
  Mg  Mg34  1  0.43283200  0.02131400  0.64083500  1
  Mg  Mg35  1  0.28878700  0.58949500  0.62999800  1
  Mg  Mg36  1  0.68153200  0.19802200  0.77303700  1
  Mg  Mg37  1  0.64008700  0.21278800  0.69779700  1
  Mg  Mg38  1  0.83283200  0.47131400  0.69083500  1
  Mg  Mg39  1  0.48878700  0.93949500  0.77999800  1
  Mg  Mg40  1  0.28153200  0.74802200  0.72303700  1
  Mg  Mg41  1  0.04008700  0.66278800  0.74779700  1
  Mg  Mg42  1  0.23283200  0.92131400  0.74083500  1
  Mg  Mg43  1  0.08878700  0.48949500  0.72999800  1
  Zn  Zn44  1  0.36080900  0.93040500  0.26041700  1
  Zn  Zn45  1  0.97706600  0.44497000  0.27910500  1
  Zn  Zn46  1  0.56085000  0.57921800  0.23882400  1
  Zn  Zn47  1  0.76076900  0.83159100  0.23200900  1
  Zn  Zn48  1  0.01979200  0.82994200  0.23268400  1
  Zn  Zn49  1  0.41592600  0.78354700  0.28343300  1
  Zn  Zn50  1  0.91989400  0.70225400  0.23626400  1
  Zn  Zn51  1  0.80455100  0.57669100  0.23797100  1
  Zn  Zn52  1  0.51706800  0.83411900  0.23286200  1
  Zn  Zn53  1  0.70569300  0.52726200  0.28740000  1
  Zn  Zn54  1  0.20288700  0.53139800  0.28762000  1
  Zn  Zn55  1  0.17743100  0.70718400  0.27376000  1
  Zn  Zn56  1  0.91873200  0.77941200  0.28321400  1
  Zn  Zn57  1  0.30182700  0.58086800  0.23815000  1
  Zn  Zn58  1  0.86080900  0.93040500  0.26041700  1
  Zn  Zn59  1  0.25699000  0.83872400  0.23248800  1
  Zn  Zn60  1  0.06462900  0.57208500  0.23834500  1
  Zn  Zn61  1  0.40172500  0.70855600  0.23456900  1
  Zn  Zn62  1  0.54418800  0.15362600  0.24707400  1
  Zn  Zn63  1  0.96085000  0.02921800  0.28882400  1
  Zn  Zn64  1  0.16076900  0.28159100  0.28200900  1
  Zn  Zn65  1  0.41979200  0.27994200  0.28268400  1
  Zn  Zn66  1  0.01592600  0.33354700  0.23343300  1
  Zn  Zn67  1  0.74455300  0.41584000  0.24172800  1
  Zn  Zn68  1  0.31989400  0.15225400  0.28626400  1
  Zn  Zn69  1  0.20455100  0.02669100  0.28797100  1
  Zn  Zn70  1  0.91706800  0.28411900  0.28286200  1
  Zn  Zn71  1  0.30569300  0.07726200  0.23740000  1
  Zn  Zn72  1  0.80288700  0.08139800  0.23762000  1
  Zn  Zn73  1  0.51873200  0.32941200  0.23321400  1
  Zn  Zn74  1  0.70182700  0.03086800  0.28815000  1
  Zn  Zn75  1  0.65699000  0.28872400  0.28248800  1
  Zn  Zn76  1  0.46462900  0.02208500  0.28834500  1
  Zn  Zn77  1  0.80172500  0.15855600  0.28456900  1
  Zn  Zn78  1  0.16080900  0.83040500  0.36041700  1
  Zn  Zn79  1  0.77706600  0.34497000  0.37910500  1
  Zn  Zn80  1  0.94418800  0.60362600  0.29707400  1
  Zn  Zn81  1  0.36085000  0.47921800  0.33882400  1
  Zn  Zn82  1  0.56076900  0.73159100  0.33200900  1
  Zn  Zn83  1  0.81979200  0.72994200  0.33268400  1
  Zn  Zn84  1  0.21592600  0.68354700  0.38343300  1
  Zn  Zn85  1  0.14455300  0.86584000  0.29172800  1
  Zn  Zn86  1  0.71989400  0.60225400  0.33626400  1
  Zn  Zn87  1  0.60455100  0.47669100  0.33797100  1
  Zn  Zn88  1  0.31706800  0.73411900  0.33286200  1
  Zn  Zn89  1  0.50569300  0.42726200  0.38740000  1
  Zn  Zn90  1  0.00288700  0.43139800  0.38762000  1
  Zn  Zn91  1  0.97743100  0.60718400  0.37376000  1
  Zn  Zn92  1  0.71873200  0.67941200  0.38321400  1
  Zn  Zn93  1  0.10182700  0.48086800  0.33815000  1
  Zn  Zn94  1  0.66080900  0.83040500  0.36041700  1
  Zn  Zn95  1  0.05699000  0.73872400  0.33248800  1
  Zn  Zn96  1  0.86462900  0.47208500  0.33834500  1
  Zn  Zn97  1  0.20172500  0.60855600  0.33456900  1
  Zn  Zn98  1  0.76080900  0.38040500  0.31041700  1
  Zn  Zn99  1  0.37706600  0.89497000  0.32910500  1
  Zn  Zn100  1  0.34418800  0.05362600  0.34707400  1
  Zn  Zn101  1  0.76085000  0.92921800  0.38882400  1
  Zn  Zn102  1  0.96076900  0.18159100  0.38200900  1
  Zn  Zn103  1  0.21979200  0.17994200  0.38268400  1
  Zn  Zn104  1  0.81592600  0.23354700  0.33343300  1
  Zn  Zn105  1  0.54455300  0.31584000  0.34172800  1
  Zn  Zn106  1  0.11989400  0.05225400  0.38626400  1
  Zn  Zn107  1  0.00455100  0.92669100  0.38797100  1
  Zn  Zn108  1  0.71706800  0.18411900  0.38286200  1
  Zn  Zn109  1  0.10569300  0.97726200  0.33740000  1
  Zn  Zn110  1  0.60288700  0.98139800  0.33762000  1
  Zn  Zn111  1  0.57743100  0.15718400  0.32376000  1
  Zn  Zn112  1  0.31873200  0.22941200  0.33321400  1
  Zn  Zn113  1  0.50182700  0.93086800  0.38815000  1
  Zn  Zn114  1  0.26080900  0.38040500  0.31041700  1
  Zn  Zn115  1  0.45699000  0.18872400  0.38248800  1
  Zn  Zn116  1  0.26462900  0.92208500  0.38834500  1
  Zn  Zn117  1  0.60172500  0.05855600  0.38456900  1
  Zn  Zn118  1  0.96080900  0.73040500  0.46041700  1
  Zn  Zn119  1  0.57706600  0.24497000  0.47910500  1
  Zn  Zn120  1  0.74418800  0.50362600  0.39707400  1
  Zn  Zn121  1  0.16085000  0.37921800  0.43882400  1
  Zn  Zn122  1  0.36076900  0.63159100  0.43200900  1
  Zn  Zn123  1  0.61979200  0.62994200  0.43268400  1
  Zn  Zn124  1  0.01592600  0.58354700  0.48343300  1
  Zn  Zn125  1  0.94455300  0.76584000  0.39172800  1
  Zn  Zn126  1  0.51989400  0.50225400  0.43626400  1
  Zn  Zn127  1  0.40455100  0.37669100  0.43797100  1
  Zn  Zn128  1  0.11706800  0.63411900  0.43286200  1
  Zn  Zn129  1  0.30569300  0.32726200  0.48740000  1
  Zn  Zn130  1  0.80288700  0.33139800  0.48762000  1
  Zn  Zn131  1  0.77743100  0.50718400  0.47376000  1
  Zn  Zn132  1  0.51873200  0.57941200  0.48321400  1
  Zn  Zn133  1  0.90182700  0.38086800  0.43815000  1
  Zn  Zn134  1  0.46080900  0.73040500  0.46041700  1
  Zn  Zn135  1  0.85699000  0.63872400  0.43248800  1
  Zn  Zn136  1  0.66462900  0.37208500  0.43834500  1
  Zn  Zn137  1  0.00172500  0.50855600  0.43456900  1
  Zn  Zn138  1  0.56080900  0.28040500  0.41041700  1
  Zn  Zn139  1  0.17706600  0.79497000  0.42910500  1
  Zn  Zn140  1  0.14418800  0.95362600  0.44707400  1
  Zn  Zn141  1  0.56085000  0.82921800  0.48882400  1
  Zn  Zn142  1  0.76076900  0.08159100  0.48200900  1
  Zn  Zn143  1  0.01979200  0.07994200  0.48268400  1
  Zn  Zn144  1  0.61592600  0.13354700  0.43343300  1
  Zn  Zn145  1  0.34455300  0.21584000  0.44172800  1
  Zn  Zn146  1  0.91989400  0.95225400  0.48626400  1
  Zn  Zn147  1  0.80455100  0.82669100  0.48797100  1
  Zn  Zn148  1  0.51706800  0.08411900  0.48286200  1
  Zn  Zn149  1  0.90569300  0.87726200  0.43740000  1
  Zn  Zn150  1  0.40288700  0.88139800  0.43762000  1
  Zn  Zn151  1  0.37743100  0.05718400  0.42376000  1
  Zn  Zn152  1  0.11873200  0.12941200  0.43321400  1
  Zn  Zn153  1  0.30182700  0.83086800  0.48815000  1
  Zn  Zn154  1  0.06080900  0.28040500  0.41041700  1
  Zn  Zn155  1  0.25699000  0.08872400  0.48248800  1
  Zn  Zn156  1  0.06462900  0.82208500  0.48834500  1
  Zn  Zn157  1  0.40172500  0.95855600  0.48456900  1
  Zn  Zn158  1  0.76080900  0.63040500  0.56041700  1
  Zn  Zn159  1  0.37706600  0.14497000  0.57910500  1
  Zn  Zn160  1  0.54418800  0.40362600  0.49707400  1
  Zn  Zn161  1  0.96085000  0.27921800  0.53882400  1
  Zn  Zn162  1  0.16076900  0.53159100  0.53200900  1
  Zn  Zn163  1  0.41979200  0.52994200  0.53268400  1
  Zn  Zn164  1  0.81592600  0.48354700  0.58343300  1
  Zn  Zn165  1  0.74455300  0.66584000  0.49172800  1
  Zn  Zn166  1  0.31989400  0.40225400  0.53626400  1
  Zn  Zn167  1  0.20455100  0.27669100  0.53797100  1
  Zn  Zn168  1  0.91706800  0.53411900  0.53286200  1
  Zn  Zn169  1  0.10569300  0.22726200  0.58740000  1
  Zn  Zn170  1  0.60288700  0.23139800  0.58762000  1
  Zn  Zn171  1  0.57743100  0.40718400  0.57376000  1
  Zn  Zn172  1  0.31873200  0.47941200  0.58321400  1
  Zn  Zn173  1  0.70182700  0.28086800  0.53815000  1
  Zn  Zn174  1  0.26080900  0.63040500  0.56041700  1
  Zn  Zn175  1  0.65699000  0.53872400  0.53248800  1
  Zn  Zn176  1  0.46462900  0.27208500  0.53834500  1
  Zn  Zn177  1  0.80172500  0.40855600  0.53456900  1
  Zn  Zn178  1  0.36080900  0.18040500  0.51041700  1
  Zn  Zn179  1  0.97706600  0.69497000  0.52910500  1
  Zn  Zn180  1  0.94418800  0.85362600  0.54707400  1
  Zn  Zn181  1  0.36085000  0.72921800  0.58882400  1
  Zn  Zn182  1  0.56076900  0.98159100  0.58200900  1
  Zn  Zn183  1  0.81979200  0.97994200  0.58268400  1
  Zn  Zn184  1  0.41592600  0.03354700  0.53343300  1
  Zn  Zn185  1  0.14455300  0.11584000  0.54172800  1
  Zn  Zn186  1  0.71989400  0.85225400  0.58626400  1
  Zn  Zn187  1  0.60455100  0.72669100  0.58797100  1
  Zn  Zn188  1  0.31706800  0.98411900  0.58286200  1
  Zn  Zn189  1  0.70569300  0.77726200  0.53740000  1
  Zn  Zn190  1  0.20288700  0.78139800  0.53762000  1
  Zn  Zn191  1  0.17743100  0.95718400  0.52376000  1
  Zn  Zn192  1  0.91873200  0.02941200  0.53321400  1
  Zn  Zn193  1  0.10182700  0.73086800  0.58815000  1
  Zn  Zn194  1  0.86080900  0.18040500  0.51041700  1
  Zn  Zn195  1  0.05699000  0.98872400  0.58248800  1
  Zn  Zn196  1  0.86462900  0.72208500  0.58834500  1
  Zn  Zn197  1  0.20172500  0.85855600  0.58456900  1
  Zn  Zn198  1  0.56080900  0.53040500  0.66041700  1
  Zn  Zn199  1  0.17706600  0.04497000  0.67910500  1
  Zn  Zn200  1  0.34418800  0.30362600  0.59707400  1
  Zn  Zn201  1  0.76085000  0.17921800  0.63882400  1
  Zn  Zn202  1  0.96076900  0.43159100  0.63200900  1
  Zn  Zn203  1  0.21979200  0.42994200  0.63268400  1
  Zn  Zn204  1  0.61592600  0.38354700  0.68343300  1
  Zn  Zn205  1  0.54455300  0.56584000  0.59172800  1
  Zn  Zn206  1  0.11989400  0.30225400  0.63626400  1
  Zn  Zn207  1  0.00455100  0.17669100  0.63797100  1
  Zn  Zn208  1  0.71706800  0.43411900  0.63286200  1
  Zn  Zn209  1  0.90569300  0.12726200  0.68740000  1
  Zn  Zn210  1  0.40288700  0.13139800  0.68762000  1
  Zn  Zn211  1  0.37743100  0.30718400  0.67376000  1
  Zn  Zn212  1  0.11873200  0.37941200  0.68321400  1
  Zn  Zn213  1  0.50182700  0.18086800  0.63815000  1
  Zn  Zn214  1  0.06080900  0.53040500  0.66041700  1
  Zn  Zn215  1  0.45699000  0.43872400  0.63248800  1
  Zn  Zn216  1  0.26462900  0.17208500  0.63834500  1
  Zn  Zn217  1  0.60172500  0.30855600  0.63456900  1
  Zn  Zn218  1  0.16080900  0.08040500  0.61041700  1
  Zn  Zn219  1  0.77706600  0.59497000  0.62910500  1
  Zn  Zn220  1  0.74418800  0.75362600  0.64707400  1
  Zn  Zn221  1  0.16085000  0.62921800  0.68882400  1
  Zn  Zn222  1  0.36076900  0.88159100  0.68200900  1
  Zn  Zn223  1  0.61979200  0.87994200  0.68268400  1
  Zn  Zn224  1  0.21592600  0.93354700  0.63343300  1
  Zn  Zn225  1  0.94455300  0.01584000  0.64172800  1
  Zn  Zn226  1  0.51989400  0.75225400  0.68626400  1
  Zn  Zn227  1  0.40455100  0.62669100  0.68797100  1
  Zn  Zn228  1  0.11706800  0.88411900  0.68286200  1
  Zn  Zn229  1  0.50569300  0.67726200  0.63740000  1
  Zn  Zn230  1  0.00288700  0.68139800  0.63762000  1
  Zn  Zn231  1  0.97743100  0.85718400  0.62376000  1
  Zn  Zn232  1  0.71873200  0.92941200  0.63321400  1
  Zn  Zn233  1  0.90182700  0.63086800  0.68815000  1
  Zn  Zn234  1  0.66080900  0.08040500  0.61041700  1
  Zn  Zn235  1  0.85699000  0.88872400  0.68248800  1
  Zn  Zn236  1  0.66462900  0.62208500  0.68834500  1
  Zn  Zn237  1  0.00172500  0.75855600  0.68456900  1
  Zn  Zn238  1  0.36080900  0.43040500  0.76041700  1
  Zn  Zn239  1  0.97706600  0.94497000  0.77910500  1
  Zn  Zn240  1  0.14418800  0.20362600  0.69707400  1
  Zn  Zn241  1  0.56085000  0.07921800  0.73882400  1
  Zn  Zn242  1  0.76076900  0.33159100  0.73200900  1
  Zn  Zn243  1  0.01979200  0.32994200  0.73268400  1
  Zn  Zn244  1  0.41592600  0.28354700  0.78343300  1
  Zn  Zn245  1  0.34455300  0.46584000  0.69172800  1
  Zn  Zn246  1  0.91989400  0.20225400  0.73626400  1
  Zn  Zn247  1  0.80455100  0.07669100  0.73797100  1
  Zn  Zn248  1  0.51706800  0.33411900  0.73286200  1
  Zn  Zn249  1  0.70569300  0.02726200  0.78740000  1
  Zn  Zn250  1  0.20288700  0.03139800  0.78762000  1
  Zn  Zn251  1  0.17743100  0.20718400  0.77376000  1
  Zn  Zn252  1  0.91873200  0.27941200  0.78321400  1
  Zn  Zn253  1  0.30182700  0.08086800  0.73815000  1
  Zn  Zn254  1  0.86080900  0.43040500  0.76041700  1
  Zn  Zn255  1  0.25699000  0.33872400  0.73248800  1
  Zn  Zn256  1  0.06462900  0.07208500  0.73834500  1
  Zn  Zn257  1  0.40172500  0.20855600  0.73456900  1
  Zn  Zn258  1  0.96080900  0.98040500  0.71041700  1
  Zn  Zn259  1  0.57706600  0.49497000  0.72910500  1
  Zn  Zn260  1  0.54418800  0.65362600  0.74707400  1
  Zn  Zn261  1  0.96085000  0.52921800  0.78882400  1
  Zn  Zn262  1  0.16076900  0.78159100  0.78200900  1
  Zn  Zn263  1  0.41979200  0.77994200  0.78268400  1
  Zn  Zn264  1  0.01592600  0.83354700  0.73343300  1
  Zn  Zn265  1  0.74455300  0.91584000  0.74172800  1
  Zn  Zn266  1  0.31989400  0.65225400  0.78626400  1
  Zn  Zn267  1  0.20455100  0.52669100  0.78797100  1
  Zn  Zn268  1  0.91706800  0.78411900  0.78286200  1
  Zn  Zn269  1  0.30569300  0.57726200  0.73740000  1
  Zn  Zn270  1  0.80288700  0.58139800  0.73762000  1
  Zn  Zn271  1  0.77743100  0.75718400  0.72376000  1
  Zn  Zn272  1  0.51873200  0.82941200  0.73321400  1
  Zn  Zn273  1  0.70182700  0.53086800  0.78815000  1
  Zn  Zn274  1  0.46080900  0.98040500  0.71041700  1
  Zn  Zn275  1  0.65699000  0.78872400  0.78248800  1
  Zn  Zn276  1  0.46462900  0.52208500  0.78834500  1
  Zn  Zn277  1  0.80172500  0.65855600  0.78456900  1
