# generated using pymatgen
data_LaMg
_symmetry_space_group_name_H-M   'P 1'
_cell_length_a   3.96190300
_cell_length_b   5.60297668
_cell_length_c   42.11560800
_cell_angle_alpha   86.18592993
_cell_angle_beta   90.00000000
_cell_angle_gamma   90.00000000
_symmetry_Int_Tables_number   1
_chemical_formula_structural   LaMg
_chemical_formula_sum   'La9 Mg9'
_cell_volume   932.83056954
_cell_formula_units_Z   9
loop_
 _symmetry_equiv_pos_site_id
 _symmetry_equiv_pos_as_xyz
  1  'x, y, z'
loop_
 _atom_site_type_symbol
 _atom_site_label
 _atom_site_symmetry_multiplicity
 _atom_site_fract_x
 _atom_site_fract_y
 _atom_site_fract_z
 _atom_site_occupancy
  La  La0  1  0.50000000  0.23333300  0.23333300  1
  La  La1  1  0.50000000  0.70000000  0.30000000  1
  La  La2  1  0.50000000  0.16666700  0.36666700  1
  La  La3  1  0.50000000  0.63333300  0.43333300  1
  La  La4  1  0.50000000  0.10000000  0.50000000  1
  La  La5  1  0.50000000  0.56666700  0.56666700  1
  La  La6  1  0.50000000  0.03333300  0.63333300  1
  La  La7  1  0.50000000  0.50000000  0.70000000  1
  La  La8  1  0.50000000  0.96666700  0.76666700  1
  Mg  Mg9  1  0.00000000  0.73333300  0.23333300  1
  Mg  Mg10  1  0.00000000  0.20000000  0.30000000  1
  Mg  Mg11  1  0.00000000  0.66666700  0.36666700  1
  Mg  Mg12  1  0.00000000  0.13333300  0.43333300  1
  Mg  Mg13  1  0.00000000  0.60000000  0.50000000  1
  Mg  Mg14  1  0.00000000  0.06666700  0.56666700  1
  Mg  Mg15  1  0.00000000  0.53333300  0.63333300  1
  Mg  Mg16  1  0.00000000  0.00000000  0.70000000  1
  Mg  Mg17  1  0.00000000  0.46666700  0.76666700  1
