# generated using pymatgen
data_TmMg2
_symmetry_space_group_name_H-M   'P 1'
_cell_length_a   5.19544600
_cell_length_b   6.13975040
_cell_length_c   42.41684900
_cell_angle_alpha   93.17591331
_cell_angle_beta   90.00000000
_cell_angle_gamma   64.96959680
_symmetry_Int_Tables_number   1
_chemical_formula_structural   TmMg2
_chemical_formula_sum   'Tm10 Mg20'
_cell_volume   1223.67694638
_cell_formula_units_Z   10
loop_
 _symmetry_equiv_pos_site_id
 _symmetry_equiv_pos_as_xyz
  1  'x, y, z'
loop_
 _atom_site_type_symbol
 _atom_site_label
 _atom_site_symmetry_multiplicity
 _atom_site_fract_x
 _atom_site_fract_y
 _atom_site_fract_z
 _atom_site_occupancy
  Tm  Tm0  1  0.90625000  0.18750000  0.21875000  1
  Tm  Tm1  1  0.71875000  0.56250000  0.28125000  1
  Tm  Tm2  1  0.53125000  0.93750000  0.34375000  1
  Tm  Tm3  1  0.34375000  0.31250000  0.40625000  1
  Tm  Tm4  1  0.15625000  0.68750000  0.46875000  1
  Tm  Tm5  1  0.96875000  0.06250000  0.53125000  1
  Tm  Tm6  1  0.78125000  0.43750000  0.59375000  1
  Tm  Tm7  1  0.59375000  0.81250000  0.65625000  1
  Tm  Tm8  1  0.40625000  0.18750000  0.71875000  1
  Tm  Tm9  1  0.21875000  0.56250000  0.78125000  1
  Mg  Mg10  1  0.60416700  0.79166700  0.20833300  1
  Mg  Mg11  1  0.20833300  0.58333300  0.22916700  1
  Mg  Mg12  1  0.41666700  0.16666700  0.27083300  1
  Mg  Mg13  1  0.02083300  0.95833300  0.29166700  1
  Mg  Mg14  1  0.22916700  0.54166700  0.33333300  1
  Mg  Mg15  1  0.83333300  0.33333300  0.35416700  1
  Mg  Mg16  1  0.04166700  0.91666700  0.39583300  1
  Mg  Mg17  1  0.64583300  0.70833300  0.41666700  1
  Mg  Mg18  1  0.85416700  0.29166700  0.45833300  1
  Mg  Mg19  1  0.45833300  0.08333300  0.47916700  1
  Mg  Mg20  1  0.66666700  0.66666700  0.52083300  1
  Mg  Mg21  1  0.27083300  0.45833300  0.54166700  1
  Mg  Mg22  1  0.47916700  0.04166700  0.58333300  1
  Mg  Mg23  1  0.08333300  0.83333300  0.60416700  1
  Mg  Mg24  1  0.29166700  0.41666700  0.64583300  1
  Mg  Mg25  1  0.89583300  0.20833300  0.66666700  1
  Mg  Mg26  1  0.10416700  0.79166700  0.70833300  1
  Mg  Mg27  1  0.70833300  0.58333300  0.72916700  1
  Mg  Mg28  1  0.91666700  0.16666700  0.77083300  1
  Mg  Mg29  1  0.52083300  0.95833300  0.79166700  1
