# generated using pymatgen
data_Sm2Mg
_symmetry_space_group_name_H-M   'P 1'
_cell_length_a   3.79076100
_cell_length_b   5.59581600
_cell_length_c   52.10552400
_cell_angle_alpha   90.00000000
_cell_angle_beta   90.00000000
_cell_angle_gamma   90.00000000
_symmetry_Int_Tables_number   1
_chemical_formula_structural   Sm2Mg
_chemical_formula_sum   'Sm16 Mg8'
_cell_volume   1105.28327232
_cell_formula_units_Z   8
loop_
 _symmetry_equiv_pos_site_id
 _symmetry_equiv_pos_as_xyz
  1  'x, y, z'
loop_
 _atom_site_type_symbol
 _atom_site_label
 _atom_site_symmetry_multiplicity
 _atom_site_fract_x
 _atom_site_fract_y
 _atom_site_fract_z
 _atom_site_occupancy
  Sm  Sm0  1  1.00000000  0.75000000  0.19640000  1
  Sm  Sm1  1  0.50000000  0.75000000  0.25716300  1
  Sm  Sm2  1  0.50000000  0.25000000  0.30360000  1
  Sm  Sm3  1  0.00000000  0.25000000  0.24283700  1
  Sm  Sm4  1  0.50000000  0.75000000  0.36306700  1
  Sm  Sm5  1  0.00000000  0.75000000  0.42382900  1
  Sm  Sm6  1  0.00000000  0.25000000  0.47026700  1
  Sm  Sm7  1  0.50000000  0.25000000  0.40950400  1
  Sm  Sm8  1  0.00000000  0.75000000  0.52973300  1
  Sm  Sm9  1  0.50000000  0.75000000  0.59049600  1
  Sm  Sm10  1  0.50000000  0.25000000  0.63693300  1
  Sm  Sm11  1  0.00000000  0.25000000  0.57617100  1
  Sm  Sm12  1  0.50000000  0.75000000  0.69640000  1
  Sm  Sm13  1  0.00000000  0.75000000  0.75716300  1
  Sm  Sm14  1  0.00000000  0.25000000  0.80360000  1
  Sm  Sm15  1  0.50000000  0.25000000  0.74283700  1
  Mg  Mg16  1  1.00000000  0.75000000  0.31058500  1
  Mg  Mg17  1  0.50000000  0.25000000  0.18941500  1
  Mg  Mg18  1  0.50000000  0.75000000  0.47725100  1
  Mg  Mg19  1  0.00000000  0.25000000  0.35608200  1
  Mg  Mg20  1  0.00000000  0.75000000  0.64391800  1
  Mg  Mg21  1  0.50000000  0.25000000  0.52274900  1
  Mg  Mg22  1  0.50000000  0.75000000  0.81058500  1
  Mg  Mg23  1  0.00000000  0.25000000  0.68941500  1
