# generated using pymatgen
data_Mg27Hg16
_symmetry_space_group_name_H-M   'P 1'
_cell_length_a   8.30244900
_cell_length_b   10.23075567
_cell_length_c   45.97526500
_cell_angle_alpha   89.07002719
_cell_angle_beta   90.00000000
_cell_angle_gamma   66.06127792
_symmetry_Int_Tables_number   1
_chemical_formula_structural   Mg27Hg16
_chemical_formula_sum   'Mg54 Hg32'
_cell_volume   3568.66965593
_cell_formula_units_Z   2
loop_
 _symmetry_equiv_pos_site_id
 _symmetry_equiv_pos_as_xyz
  1  'x, y, z'
loop_
 _atom_site_type_symbol
 _atom_site_label
 _atom_site_symmetry_multiplicity
 _atom_site_fract_x
 _atom_site_fract_y
 _atom_site_fract_z
 _atom_site_occupancy
  Mg  Mg0  1  0.09001200  0.06790800  0.28104300  1
  Mg  Mg1  1  0.59332200  0.56542500  0.28145700  1
  Mg  Mg2  1  0.14166700  0.71666700  0.29791700  1
  Mg  Mg3  1  0.54166700  0.91666700  0.26458300  1
  Mg  Mg4  1  0.03959800  0.41666700  0.30625000  1
  Mg  Mg5  1  0.74125300  0.76542500  0.33145700  1
  Mg  Mg6  1  0.89001200  0.46790800  0.38104300  1
  Mg  Mg7  1  0.39332200  0.96542500  0.38145700  1
  Mg  Mg8  1  0.74208000  0.26790800  0.33104300  1
  Mg  Mg9  1  0.44373500  0.61666700  0.35625000  1
  Mg  Mg10  1  0.94166700  0.11666700  0.39791700  1
  Mg  Mg11  1  0.44166700  0.11666700  0.31458300  1
  Mg  Mg12  1  0.34166700  0.31666700  0.36458300  1
  Mg  Mg13  1  0.04166700  0.91666700  0.34791700  1
  Mg  Mg14  1  0.83959800  0.81666700  0.40625000  1
  Mg  Mg15  1  0.54125300  0.16542500  0.43145700  1
  Mg  Mg16  1  0.69001200  0.86790800  0.48104300  1
  Mg  Mg17  1  0.19332200  0.36542500  0.48145700  1
  Mg  Mg18  1  0.54208000  0.66790800  0.43104300  1
  Mg  Mg19  1  0.24373500  0.01666700  0.45625000  1
  Mg  Mg20  1  0.74166700  0.51666700  0.49791700  1
  Mg  Mg21  1  0.24166700  0.51666700  0.41458300  1
  Mg  Mg22  1  0.14166700  0.71666700  0.46458300  1
  Mg  Mg23  1  0.84166700  0.31666700  0.44791700  1
  Mg  Mg24  1  0.63959800  0.21666700  0.50625000  1
  Mg  Mg25  1  0.34125300  0.56542500  0.53145700  1
  Mg  Mg26  1  0.49001200  0.26790800  0.58104300  1
  Mg  Mg27  1  0.99332200  0.76542500  0.58145700  1
  Mg  Mg28  1  0.34208000  0.06790800  0.53104300  1
  Mg  Mg29  1  0.04373500  0.41666700  0.55625000  1
  Mg  Mg30  1  0.54166700  0.91666700  0.59791700  1
  Mg  Mg31  1  0.04166700  0.91666700  0.51458300  1
  Mg  Mg32  1  0.94166700  0.11666700  0.56458300  1
  Mg  Mg33  1  0.64166700  0.71666700  0.54791700  1
  Mg  Mg34  1  0.43959800  0.61666700  0.60625000  1
  Mg  Mg35  1  0.14125300  0.96542500  0.63145700  1
  Mg  Mg36  1  0.29001200  0.66790800  0.68104300  1
  Mg  Mg37  1  0.79332200  0.16542500  0.68145700  1
  Mg  Mg38  1  0.14208000  0.46790800  0.63104300  1
  Mg  Mg39  1  0.84373500  0.81666700  0.65625000  1
  Mg  Mg40  1  0.34166700  0.31666700  0.69791700  1
  Mg  Mg41  1  0.84166700  0.31666700  0.61458300  1
  Mg  Mg42  1  0.74166700  0.51666700  0.66458300  1
  Mg  Mg43  1  0.44166700  0.11666700  0.64791700  1
  Mg  Mg44  1  0.23959800  0.01666700  0.70625000  1
  Mg  Mg45  1  0.94125300  0.36542500  0.73145700  1
  Mg  Mg46  1  0.09001200  0.06790800  0.78104300  1
  Mg  Mg47  1  0.59332200  0.56542500  0.78145700  1
  Mg  Mg48  1  0.94208000  0.86790800  0.73104300  1
  Mg  Mg49  1  0.64373500  0.21666700  0.75625000  1
  Mg  Mg50  1  0.14166700  0.71666700  0.79791700  1
  Mg  Mg51  1  0.64166700  0.71666700  0.71458300  1
  Mg  Mg52  1  0.54166700  0.91666700  0.76458300  1
  Mg  Mg53  1  0.24166700  0.51666700  0.74791700  1
  Hg  Hg54  1  0.81374200  0.98289400  0.29521200  1
  Hg  Hg55  1  0.86959100  0.65043900  0.26728800  1
  Hg  Hg56  1  0.40204500  0.41666700  0.30625000  1
  Hg  Hg57  1  0.61374200  0.38289400  0.39521200  1
  Hg  Hg58  1  0.37997000  0.85043900  0.31728800  1
  Hg  Hg59  1  0.10336400  0.18289400  0.34521200  1
  Hg  Hg60  1  0.66959100  0.05043900  0.36728800  1
  Hg  Hg61  1  0.08128800  0.61666700  0.35625000  1
  Hg  Hg62  1  0.20204500  0.81666700  0.40625000  1
  Hg  Hg63  1  0.41374200  0.78289400  0.49521200  1
  Hg  Hg64  1  0.17997000  0.25043900  0.41728800  1
  Hg  Hg65  1  0.90336400  0.58289400  0.44521200  1
  Hg  Hg66  1  0.46959100  0.45043900  0.46728800  1
  Hg  Hg67  1  0.88128800  0.01666700  0.45625000  1
  Hg  Hg68  1  0.00204500  0.21666700  0.50625000  1
  Hg  Hg69  1  0.21374200  0.18289400  0.59521200  1
  Hg  Hg70  1  0.97997000  0.65043900  0.51728800  1
  Hg  Hg71  1  0.70336400  0.98289400  0.54521200  1
  Hg  Hg72  1  0.26959100  0.85043900  0.56728800  1
  Hg  Hg73  1  0.68128800  0.41666700  0.55625000  1
  Hg  Hg74  1  0.80204500  0.61666700  0.60625000  1
  Hg  Hg75  1  0.01374200  0.58289400  0.69521200  1
  Hg  Hg76  1  0.77997000  0.05043900  0.61728800  1
  Hg  Hg77  1  0.50336400  0.38289400  0.64521200  1
  Hg  Hg78  1  0.06959100  0.25043900  0.66728800  1
  Hg  Hg79  1  0.48128800  0.81666700  0.65625000  1
  Hg  Hg80  1  0.60204500  0.01666700  0.70625000  1
  Hg  Hg81  1  0.81374200  0.98289400  0.79521200  1
  Hg  Hg82  1  0.57997000  0.45043900  0.71728800  1
  Hg  Hg83  1  0.30336400  0.78289400  0.74521200  1
  Hg  Hg84  1  0.86959100  0.65043900  0.76728800  1
  Hg  Hg85  1  0.28128800  0.21666700  0.75625000  1
