# generated using pymatgen
data_Mg29Rh12
_symmetry_space_group_name_H-M   'P 1'
_cell_length_a   8.64031900
_cell_length_b   11.79877622
_cell_length_c   43.91762100
_cell_angle_alpha   86.20917344
_cell_angle_beta   90.00000000
_cell_angle_gamma   68.52142843
_symmetry_Int_Tables_number   1
_chemical_formula_structural   Mg29Rh12
_chemical_formula_sum   'Mg87 Rh36'
_cell_volume   4155.74122190
_cell_formula_units_Z   3
loop_
 _symmetry_equiv_pos_site_id
 _symmetry_equiv_pos_as_xyz
  1  'x, y, z'
loop_
 _atom_site_type_symbol
 _atom_site_label
 _atom_site_symmetry_multiplicity
 _atom_site_fract_x
 _atom_site_fract_y
 _atom_site_fract_z
 _atom_site_occupancy
  Mg  Mg0  1  0.80326300  0.39347400  0.28794600  1
  Mg  Mg1  1  0.04004100  0.91991700  0.26520700  1
  Mg  Mg2  1  0.15416500  0.26556700  0.30379400  1
  Mg  Mg3  1  0.58026800  0.26556700  0.30379400  1
  Mg  Mg4  1  0.56648500  0.86703100  0.31068600  1
  Mg  Mg5  1  0.02625800  0.52138200  0.27209900  1
  Mg  Mg6  1  0.45236100  0.52138200  0.27209900  1
  Mg  Mg7  1  0.67826300  0.64347400  0.35044600  1
  Mg  Mg8  1  0.55326300  0.89347400  0.41294600  1
  Mg  Mg9  1  0.09564600  0.80870700  0.37163800  1
  Mg  Mg10  1  0.54535500  0.28859100  0.37666700  1
  Mg  Mg11  1  0.16605400  0.28859100  0.37666700  1
  Mg  Mg12  1  0.19047100  0.99835800  0.32422600  1
  Mg  Mg13  1  0.81117100  0.99835800  0.32422600  1
  Mg  Mg14  1  0.26088000  0.47824100  0.32925500  1
  Mg  Mg15  1  0.79004100  0.41991700  0.39020700  1
  Mg  Mg16  1  0.90416500  0.76556700  0.42879400  1
  Mg  Mg17  1  0.33026800  0.76556700  0.42879400  1
  Mg  Mg18  1  0.93351500  0.70686600  0.31847000  1
  Mg  Mg19  1  0.35961900  0.70686600  0.31847000  1
  Mg  Mg20  1  0.31648500  0.36703100  0.43568600  1
  Mg  Mg21  1  0.99690700  0.58008300  0.38242300  1
  Mg  Mg22  1  0.47374200  0.05251500  0.35705700  1
  Mg  Mg23  1  0.42301000  0.58008300  0.38242300  1
  Mg  Mg24  1  0.77625800  0.02138200  0.39709900  1
  Mg  Mg25  1  0.88278300  0.23443300  0.34383600  1
  Mg  Mg26  1  0.20236100  0.02138200  0.39709900  1
  Mg  Mg27  1  0.42826300  0.14347400  0.47544600  1
  Mg  Mg28  1  0.30326300  0.39347400  0.53794600  1
  Mg  Mg29  1  0.84564600  0.30870700  0.49663800  1
  Mg  Mg30  1  0.29535500  0.78859100  0.50166700  1
  Mg  Mg31  1  0.91605400  0.78859100  0.50166700  1
  Mg  Mg32  1  0.94047100  0.49835800  0.44922600  1
  Mg  Mg33  1  0.56117100  0.49835800  0.44922600  1
  Mg  Mg34  1  0.01088000  0.97824100  0.45425500  1
  Mg  Mg35  1  0.54004100  0.91991700  0.51520700  1
  Mg  Mg36  1  0.65416500  0.26556700  0.55379400  1
  Mg  Mg37  1  0.08026800  0.26556700  0.55379400  1
  Mg  Mg38  1  0.68351500  0.20686600  0.44347000  1
  Mg  Mg39  1  0.10961900  0.20686600  0.44347000  1
  Mg  Mg40  1  0.06648500  0.86703100  0.56068600  1
  Mg  Mg41  1  0.74690700  0.08008300  0.50742300  1
  Mg  Mg42  1  0.22374200  0.55251500  0.48205700  1
  Mg  Mg43  1  0.17301000  0.08008300  0.50742300  1
  Mg  Mg44  1  0.52625800  0.52138200  0.52209900  1
  Mg  Mg45  1  0.63278300  0.73443300  0.46883600  1
  Mg  Mg46  1  0.95236100  0.52138200  0.52209900  1
  Mg  Mg47  1  0.17826300  0.64347400  0.60044600  1
  Mg  Mg48  1  0.05326300  0.89347400  0.66294600  1
  Mg  Mg49  1  0.59564600  0.80870700  0.62163800  1
  Mg  Mg50  1  0.04535500  0.28859100  0.62666700  1
  Mg  Mg51  1  0.66605400  0.28859100  0.62666700  1
  Mg  Mg52  1  0.69047100  0.99835800  0.57422600  1
  Mg  Mg53  1  0.31117100  0.99835800  0.57422600  1
  Mg  Mg54  1  0.76088000  0.47824100  0.57925500  1
  Mg  Mg55  1  0.29004100  0.41991700  0.64020700  1
  Mg  Mg56  1  0.40416500  0.76556700  0.67879400  1
  Mg  Mg57  1  0.83026800  0.76556700  0.67879400  1
  Mg  Mg58  1  0.43351500  0.70686600  0.56847000  1
  Mg  Mg59  1  0.85961900  0.70686600  0.56847000  1
  Mg  Mg60  1  0.81648500  0.36703100  0.68568600  1
  Mg  Mg61  1  0.49690700  0.58008300  0.63242300  1
  Mg  Mg62  1  0.97374200  0.05251500  0.60705700  1
  Mg  Mg63  1  0.92301000  0.58008300  0.63242300  1
  Mg  Mg64  1  0.27625800  0.02138200  0.64709900  1
  Mg  Mg65  1  0.38278300  0.23443300  0.59383600  1
  Mg  Mg66  1  0.70236100  0.02138200  0.64709900  1
  Mg  Mg67  1  0.92826300  0.14347400  0.72544600  1
  Mg  Mg68  1  0.80326300  0.39347400  0.78794600  1
  Mg  Mg69  1  0.34564600  0.30870700  0.74663800  1
  Mg  Mg70  1  0.79535500  0.78859100  0.75166700  1
  Mg  Mg71  1  0.41605400  0.78859100  0.75166700  1
  Mg  Mg72  1  0.44047100  0.49835800  0.69922600  1
  Mg  Mg73  1  0.06117100  0.49835800  0.69922600  1
  Mg  Mg74  1  0.51088000  0.97824100  0.70425500  1
  Mg  Mg75  1  0.04004100  0.91991700  0.76520700  1
  Mg  Mg76  1  0.15416500  0.26556700  0.80379400  1
  Mg  Mg77  1  0.58026800  0.26556700  0.80379400  1
  Mg  Mg78  1  0.18351500  0.20686600  0.69347000  1
  Mg  Mg79  1  0.60961900  0.20686600  0.69347000  1
  Mg  Mg80  1  0.56648500  0.86703100  0.81068600  1
  Mg  Mg81  1  0.24690700  0.08008300  0.75742300  1
  Mg  Mg82  1  0.72374200  0.55251500  0.73205700  1
  Mg  Mg83  1  0.67301000  0.08008300  0.75742300  1
  Mg  Mg84  1  0.02625800  0.52138200  0.77209900  1
  Mg  Mg85  1  0.13278300  0.73443300  0.71883600  1
  Mg  Mg86  1  0.45236100  0.52138200  0.77209900  1
  Rh  Rh87  1  0.15743000  0.68514100  0.27753000  1
  Rh  Rh88  1  0.44909600  0.10180700  0.29836300  1
  Rh  Rh89  1  0.92691500  0.14617100  0.28727200  1
  Rh  Rh90  1  0.67961100  0.64077800  0.28862100  1
  Rh  Rh91  1  0.90743000  0.18514100  0.40253000  1
  Rh  Rh92  1  0.19909600  0.60180700  0.42336300  1
  Rh  Rh93  1  0.67691500  0.64617100  0.41227200  1
  Rh  Rh94  1  0.95479400  0.45732200  0.33448400  1
  Rh  Rh95  1  0.58788400  0.45732200  0.33448400  1
  Rh  Rh96  1  0.76864200  0.82962600  0.36640800  1
  Rh  Rh97  1  0.40173200  0.82962600  0.36640800  1
  Rh  Rh98  1  0.42961100  0.14077800  0.41362100  1
  Rh  Rh99  1  0.65743000  0.68514100  0.52753000  1
  Rh  Rh100  1  0.94909600  0.10180700  0.54836300  1
  Rh  Rh101  1  0.42691500  0.14617100  0.53727200  1
  Rh  Rh102  1  0.70479400  0.95732200  0.45948400  1
  Rh  Rh103  1  0.33788400  0.95732200  0.45948400  1
  Rh  Rh104  1  0.51864200  0.32962600  0.49140800  1
  Rh  Rh105  1  0.15173200  0.32962600  0.49140800  1
  Rh  Rh106  1  0.17961100  0.64077800  0.53862100  1
  Rh  Rh107  1  0.40743000  0.18514100  0.65253000  1
  Rh  Rh108  1  0.69909600  0.60180700  0.67336300  1
  Rh  Rh109  1  0.17691500  0.64617100  0.66227200  1
  Rh  Rh110  1  0.45479400  0.45732200  0.58448400  1
  Rh  Rh111  1  0.08788400  0.45732200  0.58448400  1
  Rh  Rh112  1  0.26864200  0.82962600  0.61640800  1
  Rh  Rh113  1  0.90173200  0.82962600  0.61640800  1
  Rh  Rh114  1  0.92961100  0.14077800  0.66362100  1
  Rh  Rh115  1  0.15743000  0.68514100  0.77753000  1
  Rh  Rh116  1  0.44909600  0.10180700  0.79836300  1
  Rh  Rh117  1  0.92691500  0.14617100  0.78727200  1
  Rh  Rh118  1  0.20479400  0.95732200  0.70948400  1
  Rh  Rh119  1  0.83788400  0.95732200  0.70948400  1
  Rh  Rh120  1  0.01864200  0.32962600  0.74140800  1
  Rh  Rh121  1  0.65173200  0.32962600  0.74140800  1
  Rh  Rh122  1  0.67961100  0.64077800  0.78862100  1
