# generated using pymatgen
data_Mg43Pd71
_symmetry_space_group_name_H-M   'P 1'
_cell_length_a   6.99934465
_cell_length_b   10.69961100
_cell_length_c   44.14461900
_cell_angle_alpha   90.00000000
_cell_angle_beta   89.32713813
_cell_angle_gamma   90.00000000
_symmetry_Int_Tables_number   1
_chemical_formula_structural   Mg43Pd71
_chemical_formula_sum   'Mg43 Pd71'
_cell_volume   3305.77424548
_cell_formula_units_Z   1
loop_
 _symmetry_equiv_pos_site_id
 _symmetry_equiv_pos_as_xyz
  1  'x, y, z'
loop_
 _atom_site_type_symbol
 _atom_site_label
 _atom_site_symmetry_multiplicity
 _atom_site_fract_x
 _atom_site_fract_y
 _atom_site_fract_z
 _atom_site_occupancy
  Mg  Mg0  1  0.63681500  0.50000000  0.26442300  1
  Mg  Mg1  1  0.25220000  0.50000000  0.34134600  1
  Mg  Mg2  1  0.94450800  0.00000000  0.30288500  1
  Mg  Mg3  1  0.34533800  0.86253400  0.29048800  1
  Mg  Mg4  1  0.54367700  0.13746600  0.31528100  1
  Mg  Mg5  1  0.23598500  0.36253400  0.27681900  1
  Mg  Mg6  1  0.65303100  0.63746600  0.32895000  1
  Mg  Mg7  1  0.86758500  0.50000000  0.41826900  1
  Mg  Mg8  1  0.55989200  0.00000000  0.37980800  1
  Mg  Mg9  1  0.96072300  0.86253400  0.36741200  1
  Mg  Mg10  1  0.15906200  0.13746600  0.39220400  1
  Mg  Mg11  1  0.85136900  0.36253400  0.35374200  1
  Mg  Mg12  1  0.26841500  0.63746600  0.40587300  1
  Mg  Mg13  1  0.48296900  0.50000000  0.49519200  1
  Mg  Mg14  1  0.17527700  0.00000000  0.45673100  1
  Mg  Mg15  1  0.57610800  0.86253400  0.44433500  1
  Mg  Mg16  1  0.77444600  0.13746600  0.46912700  1
  Mg  Mg17  1  0.46675400  0.36253400  0.43066500  1
  Mg  Mg18  1  0.88380000  0.63746600  0.48279600  1
  Mg  Mg19  1  0.09835400  0.50000000  0.57211500  1
  Mg  Mg20  1  0.79066100  0.00000000  0.53365400  1
  Mg  Mg21  1  0.19149200  0.86253400  0.52125800  1
  Mg  Mg22  1  0.38983100  0.13746600  0.54605000  1
  Mg  Mg23  1  0.08213800  0.36253400  0.50758800  1
  Mg  Mg24  1  0.49918400  0.63746600  0.55971900  1
  Mg  Mg25  1  0.71373800  0.50000000  0.64903800  1
  Mg  Mg26  1  0.40604600  0.00000000  0.61057700  1
  Mg  Mg27  1  0.80687700  0.86253400  0.59818100  1
  Mg  Mg28  1  0.00521500  0.13746600  0.62297300  1
  Mg  Mg29  1  0.69752300  0.36253400  0.58451200  1
  Mg  Mg30  1  0.11456900  0.63746600  0.63664200  1
  Mg  Mg31  1  0.32912300  0.50000000  0.72596200  1
  Mg  Mg32  1  0.02143100  0.00000000  0.68750000  1
  Mg  Mg33  1  0.42226100  0.86253400  0.67510400  1
  Mg  Mg34  1  0.62060000  0.13746600  0.69989600  1
  Mg  Mg35  1  0.31290800  0.36253400  0.66143500  1
  Mg  Mg36  1  0.72995400  0.63746600  0.71356500  1
  Mg  Mg37  1  0.94450800  0.50000000  0.80288500  1
  Mg  Mg38  1  0.63681500  0.00000000  0.76442300  1
  Mg  Mg39  1  0.03764600  0.86253400  0.75202700  1
  Mg  Mg40  1  0.23598500  0.13746600  0.77681900  1
  Mg  Mg41  1  0.92829200  0.36253400  0.73835800  1
  Mg  Mg42  1  0.34533800  0.63746600  0.79048800  1
  Pd  Pd43  1  0.63681500  0.00000000  0.26442300  1
  Pd  Pd44  1  0.33699700  0.61114300  0.28944600  1
  Pd  Pd45  1  0.55201800  0.38885700  0.31632300  1
  Pd  Pd46  1  0.24432600  0.11114300  0.27786200  1
  Pd  Pd47  1  0.64468900  0.88885700  0.32790700  1
  Pd  Pd48  1  0.01308600  0.75616100  0.31145700  1
  Pd  Pd49  1  0.87592900  0.24383900  0.29431200  1
  Pd  Pd50  1  0.18362200  0.25616100  0.33277400  1
  Pd  Pd51  1  0.70539400  0.74383900  0.27299500  1
  Pd  Pd52  1  0.25220000  0.00000000  0.34134600  1
  Pd  Pd53  1  0.94450800  0.50000000  0.30288500  1
  Pd  Pd54  1  0.95238200  0.61114300  0.36636900  1
  Pd  Pd55  1  0.16740300  0.38885700  0.39324700  1
  Pd  Pd56  1  0.85971100  0.11114300  0.35478500  1
  Pd  Pd57  1  0.26007400  0.88885700  0.40483000  1
  Pd  Pd58  1  0.62847000  0.75616100  0.38838000  1
  Pd  Pd59  1  0.49131400  0.24383900  0.37123500  1
  Pd  Pd60  1  0.79900600  0.25616100  0.40969700  1
  Pd  Pd61  1  0.32077800  0.74383900  0.34991800  1
  Pd  Pd62  1  0.86758500  0.00000000  0.41826900  1
  Pd  Pd63  1  0.55989200  0.50000000  0.37980800  1
  Pd  Pd64  1  0.56776600  0.61114300  0.44329200  1
  Pd  Pd65  1  0.78278800  0.38885700  0.47017000  1
  Pd  Pd66  1  0.47509500  0.11114300  0.43170800  1
  Pd  Pd67  1  0.87545800  0.88885700  0.48175300  1
  Pd  Pd68  1  0.24385500  0.75616100  0.46530300  1
  Pd  Pd69  1  0.10669900  0.24383900  0.44815800  1
  Pd  Pd70  1  0.41439100  0.25616100  0.48662000  1
  Pd  Pd71  1  0.93616300  0.74383900  0.42684200  1
  Pd  Pd72  1  0.48296900  0.00000000  0.49519200  1
  Pd  Pd73  1  0.17527700  0.50000000  0.45673100  1
  Pd  Pd74  1  0.18315100  0.61114300  0.52021500  1
  Pd  Pd75  1  0.39817200  0.38885700  0.54709300  1
  Pd  Pd76  1  0.09048000  0.11114300  0.50863100  1
  Pd  Pd77  1  0.49084300  0.88885700  0.55867700  1
  Pd  Pd78  1  0.85924000  0.75616100  0.54222600  1
  Pd  Pd79  1  0.72208300  0.24383900  0.52508200  1
  Pd  Pd80  1  0.02977600  0.25616100  0.56354300  1
  Pd  Pd81  1  0.55154700  0.74383900  0.50376500  1
  Pd  Pd82  1  0.09835400  0.00000000  0.57211500  1
  Pd  Pd83  1  0.79066100  0.50000000  0.53365400  1
  Pd  Pd84  1  0.79853500  0.61114300  0.59713800  1
  Pd  Pd85  1  0.01355700  0.38885700  0.62401600  1
  Pd  Pd86  1  0.70586500  0.11114300  0.58555400  1
  Pd  Pd87  1  0.10622800  0.88885700  0.63560000  1
  Pd  Pd88  1  0.47462400  0.75616100  0.61914900  1
  Pd  Pd89  1  0.33746800  0.24383900  0.60200500  1
  Pd  Pd90  1  0.64516000  0.25616100  0.64046600  1
  Pd  Pd91  1  0.16693200  0.74383900  0.58068800  1
  Pd  Pd92  1  0.71373800  0.00000000  0.64903800  1
  Pd  Pd93  1  0.40604600  0.50000000  0.61057700  1
  Pd  Pd94  1  0.41392000  0.61114300  0.67406100  1
  Pd  Pd95  1  0.62894100  0.38885700  0.70093900  1
  Pd  Pd96  1  0.32124900  0.11114300  0.66247700  1
  Pd  Pd97  1  0.72161200  0.88885700  0.71252300  1
  Pd  Pd98  1  0.09000900  0.75616100  0.69607200  1
  Pd  Pd99  1  0.95285200  0.24383900  0.67892800  1
  Pd  Pd100  1  0.26054500  0.25616100  0.71738900  1
  Pd  Pd101  1  0.78231700  0.74383900  0.65761100  1
  Pd  Pd102  1  0.32912300  0.00000000  0.72596200  1
  Pd  Pd103  1  0.02143100  0.50000000  0.68750000  1
  Pd  Pd104  1  0.02930500  0.61114300  0.75098400  1
  Pd  Pd105  1  0.24432600  0.38885700  0.77786200  1
  Pd  Pd106  1  0.93663400  0.11114300  0.73940000  1
  Pd  Pd107  1  0.33699700  0.88885700  0.78944600  1
  Pd  Pd108  1  0.70539400  0.75616100  0.77299500  1
  Pd  Pd109  1  0.56823700  0.24383900  0.75585100  1
  Pd  Pd110  1  0.87592900  0.25616100  0.79431200  1
  Pd  Pd111  1  0.39770100  0.74383900  0.73453400  1
  Pd  Pd112  1  0.94450800  0.00000000  0.80288500  1
  Pd  Pd113  1  0.63681500  0.50000000  0.76442300  1
