# generated using pymatgen
data_Mg18Ir23
_symmetry_space_group_name_H-M   'P 1'
_cell_length_a   5.24707500
_cell_length_b   8.54477426
_cell_length_c   55.75889500
_cell_angle_alpha   88.31672616
_cell_angle_beta   90.00000000
_cell_angle_gamma   90.00000000
_symmetry_Int_Tables_number   1
_chemical_formula_structural   Mg18Ir23
_chemical_formula_sum   'Mg36 Ir46'
_cell_volume   2498.87525280
_cell_formula_units_Z   2
loop_
 _symmetry_equiv_pos_site_id
 _symmetry_equiv_pos_as_xyz
  1  'x, y, z'
loop_
 _atom_site_type_symbol
 _atom_site_label
 _atom_site_symmetry_multiplicity
 _atom_site_fract_x
 _atom_site_fract_y
 _atom_site_fract_z
 _atom_site_occupancy
  Mg  Mg0  1  0.00000000  0.49629600  0.29181100  1
  Mg  Mg1  1  0.50000000  0.05986000  0.49485600  1
  Mg  Mg2  1  0.50000000  0.66673200  0.50256700  1
  Mg  Mg3  1  0.00000000  0.88942400  0.28410000  1
  Mg  Mg4  1  0.50000000  0.68698000  0.30298900  1
  Mg  Mg5  1  0.00000000  0.86917600  0.48367700  1
  Mg  Mg6  1  0.00000000  0.70346100  0.38328800  1
  Mg  Mg7  1  0.50000000  0.85269500  0.40337900  1
  Mg  Mg8  1  0.50000000  0.32963000  0.45847800  1
  Mg  Mg9  1  0.00000000  0.22652600  0.32818900  1
  Mg  Mg10  1  0.00000000  0.34715700  0.37974700  1
  Mg  Mg11  1  0.50000000  0.20899900  0.40692000  1
  Mg  Mg12  1  0.00000000  0.83339800  0.33590000  1
  Mg  Mg13  1  0.50000000  0.72275800  0.45076700  1
  Mg  Mg14  1  1.00000000  0.52031300  0.46965600  1
  Mg  Mg15  1  0.50000000  0.03584300  0.31701100  1
  Mg  Mg16  1  0.50000000  0.53679400  0.54995500  1
  Mg  Mg17  1  0.00000000  0.68602800  0.57004500  1
  Mg  Mg18  1  0.00000000  0.16296300  0.62514400  1
  Mg  Mg19  1  0.50000000  0.72652600  0.82818900  1
  Mg  Mg20  1  0.50000000  0.18049000  0.54641300  1
  Mg  Mg21  1  0.00000000  0.04233300  0.57358700  1
  Mg  Mg22  1  0.50000000  0.33339800  0.83590000  1
  Mg  Mg23  1  0.00000000  0.55609100  0.61743300  1
  Mg  Mg24  1  0.50000000  0.35364600  0.63632300  1
  Mg  Mg25  1  0.00000000  0.53584300  0.81701100  1
  Mg  Mg26  1  0.00000000  0.37012800  0.71662100  1
  Mg  Mg27  1  0.50000000  0.51936200  0.73671200  1
  Mg  Mg28  1  0.50000000  0.99629600  0.79181100  1
  Mg  Mg29  1  1.00000000  0.89319300  0.66152200  1
  Mg  Mg30  1  0.00000000  0.01382300  0.71308000  1
  Mg  Mg31  1  0.50000000  0.87566600  0.74025300  1
  Mg  Mg32  1  0.00000000  0.50006500  0.66923300  1
  Mg  Mg33  1  0.50000000  0.38942400  0.78410000  1
  Mg  Mg34  1  0.00000000  0.18698000  0.80298900  1
  Mg  Mg35  1  0.50000000  0.70251000  0.65034400  1
  Ir  Ir36  1  1.00000000  0.19474500  0.47666700  1
  Ir  Ir37  1  0.50000000  0.78938300  0.35370700  1
  Ir  Ir38  1  0.00000000  0.76677300  0.43295900  1
  Ir  Ir39  1  0.74951300  0.52119800  0.42068500  1
  Ir  Ir40  1  0.75048700  0.03495800  0.36598100  1
  Ir  Ir41  1  0.24951300  0.03495800  0.36598100  1
  Ir  Ir42  1  0.25048700  0.52119800  0.42068500  1
  Ir  Ir43  1  0.50000000  0.36141100  0.31000000  1
  Ir  Ir44  1  1.00000000  0.02371000  0.40467900  1
  Ir  Ir45  1  0.50000000  0.53244600  0.38198800  1
  Ir  Ir46  1  0.00000000  0.27313600  0.43139100  1
  Ir  Ir47  1  0.50000000  0.28302000  0.35527600  1
  Ir  Ir48  1  0.76606200  0.53524800  0.34025600  1
  Ir  Ir49  1  0.73393800  0.02090800  0.44641100  1
  Ir  Ir50  1  0.26606200  0.02090800  0.44641100  1
  Ir  Ir51  1  0.23393800  0.53524800  0.34025600  1
  Ir  Ir52  1  1.00000000  0.62271700  0.52037400  1
  Ir  Ir53  1  0.50000000  0.60010600  0.59962600  1
  Ir  Ir54  1  0.24951300  0.35453100  0.58735200  1
  Ir  Ir55  1  0.25048700  0.86829100  0.53264800  1
  Ir  Ir56  1  0.74951300  0.86829100  0.53264800  1
  Ir  Ir57  1  0.75048700  0.35453100  0.58735200  1
  Ir  Ir58  1  0.00000000  0.86141100  0.81000000  1
  Ir  Ir59  1  0.50000000  0.85704300  0.57134500  1
  Ir  Ir60  1  0.00000000  0.36578000  0.54865500  1
  Ir  Ir61  1  0.50000000  0.10646900  0.59805700  1
  Ir  Ir62  1  0.00000000  0.11635300  0.52194300  1
  Ir  Ir63  1  0.26606200  0.36858200  0.50692300  1
  Ir  Ir64  1  0.23393800  0.85424100  0.61307700  1
  Ir  Ir65  1  0.76606200  0.85424100  0.61307700  1
  Ir  Ir66  1  0.73393800  0.36858200  0.50692300  1
  Ir  Ir67  1  0.50000000  0.45605000  0.68704100  1
  Ir  Ir68  1  1.00000000  0.43343900  0.76629300  1
  Ir  Ir69  1  0.74951300  0.18786500  0.75401900  1
  Ir  Ir70  1  0.75048700  0.70162500  0.69931500  1
  Ir  Ir71  1  0.24951300  0.70162500  0.69931500  1
  Ir  Ir72  1  0.25048700  0.18786500  0.75401900  1
  Ir  Ir73  1  0.50000000  0.02807800  0.64333300  1
  Ir  Ir74  1  0.00000000  0.69037600  0.73801200  1
  Ir  Ir75  1  0.50000000  0.19911300  0.71532100  1
  Ir  Ir76  1  0.00000000  0.93980300  0.76472400  1
  Ir  Ir77  1  0.50000000  0.94968700  0.68860900  1
  Ir  Ir78  1  0.76606200  0.20191500  0.67358900  1
  Ir  Ir79  1  0.73393800  0.68757400  0.77974400  1
  Ir  Ir80  1  0.26606200  0.68757400  0.77974400  1
  Ir  Ir81  1  0.23393800  0.20191500  0.67358900  1
