# generated using pymatgen
data_Mg11Sc4
_symmetry_space_group_name_H-M   'P 1'
_cell_length_a   4.51235600
_cell_length_b   6.38143563
_cell_length_c   41.60186900
_cell_angle_alpha   85.60129258
_cell_angle_beta   90.00000000
_cell_angle_gamma   90.00000000
_symmetry_Int_Tables_number   1
_chemical_formula_structural   Mg11Sc4
_chemical_formula_sum   'Mg22 Sc8'
_cell_volume   1194.41013824
_cell_formula_units_Z   2
loop_
 _symmetry_equiv_pos_site_id
 _symmetry_equiv_pos_as_xyz
  1  'x, y, z'
loop_
 _atom_site_type_symbol
 _atom_site_label
 _atom_site_symmetry_multiplicity
 _atom_site_fract_x
 _atom_site_fract_y
 _atom_site_fract_z
 _atom_site_occupancy
  Mg  Mg0  1  0.00000000  0.09615400  0.25000000  1
  Mg  Mg1  1  0.00000000  0.55769200  0.32692300  1
  Mg  Mg2  1  0.50000000  0.32692300  0.28846200  1
  Mg  Mg3  1  0.50000000  0.82692300  0.28846200  1
  Mg  Mg4  1  0.00000000  0.01923100  0.40384600  1
  Mg  Mg5  1  0.50000000  0.78846200  0.36538500  1
  Mg  Mg6  1  0.50000000  0.28846200  0.36538500  1
  Mg  Mg7  1  0.00000000  0.48076900  0.48076900  1
  Mg  Mg8  1  0.50000000  0.25000000  0.44230800  1
  Mg  Mg9  1  0.50000000  0.75000000  0.44230800  1
  Mg  Mg10  1  0.00000000  0.94230800  0.55769200  1
  Mg  Mg11  1  0.50000000  0.71153800  0.51923100  1
  Mg  Mg12  1  0.50000000  0.21153800  0.51923100  1
  Mg  Mg13  1  0.00000000  0.40384600  0.63461500  1
  Mg  Mg14  1  0.50000000  0.17307700  0.59615400  1
  Mg  Mg15  1  0.50000000  0.67307700  0.59615400  1
  Mg  Mg16  1  0.00000000  0.86538500  0.71153800  1
  Mg  Mg17  1  0.50000000  0.63461500  0.67307700  1
  Mg  Mg18  1  0.50000000  0.13461500  0.67307700  1
  Mg  Mg19  1  0.00000000  0.32692300  0.78846200  1
  Mg  Mg20  1  0.50000000  0.09615400  0.75000000  1
  Mg  Mg21  1  0.50000000  0.59615400  0.75000000  1
  Sc  Sc22  1  0.00000000  0.59615400  0.25000000  1
  Sc  Sc23  1  0.00000000  0.05769200  0.32692300  1
  Sc  Sc24  1  0.00000000  0.51923100  0.40384600  1
  Sc  Sc25  1  0.00000000  0.98076900  0.48076900  1
  Sc  Sc26  1  0.00000000  0.44230800  0.55769200  1
  Sc  Sc27  1  0.00000000  0.90384600  0.63461500  1
  Sc  Sc28  1  0.00000000  0.36538500  0.71153800  1
  Sc  Sc29  1  0.00000000  0.82692300  0.78846200  1
