# generated using pymatgen
data_Mg14Zn73
_symmetry_space_group_name_H-M   'P 1'
_cell_length_a   8.56229400
_cell_length_b   12.10891200
_cell_length_c   48.43564800
_cell_angle_alpha   90.00000000
_cell_angle_beta   90.00000000
_cell_angle_gamma   90.00000000
_symmetry_Int_Tables_number   1
_chemical_formula_structural   Mg14Zn73
_chemical_formula_sum   'Mg28 Zn146'
_cell_volume   5021.81111185
_cell_formula_units_Z   2
loop_
 _symmetry_equiv_pos_site_id
 _symmetry_equiv_pos_as_xyz
  1  'x, y, z'
loop_
 _atom_site_type_symbol
 _atom_site_label
 _atom_site_symmetry_multiplicity
 _atom_site_fract_x
 _atom_site_fract_y
 _atom_site_fract_z
 _atom_site_occupancy
  Mg  Mg0  1  0.50000000  0.77477100  0.24102700  1
  Mg  Mg1  1  0.00000000  0.22222000  0.30352700  1
  Mg  Mg2  1  0.69744900  0.37349500  0.21634600  1
  Mg  Mg3  1  0.00000000  0.02477100  0.25416500  1
  Mg  Mg4  1  0.30255100  0.37349500  0.21634600  1
  Mg  Mg5  1  0.50000000  0.97222000  0.19166500  1
  Mg  Mg6  1  0.50000000  0.27477100  0.36602700  1
  Mg  Mg7  1  0.00000000  0.72222000  0.42852700  1
  Mg  Mg8  1  0.69744900  0.87349500  0.34134600  1
  Mg  Mg9  1  0.00000000  0.52477100  0.37916500  1
  Mg  Mg10  1  0.30255100  0.87349500  0.34134600  1
  Mg  Mg11  1  0.50000000  0.47222000  0.31666500  1
  Mg  Mg12  1  0.50000000  0.77477100  0.49102700  1
  Mg  Mg13  1  0.00000000  0.22222000  0.55352700  1
  Mg  Mg14  1  0.69744900  0.37349500  0.46634600  1
  Mg  Mg15  1  0.00000000  0.02477100  0.50416500  1
  Mg  Mg16  1  0.30255100  0.37349500  0.46634600  1
  Mg  Mg17  1  0.50000000  0.97222000  0.44166500  1
  Mg  Mg18  1  0.50000000  0.27477100  0.61602700  1
  Mg  Mg19  1  0.00000000  0.72222000  0.67852700  1
  Mg  Mg20  1  0.69744900  0.87349500  0.59134600  1
  Mg  Mg21  1  0.00000000  0.52477100  0.62916500  1
  Mg  Mg22  1  0.30255100  0.87349500  0.59134600  1
  Mg  Mg23  1  0.50000000  0.47222000  0.56666500  1
  Mg  Mg24  1  0.50000000  0.77477100  0.74102700  1
  Mg  Mg25  1  0.69744900  0.37349500  0.71634600  1
  Mg  Mg26  1  0.30255100  0.37349500  0.71634600  1
  Mg  Mg27  1  0.50000000  0.97222000  0.69166500  1
  Zn  Zn28  1  0.50000000  0.12349500  0.27884600  1
  Zn  Zn29  1  0.00000000  0.73668200  0.25055000  1
  Zn  Zn30  1  0.00000000  0.51030900  0.25055000  1
  Zn  Zn31  1  0.77362700  0.62349500  0.27884600  1
  Zn  Zn32  1  0.00000000  0.73668200  0.30714300  1
  Zn  Zn33  1  0.22637300  0.62349500  0.27884600  1
  Zn  Zn34  1  0.00000000  0.51030900  0.30714300  1
  Zn  Zn35  1  1.00000000  0.45230500  0.19664400  1
  Zn  Zn36  1  0.50000000  0.54468600  0.25914400  1
  Zn  Zn37  1  0.84238000  0.87349500  0.21634600  1
  Zn  Zn38  1  0.50000000  0.70230500  0.29854900  1
  Zn  Zn39  1  0.15762000  0.87349500  0.21634600  1
  Zn  Zn40  1  0.00000000  0.29468600  0.23604900  1
  Zn  Zn41  1  0.78094500  0.62349500  0.22408200  1
  Zn  Zn42  1  0.78094500  0.12349500  0.20861000  1
  Zn  Zn43  1  0.21905500  0.84255100  0.27884600  1
  Zn  Zn44  1  0.21905500  0.40444000  0.27884600  1
  Zn  Zn45  1  0.21905500  0.12349500  0.20861000  1
  Zn  Zn46  1  0.21905500  0.62349500  0.22408200  1
  Zn  Zn47  1  0.78094500  0.40444000  0.27884600  1
  Zn  Zn48  1  0.78094500  0.84255100  0.27884600  1
  Zn  Zn49  1  0.65815800  0.75730000  0.18729700  1
  Zn  Zn50  1  0.76760900  0.04441700  0.29861600  1
  Zn  Zn51  1  0.50000000  0.56877000  0.20706700  1
  Zn  Zn52  1  0.50000000  0.17822100  0.22562500  1
  Zn  Zn53  1  0.23239100  0.04441700  0.29861600  1
  Zn  Zn54  1  0.50000000  0.33637900  0.26516500  1
  Zn  Zn55  1  0.76760900  0.20257400  0.25907600  1
  Zn  Zn56  1  0.23239100  0.20257400  0.25907600  1
  Zn  Zn57  1  0.50000000  0.91061200  0.29252800  1
  Zn  Zn58  1  0.34184200  0.98969100  0.24539500  1
  Zn  Zn59  1  0.34184200  0.75730000  0.18729700  1
  Zn  Zn60  1  0.65815800  0.98969100  0.24539500  1
  Zn  Zn61  1  0.50000000  0.62349500  0.40384600  1
  Zn  Zn62  1  0.00000000  0.23668200  0.37555000  1
  Zn  Zn63  1  0.00000000  0.01030900  0.37555000  1
  Zn  Zn64  1  0.77362700  0.12349500  0.40384600  1
  Zn  Zn65  1  0.00000000  0.23668200  0.43214300  1
  Zn  Zn66  1  0.22637300  0.12349500  0.40384600  1
  Zn  Zn67  1  0.00000000  0.01030900  0.43214300  1
  Zn  Zn68  1  0.00000000  0.95230500  0.32164400  1
  Zn  Zn69  1  0.50000000  0.04468600  0.38414400  1
  Zn  Zn70  1  0.84238000  0.37349500  0.34134600  1
  Zn  Zn71  1  0.50000000  0.20230500  0.42354900  1
  Zn  Zn72  1  0.15762000  0.37349500  0.34134600  1
  Zn  Zn73  1  0.00000000  0.79468600  0.36104900  1
  Zn  Zn74  1  0.78094500  0.12349500  0.34908200  1
  Zn  Zn75  1  0.78094500  0.62349500  0.33361000  1
  Zn  Zn76  1  0.21905500  0.34255100  0.40384600  1
  Zn  Zn77  1  0.21905500  0.90444000  0.40384600  1
  Zn  Zn78  1  0.21905500  0.62349500  0.33361000  1
  Zn  Zn79  1  0.21905500  0.12349500  0.34908200  1
  Zn  Zn80  1  0.78094500  0.90444000  0.40384600  1
  Zn  Zn81  1  0.78094500  0.34255100  0.40384600  1
  Zn  Zn82  1  0.65815800  0.25730000  0.31229700  1
  Zn  Zn83  1  0.76760900  0.54441700  0.42361600  1
  Zn  Zn84  1  0.50000000  0.06877000  0.33206700  1
  Zn  Zn85  1  0.50000000  0.67822100  0.35062500  1
  Zn  Zn86  1  0.23239100  0.54441700  0.42361600  1
  Zn  Zn87  1  0.50000000  0.83637900  0.39016500  1
  Zn  Zn88  1  0.76760900  0.70257400  0.38407600  1
  Zn  Zn89  1  0.23239100  0.70257400  0.38407600  1
  Zn  Zn90  1  0.50000000  0.41061200  0.41752800  1
  Zn  Zn91  1  0.34184200  0.48969100  0.37039500  1
  Zn  Zn92  1  0.34184200  0.25730000  0.31229700  1
  Zn  Zn93  1  0.65815800  0.48969100  0.37039500  1
  Zn  Zn94  1  0.50000000  0.12349500  0.52884600  1
  Zn  Zn95  1  0.00000000  0.73668200  0.50055000  1
  Zn  Zn96  1  0.00000000  0.51030900  0.50055000  1
  Zn  Zn97  1  0.77362700  0.62349500  0.52884600  1
  Zn  Zn98  1  0.00000000  0.73668200  0.55714300  1
  Zn  Zn99  1  0.22637300  0.62349500  0.52884600  1
  Zn  Zn100  1  0.00000000  0.51030900  0.55714300  1
  Zn  Zn101  1  0.00000000  0.45230500  0.44664400  1
  Zn  Zn102  1  0.50000000  0.54468600  0.50914400  1
  Zn  Zn103  1  0.84238000  0.87349500  0.46634600  1
  Zn  Zn104  1  0.50000000  0.70230500  0.54854900  1
  Zn  Zn105  1  0.15762000  0.87349500  0.46634600  1
  Zn  Zn106  1  0.00000000  0.29468600  0.48604900  1
  Zn  Zn107  1  0.78094500  0.62349500  0.47408200  1
  Zn  Zn108  1  0.78094500  0.12349500  0.45861000  1
  Zn  Zn109  1  0.21905500  0.84255100  0.52884600  1
  Zn  Zn110  1  0.21905500  0.40444000  0.52884600  1
  Zn  Zn111  1  0.21905500  0.12349500  0.45861000  1
  Zn  Zn112  1  0.21905500  0.62349500  0.47408200  1
  Zn  Zn113  1  0.78094500  0.40444000  0.52884600  1
  Zn  Zn114  1  0.78094500  0.84255100  0.52884600  1
  Zn  Zn115  1  0.65815800  0.75730000  0.43729700  1
  Zn  Zn116  1  0.76760900  0.04441700  0.54861600  1
  Zn  Zn117  1  0.50000000  0.56877000  0.45706700  1
  Zn  Zn118  1  0.50000000  0.17822100  0.47562500  1
  Zn  Zn119  1  0.23239100  0.04441700  0.54861600  1
  Zn  Zn120  1  0.50000000  0.33637900  0.51516500  1
  Zn  Zn121  1  0.76760900  0.20257400  0.50907600  1
  Zn  Zn122  1  0.23239100  0.20257400  0.50907600  1
  Zn  Zn123  1  0.50000000  0.91061200  0.54252800  1
  Zn  Zn124  1  0.34184200  0.98969100  0.49539500  1
  Zn  Zn125  1  0.34184200  0.75730000  0.43729700  1
  Zn  Zn126  1  0.65815800  0.98969100  0.49539500  1
  Zn  Zn127  1  0.50000000  0.62349500  0.65384600  1
  Zn  Zn128  1  0.00000000  0.23668200  0.62555000  1
  Zn  Zn129  1  0.00000000  0.01030900  0.62555000  1
  Zn  Zn130  1  0.77362700  0.12349500  0.65384600  1
  Zn  Zn131  1  0.00000000  0.23668200  0.68214300  1
  Zn  Zn132  1  0.22637300  0.12349500  0.65384600  1
  Zn  Zn133  1  0.00000000  0.01030900  0.68214300  1
  Zn  Zn134  1  0.00000000  0.95230500  0.57164400  1
  Zn  Zn135  1  0.50000000  0.04468600  0.63414400  1
  Zn  Zn136  1  0.84238000  0.37349500  0.59134600  1
  Zn  Zn137  1  0.50000000  0.20230500  0.67354900  1
  Zn  Zn138  1  0.15762000  0.37349500  0.59134600  1
  Zn  Zn139  1  0.00000000  0.79468600  0.61104900  1
  Zn  Zn140  1  0.78094500  0.12349500  0.59908200  1
  Zn  Zn141  1  0.78094500  0.62349500  0.58361000  1
  Zn  Zn142  1  0.21905500  0.34255100  0.65384600  1
  Zn  Zn143  1  0.21905500  0.90444000  0.65384600  1
  Zn  Zn144  1  0.21905500  0.62349500  0.58361000  1
  Zn  Zn145  1  0.21905500  0.12349500  0.59908200  1
  Zn  Zn146  1  0.78094500  0.90444000  0.65384600  1
  Zn  Zn147  1  0.78094500  0.34255100  0.65384600  1
  Zn  Zn148  1  0.65815800  0.25730000  0.56229700  1
  Zn  Zn149  1  0.76760900  0.54441700  0.67361600  1
  Zn  Zn150  1  0.50000000  0.06877000  0.58206700  1
  Zn  Zn151  1  0.50000000  0.67822100  0.60062500  1
  Zn  Zn152  1  0.23239100  0.54441700  0.67361600  1
  Zn  Zn153  1  0.50000000  0.83637900  0.64016500  1
  Zn  Zn154  1  0.76760900  0.70257400  0.63407600  1
  Zn  Zn155  1  0.23239100  0.70257400  0.63407600  1
  Zn  Zn156  1  0.50000000  0.41061200  0.66752800  1
  Zn  Zn157  1  0.34184200  0.48969100  0.62039500  1
  Zn  Zn158  1  0.34184200  0.25730000  0.56229700  1
  Zn  Zn159  1  0.65815800  0.48969100  0.62039500  1
  Zn  Zn160  1  0.00000000  0.45230500  0.69664400  1
  Zn  Zn161  1  0.84238000  0.87349500  0.71634600  1
  Zn  Zn162  1  0.15762000  0.87349500  0.71634600  1
  Zn  Zn163  1  0.00000000  0.29468600  0.73604900  1
  Zn  Zn164  1  0.78094500  0.62349500  0.72408200  1
  Zn  Zn165  1  0.78094500  0.12349500  0.70861000  1
  Zn  Zn166  1  0.21905500  0.12349500  0.70861000  1
  Zn  Zn167  1  0.21905500  0.62349500  0.72408200  1
  Zn  Zn168  1  0.65815800  0.75730000  0.68729700  1
  Zn  Zn169  1  0.50000000  0.56877000  0.70706700  1
  Zn  Zn170  1  0.50000000  0.17822100  0.72562500  1
  Zn  Zn171  1  0.34184200  0.98969100  0.74539500  1
  Zn  Zn172  1  0.34184200  0.75730000  0.68729700  1
  Zn  Zn173  1  0.65815800  0.98969100  0.74539500  1
