# generated using pymatgen
data_Tb11Mg4
_symmetry_space_group_name_H-M   'P 1'
_cell_length_a   3.54692000
_cell_length_b   9.55408700
_cell_length_c   46.10995600
_cell_angle_alpha   90.00000000
_cell_angle_beta   90.00000000
_cell_angle_gamma   90.00000000
_symmetry_Int_Tables_number   1
_chemical_formula_structural   Tb11Mg4
_chemical_formula_sum   'Tb22 Mg8'
_cell_volume   1562.55492705
_cell_formula_units_Z   2
loop_
 _symmetry_equiv_pos_site_id
 _symmetry_equiv_pos_as_xyz
  1  'x, y, z'
loop_
 _atom_site_type_symbol
 _atom_site_label
 _atom_site_symmetry_multiplicity
 _atom_site_fract_x
 _atom_site_fract_y
 _atom_site_fract_z
 _atom_site_occupancy
  Tb  Tb0  1  1.00000000  0.50000000  0.25000000  1
  Tb  Tb1  1  0.50000000  0.76301000  0.28846200  1
  Tb  Tb2  1  1.00000000  0.50000000  0.32692300  1
  Tb  Tb3  1  0.50000000  0.23699000  0.28846200  1
  Tb  Tb4  1  0.50000000  0.76301000  0.36538500  1
  Tb  Tb5  1  1.00000000  0.50000000  0.40384600  1
  Tb  Tb6  1  0.50000000  0.23699000  0.36538500  1
  Tb  Tb7  1  0.50000000  0.76301000  0.44230800  1
  Tb  Tb8  1  1.00000000  0.50000000  0.48076900  1
  Tb  Tb9  1  0.50000000  0.23699000  0.44230800  1
  Tb  Tb10  1  0.50000000  0.76301000  0.51923100  1
  Tb  Tb11  1  1.00000000  0.50000000  0.55769200  1
  Tb  Tb12  1  0.50000000  0.23699000  0.51923100  1
  Tb  Tb13  1  0.50000000  0.76301000  0.59615400  1
  Tb  Tb14  1  1.00000000  0.50000000  0.63461500  1
  Tb  Tb15  1  0.50000000  0.23699000  0.59615400  1
  Tb  Tb16  1  0.50000000  0.76301000  0.67307700  1
  Tb  Tb17  1  1.00000000  0.50000000  0.71153800  1
  Tb  Tb18  1  0.50000000  0.23699000  0.67307700  1
  Tb  Tb19  1  0.50000000  0.76301000  0.75000000  1
  Tb  Tb20  1  1.00000000  0.50000000  0.78846200  1
  Tb  Tb21  1  0.50000000  0.23699000  0.75000000  1
  Mg  Mg22  1  0.00000000  0.00000000  0.25000000  1
  Mg  Mg23  1  0.00000000  0.00000000  0.32692300  1
  Mg  Mg24  1  0.00000000  0.00000000  0.40384600  1
  Mg  Mg25  1  1.00000000  0.00000000  0.48076900  1
  Mg  Mg26  1  1.00000000  0.00000000  0.55769200  1
  Mg  Mg27  1  0.00000000  0.00000000  0.63461500  1
  Mg  Mg28  1  1.00000000  0.00000000  0.71153800  1
  Mg  Mg29  1  0.00000000  0.00000000  0.78846200  1
