# generated using pymatgen
data_Ac2Mg
_symmetry_space_group_name_H-M   'P 1'
_cell_length_a   7.30057682
_cell_length_b   9.27560862
_cell_length_c   44.65306700
_cell_angle_alpha   91.40578145
_cell_angle_beta   94.10296960
_cell_angle_gamma   97.12333147
_symmetry_Int_Tables_number   1
_chemical_formula_structural   Ac2Mg
_chemical_formula_sum   'Ac32 Mg16'
_cell_volume   2991.05076477
_cell_formula_units_Z   16
loop_
 _symmetry_equiv_pos_site_id
 _symmetry_equiv_pos_as_xyz
  1  'x, y, z'
loop_
 _atom_site_type_symbol
 _atom_site_label
 _atom_site_symmetry_multiplicity
 _atom_site_fract_x
 _atom_site_fract_y
 _atom_site_fract_z
 _atom_site_occupancy
  Ac  Ac0  1  0.06046300  0.52130500  0.79031700  1
  Ac  Ac1  1  0.32415200  0.24792500  0.74814500  1
  Ac  Ac2  1  0.94537500  0.90662300  0.75175500  1
  Ac  Ac3  1  0.43924000  0.86260800  0.78670600  1
  Ac  Ac4  1  0.82969400  0.29053600  0.71339400  1
  Ac  Ac5  1  0.09338300  0.01715600  0.67122200  1
  Ac  Ac6  1  0.71460600  0.67585300  0.67483200  1
  Ac  Ac7  1  0.20847100  0.63183900  0.70978300  1
  Ac  Ac8  1  0.59892400  0.05976700  0.63647100  1
  Ac  Ac9  1  0.86261400  0.78638700  0.59429800  1
  Ac  Ac10  1  0.48383700  0.44508400  0.59790900  1
  Ac  Ac11  1  0.97770200  0.40107000  0.63286000  1
  Ac  Ac12  1  0.36815500  0.82899800  0.55954800  1
  Ac  Ac13  1  0.63184500  0.55561800  0.51737500  1
  Ac  Ac14  1  0.25306700  0.21431500  0.52098600  1
  Ac  Ac15  1  0.74693300  0.17030000  0.55593700  1
  Ac  Ac16  1  0.13738600  0.59822900  0.48262500  1
  Ac  Ac17  1  0.40107600  0.32484800  0.44045200  1
  Ac  Ac18  1  0.02229800  0.98354600  0.44406300  1
  Ac  Ac19  1  0.51616300  0.93953100  0.47901400  1
  Ac  Ac20  1  0.90661700  0.36745900  0.40570200  1
  Ac  Ac21  1  0.17030600  0.09407900  0.36352900  1
  Ac  Ac22  1  0.79152900  0.75277600  0.36714000  1
  Ac  Ac23  1  0.28539400  0.70876200  0.40209100  1
  Ac  Ac24  1  0.67584800  0.13669000  0.32877800  1
  Ac  Ac25  1  0.93953700  0.86331000  0.28660600  1
  Ac  Ac26  1  0.56076000  0.52200700  0.29021700  1
  Ac  Ac27  1  0.05462500  0.47799300  0.32516800  1
  Ac  Ac28  1  0.44507800  0.90592100  0.25185500  1
  Ac  Ac29  1  0.70876800  0.63254100  0.20968300  1
  Ac  Ac30  1  0.32999100  0.29123800  0.21329400  1
  Ac  Ac31  1  0.82385600  0.24722400  0.24824500  1
  Mg  Mg32  1  0.63516500  0.57697900  0.74996100  1
  Mg  Mg33  1  0.74945000  0.19225100  0.78850100  1
  Mg  Mg34  1  0.40439600  0.34621000  0.67303800  1
  Mg  Mg35  1  0.51868100  0.96148200  0.71157700  1
  Mg  Mg36  1  0.17362700  0.11544100  0.59611500  1
  Mg  Mg37  1  0.28791100  0.73071300  0.63465400  1
  Mg  Mg38  1  0.94285800  0.88467200  0.51919200  1
  Mg  Mg39  1  0.05714200  0.49994400  0.55773100  1
  Mg  Mg40  1  0.71208900  0.65390200  0.44226900  1
  Mg  Mg41  1  0.82637300  0.26917500  0.48080800  1
  Mg  Mg42  1  0.48131900  0.42313300  0.36534600  1
  Mg  Mg43  1  0.59560400  0.03840500  0.40388500  1
  Mg  Mg44  1  0.25055000  0.19236400  0.28842300  1
  Mg  Mg45  1  0.36483500  0.80763600  0.32696200  1
  Mg  Mg46  1  0.01978100  0.96159500  0.21149900  1
  Mg  Mg47  1  0.13406500  0.57686700  0.25003900  1
