# generated using pymatgen
data_Tm2Mg
_symmetry_space_group_name_H-M   'P 1'
_cell_length_a   6.48584137
_cell_length_b   8.80029164
_cell_length_c   44.06083200
_cell_angle_alpha   91.14784900
_cell_angle_beta   93.09533235
_cell_angle_gamma   96.37169691
_symmetry_Int_Tables_number   1
_chemical_formula_structural   Tm2Mg
_chemical_formula_sum   'Tm36 Mg18'
_cell_volume   2494.83370718
_cell_formula_units_Z   18
loop_
 _symmetry_equiv_pos_site_id
 _symmetry_equiv_pos_as_xyz
  1  'x, y, z'
loop_
 _atom_site_type_symbol
 _atom_site_label
 _atom_site_symmetry_multiplicity
 _atom_site_fract_x
 _atom_site_fract_y
 _atom_site_fract_z
 _atom_site_occupancy
  Tm  Tm0  1  0.40975800  0.40824600  0.21006000  1
  Tm  Tm1  1  0.32335300  0.78180900  0.23166200  1
  Tm  Tm2  1  0.72357500  0.05842100  0.25660600  1
  Tm  Tm3  1  0.80998000  0.68485800  0.23500500  1
  Tm  Tm4  1  0.14309100  0.47491200  0.27672700  1
  Tm  Tm5  1  0.05668600  0.84847500  0.29832800  1
  Tm  Tm6  1  0.45690900  0.12508800  0.32327300  1
  Tm  Tm7  1  0.54331400  0.75152500  0.30167200  1
  Tm  Tm8  1  0.87642500  0.54157900  0.34339400  1
  Tm  Tm9  1  0.79002000  0.91514200  0.36499500  1
  Tm  Tm10  1  0.19024200  0.19175400  0.38994000  1
  Tm  Tm11  1  0.27664700  0.81819100  0.36833800  1
  Tm  Tm12  1  0.60975800  0.60824600  0.41006000  1
  Tm  Tm13  1  0.52335300  0.98180900  0.43166200  1
  Tm  Tm14  1  0.92357500  0.25842100  0.45660600  1
  Tm  Tm15  1  0.00998000  0.88485800  0.43500500  1
  Tm  Tm16  1  0.34309100  0.67491200  0.47672700  1
  Tm  Tm17  1  0.25668600  0.04847500  0.49832800  1
  Tm  Tm18  1  0.65690900  0.32508800  0.52327300  1
  Tm  Tm19  1  0.74331400  0.95152500  0.50167200  1
  Tm  Tm20  1  0.07642500  0.74157900  0.54339400  1
  Tm  Tm21  1  0.99002000  0.11514200  0.56499500  1
  Tm  Tm22  1  0.39024200  0.39175400  0.58994000  1
  Tm  Tm23  1  0.47664700  0.01819100  0.56833800  1
  Tm  Tm24  1  0.80975800  0.80824600  0.61006000  1
  Tm  Tm25  1  0.72335300  0.18180900  0.63166200  1
  Tm  Tm26  1  0.12357500  0.45842100  0.65660600  1
  Tm  Tm27  1  0.20998000  0.08485800  0.63500500  1
  Tm  Tm28  1  0.54309100  0.87491200  0.67672700  1
  Tm  Tm29  1  0.45668600  0.24847500  0.69832800  1
  Tm  Tm30  1  0.85690900  0.52508800  0.72327300  1
  Tm  Tm31  1  0.94331400  0.15152500  0.70167200  1
  Tm  Tm32  1  0.27642500  0.94157900  0.74339400  1
  Tm  Tm33  1  0.19002000  0.31514200  0.76499500  1
  Tm  Tm34  1  0.59024200  0.59175400  0.78994000  1
  Tm  Tm35  1  0.67664700  0.21819100  0.76833800  1
  Mg  Mg36  1  0.23338600  0.12955200  0.25415300  1
  Mg  Mg37  1  0.89994700  0.33711500  0.21251300  1
  Mg  Mg38  1  0.96672000  0.19621900  0.32082000  1
  Mg  Mg39  1  0.63328000  0.40378100  0.27918000  1
  Mg  Mg40  1  0.70005300  0.26288500  0.38748700  1
  Mg  Mg41  1  0.36661400  0.47044800  0.34584700  1
  Mg  Mg42  1  0.43338600  0.32955200  0.45415300  1
  Mg  Mg43  1  0.09994700  0.53711500  0.41251300  1
  Mg  Mg44  1  0.16672000  0.39621900  0.52082000  1
  Mg  Mg45  1  0.83328000  0.60378100  0.47918000  1
  Mg  Mg46  1  0.90005300  0.46288500  0.58748700  1
  Mg  Mg47  1  0.56661400  0.67044800  0.54584700  1
  Mg  Mg48  1  0.63338600  0.52955200  0.65415300  1
  Mg  Mg49  1  0.29994700  0.73711500  0.61251300  1
  Mg  Mg50  1  0.36672000  0.59621900  0.72082000  1
  Mg  Mg51  1  0.03328000  0.80378100  0.67918000  1
  Mg  Mg52  1  0.10005300  0.66288500  0.78748700  1
  Mg  Mg53  1  0.76661400  0.87044800  0.74584700  1
