# generated using pymatgen
data_Mg2Pb
_symmetry_space_group_name_H-M   'P 1'
_cell_length_a   4.89412151
_cell_length_b   4.89412146
_cell_length_c   44.04708900
_cell_angle_alpha   86.81525721
_cell_angle_beta   86.81525724
_cell_angle_gamma   60.00000157
_symmetry_Int_Tables_number   1
_chemical_formula_structural   Mg2Pb
_chemical_formula_sum   'Mg14 Pb7'
_cell_volume   911.80482481
_cell_formula_units_Z   7
loop_
 _symmetry_equiv_pos_site_id
 _symmetry_equiv_pos_as_xyz
  1  'x, y, z'
loop_
 _atom_site_type_symbol
 _atom_site_label
 _atom_site_symmetry_multiplicity
 _atom_site_fract_x
 _atom_site_fract_y
 _atom_site_fract_z
 _atom_site_occupancy
  Mg  Mg0  1  0.20454500  0.20454500  0.75000000  1
  Mg  Mg1  1  0.52272700  0.52272700  0.79545500  1
  Mg  Mg2  1  0.56818200  0.56818200  0.65909100  1
  Mg  Mg3  1  0.88636400  0.88636400  0.70454500  1
  Mg  Mg4  1  0.93181800  0.93181800  0.56818200  1
  Mg  Mg5  1  0.25000000  0.25000000  0.61363600  1
  Mg  Mg6  1  0.29545500  0.29545500  0.47727300  1
  Mg  Mg7  1  0.61363600  0.61363600  0.52272700  1
  Mg  Mg8  1  0.65909100  0.65909100  0.38636400  1
  Mg  Mg9  1  0.97727300  0.97727300  0.43181800  1
  Mg  Mg10  1  0.02272700  0.02272700  0.29545500  1
  Mg  Mg11  1  0.34090900  0.34090900  0.34090900  1
  Mg  Mg12  1  0.38636400  0.38636400  0.20454500  1
  Mg  Mg13  1  0.70454500  0.70454500  0.25000000  1
  Pb  Pb14  1  0.86363600  0.86363600  0.77272700  1
  Pb  Pb15  1  0.22727300  0.22727300  0.68181800  1
  Pb  Pb16  1  0.59090900  0.59090900  0.59090900  1
  Pb  Pb17  1  0.95454500  0.95454500  0.50000000  1
  Pb  Pb18  1  0.31818200  0.31818200  0.40909100  1
  Pb  Pb19  1  0.68181800  0.68181800  0.31818200  1
  Pb  Pb20  1  0.04545500  0.04545500  0.22727300  1
