# generated using pymatgen
data_Mg13Zn19
_symmetry_space_group_name_H-M   'P 1'
_cell_length_a   5.07402229
_cell_length_b   14.70723601
_cell_length_c   50.49845100
_cell_angle_alpha   88.21601723
_cell_angle_beta   89.67566990
_cell_angle_gamma   90.29193359
_symmetry_Int_Tables_number   1
_chemical_formula_structural   Mg13Zn19
_chemical_formula_sum   'Mg26 Zn38'
_cell_volume   3766.49971225
_cell_formula_units_Z   2
loop_
 _symmetry_equiv_pos_site_id
 _symmetry_equiv_pos_as_xyz
  1  'x, y, z'
loop_
 _atom_site_type_symbol
 _atom_site_label
 _atom_site_symmetry_multiplicity
 _atom_site_fract_x
 _atom_site_fract_y
 _atom_site_fract_z
 _atom_site_occupancy
  Mg  Mg0  1  0.04225500  0.07705400  0.46223700  1
  Mg  Mg1  1  0.54708400  0.16334500  0.48721600  1
  Mg  Mg2  1  0.54559700  0.38299500  0.47187500  1
  Mg  Mg3  1  0.04493900  0.87166100  0.47614300  1
  Mg  Mg4  1  0.05042600  0.46928700  0.49685400  1
  Mg  Mg5  1  0.04774100  0.67468000  0.48294800  1
  Mg  Mg6  1  0.04504200  0.81060100  0.54229400  1
  Mg  Mg7  1  0.54225500  0.82705400  0.71223700  1
  Mg  Mg8  1  0.55088000  0.32329800  0.57710100  1
  Mg  Mg9  1  0.54843200  0.78772000  0.50857700  1
  Mg  Mg10  1  0.04708400  0.91334500  0.73721600  1
  Mg  Mg11  1  0.04894600  0.63805500  0.58660800  1
  Mg  Mg12  1  0.54470600  0.12626000  0.54991200  1
  Mg  Mg13  1  0.04424800  0.50862000  0.70051400  1
  Mg  Mg14  1  0.04552000  0.00782700  0.56870500  1
  Mg  Mg15  1  0.04559700  0.13299500  0.72187500  1
  Mg  Mg16  1  0.04180000  0.97304300  0.63199000  1
  Mg  Mg17  1  0.54716000  0.28851400  0.64038600  1
  Mg  Mg18  1  0.54493900  0.62166100  0.72614300  1
  Mg  Mg19  1  0.04603700  0.44239800  0.55914600  1
  Mg  Mg20  1  0.54664300  0.85394200  0.64994500  1
  Mg  Mg21  1  0.04797500  0.17008100  0.65917900  1
  Mg  Mg22  1  0.54763900  0.48573900  0.66679700  1
  Mg  Mg23  1  0.54373500  0.65828600  0.62248300  1
  Mg  Mg24  1  0.55042600  0.21928700  0.74685400  1
  Mg  Mg25  1  0.54774100  0.42468000  0.73294800  1
  Zn  Zn26  1  0.54561100  0.96472200  0.47060600  1
  Zn  Zn27  1  0.54707000  0.58161800  0.48848500  1
  Zn  Zn28  1  0.04634000  0.27317000  0.47954500  1
  Zn  Zn29  1  0.04223900  0.14318200  0.51724400  1
  Zn  Zn30  1  0.04561100  0.71472200  0.72060600  1
  Zn  Zn31  1  0.54985300  0.98871500  0.60114800  1
  Zn  Zn32  1  0.79573300  0.31104200  0.69336300  1
  Zn  Zn33  1  0.29149700  0.99104700  0.68490400  1
  Zn  Zn34  1  0.29338800  0.98754200  0.51470500  1
  Zn  Zn35  1  0.29634000  0.14817000  0.60454500  1
  Zn  Zn36  1  0.55044200  0.15315900  0.69184700  1
  Zn  Zn37  1  0.04714700  0.75400600  0.63580400  1
  Zn  Zn38  1  0.79477300  0.30531200  0.52428100  1
  Zn  Zn39  1  0.29293200  0.83141200  0.59682700  1
  Zn  Zn40  1  0.54546500  0.72467700  0.56484200  1
  Zn  Zn41  1  0.04675600  0.22250700  0.56381000  1
  Zn  Zn42  1  0.55184900  0.45775200  0.52734100  1
  Zn  Zn43  1  0.04707000  0.33161800  0.73848500  1
  Zn  Zn44  1  0.54553400  0.54233400  0.57328700  1
  Zn  Zn45  1  0.80549300  0.62058700  0.53247100  1
  Zn  Zn46  1  0.79790800  0.99102800  0.68481000  1
  Zn  Zn47  1  0.29929300  0.30879900  0.69438600  1
  Zn  Zn48  1  0.54592500  0.07383400  0.64528100  1
  Zn  Zn49  1  0.78718800  0.67575300  0.67662000  1
  Zn  Zn50  1  0.30118300  0.30529300  0.52418700  1
  Zn  Zn51  1  0.79634000  0.14817000  0.60454500  1
  Zn  Zn52  1  0.54079000  0.91291400  0.55526400  1
  Zn  Zn53  1  0.79699400  0.83051000  0.59720300  1
  Zn  Zn54  1  0.29209400  0.62306600  0.53181100  1
  Zn  Zn55  1  0.05189100  0.38342700  0.65382700  1
  Zn  Zn56  1  0.30058700  0.67327400  0.67728000  1
  Zn  Zn57  1  0.04083200  0.83858800  0.68175000  1
  Zn  Zn58  1  0.79568600  0.46583000  0.61188800  1
  Zn  Zn59  1  0.79694800  0.98529800  0.51572800  1
  Zn  Zn60  1  0.54634000  0.02317000  0.72954500  1
  Zn  Zn61  1  0.29974900  0.46492800  0.61226400  1
  Zn  Zn62  1  0.04721500  0.57166300  0.64424900  1
  Zn  Zn63  1  0.04282800  0.30762500  0.60794300  1
