# generated using pymatgen
data_Mg2Zn11
_symmetry_space_group_name_H-M   'P 1'
_cell_length_a   12.10891185
_cell_length_b   12.10891214
_cell_length_c   49.92632400
_cell_angle_alpha   90.00000000
_cell_angle_beta   83.03472392
_cell_angle_gamma   60.00000117
_symmetry_Int_Tables_number   1
_chemical_formula_structural   Mg2Zn11
_chemical_formula_sum   'Mg36 Zn198'
_cell_volume   6277.26392985
_cell_formula_units_Z   18
loop_
 _symmetry_equiv_pos_site_id
 _symmetry_equiv_pos_as_xyz
  1  'x, y, z'
loop_
 _atom_site_type_symbol
 _atom_site_label
 _atom_site_symmetry_multiplicity
 _atom_site_fract_x
 _atom_site_fract_y
 _atom_site_fract_z
 _atom_site_occupancy
  Mg  Mg0  1  0.67898000  0.25923500  0.28025500  1
  Mg  Mg1  1  0.98153100  0.75923500  0.28025500  1
  Mg  Mg2  1  0.17898000  0.06178600  0.28025500  1
  Mg  Mg3  1  0.61846900  0.94076500  0.21974500  1
  Mg  Mg4  1  0.42102000  0.63821400  0.21974500  1
  Mg  Mg5  1  0.92102000  0.44076500  0.21974500  1
  Mg  Mg6  1  0.27898000  0.95923500  0.38025500  1
  Mg  Mg7  1  0.58153100  0.45923500  0.38025500  1
  Mg  Mg8  1  0.77898000  0.76178600  0.38025500  1
  Mg  Mg9  1  0.21846900  0.64076500  0.31974500  1
  Mg  Mg10  1  0.02102000  0.33821400  0.31974500  1
  Mg  Mg11  1  0.52102000  0.14076500  0.31974500  1
  Mg  Mg12  1  0.87898000  0.65923500  0.48025500  1
  Mg  Mg13  1  0.18153100  0.15923500  0.48025500  1
  Mg  Mg14  1  0.37898000  0.46178600  0.48025500  1
  Mg  Mg15  1  0.81846900  0.34076500  0.41974500  1
  Mg  Mg16  1  0.62102000  0.03821400  0.41974500  1
  Mg  Mg17  1  0.12102000  0.84076500  0.41974500  1
  Mg  Mg18  1  0.47898000  0.35923500  0.58025500  1
  Mg  Mg19  1  0.78153100  0.85923500  0.58025500  1
  Mg  Mg20  1  0.97898000  0.16178600  0.58025500  1
  Mg  Mg21  1  0.41846900  0.04076500  0.51974500  1
  Mg  Mg22  1  0.22102000  0.73821400  0.51974500  1
  Mg  Mg23  1  0.72102000  0.54076500  0.51974500  1
  Mg  Mg24  1  0.07898000  0.05923500  0.68025500  1
  Mg  Mg25  1  0.38153100  0.55923500  0.68025500  1
  Mg  Mg26  1  0.57898000  0.86178600  0.68025500  1
  Mg  Mg27  1  0.01846900  0.74076500  0.61974500  1
  Mg  Mg28  1  0.82102000  0.43821400  0.61974500  1
  Mg  Mg29  1  0.32102000  0.24076500  0.61974500  1
  Mg  Mg30  1  0.67898000  0.75923500  0.78025500  1
  Mg  Mg31  1  0.98153100  0.25923500  0.78025500  1
  Mg  Mg32  1  0.17898000  0.56178600  0.78025500  1
  Mg  Mg33  1  0.61846900  0.44076500  0.71974500  1
  Mg  Mg34  1  0.42102000  0.13821400  0.71974500  1
  Mg  Mg35  1  0.92102000  0.94076500  0.71974500  1
  Zn  Zn36  1  0.30000000  0.35000000  0.25000000  1
  Zn  Zn37  1  0.90945100  0.93208800  0.22263700  1
  Zn  Zn38  1  0.13582400  0.93208800  0.22263700  1
  Zn  Zn39  1  0.90945100  0.15846100  0.22263700  1
  Zn  Zn40  1  0.46417600  0.76791200  0.27736300  1
  Zn  Zn41  1  0.69054900  0.54153900  0.27736300  1
  Zn  Zn42  1  0.69054900  0.76791200  0.27736300  1
  Zn  Zn43  1  0.23695200  0.80271400  0.26576200  1
  Zn  Zn44  1  0.89457200  0.30271400  0.26576200  1
  Zn  Zn45  1  0.73695200  0.96033400  0.26576200  1
  Zn  Zn46  1  0.70542800  0.39728600  0.23423800  1
  Zn  Zn47  1  0.86304800  0.73966600  0.23423800  1
  Zn  Zn48  1  0.36304800  0.89728600  0.23423800  1
  Zn  Zn49  1  0.95618900  0.02190600  0.26571700  1
  Zn  Zn50  1  0.46856700  0.98477200  0.27809400  1
  Zn  Zn51  1  0.46856700  0.54666100  0.27809400  1
  Zn  Zn52  1  0.90667800  0.54666100  0.27809400  1
  Zn  Zn53  1  0.64381100  0.67809400  0.23428300  1
  Zn  Zn54  1  0.13143300  0.71522800  0.22190600  1
  Zn  Zn55  1  0.13143300  0.15333900  0.22190600  1
  Zn  Zn56  1  0.69332200  0.15333900  0.22190600  1
  Zn  Zn57  1  0.20269800  0.31957200  0.20742300  1
  Zn  Zn58  1  0.47030700  0.21012100  0.20742300  1
  Zn  Zn59  1  0.31214900  0.47773000  0.20742300  1
  Zn  Zn60  1  0.28785100  0.22227000  0.29257700  1
  Zn  Zn61  1  0.25622000  0.58477400  0.26094500  1
  Zn  Zn62  1  0.09806200  0.31716500  0.26094500  1
  Zn  Zn63  1  0.34378000  0.11522600  0.23905500  1
  Zn  Zn64  1  0.12969300  0.48987900  0.29257700  1
  Zn  Zn65  1  0.50193800  0.38283500  0.23905500  1
  Zn  Zn66  1  0.39730200  0.38042800  0.29257700  1
  Zn  Zn67  1  0.07617200  0.54099300  0.23905500  1
  Zn  Zn68  1  0.52382800  0.15900700  0.26094500  1
  Zn  Zn69  1  0.90000000  0.05000000  0.35000000  1
  Zn  Zn70  1  0.50945100  0.63208800  0.32263700  1
  Zn  Zn71  1  0.73582400  0.63208800  0.32263700  1
  Zn  Zn72  1  0.50945100  0.85846100  0.32263700  1
  Zn  Zn73  1  0.06417600  0.46791200  0.37736300  1
  Zn  Zn74  1  0.29054900  0.24153900  0.37736300  1
  Zn  Zn75  1  0.29054900  0.46791200  0.37736300  1
  Zn  Zn76  1  0.83695200  0.50271400  0.36576200  1
  Zn  Zn77  1  0.49457200  0.00271400  0.36576200  1
  Zn  Zn78  1  0.33695200  0.66033400  0.36576200  1
  Zn  Zn79  1  0.30542800  0.09728600  0.33423800  1
  Zn  Zn80  1  0.46304800  0.43966600  0.33423800  1
  Zn  Zn81  1  0.96304800  0.59728600  0.33423800  1
  Zn  Zn82  1  0.55618900  0.72190600  0.36571700  1
  Zn  Zn83  1  0.06856700  0.68477200  0.37809400  1
  Zn  Zn84  1  0.06856700  0.24666100  0.37809400  1
  Zn  Zn85  1  0.50667800  0.24666100  0.37809400  1
  Zn  Zn86  1  0.24381100  0.37809400  0.33428300  1
  Zn  Zn87  1  0.73143300  0.41522800  0.32190600  1
  Zn  Zn88  1  0.73143300  0.85333900  0.32190600  1
  Zn  Zn89  1  0.29332200  0.85333900  0.32190600  1
  Zn  Zn90  1  0.80269800  0.01957200  0.30742300  1
  Zn  Zn91  1  0.07030700  0.91012100  0.30742300  1
  Zn  Zn92  1  0.91214900  0.17773000  0.30742300  1
  Zn  Zn93  1  0.88785100  0.92227000  0.39257700  1
  Zn  Zn94  1  0.85622000  0.28477400  0.36094500  1
  Zn  Zn95  1  0.69806200  0.01716500  0.36094500  1
  Zn  Zn96  1  0.94378000  0.81522600  0.33905500  1
  Zn  Zn97  1  0.72969300  0.18987900  0.39257700  1
  Zn  Zn98  1  0.10193800  0.08283500  0.33905500  1
  Zn  Zn99  1  0.99730200  0.08042800  0.39257700  1
  Zn  Zn100  1  0.67617200  0.24099300  0.33905500  1
  Zn  Zn101  1  0.12382800  0.85900700  0.36094500  1
  Zn  Zn102  1  0.50000000  0.75000000  0.45000000  1
  Zn  Zn103  1  0.10945100  0.33208800  0.42263700  1
  Zn  Zn104  1  0.33582400  0.33208800  0.42263700  1
  Zn  Zn105  1  0.10945100  0.55846100  0.42263700  1
  Zn  Zn106  1  0.66417600  0.16791200  0.47736300  1
  Zn  Zn107  1  0.89054900  0.94153900  0.47736300  1
  Zn  Zn108  1  0.89054900  0.16791200  0.47736300  1
  Zn  Zn109  1  0.43695200  0.20271400  0.46576200  1
  Zn  Zn110  1  0.09457200  0.70271400  0.46576200  1
  Zn  Zn111  1  0.93695200  0.36033400  0.46576200  1
  Zn  Zn112  1  0.90542800  0.79728600  0.43423800  1
  Zn  Zn113  1  0.06304800  0.13966600  0.43423800  1
  Zn  Zn114  1  0.56304800  0.29728600  0.43423800  1
  Zn  Zn115  1  0.15618900  0.42190600  0.46571700  1
  Zn  Zn116  1  0.66856700  0.38477200  0.47809400  1
  Zn  Zn117  1  0.66856700  0.94666100  0.47809400  1
  Zn  Zn118  1  0.10667800  0.94666100  0.47809400  1
  Zn  Zn119  1  0.84381100  0.07809400  0.43428300  1
  Zn  Zn120  1  0.33143300  0.11522800  0.42190600  1
  Zn  Zn121  1  0.33143300  0.55333900  0.42190600  1
  Zn  Zn122  1  0.89332200  0.55333900  0.42190600  1
  Zn  Zn123  1  0.40269800  0.71957200  0.40742300  1
  Zn  Zn124  1  0.67030700  0.61012100  0.40742300  1
  Zn  Zn125  1  0.51214900  0.87773000  0.40742300  1
  Zn  Zn126  1  0.48785100  0.62227000  0.49257700  1
  Zn  Zn127  1  0.45622000  0.98477400  0.46094500  1
  Zn  Zn128  1  0.29806200  0.71716500  0.46094500  1
  Zn  Zn129  1  0.54378000  0.51522600  0.43905500  1
  Zn  Zn130  1  0.32969300  0.88987900  0.49257700  1
  Zn  Zn131  1  0.70193800  0.78283500  0.43905500  1
  Zn  Zn132  1  0.59730200  0.78042800  0.49257700  1
  Zn  Zn133  1  0.27617200  0.94099300  0.43905500  1
  Zn  Zn134  1  0.72382800  0.55900700  0.46094500  1
  Zn  Zn135  1  0.10000000  0.45000000  0.55000000  1
  Zn  Zn136  1  0.70945100  0.03208800  0.52263700  1
  Zn  Zn137  1  0.93582400  0.03208800  0.52263700  1
  Zn  Zn138  1  0.70945100  0.25846100  0.52263700  1
  Zn  Zn139  1  0.26417600  0.86791200  0.57736300  1
  Zn  Zn140  1  0.49054900  0.64153900  0.57736300  1
  Zn  Zn141  1  0.49054900  0.86791200  0.57736300  1
  Zn  Zn142  1  0.03695200  0.90271400  0.56576200  1
  Zn  Zn143  1  0.69457200  0.40271400  0.56576200  1
  Zn  Zn144  1  0.53695200  0.06033400  0.56576200  1
  Zn  Zn145  1  0.50542800  0.49728600  0.53423800  1
  Zn  Zn146  1  0.66304800  0.83966600  0.53423800  1
  Zn  Zn147  1  0.16304800  0.99728600  0.53423800  1
  Zn  Zn148  1  0.75618900  0.12190600  0.56571700  1
  Zn  Zn149  1  0.26856700  0.08477200  0.57809400  1
  Zn  Zn150  1  0.26856700  0.64666100  0.57809400  1
  Zn  Zn151  1  0.70667800  0.64666100  0.57809400  1
  Zn  Zn152  1  0.44381100  0.77809400  0.53428300  1
  Zn  Zn153  1  0.93143300  0.81522800  0.52190600  1
  Zn  Zn154  1  0.93143300  0.25333900  0.52190600  1
  Zn  Zn155  1  0.49332200  0.25333900  0.52190600  1
  Zn  Zn156  1  0.00269800  0.41957200  0.50742300  1
  Zn  Zn157  1  0.27030700  0.31012100  0.50742300  1
  Zn  Zn158  1  0.11214900  0.57773000  0.50742300  1
  Zn  Zn159  1  0.08785100  0.32227000  0.59257700  1
  Zn  Zn160  1  0.05622000  0.68477400  0.56094500  1
  Zn  Zn161  1  0.89806200  0.41716500  0.56094500  1
  Zn  Zn162  1  0.14378000  0.21522600  0.53905500  1
  Zn  Zn163  1  0.92969300  0.58987900  0.59257700  1
  Zn  Zn164  1  0.30193800  0.48283500  0.53905500  1
  Zn  Zn165  1  0.19730200  0.48042800  0.59257700  1
  Zn  Zn166  1  0.87617200  0.64099300  0.53905500  1
  Zn  Zn167  1  0.32382800  0.25900700  0.56094500  1
  Zn  Zn168  1  0.70000000  0.15000000  0.65000000  1
  Zn  Zn169  1  0.30945100  0.73208800  0.62263700  1
  Zn  Zn170  1  0.53582400  0.73208800  0.62263700  1
  Zn  Zn171  1  0.30945100  0.95846100  0.62263700  1
  Zn  Zn172  1  0.86417600  0.56791200  0.67736300  1
  Zn  Zn173  1  0.09054900  0.34153900  0.67736300  1
  Zn  Zn174  1  0.09054900  0.56791200  0.67736300  1
  Zn  Zn175  1  0.63695200  0.60271400  0.66576200  1
  Zn  Zn176  1  0.29457200  0.10271400  0.66576200  1
  Zn  Zn177  1  0.13695200  0.76033400  0.66576200  1
  Zn  Zn178  1  0.10542800  0.19728600  0.63423800  1
  Zn  Zn179  1  0.26304800  0.53966600  0.63423800  1
  Zn  Zn180  1  0.76304800  0.69728600  0.63423800  1
  Zn  Zn181  1  0.35618900  0.82190600  0.66571700  1
  Zn  Zn182  1  0.86856700  0.78477200  0.67809400  1
  Zn  Zn183  1  0.86856700  0.34666100  0.67809400  1
  Zn  Zn184  1  0.30667800  0.34666100  0.67809400  1
  Zn  Zn185  1  0.04381100  0.47809400  0.63428300  1
  Zn  Zn186  1  0.53143300  0.51522800  0.62190600  1
  Zn  Zn187  1  0.53143300  0.95333900  0.62190600  1
  Zn  Zn188  1  0.09332200  0.95333900  0.62190600  1
  Zn  Zn189  1  0.60269800  0.11957200  0.60742300  1
  Zn  Zn190  1  0.87030700  0.01012100  0.60742300  1
  Zn  Zn191  1  0.71214900  0.27773000  0.60742300  1
  Zn  Zn192  1  0.68785100  0.02227000  0.69257700  1
  Zn  Zn193  1  0.65622000  0.38477400  0.66094500  1
  Zn  Zn194  1  0.49806200  0.11716500  0.66094500  1
  Zn  Zn195  1  0.74378000  0.91522600  0.63905500  1
  Zn  Zn196  1  0.52969300  0.28987900  0.69257700  1
  Zn  Zn197  1  0.90193800  0.18283500  0.63905500  1
  Zn  Zn198  1  0.79730200  0.18042800  0.69257700  1
  Zn  Zn199  1  0.47617200  0.34099300  0.63905500  1
  Zn  Zn200  1  0.92382800  0.95900700  0.66094500  1
  Zn  Zn201  1  0.30000000  0.85000000  0.75000000  1
  Zn  Zn202  1  0.90945100  0.43208800  0.72263700  1
  Zn  Zn203  1  0.13582400  0.43208800  0.72263700  1
  Zn  Zn204  1  0.90945100  0.65846100  0.72263700  1
  Zn  Zn205  1  0.46417600  0.26791200  0.77736300  1
  Zn  Zn206  1  0.69054900  0.04153900  0.77736300  1
  Zn  Zn207  1  0.69054900  0.26791200  0.77736300  1
  Zn  Zn208  1  0.23695200  0.30271400  0.76576200  1
  Zn  Zn209  1  0.89457200  0.80271400  0.76576200  1
  Zn  Zn210  1  0.73695200  0.46033400  0.76576200  1
  Zn  Zn211  1  0.70542800  0.89728600  0.73423800  1
  Zn  Zn212  1  0.86304800  0.23966600  0.73423800  1
  Zn  Zn213  1  0.36304800  0.39728600  0.73423800  1
  Zn  Zn214  1  0.95618900  0.52190600  0.76571700  1
  Zn  Zn215  1  0.46856700  0.48477200  0.77809400  1
  Zn  Zn216  1  0.46856700  0.04666100  0.77809400  1
  Zn  Zn217  1  0.90667800  0.04666100  0.77809400  1
  Zn  Zn218  1  0.64381100  0.17809400  0.73428300  1
  Zn  Zn219  1  0.13143300  0.21522800  0.72190600  1
  Zn  Zn220  1  0.13143300  0.65333900  0.72190600  1
  Zn  Zn221  1  0.69332200  0.65333900  0.72190600  1
  Zn  Zn222  1  0.20269800  0.81957200  0.70742300  1
  Zn  Zn223  1  0.47030700  0.71012100  0.70742300  1
  Zn  Zn224  1  0.31214900  0.97773000  0.70742300  1
  Zn  Zn225  1  0.28785100  0.72227000  0.79257700  1
  Zn  Zn226  1  0.25622000  0.08477400  0.76094500  1
  Zn  Zn227  1  0.09806200  0.81716500  0.76094500  1
  Zn  Zn228  1  0.34378000  0.61522600  0.73905500  1
  Zn  Zn229  1  0.12969300  0.98987900  0.79257700  1
  Zn  Zn230  1  0.50193800  0.88283500  0.73905500  1
  Zn  Zn231  1  0.39730200  0.88042800  0.79257700  1
  Zn  Zn232  1  0.07617200  0.04099300  0.73905500  1
  Zn  Zn233  1  0.52382800  0.65900700  0.76094500  1
