# generated using pymatgen
data_La2Mg23
_symmetry_space_group_name_H-M   'P 1'
_cell_length_a   5.93651313
_cell_length_b   7.89430397
_cell_length_c   51.29108600
_cell_angle_alpha   88.75318212
_cell_angle_beta   86.68239157
_cell_angle_gamma   67.91388134
_symmetry_Int_Tables_number   1
_chemical_formula_structural   La2Mg23
_chemical_formula_sum   'La4 Mg46'
_cell_volume   2223.61846800
_cell_formula_units_Z   2
loop_
 _symmetry_equiv_pos_site_id
 _symmetry_equiv_pos_as_xyz
  1  'x, y, z'
loop_
 _atom_site_type_symbol
 _atom_site_label
 _atom_site_symmetry_multiplicity
 _atom_site_fract_x
 _atom_site_fract_y
 _atom_site_fract_z
 _atom_site_occupancy
  La  La0  1  0.32774100  0.64122200  0.70329700  1
  La  La1  1  0.89916900  0.64122200  0.56044000  1
  La  La2  1  0.47059800  0.64122200  0.41758200  1
  La  La3  1  0.04202600  0.64122200  0.27472500  1
  Mg  Mg4  1  0.82774100  0.14122200  0.70329700  1
  Mg  Mg5  1  0.32774100  0.14122200  0.70329700  1
  Mg  Mg6  1  0.47898700  0.28831400  0.75371200  1
  Mg  Mg7  1  0.17649400  0.99413000  0.65288100  1
  Mg  Mg8  1  0.52940200  0.28831400  0.65288100  1
  Mg  Mg9  1  0.12607900  0.99413000  0.75371200  1
  Mg  Mg10  1  0.73602600  0.85522300  0.67272500  1
  Mg  Mg11  1  0.91945500  0.42722100  0.73386800  1
  Mg  Mg12  1  0.70545400  0.85522300  0.73386800  1
  Mg  Mg13  1  0.95002700  0.42722100  0.67272500  1
  Mg  Mg14  1  0.11345500  0.64122200  0.63186800  1
  Mg  Mg15  1  0.61345500  0.64122200  0.63186800  1
  Mg  Mg16  1  0.39916900  0.14122200  0.56044000  1
  Mg  Mg17  1  0.89916900  0.14122200  0.56044000  1
  Mg  Mg18  1  0.05041500  0.28831400  0.61085500  1
  Mg  Mg19  1  0.74792300  0.99413000  0.51002400  1
  Mg  Mg20  1  0.10083100  0.28831400  0.51002400  1
  Mg  Mg21  1  0.69750700  0.99413000  0.61085500  1
  Mg  Mg22  1  0.30745400  0.85522300  0.52986800  1
  Mg  Mg23  1  0.49088400  0.42722100  0.59101100  1
  Mg  Mg24  1  0.27688300  0.85522300  0.59101100  1
  Mg  Mg25  1  0.52145500  0.42722100  0.52986800  1
  Mg  Mg26  1  0.68488300  0.64122200  0.48901100  1
  Mg  Mg27  1  0.18488300  0.64122200  0.48901100  1
  Mg  Mg28  1  0.97059800  0.14122200  0.41758200  1
  Mg  Mg29  1  0.47059800  0.14122200  0.41758200  1
  Mg  Mg30  1  0.62184400  0.28831400  0.46799800  1
  Mg  Mg31  1  0.31935100  0.99413000  0.36716700  1
  Mg  Mg32  1  0.67225900  0.28831400  0.36716700  1
  Mg  Mg33  1  0.26893600  0.99413000  0.46799800  1
  Mg  Mg34  1  0.87888300  0.85522300  0.38701100  1
  Mg  Mg35  1  0.06231200  0.42722100  0.44815400  1
  Mg  Mg36  1  0.84831100  0.85522300  0.44815400  1
  Mg  Mg37  1  0.09288400  0.42722100  0.38701100  1
  Mg  Mg38  1  0.25631200  0.64122200  0.34615400  1
  Mg  Mg39  1  0.75631200  0.64122200  0.34615400  1
  Mg  Mg40  1  0.54202600  0.14122200  0.27472500  1
  Mg  Mg41  1  0.04202600  0.14122200  0.27472500  1
  Mg  Mg42  1  0.19327300  0.28831400  0.32514100  1
  Mg  Mg43  1  0.89078000  0.99413000  0.22431000  1
  Mg  Mg44  1  0.24368800  0.28831400  0.22431000  1
  Mg  Mg45  1  0.84036400  0.99413000  0.32514100  1
  Mg  Mg46  1  0.45031200  0.85522300  0.24415400  1
  Mg  Mg47  1  0.63374100  0.42722100  0.30529700  1
  Mg  Mg48  1  0.41974000  0.85522300  0.30529700  1
  Mg  Mg49  1  0.66431300  0.42722100  0.24415400  1
