# generated using pymatgen
data_Mg99Rh38
_symmetry_space_group_name_H-M   'P 1'
_cell_length_a   8.64031900
_cell_length_b   11.79877622
_cell_length_c   43.91762100
_cell_angle_alpha   86.20917344
_cell_angle_beta   90.00000000
_cell_angle_gamma   68.52142843
_symmetry_Int_Tables_number   1
_chemical_formula_structural   Mg99Rh38
_chemical_formula_sum   'Mg99 Rh38'
_cell_volume   4155.74122190
_cell_formula_units_Z   1
loop_
 _symmetry_equiv_pos_site_id
 _symmetry_equiv_pos_as_xyz
  1  'x, y, z'
loop_
 _atom_site_type_symbol
 _atom_site_label
 _atom_site_symmetry_multiplicity
 _atom_site_fract_x
 _atom_site_fract_y
 _atom_site_fract_z
 _atom_site_occupancy
  Mg  Mg0  1  0.88609100  0.22781800  0.24330400  1
  Mg  Mg1  1  0.76109100  0.47781800  0.30580400  1
  Mg  Mg2  1  0.30347400  0.39305200  0.26449500  1
  Mg  Mg3  1  0.75318300  0.87293500  0.26952400  1
  Mg  Mg4  1  0.37388200  0.87293500  0.26952400  1
  Mg  Mg5  1  0.39829900  0.58270200  0.21708300  1
  Mg  Mg6  1  0.01899900  0.58270200  0.21708300  1
  Mg  Mg7  1  0.46870700  0.06258500  0.22211200  1
  Mg  Mg8  1  0.99786900  0.00426200  0.28306400  1
  Mg  Mg9  1  0.36199300  0.84991100  0.19665100  1
  Mg  Mg10  1  0.78809600  0.84991100  0.19665100  1
  Mg  Mg11  1  0.14134300  0.29121000  0.21132700  1
  Mg  Mg12  1  0.56744700  0.29121000  0.21132700  1
  Mg  Mg13  1  0.77431200  0.45137500  0.20354300  1
  Mg  Mg14  1  0.20473500  0.16442700  0.27528000  1
  Mg  Mg15  1  0.68157000  0.63685900  0.24991400  1
  Mg  Mg16  1  0.63083800  0.16442700  0.27528000  1
  Mg  Mg17  1  0.98408500  0.60572600  0.28995600  1
  Mg  Mg18  1  0.09061100  0.81877800  0.23669300  1
  Mg  Mg19  1  0.41018900  0.60572600  0.28995600  1
  Mg  Mg20  1  0.63609100  0.72781800  0.36830400  1
  Mg  Mg21  1  0.51109100  0.97781800  0.43080400  1
  Mg  Mg22  1  0.05347400  0.89305200  0.38949500  1
  Mg  Mg23  1  0.50318300  0.37293500  0.39452400  1
  Mg  Mg24  1  0.12388200  0.37293500  0.39452400  1
  Mg  Mg25  1  0.14829900  0.08270200  0.34208300  1
  Mg  Mg26  1  0.76899900  0.08270200  0.34208300  1
  Mg  Mg27  1  0.21870700  0.56258500  0.34711200  1
  Mg  Mg28  1  0.74786900  0.50426200  0.40806400  1
  Mg  Mg29  1  0.11199300  0.34991100  0.32165100  1
  Mg  Mg30  1  0.53809600  0.34991100  0.32165100  1
  Mg  Mg31  1  0.89134300  0.79121000  0.33632700  1
  Mg  Mg32  1  0.31744700  0.79121000  0.33632700  1
  Mg  Mg33  1  0.52431200  0.95137500  0.32854300  1
  Mg  Mg34  1  0.95473500  0.66442700  0.40028000  1
  Mg  Mg35  1  0.43157000  0.13685900  0.37491400  1
  Mg  Mg36  1  0.38083800  0.66442700  0.40028000  1
  Mg  Mg37  1  0.73408500  0.10572600  0.41495600  1
  Mg  Mg38  1  0.84061100  0.31877800  0.36169300  1
  Mg  Mg39  1  0.16018900  0.10572600  0.41495600  1
  Mg  Mg40  1  0.38609100  0.22781800  0.49330400  1
  Mg  Mg41  1  0.26109100  0.47781800  0.55580400  1
  Mg  Mg42  1  0.80347400  0.39305200  0.51449500  1
  Mg  Mg43  1  0.25318300  0.87293500  0.51952400  1
  Mg  Mg44  1  0.87388200  0.87293500  0.51952400  1
  Mg  Mg45  1  0.89829900  0.58270200  0.46708300  1
  Mg  Mg46  1  0.51899900  0.58270200  0.46708300  1
  Mg  Mg47  1  0.96870700  0.06258500  0.47211200  1
  Mg  Mg48  1  0.49786900  0.00426200  0.53306400  1
  Mg  Mg49  1  0.86199300  0.84991100  0.44665100  1
  Mg  Mg50  1  0.28809600  0.84991100  0.44665100  1
  Mg  Mg51  1  0.64134300  0.29121000  0.46132700  1
  Mg  Mg52  1  0.06744700  0.29121000  0.46132700  1
  Mg  Mg53  1  0.27431200  0.45137500  0.45354300  1
  Mg  Mg54  1  0.70473500  0.16442700  0.52528000  1
  Mg  Mg55  1  0.18157000  0.63685900  0.49991400  1
  Mg  Mg56  1  0.13083800  0.16442700  0.52528000  1
  Mg  Mg57  1  0.48408500  0.60572600  0.53995600  1
  Mg  Mg58  1  0.59061100  0.81877800  0.48669300  1
  Mg  Mg59  1  0.91018900  0.60572600  0.53995600  1
  Mg  Mg60  1  0.13609100  0.72781800  0.61830400  1
  Mg  Mg61  1  0.01109100  0.97781800  0.68080400  1
  Mg  Mg62  1  0.55347400  0.89305200  0.63949500  1
  Mg  Mg63  1  0.00318300  0.37293500  0.64452400  1
  Mg  Mg64  1  0.62388200  0.37293500  0.64452400  1
  Mg  Mg65  1  0.64829900  0.08270200  0.59208300  1
  Mg  Mg66  1  0.26899900  0.08270200  0.59208300  1
  Mg  Mg67  1  0.71870700  0.56258500  0.59711200  1
  Mg  Mg68  1  0.24786900  0.50426200  0.65806400  1
  Mg  Mg69  1  0.61199300  0.34991100  0.57165100  1
  Mg  Mg70  1  0.03809600  0.34991100  0.57165100  1
  Mg  Mg71  1  0.39134300  0.79121000  0.58632700  1
  Mg  Mg72  1  0.81744700  0.79121000  0.58632700  1
  Mg  Mg73  1  0.02431200  0.95137500  0.57854300  1
  Mg  Mg74  1  0.45473500  0.66442700  0.65028000  1
  Mg  Mg75  1  0.93157000  0.13685900  0.62491400  1
  Mg  Mg76  1  0.88083800  0.66442700  0.65028000  1
  Mg  Mg77  1  0.23408500  0.10572600  0.66495600  1
  Mg  Mg78  1  0.34061100  0.31877800  0.61169300  1
  Mg  Mg79  1  0.66018900  0.10572600  0.66495600  1
  Mg  Mg80  1  0.88609100  0.22781800  0.74330400  1
  Mg  Mg81  1  0.30347400  0.39305200  0.76449500  1
  Mg  Mg82  1  0.75318300  0.87293500  0.76952400  1
  Mg  Mg83  1  0.37388200  0.87293500  0.76952400  1
  Mg  Mg84  1  0.39829900  0.58270200  0.71708300  1
  Mg  Mg85  1  0.01899900  0.58270200  0.71708300  1
  Mg  Mg86  1  0.46870700  0.06258500  0.72211200  1
  Mg  Mg87  1  0.99786900  0.00426200  0.78306400  1
  Mg  Mg88  1  0.36199300  0.84991100  0.69665100  1
  Mg  Mg89  1  0.78809600  0.84991100  0.69665100  1
  Mg  Mg90  1  0.14134300  0.29121000  0.71132700  1
  Mg  Mg91  1  0.56744700  0.29121000  0.71132700  1
  Mg  Mg92  1  0.77431200  0.45137500  0.70354300  1
  Mg  Mg93  1  0.20473500  0.16442700  0.77528000  1
  Mg  Mg94  1  0.68157000  0.63685900  0.74991400  1
  Mg  Mg95  1  0.63083800  0.16442700  0.77528000  1
  Mg  Mg96  1  0.98408500  0.60572600  0.78995600  1
  Mg  Mg97  1  0.09061100  0.81877800  0.73669300  1
  Mg  Mg98  1  0.41018900  0.60572600  0.78995600  1
  Rh  Rh99  1  0.11525700  0.76948500  0.29538700  1
  Rh  Rh100  1  0.65692400  0.68615200  0.19122000  1
  Rh  Rh101  1  0.88474300  0.23051500  0.30512900  1
  Rh  Rh102  1  0.16262200  0.04166700  0.22734200  1
  Rh  Rh103  1  0.79571100  0.04166700  0.22734200  1
  Rh  Rh104  1  0.97647000  0.41397000  0.25926600  1
  Rh  Rh105  1  0.60956000  0.41397000  0.25926600  1
  Rh  Rh106  1  0.63743900  0.72512200  0.30647800  1
  Rh  Rh107  1  0.86525700  0.26948500  0.42038700  1
  Rh  Rh108  1  0.40692400  0.18615200  0.31622000  1
  Rh  Rh109  1  0.63474300  0.73051500  0.43012900  1
  Rh  Rh110  1  0.91262200  0.54166700  0.35234200  1
  Rh  Rh111  1  0.54571100  0.54166700  0.35234200  1
  Rh  Rh112  1  0.72647000  0.91397000  0.38426600  1
  Rh  Rh113  1  0.35956000  0.91397000  0.38426600  1
  Rh  Rh114  1  0.38743900  0.22512200  0.43147800  1
  Rh  Rh115  1  0.61525700  0.76948500  0.54538700  1
  Rh  Rh116  1  0.15692400  0.68615200  0.44122000  1
  Rh  Rh117  1  0.38474300  0.23051500  0.55512900  1
  Rh  Rh118  1  0.66262200  0.04166700  0.47734200  1
  Rh  Rh119  1  0.29571100  0.04166700  0.47734200  1
  Rh  Rh120  1  0.47647000  0.41397000  0.50926600  1
  Rh  Rh121  1  0.10956000  0.41397000  0.50926600  1
  Rh  Rh122  1  0.13743900  0.72512200  0.55647800  1
  Rh  Rh123  1  0.36525700  0.26948500  0.67038700  1
  Rh  Rh124  1  0.90692400  0.18615200  0.56622000  1
  Rh  Rh125  1  0.13474300  0.73051500  0.68012900  1
  Rh  Rh126  1  0.41262200  0.54166700  0.60234200  1
  Rh  Rh127  1  0.04571100  0.54166700  0.60234200  1
  Rh  Rh128  1  0.22647000  0.91397000  0.63426600  1
  Rh  Rh129  1  0.85956000  0.91397000  0.63426600  1
  Rh  Rh130  1  0.88743900  0.22512200  0.68147800  1
  Rh  Rh131  1  0.11525700  0.76948500  0.79538700  1
  Rh  Rh132  1  0.65692400  0.68615200  0.69122000  1
  Rh  Rh133  1  0.16262200  0.04166700  0.72734200  1
  Rh  Rh134  1  0.79571100  0.04166700  0.72734200  1
  Rh  Rh135  1  0.97647000  0.41397000  0.75926600  1
  Rh  Rh136  1  0.60956000  0.41397000  0.75926600  1
