# generated using pymatgen
data_Mg16Zn27
_symmetry_space_group_name_H-M   'P 1'
_cell_length_a   5.07402229
_cell_length_b   14.70723601
_cell_length_c   50.49845100
_cell_angle_alpha   88.21601723
_cell_angle_beta   89.67566990
_cell_angle_gamma   90.29193359
_symmetry_Int_Tables_number   1
_chemical_formula_structural   Mg16Zn27
_chemical_formula_sum   'Mg32 Zn54'
_cell_volume   3766.49971225
_cell_formula_units_Z   2
loop_
 _symmetry_equiv_pos_site_id
 _symmetry_equiv_pos_as_xyz
  1  'x, y, z'
loop_
 _atom_site_type_symbol
 _atom_site_label
 _atom_site_symmetry_multiplicity
 _atom_site_fract_x
 _atom_site_fract_y
 _atom_site_fract_z
 _atom_site_occupancy
  Mg  Mg0  1  0.14478600  0.86047400  0.49229400  1
  Mg  Mg1  1  0.14199900  0.12692600  0.41223700  1
  Mg  Mg2  1  0.64817700  0.83759300  0.45857700  1
  Mg  Mg3  1  0.64682800  0.21321700  0.43721600  1
  Mg  Mg4  1  0.64445100  0.17613200  0.49991200  1
  Mg  Mg5  1  0.64399300  0.80849200  0.40051400  1
  Mg  Mg6  1  0.64534200  0.43286800  0.42187500  1
  Mg  Mg7  1  0.14468400  0.92153300  0.42614300  1
  Mg  Mg8  1  0.64771900  0.46995300  0.35917900  1
  Mg  Mg9  1  0.14738300  0.78561100  0.36679700  1
  Mg  Mg10  1  0.15017100  0.51915900  0.44685400  1
  Mg  Mg11  1  0.14748600  0.72455200  0.43294800  1
  Mg  Mg12  1  0.64478600  0.61047400  0.74229400  1
  Mg  Mg13  1  0.64199900  0.87692600  0.66223700  1
  Mg  Mg14  1  0.65062500  0.37317000  0.52710100  1
  Mg  Mg15  1  0.14817700  0.58759300  0.70857700  1
  Mg  Mg16  1  0.14682800  0.96321700  0.68721600  1
  Mg  Mg17  1  0.14869000  0.68792700  0.53660800  1
  Mg  Mg18  1  0.14445100  0.92613200  0.74991200  1
  Mg  Mg19  1  0.14399300  0.55849200  0.65051400  1
  Mg  Mg20  1  0.14526500  0.05769900  0.51870500  1
  Mg  Mg21  1  0.14534200  0.18286800  0.67187500  1
  Mg  Mg22  1  0.14154500  0.02291500  0.58199000  1
  Mg  Mg23  1  0.64690500  0.33838600  0.59038600  1
  Mg  Mg24  1  0.64468400  0.67153300  0.67614300  1
  Mg  Mg25  1  0.14578200  0.49227100  0.50914600  1
  Mg  Mg26  1  0.64638800  0.90381400  0.59994500  1
  Mg  Mg27  1  0.14771900  0.21995300  0.60917900  1
  Mg  Mg28  1  0.64738300  0.53561100  0.61679700  1
  Mg  Mg29  1  0.64347900  0.70815800  0.57248300  1
  Mg  Mg30  1  0.65017100  0.26915900  0.69685400  1
  Mg  Mg31  1  0.64748600  0.47455200  0.68294800  1
  Zn  Zn32  1  0.14198400  0.19305400  0.46724400  1
  Zn  Zn33  1  0.64535500  0.01459400  0.42060600  1
  Zn  Zn34  1  0.39547700  0.61091500  0.39336300  1
  Zn  Zn35  1  0.89124200  0.29092000  0.38490400  1
  Zn  Zn36  1  0.39313200  0.03741400  0.46470500  1
  Zn  Zn37  1  0.15018600  0.45303100  0.39184700  1
  Zn  Zn38  1  0.89451800  0.35518400  0.47428100  1
  Zn  Zn39  1  0.65159400  0.50762400  0.47734100  1
  Zn  Zn40  1  0.64681500  0.63149100  0.43848500  1
  Zn  Zn41  1  0.90523800  0.67046000  0.48247100  1
  Zn  Zn42  1  0.39765200  0.29090100  0.38481000  1
  Zn  Zn43  1  0.89903700  0.60867100  0.39438600  1
  Zn  Zn44  1  0.38693200  0.97562500  0.37662000  1
  Zn  Zn45  1  0.40092800  0.35516500  0.47418700  1
  Zn  Zn46  1  0.39183800  0.67293800  0.48181100  1
  Zn  Zn47  1  0.90033200  0.97314700  0.37728000  1
  Zn  Zn48  1  0.64057600  0.13846100  0.38175000  1
  Zn  Zn49  1  0.89669200  0.03517000  0.46572800  1
  Zn  Zn50  1  0.14608500  0.32304200  0.42954500  1
  Zn  Zn51  1  0.64198400  0.94305400  0.71724400  1
  Zn  Zn52  1  0.14535500  0.76459400  0.67060600  1
  Zn  Zn53  1  0.64959800  0.03858700  0.55114800  1
  Zn  Zn54  1  0.89547700  0.36091500  0.64336300  1
  Zn  Zn55  1  0.39124200  0.04092000  0.63490400  1
  Zn  Zn56  1  0.89313200  0.78741400  0.71470500  1
  Zn  Zn57  1  0.39608500  0.19804200  0.55454500  1
  Zn  Zn58  1  0.65018600  0.20303100  0.64184700  1
  Zn  Zn59  1  0.14689100  0.80387800  0.58580400  1
  Zn  Zn60  1  0.39451800  0.10518400  0.72428100  1
  Zn  Zn61  1  0.39267600  0.88128500  0.54682700  1
  Zn  Zn62  1  0.64521000  0.77454900  0.51484200  1
  Zn  Zn63  1  0.14650100  0.27237900  0.51381000  1
  Zn  Zn64  1  0.15159400  0.25762400  0.72734100  1
  Zn  Zn65  1  0.14681500  0.38149100  0.68848500  1
  Zn  Zn66  1  0.64527900  0.59220700  0.52328700  1
  Zn  Zn67  1  0.40523800  0.42046000  0.73247100  1
  Zn  Zn68  1  0.89765200  0.04090100  0.63481000  1
  Zn  Zn69  1  0.39903700  0.35867100  0.64438600  1
  Zn  Zn70  1  0.64566900  0.12370600  0.59528100  1
  Zn  Zn71  1  0.88693200  0.72562500  0.62662000  1
  Zn  Zn72  1  0.90092800  0.10516500  0.72418700  1
  Zn  Zn73  1  0.89608500  0.19804200  0.55454500  1
  Zn  Zn74  1  0.64053500  0.96278600  0.50526400  1
  Zn  Zn75  1  0.89673900  0.88038200  0.54720300  1
  Zn  Zn76  1  0.89183800  0.42293800  0.73181100  1
  Zn  Zn77  1  0.15163500  0.43329900  0.60382700  1
  Zn  Zn78  1  0.40033200  0.72314700  0.62728000  1
  Zn  Zn79  1  0.14057600  0.88846100  0.63175000  1
  Zn  Zn80  1  0.89543100  0.51570300  0.56188800  1
  Zn  Zn81  1  0.39669200  0.78517000  0.71572800  1
  Zn  Zn82  1  0.64608500  0.07304200  0.67954500  1
  Zn  Zn83  1  0.39949400  0.51480000  0.56226400  1
  Zn  Zn84  1  0.14696000  0.62153600  0.59424900  1
  Zn  Zn85  1  0.14257200  0.35749800  0.55794300  1
