# generated using pymatgen
data_Mg5Zn6
_symmetry_space_group_name_H-M   'P 1'
_cell_length_a   3.26915800
_cell_length_b   4.61085900
_cell_length_c   48.03853600
_cell_angle_alpha   90.00000000
_cell_angle_beta   90.00000000
_cell_angle_gamma   90.00000000
_symmetry_Int_Tables_number   1
_chemical_formula_structural   Mg5Zn6
_chemical_formula_sum   'Mg10 Zn12'
_cell_volume   724.11495344
_cell_formula_units_Z   2
loop_
 _symmetry_equiv_pos_site_id
 _symmetry_equiv_pos_as_xyz
  1  'x, y, z'
loop_
 _atom_site_type_symbol
 _atom_site_label
 _atom_site_symmetry_multiplicity
 _atom_site_fract_x
 _atom_site_fract_y
 _atom_site_fract_z
 _atom_site_occupancy
  Mg  Mg0  1  0.50000000  0.75000000  0.29589900  1
  Mg  Mg1  1  0.50000000  0.25000000  0.25410100  1
  Mg  Mg2  1  0.50000000  0.75000000  0.39589900  1
  Mg  Mg3  1  0.50000000  0.25000000  0.35410100  1
  Mg  Mg4  1  0.50000000  0.75000000  0.49589900  1
  Mg  Mg5  1  0.50000000  0.25000000  0.45410100  1
  Mg  Mg6  1  0.50000000  0.75000000  0.59589900  1
  Mg  Mg7  1  0.50000000  0.25000000  0.55410100  1
  Mg  Mg8  1  0.50000000  0.75000000  0.69589900  1
  Mg  Mg9  1  0.50000000  0.25000000  0.65410100  1
  Zn  Zn10  1  0.00000000  0.75000000  0.24418900  1
  Zn  Zn11  1  0.00000000  0.25000000  0.20581100  1
  Zn  Zn12  1  0.00000000  0.75000000  0.34418900  1
  Zn  Zn13  1  0.00000000  0.25000000  0.30581100  1
  Zn  Zn14  1  0.00000000  0.75000000  0.44418900  1
  Zn  Zn15  1  0.00000000  0.25000000  0.40581100  1
  Zn  Zn16  1  0.00000000  0.75000000  0.54418900  1
  Zn  Zn17  1  0.00000000  0.25000000  0.50581100  1
  Zn  Zn18  1  0.00000000  0.75000000  0.64418900  1
  Zn  Zn19  1  0.00000000  0.25000000  0.60581100  1
  Zn  Zn20  1  0.00000000  0.75000000  0.74418900  1
  Zn  Zn21  1  0.00000000  0.25000000  0.70581100  1
