# generated using pymatgen
data_Mg5In6
_symmetry_space_group_name_H-M   'P 1'
_cell_length_a   3.29010200
_cell_length_b   3.29010200
_cell_length_c   43.54642100
_cell_angle_alpha   90.00000000
_cell_angle_beta   90.00000000
_cell_angle_gamma   90.00000000
_symmetry_Int_Tables_number   1
_chemical_formula_structural   Mg5In6
_chemical_formula_sum   'Mg5 In6'
_cell_volume   471.38004262
_cell_formula_units_Z   1
loop_
 _symmetry_equiv_pos_site_id
 _symmetry_equiv_pos_as_xyz
  1  'x, y, z'
loop_
 _atom_site_type_symbol
 _atom_site_label
 _atom_site_symmetry_multiplicity
 _atom_site_fract_x
 _atom_site_fract_y
 _atom_site_fract_z
 _atom_site_occupancy
  Mg  Mg0  1  0.50000000  0.50000000  0.32500000  1
  Mg  Mg1  1  0.50000000  0.50000000  0.42500000  1
  Mg  Mg2  1  0.50000000  0.50000000  0.52500000  1
  Mg  Mg3  1  0.50000000  0.50000000  0.62500000  1
  Mg  Mg4  1  0.50000000  0.50000000  0.72500000  1
  In  In5  1  0.00000000  0.00000000  0.27500000  1
  In  In6  1  0.00000000  0.00000000  0.37500000  1
  In  In7  1  0.00000000  0.00000000  0.47500000  1
  In  In8  1  0.00000000  0.00000000  0.57500000  1
  In  In9  1  0.00000000  0.00000000  0.67500000  1
  In  In10  1  0.00000000  0.00000000  0.77500000  1
