# generated using pymatgen
data_Mg8Hg17
_symmetry_space_group_name_H-M   'P 1'
_cell_length_a   6.17056476
_cell_length_b   7.78040475
_cell_length_c   43.85955400
_cell_angle_alpha   93.43695561
_cell_angle_beta   91.90287841
_cell_angle_gamma   112.42308464
_symmetry_Int_Tables_number   1
_chemical_formula_structural   Mg8Hg17
_chemical_formula_sum   'Mg16 Hg34'
_cell_volume   1939.37808871
_cell_formula_units_Z   2
loop_
 _symmetry_equiv_pos_site_id
 _symmetry_equiv_pos_as_xyz
  1  'x, y, z'
loop_
 _atom_site_type_symbol
 _atom_site_label
 _atom_site_symmetry_multiplicity
 _atom_site_fract_x
 _atom_site_fract_y
 _atom_site_fract_z
 _atom_site_occupancy
  Mg  Mg0  1  0.99245300  0.71612400  0.74387800  1
  Mg  Mg1  1  0.58312100  0.31183100  0.70850300  1
  Mg  Mg2  1  0.20673900  0.85898100  0.67244900  1
  Mg  Mg3  1  0.79740700  0.45468800  0.63707400  1
  Mg  Mg4  1  0.42102400  0.00183800  0.60102100  1
  Mg  Mg5  1  0.01169200  0.59754500  0.56564600  1
  Mg  Mg6  1  0.63531000  0.14469500  0.52959200  1
  Mg  Mg7  1  0.22597800  0.74040200  0.49421700  1
  Mg  Mg8  1  0.84959600  0.28755200  0.45816400  1
  Mg  Mg9  1  0.44026400  0.88326000  0.42278900  1
  Mg  Mg10  1  0.06388100  0.43040900  0.38673500  1
  Mg  Mg11  1  0.65454900  0.02611700  0.35136000  1
  Mg  Mg12  1  0.27816700  0.57326700  0.31530700  1
  Mg  Mg13  1  0.86883500  0.16897400  0.27993200  1
  Mg  Mg14  1  0.49245300  0.71612400  0.24387800  1
  Mg  Mg15  1  0.08312100  0.31183100  0.20850300  1
  Hg  Hg16  1  0.88977800  0.33463800  0.76630600  1
  Hg  Hg17  1  0.47151000  0.55045900  0.75750400  1
  Hg  Hg18  1  0.50050200  0.93016300  0.73179500  1
  Hg  Hg19  1  0.07507200  0.09779200  0.72058600  1
  Hg  Hg20  1  0.10406300  0.47749600  0.69487700  1
  Hg  Hg21  1  0.68579600  0.69331600  0.68607500  1
  Hg  Hg22  1  0.71478800  0.07302000  0.66036600  1
  Hg  Hg23  1  0.28935800  0.24064900  0.64915800  1
  Hg  Hg24  1  0.31834900  0.62035300  0.62344900  1
  Hg  Hg25  1  0.90008200  0.83617300  0.61464700  1
  Hg  Hg26  1  0.92907300  0.21587700  0.58893800  1
  Hg  Hg27  1  0.50364300  0.38350600  0.57772900  1
  Hg  Hg28  1  0.53263500  0.76321000  0.55202000  1
  Hg  Hg29  1  0.11436800  0.97903100  0.54321800  1
  Hg  Hg30  1  0.14335900  0.35873400  0.51750900  1
  Hg  Hg31  1  0.71792900  0.52636300  0.50630000  1
  Hg  Hg32  1  0.74692100  0.90606700  0.48059100  1
  Hg  Hg33  1  0.32865300  0.12188800  0.47178900  1
  Hg  Hg34  1  0.35764500  0.50159100  0.44608100  1
  Hg  Hg35  1  0.93221500  0.66922100  0.43487200  1
  Hg  Hg36  1  0.96120600  0.04892400  0.40916300  1
  Hg  Hg37  1  0.54293900  0.26474500  0.40036100  1
  Hg  Hg38  1  0.57193000  0.64444800  0.37465200  1
  Hg  Hg39  1  0.14650000  0.81207800  0.36344300  1
  Hg  Hg40  1  0.17549200  0.19178100  0.33773400  1
  Hg  Hg41  1  0.75722500  0.40760200  0.32893200  1
  Hg  Hg42  1  0.78621600  0.78730500  0.30322300  1
  Hg  Hg43  1  0.36078600  0.95493500  0.29201500  1
  Hg  Hg44  1  0.38977800  0.33463800  0.26630600  1
  Hg  Hg45  1  0.97151000  0.55045900  0.25750400  1
  Hg  Hg46  1  0.00050200  0.93016300  0.23179500  1
  Hg  Hg47  1  0.57507200  0.09779200  0.22058600  1
  Hg  Hg48  1  0.60406300  0.47749600  0.19487700  1
  Hg  Hg49  1  0.18579600  0.69331600  0.18607500  1
