# generated using pymatgen
data_MgAg2
_symmetry_space_group_name_H-M   'P 1'
_cell_length_a   4.87780300
_cell_length_b   5.11669493
_cell_length_c   44.09373700
_cell_angle_alpha   90.48976460
_cell_angle_beta   90.00000000
_cell_angle_gamma   90.00000000
_symmetry_Int_Tables_number   1
_chemical_formula_structural   MgAg2
_chemical_formula_sum   'Mg12 Ag24'
_cell_volume   1100.46141929
_cell_formula_units_Z   12
loop_
 _symmetry_equiv_pos_site_id
 _symmetry_equiv_pos_as_xyz
  1  'x, y, z'
loop_
 _atom_site_type_symbol
 _atom_site_label
 _atom_site_symmetry_multiplicity
 _atom_site_fract_x
 _atom_site_fract_y
 _atom_site_fract_z
 _atom_site_occupancy
  Mg  Mg0  1  0.75000000  0.45164900  0.73033000  1
  Mg  Mg1  1  0.25000000  0.64835100  0.76967000  1
  Mg  Mg2  1  0.75000000  0.95164900  0.63033000  1
  Mg  Mg3  1  0.25000000  0.14835100  0.66967000  1
  Mg  Mg4  1  0.75000000  0.45164900  0.53033000  1
  Mg  Mg5  1  0.25000000  0.64835100  0.56967000  1
  Mg  Mg6  1  0.75000000  0.95164900  0.43033000  1
  Mg  Mg7  1  0.25000000  0.14835100  0.46967000  1
  Mg  Mg8  1  0.75000000  0.45164900  0.33033000  1
  Mg  Mg9  1  0.25000000  0.64835100  0.36967000  1
  Mg  Mg10  1  0.75000000  0.95164900  0.23033000  1
  Mg  Mg11  1  0.25000000  0.14835100  0.26967000  1
  Ag  Ag12  1  0.25000000  0.64232900  0.70188000  1
  Ag  Ag13  1  0.75000000  0.95706400  0.76482700  1
  Ag  Ag14  1  0.75000000  0.45767100  0.79812000  1
  Ag  Ag15  1  0.25000000  0.14293600  0.73517300  1
  Ag  Ag16  1  0.25000000  0.14232900  0.60188000  1
  Ag  Ag17  1  0.75000000  0.45706400  0.66482700  1
  Ag  Ag18  1  0.75000000  0.95767100  0.69812000  1
  Ag  Ag19  1  0.25000000  0.64293600  0.63517300  1
  Ag  Ag20  1  0.25000000  0.64232900  0.50188000  1
  Ag  Ag21  1  0.75000000  0.95706400  0.56482700  1
  Ag  Ag22  1  0.75000000  0.45767100  0.59812000  1
  Ag  Ag23  1  0.25000000  0.14293600  0.53517300  1
  Ag  Ag24  1  0.25000000  0.14232900  0.40188000  1
  Ag  Ag25  1  0.75000000  0.45706400  0.46482700  1
  Ag  Ag26  1  0.75000000  0.95767100  0.49812000  1
  Ag  Ag27  1  0.25000000  0.64293600  0.43517300  1
  Ag  Ag28  1  0.25000000  0.64232900  0.30188000  1
  Ag  Ag29  1  0.75000000  0.95706400  0.36482700  1
  Ag  Ag30  1  0.75000000  0.45767100  0.39812000  1
  Ag  Ag31  1  0.25000000  0.14293600  0.33517300  1
  Ag  Ag32  1  0.25000000  0.14232900  0.20188000  1
  Ag  Ag33  1  0.75000000  0.45706400  0.26482700  1
  Ag  Ag34  1  0.75000000  0.95767100  0.29812000  1
  Ag  Ag35  1  0.25000000  0.64293600  0.23517300  1
