# generated using pymatgen
data_La2Mg19
_symmetry_space_group_name_H-M   'P 1'
_cell_length_a   10.38875200
_cell_length_b   14.48655120
_cell_length_c   47.03743100
_cell_angle_alpha   91.51171628
_cell_angle_beta   90.00000000
_cell_angle_gamma   68.98788168
_symmetry_Int_Tables_number   1
_chemical_formula_structural   La2Mg19
_chemical_formula_sum   'La14 Mg133'
_cell_volume   6605.64073251
_cell_formula_units_Z   7
loop_
 _symmetry_equiv_pos_site_id
 _symmetry_equiv_pos_as_xyz
  1  'x, y, z'
loop_
 _atom_site_type_symbol
 _atom_site_label
 _atom_site_symmetry_multiplicity
 _atom_site_fract_x
 _atom_site_fract_y
 _atom_site_fract_z
 _atom_site_occupancy
  La  La0  1  0.38518500  0.22963000  0.35964900  1
  La  La1  1  0.09947100  0.80105800  0.33584000  1
  La  La2  1  0.95661400  0.08677300  0.24060200  1
  La  La3  1  0.81375700  0.37248700  0.31203000  1
  La  La4  1  0.09947100  0.80105800  0.50250600  1
  La  La5  1  0.81375700  0.37248700  0.47869700  1
  La  La6  1  0.67089900  0.65820100  0.38345900  1
  La  La7  1  0.52804200  0.94391600  0.45488700  1
  La  La8  1  0.81375700  0.37248700  0.64536300  1
  La  La9  1  0.52804200  0.94391600  0.62155400  1
  La  La10  1  0.38518500  0.22963000  0.52631600  1
  La  La11  1  0.24232800  0.51534400  0.59774400  1
  La  La12  1  0.09947100  0.80105800  0.66917300  1
  La  La13  1  0.95661400  0.08677300  0.74060200  1
  Mg  Mg14  1  0.45826200  0.59680800  0.32755500  1
  Mg  Mg15  1  0.09159600  0.81680700  0.25422200  1
  Mg  Mg16  1  0.94493000  0.59680800  0.32755500  1
  Mg  Mg17  1  0.67064300  0.17204500  0.30247500  1
  Mg  Mg18  1  0.28566100  0.42867800  0.24274400  1
  Mg  Mg19  1  0.57137500  0.85724900  0.26655400  1
  Mg  Mg20  1  0.48470900  0.03058200  0.30988700  1
  Mg  Mg21  1  0.19899500  0.60201000  0.28607800  1
  Mg  Mg22  1  0.38518500  0.22963000  0.27631600  1
  Mg  Mg23  1  0.88518500  0.72963000  0.27631600  1
  Mg  Mg24  1  0.38518500  0.72963000  0.27631600  1
  Mg  Mg25  1  0.24232800  0.01534400  0.34774400  1
  Mg  Mg26  1  0.74232800  0.01534400  0.34774400  1
  Mg  Mg27  1  0.24232800  0.51534400  0.34774400  1
  Mg  Mg28  1  0.46064900  0.38727000  0.30710200  1
  Mg  Mg29  1  0.82827200  0.94600000  0.28752600  1
  Mg  Mg30  1  0.44613400  0.81375700  0.33160700  1
  Mg  Mg31  1  0.32423600  0.64550300  0.22102500  1
  Mg  Mg32  1  0.94209800  0.51325900  0.26510600  1
  Mg  Mg33  1  0.61828900  0.07199000  0.24552900  1
  Mg  Mg34  1  0.74011000  0.81375700  0.33160700  1
  Mg  Mg35  1  0.30972100  0.07199000  0.24552900  1
  Mg  Mg36  1  0.22572800  0.94600000  0.28752600  1
  Mg  Mg37  1  0.54464300  0.51325900  0.26510600  1
  Mg  Mg38  1  0.15208100  0.38727000  0.30710200  1
  Mg  Mg39  1  0.03026100  0.64550300  0.22102500  1
  Mg  Mg40  1  0.96067900  0.07864200  0.31968000  1
  Mg  Mg41  1  0.31210900  0.86245200  0.22507700  1
  Mg  Mg42  1  0.82544000  0.86245200  0.22507700  1
  Mg  Mg43  1  0.09972700  0.28721400  0.25015600  1
  Mg  Mg44  1  0.61305800  0.28721400  0.25015600  1
  Mg  Mg45  1  0.80969100  0.38061800  0.23295100  1
  Mg  Mg46  1  0.15731200  0.17204500  0.30247500  1
  Mg  Mg47  1  0.67877400  0.64245300  0.29841000  1
  Mg  Mg48  1  0.17254700  0.16823700  0.47041200  1
  Mg  Mg49  1  0.80588200  0.38823600  0.39707900  1
  Mg  Mg50  1  0.65921600  0.16823700  0.47041200  1
  Mg  Mg51  1  0.38492900  0.74347400  0.44533300  1
  Mg  Mg52  1  0.99994700  0.00010600  0.38560200  1
  Mg  Mg53  1  0.28566100  0.42867800  0.40941100  1
  Mg  Mg54  1  0.19899500  0.60201000  0.45274400  1
  Mg  Mg55  1  0.91328100  0.17343900  0.42893500  1
  Mg  Mg56  1  0.09947100  0.80105800  0.41917300  1
  Mg  Mg57  1  0.59947100  0.30105800  0.41917300  1
  Mg  Mg58  1  0.09947100  0.30105800  0.41917300  1
  Mg  Mg59  1  0.95661400  0.58677300  0.49060200  1
  Mg  Mg60  1  0.45661400  0.58677300  0.49060200  1
  Mg  Mg61  1  0.95661400  0.08677300  0.49060200  1
  Mg  Mg62  1  0.17493500  0.95869800  0.44996000  1
  Mg  Mg63  1  0.54255800  0.51742900  0.43038300  1
  Mg  Mg64  1  0.16042000  0.38518500  0.47446400  1
  Mg  Mg65  1  0.03852200  0.21693200  0.36388200  1
  Mg  Mg66  1  0.65638400  0.08468800  0.40796300  1
  Mg  Mg67  1  0.33257500  0.64341800  0.38838600  1
  Mg  Mg68  1  0.45439500  0.38518500  0.47446400  1
  Mg  Mg69  1  0.02400600  0.64341800  0.38838600  1
  Mg  Mg70  1  0.94001300  0.51742900  0.43038300  1
  Mg  Mg71  1  0.25892800  0.08468800  0.40796300  1
  Mg  Mg72  1  0.86636600  0.95869800  0.44996000  1
  Mg  Mg73  1  0.74454600  0.21693200  0.36388200  1
  Mg  Mg74  1  0.67496500  0.65007000  0.46253700  1
  Mg  Mg75  1  0.02639400  0.43388000  0.36793400  1
  Mg  Mg76  1  0.53972500  0.43388000  0.36793400  1
  Mg  Mg77  1  0.81401300  0.85864300  0.39301300  1
  Mg  Mg78  1  0.32734400  0.85864300  0.39301300  1
  Mg  Mg79  1  0.52397700  0.95204600  0.37580800  1
  Mg  Mg80  1  0.87159700  0.74347400  0.44533300  1
  Mg  Mg81  1  0.39305900  0.21388100  0.44126700  1
  Mg  Mg82  1  0.88683300  0.73966500  0.61326900  1
  Mg  Mg83  1  0.52016800  0.95966400  0.53993600  1
  Mg  Mg84  1  0.37350200  0.73966500  0.61326900  1
  Mg  Mg85  1  0.09921400  0.31490300  0.58819000  1
  Mg  Mg86  1  0.71423200  0.57153500  0.52845900  1
  Mg  Mg87  1  0.99994700  0.00010600  0.55226800  1
  Mg  Mg88  1  0.91328100  0.17343900  0.59560100  1
  Mg  Mg89  1  0.62756600  0.74486700  0.57179200  1
  Mg  Mg90  1  0.81375700  0.37248700  0.56203000  1
  Mg  Mg91  1  0.31375700  0.87248700  0.56203000  1
  Mg  Mg92  1  0.81375700  0.87248700  0.56203000  1
  Mg  Mg93  1  0.67089900  0.15820100  0.63345900  1
  Mg  Mg94  1  0.17089900  0.15820100  0.63345900  1
  Mg  Mg95  1  0.67089900  0.65820100  0.63345900  1
  Mg  Mg96  1  0.88922100  0.53012700  0.59281700  1
  Mg  Mg97  1  0.25684400  0.08885700  0.57324000  1
  Mg  Mg98  1  0.87470500  0.95661400  0.61732100  1
  Mg  Mg99  1  0.75280800  0.78836000  0.50673900  1
  Mg  Mg100  1  0.37066900  0.65611700  0.55082000  1
  Mg  Mg101  1  0.04686100  0.21484700  0.53124300  1
  Mg  Mg102  1  0.16868100  0.95661400  0.61732100  1
  Mg  Mg103  1  0.73829200  0.21484700  0.53124300  1
  Mg  Mg104  1  0.65429900  0.08885700  0.57324000  1
  Mg  Mg105  1  0.97321400  0.65611700  0.55082000  1
  Mg  Mg106  1  0.58065200  0.53012700  0.59281700  1
  Mg  Mg107  1  0.45883200  0.78836000  0.50673900  1
  Mg  Mg108  1  0.38925100  0.22149900  0.60539500  1
  Mg  Mg109  1  0.74068000  0.00530900  0.51079100  1
  Mg  Mg110  1  0.25401100  0.00530900  0.51079100  1
  Mg  Mg111  1  0.52829900  0.43007100  0.53587000  1
  Mg  Mg112  1  0.04163000  0.43007100  0.53587000  1
  Mg  Mg113  1  0.23826300  0.52347500  0.51866600  1
  Mg  Mg114  1  0.58588300  0.31490300  0.58819000  1
  Mg  Mg115  1  0.10734500  0.78531000  0.58412400  1
  Mg  Mg116  1  0.60111900  0.31109400  0.75612600  1
  Mg  Mg117  1  0.23445400  0.53109300  0.68279300  1
  Mg  Mg118  1  0.08778800  0.31109400  0.75612600  1
  Mg  Mg119  1  0.81350000  0.88633100  0.73104700  1
  Mg  Mg120  1  0.42851800  0.14296400  0.67131600  1
  Mg  Mg121  1  0.71423200  0.57153500  0.69512500  1
  Mg  Mg122  1  0.62756600  0.74486700  0.73845900  1
  Mg  Mg123  1  0.34185200  0.31629600  0.71464900  1
  Mg  Mg124  1  0.52804200  0.94391600  0.70488700  1
  Mg  Mg125  1  0.02804200  0.44391600  0.70488700  1
  Mg  Mg126  1  0.52804200  0.44391600  0.70488700  1
  Mg  Mg127  1  0.60350700  0.10155500  0.73567400  1
  Mg  Mg128  1  0.97112900  0.66028600  0.71609700  1
  Mg  Mg129  1  0.58899100  0.52804200  0.76017800  1
  Mg  Mg130  1  0.46709300  0.35978900  0.64959600  1
  Mg  Mg131  1  0.08495500  0.22754500  0.69367700  1
  Mg  Mg132  1  0.76114700  0.78627600  0.67410100  1
  Mg  Mg133  1  0.88296700  0.52804200  0.76017800  1
  Mg  Mg134  1  0.45257800  0.78627600  0.67410100  1
  Mg  Mg135  1  0.36858500  0.66028600  0.71609700  1
  Mg  Mg136  1  0.68750000  0.22754500  0.69367700  1
  Mg  Mg137  1  0.29493800  0.10155500  0.73567400  1
  Mg  Mg138  1  0.17311800  0.35978900  0.64959600  1
  Mg  Mg139  1  0.10353600  0.79292800  0.74825200  1
  Mg  Mg140  1  0.45496600  0.57673700  0.65364800  1
  Mg  Mg141  1  0.96829700  0.57673700  0.65364800  1
  Mg  Mg142  1  0.24258400  0.00150000  0.67872800  1
  Mg  Mg143  1  0.75591600  0.00150000  0.67872800  1
  Mg  Mg144  1  0.95254800  0.09490400  0.66152300  1
  Mg  Mg145  1  0.30016900  0.88633100  0.73104700  1
  Mg  Mg146  1  0.82163100  0.35673800  0.72698100  1
