# generated using pymatgen
data_MgZn6
_symmetry_space_group_name_H-M   'P 1'
_cell_length_a   12.10891185
_cell_length_b   12.10891214
_cell_length_c   49.92632400
_cell_angle_alpha   90.00000000
_cell_angle_beta   83.03472392
_cell_angle_gamma   60.00000117
_symmetry_Int_Tables_number   1
_chemical_formula_structural   MgZn6
_chemical_formula_sum   'Mg30 Zn180'
_cell_volume   6277.26392985
_cell_formula_units_Z   30
loop_
 _symmetry_equiv_pos_site_id
 _symmetry_equiv_pos_as_xyz
  1  'x, y, z'
loop_
 _atom_site_type_symbol
 _atom_site_label
 _atom_site_symmetry_multiplicity
 _atom_site_fract_x
 _atom_site_fract_y
 _atom_site_fract_z
 _atom_site_occupancy
  Mg  Mg0  1  0.79135700  0.34351800  0.24948600  1
  Mg  Mg1  1  0.09390800  0.84351800  0.24948600  1
  Mg  Mg2  1  0.29135700  0.14606900  0.24948600  1
  Mg  Mg3  1  0.33084700  0.72504900  0.28897600  1
  Mg  Mg4  1  0.13339800  0.42249800  0.28897600  1
  Mg  Mg5  1  0.63339800  0.22504900  0.28897600  1
  Mg  Mg6  1  0.39135700  0.04351800  0.34948600  1
  Mg  Mg7  1  0.69390800  0.54351800  0.34948600  1
  Mg  Mg8  1  0.89135700  0.84606900  0.34948600  1
  Mg  Mg9  1  0.93084700  0.42504900  0.38897600  1
  Mg  Mg10  1  0.73339800  0.12249800  0.38897600  1
  Mg  Mg11  1  0.23339800  0.92504900  0.38897600  1
  Mg  Mg12  1  0.99135700  0.74351800  0.44948600  1
  Mg  Mg13  1  0.29390800  0.24351800  0.44948600  1
  Mg  Mg14  1  0.49135700  0.54606900  0.44948600  1
  Mg  Mg15  1  0.53084700  0.12504900  0.48897600  1
  Mg  Mg16  1  0.33339800  0.82249800  0.48897600  1
  Mg  Mg17  1  0.83339800  0.62504900  0.48897600  1
  Mg  Mg18  1  0.59135700  0.44351800  0.54948600  1
  Mg  Mg19  1  0.89390800  0.94351800  0.54948600  1
  Mg  Mg20  1  0.09135700  0.24606900  0.54948600  1
  Mg  Mg21  1  0.13084700  0.82504900  0.58897600  1
  Mg  Mg22  1  0.93339800  0.52249800  0.58897600  1
  Mg  Mg23  1  0.43339800  0.32504900  0.58897600  1
  Mg  Mg24  1  0.19135700  0.14351800  0.64948600  1
  Mg  Mg25  1  0.49390800  0.64351800  0.64948600  1
  Mg  Mg26  1  0.69135700  0.94606900  0.64948600  1
  Mg  Mg27  1  0.73084700  0.52504900  0.68897600  1
  Mg  Mg28  1  0.53339800  0.22249800  0.68897600  1
  Mg  Mg29  1  0.03339800  0.02504900  0.68897600  1
  Zn  Zn30  1  0.41237800  0.43428300  0.21923100  1
  Zn  Zn31  1  0.62182900  0.71637200  0.29186800  1
  Zn  Zn32  1  0.84820100  0.71637200  0.29186800  1
  Zn  Zn33  1  0.62182900  0.94274400  0.29186800  1
  Zn  Zn34  1  0.57655400  0.85219500  0.24659400  1
  Zn  Zn35  1  0.80292700  0.62582300  0.24659400  1
  Zn  Zn36  1  0.80292700  0.85219500  0.24659400  1
  Zn  Zn37  1  0.34933000  0.88699700  0.23499300  1
  Zn  Zn38  1  0.00695000  0.38699700  0.23499300  1
  Zn  Zn39  1  0.84933000  0.04461700  0.23499300  1
  Zn  Zn40  1  0.81780600  0.48156900  0.20346900  1
  Zn  Zn41  1  0.97542600  0.82395000  0.20346900  1
  Zn  Zn42  1  0.47542600  0.98156900  0.20346900  1
  Zn  Zn43  1  0.06856700  0.10618900  0.23494700  1
  Zn  Zn44  1  0.58094500  0.06905500  0.24732500  1
  Zn  Zn45  1  0.58094500  0.63094500  0.24732500  1
  Zn  Zn46  1  0.01905500  0.63094500  0.24732500  1
  Zn  Zn47  1  0.75618900  0.76237800  0.20351400  1
  Zn  Zn48  1  0.84381100  0.49951100  0.29113600  1
  Zn  Zn49  1  0.84381100  0.93762200  0.29113600  1
  Zn  Zn50  1  0.40570000  0.93762200  0.29113600  1
  Zn  Zn51  1  0.91507600  0.10385600  0.27665400  1
  Zn  Zn52  1  0.18268500  0.99440400  0.27665400  1
  Zn  Zn53  1  0.02452700  0.26201300  0.27665400  1
  Zn  Zn54  1  0.40022900  0.30655300  0.26180700  1
  Zn  Zn55  1  0.36859700  0.66905700  0.23017600  1
  Zn  Zn56  1  0.21044000  0.40144800  0.23017600  1
  Zn  Zn57  1  0.45615800  0.19951000  0.20828600  1
  Zn  Zn58  1  0.24207100  0.57416200  0.26180700  1
  Zn  Zn59  1  0.61431600  0.46711900  0.20828600  1
  Zn  Zn60  1  0.50968000  0.46471100  0.26180700  1
  Zn  Zn61  1  0.18854900  0.62527600  0.20828600  1
  Zn  Zn62  1  0.63620600  0.24329000  0.23017600  1
  Zn  Zn63  1  0.01237800  0.13428300  0.31923100  1
  Zn  Zn64  1  0.22182900  0.41637200  0.39186800  1
  Zn  Zn65  1  0.44820100  0.41637200  0.39186800  1
  Zn  Zn66  1  0.22182900  0.64274400  0.39186800  1
  Zn  Zn67  1  0.17655400  0.55219500  0.34659400  1
  Zn  Zn68  1  0.40292700  0.32582300  0.34659400  1
  Zn  Zn69  1  0.40292700  0.55219500  0.34659400  1
  Zn  Zn70  1  0.94933000  0.58699700  0.33499300  1
  Zn  Zn71  1  0.60695000  0.08699700  0.33499300  1
  Zn  Zn72  1  0.44933000  0.74461700  0.33499300  1
  Zn  Zn73  1  0.41780600  0.18156900  0.30346900  1
  Zn  Zn74  1  0.57542600  0.52395000  0.30346900  1
  Zn  Zn75  1  0.07542600  0.68156900  0.30346900  1
  Zn  Zn76  1  0.66856700  0.80618900  0.33494700  1
  Zn  Zn77  1  0.18094500  0.76905500  0.34732500  1
  Zn  Zn78  1  0.18094500  0.33094500  0.34732500  1
  Zn  Zn79  1  0.61905500  0.33094500  0.34732500  1
  Zn  Zn80  1  0.35618900  0.46237800  0.30351400  1
  Zn  Zn81  1  0.44381100  0.19951100  0.39113600  1
  Zn  Zn82  1  0.44381100  0.63762200  0.39113600  1
  Zn  Zn83  1  0.00570000  0.63762200  0.39113600  1
  Zn  Zn84  1  0.51507600  0.80385600  0.37665400  1
  Zn  Zn85  1  0.78268500  0.69440400  0.37665400  1
  Zn  Zn86  1  0.62452700  0.96201300  0.37665400  1
  Zn  Zn87  1  0.00022900  0.00655300  0.36180700  1
  Zn  Zn88  1  0.96859700  0.36905700  0.33017600  1
  Zn  Zn89  1  0.81044000  0.10144800  0.33017600  1
  Zn  Zn90  1  0.05615800  0.89951000  0.30828600  1
  Zn  Zn91  1  0.84207100  0.27416200  0.36180700  1
  Zn  Zn92  1  0.21431600  0.16711900  0.30828600  1
  Zn  Zn93  1  0.10968000  0.16471100  0.36180700  1
  Zn  Zn94  1  0.78854900  0.32527600  0.30828600  1
  Zn  Zn95  1  0.23620600  0.94329000  0.33017600  1
  Zn  Zn96  1  0.61237800  0.83428300  0.41923100  1
  Zn  Zn97  1  0.82182900  0.11637200  0.49186800  1
  Zn  Zn98  1  0.04820100  0.11637200  0.49186800  1
  Zn  Zn99  1  0.82182900  0.34274400  0.49186800  1
  Zn  Zn100  1  0.77655400  0.25219500  0.44659400  1
  Zn  Zn101  1  0.00292700  0.02582300  0.44659400  1
  Zn  Zn102  1  0.00292700  0.25219500  0.44659400  1
  Zn  Zn103  1  0.54933000  0.28699700  0.43499300  1
  Zn  Zn104  1  0.20695000  0.78699700  0.43499300  1
  Zn  Zn105  1  0.04933000  0.44461700  0.43499300  1
  Zn  Zn106  1  0.01780600  0.88156900  0.40346900  1
  Zn  Zn107  1  0.17542600  0.22395000  0.40346900  1
  Zn  Zn108  1  0.67542600  0.38156900  0.40346900  1
  Zn  Zn109  1  0.26856700  0.50618900  0.43494700  1
  Zn  Zn110  1  0.78094500  0.46905500  0.44732500  1
  Zn  Zn111  1  0.78094500  0.03094500  0.44732500  1
  Zn  Zn112  1  0.21905500  0.03094500  0.44732500  1
  Zn  Zn113  1  0.95618900  0.16237800  0.40351400  1
  Zn  Zn114  1  0.04381100  0.89951100  0.49113600  1
  Zn  Zn115  1  0.04381100  0.33762200  0.49113600  1
  Zn  Zn116  1  0.60570000  0.33762200  0.49113600  1
  Zn  Zn117  1  0.11507600  0.50385600  0.47665400  1
  Zn  Zn118  1  0.38268500  0.39440400  0.47665400  1
  Zn  Zn119  1  0.22452700  0.66201300  0.47665400  1
  Zn  Zn120  1  0.60022900  0.70655300  0.46180700  1
  Zn  Zn121  1  0.56859700  0.06905700  0.43017600  1
  Zn  Zn122  1  0.41044000  0.80144800  0.43017600  1
  Zn  Zn123  1  0.65615800  0.59951000  0.40828600  1
  Zn  Zn124  1  0.44207100  0.97416200  0.46180700  1
  Zn  Zn125  1  0.81431600  0.86711900  0.40828600  1
  Zn  Zn126  1  0.70968000  0.86471100  0.46180700  1
  Zn  Zn127  1  0.38854900  0.02527600  0.40828600  1
  Zn  Zn128  1  0.83620600  0.64329000  0.43017600  1
  Zn  Zn129  1  0.21237800  0.53428300  0.51923100  1
  Zn  Zn130  1  0.42182900  0.81637200  0.59186800  1
  Zn  Zn131  1  0.64820100  0.81637200  0.59186800  1
  Zn  Zn132  1  0.42182900  0.04274400  0.59186800  1
  Zn  Zn133  1  0.37655400  0.95219500  0.54659400  1
  Zn  Zn134  1  0.60292700  0.72582300  0.54659400  1
  Zn  Zn135  1  0.60292700  0.95219500  0.54659400  1
  Zn  Zn136  1  0.14933000  0.98699700  0.53499300  1
  Zn  Zn137  1  0.80695000  0.48699700  0.53499300  1
  Zn  Zn138  1  0.64933000  0.14461700  0.53499300  1
  Zn  Zn139  1  0.61780600  0.58156900  0.50346900  1
  Zn  Zn140  1  0.77542600  0.92395000  0.50346900  1
  Zn  Zn141  1  0.27542600  0.08156900  0.50346900  1
  Zn  Zn142  1  0.86856700  0.20618900  0.53494700  1
  Zn  Zn143  1  0.38094500  0.16905500  0.54732500  1
  Zn  Zn144  1  0.38094500  0.73094500  0.54732500  1
  Zn  Zn145  1  0.81905500  0.73094500  0.54732500  1
  Zn  Zn146  1  0.55618900  0.86237800  0.50351400  1
  Zn  Zn147  1  0.64381100  0.59951100  0.59113600  1
  Zn  Zn148  1  0.64381100  0.03762200  0.59113600  1
  Zn  Zn149  1  0.20570000  0.03762200  0.59113600  1
  Zn  Zn150  1  0.71507600  0.20385600  0.57665400  1
  Zn  Zn151  1  0.98268500  0.09440400  0.57665400  1
  Zn  Zn152  1  0.82452700  0.36201300  0.57665400  1
  Zn  Zn153  1  0.20022900  0.40655300  0.56180700  1
  Zn  Zn154  1  0.16859700  0.76905700  0.53017600  1
  Zn  Zn155  1  0.01044000  0.50144800  0.53017600  1
  Zn  Zn156  1  0.25615800  0.29951000  0.50828600  1
  Zn  Zn157  1  0.04207100  0.67416200  0.56180700  1
  Zn  Zn158  1  0.41431600  0.56711900  0.50828600  1
  Zn  Zn159  1  0.30968000  0.56471100  0.56180700  1
  Zn  Zn160  1  0.98854900  0.72527600  0.50828600  1
  Zn  Zn161  1  0.43620600  0.34329000  0.53017600  1
  Zn  Zn162  1  0.81237800  0.23428300  0.61923100  1
  Zn  Zn163  1  0.02182900  0.51637200  0.69186800  1
  Zn  Zn164  1  0.24820100  0.51637200  0.69186800  1
  Zn  Zn165  1  0.02182900  0.74274400  0.69186800  1
  Zn  Zn166  1  0.97655400  0.65219500  0.64659400  1
  Zn  Zn167  1  0.20292700  0.42582300  0.64659400  1
  Zn  Zn168  1  0.20292700  0.65219500  0.64659400  1
  Zn  Zn169  1  0.74933000  0.68699700  0.63499300  1
  Zn  Zn170  1  0.40695000  0.18699700  0.63499300  1
  Zn  Zn171  1  0.24933000  0.84461700  0.63499300  1
  Zn  Zn172  1  0.21780600  0.28156900  0.60346900  1
  Zn  Zn173  1  0.37542600  0.62395000  0.60346900  1
  Zn  Zn174  1  0.87542600  0.78156900  0.60346900  1
  Zn  Zn175  1  0.46856700  0.90618900  0.63494700  1
  Zn  Zn176  1  0.98094500  0.86905500  0.64732500  1
  Zn  Zn177  1  0.98094500  0.43094500  0.64732500  1
  Zn  Zn178  1  0.41905500  0.43094500  0.64732500  1
  Zn  Zn179  1  0.15618900  0.56237800  0.60351400  1
  Zn  Zn180  1  0.24381100  0.29951100  0.69113600  1
  Zn  Zn181  1  0.24381100  0.73762200  0.69113600  1
  Zn  Zn182  1  0.80570000  0.73762200  0.69113600  1
  Zn  Zn183  1  0.31507600  0.90385600  0.67665400  1
  Zn  Zn184  1  0.58268500  0.79440400  0.67665400  1
  Zn  Zn185  1  0.42452700  0.06201300  0.67665400  1
  Zn  Zn186  1  0.80022900  0.10655300  0.66180700  1
  Zn  Zn187  1  0.76859700  0.46905700  0.63017600  1
  Zn  Zn188  1  0.61044000  0.20144800  0.63017600  1
  Zn  Zn189  1  0.85615800  0.99951000  0.60828600  1
  Zn  Zn190  1  0.64207100  0.37416200  0.66180700  1
  Zn  Zn191  1  0.01431600  0.26711900  0.60828600  1
  Zn  Zn192  1  0.90968000  0.26471100  0.66180700  1
  Zn  Zn193  1  0.58854900  0.42527600  0.60828600  1
  Zn  Zn194  1  0.03620600  0.04329000  0.63017600  1
  Zn  Zn195  1  0.41237800  0.93428300  0.71923100  1
  Zn  Zn196  1  0.34933000  0.38699700  0.73499300  1
  Zn  Zn197  1  0.00695000  0.88699700  0.73499300  1
  Zn  Zn198  1  0.84933000  0.54461700  0.73499300  1
  Zn  Zn199  1  0.81780600  0.98156900  0.70346900  1
  Zn  Zn200  1  0.97542600  0.32395000  0.70346900  1
  Zn  Zn201  1  0.47542600  0.48156900  0.70346900  1
  Zn  Zn202  1  0.06856700  0.60618900  0.73494700  1
  Zn  Zn203  1  0.75618900  0.26237800  0.70351400  1
  Zn  Zn204  1  0.36859700  0.16905700  0.73017600  1
  Zn  Zn205  1  0.21044000  0.90144800  0.73017600  1
  Zn  Zn206  1  0.45615800  0.69951000  0.70828600  1
  Zn  Zn207  1  0.61431600  0.96711900  0.70828600  1
  Zn  Zn208  1  0.18854900  0.12527600  0.70828600  1
  Zn  Zn209  1  0.63620600  0.74329000  0.73017600  1
