# generated using pymatgen
data_Mg12Tl11
_symmetry_space_group_name_H-M   'P 1'
_cell_length_a   5.19722737
_cell_length_b   5.19722809
_cell_length_c   42.54114300
_cell_angle_alpha   90.00000000
_cell_angle_beta   93.50207489
_cell_angle_gamma   59.99999758
_symmetry_Int_Tables_number   1
_chemical_formula_structural   Mg12Tl11
_chemical_formula_sum   'Mg12 Tl11'
_cell_volume   992.65935491
_cell_formula_units_Z   1
loop_
 _symmetry_equiv_pos_site_id
 _symmetry_equiv_pos_as_xyz
  1  'x, y, z'
loop_
 _atom_site_type_symbol
 _atom_site_label
 _atom_site_symmetry_multiplicity
 _atom_site_fract_x
 _atom_site_fract_y
 _atom_site_fract_z
 _atom_site_occupancy
  Mg  Mg0  1  0.77500000  0.73750000  0.23750000  1
  Mg  Mg1  1  0.47500000  0.38750000  0.28750000  1
  Mg  Mg2  1  0.17500000  0.03750000  0.33750000  1
  Mg  Mg3  1  0.87500000  0.68750000  0.38750000  1
  Mg  Mg4  1  0.57500000  0.33750000  0.43750000  1
  Mg  Mg5  1  0.27500000  0.98750000  0.48750000  1
  Mg  Mg6  1  0.97500000  0.63750000  0.53750000  1
  Mg  Mg7  1  0.67500000  0.28750000  0.58750000  1
  Mg  Mg8  1  0.37500000  0.93750000  0.63750000  1
  Mg  Mg9  1  0.07500000  0.58750000  0.68750000  1
  Mg  Mg10  1  0.77500000  0.23750000  0.73750000  1
  Mg  Mg11  1  0.47500000  0.88750000  0.78750000  1
  Tl  Tl12  1  0.12500000  0.06250000  0.26250000  1
  Tl  Tl13  1  0.82500000  0.71250000  0.31250000  1
  Tl  Tl14  1  0.52500000  0.36250000  0.36250000  1
  Tl  Tl15  1  0.22500000  0.01250000  0.41250000  1
  Tl  Tl16  1  0.92500000  0.66250000  0.46250000  1
  Tl  Tl17  1  0.62500000  0.31250000  0.51250000  1
  Tl  Tl18  1  0.32500000  0.96250000  0.56250000  1
  Tl  Tl19  1  0.02500000  0.61250000  0.61250000  1
  Tl  Tl20  1  0.72500000  0.26250000  0.66250000  1
  Tl  Tl21  1  0.42500000  0.91250000  0.71250000  1
  Tl  Tl22  1  0.12500000  0.56250000  0.76250000  1
