# generated using pymatgen
data_Mg8Tl23
_symmetry_space_group_name_H-M   'P 1'
_cell_length_a   6.72717400
_cell_length_b   11.19371824
_cell_length_c   41.61546800
_cell_angle_alpha   94.07372487
_cell_angle_beta   90.00000000
_cell_angle_gamma   72.51303585
_symmetry_Int_Tables_number   1
_chemical_formula_structural   Mg8Tl23
_chemical_formula_sum   'Mg16 Tl46'
_cell_volume   2980.60523253
_cell_formula_units_Z   2
loop_
 _symmetry_equiv_pos_site_id
 _symmetry_equiv_pos_as_xyz
  1  'x, y, z'
loop_
 _atom_site_type_symbol
 _atom_site_label
 _atom_site_symmetry_multiplicity
 _atom_site_fract_x
 _atom_site_fract_y
 _atom_site_fract_z
 _atom_site_occupancy
  Mg  Mg0  1  0.59615400  0.93269200  0.25961500  1
  Mg  Mg1  1  0.32692300  0.47115400  0.22115400  1
  Mg  Mg2  1  0.13461500  0.85576900  0.33653800  1
  Mg  Mg3  1  0.86538500  0.39423100  0.29807700  1
  Mg  Mg4  1  0.67307700  0.77884600  0.41346200  1
  Mg  Mg5  1  0.40384600  0.31730800  0.37500000  1
  Mg  Mg6  1  0.21153800  0.70192300  0.49038500  1
  Mg  Mg7  1  0.94230800  0.24038500  0.45192300  1
  Mg  Mg8  1  0.75000000  0.62500000  0.56730800  1
  Mg  Mg9  1  0.48076900  0.16346200  0.52884600  1
  Mg  Mg10  1  0.28846200  0.54807700  0.64423100  1
  Mg  Mg11  1  0.01923100  0.08653800  0.60576900  1
  Mg  Mg12  1  0.82692300  0.47115400  0.72115400  1
  Mg  Mg13  1  0.55769200  0.00961500  0.68269200  1
  Mg  Mg14  1  0.36538500  0.39423100  0.79807700  1
  Mg  Mg15  1  0.09615400  0.93269200  0.75961500  1
  Tl  Tl16  1  0.09615400  0.93269200  0.25961500  1
  Tl  Tl17  1  0.21153800  0.20192300  0.24038500  1
  Tl  Tl18  1  0.71153800  0.20192300  0.24038500  1
  Tl  Tl19  1  0.82692300  0.47115400  0.22115400  1
  Tl  Tl20  1  0.63461500  0.85576900  0.33653800  1
  Tl  Tl21  1  0.75000000  0.12500000  0.31730800  1
  Tl  Tl22  1  0.25000000  0.12500000  0.31730800  1
  Tl  Tl23  1  0.36538500  0.39423100  0.29807700  1
  Tl  Tl24  1  0.48076900  0.66346200  0.27884600  1
  Tl  Tl25  1  0.98076900  0.66346200  0.27884600  1
  Tl  Tl26  1  0.17307700  0.77884600  0.41346200  1
  Tl  Tl27  1  0.28846200  0.04807700  0.39423100  1
  Tl  Tl28  1  0.78846200  0.04807700  0.39423100  1
  Tl  Tl29  1  0.90384600  0.31730800  0.37500000  1
  Tl  Tl30  1  0.01923100  0.58653800  0.35576900  1
  Tl  Tl31  1  0.51923100  0.58653800  0.35576900  1
  Tl  Tl32  1  0.71153800  0.70192300  0.49038500  1
  Tl  Tl33  1  0.82692300  0.97115400  0.47115400  1
  Tl  Tl34  1  0.32692300  0.97115400  0.47115400  1
  Tl  Tl35  1  0.44230800  0.24038500  0.45192300  1
  Tl  Tl36  1  0.55769200  0.50961500  0.43269200  1
  Tl  Tl37  1  0.05769200  0.50961500  0.43269200  1
  Tl  Tl38  1  0.25000000  0.62500000  0.56730800  1
  Tl  Tl39  1  0.36538500  0.89423100  0.54807700  1
  Tl  Tl40  1  0.86538500  0.89423100  0.54807700  1
  Tl  Tl41  1  0.98076900  0.16346200  0.52884600  1
  Tl  Tl42  1  0.09615400  0.43269200  0.50961500  1
  Tl  Tl43  1  0.59615400  0.43269200  0.50961500  1
  Tl  Tl44  1  0.78846200  0.54807700  0.64423100  1
  Tl  Tl45  1  0.90384600  0.81730800  0.62500000  1
  Tl  Tl46  1  0.40384600  0.81730800  0.62500000  1
  Tl  Tl47  1  0.51923100  0.08653800  0.60576900  1
  Tl  Tl48  1  0.63461500  0.35576900  0.58653800  1
  Tl  Tl49  1  0.13461500  0.35576900  0.58653800  1
  Tl  Tl50  1  0.32692300  0.47115400  0.72115400  1
  Tl  Tl51  1  0.44230800  0.74038500  0.70192300  1
  Tl  Tl52  1  0.94230800  0.74038500  0.70192300  1
  Tl  Tl53  1  0.05769200  0.00961500  0.68269200  1
  Tl  Tl54  1  0.17307700  0.27884600  0.66346200  1
  Tl  Tl55  1  0.67307700  0.27884600  0.66346200  1
  Tl  Tl56  1  0.86538500  0.39423100  0.79807700  1
  Tl  Tl57  1  0.98076900  0.66346200  0.77884600  1
  Tl  Tl58  1  0.48076900  0.66346200  0.77884600  1
  Tl  Tl59  1  0.59615400  0.93269200  0.75961500  1
  Tl  Tl60  1  0.71153800  0.20192300  0.74038500  1
  Tl  Tl61  1  0.21153800  0.20192300  0.74038500  1
