# generated using pymatgen
data_Ce2Mg
_symmetry_space_group_name_H-M   'P 1'
_cell_length_a   3.15985600
_cell_length_b   19.24522921
_cell_length_c   41.11903400
_cell_angle_alpha   100.94963191
_cell_angle_beta   90.00000000
_cell_angle_gamma   90.00000000
_symmetry_Int_Tables_number   1
_chemical_formula_structural   Ce2Mg
_chemical_formula_sum   'Ce40 Mg20'
_cell_volume   2455.01356562
_cell_formula_units_Z   20
loop_
 _symmetry_equiv_pos_site_id
 _symmetry_equiv_pos_as_xyz
  1  'x, y, z'
loop_
 _atom_site_type_symbol
 _atom_site_label
 _atom_site_symmetry_multiplicity
 _atom_site_fract_x
 _atom_site_fract_y
 _atom_site_fract_z
 _atom_site_occupancy
  Ce  Ce0  1  0.00000000  0.91769900  0.23497200  1
  Ce  Ce1  1  0.50000000  0.77143200  0.25586700  1
  Ce  Ce2  1  0.00000000  0.91606800  0.30663300  1
  Ce  Ce3  1  0.50000000  0.64480100  0.20252800  1
  Ce  Ce4  1  0.50000000  0.48019900  0.29747200  1
  Ce  Ce5  1  0.00000000  0.20893200  0.19336700  1
  Ce  Ce6  1  0.50000000  0.35356800  0.24413300  1
  Ce  Ce7  1  0.00000000  0.20730100  0.26502800  1
  Ce  Ce8  1  0.00000000  0.04269900  0.35997200  1
  Ce  Ce9  1  0.50000000  0.89643200  0.38086700  1
  Ce  Ce10  1  0.00000000  0.04106800  0.43163300  1
  Ce  Ce11  1  0.50000000  0.76980100  0.32752800  1
  Ce  Ce12  1  0.50000000  0.60519900  0.42247200  1
  Ce  Ce13  1  0.00000000  0.33393200  0.31836700  1
  Ce  Ce14  1  0.50000000  0.47856800  0.36913300  1
  Ce  Ce15  1  0.00000000  0.33230100  0.39002800  1
  Ce  Ce16  1  0.00000000  0.16769900  0.48497200  1
  Ce  Ce17  1  0.50000000  0.02143200  0.50586700  1
  Ce  Ce18  1  0.00000000  0.16606800  0.55663300  1
  Ce  Ce19  1  0.50000000  0.89480100  0.45252800  1
  Ce  Ce20  1  0.50000000  0.73019900  0.54747200  1
  Ce  Ce21  1  0.00000000  0.45893200  0.44336700  1
  Ce  Ce22  1  0.50000000  0.60356800  0.49413300  1
  Ce  Ce23  1  0.00000000  0.45730100  0.51502800  1
  Ce  Ce24  1  0.00000000  0.29269900  0.60997200  1
  Ce  Ce25  1  0.50000000  0.14643200  0.63086700  1
  Ce  Ce26  1  0.00000000  0.29106800  0.68163300  1
  Ce  Ce27  1  0.50000000  0.01980100  0.57752800  1
  Ce  Ce28  1  0.50000000  0.85519900  0.67247200  1
  Ce  Ce29  1  0.00000000  0.58393200  0.56836700  1
  Ce  Ce30  1  0.50000000  0.72856800  0.61913300  1
  Ce  Ce31  1  0.00000000  0.58230100  0.64002800  1
  Ce  Ce32  1  0.00000000  0.41769900  0.73497200  1
  Ce  Ce33  1  0.50000000  0.27143200  0.75586700  1
  Ce  Ce34  1  0.00000000  0.41606800  0.80663300  1
  Ce  Ce35  1  0.50000000  0.14480100  0.70252800  1
  Ce  Ce36  1  0.50000000  0.98019900  0.79747200  1
  Ce  Ce37  1  1.00000000  0.70893200  0.69336700  1
  Ce  Ce38  1  0.50000000  0.85356800  0.74413300  1
  Ce  Ce39  1  0.00000000  0.70730100  0.76502800  1
  Mg  Mg40  1  0.00000000  0.62959300  0.27613000  1
  Mg  Mg41  1  0.50000000  0.05790700  0.28637000  1
  Mg  Mg42  1  0.50000000  0.06709300  0.21363000  1
  Mg  Mg43  1  0.00000000  0.49540700  0.22387000  1
  Mg  Mg44  1  0.00000000  0.75459300  0.40113000  1
  Mg  Mg45  1  0.50000000  0.18290700  0.41137000  1
  Mg  Mg46  1  0.50000000  0.19209300  0.33863000  1
  Mg  Mg47  1  1.00000000  0.62040700  0.34887000  1
  Mg  Mg48  1  0.00000000  0.87959300  0.52613000  1
  Mg  Mg49  1  0.50000000  0.30790700  0.53637000  1
  Mg  Mg50  1  0.50000000  0.31709300  0.46363000  1
  Mg  Mg51  1  0.00000000  0.74540700  0.47387000  1
  Mg  Mg52  1  0.00000000  0.00459300  0.65113000  1
  Mg  Mg53  1  0.50000000  0.43290700  0.66137000  1
  Mg  Mg54  1  0.50000000  0.44209300  0.58863000  1
  Mg  Mg55  1  0.00000000  0.87040700  0.59887000  1
  Mg  Mg56  1  0.00000000  0.12959300  0.77613000  1
  Mg  Mg57  1  0.50000000  0.55790700  0.78637000  1
  Mg  Mg58  1  0.50000000  0.56709300  0.71363000  1
  Mg  Mg59  1  0.00000000  0.99540700  0.72387000  1
