# generated using pymatgen
data_Mg5Hg3
_symmetry_space_group_name_H-M   'P 1'
_cell_length_a   5.97810100
_cell_length_b   8.30244934
_cell_length_c   50.50182800
_cell_angle_alpha   94.71500304
_cell_angle_beta   90.00000000
_cell_angle_gamma   90.00000000
_symmetry_Int_Tables_number   1
_chemical_formula_structural   Mg5Hg3
_chemical_formula_sum   'Mg40 Hg24'
_cell_volume   2498.06877802
_cell_formula_units_Z   8
loop_
 _symmetry_equiv_pos_site_id
 _symmetry_equiv_pos_as_xyz
  1  'x, y, z'
loop_
 _atom_site_type_symbol
 _atom_site_label
 _atom_site_symmetry_multiplicity
 _atom_site_fract_x
 _atom_site_fract_y
 _atom_site_fract_z
 _atom_site_occupancy
  Mg  Mg0  1  0.25000000  0.03364500  0.28571400  1
  Mg  Mg1  1  0.75000000  0.89197100  0.25029600  1
  Mg  Mg2  1  0.75000000  0.92738900  0.32113300  1
  Mg  Mg3  1  0.25000000  0.64403900  0.25029600  1
  Mg  Mg4  1  0.25000000  0.67945800  0.32113300  1
  Mg  Mg5  1  0.75000000  0.53778300  0.28571400  1
  Mg  Mg6  1  0.50000000  0.26190500  0.23809500  1
  Mg  Mg7  1  0.00000000  0.30952400  0.33333300  1
  Mg  Mg8  1  0.50000000  0.30952400  0.33333300  1
  Mg  Mg9  1  1.00000000  0.26190500  0.23809500  1
  Mg  Mg10  1  0.25000000  0.60507400  0.42857100  1
  Mg  Mg11  1  0.75000000  0.46339900  0.39315300  1
  Mg  Mg12  1  0.75000000  0.49881800  0.46399000  1
  Mg  Mg13  1  0.25000000  0.21546800  0.39315300  1
  Mg  Mg14  1  0.25000000  0.25088700  0.46399000  1
  Mg  Mg15  1  0.75000000  0.10921200  0.42857100  1
  Mg  Mg16  1  0.50000000  0.83333300  0.38095200  1
  Mg  Mg17  1  1.00000000  0.88095200  0.47619000  1
  Mg  Mg18  1  0.50000000  0.88095200  0.47619000  1
  Mg  Mg19  1  0.00000000  0.83333300  0.38095200  1
  Mg  Mg20  1  0.25000000  0.17650300  0.57142900  1
  Mg  Mg21  1  0.75000000  0.03482800  0.53601000  1
  Mg  Mg22  1  0.75000000  0.07024600  0.60684700  1
  Mg  Mg23  1  0.25000000  0.78689600  0.53601000  1
  Mg  Mg24  1  0.25000000  0.82231500  0.60684700  1
  Mg  Mg25  1  0.75000000  0.68064000  0.57142900  1
  Mg  Mg26  1  0.50000000  0.40476200  0.52381000  1
  Mg  Mg27  1  1.00000000  0.45238100  0.61904800  1
  Mg  Mg28  1  0.50000000  0.45238100  0.61904800  1
  Mg  Mg29  1  0.00000000  0.40476200  0.52381000  1
  Mg  Mg30  1  0.25000000  0.74793100  0.71428600  1
  Mg  Mg31  1  0.75000000  0.60625600  0.67886700  1
  Mg  Mg32  1  0.75000000  0.64167500  0.74970400  1
  Mg  Mg33  1  0.25000000  0.35832500  0.67886700  1
  Mg  Mg34  1  0.25000000  0.39374400  0.74970400  1
  Mg  Mg35  1  0.75000000  0.25206900  0.71428600  1
  Mg  Mg36  1  0.50000000  0.97619000  0.66666700  1
  Mg  Mg37  1  0.00000000  0.02381000  0.76190500  1
  Mg  Mg38  1  0.50000000  0.02381000  0.76190500  1
  Mg  Mg39  1  0.00000000  0.97619000  0.66666700  1
  Hg  Hg40  1  0.25000000  0.39609300  0.28571400  1
  Hg  Hg41  1  0.75000000  0.61873400  0.34137400  1
  Hg  Hg42  1  0.75000000  0.56307400  0.23005400  1
  Hg  Hg43  1  0.25000000  0.00835500  0.34137400  1
  Hg  Hg44  1  0.25000000  0.95269500  0.23005400  1
  Hg  Hg45  1  0.75000000  0.17533600  0.28571400  1
  Hg  Hg46  1  0.25000000  0.96752200  0.42857100  1
  Hg  Hg47  1  0.75000000  0.19016200  0.48423200  1
  Hg  Hg48  1  0.75000000  0.13450200  0.37291100  1
  Hg  Hg49  1  0.25000000  0.57978400  0.48423200  1
  Hg  Hg50  1  0.25000000  0.52412300  0.37291100  1
  Hg  Hg51  1  0.75000000  0.74676400  0.42857100  1
  Hg  Hg52  1  0.25000000  0.53895000  0.57142900  1
  Hg  Hg53  1  0.75000000  0.76159100  0.62708900  1
  Hg  Hg54  1  0.75000000  0.70593100  0.51576800  1
  Hg  Hg55  1  0.25000000  0.15121200  0.62708900  1
  Hg  Hg56  1  0.25000000  0.09555200  0.51576800  1
  Hg  Hg57  1  0.75000000  0.31819300  0.57142900  1
  Hg  Hg58  1  0.25000000  0.11037900  0.71428600  1
  Hg  Hg59  1  0.75000000  0.33301900  0.76994600  1
  Hg  Hg60  1  0.75000000  0.27735900  0.65862600  1
  Hg  Hg61  1  0.25000000  0.72264100  0.76994600  1
  Hg  Hg62  1  0.25000000  0.66698100  0.65862600  1
  Hg  Hg63  1  0.75000000  0.88962100  0.71428600  1
