# generated using pymatgen
data_Mg27Ir41
_symmetry_space_group_name_H-M   'P 1'
_cell_length_a   9.72091470
_cell_length_b   10.02721169
_cell_length_c   42.99921300
_cell_angle_alpha   94.02267208
_cell_angle_beta   94.30460560
_cell_angle_gamma   92.31047724
_symmetry_Int_Tables_number   1
_chemical_formula_structural   Mg27Ir41
_chemical_formula_sum   'Mg54 Ir82'
_cell_volume   4164.79203527
_cell_formula_units_Z   2
loop_
 _symmetry_equiv_pos_site_id
 _symmetry_equiv_pos_as_xyz
  1  'x, y, z'
loop_
 _atom_site_type_symbol
 _atom_site_label
 _atom_site_symmetry_multiplicity
 _atom_site_fract_x
 _atom_site_fract_y
 _atom_site_fract_z
 _atom_site_occupancy
  Mg  Mg0  1  0.60988600  0.18270700  0.23552000  1
  Mg  Mg1  1  0.75746900  0.93226100  0.20848000  1
  Mg  Mg2  1  0.01833000  0.60942700  0.27821300  1
  Mg  Mg3  1  0.24902500  0.80554100  0.26578700  1
  Mg  Mg4  1  0.52568400  0.73141200  0.29847300  1
  Mg  Mg5  1  0.74167100  0.68355600  0.24552700  1
  Mg  Mg6  1  0.33151900  0.08227300  0.22955900  1
  Mg  Mg7  1  0.03583500  0.03269500  0.21444100  1
  Mg  Mg8  1  0.11186100  0.32818400  0.25175300  1
  Mg  Mg9  1  0.15549400  0.08678400  0.29224700  1
  Mg  Mg10  1  0.50988600  0.48270700  0.33552000  1
  Mg  Mg11  1  0.65746900  0.23226100  0.30848000  1
  Mg  Mg12  1  0.91833000  0.90942700  0.37821300  1
  Mg  Mg13  1  0.14902500  0.10554100  0.36578700  1
  Mg  Mg14  1  0.42568400  0.03141200  0.39847300  1
  Mg  Mg15  1  0.64167100  0.98355600  0.34552700  1
  Mg  Mg16  1  0.23151900  0.38227300  0.32955900  1
  Mg  Mg17  1  0.93583500  0.33269500  0.31444100  1
  Mg  Mg18  1  0.01186100  0.62818400  0.35175300  1
  Mg  Mg19  1  0.05549400  0.38678400  0.39224700  1
  Mg  Mg20  1  0.40988600  0.78270700  0.43552000  1
  Mg  Mg21  1  0.55746900  0.53226100  0.40848000  1
  Mg  Mg22  1  0.81833000  0.20942700  0.47821300  1
  Mg  Mg23  1  0.04902500  0.40554100  0.46578700  1
  Mg  Mg24  1  0.32568400  0.33141200  0.49847300  1
  Mg  Mg25  1  0.54167100  0.28355600  0.44552700  1
  Mg  Mg26  1  0.13151900  0.68227300  0.42955900  1
  Mg  Mg27  1  0.83583500  0.63269500  0.41444100  1
  Mg  Mg28  1  0.91186100  0.92818400  0.45175300  1
  Mg  Mg29  1  0.95549400  0.68678400  0.49224700  1
  Mg  Mg30  1  0.30988600  0.08270700  0.53552000  1
  Mg  Mg31  1  0.45746900  0.83226100  0.50848000  1
  Mg  Mg32  1  0.71833000  0.50942700  0.57821300  1
  Mg  Mg33  1  0.94902500  0.70554100  0.56578700  1
  Mg  Mg34  1  0.22568400  0.63141200  0.59847300  1
  Mg  Mg35  1  0.44167100  0.58355600  0.54552700  1
  Mg  Mg36  1  0.03151900  0.98227300  0.52955900  1
  Mg  Mg37  1  0.73583500  0.93269500  0.51444100  1
  Mg  Mg38  1  0.81186100  0.22818400  0.55175300  1
  Mg  Mg39  1  0.85549400  0.98678400  0.59224700  1
  Mg  Mg40  1  0.20988600  0.38270700  0.63552000  1
  Mg  Mg41  1  0.35746900  0.13226100  0.60848000  1
  Mg  Mg42  1  0.61833000  0.80942700  0.67821300  1
  Mg  Mg43  1  0.84902500  0.00554100  0.66578700  1
  Mg  Mg44  1  0.12568400  0.93141200  0.69847300  1
  Mg  Mg45  1  0.34167100  0.88355600  0.64552700  1
  Mg  Mg46  1  0.93151900  0.28227300  0.62955900  1
  Mg  Mg47  1  0.63583500  0.23269500  0.61444100  1
  Mg  Mg48  1  0.71186100  0.52818400  0.65175300  1
  Mg  Mg49  1  0.75549400  0.28678400  0.69224700  1
  Mg  Mg50  1  0.10988600  0.68270700  0.73552000  1
  Mg  Mg51  1  0.25746900  0.43226100  0.70848000  1
  Mg  Mg52  1  0.83151900  0.58227300  0.72955900  1
  Mg  Mg53  1  0.53583500  0.53269500  0.71444100  1
  Ir  Ir54  1  0.38564000  0.26664500  0.28228000  1
  Ir  Ir55  1  0.88171400  0.14832300  0.26172000  1
  Ir  Ir56  1  0.86258600  0.24262400  0.20720400  1
  Ir  Ir57  1  0.50476900  0.87234400  0.23679600  1
  Ir  Ir58  1  0.45486600  0.02205100  0.28669800  1
  Ir  Ir59  1  0.81248800  0.39291700  0.25730200  1
  Ir  Ir60  1  0.18367700  0.55748400  0.22200000  1
  Ir  Ir61  1  0.69764900  0.96281100  0.27610100  1
  Ir  Ir62  1  0.56970600  0.45215700  0.26789900  1
  Ir  Ir63  1  0.92229200  0.49355500  0.21172900  1
  Ir  Ir64  1  0.44506300  0.62141300  0.23227100  1
  Ir  Ir65  1  0.30912000  0.52166800  0.27809200  1
  Ir  Ir66  1  0.95823400  0.89330000  0.26590800  1
  Ir  Ir67  1  0.00502200  0.75293700  0.21912000  1
  Ir  Ir68  1  0.36233300  0.36203100  0.22488000  1
  Ir  Ir69  1  0.28564000  0.56664500  0.38228000  1
  Ir  Ir70  1  0.78171400  0.44832300  0.36172000  1
  Ir  Ir71  1  0.76258600  0.54262400  0.30720400  1
  Ir  Ir72  1  0.40476900  0.17234400  0.33679600  1
  Ir  Ir73  1  0.35486600  0.32205100  0.38669800  1
  Ir  Ir74  1  0.71248800  0.69291700  0.35730200  1
  Ir  Ir75  1  0.08367700  0.85748400  0.32200000  1
  Ir  Ir76  1  0.59764900  0.26281100  0.37610100  1
  Ir  Ir77  1  0.46970600  0.75215700  0.36789900  1
  Ir  Ir78  1  0.82229200  0.79355500  0.31172900  1
  Ir  Ir79  1  0.34506300  0.92141300  0.33227100  1
  Ir  Ir80  1  0.20912000  0.82166800  0.37809200  1
  Ir  Ir81  1  0.85823400  0.19330000  0.36590800  1
  Ir  Ir82  1  0.90502200  0.05293700  0.31912000  1
  Ir  Ir83  1  0.26233300  0.66203100  0.32488000  1
  Ir  Ir84  1  0.18564000  0.86664500  0.48228000  1
  Ir  Ir85  1  0.68171400  0.74832300  0.46172000  1
  Ir  Ir86  1  0.66258600  0.84262400  0.40720400  1
  Ir  Ir87  1  0.30476900  0.47234400  0.43679600  1
  Ir  Ir88  1  0.25486600  0.62205100  0.48669800  1
  Ir  Ir89  1  0.61248800  0.99291700  0.45730200  1
  Ir  Ir90  1  0.98367700  0.15748400  0.42200000  1
  Ir  Ir91  1  0.49764900  0.56281100  0.47610100  1
  Ir  Ir92  1  0.36970600  0.05215700  0.46789900  1
  Ir  Ir93  1  0.72229200  0.09355500  0.41172900  1
  Ir  Ir94  1  0.24506300  0.22141300  0.43227100  1
  Ir  Ir95  1  0.10912000  0.12166800  0.47809200  1
  Ir  Ir96  1  0.75823400  0.49330000  0.46590800  1
  Ir  Ir97  1  0.80502200  0.35293700  0.41912000  1
  Ir  Ir98  1  0.16233300  0.96203100  0.42488000  1
  Ir  Ir99  1  0.08564000  0.16664500  0.58228000  1
  Ir  Ir100  1  0.58171400  0.04832300  0.56172000  1
  Ir  Ir101  1  0.56258600  0.14262400  0.50720400  1
  Ir  Ir102  1  0.20476900  0.77234400  0.53679600  1
  Ir  Ir103  1  0.15486600  0.92205100  0.58669800  1
  Ir  Ir104  1  0.51248800  0.29291700  0.55730200  1
  Ir  Ir105  1  0.88367700  0.45748400  0.52200000  1
  Ir  Ir106  1  0.39764900  0.86281100  0.57610100  1
  Ir  Ir107  1  0.26970600  0.35215700  0.56789900  1
  Ir  Ir108  1  0.62229200  0.39355500  0.51172900  1
  Ir  Ir109  1  0.14506300  0.52141300  0.53227100  1
  Ir  Ir110  1  0.00912000  0.42166800  0.57809200  1
  Ir  Ir111  1  0.65823400  0.79330000  0.56590800  1
  Ir  Ir112  1  0.70502200  0.65293700  0.51912000  1
  Ir  Ir113  1  0.06233300  0.26203100  0.52488000  1
  Ir  Ir114  1  0.98564000  0.46664500  0.68228000  1
  Ir  Ir115  1  0.48171400  0.34832300  0.66172000  1
  Ir  Ir116  1  0.46258600  0.44262400  0.60720400  1
  Ir  Ir117  1  0.10476900  0.07234400  0.63679600  1
  Ir  Ir118  1  0.05486600  0.22205100  0.68669800  1
  Ir  Ir119  1  0.41248800  0.59291700  0.65730200  1
  Ir  Ir120  1  0.78367700  0.75748400  0.62200000  1
  Ir  Ir121  1  0.29764900  0.16281100  0.67610100  1
  Ir  Ir122  1  0.16970600  0.65215700  0.66789900  1
  Ir  Ir123  1  0.52229200  0.69355500  0.61172900  1
  Ir  Ir124  1  0.04506300  0.82141300  0.63227100  1
  Ir  Ir125  1  0.90912000  0.72166800  0.67809200  1
  Ir  Ir126  1  0.55823400  0.09330000  0.66590800  1
  Ir  Ir127  1  0.60502200  0.95293700  0.61912000  1
  Ir  Ir128  1  0.96233300  0.56203100  0.62488000  1
  Ir  Ir129  1  0.36258600  0.74262400  0.70720400  1
  Ir  Ir130  1  0.00476900  0.37234400  0.73679600  1
  Ir  Ir131  1  0.68367700  0.05748400  0.72200000  1
  Ir  Ir132  1  0.42229200  0.99355500  0.71172900  1
  Ir  Ir133  1  0.94506300  0.12141300  0.73227100  1
  Ir  Ir134  1  0.50502200  0.25293700  0.71912000  1
  Ir  Ir135  1  0.86233300  0.86203100  0.72488000  1
