# generated using pymatgen
data_Mg2Sc
_symmetry_space_group_name_H-M   'P 1'
_cell_length_a   5.20787600
_cell_length_b   8.45453137
_cell_length_c   41.48543700
_cell_angle_alpha   90.44880010
_cell_angle_beta   90.00000000
_cell_angle_gamma   90.00000000
_symmetry_Int_Tables_number   1
_chemical_formula_structural   Mg2Sc
_chemical_formula_sum   'Mg32 Sc16'
_cell_volume   1826.55401880
_cell_formula_units_Z   16
loop_
 _symmetry_equiv_pos_site_id
 _symmetry_equiv_pos_as_xyz
  1  'x, y, z'
loop_
 _atom_site_type_symbol
 _atom_site_label
 _atom_site_symmetry_multiplicity
 _atom_site_fract_x
 _atom_site_fract_y
 _atom_site_fract_z
 _atom_site_occupancy
  Mg  Mg0  1  0.25000000  0.98049200  0.76078000  1
  Mg  Mg1  1  0.25000000  0.33945900  0.78642200  1
  Mg  Mg2  1  0.75000000  0.55797000  0.77768100  1
  Mg  Mg3  1  0.75000000  0.19900300  0.75204000  1
  Mg  Mg4  1  0.25000000  0.90356900  0.68385700  1
  Mg  Mg5  1  0.25000000  0.26253600  0.70949900  1
  Mg  Mg6  1  0.75000000  0.48104600  0.70075800  1
  Mg  Mg7  1  0.75000000  0.12208000  0.67511700  1
  Mg  Mg8  1  0.25000000  0.82664600  0.60693400  1
  Mg  Mg9  1  0.25000000  0.18561200  0.63257600  1
  Mg  Mg10  1  0.75000000  0.40412300  0.62383500  1
  Mg  Mg11  1  0.75000000  0.04515700  0.59819400  1
  Mg  Mg12  1  0.25000000  0.74972300  0.53001100  1
  Mg  Mg13  1  0.25000000  0.10868900  0.55565200  1
  Mg  Mg14  1  0.75000000  0.32720000  0.54691200  1
  Mg  Mg15  1  0.75000000  0.96823400  0.52127100  1
  Mg  Mg16  1  0.25000000  0.67280000  0.45308800  1
  Mg  Mg17  1  0.25000000  0.03176600  0.47872900  1
  Mg  Mg18  1  0.75000000  0.25027700  0.46998900  1
  Mg  Mg19  1  0.75000000  0.89131100  0.44434800  1
  Mg  Mg20  1  0.25000000  0.59587700  0.37616500  1
  Mg  Mg21  1  0.25000000  0.95484300  0.40180600  1
  Mg  Mg22  1  0.75000000  0.17335400  0.39306600  1
  Mg  Mg23  1  0.75000000  0.81438800  0.36742400  1
  Mg  Mg24  1  0.25000000  0.51895400  0.29924200  1
  Mg  Mg25  1  0.25000000  0.87792000  0.32488300  1
  Mg  Mg26  1  0.75000000  0.09643100  0.31614300  1
  Mg  Mg27  1  0.75000000  0.73746400  0.29050100  1
  Mg  Mg28  1  0.25000000  0.44203000  0.22231900  1
  Mg  Mg29  1  0.25000000  0.80099700  0.24796000  1
  Mg  Mg30  1  0.75000000  0.01950800  0.23922000  1
  Mg  Mg31  1  0.75000000  0.66054100  0.21357800  1
  Sc  Sc32  1  0.25000000  0.62177200  0.73512900  1
  Sc  Sc33  1  0.75000000  0.91668900  0.80333200  1
  Sc  Sc34  1  0.25000000  0.54484900  0.65820600  1
  Sc  Sc35  1  0.75000000  0.83976600  0.72640900  1
  Sc  Sc36  1  0.25000000  0.46792600  0.58128300  1
  Sc  Sc37  1  0.75000000  0.76284300  0.64948600  1
  Sc  Sc38  1  0.25000000  0.39100300  0.50436000  1
  Sc  Sc39  1  0.75000000  0.68592000  0.57256300  1
  Sc  Sc40  1  0.25000000  0.31408000  0.42743700  1
  Sc  Sc41  1  0.75000000  0.60899700  0.49564000  1
  Sc  Sc42  1  0.25000000  0.23715700  0.35051400  1
  Sc  Sc43  1  0.75000000  0.53207400  0.41871700  1
  Sc  Sc44  1  0.25000000  0.16023400  0.27359100  1
  Sc  Sc45  1  0.75000000  0.45515100  0.34179400  1
  Sc  Sc46  1  0.25000000  0.08331100  0.19666800  1
  Sc  Sc47  1  0.75000000  0.37822800  0.26487100  1
