# generated using pymatgen
data_Dy2Mg
_symmetry_space_group_name_H-M   'P 1'
_cell_length_a   5.47816800
_cell_length_b   17.10046000
_cell_length_c   44.36456300
_cell_angle_alpha   90.00000000
_cell_angle_beta   90.00000000
_cell_angle_gamma   90.00000000
_symmetry_Int_Tables_number   1
_chemical_formula_structural   Dy2Mg
_chemical_formula_sum   'Dy56 Mg28'
_cell_volume   4156.03644887
_cell_formula_units_Z   28
loop_
 _symmetry_equiv_pos_site_id
 _symmetry_equiv_pos_as_xyz
  1  'x, y, z'
loop_
 _atom_site_type_symbol
 _atom_site_label
 _atom_site_symmetry_multiplicity
 _atom_site_fract_x
 _atom_site_fract_y
 _atom_site_fract_z
 _atom_site_occupancy
  Dy  Dy0  1  0.75000000  0.90825600  0.22916700  1
  Dy  Dy1  1  0.75000000  0.72786200  0.27083300  1
  Dy  Dy2  1  0.25000000  0.59174400  0.27083300  1
  Dy  Dy3  1  0.25000000  0.77213800  0.22916700  1
  Dy  Dy4  1  0.75000000  0.40825600  0.27083300  1
  Dy  Dy5  1  0.75000000  0.22786200  0.22916700  1
  Dy  Dy6  1  0.25000000  0.09174400  0.22916700  1
  Dy  Dy7  1  0.25000000  0.27213800  0.27083300  1
  Dy  Dy8  1  0.75000000  0.90825600  0.31250000  1
  Dy  Dy9  1  0.75000000  0.72786200  0.35416700  1
  Dy  Dy10  1  0.25000000  0.59174400  0.35416700  1
  Dy  Dy11  1  0.25000000  0.77213800  0.31250000  1
  Dy  Dy12  1  0.75000000  0.40825600  0.35416700  1
  Dy  Dy13  1  0.75000000  0.22786200  0.31250000  1
  Dy  Dy14  1  0.25000000  0.09174400  0.31250000  1
  Dy  Dy15  1  0.25000000  0.27213800  0.35416700  1
  Dy  Dy16  1  0.75000000  0.90825600  0.39583300  1
  Dy  Dy17  1  0.75000000  0.72786200  0.43750000  1
  Dy  Dy18  1  0.25000000  0.59174400  0.43750000  1
  Dy  Dy19  1  0.25000000  0.77213800  0.39583300  1
  Dy  Dy20  1  0.75000000  0.40825600  0.43750000  1
  Dy  Dy21  1  0.75000000  0.22786200  0.39583300  1
  Dy  Dy22  1  0.25000000  0.09174400  0.39583300  1
  Dy  Dy23  1  0.25000000  0.27213800  0.43750000  1
  Dy  Dy24  1  0.75000000  0.90825600  0.47916700  1
  Dy  Dy25  1  0.75000000  0.72786200  0.52083300  1
  Dy  Dy26  1  0.25000000  0.59174400  0.52083300  1
  Dy  Dy27  1  0.25000000  0.77213800  0.47916700  1
  Dy  Dy28  1  0.75000000  0.40825600  0.52083300  1
  Dy  Dy29  1  0.75000000  0.22786200  0.47916700  1
  Dy  Dy30  1  0.25000000  0.09174400  0.47916700  1
  Dy  Dy31  1  0.25000000  0.27213800  0.52083300  1
  Dy  Dy32  1  0.75000000  0.90825600  0.56250000  1
  Dy  Dy33  1  0.75000000  0.72786200  0.60416700  1
  Dy  Dy34  1  0.25000000  0.59174400  0.60416700  1
  Dy  Dy35  1  0.25000000  0.77213800  0.56250000  1
  Dy  Dy36  1  0.75000000  0.40825600  0.60416700  1
  Dy  Dy37  1  0.75000000  0.22786200  0.56250000  1
  Dy  Dy38  1  0.25000000  0.09174400  0.56250000  1
  Dy  Dy39  1  0.25000000  0.27213800  0.60416700  1
  Dy  Dy40  1  0.75000000  0.90825600  0.64583300  1
  Dy  Dy41  1  0.75000000  0.72786200  0.68750000  1
  Dy  Dy42  1  0.25000000  0.59174400  0.68750000  1
  Dy  Dy43  1  0.25000000  0.77213800  0.64583300  1
  Dy  Dy44  1  0.75000000  0.40825600  0.68750000  1
  Dy  Dy45  1  0.75000000  0.22786200  0.64583300  1
  Dy  Dy46  1  0.25000000  0.09174400  0.64583300  1
  Dy  Dy47  1  0.25000000  0.27213800  0.68750000  1
  Dy  Dy48  1  0.75000000  0.90825600  0.72916700  1
  Dy  Dy49  1  0.75000000  0.72786200  0.77083300  1
  Dy  Dy50  1  0.25000000  0.59174400  0.77083300  1
  Dy  Dy51  1  0.25000000  0.77213800  0.72916700  1
  Dy  Dy52  1  0.75000000  0.40825600  0.77083300  1
  Dy  Dy53  1  0.75000000  0.22786200  0.72916700  1
  Dy  Dy54  1  0.25000000  0.09174400  0.72916700  1
  Dy  Dy55  1  0.25000000  0.27213800  0.77083300  1
  Mg  Mg56  1  0.75000000  0.56703700  0.22916700  1
  Mg  Mg57  1  0.25000000  0.93296300  0.27083300  1
  Mg  Mg58  1  0.75000000  0.06703700  0.27083300  1
  Mg  Mg59  1  0.25000000  0.43296300  0.22916700  1
  Mg  Mg60  1  0.75000000  0.56703700  0.31250000  1
  Mg  Mg61  1  0.25000000  0.93296300  0.35416700  1
  Mg  Mg62  1  0.75000000  0.06703700  0.35416700  1
  Mg  Mg63  1  0.25000000  0.43296300  0.31250000  1
  Mg  Mg64  1  0.75000000  0.56703700  0.39583300  1
  Mg  Mg65  1  0.25000000  0.93296300  0.43750000  1
  Mg  Mg66  1  0.75000000  0.06703700  0.43750000  1
  Mg  Mg67  1  0.25000000  0.43296300  0.39583300  1
  Mg  Mg68  1  0.75000000  0.56703700  0.47916700  1
  Mg  Mg69  1  0.25000000  0.93296300  0.52083300  1
  Mg  Mg70  1  0.75000000  0.06703700  0.52083300  1
  Mg  Mg71  1  0.25000000  0.43296300  0.47916700  1
  Mg  Mg72  1  0.75000000  0.56703700  0.56250000  1
  Mg  Mg73  1  0.25000000  0.93296300  0.60416700  1
  Mg  Mg74  1  0.75000000  0.06703700  0.60416700  1
  Mg  Mg75  1  0.25000000  0.43296300  0.56250000  1
  Mg  Mg76  1  0.75000000  0.56703700  0.64583300  1
  Mg  Mg77  1  0.25000000  0.93296300  0.68750000  1
  Mg  Mg78  1  0.75000000  0.06703700  0.68750000  1
  Mg  Mg79  1  0.25000000  0.43296300  0.64583300  1
  Mg  Mg80  1  0.75000000  0.56703700  0.72916700  1
  Mg  Mg81  1  0.25000000  0.93296300  0.77083300  1
  Mg  Mg82  1  0.75000000  0.06703700  0.77083300  1
  Mg  Mg83  1  0.25000000  0.43296300  0.72916700  1
