# generated using pymatgen
data_Mg289Ir66
_symmetry_space_group_name_H-M   'P 1'
_cell_length_a   16.34592500
_cell_length_b   16.34592499
_cell_length_c   49.47495900
_cell_angle_alpha   90.00000000
_cell_angle_beta   90.00000000
_cell_angle_gamma   120.00000204
_symmetry_Int_Tables_number   1
_chemical_formula_structural   Mg289Ir66
_chemical_formula_sum   'Mg289 Ir66'
_cell_volume   11448.14362589
_cell_formula_units_Z   1
loop_
 _symmetry_equiv_pos_site_id
 _symmetry_equiv_pos_as_xyz
  1  'x, y, z'
loop_
 _atom_site_type_symbol
 _atom_site_label
 _atom_site_symmetry_multiplicity
 _atom_site_fract_x
 _atom_site_fract_y
 _atom_site_fract_z
 _atom_site_occupancy
  Mg  Mg0  1  0.16666700  0.83333300  0.30295100  1
  Mg  Mg1  1  0.33333300  0.16666700  0.27517400  1
  Mg  Mg2  1  0.16666700  0.83333300  0.21961800  1
  Mg  Mg3  1  0.83333300  0.66666700  0.27517400  1
  Mg  Mg4  1  0.29920900  0.96587500  0.26128500  1
  Mg  Mg5  1  0.33333300  0.03412500  0.31684000  1
  Mg  Mg6  1  0.96587500  0.66666700  0.23350700  1
  Mg  Mg7  1  0.00000000  0.63254200  0.28906200  1
  Mg  Mg8  1  0.00000000  0.00000000  0.28906200  1
  Mg  Mg9  1  0.03148300  0.85665900  0.26050800  1
  Mg  Mg10  1  0.81000700  0.50815700  0.31606400  1
  Mg  Mg11  1  0.96851700  0.82517600  0.31761700  1
  Mg  Mg12  1  0.18999300  0.69815000  0.26206100  1
  Mg  Mg13  1  0.17482400  0.03148300  0.23428300  1
  Mg  Mg14  1  0.52332600  0.15850900  0.28983900  1
  Mg  Mg15  1  0.49184300  0.18999300  0.23273000  1
  Mg  Mg16  1  0.36481700  0.84149100  0.28828600  1
  Mg  Mg17  1  0.00000000  0.50000000  0.24739600  1
  Mg  Mg18  1  0.50000000  0.00000000  0.24739600  1
  Mg  Mg19  1  0.00000000  0.50000000  0.33072900  1
  Mg  Mg20  1  0.83333300  0.16666700  0.27517400  1
  Mg  Mg21  1  0.50000000  0.00000000  0.33072900  1
  Mg  Mg22  1  0.03412500  0.33333300  0.26128500  1
  Mg  Mg23  1  0.96587500  0.29920900  0.31684000  1
  Mg  Mg24  1  0.63254200  0.00000000  0.28906200  1
  Mg  Mg25  1  0.70079100  0.03412500  0.23350700  1
  Mg  Mg26  1  0.66666700  0.33333300  0.26128500  1
  Mg  Mg27  1  0.69815000  0.18999300  0.31606400  1
  Mg  Mg28  1  0.82517600  0.96851700  0.26050800  1
  Mg  Mg29  1  0.50815700  0.81000700  0.26206100  1
  Mg  Mg30  1  0.85665900  0.03148300  0.31761700  1
  Mg  Mg31  1  0.96851700  0.14334100  0.23428300  1
  Mg  Mg32  1  0.84149100  0.36481700  0.28983900  1
  Mg  Mg33  1  0.15850900  0.52332600  0.28828600  1
  Mg  Mg34  1  0.81000700  0.30185000  0.23273000  1
  Mg  Mg35  1  0.66666700  0.83333300  0.30295100  1
  Mg  Mg36  1  0.50000000  0.50000000  0.24739600  1
  Mg  Mg37  1  0.16666700  0.33333300  0.30295100  1
  Mg  Mg38  1  0.66666700  0.83333300  0.21961800  1
  Mg  Mg39  1  0.50000000  0.50000000  0.33072900  1
  Mg  Mg40  1  0.16666700  0.33333300  0.21961800  1
  Mg  Mg41  1  0.70079100  0.66666700  0.31684000  1
  Mg  Mg42  1  0.66666700  0.70079100  0.26128500  1
  Mg  Mg43  1  0.36745800  0.36745800  0.28906200  1
  Mg  Mg44  1  0.33333300  0.29920900  0.23350700  1
  Mg  Mg45  1  0.33333300  0.66666700  0.31684000  1
  Mg  Mg46  1  0.33333300  0.66666700  0.23350700  1
  Mg  Mg47  1  0.49184300  0.30185000  0.31606400  1
  Mg  Mg48  1  0.14334100  0.17482400  0.26050800  1
  Mg  Mg49  1  0.17482400  0.14334100  0.31761700  1
  Mg  Mg50  1  0.30185000  0.49184300  0.26206100  1
  Mg  Mg51  1  0.63518300  0.47667400  0.28983900  1
  Mg  Mg52  1  0.85665900  0.82517600  0.23428300  1
  Mg  Mg53  1  0.69815000  0.50815700  0.23273000  1
  Mg  Mg54  1  0.47667400  0.63518300  0.28828600  1
  Mg  Mg55  1  0.33333300  0.16666700  0.35850700  1
  Mg  Mg56  1  0.16666700  0.83333300  0.46961800  1
  Mg  Mg57  1  0.83333300  0.66666700  0.35850700  1
  Mg  Mg58  1  0.33333300  0.16666700  0.44184000  1
  Mg  Mg59  1  0.16666700  0.83333300  0.38628500  1
  Mg  Mg60  1  0.83333300  0.66666700  0.44184000  1
  Mg  Mg61  1  0.36745800  0.00000000  0.37239600  1
  Mg  Mg62  1  0.29920900  0.96587500  0.42795100  1
  Mg  Mg63  1  0.33333300  0.03412500  0.48350700  1
  Mg  Mg64  1  0.96587500  0.66666700  0.40017400  1
  Mg  Mg65  1  0.03412500  0.70079100  0.34461800  1
  Mg  Mg66  1  0.00000000  0.63254200  0.45572900  1
  Mg  Mg67  1  0.00000000  0.00000000  0.37239600  1
  Mg  Mg68  1  0.00000000  0.00000000  0.45572900  1
  Mg  Mg69  1  0.03148300  0.85665900  0.42717500  1
  Mg  Mg70  1  0.15850900  0.63518300  0.37161900  1
  Mg  Mg71  1  0.81000700  0.50815700  0.48273000  1
  Mg  Mg72  1  0.84149100  0.47667400  0.37317200  1
  Mg  Mg73  1  0.96851700  0.82517600  0.48428300  1
  Mg  Mg74  1  0.18999300  0.69815000  0.42872800  1
  Mg  Mg75  1  0.30185000  0.81000700  0.34539500  1
  Mg  Mg76  1  0.17482400  0.03148300  0.40095000  1
  Mg  Mg77  1  0.52332600  0.15850900  0.45650600  1
  Mg  Mg78  1  0.49184300  0.18999300  0.39939700  1
  Mg  Mg79  1  0.36481700  0.84149100  0.45495300  1
  Mg  Mg80  1  0.14334100  0.96851700  0.34384200  1
  Mg  Mg81  1  0.00000000  0.50000000  0.41406200  1
  Mg  Mg82  1  0.83333300  0.16666700  0.35850700  1
  Mg  Mg83  1  0.50000000  0.00000000  0.41406200  1
  Mg  Mg84  1  0.00000000  0.50000000  0.49739600  1
  Mg  Mg85  1  0.83333300  0.16666700  0.44184000  1
  Mg  Mg86  1  0.50000000  0.00000000  0.49739600  1
  Mg  Mg87  1  0.03412500  0.33333300  0.42795100  1
  Mg  Mg88  1  0.96587500  0.29920900  0.48350700  1
  Mg  Mg89  1  1.00000000  0.36745800  0.37239600  1
  Mg  Mg90  1  0.63254200  0.00000000  0.45572900  1
  Mg  Mg91  1  0.70079100  0.03412500  0.40017400  1
  Mg  Mg92  1  0.66666700  0.96587500  0.34461800  1
  Mg  Mg93  1  0.66666700  0.33333300  0.42795100  1
  Mg  Mg94  1  0.66666700  0.33333300  0.34461800  1
  Mg  Mg95  1  0.69815000  0.18999300  0.48273000  1
  Mg  Mg96  1  0.82517600  0.96851700  0.42717500  1
  Mg  Mg97  1  0.47667400  0.84149100  0.37161900  1
  Mg  Mg98  1  0.50815700  0.81000700  0.42872800  1
  Mg  Mg99  1  0.63518300  0.15850900  0.37317200  1
  Mg  Mg100  1  0.85665900  0.03148300  0.48428300  1
  Mg  Mg101  1  0.96851700  0.14334100  0.40095000  1
  Mg  Mg102  1  0.84149100  0.36481700  0.45650600  1
  Mg  Mg103  1  0.18999300  0.49184300  0.34539500  1
  Mg  Mg104  1  0.15850900  0.52332600  0.45495300  1
  Mg  Mg105  1  0.03148300  0.17482400  0.34384200  1
  Mg  Mg106  1  0.81000700  0.30185000  0.39939700  1
  Mg  Mg107  1  0.66666700  0.83333300  0.46961800  1
  Mg  Mg108  1  0.50000000  0.50000000  0.41406200  1
  Mg  Mg109  1  0.16666700  0.33333300  0.46961800  1
  Mg  Mg110  1  0.66666700  0.83333300  0.38628500  1
  Mg  Mg111  1  0.50000000  0.50000000  0.49739600  1
  Mg  Mg112  1  0.16666700  0.33333300  0.38628500  1
  Mg  Mg113  1  0.70079100  0.66666700  0.48350700  1
  Mg  Mg114  1  0.63254200  0.63254200  0.37239600  1
  Mg  Mg115  1  0.66666700  0.70079100  0.42795100  1
  Mg  Mg116  1  0.29920900  0.33333300  0.34461800  1
  Mg  Mg117  1  0.36745800  0.36745800  0.45572900  1
  Mg  Mg118  1  0.33333300  0.29920900  0.40017400  1
  Mg  Mg119  1  0.33333300  0.66666700  0.48350700  1
  Mg  Mg120  1  0.33333300  0.66666700  0.40017400  1
  Mg  Mg121  1  0.36481700  0.52332600  0.37161900  1
  Mg  Mg122  1  0.49184300  0.30185000  0.48273000  1
  Mg  Mg123  1  0.14334100  0.17482400  0.42717500  1
  Mg  Mg124  1  0.17482400  0.14334100  0.48428300  1
  Mg  Mg125  1  0.30185000  0.49184300  0.42872800  1
  Mg  Mg126  1  0.52332600  0.36481700  0.37317200  1
  Mg  Mg127  1  0.63518300  0.47667400  0.45650600  1
  Mg  Mg128  1  0.50815700  0.69815000  0.34539500  1
  Mg  Mg129  1  0.85665900  0.82517600  0.40095000  1
  Mg  Mg130  1  0.82517600  0.85665900  0.34384200  1
  Mg  Mg131  1  0.69815000  0.50815700  0.39939700  1
  Mg  Mg132  1  0.47667400  0.63518300  0.45495300  1
  Mg  Mg133  1  0.33333300  0.16666700  0.52517400  1
  Mg  Mg134  1  0.16666700  0.83333300  0.63628500  1
  Mg  Mg135  1  0.83333300  0.66666700  0.52517400  1
  Mg  Mg136  1  0.33333300  0.16666700  0.60850700  1
  Mg  Mg137  1  0.16666700  0.83333300  0.55295100  1
  Mg  Mg138  1  0.83333300  0.66666700  0.60850700  1
  Mg  Mg139  1  0.36745800  0.00000000  0.53906200  1
  Mg  Mg140  1  0.29920900  0.96587500  0.59461800  1
  Mg  Mg141  1  0.33333300  0.03412500  0.65017400  1
  Mg  Mg142  1  0.96587500  0.66666700  0.56684000  1
  Mg  Mg143  1  0.03412500  0.70079100  0.51128500  1
  Mg  Mg144  1  0.00000000  0.63254200  0.62239600  1
  Mg  Mg145  1  0.00000000  0.00000000  0.53906200  1
  Mg  Mg146  1  0.00000000  0.00000000  0.62239600  1
  Mg  Mg147  1  0.03148300  0.85665900  0.59384200  1
  Mg  Mg148  1  0.15850900  0.63518300  0.53828600  1
  Mg  Mg149  1  0.81000700  0.50815700  0.64939700  1
  Mg  Mg150  1  0.84149100  0.47667400  0.53983900  1
  Mg  Mg151  1  0.96851700  0.82517600  0.65095000  1
  Mg  Mg152  1  0.18999300  0.69815000  0.59539500  1
  Mg  Mg153  1  0.30185000  0.81000700  0.51206100  1
  Mg  Mg154  1  0.17482400  0.03148300  0.56761700  1
  Mg  Mg155  1  0.52332600  0.15850900  0.62317200  1
  Mg  Mg156  1  0.49184300  0.18999300  0.56606400  1
  Mg  Mg157  1  0.36481700  0.84149100  0.62161900  1
  Mg  Mg158  1  0.14334100  0.96851700  0.51050800  1
  Mg  Mg159  1  0.00000000  0.50000000  0.58072900  1
  Mg  Mg160  1  0.83333300  0.16666700  0.52517400  1
  Mg  Mg161  1  0.50000000  0.00000000  0.58072900  1
  Mg  Mg162  1  0.00000000  0.50000000  0.66406200  1
  Mg  Mg163  1  0.83333300  0.16666700  0.60850700  1
  Mg  Mg164  1  0.50000000  0.00000000  0.66406200  1
  Mg  Mg165  1  0.03412500  0.33333300  0.59461800  1
  Mg  Mg166  1  0.96587500  0.29920900  0.65017400  1
  Mg  Mg167  1  1.00000000  0.36745800  0.53906200  1
  Mg  Mg168  1  0.63254200  0.00000000  0.62239600  1
  Mg  Mg169  1  0.70079100  0.03412500  0.56684000  1
  Mg  Mg170  1  0.66666700  0.96587500  0.51128500  1
  Mg  Mg171  1  0.66666700  0.33333300  0.59461800  1
  Mg  Mg172  1  0.66666700  0.33333300  0.51128500  1
  Mg  Mg173  1  0.69815000  0.18999300  0.64939700  1
  Mg  Mg174  1  0.82517600  0.96851700  0.59384200  1
  Mg  Mg175  1  0.47667400  0.84149100  0.53828600  1
  Mg  Mg176  1  0.50815700  0.81000700  0.59539500  1
  Mg  Mg177  1  0.63518300  0.15850900  0.53983900  1
  Mg  Mg178  1  0.85665900  0.03148300  0.65095000  1
  Mg  Mg179  1  0.96851700  0.14334100  0.56761700  1
  Mg  Mg180  1  0.84149100  0.36481700  0.62317200  1
  Mg  Mg181  1  0.18999300  0.49184300  0.51206100  1
  Mg  Mg182  1  0.15850900  0.52332600  0.62161900  1
  Mg  Mg183  1  0.03148300  0.17482400  0.51050800  1
  Mg  Mg184  1  0.81000700  0.30185000  0.56606400  1
  Mg  Mg185  1  0.66666700  0.83333300  0.63628500  1
  Mg  Mg186  1  0.50000000  0.50000000  0.58072900  1
  Mg  Mg187  1  0.16666700  0.33333300  0.63628500  1
  Mg  Mg188  1  0.66666700  0.83333300  0.55295100  1
  Mg  Mg189  1  0.50000000  0.50000000  0.66406200  1
  Mg  Mg190  1  0.16666700  0.33333300  0.55295100  1
  Mg  Mg191  1  0.70079100  0.66666700  0.65017400  1
  Mg  Mg192  1  0.63254200  0.63254200  0.53906200  1
  Mg  Mg193  1  0.66666700  0.70079100  0.59461800  1
  Mg  Mg194  1  0.29920900  0.33333300  0.51128500  1
  Mg  Mg195  1  0.36745800  0.36745800  0.62239600  1
  Mg  Mg196  1  0.33333300  0.29920900  0.56684000  1
  Mg  Mg197  1  0.33333300  0.66666700  0.65017400  1
  Mg  Mg198  1  0.33333300  0.66666700  0.56684000  1
  Mg  Mg199  1  0.36481700  0.52332600  0.53828600  1
  Mg  Mg200  1  0.49184300  0.30185000  0.64939700  1
  Mg  Mg201  1  0.14334100  0.17482400  0.59384200  1
  Mg  Mg202  1  0.17482400  0.14334100  0.65095000  1
  Mg  Mg203  1  0.30185000  0.49184300  0.59539500  1
  Mg  Mg204  1  0.52332600  0.36481700  0.53983900  1
  Mg  Mg205  1  0.63518300  0.47667400  0.62317200  1
  Mg  Mg206  1  0.50815700  0.69815000  0.51206100  1
  Mg  Mg207  1  0.85665900  0.82517600  0.56761700  1
  Mg  Mg208  1  0.82517600  0.85665900  0.51050800  1
  Mg  Mg209  1  0.69815000  0.50815700  0.56606400  1
  Mg  Mg210  1  0.47667400  0.63518300  0.62161900  1
  Mg  Mg211  1  0.33333300  0.16666700  0.69184000  1
  Mg  Mg212  1  0.16666700  0.83333300  0.80295100  1
  Mg  Mg213  1  0.83333300  0.66666700  0.69184000  1
  Mg  Mg214  1  0.33333300  0.16666700  0.77517400  1
  Mg  Mg215  1  0.16666700  0.83333300  0.71961800  1
  Mg  Mg216  1  0.83333300  0.66666700  0.77517400  1
  Mg  Mg217  1  0.36745800  0.00000000  0.70572900  1
  Mg  Mg218  1  0.29920900  0.96587500  0.76128500  1
  Mg  Mg219  1  0.33333300  0.03412500  0.81684000  1
  Mg  Mg220  1  0.96587500  0.66666700  0.73350700  1
  Mg  Mg221  1  0.03412500  0.70079100  0.67795100  1
  Mg  Mg222  1  0.00000000  0.63254200  0.78906200  1
  Mg  Mg223  1  0.00000000  0.00000000  0.70572900  1
  Mg  Mg224  1  0.00000000  0.00000000  0.78906200  1
  Mg  Mg225  1  0.03148300  0.85665900  0.76050800  1
  Mg  Mg226  1  0.15850900  0.63518300  0.70495300  1
  Mg  Mg227  1  0.81000700  0.50815700  0.81606400  1
  Mg  Mg228  1  0.84149100  0.47667400  0.70650600  1
  Mg  Mg229  1  0.96851700  0.82517600  0.81761700  1
  Mg  Mg230  1  0.18999300  0.69815000  0.76206100  1
  Mg  Mg231  1  0.30185000  0.81000700  0.67872800  1
  Mg  Mg232  1  0.17482400  0.03148300  0.73428300  1
  Mg  Mg233  1  0.52332600  0.15850900  0.78983900  1
  Mg  Mg234  1  0.49184300  0.18999300  0.73273000  1
  Mg  Mg235  1  0.36481700  0.84149100  0.78828600  1
  Mg  Mg236  1  0.14334100  0.96851700  0.67717500  1
  Mg  Mg237  1  0.00000000  0.50000000  0.74739600  1
  Mg  Mg238  1  0.83333300  0.16666700  0.69184000  1
  Mg  Mg239  1  0.50000000  0.00000000  0.74739600  1
  Mg  Mg240  1  0.00000000  0.50000000  0.83072900  1
  Mg  Mg241  1  0.83333300  0.16666700  0.77517400  1
  Mg  Mg242  1  0.50000000  0.00000000  0.83072900  1
  Mg  Mg243  1  0.03412500  0.33333300  0.76128500  1
  Mg  Mg244  1  0.96587500  0.29920900  0.81684000  1
  Mg  Mg245  1  1.00000000  0.36745800  0.70572900  1
  Mg  Mg246  1  0.63254200  0.00000000  0.78906200  1
  Mg  Mg247  1  0.70079100  0.03412500  0.73350700  1
  Mg  Mg248  1  0.66666700  0.96587500  0.67795100  1
  Mg  Mg249  1  0.66666700  0.33333300  0.76128500  1
  Mg  Mg250  1  0.66666700  0.33333300  0.67795100  1
  Mg  Mg251  1  0.69815000  0.18999300  0.81606400  1
  Mg  Mg252  1  0.82517600  0.96851700  0.76050800  1
  Mg  Mg253  1  0.47667400  0.84149100  0.70495300  1
  Mg  Mg254  1  0.50815700  0.81000700  0.76206100  1
  Mg  Mg255  1  0.63518300  0.15850900  0.70650600  1
  Mg  Mg256  1  0.85665900  0.03148300  0.81761700  1
  Mg  Mg257  1  0.96851700  0.14334100  0.73428300  1
  Mg  Mg258  1  0.84149100  0.36481700  0.78983900  1
  Mg  Mg259  1  0.18999300  0.49184300  0.67872800  1
  Mg  Mg260  1  0.15850900  0.52332600  0.78828600  1
  Mg  Mg261  1  0.03148300  0.17482400  0.67717500  1
  Mg  Mg262  1  0.81000700  0.30185000  0.73273000  1
  Mg  Mg263  1  0.66666700  0.83333300  0.80295100  1
  Mg  Mg264  1  0.50000000  0.50000000  0.74739600  1
  Mg  Mg265  1  0.16666700  0.33333300  0.80295100  1
  Mg  Mg266  1  0.66666700  0.83333300  0.71961800  1
  Mg  Mg267  1  0.50000000  0.50000000  0.83072900  1
  Mg  Mg268  1  0.16666700  0.33333300  0.71961800  1
  Mg  Mg269  1  0.70079100  0.66666700  0.81684000  1
  Mg  Mg270  1  0.63254200  0.63254200  0.70572900  1
  Mg  Mg271  1  0.66666700  0.70079100  0.76128500  1
  Mg  Mg272  1  0.29920900  0.33333300  0.67795100  1
  Mg  Mg273  1  0.36745800  0.36745800  0.78906200  1
  Mg  Mg274  1  0.33333300  0.29920900  0.73350700  1
  Mg  Mg275  1  0.33333300  0.66666700  0.81684000  1
  Mg  Mg276  1  0.33333300  0.66666700  0.73350700  1
  Mg  Mg277  1  0.36481700  0.52332600  0.70495300  1
  Mg  Mg278  1  0.49184300  0.30185000  0.81606400  1
  Mg  Mg279  1  0.14334100  0.17482400  0.76050800  1
  Mg  Mg280  1  0.17482400  0.14334100  0.81761700  1
  Mg  Mg281  1  0.30185000  0.49184300  0.76206100  1
  Mg  Mg282  1  0.52332600  0.36481700  0.70650600  1
  Mg  Mg283  1  0.63518300  0.47667400  0.78983900  1
  Mg  Mg284  1  0.50815700  0.69815000  0.67872800  1
  Mg  Mg285  1  0.85665900  0.82517600  0.73428300  1
  Mg  Mg286  1  0.82517600  0.85665900  0.67717500  1
  Mg  Mg287  1  0.69815000  0.50815700  0.73273000  1
  Mg  Mg288  1  0.47667400  0.63518300  0.78828600  1
  Ir  Ir289  1  0.33333300  0.83931700  0.23350700  1
  Ir  Ir290  1  0.17265100  0.00000000  0.28906200  1
  Ir  Ir291  1  0.83931700  0.50598400  0.26128500  1
  Ir  Ir292  1  0.16068300  0.66666700  0.31684000  1
  Ir  Ir293  1  1.00000000  0.17265100  0.28906200  1
  Ir  Ir294  1  0.16068300  0.49401600  0.23350700  1
  Ir  Ir295  1  0.66666700  0.16068300  0.26128500  1
  Ir  Ir296  1  0.50598400  0.83931700  0.31684000  1
  Ir  Ir297  1  0.82734900  0.82734900  0.28906200  1
  Ir  Ir298  1  0.50598400  0.66666700  0.23350700  1
  Ir  Ir299  1  0.33333300  0.49401600  0.31684000  1
  Ir  Ir300  1  0.49401600  0.33333300  0.26128500  1
  Ir  Ir301  1  0.33333300  0.83931700  0.40017400  1
  Ir  Ir302  1  0.49401600  0.16068300  0.34461800  1
  Ir  Ir303  1  0.17265100  0.00000000  0.45572900  1
  Ir  Ir304  1  1.00000000  0.82734900  0.37239600  1
  Ir  Ir305  1  0.83931700  0.50598400  0.42795100  1
  Ir  Ir306  1  0.16068300  0.66666700  0.48350700  1
  Ir  Ir307  1  1.00000000  0.17265100  0.45572900  1
  Ir  Ir308  1  0.16068300  0.49401600  0.40017400  1
  Ir  Ir309  1  0.83931700  0.33333300  0.34461800  1
  Ir  Ir310  1  0.66666700  0.16068300  0.42795100  1
  Ir  Ir311  1  0.50598400  0.83931700  0.48350700  1
  Ir  Ir312  1  0.82734900  0.00000000  0.37239600  1
  Ir  Ir313  1  0.66666700  0.50598400  0.34461800  1
  Ir  Ir314  1  0.82734900  0.82734900  0.45572900  1
  Ir  Ir315  1  0.50598400  0.66666700  0.40017400  1
  Ir  Ir316  1  0.33333300  0.49401600  0.48350700  1
  Ir  Ir317  1  0.17265100  0.17265100  0.37239600  1
  Ir  Ir318  1  0.49401600  0.33333300  0.42795100  1
  Ir  Ir319  1  0.33333300  0.83931700  0.56684000  1
  Ir  Ir320  1  0.49401600  0.16068300  0.51128500  1
  Ir  Ir321  1  0.17265100  0.00000000  0.62239600  1
  Ir  Ir322  1  1.00000000  0.82734900  0.53906200  1
  Ir  Ir323  1  0.83931700  0.50598400  0.59461800  1
  Ir  Ir324  1  0.16068300  0.66666700  0.65017400  1
  Ir  Ir325  1  1.00000000  0.17265100  0.62239600  1
  Ir  Ir326  1  0.16068300  0.49401600  0.56684000  1
  Ir  Ir327  1  0.83931700  0.33333300  0.51128500  1
  Ir  Ir328  1  0.66666700  0.16068300  0.59461800  1
  Ir  Ir329  1  0.50598400  0.83931700  0.65017400  1
  Ir  Ir330  1  0.82734900  0.00000000  0.53906200  1
  Ir  Ir331  1  0.66666700  0.50598400  0.51128500  1
  Ir  Ir332  1  0.82734900  0.82734900  0.62239600  1
  Ir  Ir333  1  0.50598400  0.66666700  0.56684000  1
  Ir  Ir334  1  0.33333300  0.49401600  0.65017400  1
  Ir  Ir335  1  0.17265100  0.17265100  0.53906200  1
  Ir  Ir336  1  0.49401600  0.33333300  0.59461800  1
  Ir  Ir337  1  0.33333300  0.83931700  0.73350700  1
  Ir  Ir338  1  0.49401600  0.16068300  0.67795100  1
  Ir  Ir339  1  0.17265100  0.00000000  0.78906200  1
  Ir  Ir340  1  1.00000000  0.82734900  0.70572900  1
  Ir  Ir341  1  0.83931700  0.50598400  0.76128500  1
  Ir  Ir342  1  0.16068300  0.66666700  0.81684000  1
  Ir  Ir343  1  1.00000000  0.17265100  0.78906200  1
  Ir  Ir344  1  0.16068300  0.49401600  0.73350700  1
  Ir  Ir345  1  0.83931700  0.33333300  0.67795100  1
  Ir  Ir346  1  0.66666700  0.16068300  0.76128500  1
  Ir  Ir347  1  0.50598400  0.83931700  0.81684000  1
  Ir  Ir348  1  0.82734900  0.00000000  0.70572900  1
  Ir  Ir349  1  0.66666700  0.50598400  0.67795100  1
  Ir  Ir350  1  0.82734900  0.82734900  0.78906200  1
  Ir  Ir351  1  0.50598400  0.66666700  0.73350700  1
  Ir  Ir352  1  0.33333300  0.49401600  0.81684000  1
  Ir  Ir353  1  0.17265100  0.17265100  0.70572900  1
  Ir  Ir354  1  0.49401600  0.33333300  0.76128500  1
