# generated using pymatgen
data_Mg4Ag13
_symmetry_space_group_name_H-M   'P 1'
_cell_length_a   4.80183000
_cell_length_b   10.23246982
_cell_length_c   44.60230200
_cell_angle_alpha   83.41322324
_cell_angle_beta   90.00000000
_cell_angle_gamma   90.00000000
_symmetry_Int_Tables_number   1
_chemical_formula_structural   Mg4Ag13
_chemical_formula_sum   'Mg16 Ag52'
_cell_volume   2177.04978854
_cell_formula_units_Z   4
loop_
 _symmetry_equiv_pos_site_id
 _symmetry_equiv_pos_as_xyz
  1  'x, y, z'
loop_
 _atom_site_type_symbol
 _atom_site_label
 _atom_site_symmetry_multiplicity
 _atom_site_fract_x
 _atom_site_fract_y
 _atom_site_fract_z
 _atom_site_occupancy
  Mg  Mg0  1  0.25000000  0.93331100  0.25000000  1
  Mg  Mg1  1  0.75000000  0.26664500  0.25000000  1
  Mg  Mg2  1  0.25000000  0.39997800  0.31666700  1
  Mg  Mg3  1  0.75000000  0.73331100  0.31666700  1
  Mg  Mg4  1  0.25000000  0.86664500  0.38333300  1
  Mg  Mg5  1  0.75000000  0.19997800  0.38333300  1
  Mg  Mg6  1  0.25000000  0.33331100  0.45000000  1
  Mg  Mg7  1  0.75000000  0.66664500  0.45000000  1
  Mg  Mg8  1  0.25000000  0.79997800  0.51666700  1
  Mg  Mg9  1  0.75000000  0.13331100  0.51666700  1
  Mg  Mg10  1  0.25000000  0.26664500  0.58333300  1
  Mg  Mg11  1  0.75000000  0.59997800  0.58333300  1
  Mg  Mg12  1  0.25000000  0.73331100  0.65000000  1
  Mg  Mg13  1  0.75000000  0.06664500  0.65000000  1
  Mg  Mg14  1  0.25000000  0.19997800  0.71666700  1
  Mg  Mg15  1  0.75000000  0.53331100  0.71666700  1
  Ag  Ag16  1  0.25000000  0.69996100  0.21667200  1
  Ag  Ag17  1  0.25000000  0.43333900  0.25000000  1
  Ag  Ag18  1  0.25000000  0.19996700  0.21666100  1
  Ag  Ag19  1  0.75000000  0.53332200  0.21667200  1
  Ag  Ag20  1  0.75000000  0.76661700  0.25000000  1
  Ag  Ag21  1  0.75000000  0.03332800  0.21666100  1
  Ag  Ag22  1  0.25000000  0.16662800  0.28333900  1
  Ag  Ag23  1  0.25000000  0.90000600  0.31666700  1
  Ag  Ag24  1  0.25000000  0.66663400  0.28332800  1
  Ag  Ag25  1  0.75000000  0.99998900  0.28333900  1
  Ag  Ag26  1  0.75000000  0.23328400  0.31666700  1
  Ag  Ag27  1  0.75000000  0.49999400  0.28332800  1
  Ag  Ag28  1  0.25000000  0.63329500  0.35000600  1
  Ag  Ag29  1  0.25000000  0.36667200  0.38333300  1
  Ag  Ag30  1  0.25000000  0.13330000  0.34999400  1
  Ag  Ag31  1  0.75000000  0.46665600  0.35000600  1
  Ag  Ag32  1  0.75000000  0.69995000  0.38333300  1
  Ag  Ag33  1  0.75000000  0.96666100  0.34999400  1
  Ag  Ag34  1  0.25000000  0.09996100  0.41667200  1
  Ag  Ag35  1  0.25000000  0.83333900  0.45000000  1
  Ag  Ag36  1  0.25000000  0.59996700  0.41666100  1
  Ag  Ag37  1  0.75000000  0.93332200  0.41667200  1
  Ag  Ag38  1  0.75000000  0.16661700  0.45000000  1
  Ag  Ag39  1  0.75000000  0.43332800  0.41666100  1
  Ag  Ag40  1  0.25000000  0.56662800  0.48333900  1
  Ag  Ag41  1  0.25000000  0.30000600  0.51666700  1
  Ag  Ag42  1  0.25000000  0.06663400  0.48332800  1
  Ag  Ag43  1  0.75000000  0.39998900  0.48333900  1
  Ag  Ag44  1  0.75000000  0.63328400  0.51666700  1
  Ag  Ag45  1  0.75000000  0.89999400  0.48332800  1
  Ag  Ag46  1  0.25000000  0.03329500  0.55000600  1
  Ag  Ag47  1  0.25000000  0.76667200  0.58333300  1
  Ag  Ag48  1  0.25000000  0.53330000  0.54999400  1
  Ag  Ag49  1  0.75000000  0.86665600  0.55000600  1
  Ag  Ag50  1  0.75000000  0.09995000  0.58333300  1
  Ag  Ag51  1  0.75000000  0.36666100  0.54999400  1
  Ag  Ag52  1  0.25000000  0.49996100  0.61667200  1
  Ag  Ag53  1  0.25000000  0.23333900  0.65000000  1
  Ag  Ag54  1  0.25000000  0.99996700  0.61666100  1
  Ag  Ag55  1  0.75000000  0.33332200  0.61667200  1
  Ag  Ag56  1  0.75000000  0.56661700  0.65000000  1
  Ag  Ag57  1  0.75000000  0.83332800  0.61666100  1
  Ag  Ag58  1  0.25000000  0.96662800  0.68333900  1
  Ag  Ag59  1  0.25000000  0.70000600  0.71666700  1
  Ag  Ag60  1  0.25000000  0.46663400  0.68332800  1
  Ag  Ag61  1  0.75000000  0.79998900  0.68333900  1
  Ag  Ag62  1  0.75000000  0.03328400  0.71666700  1
  Ag  Ag63  1  0.75000000  0.29999400  0.68332800  1
  Ag  Ag64  1  0.25000000  0.43329500  0.75000600  1
  Ag  Ag65  1  0.25000000  0.93330000  0.74999400  1
  Ag  Ag66  1  0.75000000  0.26665600  0.75000600  1
  Ag  Ag67  1  0.75000000  0.76666100  0.74999400  1
