# generated using pymatgen
data_Pr2Mg
_symmetry_space_group_name_H-M   'P 1'
_cell_length_a   5.72809200
_cell_length_b   17.50215100
_cell_length_c   42.55510900
_cell_angle_alpha   90.00000000
_cell_angle_beta   90.00000000
_cell_angle_gamma   90.00000000
_symmetry_Int_Tables_number   1
_chemical_formula_structural   Pr2Mg
_chemical_formula_sum   'Pr56 Mg28'
_cell_volume   4266.31696674
_cell_formula_units_Z   28
loop_
 _symmetry_equiv_pos_site_id
 _symmetry_equiv_pos_as_xyz
  1  'x, y, z'
loop_
 _atom_site_type_symbol
 _atom_site_label
 _atom_site_symmetry_multiplicity
 _atom_site_fract_x
 _atom_site_fract_y
 _atom_site_fract_z
 _atom_site_occupancy
  Pr  Pr0  1  0.25000000  0.91394200  0.25000000  1
  Pr  Pr1  1  0.25000000  0.73404300  0.20454500  1
  Pr  Pr2  1  0.75000000  0.58605800  0.20454500  1
  Pr  Pr3  1  0.75000000  0.76595700  0.25000000  1
  Pr  Pr4  1  0.25000000  0.41394200  0.20454500  1
  Pr  Pr5  1  0.25000000  0.23404300  0.25000000  1
  Pr  Pr6  1  0.75000000  0.08605800  0.25000000  1
  Pr  Pr7  1  0.75000000  0.26595700  0.20454500  1
  Pr  Pr8  1  0.25000000  0.91394200  0.34090900  1
  Pr  Pr9  1  0.25000000  0.73404300  0.29545500  1
  Pr  Pr10  1  0.75000000  0.58605800  0.29545500  1
  Pr  Pr11  1  0.75000000  0.76595700  0.34090900  1
  Pr  Pr12  1  0.25000000  0.41394200  0.29545500  1
  Pr  Pr13  1  0.25000000  0.23404300  0.34090900  1
  Pr  Pr14  1  0.75000000  0.08605800  0.34090900  1
  Pr  Pr15  1  0.75000000  0.26595700  0.29545500  1
  Pr  Pr16  1  0.25000000  0.91394200  0.43181800  1
  Pr  Pr17  1  0.25000000  0.73404300  0.38636400  1
  Pr  Pr18  1  0.75000000  0.58605800  0.38636400  1
  Pr  Pr19  1  0.75000000  0.76595700  0.43181800  1
  Pr  Pr20  1  0.25000000  0.41394200  0.38636400  1
  Pr  Pr21  1  0.25000000  0.23404300  0.43181800  1
  Pr  Pr22  1  0.75000000  0.08605800  0.43181800  1
  Pr  Pr23  1  0.75000000  0.26595700  0.38636400  1
  Pr  Pr24  1  0.25000000  0.91394200  0.52272700  1
  Pr  Pr25  1  0.25000000  0.73404300  0.47727300  1
  Pr  Pr26  1  0.75000000  0.58605800  0.47727300  1
  Pr  Pr27  1  0.75000000  0.76595700  0.52272700  1
  Pr  Pr28  1  0.25000000  0.41394200  0.47727300  1
  Pr  Pr29  1  0.25000000  0.23404300  0.52272700  1
  Pr  Pr30  1  0.75000000  0.08605800  0.52272700  1
  Pr  Pr31  1  0.75000000  0.26595700  0.47727300  1
  Pr  Pr32  1  0.25000000  0.91394200  0.61363600  1
  Pr  Pr33  1  0.25000000  0.73404300  0.56818200  1
  Pr  Pr34  1  0.75000000  0.58605800  0.56818200  1
  Pr  Pr35  1  0.75000000  0.76595700  0.61363600  1
  Pr  Pr36  1  0.25000000  0.41394200  0.56818200  1
  Pr  Pr37  1  0.25000000  0.23404300  0.61363600  1
  Pr  Pr38  1  0.75000000  0.08605800  0.61363600  1
  Pr  Pr39  1  0.75000000  0.26595700  0.56818200  1
  Pr  Pr40  1  0.25000000  0.91394200  0.70454500  1
  Pr  Pr41  1  0.25000000  0.73404300  0.65909100  1
  Pr  Pr42  1  0.75000000  0.58605800  0.65909100  1
  Pr  Pr43  1  0.75000000  0.76595700  0.70454500  1
  Pr  Pr44  1  0.25000000  0.41394200  0.65909100  1
  Pr  Pr45  1  0.25000000  0.23404300  0.70454500  1
  Pr  Pr46  1  0.75000000  0.08605800  0.70454500  1
  Pr  Pr47  1  0.75000000  0.26595700  0.65909100  1
  Pr  Pr48  1  0.25000000  0.91394200  0.79545500  1
  Pr  Pr49  1  0.25000000  0.73404300  0.75000000  1
  Pr  Pr50  1  0.75000000  0.58605800  0.75000000  1
  Pr  Pr51  1  0.75000000  0.76595700  0.79545500  1
  Pr  Pr52  1  0.25000000  0.41394200  0.75000000  1
  Pr  Pr53  1  0.25000000  0.23404300  0.79545500  1
  Pr  Pr54  1  0.75000000  0.08605800  0.79545500  1
  Pr  Pr55  1  0.75000000  0.26595700  0.75000000  1
  Mg  Mg56  1  0.25000000  0.57184000  0.25000000  1
  Mg  Mg57  1  0.75000000  0.92816000  0.20454500  1
  Mg  Mg58  1  0.25000000  0.07184000  0.20454500  1
  Mg  Mg59  1  0.75000000  0.42816000  0.25000000  1
  Mg  Mg60  1  0.25000000  0.57184000  0.34090900  1
  Mg  Mg61  1  0.75000000  0.92816000  0.29545500  1
  Mg  Mg62  1  0.25000000  0.07184000  0.29545500  1
  Mg  Mg63  1  0.75000000  0.42816000  0.34090900  1
  Mg  Mg64  1  0.25000000  0.57184000  0.43181800  1
  Mg  Mg65  1  0.75000000  0.92816000  0.38636400  1
  Mg  Mg66  1  0.25000000  0.07184000  0.38636400  1
  Mg  Mg67  1  0.75000000  0.42816000  0.43181800  1
  Mg  Mg68  1  0.25000000  0.57184000  0.52272700  1
  Mg  Mg69  1  0.75000000  0.92816000  0.47727300  1
  Mg  Mg70  1  0.25000000  0.07184000  0.47727300  1
  Mg  Mg71  1  0.75000000  0.42816000  0.52272700  1
  Mg  Mg72  1  0.25000000  0.57184000  0.61363600  1
  Mg  Mg73  1  0.75000000  0.92816000  0.56818200  1
  Mg  Mg74  1  0.25000000  0.07184000  0.56818200  1
  Mg  Mg75  1  0.75000000  0.42816000  0.61363600  1
  Mg  Mg76  1  0.25000000  0.57184000  0.70454500  1
  Mg  Mg77  1  0.75000000  0.92816000  0.65909100  1
  Mg  Mg78  1  0.25000000  0.07184000  0.65909100  1
  Mg  Mg79  1  0.75000000  0.42816000  0.70454500  1
  Mg  Mg80  1  0.25000000  0.57184000  0.79545500  1
  Mg  Mg81  1  0.75000000  0.92816000  0.75000000  1
  Mg  Mg82  1  0.25000000  0.07184000  0.75000000  1
  Mg  Mg83  1  0.75000000  0.42816000  0.79545500  1
