# generated using pymatgen
data_Mg66Si37
_symmetry_space_group_name_H-M   'P 1'
_cell_length_a   12.41651900
_cell_length_b   14.27249660
_cell_length_c   44.74766500
_cell_angle_alpha   90.16648621
_cell_angle_beta   90.00000000
_cell_angle_gamma   64.21593671
_symmetry_Int_Tables_number   1
_chemical_formula_structural   Mg66Si37
_chemical_formula_sum   'Mg132 Si74'
_cell_volume   7140.40101402
_cell_formula_units_Z   2
loop_
 _symmetry_equiv_pos_site_id
 _symmetry_equiv_pos_as_xyz
  1  'x, y, z'
loop_
 _atom_site_type_symbol
 _atom_site_label
 _atom_site_symmetry_multiplicity
 _atom_site_fract_x
 _atom_site_fract_y
 _atom_site_fract_z
 _atom_site_occupancy
  Mg  Mg0  1  0.85564600  0.04483200  0.23269200  1
  Mg  Mg1  1  0.44557400  0.54404200  0.23348200  1
  Mg  Mg2  1  0.07214900  0.52742700  0.25009700  1
  Mg  Mg3  1  0.48277400  0.06430900  0.21321500  1
  Mg  Mg4  1  0.10934900  0.04769300  0.22983100  1
  Mg  Mg5  1  0.69927700  0.54690400  0.23062000  1
  Mg  Mg6  1  0.54508400  0.85529000  0.25631900  1
  Mg  Mg7  1  0.95515600  0.35607900  0.25552900  1
  Mg  Mg8  1  0.32858100  0.37269500  0.23891400  1
  Mg  Mg9  1  0.37949400  0.91273600  0.19887300  1
  Mg  Mg10  1  0.29138100  0.85242800  0.25918000  1
  Mg  Mg11  1  0.70145300  0.35321800  0.25839100  1
  Mg  Mg12  1  0.98100000  0.73479800  0.20976800  1
  Mg  Mg13  1  0.59724800  0.22850700  0.21605900  1
  Mg  Mg14  1  0.19950200  0.22558200  0.21898400  1
  Mg  Mg15  1  0.20122800  0.67453900  0.27002700  1
  Mg  Mg16  1  0.26502000  0.74853800  0.19602900  1
  Mg  Mg17  1  0.88126800  0.24224700  0.20231900  1
  Mg  Mg18  1  0.39410800  0.96790900  0.30961500  1
  Mg  Mg19  1  0.98403600  0.46711900  0.31040500  1
  Mg  Mg20  1  0.61061000  0.45050400  0.32702000  1
  Mg  Mg21  1  0.02123600  0.98738600  0.29013800  1
  Mg  Mg22  1  0.64781000  0.97077000  0.30675400  1
  Mg  Mg23  1  0.23773800  0.46998100  0.30754300  1
  Mg  Mg24  1  0.08354500  0.77836700  0.33324200  1
  Mg  Mg25  1  0.49361700  0.27915600  0.33245200  1
  Mg  Mg26  1  0.86704300  0.29577200  0.31583700  1
  Mg  Mg27  1  0.91795600  0.83581300  0.27579600  1
  Mg  Mg28  1  0.82984300  0.77550500  0.33610400  1
  Mg  Mg29  1  0.23991500  0.27629500  0.33531400  1
  Mg  Mg30  1  0.51946200  0.65787500  0.28669200  1
  Mg  Mg31  1  0.13571000  0.15158400  0.29298200  1
  Mg  Mg32  1  0.73796300  0.14865900  0.29590700  1
  Mg  Mg33  1  0.73969000  0.59761600  0.34695000  1
  Mg  Mg34  1  0.80348200  0.67161500  0.27295200  1
  Mg  Mg35  1  0.41973000  0.16532400  0.27924300  1
  Mg  Mg36  1  0.93257000  0.89098600  0.38653800  1
  Mg  Mg37  1  0.52249800  0.39019600  0.38732800  1
  Mg  Mg38  1  0.14907200  0.37358100  0.40394300  1
  Mg  Mg39  1  0.55969700  0.91046300  0.36706100  1
  Mg  Mg40  1  0.18627200  0.89384700  0.38367700  1
  Mg  Mg41  1  0.77620000  0.39305800  0.38446600  1
  Mg  Mg42  1  0.62200700  0.70144400  0.41016500  1
  Mg  Mg43  1  0.03207900  0.20223300  0.40937600  1
  Mg  Mg44  1  0.40550400  0.21884900  0.39276000  1
  Mg  Mg45  1  0.45641700  0.75889000  0.35271900  1
  Mg  Mg46  1  0.36830500  0.69858200  0.41302700  1
  Mg  Mg47  1  0.77837700  0.19937200  0.41223700  1
  Mg  Mg48  1  0.05792300  0.58095200  0.36361500  1
  Mg  Mg49  1  0.67417100  0.07466100  0.36990500  1
  Mg  Mg50  1  0.27642500  0.07173600  0.37283000  1
  Mg  Mg51  1  0.27815200  0.52069300  0.42387300  1
  Mg  Mg52  1  0.34194300  0.59469100  0.34987500  1
  Mg  Mg53  1  0.95819100  0.08840100  0.35616600  1
  Mg  Mg54  1  0.47103100  0.81406300  0.46346100  1
  Mg  Mg55  1  0.06095900  0.31327300  0.46425100  1
  Mg  Mg56  1  0.68753400  0.29665700  0.48086600  1
  Mg  Mg57  1  0.09815900  0.83354000  0.44398400  1
  Mg  Mg58  1  0.72473300  0.81692400  0.46060000  1
  Mg  Mg59  1  0.31466100  0.31613400  0.46138900  1
  Mg  Mg60  1  0.16046800  0.62452000  0.48708800  1
  Mg  Mg61  1  0.57054000  0.12531000  0.48629900  1
  Mg  Mg62  1  0.94396600  0.14192600  0.46968300  1
  Mg  Mg63  1  0.99487900  0.68196700  0.42964200  1
  Mg  Mg64  1  0.90676600  0.62165900  0.48995000  1
  Mg  Mg65  1  0.31683800  0.12244900  0.48916000  1
  Mg  Mg66  1  0.59638500  0.50402900  0.44053800  1
  Mg  Mg67  1  0.21263300  0.99773800  0.44682800  1
  Mg  Mg68  1  0.81488600  0.99481300  0.44975300  1
  Mg  Mg69  1  0.81661300  0.44377000  0.50079600  1
  Mg  Mg70  1  0.88040500  0.51776800  0.42679800  1
  Mg  Mg71  1  0.49665300  0.01147800  0.43308900  1
  Mg  Mg72  1  0.00949300  0.73714000  0.54038400  1
  Mg  Mg73  1  0.59942100  0.23635000  0.54117400  1
  Mg  Mg74  1  0.22599500  0.21973400  0.55778900  1
  Mg  Mg75  1  0.63662000  0.75661700  0.52090700  1
  Mg  Mg76  1  0.26319500  0.74000100  0.53752300  1
  Mg  Mg77  1  0.85312300  0.23921100  0.53831200  1
  Mg  Mg78  1  0.69893000  0.54759700  0.56401100  1
  Mg  Mg79  1  0.10900200  0.04838700  0.56322200  1
  Mg  Mg80  1  0.48242700  0.06500300  0.54660600  1
  Mg  Mg81  1  0.53334100  0.60504300  0.50656500  1
  Mg  Mg82  1  0.44522800  0.54473600  0.56687300  1
  Mg  Mg83  1  0.85530000  0.04552600  0.56608300  1
  Mg  Mg84  1  0.13484600  0.42710600  0.51746100  1
  Mg  Mg85  1  0.75109400  0.92081500  0.52375100  1
  Mg  Mg86  1  0.35334800  0.91789000  0.52667600  1
  Mg  Mg87  1  0.35507500  0.36684700  0.57771900  1
  Mg  Mg88  1  0.41886600  0.44084500  0.50372100  1
  Mg  Mg89  1  0.03511400  0.93455500  0.51001200  1
  Mg  Mg90  1  0.54795400  0.66021700  0.61730700  1
  Mg  Mg91  1  0.13788200  0.15942700  0.61809700  1
  Mg  Mg92  1  0.76445700  0.14281100  0.63471300  1
  Mg  Mg93  1  0.17508200  0.67969400  0.59783000  1
  Mg  Mg94  1  0.80165600  0.66307800  0.61444600  1
  Mg  Mg95  1  0.39158400  0.16228800  0.61523600  1
  Mg  Mg96  1  0.23739100  0.47067400  0.64093400  1
  Mg  Mg97  1  0.64746300  0.97146400  0.64014500  1
  Mg  Mg98  1  0.02088900  0.98808000  0.62352900  1
  Mg  Mg99  1  0.07180200  0.52812000  0.58348800  1
  Mg  Mg100  1  0.98368900  0.46781300  0.64379600  1
  Mg  Mg101  1  0.39376100  0.96860300  0.64300600  1
  Mg  Mg102  1  0.67330800  0.35018300  0.59438400  1
  Mg  Mg103  1  0.28955600  0.84389200  0.60067500  1
  Mg  Mg104  1  0.89180900  0.84096700  0.60359900  1
  Mg  Mg105  1  0.89353600  0.28992400  0.65464200  1
  Mg  Mg106  1  0.95732800  0.36392200  0.58064400  1
  Mg  Mg107  1  0.57357600  0.85763100  0.58693500  1
  Mg  Mg108  1  0.08641600  0.58329300  0.69423000  1
  Mg  Mg109  1  0.67634400  0.08250400  0.69502000  1
  Mg  Mg110  1  0.30291800  0.06588800  0.71163600  1
  Mg  Mg111  1  0.71354300  0.60277000  0.67475300  1
  Mg  Mg112  1  0.34011800  0.58615500  0.69136900  1
  Mg  Mg113  1  0.93004600  0.08536500  0.69215900  1
  Mg  Mg114  1  0.77585300  0.39375100  0.71785700  1
  Mg  Mg115  1  0.18592500  0.89454100  0.71706800  1
  Mg  Mg116  1  0.55935000  0.91115600  0.70045200  1
  Mg  Mg117  1  0.61026400  0.45119700  0.66041100  1
  Mg  Mg118  1  0.52215100  0.39089000  0.72071900  1
  Mg  Mg119  1  0.93222300  0.89167900  0.71992900  1
  Mg  Mg120  1  0.21176900  0.27325900  0.67130700  1
  Mg  Mg121  1  0.82801800  0.76696900  0.67759800  1
  Mg  Mg122  1  0.43027100  0.76404400  0.68052200  1
  Mg  Mg123  1  0.43199800  0.21300100  0.73156500  1
  Mg  Mg124  1  0.49578900  0.28699900  0.65756700  1
  Mg  Mg125  1  0.11203700  0.78070800  0.66385800  1
  Mg  Mg126  1  0.25200500  0.52584700  0.75167700  1
  Mg  Mg127  1  0.14872500  0.37427400  0.73733400  1
  Mg  Mg128  1  0.75023100  0.19633600  0.74823000  1
  Mg  Mg129  1  0.36647900  0.69004600  0.75452100  1
  Mg  Mg130  1  0.03425100  0.21007600  0.73449000  1
  Mg  Mg131  1  0.65049900  0.70378500  0.74078100  1
  Si  Si132  1  0.74663800  0.85751500  0.23679300  1
  Si  Si133  1  0.97740700  0.39597600  0.19833200  1
  Si  Si134  1  0.65409200  0.04260700  0.25221800  1
  Si  Si135  1  0.88486100  0.58106900  0.21375600  1
  Si  Si136  1  0.48241600  0.71929200  0.22527500  1
  Si  Si137  1  0.91831400  0.18083000  0.26373600  1
  Si  Si138  1  0.22409900  0.56925900  0.21277200  1
  Si  Si139  1  0.32666300  0.03079800  0.25123400  1
  Si  Si140  1  0.63816900  0.40778500  0.19931600  1
  Si  Si141  1  0.07406700  0.86932400  0.23777700  1
  Si  Si142  1  0.28510000  0.78059100  0.31371600  1
  Si  Si143  1  0.51586900  0.31905300  0.27525500  1
  Si  Si144  1  0.19255300  0.96568400  0.32914100  1
  Si  Si145  1  0.42332300  0.50414600  0.29067900  1
  Si  Si146  1  0.02087800  0.64236900  0.30219800  1
  Si  Si147  1  0.45677500  0.10390700  0.34065900  1
  Si  Si148  1  0.76256100  0.49233600  0.28969500  1
  Si  Si149  1  0.86512500  0.95387500  0.32815700  1
  Si  Si150  1  0.17663100  0.33086200  0.27623900  1
  Si  Si151  1  0.61252800  0.79240100  0.31470000  1
  Si  Si152  1  0.82356100  0.70366800  0.39063900  1
  Si  Si153  1  0.05433000  0.24213000  0.35217800  1
  Si  Si154  1  0.73101500  0.88876100  0.40606400  1
  Si  Si155  1  0.96178400  0.42722300  0.36760200  1
  Si  Si156  1  0.55933900  0.56544500  0.37912100  1
  Si  Si157  1  0.99523700  0.02698400  0.41758200  1
  Si  Si158  1  0.30102200  0.41541300  0.36661800  1
  Si  Si159  1  0.40358600  0.87695200  0.40508000  1
  Si  Si160  1  0.71509200  0.25393900  0.35316200  1
  Si  Si161  1  0.15099000  0.71547800  0.39162400  1
  Si  Si162  1  0.36202300  0.62674500  0.46756300  1
  Si  Si163  1  0.59279200  0.16520700  0.42910100  1
  Si  Si164  1  0.26947600  0.81183800  0.48298700  1
  Si  Si165  1  0.50024600  0.35029900  0.44452500  1
  Si  Si166  1  0.09780100  0.48852200  0.45604400  1
  Si  Si167  1  0.53369800  0.95006100  0.49450500  1
  Si  Si168  1  0.83948400  0.33849000  0.44354100  1
  Si  Si169  1  0.94204800  0.80002900  0.48200300  1
  Si  Si170  1  0.25355400  0.17701600  0.43008500  1
  Si  Si171  1  0.68945100  0.63855500  0.46854700  1
  Si  Si172  1  0.90048400  0.54982200  0.54448600  1
  Si  Si173  1  0.13125400  0.08828400  0.50602400  1
  Si  Si174  1  0.80793800  0.73491500  0.55991000  1
  Si  Si175  1  0.03870700  0.27337600  0.52144800  1
  Si  Si176  1  0.63626200  0.41159900  0.53296700  1
  Si  Si177  1  0.07216000  0.87313800  0.57142900  1
  Si  Si178  1  0.37794500  0.26156700  0.52046400  1
  Si  Si179  1  0.48050900  0.72310500  0.55892600  1
  Si  Si180  1  0.79201600  0.10009300  0.50700800  1
  Si  Si181  1  0.22791300  0.56163200  0.54547000  1
  Si  Si182  1  0.43894600  0.47289900  0.62140900  1
  Si  Si183  1  0.66971500  0.01136100  0.58294700  1
  Si  Si184  1  0.34640000  0.65799200  0.63683300  1
  Si  Si185  1  0.57716900  0.19645300  0.59837200  1
  Si  Si186  1  0.17472400  0.33467600  0.60989000  1
  Si  Si187  1  0.61062100  0.79621500  0.64835200  1
  Si  Si188  1  0.91640700  0.18464400  0.59738700  1
  Si  Si189  1  0.01897100  0.64618200  0.63584900  1
  Si  Si190  1  0.33047700  0.02317000  0.58393100  1
  Si  Si191  1  0.76637500  0.48470900  0.62239300  1
  Si  Si192  1  0.97740700  0.39597600  0.69833200  1
  Si  Si193  1  0.20817700  0.93443800  0.65987000  1
  Si  Si194  1  0.88486100  0.58106900  0.71375600  1
  Si  Si195  1  0.11563000  0.11953000  0.67529500  1
  Si  Si196  1  0.71318600  0.25775300  0.68681300  1
  Si  Si197  1  0.14908300  0.71929200  0.72527500  1
  Si  Si198  1  0.45486800  0.10772100  0.67431000  1
  Si  Si199  1  0.55743200  0.56925900  0.71277200  1
  Si  Si200  1  0.86893900  0.94624700  0.66085400  1
  Si  Si201  1  0.30483600  0.40778500  0.69931600  1
  Si  Si202  1  0.74663800  0.85751500  0.73679300  1
  Si  Si203  1  0.65409200  0.04260700  0.75221800  1
  Si  Si204  1  0.99333000  0.03079800  0.75123400  1
  Si  Si205  1  0.40740000  0.86932400  0.73777700  1
