# generated using pymatgen
data_MgCd2
_symmetry_space_group_name_H-M   'P 1'
_cell_length_a   5.22123900
_cell_length_b   16.41706800
_cell_length_c   43.46069800
_cell_angle_alpha   90.00000000
_cell_angle_beta   90.00000000
_cell_angle_gamma   90.00000000
_symmetry_Int_Tables_number   1
_chemical_formula_structural   MgCd2
_chemical_formula_sum   'Mg36 Cd72'
_cell_volume   3725.33958661
_cell_formula_units_Z   36
loop_
 _symmetry_equiv_pos_site_id
 _symmetry_equiv_pos_as_xyz
  1  'x, y, z'
loop_
 _atom_site_type_symbol
 _atom_site_label
 _atom_site_symmetry_multiplicity
 _atom_site_fract_x
 _atom_site_fract_y
 _atom_site_fract_z
 _atom_site_occupancy
  Mg  Mg0  1  0.25000000  0.89042900  0.23214300  1
  Mg  Mg1  1  0.75000000  0.60957100  0.19642900  1
  Mg  Mg2  1  0.25000000  0.39042900  0.19642900  1
  Mg  Mg3  1  0.75000000  0.10957100  0.23214300  1
  Mg  Mg4  1  0.25000000  0.89042900  0.30357100  1
  Mg  Mg5  1  0.75000000  0.60957100  0.26785700  1
  Mg  Mg6  1  0.25000000  0.39042900  0.26785700  1
  Mg  Mg7  1  0.75000000  0.10957100  0.30357100  1
  Mg  Mg8  1  0.25000000  0.89042900  0.37500000  1
  Mg  Mg9  1  0.75000000  0.60957100  0.33928600  1
  Mg  Mg10  1  0.25000000  0.39042900  0.33928600  1
  Mg  Mg11  1  0.75000000  0.10957100  0.37500000  1
  Mg  Mg12  1  0.25000000  0.89042900  0.44642900  1
  Mg  Mg13  1  0.75000000  0.60957100  0.41071400  1
  Mg  Mg14  1  0.25000000  0.39042900  0.41071400  1
  Mg  Mg15  1  0.75000000  0.10957100  0.44642900  1
  Mg  Mg16  1  0.25000000  0.89042900  0.51785700  1
  Mg  Mg17  1  0.75000000  0.60957100  0.48214300  1
  Mg  Mg18  1  0.25000000  0.39042900  0.48214300  1
  Mg  Mg19  1  0.75000000  0.10957100  0.51785700  1
  Mg  Mg20  1  0.25000000  0.89042900  0.58928600  1
  Mg  Mg21  1  0.75000000  0.60957100  0.55357100  1
  Mg  Mg22  1  0.25000000  0.39042900  0.55357100  1
  Mg  Mg23  1  0.75000000  0.10957100  0.58928600  1
  Mg  Mg24  1  0.25000000  0.89042900  0.66071400  1
  Mg  Mg25  1  0.75000000  0.60957100  0.62500000  1
  Mg  Mg26  1  0.25000000  0.39042900  0.62500000  1
  Mg  Mg27  1  0.75000000  0.10957100  0.66071400  1
  Mg  Mg28  1  0.25000000  0.89042900  0.73214300  1
  Mg  Mg29  1  0.75000000  0.60957100  0.69642900  1
  Mg  Mg30  1  0.25000000  0.39042900  0.69642900  1
  Mg  Mg31  1  0.75000000  0.10957100  0.73214300  1
  Mg  Mg32  1  0.25000000  0.89042900  0.80357100  1
  Mg  Mg33  1  0.75000000  0.60957100  0.76785700  1
  Mg  Mg34  1  0.25000000  0.39042900  0.76785700  1
  Mg  Mg35  1  0.75000000  0.10957100  0.80357100  1
  Cd  Cd36  1  0.25000000  0.55652700  0.23214300  1
  Cd  Cd37  1  0.25000000  0.72370900  0.19642900  1
  Cd  Cd38  1  0.75000000  0.77629100  0.23214300  1
  Cd  Cd39  1  0.75000000  0.94347300  0.19642900  1
  Cd  Cd40  1  0.25000000  0.05652700  0.19642900  1
  Cd  Cd41  1  0.25000000  0.22370900  0.23214300  1
  Cd  Cd42  1  0.75000000  0.27629100  0.19642900  1
  Cd  Cd43  1  0.75000000  0.44347300  0.23214300  1
  Cd  Cd44  1  0.25000000  0.55652700  0.30357100  1
  Cd  Cd45  1  0.25000000  0.72370900  0.26785700  1
  Cd  Cd46  1  0.75000000  0.77629100  0.30357100  1
  Cd  Cd47  1  0.75000000  0.94347300  0.26785700  1
  Cd  Cd48  1  0.25000000  0.05652700  0.26785700  1
  Cd  Cd49  1  0.25000000  0.22370900  0.30357100  1
  Cd  Cd50  1  0.75000000  0.27629100  0.26785700  1
  Cd  Cd51  1  0.75000000  0.44347300  0.30357100  1
  Cd  Cd52  1  0.25000000  0.55652700  0.37500000  1
  Cd  Cd53  1  0.25000000  0.72370900  0.33928600  1
  Cd  Cd54  1  0.75000000  0.77629100  0.37500000  1
  Cd  Cd55  1  0.75000000  0.94347300  0.33928600  1
  Cd  Cd56  1  0.25000000  0.05652700  0.33928600  1
  Cd  Cd57  1  0.25000000  0.22370900  0.37500000  1
  Cd  Cd58  1  0.75000000  0.27629100  0.33928600  1
  Cd  Cd59  1  0.75000000  0.44347300  0.37500000  1
  Cd  Cd60  1  0.25000000  0.55652700  0.44642900  1
  Cd  Cd61  1  0.25000000  0.72370900  0.41071400  1
  Cd  Cd62  1  0.75000000  0.77629100  0.44642900  1
  Cd  Cd63  1  0.75000000  0.94347300  0.41071400  1
  Cd  Cd64  1  0.25000000  0.05652700  0.41071400  1
  Cd  Cd65  1  0.25000000  0.22370900  0.44642900  1
  Cd  Cd66  1  0.75000000  0.27629100  0.41071400  1
  Cd  Cd67  1  0.75000000  0.44347300  0.44642900  1
  Cd  Cd68  1  0.25000000  0.55652700  0.51785700  1
  Cd  Cd69  1  0.25000000  0.72370900  0.48214300  1
  Cd  Cd70  1  0.75000000  0.77629100  0.51785700  1
  Cd  Cd71  1  0.75000000  0.94347300  0.48214300  1
  Cd  Cd72  1  0.25000000  0.05652700  0.48214300  1
  Cd  Cd73  1  0.25000000  0.22370900  0.51785700  1
  Cd  Cd74  1  0.75000000  0.27629100  0.48214300  1
  Cd  Cd75  1  0.75000000  0.44347300  0.51785700  1
  Cd  Cd76  1  0.25000000  0.55652700  0.58928600  1
  Cd  Cd77  1  0.25000000  0.72370900  0.55357100  1
  Cd  Cd78  1  0.75000000  0.77629100  0.58928600  1
  Cd  Cd79  1  0.75000000  0.94347300  0.55357100  1
  Cd  Cd80  1  0.25000000  0.05652700  0.55357100  1
  Cd  Cd81  1  0.25000000  0.22370900  0.58928600  1
  Cd  Cd82  1  0.75000000  0.27629100  0.55357100  1
  Cd  Cd83  1  0.75000000  0.44347300  0.58928600  1
  Cd  Cd84  1  0.25000000  0.55652700  0.66071400  1
  Cd  Cd85  1  0.25000000  0.72370900  0.62500000  1
  Cd  Cd86  1  0.75000000  0.77629100  0.66071400  1
  Cd  Cd87  1  0.75000000  0.94347300  0.62500000  1
  Cd  Cd88  1  0.25000000  0.05652700  0.62500000  1
  Cd  Cd89  1  0.25000000  0.22370900  0.66071400  1
  Cd  Cd90  1  0.75000000  0.27629100  0.62500000  1
  Cd  Cd91  1  0.75000000  0.44347300  0.66071400  1
  Cd  Cd92  1  0.25000000  0.55652700  0.73214300  1
  Cd  Cd93  1  0.25000000  0.72370900  0.69642900  1
  Cd  Cd94  1  0.75000000  0.77629100  0.73214300  1
  Cd  Cd95  1  0.75000000  0.94347300  0.69642900  1
  Cd  Cd96  1  0.25000000  0.05652700  0.69642900  1
  Cd  Cd97  1  0.25000000  0.22370900  0.73214300  1
  Cd  Cd98  1  0.75000000  0.27629100  0.69642900  1
  Cd  Cd99  1  0.75000000  0.44347300  0.73214300  1
  Cd  Cd100  1  0.25000000  0.55652700  0.80357100  1
  Cd  Cd101  1  0.25000000  0.72370900  0.76785700  1
  Cd  Cd102  1  0.75000000  0.77629100  0.80357100  1
  Cd  Cd103  1  0.75000000  0.94347300  0.76785700  1
  Cd  Cd104  1  0.25000000  0.05652700  0.76785700  1
  Cd  Cd105  1  0.25000000  0.22370900  0.80357100  1
  Cd  Cd106  1  0.75000000  0.27629100  0.76785700  1
  Cd  Cd107  1  0.75000000  0.44347300  0.80357100  1
