# generated using pymatgen
data_Mg9Al25
_symmetry_space_group_name_H-M   'P 1'
_cell_length_a   5.11546977
_cell_length_b   5.11547015
_cell_length_c   43.76524900
_cell_angle_alpha   92.16951596
_cell_angle_beta   92.16951612
_cell_angle_gamma   110.62482861
_symmetry_Int_Tables_number   1
_chemical_formula_structural   Mg9Al25
_chemical_formula_sum   'Mg9 Al25'
_cell_volume   1069.47393097
_cell_formula_units_Z   1
loop_
 _symmetry_equiv_pos_site_id
 _symmetry_equiv_pos_as_xyz
  1  'x, y, z'
loop_
 _atom_site_type_symbol
 _atom_site_label
 _atom_site_symmetry_multiplicity
 _atom_site_fract_x
 _atom_site_fract_y
 _atom_site_fract_z
 _atom_site_occupancy
  Mg  Mg0  1  0.60000000  0.60000000  0.75000000  1
  Mg  Mg1  1  0.06666700  0.06666700  0.68333300  1
  Mg  Mg2  1  0.53333300  0.53333300  0.61666700  1
  Mg  Mg3  1  0.00000000  0.00000000  0.55000000  1
  Mg  Mg4  1  0.46666700  0.46666700  0.48333300  1
  Mg  Mg5  1  0.93333300  0.93333300  0.41666700  1
  Mg  Mg6  1  0.40000000  0.40000000  0.35000000  1
  Mg  Mg7  1  0.86666700  0.86666700  0.28333300  1
  Mg  Mg8  1  0.33333300  0.33333300  0.21666700  1
  Al  Al9  1  0.10000000  0.10000000  0.75000000  1
  Al  Al10  1  0.56666700  0.56666700  0.68333300  1
  Al  Al11  1  0.58333300  0.08333300  0.71666700  1
  Al  Al12  1  0.08333300  0.58333300  0.71666700  1
  Al  Al13  1  0.03333300  0.03333300  0.61666700  1
  Al  Al14  1  0.05000000  0.55000000  0.65000000  1
  Al  Al15  1  0.55000000  0.05000000  0.65000000  1
  Al  Al16  1  0.50000000  0.50000000  0.55000000  1
  Al  Al17  1  0.51666700  0.01666700  0.58333300  1
  Al  Al18  1  0.01666700  0.51666700  0.58333300  1
  Al  Al19  1  0.96666700  0.96666700  0.48333300  1
  Al  Al20  1  0.98333300  0.48333300  0.51666700  1
  Al  Al21  1  0.48333300  0.98333300  0.51666700  1
  Al  Al22  1  0.43333300  0.43333300  0.41666700  1
  Al  Al23  1  0.45000000  0.95000000  0.45000000  1
  Al  Al24  1  0.95000000  0.45000000  0.45000000  1
  Al  Al25  1  0.90000000  0.90000000  0.35000000  1
  Al  Al26  1  0.91666700  0.41666700  0.38333300  1
  Al  Al27  1  0.41666700  0.91666700  0.38333300  1
  Al  Al28  1  0.36666700  0.36666700  0.28333300  1
  Al  Al29  1  0.38333300  0.88333300  0.31666700  1
  Al  Al30  1  0.88333300  0.38333300  0.31666700  1
  Al  Al31  1  0.83333300  0.83333300  0.21666700  1
  Al  Al32  1  0.85000000  0.35000000  0.25000000  1
  Al  Al33  1  0.35000000  0.85000000  0.25000000  1
