# generated using pymatgen
data_MgAg2
_symmetry_space_group_name_H-M   'P 1'
_cell_length_a   7.04186209
_cell_length_b   8.88411000
_cell_length_c   45.76538200
_cell_angle_alpha   90.00000000
_cell_angle_beta   87.90494982
_cell_angle_gamma   90.00000000
_symmetry_Int_Tables_number   1
_chemical_formula_structural   MgAg2
_chemical_formula_sum   'Mg32 Ag64'
_cell_volume   2861.19946924
_cell_formula_units_Z   32
loop_
 _symmetry_equiv_pos_site_id
 _symmetry_equiv_pos_as_xyz
  1  'x, y, z'
loop_
 _atom_site_type_symbol
 _atom_site_label
 _atom_site_symmetry_multiplicity
 _atom_site_fract_x
 _atom_site_fract_y
 _atom_site_fract_z
 _atom_site_occupancy
  Mg  Mg0  1  0.33668500  0.00000000  0.21563800  1
  Mg  Mg1  1  0.89408400  0.00000000  0.20743900  1
  Mg  Mg2  1  0.06745500  0.50000000  0.25410000  1
  Mg  Mg3  1  0.62485300  0.50000000  0.24590000  1
  Mg  Mg4  1  0.79822400  0.00000000  0.29256100  1
  Mg  Mg5  1  0.35562200  0.00000000  0.28436200  1
  Mg  Mg6  1  0.52899300  0.50000000  0.33102300  1
  Mg  Mg7  1  0.08639200  0.50000000  0.32282300  1
  Mg  Mg8  1  0.25976200  0.00000000  0.36948500  1
  Mg  Mg9  1  0.81716100  0.00000000  0.36128500  1
  Mg  Mg10  1  0.99053100  0.50000000  0.40794600  1
  Mg  Mg11  1  0.54793000  0.50000000  0.39974600  1
  Mg  Mg12  1  0.72130100  0.00000000  0.44640800  1
  Mg  Mg13  1  0.27869900  0.00000000  0.43820800  1
  Mg  Mg14  1  0.45207000  0.50000000  0.48486900  1
  Mg  Mg15  1  0.00946900  0.50000000  0.47666900  1
  Mg  Mg16  1  0.18283900  0.00000000  0.52333100  1
  Mg  Mg17  1  0.74023800  0.00000000  0.51513100  1
  Mg  Mg18  1  0.91360800  0.50000000  0.56179200  1
  Mg  Mg19  1  0.47100700  0.50000000  0.55359200  1
  Mg  Mg20  1  0.64437800  0.00000000  0.60025400  1
  Mg  Mg21  1  0.20177600  0.00000000  0.59205400  1
  Mg  Mg22  1  0.37514700  0.50000000  0.63871500  1
  Mg  Mg23  1  0.93254500  0.50000000  0.63051500  1
  Mg  Mg24  1  0.10591600  0.00000000  0.67717700  1
  Mg  Mg25  1  0.66331500  0.00000000  0.66897700  1
  Mg  Mg26  1  0.83668500  0.50000000  0.71563800  1
  Mg  Mg27  1  0.39408400  0.50000000  0.70743900  1
  Mg  Mg28  1  0.56745500  0.00000000  0.75410000  1
  Mg  Mg29  1  0.12485300  0.00000000  0.74590000  1
  Mg  Mg30  1  0.29822400  0.50000000  0.79256100  1
  Mg  Mg31  1  0.85562200  0.50000000  0.78436200  1
  Ag  Ag32  1  0.90024200  0.33353600  0.20655900  1
  Ag  Ag33  1  0.33052700  0.33353600  0.21651800  1
  Ag  Ag34  1  0.06129600  0.16646400  0.25498000  1
  Ag  Ag35  1  0.63101100  0.16646400  0.24502000  1
  Ag  Ag36  1  0.63101100  0.83353600  0.24502000  1
  Ag  Ag37  1  0.06129600  0.83353600  0.25498000  1
  Ag  Ag38  1  0.33052700  0.66646400  0.21651800  1
  Ag  Ag39  1  0.90024200  0.66646400  0.20655900  1
  Ag  Ag40  1  0.36178100  0.33353600  0.28348200  1
  Ag  Ag41  1  0.79206500  0.33353600  0.29344100  1
  Ag  Ag42  1  0.52283500  0.16646400  0.33190300  1
  Ag  Ag43  1  0.09255000  0.16646400  0.32194300  1
  Ag  Ag44  1  0.09255000  0.83353600  0.32194300  1
  Ag  Ag45  1  0.52283500  0.83353600  0.33190300  1
  Ag  Ag46  1  0.79206500  0.66646400  0.29344100  1
  Ag  Ag47  1  0.36178100  0.66646400  0.28348200  1
  Ag  Ag48  1  0.82331900  0.33353600  0.36040500  1
  Ag  Ag49  1  0.25360400  0.33353600  0.37036400  1
  Ag  Ag50  1  0.98437300  0.16646400  0.40882600  1
  Ag  Ag51  1  0.55408800  0.16646400  0.39886600  1
  Ag  Ag52  1  0.55408800  0.83353600  0.39886600  1
  Ag  Ag53  1  0.98437300  0.83353600  0.40882600  1
  Ag  Ag54  1  0.25360400  0.66646400  0.37036400  1
  Ag  Ag55  1  0.82331900  0.66646400  0.36040500  1
  Ag  Ag56  1  0.28485800  0.33353600  0.43732800  1
  Ag  Ag57  1  0.71514200  0.33353600  0.44728700  1
  Ag  Ag58  1  0.44591200  0.16646400  0.48574900  1
  Ag  Ag59  1  0.01562700  0.16646400  0.47579000  1
  Ag  Ag60  1  0.01562700  0.83353600  0.47579000  1
  Ag  Ag61  1  0.44591200  0.83353600  0.48574900  1
  Ag  Ag62  1  0.71514200  0.66646400  0.44728700  1
  Ag  Ag63  1  0.28485800  0.66646400  0.43732800  1
  Ag  Ag64  1  0.74639600  0.33353600  0.51425100  1
  Ag  Ag65  1  0.17668100  0.33353600  0.52421000  1
  Ag  Ag66  1  0.90745000  0.16646400  0.56267200  1
  Ag  Ag67  1  0.47716500  0.16646400  0.55271300  1
  Ag  Ag68  1  0.47716500  0.83353600  0.55271300  1
  Ag  Ag69  1  0.90745000  0.83353600  0.56267200  1
  Ag  Ag70  1  0.17668100  0.66646400  0.52421000  1
  Ag  Ag71  1  0.74639600  0.66646400  0.51425100  1
  Ag  Ag72  1  0.20793500  0.33353600  0.59117400  1
  Ag  Ag73  1  0.63821900  0.33353600  0.60113400  1
  Ag  Ag74  1  0.36898900  0.16646400  0.63959500  1
  Ag  Ag75  1  0.93870400  0.16646400  0.62963600  1
  Ag  Ag76  1  0.93870400  0.83353600  0.62963600  1
  Ag  Ag77  1  0.36898900  0.83353600  0.63959500  1
  Ag  Ag78  1  0.63821900  0.66646400  0.60113400  1
  Ag  Ag79  1  0.20793500  0.66646400  0.59117400  1
  Ag  Ag80  1  0.66947300  0.33353600  0.66809700  1
  Ag  Ag81  1  0.09975800  0.33353600  0.67805700  1
  Ag  Ag82  1  0.83052700  0.16646400  0.71651800  1
  Ag  Ag83  1  0.40024200  0.16646400  0.70655900  1
  Ag  Ag84  1  0.40024200  0.83353600  0.70655900  1
  Ag  Ag85  1  0.83052700  0.83353600  0.71651800  1
  Ag  Ag86  1  0.09975800  0.66646400  0.67805700  1
  Ag  Ag87  1  0.66947300  0.66646400  0.66809700  1
  Ag  Ag88  1  0.13101100  0.33353600  0.74502000  1
  Ag  Ag89  1  0.56129600  0.33353600  0.75498000  1
  Ag  Ag90  1  0.29206500  0.16646400  0.79344100  1
  Ag  Ag91  1  0.86178100  0.16646400  0.78348200  1
  Ag  Ag92  1  0.86178100  0.83353600  0.78348200  1
  Ag  Ag93  1  0.29206500  0.83353600  0.79344100  1
  Ag  Ag94  1  0.56129600  0.66646400  0.75498000  1
  Ag  Ag95  1  0.13101100  0.66646400  0.74502000  1
