# generated using pymatgen
data_Mg3Sc8
_symmetry_space_group_name_H-M   'P 1'
_cell_length_a   3.35466600
_cell_length_b   5.16406100
_cell_length_c   49.45614300
_cell_angle_alpha   90.00000000
_cell_angle_beta   90.00000000
_cell_angle_gamma   90.00000000
_symmetry_Int_Tables_number   1
_chemical_formula_structural   Mg3Sc8
_chemical_formula_sum   'Mg6 Sc16'
_cell_volume   856.76337750
_cell_formula_units_Z   2
loop_
 _symmetry_equiv_pos_site_id
 _symmetry_equiv_pos_as_xyz
  1  'x, y, z'
loop_
 _atom_site_type_symbol
 _atom_site_label
 _atom_site_symmetry_multiplicity
 _atom_site_fract_x
 _atom_site_fract_y
 _atom_site_fract_z
 _atom_site_occupancy
  Mg  Mg0  1  0.50000000  0.25000000  0.28475500  1
  Mg  Mg1  1  1.00000000  0.75000000  0.49302300  1
  Mg  Mg2  1  1.00000000  0.25000000  0.45142200  1
  Mg  Mg3  1  0.50000000  0.75000000  0.32635600  1
  Mg  Mg4  1  0.50000000  0.25000000  0.61808800  1
  Mg  Mg5  1  0.50000000  0.75000000  0.65969000  1
  Sc  Sc6  1  0.50000000  0.25000000  0.17302200  1
  Sc  Sc7  1  1.00000000  0.25000000  0.22996300  1
  Sc  Sc8  1  1.00000000  0.75000000  0.27142300  1
  Sc  Sc9  1  0.50000000  0.75000000  0.21448100  1
  Sc  Sc10  1  1.00000000  0.25000000  0.33968800  1
  Sc  Sc11  1  0.50000000  0.25000000  0.39663000  1
  Sc  Sc12  1  0.50000000  0.75000000  0.43808900  1
  Sc  Sc13  1  1.00000000  0.75000000  0.38114800  1
  Sc  Sc14  1  0.50000000  0.25000000  0.50635500  1
  Sc  Sc15  1  1.00000000  0.25000000  0.56329600  1
  Sc  Sc16  1  1.00000000  0.75000000  0.60475600  1
  Sc  Sc17  1  0.50000000  0.75000000  0.54781500  1
  Sc  Sc18  1  1.00000000  0.25000000  0.67302200  1
  Sc  Sc19  1  0.50000000  0.25000000  0.72996300  1
  Sc  Sc20  1  0.50000000  0.75000000  0.77142300  1
  Sc  Sc21  1  1.00000000  0.75000000  0.71448100  1
