# generated using pymatgen
data_Ac2Mg9
_symmetry_space_group_name_H-M   'P 1'
_cell_length_a   6.16214200
_cell_length_b   6.16214156
_cell_length_c   49.88991900
_cell_angle_alpha   90.00000000
_cell_angle_beta   90.00000000
_cell_angle_gamma   120.00000239
_symmetry_Int_Tables_number   1
_chemical_formula_structural   Ac2Mg9
_chemical_formula_sum   'Ac6 Mg27'
_cell_volume   1640.61543318
_cell_formula_units_Z   3
loop_
 _symmetry_equiv_pos_site_id
 _symmetry_equiv_pos_as_xyz
  1  'x, y, z'
loop_
 _atom_site_type_symbol
 _atom_site_label
 _atom_site_symmetry_multiplicity
 _atom_site_fract_x
 _atom_site_fract_y
 _atom_site_fract_z
 _atom_site_occupancy
  Ac  Ac0  1  0.00000000  0.00000000  0.22500000  1
  Ac  Ac1  1  0.00000000  0.00000000  0.32500000  1
  Ac  Ac2  1  0.00000000  0.00000000  0.42500000  1
  Ac  Ac3  1  0.00000000  0.00000000  0.52500000  1
  Ac  Ac4  1  0.00000000  0.00000000  0.62500000  1
  Ac  Ac5  1  0.00000000  0.00000000  0.72500000  1
  Mg  Mg6  1  0.50000000  0.50000000  0.27500000  1
  Mg  Mg7  1  0.66666700  0.33333300  0.22500000  1
  Mg  Mg8  1  1.00000000  0.50000000  0.27500000  1
  Mg  Mg9  1  0.33333300  0.66666700  0.22500000  1
  Mg  Mg10  1  0.50000000  0.00000000  0.27500000  1
  Mg  Mg11  1  0.50000000  0.50000000  0.37500000  1
  Mg  Mg12  1  0.66666700  0.33333300  0.32500000  1
  Mg  Mg13  1  1.00000000  0.50000000  0.37500000  1
  Mg  Mg14  1  0.33333300  0.66666700  0.32500000  1
  Mg  Mg15  1  0.50000000  0.00000000  0.37500000  1
  Mg  Mg16  1  0.50000000  0.50000000  0.47500000  1
  Mg  Mg17  1  0.66666700  0.33333300  0.42500000  1
  Mg  Mg18  1  1.00000000  0.50000000  0.47500000  1
  Mg  Mg19  1  0.33333300  0.66666700  0.42500000  1
  Mg  Mg20  1  0.50000000  0.00000000  0.47500000  1
  Mg  Mg21  1  0.50000000  0.50000000  0.57500000  1
  Mg  Mg22  1  0.66666700  0.33333300  0.52500000  1
  Mg  Mg23  1  1.00000000  0.50000000  0.57500000  1
  Mg  Mg24  1  0.33333300  0.66666700  0.52500000  1
  Mg  Mg25  1  0.50000000  0.00000000  0.57500000  1
  Mg  Mg26  1  0.50000000  0.50000000  0.67500000  1
  Mg  Mg27  1  0.66666700  0.33333300  0.62500000  1
  Mg  Mg28  1  1.00000000  0.50000000  0.67500000  1
  Mg  Mg29  1  0.33333300  0.66666700  0.62500000  1
  Mg  Mg30  1  0.50000000  0.00000000  0.67500000  1
  Mg  Mg31  1  0.66666700  0.33333300  0.72500000  1
  Mg  Mg32  1  0.33333300  0.66666700  0.72500000  1
