# generated using pymatgen
data_Mg9Ir2
_symmetry_space_group_name_H-M   'P 1'
_cell_length_a   9.82944242
_cell_length_b   9.82944290
_cell_length_c   50.01409000
_cell_angle_alpha   92.36329606
_cell_angle_beta   92.36329617
_cell_angle_gamma   112.50167663
_symmetry_Int_Tables_number   1
_chemical_formula_structural   Mg9Ir2
_chemical_formula_sum   'Mg81 Ir18'
_cell_volume   4452.05614699
_cell_formula_units_Z   9
loop_
 _symmetry_equiv_pos_site_id
 _symmetry_equiv_pos_as_xyz
  1  'x, y, z'
loop_
 _atom_site_type_symbol
 _atom_site_label
 _atom_site_symmetry_multiplicity
 _atom_site_fract_x
 _atom_site_fract_y
 _atom_site_fract_z
 _atom_site_occupancy
  Mg  Mg0  1  0.58800300  0.08800300  0.64955400  1
  Mg  Mg1  1  0.08800300  0.58800300  0.64955400  1
  Mg  Mg2  1  0.08800300  0.08800300  0.64955400  1
  Mg  Mg3  1  0.87371800  0.87371800  0.57812500  1
  Mg  Mg4  1  0.15943200  0.65943200  0.50669600  1
  Mg  Mg5  1  0.65943200  0.15943200  0.50669600  1
  Mg  Mg6  1  0.65943200  0.65943200  0.50669600  1
  Mg  Mg7  1  0.37371800  0.87371800  0.57812500  1
  Mg  Mg8  1  0.87371800  0.37371800  0.57812500  1
  Mg  Mg9  1  0.69083700  0.05829500  0.56134500  1
  Mg  Mg10  1  0.47485500  0.84231300  0.52347600  1
  Mg  Mg11  1  0.84831900  0.11340200  0.61383900  1
  Mg  Mg12  1  0.05659900  0.68914100  0.59490500  1
  Mg  Mg13  1  0.27258100  0.90512200  0.63277400  1
  Mg  Mg14  1  0.89911700  0.63403300  0.54241100  1
  Mg  Mg15  1  0.48086100  0.48086100  0.61383900  1
  Mg  Mg16  1  0.26657500  0.26657500  0.54241100  1
  Mg  Mg17  1  0.21465000  0.53281500  0.56238800  1
  Mg  Mg18  1  0.20861800  0.09676000  0.59186100  1
  Mg  Mg19  1  0.59673300  0.39042600  0.54640900  1
  Mg  Mg20  1  0.86496100  0.75310400  0.63581800  1
  Mg  Mg21  1  0.00033500  0.31850000  0.52243300  1
  Mg  Mg22  1  0.14272400  0.93641600  0.53841300  1
  Mg  Mg23  1  0.53278600  0.21462100  0.59386200  1
  Mg  Mg24  1  0.53881800  0.65067500  0.56438900  1
  Mg  Mg25  1  0.15070200  0.35700900  0.60984100  1
  Mg  Mg26  1  0.88247400  0.99433200  0.52043200  1
  Mg  Mg27  1  0.74710000  0.42893600  0.63381700  1
  Mg  Mg28  1  0.60471200  0.81101900  0.61783700  1
  Mg  Mg29  1  0.44514600  0.44514600  0.43526800  1
  Mg  Mg30  1  0.73086100  0.23086100  0.36383900  1
  Mg  Mg31  1  0.23086100  0.73086100  0.36383900  1
  Mg  Mg32  1  0.23086100  0.23086100  0.36383900  1
  Mg  Mg33  1  0.94514600  0.44514600  0.43526800  1
  Mg  Mg34  1  0.44514600  0.94514600  0.43526800  1
  Mg  Mg35  1  0.26226500  0.62972300  0.41848800  1
  Mg  Mg36  1  0.04628300  0.41374200  0.38061900  1
  Mg  Mg37  1  0.41974700  0.68483100  0.47098200  1
  Mg  Mg38  1  0.62802700  0.26056900  0.45204800  1
  Mg  Mg39  1  0.84400900  0.47655100  0.48991700  1
  Mg  Mg40  1  0.47054500  0.20546200  0.39955400  1
  Mg  Mg41  1  0.05228900  0.05228900  0.47098200  1
  Mg  Mg42  1  0.83800300  0.83800300  0.39955400  1
  Mg  Mg43  1  0.78607800  0.10424300  0.41953100  1
  Mg  Mg44  1  0.78004600  0.66818900  0.44900400  1
  Mg  Mg45  1  0.16816200  0.96185500  0.40355100  1
  Mg  Mg46  1  0.43639000  0.32453200  0.49296100  1
  Mg  Mg47  1  0.57176400  0.88992800  0.37957600  1
  Mg  Mg48  1  0.71415200  0.50784500  0.39555600  1
  Mg  Mg49  1  0.10421400  0.78604900  0.45100500  1
  Mg  Mg50  1  0.11024600  0.22210400  0.42153200  1
  Mg  Mg51  1  0.72213100  0.92843800  0.46698400  1
  Mg  Mg52  1  0.45390300  0.56576000  0.37757500  1
  Mg  Mg53  1  0.31852900  0.00036400  0.49096000  1
  Mg  Mg54  1  0.17614000  0.38244800  0.47498000  1
  Mg  Mg55  1  0.01657500  0.01657500  0.29241100  1
  Mg  Mg56  1  0.30228900  0.80228900  0.22098200  1
  Mg  Mg57  1  0.80228900  0.30228900  0.22098200  1
  Mg  Mg58  1  0.80228900  0.80228900  0.22098200  1
  Mg  Mg59  1  0.51657500  0.01657500  0.29241100  1
  Mg  Mg60  1  0.01657500  0.51657500  0.29241100  1
  Mg  Mg61  1  0.83369400  0.20115200  0.27563100  1
  Mg  Mg62  1  0.61771200  0.98517000  0.23776200  1
  Mg  Mg63  1  0.99117600  0.25626000  0.32812500  1
  Mg  Mg64  1  0.19945600  0.83199800  0.30919000  1
  Mg  Mg65  1  0.41543800  0.04798000  0.34706000  1
  Mg  Mg66  1  0.04197400  0.77689000  0.25669600  1
  Mg  Mg67  1  0.62371800  0.62371800  0.32812500  1
  Mg  Mg68  1  0.40943200  0.40943200  0.25669600  1
  Mg  Mg69  1  0.35750700  0.67567200  0.27667400  1
  Mg  Mg70  1  0.35147500  0.23961700  0.30614600  1
  Mg  Mg71  1  0.73959000  0.53328300  0.26069400  1
  Mg  Mg72  1  0.00781800  0.89596100  0.35010400  1
  Mg  Mg73  1  0.14319200  0.46135700  0.23671900  1
  Mg  Mg74  1  0.28558100  0.07927400  0.25269900  1
  Mg  Mg75  1  0.67564300  0.35747800  0.30814700  1
  Mg  Mg76  1  0.68167500  0.79353300  0.27867500  1
  Mg  Mg77  1  0.29355900  0.49986700  0.32412700  1
  Mg  Mg78  1  0.02533100  0.13718900  0.23471800  1
  Mg  Mg79  1  0.88995800  0.57179300  0.34810300  1
  Mg  Mg80  1  0.74756900  0.95387600  0.33212300  1
  Ir  Ir81  1  0.43922600  0.09392400  0.54241100  1
  Ir  Ir82  1  0.99526700  0.16791700  0.56707500  1
  Ir  Ir83  1  0.36523200  0.53788300  0.51774600  1
  Ir  Ir84  1  0.30821000  0.65351100  0.61383900  1
  Ir  Ir85  1  0.75216900  0.57951800  0.58917500  1
  Ir  Ir86  1  0.38220300  0.20955200  0.63850400  1
  Ir  Ir87  1  0.01065400  0.66535300  0.39955400  1
  Ir  Ir88  1  0.56669500  0.73934600  0.42421800  1
  Ir  Ir89  1  0.93666100  0.10931200  0.37488900  1
  Ir  Ir90  1  0.87963800  0.22494000  0.47098200  1
  Ir  Ir91  1  0.32359700  0.15094700  0.44631800  1
  Ir  Ir92  1  0.95363200  0.78098100  0.49564700  1
  Ir  Ir93  1  0.58208300  0.23678100  0.25669600  1
  Ir  Ir94  1  0.13812400  0.31077400  0.28136100  1
  Ir  Ir95  1  0.50809000  0.68074000  0.23203200  1
  Ir  Ir96  1  0.45106700  0.79636800  0.32812500  1
  Ir  Ir97  1  0.89502600  0.72237500  0.30346100  1
  Ir  Ir98  1  0.52506000  0.35240900  0.35278900  1
