# generated using pymatgen
data_Mg5Zn9
_symmetry_space_group_name_H-M   'P 1'
_cell_length_a   5.07402229
_cell_length_b   14.70723601
_cell_length_c   50.49845100
_cell_angle_alpha   88.21601723
_cell_angle_beta   89.67566990
_cell_angle_gamma   90.29193359
_symmetry_Int_Tables_number   1
_chemical_formula_structural   Mg5Zn9
_chemical_formula_sum   'Mg20 Zn36'
_cell_volume   3766.49971225
_cell_formula_units_Z   4
loop_
 _symmetry_equiv_pos_site_id
 _symmetry_equiv_pos_as_xyz
  1  'x, y, z'
loop_
 _atom_site_type_symbol
 _atom_site_label
 _atom_site_symmetry_multiplicity
 _atom_site_fract_x
 _atom_site_fract_y
 _atom_site_fract_z
 _atom_site_occupancy
  Mg  Mg0  1  0.00210400  0.78913200  0.56047600  1
  Mg  Mg1  1  0.49931700  0.80558500  0.73041900  1
  Mg  Mg2  1  0.50794200  0.30182900  0.59528200  1
  Mg  Mg3  1  0.50549400  0.76625100  0.52675900  1
  Mg  Mg4  1  0.50414500  0.14187600  0.50539800  1
  Mg  Mg5  1  0.00600800  0.61658600  0.60478900  1
  Mg  Mg6  1  0.50176800  0.10479100  0.56809300  1
  Mg  Mg7  1  0.00131000  0.48715100  0.71869600  1
  Mg  Mg8  1  0.00258200  0.98635800  0.58688600  1
  Mg  Mg9  1  0.00265900  0.11152600  0.74005700  1
  Mg  Mg10  1  0.99886200  0.95157400  0.65017200  1
  Mg  Mg11  1  0.50422200  0.26704500  0.65856800  1
  Mg  Mg12  1  0.50200100  0.60019200  0.74432500  1
  Mg  Mg13  1  0.00309900  0.42092900  0.57732800  1
  Mg  Mg14  1  0.50370500  0.83247300  0.66812600  1
  Mg  Mg15  1  0.00503700  0.14861200  0.67736100  1
  Mg  Mg16  1  0.50470100  0.46427000  0.68497900  1
  Mg  Mg17  1  0.50079700  0.63681700  0.64066500  1
  Mg  Mg18  1  0.00748800  0.44781800  0.51503600  1
  Mg  Mg19  1  0.00480300  0.65321100  0.50113000  1
  Zn  Zn20  1  0.00340200  0.25170100  0.49772700  1
  Zn  Zn21  1  0.99930100  0.12171300  0.53542600  1
  Zn  Zn22  1  0.00267300  0.69325300  0.73878800  1
  Zn  Zn23  1  0.50691500  0.96724600  0.61933000  1
  Zn  Zn24  1  0.75279500  0.28957300  0.71154400  1
  Zn  Zn25  1  0.24855900  0.96957800  0.70308600  1
  Zn  Zn26  1  0.25045000  0.96607300  0.53288700  1
  Zn  Zn27  1  0.25340200  0.12670100  0.62272700  1
  Zn  Zn28  1  0.50750400  0.13169000  0.71002900  1
  Zn  Zn29  1  0.00420800  0.73253700  0.65398500  1
  Zn  Zn30  1  0.75183500  0.28384300  0.54246300  1
  Zn  Zn31  1  0.24999400  0.80994300  0.61500900  1
  Zn  Zn32  1  0.50252700  0.70320800  0.58302400  1
  Zn  Zn33  1  0.00381800  0.20103800  0.58199200  1
  Zn  Zn34  1  0.50891100  0.43628300  0.54552300  1
  Zn  Zn35  1  0.50413200  0.56014900  0.50666700  1
  Zn  Zn36  1  0.50259600  0.52086500  0.59146900  1
  Zn  Zn37  1  0.76255500  0.59911800  0.55065300  1
  Zn  Zn38  1  0.75496900  0.96955900  0.70299200  1
  Zn  Zn39  1  0.25635500  0.28733000  0.71256700  1
  Zn  Zn40  1  0.50298600  0.05236500  0.66346300  1
  Zn  Zn41  1  0.74424900  0.65428400  0.69480100  1
  Zn  Zn42  1  0.25824500  0.28382400  0.54236900  1
  Zn  Zn43  1  0.75340200  0.12670100  0.62272700  1
  Zn  Zn44  1  0.49785200  0.89144500  0.57344600  1
  Zn  Zn45  1  0.75405600  0.80904100  0.61538500  1
  Zn  Zn46  1  0.24915500  0.60159700  0.54999300  1
  Zn  Zn47  1  0.00895300  0.36195800  0.67200900  1
  Zn  Zn48  1  0.25764900  0.65180500  0.69546200  1
  Zn  Zn49  1  0.99789300  0.81711900  0.69993200  1
  Zn  Zn50  1  0.75274800  0.44436100  0.63006900  1
  Zn  Zn51  1  0.75401000  0.96382900  0.53391000  1
  Zn  Zn52  1  0.50340200  0.00170100  0.74772700  1
  Zn  Zn53  1  0.25681100  0.44345900  0.63044600  1
  Zn  Zn54  1  0.00427700  0.55019400  0.66243000  1
  Zn  Zn55  1  0.99989000  0.28615600  0.62612400  1
