# generated using pymatgen
data_Mg23B144
_symmetry_space_group_name_H-M   'P 1'
_cell_length_a   7.26364870
_cell_length_b   7.26364888
_cell_length_c   48.33922800
_cell_angle_alpha   94.01003019
_cell_angle_beta   94.01003029
_cell_angle_gamma   92.20890678
_symmetry_Int_Tables_number   1
_chemical_formula_structural   Mg23B144
_chemical_formula_sum   'Mg23 B144'
_cell_volume   2535.51535720
_cell_formula_units_Z   1
loop_
 _symmetry_equiv_pos_site_id
 _symmetry_equiv_pos_as_xyz
  1  'x, y, z'
loop_
 _atom_site_type_symbol
 _atom_site_label
 _atom_site_symmetry_multiplicity
 _atom_site_fract_x
 _atom_site_fract_y
 _atom_site_fract_z
 _atom_site_occupancy
  Mg  Mg0  1  0.15925700  0.65925700  0.71093800  1
  Mg  Mg1  1  0.49046500  0.99046500  0.69740300  1
  Mg  Mg2  1  0.82804900  0.32804900  0.72447200  1
  Mg  Mg3  1  0.95925700  0.45925700  0.66093800  1
  Mg  Mg4  1  0.75925700  0.25925700  0.61093800  1
  Mg  Mg5  1  0.09046500  0.59046500  0.59740300  1
  Mg  Mg6  1  0.42804900  0.92804900  0.62447200  1
  Mg  Mg7  1  0.55925700  0.05925700  0.56093700  1
  Mg  Mg8  1  0.35925700  0.85925700  0.51093800  1
  Mg  Mg9  1  0.69046500  0.19046500  0.49740300  1
  Mg  Mg10  1  0.02804900  0.52804900  0.52447200  1
  Mg  Mg11  1  0.15925700  0.65925700  0.46093800  1
  Mg  Mg12  1  0.95925700  0.45925700  0.41093800  1
  Mg  Mg13  1  0.29046500  0.79046500  0.39740300  1
  Mg  Mg14  1  0.62804900  0.12804900  0.42447200  1
  Mg  Mg15  1  0.75925700  0.25925700  0.36093800  1
  Mg  Mg16  1  0.55925700  0.05925700  0.31093800  1
  Mg  Mg17  1  0.89046500  0.39046500  0.29740300  1
  Mg  Mg18  1  0.22804900  0.72804900  0.32447200  1
  Mg  Mg19  1  0.35925700  0.85925700  0.26093800  1
  Mg  Mg20  1  0.15925700  0.65925700  0.21093700  1
  Mg  Mg21  1  0.49046500  0.99046500  0.19740300  1
  Mg  Mg22  1  0.82804900  0.32804900  0.22447200  1
  B  B23  1  0.23060300  0.94959900  0.72246400  1
  B  B24  1  0.44959900  0.73060300  0.72246400  1
  B  B25  1  0.86891500  0.58791100  0.69941100  1
  B  B26  1  0.08791100  0.36891500  0.69941100  1
  B  B27  1  0.83060300  0.54959900  0.62246400  1
  B  B28  1  0.91161400  0.75594500  0.64074900  1
  B  B29  1  0.10890300  0.95323400  0.69007100  1
  B  B30  1  0.98276500  0.14735900  0.64330300  1
  B  B31  1  0.14002100  0.80775600  0.65849900  1
  B  B32  1  0.05872900  0.93143900  0.62904000  1
  B  B33  1  0.18317600  0.05588500  0.66015200  1
  B  B34  1  0.27115500  0.43574900  0.67857200  1
  B  B35  1  0.04959900  0.33060300  0.62246400  1
  B  B36  1  0.30775600  0.64002100  0.65849900  1
  B  B37  1  0.25594500  0.41161400  0.64074900  1
  B  B38  1  0.45323400  0.60890300  0.69007100  1
  B  B39  1  0.36262900  0.23533800  0.66172300  1
  B  B40  1  0.48707500  0.35978500  0.69283500  1
  B  B41  1  0.43143900  0.55872900  0.62904000  1
  B  B42  1  0.55588500  0.68317600  0.66015200  1
  B  B43  1  0.46528000  0.30961100  0.63180400  1
  B  B44  1  0.66256900  0.50690000  0.68112600  1
  B  B45  1  0.61075800  0.27849300  0.66337600  1
  B  B46  1  0.46891500  0.18791100  0.59941100  1
  B  B47  1  0.64735900  0.48276500  0.64330300  1
  B  B48  1  0.73533800  0.86262900  0.66172300  1
  B  B49  1  0.85978500  0.98707500  0.69283500  1
  B  B50  1  0.77849300  0.11075800  0.66337600  1
  B  B51  1  0.93574900  0.77115500  0.67857200  1
  B  B52  1  0.80961100  0.96528000  0.63180400  1
  B  B53  1  0.00690000  0.16256900  0.68112600  1
  B  B54  1  0.68791100  0.96891500  0.59941100  1
  B  B55  1  0.43060300  0.14959900  0.52246400  1
  B  B56  1  0.51161400  0.35594500  0.54074900  1
  B  B57  1  0.70890300  0.55323400  0.59007100  1
  B  B58  1  0.58276500  0.74735900  0.54330300  1
  B  B59  1  0.74002100  0.40775600  0.55849900  1
  B  B60  1  0.65872900  0.53143900  0.52904000  1
  B  B61  1  0.78317600  0.65588500  0.56015200  1
  B  B62  1  0.87115500  0.03574900  0.57857200  1
  B  B63  1  0.64959900  0.93060300  0.52246400  1
  B  B64  1  0.90775600  0.24002100  0.55849900  1
  B  B65  1  0.85594500  0.01161400  0.54074900  1
  B  B66  1  0.05323400  0.20890300  0.59007100  1
  B  B67  1  0.96262900  0.83533800  0.56172300  1
  B  B68  1  0.08707500  0.95978500  0.59283500  1
  B  B69  1  0.03143900  0.15872900  0.52904000  1
  B  B70  1  0.15588500  0.28317600  0.56015200  1
  B  B71  1  0.06528000  0.90961100  0.53180400  1
  B  B72  1  0.26256900  0.10690000  0.58112600  1
  B  B73  1  0.21075800  0.87849300  0.56337600  1
  B  B74  1  0.06891500  0.78791100  0.49941100  1
  B  B75  1  0.24735900  0.08276500  0.54330300  1
  B  B76  1  0.33533800  0.46262900  0.56172300  1
  B  B77  1  0.45978500  0.58707500  0.59283500  1
  B  B78  1  0.37849300  0.71075800  0.56337600  1
  B  B79  1  0.53574900  0.37115500  0.57857200  1
  B  B80  1  0.40961100  0.56528000  0.53180400  1
  B  B81  1  0.60690000  0.76256900  0.58112600  1
  B  B82  1  0.28791100  0.56891500  0.49941100  1
  B  B83  1  0.03060300  0.74959900  0.42246400  1
  B  B84  1  0.11161400  0.95594500  0.44074900  1
  B  B85  1  0.30890300  0.15323400  0.49007100  1
  B  B86  1  0.18276500  0.34735900  0.44330300  1
  B  B87  1  0.34002100  0.00775600  0.45849900  1
  B  B88  1  0.25872900  0.13143900  0.42904000  1
  B  B89  1  0.38317600  0.25588500  0.46015200  1
  B  B90  1  0.47115500  0.63574900  0.47857200  1
  B  B91  1  0.24959900  0.53060300  0.42246400  1
  B  B92  1  0.50775600  0.84002100  0.45849900  1
  B  B93  1  0.45594500  0.61161400  0.44074900  1
  B  B94  1  0.65323400  0.80890300  0.49007100  1
  B  B95  1  0.56262900  0.43533800  0.46172300  1
  B  B96  1  0.68707500  0.55978500  0.49283500  1
  B  B97  1  0.63143900  0.75872900  0.42904000  1
  B  B98  1  0.75588500  0.88317600  0.46015200  1
  B  B99  1  0.66528000  0.50961100  0.43180400  1
  B  B100  1  0.86256900  0.70690000  0.48112600  1
  B  B101  1  0.81075800  0.47849300  0.46337600  1
  B  B102  1  0.66891500  0.38791100  0.39941100  1
  B  B103  1  0.84735900  0.68276500  0.44330300  1
  B  B104  1  0.93533800  0.06262900  0.46172300  1
  B  B105  1  0.05978500  0.18707500  0.49283500  1
  B  B106  1  0.97849300  0.31075800  0.46337600  1
  B  B107  1  0.13574900  0.97115500  0.47857200  1
  B  B108  1  0.00961100  0.16528000  0.43180400  1
  B  B109  1  0.20690000  0.36256900  0.48112600  1
  B  B110  1  0.88791100  0.16891500  0.39941100  1
  B  B111  1  0.63060300  0.34959900  0.32246400  1
  B  B112  1  0.71161400  0.55594500  0.34074900  1
  B  B113  1  0.90890300  0.75323400  0.39007100  1
  B  B114  1  0.78276500  0.94735900  0.34330300  1
  B  B115  1  0.94002100  0.60775600  0.35849900  1
  B  B116  1  0.85872900  0.73143900  0.32904000  1
  B  B117  1  0.98317600  0.85588500  0.36015200  1
  B  B118  1  0.07115500  0.23574900  0.37857200  1
  B  B119  1  0.84959900  0.13060300  0.32246400  1
  B  B120  1  0.10775600  0.44002100  0.35849900  1
  B  B121  1  0.05594500  0.21161400  0.34074900  1
  B  B122  1  0.25323400  0.40890300  0.39007100  1
  B  B123  1  0.16262900  0.03533800  0.36172300  1
  B  B124  1  0.28707500  0.15978500  0.39283500  1
  B  B125  1  0.23143900  0.35872900  0.32904000  1
  B  B126  1  0.35588500  0.48317600  0.36015200  1
  B  B127  1  0.26528000  0.10961100  0.33180400  1
  B  B128  1  0.46256900  0.30690000  0.38112600  1
  B  B129  1  0.41075800  0.07849300  0.36337600  1
  B  B130  1  0.26891500  0.98791100  0.29941100  1
  B  B131  1  0.44735900  0.28276500  0.34330300  1
  B  B132  1  0.53533800  0.66262900  0.36172300  1
  B  B133  1  0.65978500  0.78707500  0.39283500  1
  B  B134  1  0.57849300  0.91075800  0.36337600  1
  B  B135  1  0.73574900  0.57115500  0.37857200  1
  B  B136  1  0.60961100  0.76528000  0.33180400  1
  B  B137  1  0.80690000  0.96256900  0.38112600  1
  B  B138  1  0.48791100  0.76891500  0.29941100  1
  B  B139  1  0.23060300  0.94959900  0.22246400  1
  B  B140  1  0.31161400  0.15594500  0.24074900  1
  B  B141  1  0.50890300  0.35323400  0.29007100  1
  B  B142  1  0.38276500  0.54735900  0.24330300  1
  B  B143  1  0.54002100  0.20775600  0.25849900  1
  B  B144  1  0.45872900  0.33143900  0.22904000  1
  B  B145  1  0.58317600  0.45588500  0.26015200  1
  B  B146  1  0.67115500  0.83574900  0.27857200  1
  B  B147  1  0.44959900  0.73060300  0.22246400  1
  B  B148  1  0.70775600  0.04002100  0.25849900  1
  B  B149  1  0.65594500  0.81161400  0.24074900  1
  B  B150  1  0.85323400  0.00890300  0.29007100  1
  B  B151  1  0.76262900  0.63533800  0.26172300  1
  B  B152  1  0.88707500  0.75978500  0.29283500  1
  B  B153  1  0.83143900  0.95872900  0.22904000  1
  B  B154  1  0.95588500  0.08317600  0.26015200  1
  B  B155  1  0.86528000  0.70961100  0.23180400  1
  B  B156  1  0.06256900  0.90690000  0.28112600  1
  B  B157  1  0.01075800  0.67849300  0.26337600  1
  B  B158  1  0.86891500  0.58791100  0.19941100  1
  B  B159  1  0.04735900  0.88276500  0.24330300  1
  B  B160  1  0.13533800  0.26262900  0.26172300  1
  B  B161  1  0.25978500  0.38707500  0.29283500  1
  B  B162  1  0.17849300  0.51075800  0.26337600  1
  B  B163  1  0.33574900  0.17115500  0.27857200  1
  B  B164  1  0.20961100  0.36528000  0.23180400  1
  B  B165  1  0.40690000  0.56256900  0.28112600  1
  B  B166  1  0.08791100  0.36891500  0.19941100  1
