# generated using pymatgen
data_Mg24Co49
_symmetry_space_group_name_H-M   'P 1'
_cell_length_a   4.82826386
_cell_length_b   9.24833190
_cell_length_c   44.51983400
_cell_angle_alpha   86.73171124
_cell_angle_beta   93.10844041
_cell_angle_gamma   74.86855310
_symmetry_Int_Tables_number   1
_chemical_formula_structural   Mg24Co49
_chemical_formula_sum   'Mg24 Co49'
_cell_volume   1910.98448662
_cell_formula_units_Z   1
loop_
 _symmetry_equiv_pos_site_id
 _symmetry_equiv_pos_as_xyz
  1  'x, y, z'
loop_
 _atom_site_type_symbol
 _atom_site_label
 _atom_site_symmetry_multiplicity
 _atom_site_fract_x
 _atom_site_fract_y
 _atom_site_fract_z
 _atom_site_occupancy
  Mg  Mg0  1  0.93659300  0.26569400  0.30735400  1
  Mg  Mg1  1  0.81209300  0.54582100  0.33847900  1
  Mg  Mg2  1  0.21437100  0.72402800  0.32124300  1
  Mg  Mg3  1  0.08987100  0.00415400  0.35236800  1
  Mg  Mg4  1  0.60326000  0.01569400  0.39068700  1
  Mg  Mg5  1  0.47876000  0.29582100  0.42181300  1
  Mg  Mg6  1  0.88103800  0.47402800  0.40457600  1
  Mg  Mg7  1  0.75653700  0.75415400  0.43570100  1
  Mg  Mg8  1  0.26992700  0.76569400  0.47402100  1
  Mg  Mg9  1  0.14542600  0.04582100  0.50514600  1
  Mg  Mg10  1  0.54770500  0.22402800  0.48791000  1
  Mg  Mg11  1  0.42320400  0.50415400  0.51903500  1
  Mg  Mg12  1  0.93659300  0.51569400  0.55735400  1
  Mg  Mg13  1  0.81209300  0.79582100  0.58847900  1
  Mg  Mg14  1  0.21437100  0.97402800  0.57124300  1
  Mg  Mg15  1  0.08987100  0.25415400  0.60236800  1
  Mg  Mg16  1  0.60326000  0.26569400  0.64068700  1
  Mg  Mg17  1  0.47876000  0.54582100  0.67181300  1
  Mg  Mg18  1  0.88103800  0.72402800  0.65457600  1
  Mg  Mg19  1  0.75653700  0.00415400  0.68570100  1
  Mg  Mg20  1  0.26992700  0.01569400  0.72402100  1
  Mg  Mg21  1  0.14542600  0.29582100  0.75514600  1
  Mg  Mg22  1  0.54770500  0.47402800  0.73791000  1
  Mg  Mg23  1  0.42320400  0.75415400  0.76903500  1
  Co  Co24  1  0.67989900  0.75992400  0.28819400  1
  Co  Co25  1  0.51323200  0.13492400  0.32986100  1
  Co  Co26  1  0.20242200  0.27977200  0.36491200  1
  Co  Co27  1  0.71424500  0.27977200  0.36491200  1
  Co  Co28  1  0.37302900  0.40772800  0.32226000  1
  Co  Co29  1  0.34656500  0.50992400  0.37152800  1
  Co  Co30  1  0.65343500  0.86212000  0.33746200  1
  Co  Co31  1  0.31221900  0.99007600  0.29481000  1
  Co  Co32  1  0.82404200  0.99007600  0.29481000  1
  Co  Co33  1  0.17989900  0.88492400  0.41319400  1
  Co  Co34  1  0.86908800  0.02977200  0.44824500  1
  Co  Co35  1  0.38091200  0.02977200  0.44824500  1
  Co  Co36  1  0.03969600  0.15772800  0.40559300  1
  Co  Co37  1  0.01323200  0.25992400  0.45486100  1
  Co  Co38  1  0.32010100  0.61212000  0.42079600  1
  Co  Co39  1  0.97888600  0.74007600  0.37814400  1
  Co  Co40  1  0.49070900  0.74007600  0.37814400  1
  Co  Co41  1  0.84656500  0.63492400  0.49652800  1
  Co  Co42  1  0.53575500  0.77977200  0.53157800  1
  Co  Co43  1  0.04757800  0.77977200  0.53157800  1
  Co  Co44  1  0.70636300  0.90772800  0.48892600  1
  Co  Co45  1  0.67989900  0.00992400  0.53819400  1
  Co  Co46  1  0.98676800  0.36212000  0.50412900  1
  Co  Co47  1  0.64555300  0.49007600  0.46147700  1
  Co  Co48  1  0.15737600  0.49007600  0.46147700  1
  Co  Co49  1  0.51323200  0.38492400  0.57986100  1
  Co  Co50  1  0.20242200  0.52977200  0.61491200  1
  Co  Co51  1  0.71424500  0.52977200  0.61491200  1
  Co  Co52  1  0.37302900  0.65772800  0.57226000  1
  Co  Co53  1  0.34656500  0.75992400  0.62152800  1
  Co  Co54  1  0.65343500  0.11212000  0.58746200  1
  Co  Co55  1  0.31221900  0.24007600  0.54481000  1
  Co  Co56  1  0.82404200  0.24007600  0.54481000  1
  Co  Co57  1  0.17989900  0.13492400  0.66319400  1
  Co  Co58  1  0.86908800  0.27977200  0.69824500  1
  Co  Co59  1  0.38091200  0.27977200  0.69824500  1
  Co  Co60  1  0.03969600  0.40772800  0.65559300  1
  Co  Co61  1  0.01323200  0.50992400  0.70486100  1
  Co  Co62  1  0.32010100  0.86212000  0.67079600  1
  Co  Co63  1  0.97888600  0.99007600  0.62814400  1
  Co  Co64  1  0.49070900  0.99007600  0.62814400  1
  Co  Co65  1  0.84656500  0.88492400  0.74652800  1
  Co  Co66  1  0.53575500  0.02977200  0.78157800  1
  Co  Co67  1  0.04757800  0.02977200  0.78157800  1
  Co  Co68  1  0.70636300  0.15772800  0.73892600  1
  Co  Co69  1  0.67989900  0.25992400  0.78819400  1
  Co  Co70  1  0.98676800  0.61212000  0.75412900  1
  Co  Co71  1  0.64555300  0.74007600  0.71147700  1
  Co  Co72  1  0.15737600  0.74007600  0.71147700  1
