# generated using pymatgen
data_Mg71Au35
_symmetry_space_group_name_H-M   'P 1'
_cell_length_a   8.57805800
_cell_length_b   19.42687861
_cell_length_c   43.79002900
_cell_angle_alpha   77.44775440
_cell_angle_beta   90.00000000
_cell_angle_gamma   90.00000000
_symmetry_Int_Tables_number   1
_chemical_formula_structural   Mg71Au35
_chemical_formula_sum   'Mg142 Au70'
_cell_volume   7122.96428687
_cell_formula_units_Z   2
loop_
 _symmetry_equiv_pos_site_id
 _symmetry_equiv_pos_as_xyz
  1  'x, y, z'
loop_
 _atom_site_type_symbol
 _atom_site_label
 _atom_site_symmetry_multiplicity
 _atom_site_fract_x
 _atom_site_fract_y
 _atom_site_fract_z
 _atom_site_occupancy
  Mg  Mg0  1  0.94817100  0.92810100  0.21386900  1
  Mg  Mg1  1  0.55182900  0.37810100  0.26386900  1
  Mg  Mg2  1  0.05182900  0.97845600  0.27502000  1
  Mg  Mg3  1  0.44817100  0.52845600  0.22502000  1
  Mg  Mg4  1  0.94796500  0.52929300  0.28066800  1
  Mg  Mg5  1  0.55203500  0.07929300  0.23066800  1
  Mg  Mg6  1  0.05203500  0.37726400  0.20822100  1
  Mg  Mg7  1  0.44796500  0.82726400  0.25822100  1
  Mg  Mg8  1  0.94300900  0.22730600  0.24711400  1
  Mg  Mg9  1  0.55699100  0.67730600  0.29711400  1
  Mg  Mg10  1  0.05699100  0.67925200  0.24177500  1
  Mg  Mg11  1  0.44300900  0.12925200  0.29177500  1
  Mg  Mg12  1  0.19798500  0.81747200  0.20157700  1
  Mg  Mg13  1  0.30201500  0.26747200  0.25157700  1
  Mg  Mg14  1  0.80201500  0.08908600  0.28731200  1
  Mg  Mg15  1  0.69798500  0.63908600  0.23731200  1
  Mg  Mg16  1  0.19071800  0.41675700  0.26816400  1
  Mg  Mg17  1  0.30928200  0.96675700  0.21816400  1
  Mg  Mg18  1  0.80928200  0.48980100  0.22072500  1
  Mg  Mg19  1  0.69071800  0.93980100  0.27072500  1
  Mg  Mg20  1  0.19186700  0.11605200  0.23475300  1
  Mg  Mg21  1  0.30813300  0.56605200  0.28475300  1
  Mg  Mg22  1  0.80813300  0.79050600  0.25413600  1
  Mg  Mg23  1  0.69186700  0.34050600  0.20413600  1
  Mg  Mg24  1  0.94817100  0.82810100  0.31386900  1
  Mg  Mg25  1  0.55182900  0.27810100  0.36386900  1
  Mg  Mg26  1  0.05182900  0.87845600  0.37502000  1
  Mg  Mg27  1  0.44817100  0.42845600  0.32502000  1
  Mg  Mg28  1  0.94796500  0.42929300  0.38066800  1
  Mg  Mg29  1  0.55203500  0.97929300  0.33066800  1
  Mg  Mg30  1  0.05203500  0.27726400  0.30822100  1
  Mg  Mg31  1  0.44796500  0.72726400  0.35822100  1
  Mg  Mg32  1  0.94300900  0.12730600  0.34711400  1
  Mg  Mg33  1  0.55699100  0.57730600  0.39711400  1
  Mg  Mg34  1  0.05699100  0.57925200  0.34177500  1
  Mg  Mg35  1  0.44300900  0.02925200  0.39177500  1
  Mg  Mg36  1  0.19798500  0.71747200  0.30157700  1
  Mg  Mg37  1  0.30201500  0.16747200  0.35157700  1
  Mg  Mg38  1  0.80201500  0.98908600  0.38731200  1
  Mg  Mg39  1  0.69798500  0.53908600  0.33731200  1
  Mg  Mg40  1  0.19071800  0.31675700  0.36816400  1
  Mg  Mg41  1  0.30928200  0.86675700  0.31816400  1
  Mg  Mg42  1  0.80928200  0.38980100  0.32072500  1
  Mg  Mg43  1  0.69071800  0.83980100  0.37072500  1
  Mg  Mg44  1  0.19186700  0.01605200  0.33475300  1
  Mg  Mg45  1  0.30813300  0.46605200  0.38475300  1
  Mg  Mg46  1  0.80813300  0.69050600  0.35413600  1
  Mg  Mg47  1  0.69186700  0.24050600  0.30413600  1
  Mg  Mg48  1  0.94817100  0.72810100  0.41386900  1
  Mg  Mg49  1  0.55182900  0.17810100  0.46386900  1
  Mg  Mg50  1  0.05182900  0.77845600  0.47502000  1
  Mg  Mg51  1  0.44817100  0.32845600  0.42502000  1
  Mg  Mg52  1  0.94796500  0.32929300  0.48066800  1
  Mg  Mg53  1  0.55203500  0.87929300  0.43066800  1
  Mg  Mg54  1  0.05203500  0.17726400  0.40822100  1
  Mg  Mg55  1  0.44796500  0.62726400  0.45822100  1
  Mg  Mg56  1  0.94300900  0.02730600  0.44711400  1
  Mg  Mg57  1  0.55699100  0.47730600  0.49711400  1
  Mg  Mg58  1  0.05699100  0.47925200  0.44177500  1
  Mg  Mg59  1  0.44300900  0.92925200  0.49177500  1
  Mg  Mg60  1  0.19798500  0.61747200  0.40157700  1
  Mg  Mg61  1  0.30201500  0.06747200  0.45157700  1
  Mg  Mg62  1  0.80201500  0.88908600  0.48731200  1
  Mg  Mg63  1  0.69798500  0.43908600  0.43731200  1
  Mg  Mg64  1  0.19071800  0.21675700  0.46816400  1
  Mg  Mg65  1  0.30928200  0.76675700  0.41816400  1
  Mg  Mg66  1  0.80928200  0.28980100  0.42072500  1
  Mg  Mg67  1  0.69071800  0.73980100  0.47072500  1
  Mg  Mg68  1  0.19186700  0.91605200  0.43475300  1
  Mg  Mg69  1  0.30813300  0.36605200  0.48475300  1
  Mg  Mg70  1  0.80813300  0.59050600  0.45413600  1
  Mg  Mg71  1  0.69186700  0.14050600  0.40413600  1
  Mg  Mg72  1  0.94817100  0.62810100  0.51386900  1
  Mg  Mg73  1  0.55182900  0.07810100  0.56386900  1
  Mg  Mg74  1  0.05182900  0.67845600  0.57502000  1
  Mg  Mg75  1  0.44817100  0.22845600  0.52502000  1
  Mg  Mg76  1  0.94796500  0.22929300  0.58066800  1
  Mg  Mg77  1  0.55203500  0.77929300  0.53066800  1
  Mg  Mg78  1  0.05203500  0.07726400  0.50822100  1
  Mg  Mg79  1  0.44796500  0.52726400  0.55822100  1
  Mg  Mg80  1  0.94300900  0.92730600  0.54711400  1
  Mg  Mg81  1  0.55699100  0.37730600  0.59711400  1
  Mg  Mg82  1  0.05699100  0.37925200  0.54177500  1
  Mg  Mg83  1  0.44300900  0.82925200  0.59177500  1
  Mg  Mg84  1  0.19798500  0.51747200  0.50157700  1
  Mg  Mg85  1  0.30201500  0.96747200  0.55157700  1
  Mg  Mg86  1  0.80201500  0.78908600  0.58731200  1
  Mg  Mg87  1  0.69798500  0.33908600  0.53731200  1
  Mg  Mg88  1  0.19071800  0.11675700  0.56816400  1
  Mg  Mg89  1  0.30928200  0.66675700  0.51816400  1
  Mg  Mg90  1  0.80928200  0.18980100  0.52072500  1
  Mg  Mg91  1  0.69071800  0.63980100  0.57072500  1
  Mg  Mg92  1  0.19186700  0.81605200  0.53475300  1
  Mg  Mg93  1  0.30813300  0.26605200  0.58475300  1
  Mg  Mg94  1  0.80813300  0.49050600  0.55413600  1
  Mg  Mg95  1  0.69186700  0.04050600  0.50413600  1
  Mg  Mg96  1  0.94817100  0.52810100  0.61386900  1
  Mg  Mg97  1  0.55182900  0.97810100  0.66386900  1
  Mg  Mg98  1  0.05182900  0.57845600  0.67502000  1
  Mg  Mg99  1  0.44817100  0.12845600  0.62502000  1
  Mg  Mg100  1  0.94796500  0.12929300  0.68066800  1
  Mg  Mg101  1  0.55203500  0.67929300  0.63066800  1
  Mg  Mg102  1  0.05203500  0.97726400  0.60822100  1
  Mg  Mg103  1  0.44796500  0.42726400  0.65822100  1
  Mg  Mg104  1  0.94300900  0.82730600  0.64711400  1
  Mg  Mg105  1  0.55699100  0.27730600  0.69711400  1
  Mg  Mg106  1  0.05699100  0.27925200  0.64177500  1
  Mg  Mg107  1  0.44300900  0.72925200  0.69177500  1
  Mg  Mg108  1  0.19798500  0.41747200  0.60157700  1
  Mg  Mg109  1  0.30201500  0.86747200  0.65157700  1
  Mg  Mg110  1  0.80201500  0.68908600  0.68731200  1
  Mg  Mg111  1  0.69798500  0.23908600  0.63731200  1
  Mg  Mg112  1  0.19071800  0.01675700  0.66816400  1
  Mg  Mg113  1  0.30928200  0.56675700  0.61816400  1
  Mg  Mg114  1  0.80928200  0.08980100  0.62072500  1
  Mg  Mg115  1  0.69071800  0.53980100  0.67072500  1
  Mg  Mg116  1  0.19186700  0.71605200  0.63475300  1
  Mg  Mg117  1  0.30813300  0.16605200  0.68475300  1
  Mg  Mg118  1  0.80813300  0.39050600  0.65413600  1
  Mg  Mg119  1  0.69186700  0.94050600  0.60413600  1
  Mg  Mg120  1  0.94817100  0.42810100  0.71386900  1
  Mg  Mg121  1  0.55182900  0.87810100  0.76386900  1
  Mg  Mg122  1  0.05182900  0.47845600  0.77502000  1
  Mg  Mg123  1  0.44817100  0.02845600  0.72502000  1
  Mg  Mg124  1  0.94796500  0.02929300  0.78066800  1
  Mg  Mg125  1  0.55203500  0.57929300  0.73066800  1
  Mg  Mg126  1  0.05203500  0.87726400  0.70822100  1
  Mg  Mg127  1  0.44796500  0.32726400  0.75822100  1
  Mg  Mg128  1  0.94300900  0.72730600  0.74711400  1
  Mg  Mg129  1  0.05699100  0.17925200  0.74177500  1
  Mg  Mg130  1  0.19798500  0.31747200  0.70157700  1
  Mg  Mg131  1  0.30201500  0.76747200  0.75157700  1
  Mg  Mg132  1  0.80201500  0.58908600  0.78731200  1
  Mg  Mg133  1  0.69798500  0.13908600  0.73731200  1
  Mg  Mg134  1  0.19071800  0.91675700  0.76816400  1
  Mg  Mg135  1  0.30928200  0.46675700  0.71816400  1
  Mg  Mg136  1  0.80928200  0.98980100  0.72072500  1
  Mg  Mg137  1  0.69071800  0.43980100  0.77072500  1
  Mg  Mg138  1  0.19186700  0.61605200  0.73475300  1
  Mg  Mg139  1  0.30813300  0.06605200  0.78475300  1
  Mg  Mg140  1  0.80813300  0.29050600  0.75413600  1
  Mg  Mg141  1  0.69186700  0.84050600  0.70413600  1
  Au  Au142  1  0.86848600  0.05712600  0.22820500  1
  Au  Au143  1  0.63151400  0.50712600  0.27820500  1
  Au  Au144  1  0.13151400  0.84943100  0.26068400  1
  Au  Au145  1  0.36848600  0.39943100  0.21068400  1
  Au  Au146  1  0.86913300  0.35635900  0.26145300  1
  Au  Au147  1  0.63086700  0.90635900  0.21145300  1
  Au  Au148  1  0.13086700  0.55019900  0.22743600  1
  Au  Au149  1  0.36913300  0.00019900  0.27743600  1
  Au  Au150  1  0.87452300  0.65845200  0.29501900  1
  Au  Au151  1  0.62547700  0.20845200  0.24501900  1
  Au  Au152  1  0.12547700  0.14810600  0.29387000  1
  Au  Au153  1  0.37452300  0.69810600  0.24387000  1
  Au  Au154  1  0.86848600  0.95712600  0.32820500  1
  Au  Au155  1  0.63151400  0.40712600  0.37820500  1
  Au  Au156  1  0.13151400  0.74943100  0.36068400  1
  Au  Au157  1  0.36848600  0.29943100  0.31068400  1
  Au  Au158  1  0.86913300  0.25635900  0.36145300  1
  Au  Au159  1  0.63086700  0.80635900  0.31145300  1
  Au  Au160  1  0.13086700  0.45019900  0.32743600  1
  Au  Au161  1  0.36913300  0.90019900  0.37743600  1
  Au  Au162  1  0.87452300  0.55845200  0.39501900  1
  Au  Au163  1  0.62547700  0.10845200  0.34501900  1
  Au  Au164  1  0.12547700  0.04810600  0.39387000  1
  Au  Au165  1  0.37452300  0.59810600  0.34387000  1
  Au  Au166  1  0.86848600  0.85712600  0.42820500  1
  Au  Au167  1  0.63151400  0.30712600  0.47820500  1
  Au  Au168  1  0.13151400  0.64943100  0.46068400  1
  Au  Au169  1  0.36848600  0.19943100  0.41068400  1
  Au  Au170  1  0.86913300  0.15635900  0.46145300  1
  Au  Au171  1  0.63086700  0.70635900  0.41145300  1
  Au  Au172  1  0.13086700  0.35019900  0.42743600  1
  Au  Au173  1  0.36913300  0.80019900  0.47743600  1
  Au  Au174  1  0.87452300  0.45845200  0.49501900  1
  Au  Au175  1  0.62547700  0.00845200  0.44501900  1
  Au  Au176  1  0.12547700  0.94810600  0.49387000  1
  Au  Au177  1  0.37452300  0.49810600  0.44387000  1
  Au  Au178  1  0.86848600  0.75712600  0.52820500  1
  Au  Au179  1  0.63151400  0.20712600  0.57820500  1
  Au  Au180  1  0.13151400  0.54943100  0.56068400  1
  Au  Au181  1  0.36848600  0.09943100  0.51068400  1
  Au  Au182  1  0.86913300  0.05635900  0.56145300  1
  Au  Au183  1  0.63086700  0.60635900  0.51145300  1
  Au  Au184  1  0.13086700  0.25019900  0.52743600  1
  Au  Au185  1  0.36913300  0.70019900  0.57743600  1
  Au  Au186  1  0.87452300  0.35845200  0.59501900  1
  Au  Au187  1  0.62547700  0.90845200  0.54501900  1
  Au  Au188  1  0.12547700  0.84810600  0.59387000  1
  Au  Au189  1  0.37452300  0.39810600  0.54387000  1
  Au  Au190  1  0.86848600  0.65712600  0.62820500  1
  Au  Au191  1  0.63151400  0.10712600  0.67820500  1
  Au  Au192  1  0.13151400  0.44943100  0.66068400  1
  Au  Au193  1  0.36848600  0.99943100  0.61068400  1
  Au  Au194  1  0.86913300  0.95635900  0.66145300  1
  Au  Au195  1  0.63086700  0.50635900  0.61145300  1
  Au  Au196  1  0.13086700  0.15019900  0.62743600  1
  Au  Au197  1  0.36913300  0.60019900  0.67743600  1
  Au  Au198  1  0.87452300  0.25845200  0.69501900  1
  Au  Au199  1  0.62547700  0.80845200  0.64501900  1
  Au  Au200  1  0.12547700  0.74810600  0.69387000  1
  Au  Au201  1  0.37452300  0.29810600  0.64387000  1
  Au  Au202  1  0.86848600  0.55712600  0.72820500  1
  Au  Au203  1  0.63151400  0.00712600  0.77820500  1
  Au  Au204  1  0.13151400  0.34943100  0.76068400  1
  Au  Au205  1  0.36848600  0.89943100  0.71068400  1
  Au  Au206  1  0.86913300  0.85635900  0.76145300  1
  Au  Au207  1  0.63086700  0.40635900  0.71145300  1
  Au  Au208  1  0.13086700  0.05019900  0.72743600  1
  Au  Au209  1  0.36913300  0.50019900  0.77743600  1
  Au  Au210  1  0.62547700  0.70845200  0.74501900  1
  Au  Au211  1  0.37452300  0.19810600  0.74387000  1
