# generated using pymatgen
data_Mg11Zn18
_symmetry_space_group_name_H-M   'P 1'
_cell_length_a   5.07402237
_cell_length_b   17.20699092
_cell_length_c   54.58155700
_cell_angle_alpha   87.89733091
_cell_angle_beta   92.22235669
_cell_angle_gamma   98.42726965
_symmetry_Int_Tables_number   1
_chemical_formula_structural   Mg11Zn18
_chemical_formula_sum   'Mg44 Zn72'
_cell_volume   4708.12472958
_cell_formula_units_Z   4
loop_
 _symmetry_equiv_pos_site_id
 _symmetry_equiv_pos_as_xyz
  1  'x, y, z'
loop_
 _atom_site_type_symbol
 _atom_site_label
 _atom_site_symmetry_multiplicity
 _atom_site_fract_x
 _atom_site_fract_y
 _atom_site_fract_z
 _atom_site_occupancy
  Mg  Mg0  1  0.86164200  0.44060800  0.40360000  1
  Mg  Mg1  1  0.77034900  0.29540900  0.37458200  1
  Mg  Mg2  1  0.48693000  0.70495200  0.39565500  1
  Mg  Mg3  1  0.14506200  0.03106500  0.38252700  1
  Mg  Mg4  1  0.41003200  0.52851400  0.41925400  1
  Mg  Mg5  1  0.14845500  0.91226000  0.51792900  1
  Mg  Mg6  1  0.86713900  0.31270600  0.53759900  1
  Mg  Mg7  1  0.66164200  0.84060800  0.60360000  1
  Mg  Mg8  1  0.70551200  0.01898800  0.51565800  1
  Mg  Mg9  1  0.44146500  0.52247600  0.48035100  1
  Mg  Mg10  1  0.78349200  0.13466800  0.56069300  1
  Mg  Mg11  1  0.57034900  0.69540900  0.57458200  1
  Mg  Mg12  1  0.28693000  0.10495200  0.59565500  1
  Mg  Mg13  1  0.72647900  0.11702900  0.46252400  1
  Mg  Mg14  1  0.56485300  0.82331100  0.44058300  1
  Mg  Mg15  1  0.94506200  0.43106500  0.58252700  1
  Mg  Mg16  1  0.12953000  0.81961800  0.56735100  1
  Mg  Mg17  1  0.36098000  0.34466700  0.50300600  1
  Mg  Mg18  1  0.07101200  0.79135000  0.47517600  1
  Mg  Mg19  1  0.64850000  0.00134900  0.41748900  1
  Mg  Mg20  1  0.02196000  0.60750300  0.55892800  1
  Mg  Mg21  1  0.99052600  0.61354100  0.49783100  1
  Mg  Mg22  1  0.28353700  0.22375700  0.46025300  1
  Mg  Mg23  1  0.30246200  0.31639900  0.41083000  1
  Mg  Mg24  1  0.21003200  0.92851400  0.61925400  1
  Mg  Mg25  1  0.94845500  0.31226000  0.71792900  1
  Mg  Mg26  1  0.66713900  0.71270600  0.73759900  1
  Mg  Mg27  1  0.46164200  0.24060800  0.80360000  1
  Mg  Mg28  1  0.50551200  0.41898800  0.71565800  1
  Mg  Mg29  1  0.24146500  0.92247600  0.68035100  1
  Mg  Mg30  1  0.58349200  0.53466800  0.76069300  1
  Mg  Mg31  1  0.37034900  0.09540900  0.77458200  1
  Mg  Mg32  1  0.08693000  0.50495200  0.79565500  1
  Mg  Mg33  1  0.52647900  0.51702900  0.66252400  1
  Mg  Mg34  1  0.36485300  0.22331100  0.64058300  1
  Mg  Mg35  1  0.74506200  0.83106500  0.78252700  1
  Mg  Mg36  1  0.92953000  0.21961800  0.76735100  1
  Mg  Mg37  1  0.16098000  0.74466700  0.70300600  1
  Mg  Mg38  1  0.87101200  0.19135000  0.67517600  1
  Mg  Mg39  1  0.44850000  0.40134900  0.61748900  1
  Mg  Mg40  1  0.82196000  0.00750300  0.75892800  1
  Mg  Mg41  1  0.79052600  0.01354100  0.69783100  1
  Mg  Mg42  1  0.08353700  0.62375700  0.66025300  1
  Mg  Mg43  1  0.10246200  0.71639900  0.61083000  1
  Zn  Zn44  1  0.81599600  0.86800800  0.38909100  1
  Zn  Zn45  1  0.31599600  0.86800800  0.38909100  1
  Zn  Zn46  1  0.23867500  0.07295300  0.53770800  1
  Zn  Zn47  1  0.64106100  0.86327300  0.54541700  1
  Zn  Zn48  1  0.03286100  0.76486200  0.41894400  1
  Zn  Zn49  1  0.47230700  0.16112900  0.40980700  1
  Zn  Zn50  1  0.89223100  0.95052400  0.46873100  1
  Zn  Zn51  1  0.45514100  0.97398300  0.56731300  1
  Zn  Zn52  1  0.61599600  0.26800800  0.58909100  1
  Zn  Zn53  1  0.19331700  0.06306400  0.44047400  1
  Zn  Zn54  1  0.53173100  0.70027800  0.48667900  1
  Zn  Zn55  1  0.03348700  0.18571200  0.50950400  1
  Zn  Zn56  1  0.73843000  0.66097300  0.44781100  1
  Zn  Zn57  1  0.92483800  0.52656600  0.44996800  1
  Zn  Zn58  1  0.32424900  0.22299300  0.54978200  1
  Zn  Zn59  1  0.82533400  0.28390700  0.48085200  1
  Zn  Zn60  1  0.79093000  0.27274400  0.43276500  1
  Zn  Zn61  1  0.90026100  0.43573900  0.49150300  1
  Zn  Zn62  1  0.11872800  0.39289600  0.45136300  1
  Zn  Zn63  1  0.39850500  0.95030500  0.46867800  1
  Zn  Zn64  1  0.97685000  0.16203400  0.41086900  1
  Zn  Zn65  1  0.10774200  0.91302400  0.42839900  1
  Zn  Zn66  1  0.31326300  0.74312100  0.52681900  1
  Zn  Zn67  1  0.53976100  0.18549300  0.50945100  1
  Zn  Zn68  1  0.11599600  0.26800800  0.58909100  1
  Zn  Zn69  1  0.94440000  0.61843600  0.40657300  1
  Zn  Zn70  1  0.24283900  0.66126000  0.44821800  1
  Zn  Zn71  1  0.60490000  0.39293000  0.45047100  1
  Zn  Zn72  1  0.48759100  0.51758100  0.57160800  1
  Zn  Zn73  1  0.82709200  0.74308700  0.52771100  1
  Zn  Zn74  1  0.60665700  0.85211000  0.49733000  1
  Zn  Zn75  1  0.18915300  0.47475700  0.52996400  1
  Zn  Zn76  1  0.95968500  0.97488800  0.56837500  1
  Zn  Zn77  1  0.21599600  0.06800800  0.48909100  1
  Zn  Zn78  1  0.69356200  0.47504400  0.53037000  1
  Zn  Zn79  1  0.50715400  0.60945100  0.52821400  1
  Zn  Zn80  1  0.39913000  0.37115500  0.55923800  1
  Zn  Zn81  1  0.03867500  0.47295300  0.73770800  1
  Zn  Zn82  1  0.44106100  0.26327300  0.74541700  1
  Zn  Zn83  1  0.83286100  0.16486200  0.61894400  1
  Zn  Zn84  1  0.27230700  0.56112900  0.60980700  1
  Zn  Zn85  1  0.69223100  0.35052400  0.66873100  1
  Zn  Zn86  1  0.25514100  0.37398300  0.76731300  1
  Zn  Zn87  1  0.41599600  0.66800800  0.78909100  1
  Zn  Zn88  1  0.99331700  0.46306400  0.64047400  1
  Zn  Zn89  1  0.33173100  0.10027800  0.68667900  1
  Zn  Zn90  1  0.83348700  0.58571200  0.70950400  1
  Zn  Zn91  1  0.53843000  0.06097300  0.64781100  1
  Zn  Zn92  1  0.72483800  0.92656600  0.64996800  1
  Zn  Zn93  1  0.12424900  0.62299300  0.74978200  1
  Zn  Zn94  1  0.62533400  0.68390700  0.68085200  1
  Zn  Zn95  1  0.59093000  0.67274400  0.63276500  1
  Zn  Zn96  1  0.70026100  0.83573900  0.69150300  1
  Zn  Zn97  1  0.91872800  0.79289600  0.65136300  1
  Zn  Zn98  1  0.19850500  0.35030500  0.66867800  1
  Zn  Zn99  1  0.77685000  0.56203400  0.61086900  1
  Zn  Zn100  1  0.90774200  0.31302400  0.62839900  1
  Zn  Zn101  1  0.11326300  0.14312100  0.72681900  1
  Zn  Zn102  1  0.33976100  0.58549300  0.70945100  1
  Zn  Zn103  1  0.91599600  0.66800800  0.78909100  1
  Zn  Zn104  1  0.74440000  0.01843600  0.60657300  1
  Zn  Zn105  1  0.04283900  0.06126000  0.64821800  1
  Zn  Zn106  1  0.40490000  0.79293000  0.65047100  1
  Zn  Zn107  1  0.28759100  0.91758100  0.77160800  1
  Zn  Zn108  1  0.62709200  0.14308700  0.72771100  1
  Zn  Zn109  1  0.40665700  0.25211000  0.69733000  1
  Zn  Zn110  1  0.98915300  0.87475700  0.72996400  1
  Zn  Zn111  1  0.75968500  0.37488800  0.76837500  1
  Zn  Zn112  1  0.01599600  0.46800800  0.68909100  1
  Zn  Zn113  1  0.49356200  0.87504400  0.73037000  1
  Zn  Zn114  1  0.30715400  0.00945100  0.72821400  1
  Zn  Zn115  1  0.19913000  0.77115500  0.75923800  1
