# generated using pymatgen
data_Li5Mg9
_symmetry_space_group_name_H-M   'P 1'
_cell_length_a   5.91597348
_cell_length_b   8.55483817
_cell_length_c   41.39076100
_cell_angle_alpha   92.80394366
_cell_angle_beta   91.01073281
_cell_angle_gamma   95.27772267
_symmetry_Int_Tables_number   1
_chemical_formula_structural   Li5Mg9
_chemical_formula_sum   'Li20 Mg36'
_cell_volume   2082.90014689
_cell_formula_units_Z   4
loop_
 _symmetry_equiv_pos_site_id
 _symmetry_equiv_pos_as_xyz
  1  'x, y, z'
loop_
 _atom_site_type_symbol
 _atom_site_label
 _atom_site_symmetry_multiplicity
 _atom_site_fract_x
 _atom_site_fract_y
 _atom_site_fract_z
 _atom_site_occupancy
  Li  Li0  1  0.17414200  0.43442000  0.20641700  1
  Li  Li1  1  0.74214100  0.96141400  0.18941700  1
  Li  Li2  1  0.92414200  0.49692000  0.26891700  1
  Li  Li3  1  0.49214100  0.02391400  0.25191700  1
  Li  Li4  1  0.67414200  0.55942000  0.33141700  1
  Li  Li5  1  0.24214100  0.08641400  0.31441700  1
  Li  Li6  1  0.42414200  0.62192000  0.39391700  1
  Li  Li7  1  0.99214100  0.14891400  0.37691700  1
  Li  Li8  1  0.17414200  0.68442000  0.45641700  1
  Li  Li9  1  0.74214100  0.21141400  0.43941700  1
  Li  Li10  1  0.92414200  0.74692000  0.51891700  1
  Li  Li11  1  0.49214100  0.27391400  0.50191700  1
  Li  Li12  1  0.67414200  0.80942000  0.58141700  1
  Li  Li13  1  0.24214100  0.33641400  0.56441700  1
  Li  Li14  1  0.42414200  0.87192000  0.64391700  1
  Li  Li15  1  0.99214100  0.39891400  0.62691700  1
  Li  Li16  1  0.17414200  0.93442000  0.70641700  1
  Li  Li17  1  0.74214100  0.46141400  0.68941700  1
  Li  Li18  1  0.92414200  0.99692000  0.76891700  1
  Li  Li19  1  0.49214100  0.52391400  0.75191700  1
  Mg  Mg20  1  0.09114800  0.79121600  0.22716500  1
  Mg  Mg21  1  0.00785900  0.14572400  0.24798700  1
  Mg  Mg22  1  0.57513500  0.66711800  0.23116800  1
  Mg  Mg23  1  0.65842500  0.31260900  0.21034600  1
  Mg  Mg24  1  0.84114800  0.85371600  0.28966500  1
  Mg  Mg25  1  0.75785900  0.20822400  0.31048700  1
  Mg  Mg26  1  0.32513500  0.72961800  0.29366800  1
  Mg  Mg27  1  0.40842500  0.37510900  0.27284600  1
  Mg  Mg28  1  0.59114800  0.91621600  0.35216500  1
  Mg  Mg29  1  0.50785900  0.27072400  0.37298700  1
  Mg  Mg30  1  0.07513500  0.79211800  0.35616800  1
  Mg  Mg31  1  0.15842500  0.43760900  0.33534600  1
  Mg  Mg32  1  0.34114800  0.97871600  0.41466500  1
  Mg  Mg33  1  0.25785900  0.33322400  0.43548700  1
  Mg  Mg34  1  0.82513500  0.85461800  0.41866800  1
  Mg  Mg35  1  0.90842500  0.50010900  0.39784600  1
  Mg  Mg36  1  0.09114800  0.04121600  0.47716500  1
  Mg  Mg37  1  0.00785900  0.39572400  0.49798700  1
  Mg  Mg38  1  0.57513500  0.91711800  0.48116800  1
  Mg  Mg39  1  0.65842500  0.56260900  0.46034600  1
  Mg  Mg40  1  0.84114800  0.10371600  0.53966500  1
  Mg  Mg41  1  0.75785900  0.45822400  0.56048700  1
  Mg  Mg42  1  0.32513500  0.97961800  0.54366800  1
  Mg  Mg43  1  0.40842500  0.62510900  0.52284600  1
  Mg  Mg44  1  0.59114800  0.16621600  0.60216500  1
  Mg  Mg45  1  0.50785900  0.52072400  0.62298700  1
  Mg  Mg46  1  0.07513500  0.04211800  0.60616800  1
  Mg  Mg47  1  0.15842500  0.68760900  0.58534600  1
  Mg  Mg48  1  0.34114800  0.22871600  0.66466500  1
  Mg  Mg49  1  0.25785900  0.58322400  0.68548700  1
  Mg  Mg50  1  0.82513500  0.10461800  0.66866800  1
  Mg  Mg51  1  0.90842500  0.75010900  0.64784600  1
  Mg  Mg52  1  0.09114800  0.29121600  0.72716500  1
  Mg  Mg53  1  0.00785900  0.64572400  0.74798700  1
  Mg  Mg54  1  0.57513500  0.16711800  0.73116800  1
  Mg  Mg55  1  0.65842500  0.81260900  0.71034600  1
