# generated using pymatgen
data_Sm2Mg
_symmetry_space_group_name_H-M   'P 1'
_cell_length_a   5.59581600
_cell_length_b   8.88868630
_cell_length_c   44.45033100
_cell_angle_alpha   91.04568330
_cell_angle_beta   90.00000000
_cell_angle_gamma   90.00000000
_symmetry_Int_Tables_number   1
_chemical_formula_structural   Sm2Mg
_chemical_formula_sum   'Sm28 Mg14'
_cell_volume   2210.56694663
_cell_formula_units_Z   14
loop_
 _symmetry_equiv_pos_site_id
 _symmetry_equiv_pos_as_xyz
  1  'x, y, z'
loop_
 _atom_site_type_symbol
 _atom_site_label
 _atom_site_symmetry_multiplicity
 _atom_site_fract_x
 _atom_site_fract_y
 _atom_site_fract_z
 _atom_site_occupancy
  Sm  Sm0  1  0.75000000  0.62070000  0.78423300  1
  Sm  Sm1  1  0.75000000  0.31298000  0.72737600  1
  Sm  Sm2  1  0.25000000  0.04596700  0.71576700  1
  Sm  Sm3  1  0.25000000  0.35368600  0.77262400  1
  Sm  Sm4  1  0.75000000  0.70403300  0.70090000  1
  Sm  Sm5  1  0.75000000  0.39631400  0.64404300  1
  Sm  Sm6  1  0.25000000  0.12930000  0.63243300  1
  Sm  Sm7  1  0.25000000  0.43702000  0.68929100  1
  Sm  Sm8  1  0.75000000  0.78736700  0.61756700  1
  Sm  Sm9  1  0.75000000  0.47964700  0.56070900  1
  Sm  Sm10  1  0.25000000  0.21263300  0.54910000  1
  Sm  Sm11  1  0.25000000  0.52035300  0.60595700  1
  Sm  Sm12  1  0.75000000  0.87070000  0.53423300  1
  Sm  Sm13  1  0.75000000  0.56298000  0.47737600  1
  Sm  Sm14  1  0.25000000  0.29596700  0.46576700  1
  Sm  Sm15  1  0.25000000  0.60368600  0.52262400  1
  Sm  Sm16  1  0.75000000  0.95403300  0.45090000  1
  Sm  Sm17  1  0.75000000  0.64631400  0.39404300  1
  Sm  Sm18  1  0.25000000  0.37930000  0.38243300  1
  Sm  Sm19  1  0.25000000  0.68702000  0.43929100  1
  Sm  Sm20  1  0.75000000  0.03736700  0.36756700  1
  Sm  Sm21  1  0.75000000  0.72964700  0.31070900  1
  Sm  Sm22  1  0.25000000  0.46263300  0.29910000  1
  Sm  Sm23  1  0.25000000  0.77035300  0.35595700  1
  Sm  Sm24  1  0.75000000  0.12070000  0.28423300  1
  Sm  Sm25  1  0.75000000  0.81298000  0.22737600  1
  Sm  Sm26  1  0.25000000  0.54596700  0.21576700  1
  Sm  Sm27  1  0.25000000  0.85368600  0.27262400  1
  Mg  Mg28  1  0.75000000  0.96413800  0.75568700  1
  Mg  Mg29  1  0.25000000  0.70252900  0.74431300  1
  Mg  Mg30  1  0.75000000  0.04747100  0.67235400  1
  Mg  Mg31  1  0.25000000  0.78586200  0.66098000  1
  Mg  Mg32  1  0.75000000  0.13080500  0.58902000  1
  Mg  Mg33  1  0.25000000  0.86919500  0.57764600  1
  Mg  Mg34  1  0.75000000  0.21413800  0.50568700  1
  Mg  Mg35  1  0.25000000  0.95252900  0.49431300  1
  Mg  Mg36  1  0.75000000  0.29747100  0.42235400  1
  Mg  Mg37  1  0.25000000  0.03586200  0.41098000  1
  Mg  Mg38  1  0.75000000  0.38080500  0.33902000  1
  Mg  Mg39  1  0.25000000  0.11919500  0.32764600  1
  Mg  Mg40  1  0.75000000  0.46413800  0.25568700  1
  Mg  Mg41  1  0.25000000  0.20252900  0.24431300  1
