# generated using pymatgen
data_Er20Mg9
_symmetry_space_group_name_H-M   'P 1'
_cell_length_a   3.65070000
_cell_length_b   17.86447484
_cell_length_c   41.62564500
_cell_angle_alpha   96.45089822
_cell_angle_beta   90.00000000
_cell_angle_gamma   90.00000000
_symmetry_Int_Tables_number   1
_chemical_formula_structural   Er20Mg9
_chemical_formula_sum   'Er40 Mg18'
_cell_volume   2697.54625518
_cell_formula_units_Z   2
loop_
 _symmetry_equiv_pos_site_id
 _symmetry_equiv_pos_as_xyz
  1  'x, y, z'
loop_
 _atom_site_type_symbol
 _atom_site_label
 _atom_site_symmetry_multiplicity
 _atom_site_fract_x
 _atom_site_fract_y
 _atom_site_fract_z
 _atom_site_occupancy
  Er  Er0  1  0.50000000  0.92760000  0.20968500  1
  Er  Er1  1  0.00000000  0.77104500  0.23205000  1
  Er  Er2  1  0.00000000  0.71735900  0.31114800  1
  Er  Er3  1  0.50000000  0.87391300  0.28878300  1
  Er  Er4  1  0.00000000  0.49010000  0.27218500  1
  Er  Er5  1  0.50000000  0.33354500  0.29455000  1
  Er  Er6  1  0.50000000  0.15485900  0.24864800  1
  Er  Er7  1  0.00000000  0.31141300  0.22628300  1
  Er  Er8  1  0.50000000  0.05260000  0.33468500  1
  Er  Er9  1  0.00000000  0.89604500  0.35705000  1
  Er  Er10  1  0.00000000  0.84235900  0.43614800  1
  Er  Er11  1  0.50000000  0.99891300  0.41378300  1
  Er  Er12  1  0.00000000  0.61510000  0.39718500  1
  Er  Er13  1  0.50000000  0.45854500  0.41955000  1
  Er  Er14  1  0.50000000  0.27985900  0.37364800  1
  Er  Er15  1  0.00000000  0.43641300  0.35128300  1
  Er  Er16  1  0.50000000  0.17760000  0.45968500  1
  Er  Er17  1  0.00000000  0.02104500  0.48205000  1
  Er  Er18  1  0.00000000  0.96735900  0.56114800  1
  Er  Er19  1  0.50000000  0.12391300  0.53878300  1
  Er  Er20  1  0.00000000  0.74010000  0.52218500  1
  Er  Er21  1  0.50000000  0.58354500  0.54455000  1
  Er  Er22  1  0.50000000  0.40485900  0.49864800  1
  Er  Er23  1  0.00000000  0.56141300  0.47628300  1
  Er  Er24  1  0.50000000  0.30260000  0.58468500  1
  Er  Er25  1  0.00000000  0.14604500  0.60705000  1
  Er  Er26  1  0.00000000  0.09235900  0.68614800  1
  Er  Er27  1  0.50000000  0.24891300  0.66378300  1
  Er  Er28  1  0.00000000  0.86510000  0.64718500  1
  Er  Er29  1  0.50000000  0.70854500  0.66955000  1
  Er  Er30  1  0.50000000  0.52985900  0.62364800  1
  Er  Er31  1  0.00000000  0.68641300  0.60128300  1
  Er  Er32  1  0.50000000  0.42760000  0.70968500  1
  Er  Er33  1  0.00000000  0.27104500  0.73205000  1
  Er  Er34  1  0.00000000  0.21735900  0.81114800  1
  Er  Er35  1  0.50000000  0.37391300  0.78878300  1
  Er  Er36  1  0.00000000  0.99010000  0.77218500  1
  Er  Er37  1  0.50000000  0.83354500  0.79455000  1
  Er  Er38  1  0.50000000  0.65485900  0.74864800  1
  Er  Er39  1  0.00000000  0.81141300  0.72628300  1
  Mg  Mg40  1  0.50000000  0.62981200  0.25222600  1
  Mg  Mg41  1  0.00000000  0.01514700  0.26860700  1
  Mg  Mg42  1  0.50000000  0.75481200  0.37722600  1
  Mg  Mg43  1  1.00000000  0.14014700  0.39360700  1
  Mg  Mg44  1  0.00000000  0.19231200  0.31472600  1
  Mg  Mg45  1  0.50000000  0.57764700  0.33110700  1
  Mg  Mg46  1  0.50000000  0.87981200  0.50222600  1
  Mg  Mg47  1  0.00000000  0.26514700  0.51860700  1
  Mg  Mg48  1  0.00000000  0.31731200  0.43972600  1
  Mg  Mg49  1  0.50000000  0.70264700  0.45610700  1
  Mg  Mg50  1  0.50000000  0.00481200  0.62722600  1
  Mg  Mg51  1  0.00000000  0.39014700  0.64360700  1
  Mg  Mg52  1  0.00000000  0.44231200  0.56472600  1
  Mg  Mg53  1  0.50000000  0.82764700  0.58110700  1
  Mg  Mg54  1  0.50000000  0.12981200  0.75222600  1
  Mg  Mg55  1  0.00000000  0.51514700  0.76860700  1
  Mg  Mg56  1  0.00000000  0.56731200  0.68972600  1
  Mg  Mg57  1  0.50000000  0.95264700  0.70610700  1
