# generated using pymatgen
data_MgPb
_symmetry_space_group_name_H-M   'P 1'
_cell_length_a   3.47558800
_cell_length_b   7.87010147
_cell_length_c   43.00083100
_cell_angle_alpha   88.46194213
_cell_angle_beta   90.00000000
_cell_angle_gamma   90.00000000
_symmetry_Int_Tables_number   1
_chemical_formula_structural   MgPb
_chemical_formula_sum   'Mg14 Pb14'
_cell_volume   1175.78786035
_cell_formula_units_Z   14
loop_
 _symmetry_equiv_pos_site_id
 _symmetry_equiv_pos_as_xyz
  1  'x, y, z'
loop_
 _atom_site_type_symbol
 _atom_site_label
 _atom_site_symmetry_multiplicity
 _atom_site_fract_x
 _atom_site_fract_y
 _atom_site_fract_z
 _atom_site_occupancy
  Mg  Mg0  1  0.50000000  0.78624700  0.18785900  1
  Mg  Mg1  1  0.50000000  0.75920700  0.26668600  1
  Mg  Mg2  1  0.50000000  0.33170200  0.27876800  1
  Mg  Mg3  1  0.50000000  0.30466200  0.35759500  1
  Mg  Mg4  1  0.50000000  0.87715600  0.36967800  1
  Mg  Mg5  1  0.50000000  0.85011600  0.44850400  1
  Mg  Mg6  1  0.50000000  0.42261100  0.46058700  1
  Mg  Mg7  1  0.50000000  0.39557100  0.53941300  1
  Mg  Mg8  1  0.50000000  0.96806500  0.55149600  1
  Mg  Mg9  1  0.50000000  0.94102600  0.63032200  1
  Mg  Mg10  1  0.50000000  0.51352000  0.64240500  1
  Mg  Mg11  1  0.50000000  0.48648000  0.72123200  1
  Mg  Mg12  1  0.50000000  0.05897400  0.73331400  1
  Mg  Mg13  1  0.50000000  0.03193500  0.81214100  1
  Pb  Pb14  1  0.00000000  0.04671800  0.23127100  1
  Pb  Pb15  1  1.00000000  0.49873600  0.22327400  1
  Pb  Pb16  1  0.00000000  0.59217300  0.32218000  1
  Pb  Pb17  1  0.00000000  0.04419100  0.31418300  1
  Pb  Pb18  1  0.00000000  0.13762700  0.41308900  1
  Pb  Pb19  1  0.00000000  0.58964500  0.40509200  1
  Pb  Pb20  1  0.00000000  0.68308200  0.50399800  1
  Pb  Pb21  1  0.00000000  0.13510000  0.49600200  1
  Pb  Pb22  1  0.00000000  0.22853600  0.59490800  1
  Pb  Pb23  1  1.00000000  0.68055400  0.58691100  1
  Pb  Pb24  1  0.00000000  0.77399100  0.68581700  1
  Pb  Pb25  1  0.00000000  0.22600900  0.67782000  1
  Pb  Pb26  1  1.00000000  0.31944600  0.77672600  1
  Pb  Pb27  1  0.00000000  0.77146400  0.76872900  1
