# generated using pymatgen
data_MgPd2
_symmetry_space_group_name_H-M   'P 1'
_cell_length_a   4.19057600
_cell_length_b   9.87844226
_cell_length_c   45.88469700
_cell_angle_alpha   91.77467978
_cell_angle_beta   90.00000000
_cell_angle_gamma   90.00000000
_symmetry_Int_Tables_number   1
_chemical_formula_structural   MgPd2
_chemical_formula_sum   'Mg24 Pd48'
_cell_volume   1898.54848723
_cell_formula_units_Z   24
loop_
 _symmetry_equiv_pos_site_id
 _symmetry_equiv_pos_as_xyz
  1  'x, y, z'
loop_
 _atom_site_type_symbol
 _atom_site_label
 _atom_site_symmetry_multiplicity
 _atom_site_fract_x
 _atom_site_fract_y
 _atom_site_fract_z
 _atom_site_occupancy
  Mg  Mg0  1  0.25000000  0.31937400  0.29296600  1
  Mg  Mg1  1  0.75000000  0.38062600  0.20703400  1
  Mg  Mg2  1  0.25000000  0.68179100  0.27331200  1
  Mg  Mg3  1  0.75000000  0.01820900  0.22668800  1
  Mg  Mg4  1  0.25000000  0.01937400  0.39296600  1
  Mg  Mg5  1  0.75000000  0.08062600  0.30703400  1
  Mg  Mg6  1  0.25000000  0.38179100  0.37331200  1
  Mg  Mg7  1  0.75000000  0.71820900  0.32668800  1
  Mg  Mg8  1  0.25000000  0.71937400  0.49296600  1
  Mg  Mg9  1  0.75000000  0.78062600  0.40703400  1
  Mg  Mg10  1  0.25000000  0.08179100  0.47331200  1
  Mg  Mg11  1  0.75000000  0.41820900  0.42668800  1
  Mg  Mg12  1  0.25000000  0.41937400  0.59296600  1
  Mg  Mg13  1  0.75000000  0.48062600  0.50703400  1
  Mg  Mg14  1  0.25000000  0.78179100  0.57331200  1
  Mg  Mg15  1  0.75000000  0.11820900  0.52668800  1
  Mg  Mg16  1  0.25000000  0.11937400  0.69296600  1
  Mg  Mg17  1  0.75000000  0.18062600  0.60703400  1
  Mg  Mg18  1  0.25000000  0.48179100  0.67331200  1
  Mg  Mg19  1  0.75000000  0.81820900  0.62668800  1
  Mg  Mg20  1  0.25000000  0.81937400  0.79296600  1
  Mg  Mg21  1  0.75000000  0.88062600  0.70703400  1
  Mg  Mg22  1  0.25000000  0.18179100  0.77331200  1
  Mg  Mg23  1  0.75000000  0.51820900  0.72668800  1
  Pd  Pd24  1  0.25000000  0.84683500  0.22684800  1
  Pd  Pd25  1  0.75000000  0.85316500  0.27315200  1
  Pd  Pd26  1  0.25000000  0.44850500  0.24137200  1
  Pd  Pd27  1  0.75000000  0.25149500  0.25862800  1
  Pd  Pd28  1  0.25000000  0.05530100  0.26960400  1
  Pd  Pd29  1  0.75000000  0.64469900  0.23039600  1
  Pd  Pd30  1  0.25000000  0.18554300  0.21678100  1
  Pd  Pd31  1  0.75000000  0.51445700  0.28321900  1
  Pd  Pd32  1  0.25000000  0.54683500  0.32684800  1
  Pd  Pd33  1  0.75000000  0.55316500  0.37315200  1
  Pd  Pd34  1  0.25000000  0.14850500  0.34137200  1
  Pd  Pd35  1  0.75000000  0.95149500  0.35862800  1
  Pd  Pd36  1  0.25000000  0.75530100  0.36960400  1
  Pd  Pd37  1  0.75000000  0.34469900  0.33039600  1
  Pd  Pd38  1  0.25000000  0.88554300  0.31678100  1
  Pd  Pd39  1  0.75000000  0.21445700  0.38321900  1
  Pd  Pd40  1  0.25000000  0.24683500  0.42684800  1
  Pd  Pd41  1  0.75000000  0.25316500  0.47315200  1
  Pd  Pd42  1  0.25000000  0.84850500  0.44137200  1
  Pd  Pd43  1  0.75000000  0.65149500  0.45862800  1
  Pd  Pd44  1  0.25000000  0.45530100  0.46960400  1
  Pd  Pd45  1  0.75000000  0.04469900  0.43039600  1
  Pd  Pd46  1  0.25000000  0.58554300  0.41678100  1
  Pd  Pd47  1  0.75000000  0.91445700  0.48321900  1
  Pd  Pd48  1  0.25000000  0.94683500  0.52684800  1
  Pd  Pd49  1  0.75000000  0.95316500  0.57315200  1
  Pd  Pd50  1  0.25000000  0.54850500  0.54137200  1
  Pd  Pd51  1  0.75000000  0.35149500  0.55862800  1
  Pd  Pd52  1  0.25000000  0.15530100  0.56960400  1
  Pd  Pd53  1  0.75000000  0.74469900  0.53039600  1
  Pd  Pd54  1  0.25000000  0.28554300  0.51678100  1
  Pd  Pd55  1  0.75000000  0.61445700  0.58321900  1
  Pd  Pd56  1  0.25000000  0.64683500  0.62684800  1
  Pd  Pd57  1  0.75000000  0.65316500  0.67315200  1
  Pd  Pd58  1  0.25000000  0.24850500  0.64137200  1
  Pd  Pd59  1  0.75000000  0.05149500  0.65862800  1
  Pd  Pd60  1  0.25000000  0.85530100  0.66960400  1
  Pd  Pd61  1  0.75000000  0.44469900  0.63039600  1
  Pd  Pd62  1  0.25000000  0.98554300  0.61678100  1
  Pd  Pd63  1  0.75000000  0.31445700  0.68321900  1
  Pd  Pd64  1  0.25000000  0.34683500  0.72684800  1
  Pd  Pd65  1  0.75000000  0.35316500  0.77315200  1
  Pd  Pd66  1  0.25000000  0.94850500  0.74137200  1
  Pd  Pd67  1  0.75000000  0.75149500  0.75862800  1
  Pd  Pd68  1  0.25000000  0.55530100  0.76960400  1
  Pd  Pd69  1  0.75000000  0.14469900  0.73039600  1
  Pd  Pd70  1  0.25000000  0.68554300  0.71678100  1
  Pd  Pd71  1  0.75000000  0.01445700  0.78321900  1
