# generated using pymatgen
data_Mg89Ir20
_symmetry_space_group_name_H-M   'P 1'
_cell_length_a   9.82944242
_cell_length_b   9.82944290
_cell_length_c   50.01409000
_cell_angle_alpha   92.36329606
_cell_angle_beta   92.36329617
_cell_angle_gamma   112.50167663
_symmetry_Int_Tables_number   1
_chemical_formula_structural   Mg89Ir20
_chemical_formula_sum   'Mg89 Ir20'
_cell_volume   4452.05614699
_cell_formula_units_Z   1
loop_
 _symmetry_equiv_pos_site_id
 _symmetry_equiv_pos_as_xyz
  1  'x, y, z'
loop_
 _atom_site_type_symbol
 _atom_site_label
 _atom_site_symmetry_multiplicity
 _atom_site_fract_x
 _atom_site_fract_y
 _atom_site_fract_z
 _atom_site_occupancy
  Mg  Mg0  1  0.67257500  0.17257500  0.67187500  1
  Mg  Mg1  1  0.17257500  0.67257500  0.67187500  1
  Mg  Mg2  1  0.17257500  0.17257500  0.67187500  1
  Mg  Mg3  1  0.98799800  0.35545600  0.68865500  1
  Mg  Mg4  1  0.35715200  0.98969400  0.65509500  1
  Mg  Mg5  1  0.94953200  0.83767500  0.65813900  1
  Mg  Mg6  1  0.51347800  0.83164200  0.68761200  1
  Mg  Mg7  1  0.65586600  0.44955900  0.70359100  1
  Mg  Mg8  1  0.39561700  0.50747400  0.68561100  1
  Mg  Mg9  1  0.83167200  0.51350700  0.65613800  1
  Mg  Mg10  1  0.68928300  0.89559000  0.64015900  1
  Mg  Mg11  1  0.95828900  0.95828900  0.60044600  1
  Mg  Mg12  1  0.24400300  0.74400300  0.52901800  1
  Mg  Mg13  1  0.74400300  0.24400300  0.52901800  1
  Mg  Mg14  1  0.74400300  0.74400300  0.52901800  1
  Mg  Mg15  1  0.45828900  0.95828900  0.60044600  1
  Mg  Mg16  1  0.95828900  0.45828900  0.60044600  1
  Mg  Mg17  1  0.77540800  0.14286600  0.58366700  1
  Mg  Mg18  1  0.55942600  0.92688400  0.54579800  1
  Mg  Mg19  1  0.93289000  0.19797400  0.63616100  1
  Mg  Mg20  1  0.14117000  0.77371200  0.61722600  1
  Mg  Mg21  1  0.92858000  0.56112200  0.51223800  1
  Mg  Mg22  1  0.98368800  0.71860400  0.56473200  1
  Mg  Mg23  1  0.56543200  0.56543200  0.63616100  1
  Mg  Mg24  1  0.35114600  0.35114600  0.56473200  1
  Mg  Mg25  1  0.29922100  0.61738600  0.58471000  1
  Mg  Mg26  1  0.29318900  0.18133100  0.61418200  1
  Mg  Mg27  1  0.68130400  0.47499700  0.56873000  1
  Mg  Mg28  1  0.52096100  0.40910300  0.51528200  1
  Mg  Mg29  1  0.08490600  0.40307100  0.54475500  1
  Mg  Mg30  1  0.22729500  0.02098800  0.56073400  1
  Mg  Mg31  1  0.61735700  0.29919200  0.61618300  1
  Mg  Mg32  1  0.62338900  0.73524700  0.58671100  1
  Mg  Mg33  1  0.23527300  0.44158100  0.63216300  1
  Mg  Mg34  1  0.96704500  0.07890300  0.54275400  1
  Mg  Mg35  1  0.40310000  0.08493500  0.51328100  1
  Mg  Mg36  1  0.26071200  0.46701900  0.49730100  1
  Mg  Mg37  1  0.52971700  0.52971700  0.45758900  1
  Mg  Mg38  1  0.81543200  0.31543200  0.38616100  1
  Mg  Mg39  1  0.31543200  0.81543200  0.38616100  1
  Mg  Mg40  1  0.31543200  0.31543200  0.38616100  1
  Mg  Mg41  1  0.02971700  0.52971700  0.45758900  1
  Mg  Mg42  1  0.52971700  0.02971700  0.45758900  1
  Mg  Mg43  1  0.34683600  0.71429500  0.44081000  1
  Mg  Mg44  1  0.13085500  0.49831300  0.40294000  1
  Mg  Mg45  1  0.50431800  0.76940200  0.49330400  1
  Mg  Mg46  1  0.71259900  0.34514000  0.47436900  1
  Mg  Mg47  1  0.50000900  0.13255100  0.36938100  1
  Mg  Mg48  1  0.55511600  0.29003300  0.42187500  1
  Mg  Mg49  1  0.13686000  0.13686000  0.49330400  1
  Mg  Mg50  1  0.92257500  0.92257500  0.42187500  1
  Mg  Mg51  1  0.87065000  0.18881400  0.44185300  1
  Mg  Mg52  1  0.86461700  0.75276000  0.47132500  1
  Mg  Mg53  1  0.25273300  0.04642600  0.42587300  1
  Mg  Mg54  1  0.09238900  0.98053200  0.37242500  1
  Mg  Mg55  1  0.65633500  0.97450000  0.40189700  1
  Mg  Mg56  1  0.79872300  0.59241600  0.41787700  1
  Mg  Mg57  1  0.18878500  0.87062000  0.47332600  1
  Mg  Mg58  1  0.19481800  0.30667500  0.44385400  1
  Mg  Mg59  1  0.80670200  0.01300900  0.48930600  1
  Mg  Mg60  1  0.53847400  0.65033200  0.39989600  1
  Mg  Mg61  1  0.97452900  0.65636400  0.37042400  1
  Mg  Mg62  1  0.83214000  0.03844700  0.35444400  1
  Mg  Mg63  1  0.10114600  0.10114600  0.31473200  1
  Mg  Mg64  1  0.38686000  0.88686000  0.24330400  1
  Mg  Mg65  1  0.88686000  0.38686000  0.24330400  1
  Mg  Mg66  1  0.88686000  0.88686000  0.24330400  1
  Mg  Mg67  1  0.60114600  0.10114600  0.31473200  1
  Mg  Mg68  1  0.10114600  0.60114600  0.31473200  1
  Mg  Mg69  1  0.91826500  0.28572300  0.29795200  1
  Mg  Mg70  1  0.70228300  0.06974100  0.26008300  1
  Mg  Mg71  1  0.07574700  0.34083100  0.35044600  1
  Mg  Mg72  1  0.28402700  0.91656900  0.33151200  1
  Mg  Mg73  1  0.07143700  0.70397900  0.22652400  1
  Mg  Mg74  1  0.12654500  0.86146100  0.27901800  1
  Mg  Mg75  1  0.70828900  0.70828900  0.35044600  1
  Mg  Mg76  1  0.49400300  0.49400300  0.27901800  1
  Mg  Mg77  1  0.44207800  0.76024300  0.29899500  1
  Mg  Mg78  1  0.43604600  0.32418800  0.32846800  1
  Mg  Mg79  1  0.82416200  0.61785400  0.28301600  1
  Mg  Mg80  1  0.66381800  0.55196000  0.22956800  1
  Mg  Mg81  1  0.22776300  0.54592800  0.25904000  1
  Mg  Mg82  1  0.37015200  0.16384500  0.27502000  1
  Mg  Mg83  1  0.76021400  0.44204900  0.33046900  1
  Mg  Mg84  1  0.76624600  0.87810400  0.30099600  1
  Mg  Mg85  1  0.37813000  0.58443800  0.34644900  1
  Mg  Mg86  1  0.10990300  0.22176000  0.25703900  1
  Mg  Mg87  1  0.54595700  0.22779300  0.22756700  1
  Mg  Mg88  1  0.40356900  0.60987600  0.21158700  1
  Ir  Ir89  1  0.87837500  0.05102600  0.68292500  1
  Ir  Ir90  1  0.46677400  0.29412400  0.66082500  1
  Ir  Ir91  1  0.52379700  0.17849500  0.56473200  1
  Ir  Ir92  1  0.07983800  0.25248900  0.58939700  1
  Ir  Ir93  1  0.44980400  0.62245400  0.54006800  1
  Ir  Ir94  1  0.39278100  0.73808200  0.63616100  1
  Ir  Ir95  1  0.83674000  0.66408900  0.61149600  1
  Ir  Ir96  1  0.03820300  0.86555200  0.51796800  1
  Ir  Ir97  1  0.09522500  0.74992400  0.42187500  1
  Ir  Ir98  1  0.65126600  0.82391700  0.44653900  1
  Ir  Ir99  1  0.02123200  0.19388300  0.39721100  1
  Ir  Ir100  1  0.96421000  0.30951100  0.49330400  1
  Ir  Ir101  1  0.40816900  0.23551800  0.46863900  1
  Ir  Ir102  1  0.60963100  0.43698100  0.37511100  1
  Ir  Ir103  1  0.66665400  0.32135200  0.27901800  1
  Ir  Ir104  1  0.22269500  0.39534600  0.30368200  1
  Ir  Ir105  1  0.59266100  0.76531100  0.25435300  1
  Ir  Ir106  1  0.53563800  0.88094000  0.35044600  1
  Ir  Ir107  1  0.97959700  0.80694600  0.32578200  1
  Ir  Ir108  1  0.18106000  0.00840900  0.23225400  1
