# generated using pymatgen
data_CeMg
_symmetry_space_group_name_H-M   'P 1'
_cell_length_a   3.48032002
_cell_length_b   5.79243127
_cell_length_c   43.53027900
_cell_angle_alpha   88.97330725
_cell_angle_beta   87.70893792
_cell_angle_gamma   72.51718869
_symmetry_Int_Tables_number   1
_chemical_formula_structural   CeMg
_chemical_formula_sum   'Ce10 Mg10'
_cell_volume   836.32761526
_cell_formula_units_Z   10
loop_
 _symmetry_equiv_pos_site_id
 _symmetry_equiv_pos_as_xyz
  1  'x, y, z'
loop_
 _atom_site_type_symbol
 _atom_site_label
 _atom_site_symmetry_multiplicity
 _atom_site_fract_x
 _atom_site_fract_y
 _atom_site_fract_z
 _atom_site_occupancy
  Ce  Ce0  1  0.96456600  0.31317800  0.75769000  1
  Ce  Ce1  1  0.28543400  0.68682200  0.74231000  1
  Ce  Ce2  1  0.21456600  0.93817800  0.63269000  1
  Ce  Ce3  1  0.53543400  0.31182200  0.61731000  1
  Ce  Ce4  1  0.46456600  0.56317800  0.50769000  1
  Ce  Ce5  1  0.78543400  0.93682200  0.49231000  1
  Ce  Ce6  1  0.71456600  0.18817800  0.38269000  1
  Ce  Ce7  1  0.03543400  0.56182200  0.36731000  1
  Ce  Ce8  1  0.96456600  0.81317800  0.25769000  1
  Ce  Ce9  1  0.28543400  0.18682200  0.24231000  1
  Mg  Mg10  1  0.64682300  0.90304600  0.80330900  1
  Mg  Mg11  1  0.60317700  0.09695400  0.69669100  1
  Mg  Mg12  1  0.89682300  0.52804600  0.67830900  1
  Mg  Mg13  1  0.85317700  0.72195400  0.57169100  1
  Mg  Mg14  1  0.14682300  0.15304600  0.55330900  1
  Mg  Mg15  1  0.10317700  0.34695400  0.44669100  1
  Mg  Mg16  1  0.39682300  0.77804600  0.42830900  1
  Mg  Mg17  1  0.35317700  0.97195400  0.32169100  1
  Mg  Mg18  1  0.64682300  0.40304600  0.30330900  1
  Mg  Mg19  1  0.60317700  0.59695400  0.19669100  1
