# generated using pymatgen
data_Mg14B57
_symmetry_space_group_name_H-M   'P 1'
_cell_length_a   7.42725500
_cell_length_b   7.03001057
_cell_length_c   44.60570800
_cell_angle_alpha   90.78128318
_cell_angle_beta   90.00000000
_cell_angle_gamma   90.00000000
_symmetry_Int_Tables_number   1
_chemical_formula_structural   Mg14B57
_chemical_formula_sum   'Mg28 B114'
_cell_volume   2328.81168884
_cell_formula_units_Z   2
loop_
 _symmetry_equiv_pos_site_id
 _symmetry_equiv_pos_as_xyz
  1  'x, y, z'
loop_
 _atom_site_type_symbol
 _atom_site_label
 _atom_site_symmetry_multiplicity
 _atom_site_fract_x
 _atom_site_fract_y
 _atom_site_fract_z
 _atom_site_occupancy
  Mg  Mg0  1  0.36221400  0.87463600  0.32659100  1
  Mg  Mg1  1  0.63778600  0.01072600  0.28110200  1
  Mg  Mg2  1  0.13778600  0.56694300  0.28812900  1
  Mg  Mg3  1  0.86221400  0.31841800  0.31956300  1
  Mg  Mg4  1  0.36221400  0.49002000  0.40351400  1
  Mg  Mg5  1  0.63778600  0.62611000  0.35802500  1
  Mg  Mg6  1  0.13778600  0.18232800  0.36505200  1
  Mg  Mg7  1  0.86221400  0.93380300  0.39648600  1
  Mg  Mg8  1  0.36221400  0.10540500  0.48043700  1
  Mg  Mg9  1  0.63778600  0.24149500  0.43494800  1
  Mg  Mg10  1  0.13778600  0.79771300  0.44197500  1
  Mg  Mg11  1  0.86221400  0.54918700  0.47340900  1
  Mg  Mg12  1  0.36221400  0.72079000  0.55736000  1
  Mg  Mg13  1  0.63778600  0.85687900  0.51187100  1
  Mg  Mg14  1  0.13778600  0.41309700  0.51889800  1
  Mg  Mg15  1  0.86221400  0.16457200  0.55033300  1
  Mg  Mg16  1  0.36221400  0.33617400  0.63428300  1
  Mg  Mg17  1  0.63778600  0.47226400  0.58879400  1
  Mg  Mg18  1  0.13778600  0.02848200  0.59582100  1
  Mg  Mg19  1  0.86221400  0.77995600  0.62725600  1
  Mg  Mg20  1  0.36221400  0.95155900  0.71120600  1
  Mg  Mg21  1  0.63778600  0.08764900  0.66571700  1
  Mg  Mg22  1  0.13778600  0.64386700  0.67274400  1
  Mg  Mg23  1  0.86221400  0.39534100  0.70417900  1
  Mg  Mg24  1  0.36221400  0.56694300  0.78812900  1
  Mg  Mg25  1  0.63778600  0.70303300  0.74264000  1
  Mg  Mg26  1  0.13778600  0.25925100  0.74966700  1
  Mg  Mg27  1  0.86221400  0.01072600  0.78110200  1
  B  B28  1  0.65368900  0.36799400  0.26326000  1
  B  B29  1  0.34631100  0.90198300  0.26750900  1
  B  B30  1  0.84631100  0.67568600  0.30172200  1
  B  B31  1  0.15368900  0.20967500  0.30597000  1
  B  B32  1  0.65368900  0.98337900  0.34018300  1
  B  B33  1  0.34631100  0.51736700  0.34443200  1
  B  B34  1  0.64694100  0.57168000  0.28872100  1
  B  B35  1  0.35305900  0.31368200  0.31897100  1
  B  B36  1  0.85305900  0.87937200  0.32718300  1
  B  B37  1  0.14694100  0.00598900  0.28051000  1
  B  B38  1  0.06322000  0.00180400  0.31848700  1
  B  B39  1  0.93678000  0.64663000  0.33659000  1
  B  B40  1  0.43678000  0.54642300  0.30956300  1
  B  B41  1  0.56322000  0.19125000  0.32766700  1
  B  B42  1  0.93678000  0.88355700  0.28920500  1
  B  B43  1  0.06322000  0.23873100  0.27110200  1
  B  B44  1  0.56322000  0.33893800  0.29812900  1
  B  B45  1  0.43678000  0.69411200  0.28002600  1
  B  B46  1  0.84631100  0.29107100  0.37864500  1
  B  B47  1  0.15368900  0.82506000  0.38289400  1
  B  B48  1  0.65368900  0.59876300  0.41710600  1
  B  B49  1  0.34631100  0.13275200  0.42135500  1
  B  B50  1  0.64694100  0.18706400  0.36564400  1
  B  B51  1  0.35305900  0.92906600  0.39589400  1
  B  B52  1  0.85305900  0.49475700  0.40410600  1
  B  B53  1  0.14694100  0.62137400  0.35743300  1
  B  B54  1  0.06322000  0.61718900  0.39541000  1
  B  B55  1  0.93678000  0.26201500  0.41351400  1
  B  B56  1  0.43678000  0.16180800  0.38648600  1
  B  B57  1  0.56322000  0.80663400  0.40459000  1
  B  B58  1  0.93678000  0.49894200  0.36612800  1
  B  B59  1  0.06322000  0.85411600  0.34802500  1
  B  B60  1  0.56322000  0.95432300  0.37505200  1
  B  B61  1  0.43678000  0.30949600  0.35694900  1
  B  B62  1  0.84631100  0.90645600  0.45556800  1
  B  B63  1  0.15368900  0.44044400  0.45981700  1
  B  B64  1  0.65368900  0.21414800  0.49403000  1
  B  B65  1  0.34631100  0.74813700  0.49827800  1
  B  B66  1  0.64694100  0.80244900  0.44256700  1
  B  B67  1  0.35305900  0.54445100  0.47281700  1
  B  B68  1  0.85305900  0.11014100  0.48102900  1
  B  B69  1  0.14694100  0.23675900  0.43435600  1
  B  B70  1  0.06322000  0.23257300  0.47233300  1
  B  B71  1  0.93678000  0.87740000  0.49043700  1
  B  B72  1  0.43678000  0.77719200  0.46341000  1
  B  B73  1  0.56322000  0.42201900  0.48151300  1
  B  B74  1  0.93678000  0.11432600  0.44305100  1
  B  B75  1  0.06322000  0.46950000  0.42494800  1
  B  B76  1  0.56322000  0.56970700  0.45197500  1
  B  B77  1  0.43678000  0.92488100  0.43387200  1
  B  B78  1  0.84631100  0.52184000  0.53249100  1
  B  B79  1  0.15368900  0.05582900  0.53674000  1
  B  B80  1  0.65368900  0.82953200  0.57095300  1
  B  B81  1  0.34631100  0.36352100  0.57520100  1
  B  B82  1  0.64694100  0.41783400  0.51949000  1
  B  B83  1  0.35305900  0.15983500  0.54974100  1
  B  B84  1  0.85305900  0.72552600  0.55795200  1
  B  B85  1  0.14694100  0.85214300  0.51127900  1
  B  B86  1  0.06322000  0.84795800  0.54925600  1
  B  B87  1  0.93678000  0.49278400  0.56736000  1
  B  B88  1  0.43678000  0.39257700  0.54033300  1
  B  B89  1  0.56322000  0.03740300  0.55843600  1
  B  B90  1  0.93678000  0.72971100  0.51997400  1
  B  B91  1  0.06322000  0.08488500  0.50187100  1
  B  B92  1  0.56322000  0.18509200  0.52889800  1
  B  B93  1  0.43678000  0.54026600  0.51079500  1
  B  B94  1  0.84631100  0.13722500  0.60941400  1
  B  B95  1  0.15368900  0.67121400  0.61366300  1
  B  B96  1  0.65368900  0.44491700  0.64787600  1
  B  B97  1  0.34631100  0.97890600  0.65212400  1
  B  B98  1  0.64694100  0.03321800  0.59641300  1
  B  B99  1  0.35305900  0.77522000  0.62666400  1
  B  B100  1  0.85305900  0.34091100  0.63487500  1
  B  B101  1  0.14694100  0.46752800  0.58820200  1
  B  B102  1  0.06322000  0.46334300  0.62617900  1
  B  B103  1  0.93678000  0.10816900  0.64428300  1
  B  B104  1  0.43678000  0.00796200  0.61725600  1
  B  B105  1  0.56322000  0.65278800  0.63535900  1
  B  B106  1  0.93678000  0.34509600  0.59689700  1
  B  B107  1  0.06322000  0.70026900  0.57879400  1
  B  B108  1  0.56322000  0.80047700  0.60582100  1
  B  B109  1  0.43678000  0.15565000  0.58771800  1
  B  B110  1  0.84631100  0.75260900  0.68633700  1
  B  B111  1  0.15368900  0.28659800  0.69058600  1
  B  B112  1  0.65368900  0.06030200  0.72479900  1
  B  B113  1  0.34631100  0.59429000  0.72904700  1
  B  B114  1  0.64694100  0.64860300  0.67333600  1
  B  B115  1  0.35305900  0.39060500  0.70358700  1
  B  B116  1  0.85305900  0.95629500  0.71179800  1
  B  B117  1  0.14694100  0.08291200  0.66512500  1
  B  B118  1  0.06322000  0.07872700  0.70310300  1
  B  B119  1  0.93678000  0.72355400  0.72120600  1
  B  B120  1  0.43678000  0.62334600  0.69417900  1
  B  B121  1  0.56322000  0.26817300  0.71228200  1
  B  B122  1  0.93678000  0.96048000  0.67382100  1
  B  B123  1  0.06322000  0.31565400  0.65571700  1
  B  B124  1  0.56322000  0.41586100  0.68274400  1
  B  B125  1  0.43678000  0.77103500  0.66464100  1
  B  B126  1  0.84631100  0.36799400  0.76326000  1
  B  B127  1  0.15368900  0.90198300  0.76750900  1
  B  B128  1  0.65368900  0.67568600  0.80172200  1
  B  B129  1  0.34631100  0.20967500  0.80597000  1
  B  B130  1  0.64694100  0.26398700  0.75025900  1
  B  B131  1  0.35305900  0.00598900  0.78051000  1
  B  B132  1  0.85305900  0.57168000  0.78872100  1
  B  B133  1  0.14694100  0.69829700  0.74204800  1
  B  B134  1  0.06322000  0.69411200  0.78002600  1
  B  B135  1  0.93678000  0.33893800  0.79812900  1
  B  B136  1  0.43678000  0.23873100  0.77110200  1
  B  B137  1  0.56322000  0.88355700  0.78920500  1
  B  B138  1  0.93678000  0.57586500  0.75074400  1
  B  B139  1  0.06322000  0.93103900  0.73264000  1
  B  B140  1  0.56322000  0.03124600  0.75966700  1
  B  B141  1  0.43678000  0.38642000  0.74156400  1
