# generated using pymatgen
data_Mg13Ir20
_symmetry_space_group_name_H-M   'P 1'
_cell_length_a   5.24707500
_cell_length_b   19.59900374
_cell_length_c   48.70839900
_cell_angle_alpha   93.84872638
_cell_angle_beta   90.00000000
_cell_angle_gamma   90.00000000
_symmetry_Int_Tables_number   1
_chemical_formula_structural   Mg13Ir20
_chemical_formula_sum   'Mg78 Ir120'
_cell_volume   4997.75050797
_cell_formula_units_Z   6
loop_
 _symmetry_equiv_pos_site_id
 _symmetry_equiv_pos_as_xyz
  1  'x, y, z'
loop_
 _atom_site_type_symbol
 _atom_site_label
 _atom_site_symmetry_multiplicity
 _atom_site_fract_x
 _atom_site_fract_y
 _atom_site_fract_z
 _atom_site_occupancy
  Mg  Mg0  1  0.00000000  0.66232200  0.26645600  1
  Mg  Mg1  1  0.50000000  0.02694200  0.24021100  1
  Mg  Mg2  1  0.50000000  0.86935000  0.23729100  1
  Mg  Mg3  1  1.00000000  0.81991400  0.26937500  1
  Mg  Mg4  1  0.50000000  0.07190000  0.30830200  1
  Mg  Mg5  1  1.00000000  0.61736300  0.19836400  1
  Mg  Mg6  1  0.50000000  0.60073200  0.23840200  1
  Mg  Mg7  1  1.00000000  0.08853200  0.26826500  1
  Mg  Mg8  1  1.00000000  0.38385500  0.26242100  1
  Mg  Mg9  1  0.50000000  0.30540900  0.24424600  1
  Mg  Mg10  1  0.50000000  0.07898900  0.18312300  1
  Mg  Mg11  1  0.00000000  0.61027500  0.32354400  1
  Mg  Mg12  1  1.00000000  0.45268300  0.32062500  1
  Mg  Mg13  1  0.50000000  0.23658100  0.18604200  1
  Mg  Mg14  1  0.00000000  0.48856700  0.22496900  1
  Mg  Mg15  1  0.50000000  0.20069700  0.28169800  1
  Mg  Mg16  1  0.00000000  0.18406600  0.32173500  1
  Mg  Mg17  1  0.50000000  0.50519800  0.18493200  1
  Mg  Mg18  1  0.50000000  0.96718900  0.34575400  1
  Mg  Mg19  1  1.00000000  0.88874200  0.32757900  1
  Mg  Mg20  1  0.00000000  0.82898900  0.43312300  1
  Mg  Mg21  1  0.50000000  0.19360900  0.40687700  1
  Mg  Mg22  1  0.50000000  0.03601700  0.40395800  1
  Mg  Mg23  1  0.00000000  0.98658100  0.43604200  1
  Mg  Mg24  1  0.50000000  0.23856700  0.47496900  1
  Mg  Mg25  1  0.00000000  0.78403000  0.36503100  1
  Mg  Mg26  1  0.50000000  0.76739900  0.40506800  1
  Mg  Mg27  1  0.00000000  0.25519800  0.43493200  1
  Mg  Mg28  1  0.00000000  0.55052200  0.42908800  1
  Mg  Mg29  1  0.50000000  0.47207500  0.41091200  1
  Mg  Mg30  1  0.50000000  0.24565500  0.34978900  1
  Mg  Mg31  1  1.00000000  0.77694200  0.49021100  1
  Mg  Mg32  1  0.00000000  0.61935000  0.48729100  1
  Mg  Mg33  1  0.50000000  0.40324700  0.35270900  1
  Mg  Mg34  1  1.00000000  0.65523400  0.39163600  1
  Mg  Mg35  1  0.50000000  0.36736300  0.44836400  1
  Mg  Mg36  1  0.00000000  0.35073200  0.48840200  1
  Mg  Mg37  1  0.50000000  0.67186500  0.35159800  1
  Mg  Mg38  1  0.50000000  0.13385500  0.51242100  1
  Mg  Mg39  1  0.00000000  0.05540900  0.49424600  1
  Mg  Mg40  1  0.00000000  0.99565500  0.59978900  1
  Mg  Mg41  1  0.50000000  0.36027500  0.57354400  1
  Mg  Mg42  1  0.50000000  0.20268300  0.57062500  1
  Mg  Mg43  1  0.00000000  0.15324700  0.60270900  1
  Mg  Mg44  1  0.50000000  0.40523400  0.64163600  1
  Mg  Mg45  1  0.00000000  0.95069700  0.53169800  1
  Mg  Mg46  1  0.50000000  0.93406600  0.57173500  1
  Mg  Mg47  1  0.00000000  0.42186500  0.60159800  1
  Mg  Mg48  1  1.00000000  0.71718900  0.59575400  1
  Mg  Mg49  1  0.50000000  0.63874200  0.57757900  1
  Mg  Mg50  1  0.50000000  0.41232200  0.51645600  1
  Mg  Mg51  1  1.00000000  0.94360900  0.65687700  1
  Mg  Mg52  1  0.00000000  0.78601700  0.65395800  1
  Mg  Mg53  1  0.50000000  0.56991400  0.51937500  1
  Mg  Mg54  1  1.00000000  0.82190000  0.55830200  1
  Mg  Mg55  1  0.50000000  0.53403000  0.61503100  1
  Mg  Mg56  1  0.00000000  0.51739900  0.65506800  1
  Mg  Mg57  1  0.50000000  0.83853200  0.51826500  1
  Mg  Mg58  1  0.50000000  0.30052200  0.67908800  1
  Mg  Mg59  1  0.00000000  0.22207500  0.66091200  1
  Mg  Mg60  1  0.00000000  0.16232200  0.76645600  1
  Mg  Mg61  1  0.50000000  0.52694200  0.74021100  1
  Mg  Mg62  1  0.50000000  0.36935000  0.73729100  1
  Mg  Mg63  1  0.00000000  0.31991400  0.76937500  1
  Mg  Mg64  1  0.50000000  0.57190000  0.80830200  1
  Mg  Mg65  1  0.00000000  0.11736300  0.69836400  1
  Mg  Mg66  1  0.50000000  0.10073200  0.73840200  1
  Mg  Mg67  1  0.00000000  0.58853200  0.76826500  1
  Mg  Mg68  1  0.00000000  0.88385500  0.76242100  1
  Mg  Mg69  1  0.50000000  0.80540900  0.74424600  1
  Mg  Mg70  1  0.50000000  0.57898900  0.68312300  1
  Mg  Mg71  1  0.00000000  0.11027500  0.82354400  1
  Mg  Mg72  1  1.00000000  0.95268300  0.82062500  1
  Mg  Mg73  1  0.50000000  0.73658100  0.68604200  1
  Mg  Mg74  1  0.00000000  0.98856700  0.72496900  1
  Mg  Mg75  1  0.50000000  0.70069700  0.78169800  1
  Mg  Mg76  1  0.00000000  0.68406600  0.82173500  1
  Mg  Mg77  1  0.50000000  0.00519800  0.68493200  1
  Ir  Ir78  1  1.00000000  0.03175100  0.32157400  1
  Ir  Ir79  1  0.50000000  0.65751300  0.18509300  1
  Ir  Ir80  1  0.75048700  0.73117300  0.22193100  1
  Ir  Ir81  1  0.74951300  0.95809100  0.28473600  1
  Ir  Ir82  1  0.25048700  0.95809100  0.28473600  1
  Ir  Ir83  1  0.24951300  0.73117300  0.22193100  1
  Ir  Ir84  1  1.00000000  0.05296500  0.21166700  1
  Ir  Ir85  1  0.50000000  0.85677200  0.29951000  1
  Ir  Ir86  1  1.00000000  0.83249200  0.20715700  1
  Ir  Ir87  1  0.50000000  0.74397000  0.26684300  1
  Ir  Ir88  1  1.00000000  0.94529400  0.23982400  1
  Ir  Ir89  1  0.73393800  0.94331000  0.19277900  1
  Ir  Ir90  1  0.76606200  0.74595400  0.31388800  1
  Ir  Ir91  1  0.23393800  0.74595400  0.31388800  1
  Ir  Ir92  1  0.26606200  0.94331000  0.19277900  1
  Ir  Ir93  1  0.50000000  0.44841700  0.23824000  1
  Ir  Ir94  1  1.00000000  0.24084600  0.26842600  1
  Ir  Ir95  1  0.25048700  0.31450600  0.30526400  1
  Ir  Ir96  1  0.24951300  0.37475800  0.20140300  1
  Ir  Ir97  1  0.75048700  0.37475800  0.20140300  1
  Ir  Ir98  1  0.74951300  0.31450600  0.30526400  1
  Ir  Ir99  1  0.50000000  0.63629900  0.29500000  1
  Ir  Ir100  1  0.00000000  0.27343900  0.21617700  1
  Ir  Ir101  1  0.50000000  0.41582500  0.29049000  1
  Ir  Ir102  1  0.00000000  0.16063600  0.18350900  1
  Ir  Ir103  1  0.50000000  0.52862700  0.32315700  1
  Ir  Ir104  1  0.23393800  0.52664300  0.27611200  1
  Ir  Ir105  1  0.26606200  0.16262000  0.23055400  1
  Ir  Ir106  1  0.73393800  0.16262000  0.23055400  1
  Ir  Ir107  1  0.76606200  0.52664300  0.27611200  1
  Ir  Ir108  1  1.00000000  0.19841700  0.48824000  1
  Ir  Ir109  1  0.50000000  0.82418000  0.35176000  1
  Ir  Ir110  1  0.75048700  0.89784000  0.38859700  1
  Ir  Ir111  1  0.74951300  0.12475800  0.45140300  1
  Ir  Ir112  1  0.25048700  0.12475800  0.45140300  1
  Ir  Ir113  1  0.24951300  0.89784000  0.38859700  1
  Ir  Ir114  1  1.00000000  0.21963200  0.37833300  1
  Ir  Ir115  1  0.50000000  0.02343900  0.46617700  1
  Ir  Ir116  1  1.00000000  0.99915800  0.37382300  1
  Ir  Ir117  1  0.50000000  0.91063600  0.43350900  1
  Ir  Ir118  1  1.00000000  0.11196100  0.40649100  1
  Ir  Ir119  1  0.73393800  0.10997700  0.35944600  1
  Ir  Ir120  1  0.76606200  0.91262000  0.48055400  1
  Ir  Ir121  1  0.23393800  0.91262000  0.48055400  1
  Ir  Ir122  1  0.26606200  0.10997700  0.35944600  1
  Ir  Ir123  1  0.50000000  0.61508400  0.40490700  1
  Ir  Ir124  1  0.00000000  0.40751300  0.43509300  1
  Ir  Ir125  1  0.25048700  0.48117300  0.47193100  1
  Ir  Ir126  1  0.24951300  0.54142400  0.36806900  1
  Ir  Ir127  1  0.75048700  0.54142400  0.36806900  1
  Ir  Ir128  1  0.74951300  0.48117300  0.47193100  1
  Ir  Ir129  1  0.50000000  0.80296500  0.46166700  1
  Ir  Ir130  1  1.00000000  0.44010600  0.38284300  1
  Ir  Ir131  1  0.50000000  0.58249200  0.45715700  1
  Ir  Ir132  1  0.00000000  0.32730300  0.35017600  1
  Ir  Ir133  1  0.50000000  0.69529400  0.48982400  1
  Ir  Ir134  1  0.23393800  0.69331000  0.44277900  1
  Ir  Ir135  1  0.26606200  0.32928700  0.39722100  1
  Ir  Ir136  1  0.73393800  0.32928700  0.39722100  1
  Ir  Ir137  1  0.76606200  0.69331000  0.44277900  1
  Ir  Ir138  1  0.00000000  0.36508400  0.65490700  1
  Ir  Ir139  1  0.50000000  0.99084600  0.51842600  1
  Ir  Ir140  1  0.75048700  0.06450600  0.55526400  1
  Ir  Ir141  1  0.74951300  0.29142400  0.61806900  1
  Ir  Ir142  1  0.25048700  0.29142400  0.61806900  1
  Ir  Ir143  1  0.24951300  0.06450600  0.55526400  1
  Ir  Ir144  1  0.00000000  0.38629900  0.54500000  1
  Ir  Ir145  1  0.50000000  0.19010600  0.63284300  1
  Ir  Ir146  1  0.00000000  0.16582500  0.54049000  1
  Ir  Ir147  1  0.50000000  0.07730300  0.60017600  1
  Ir  Ir148  1  1.00000000  0.27862700  0.57315700  1
  Ir  Ir149  1  0.73393800  0.27664300  0.52611200  1
  Ir  Ir150  1  0.76606200  0.07928700  0.64722100  1
  Ir  Ir151  1  0.23393800  0.07928700  0.64722100  1
  Ir  Ir152  1  0.26606200  0.27664300  0.52611200  1
  Ir  Ir153  1  0.50000000  0.78175100  0.57157400  1
  Ir  Ir154  1  0.00000000  0.57418000  0.60176000  1
  Ir  Ir155  1  0.25048700  0.64784000  0.63859700  1
  Ir  Ir156  1  0.24951300  0.70809100  0.53473600  1
  Ir  Ir157  1  0.75048700  0.70809100  0.53473600  1
  Ir  Ir158  1  0.74951300  0.64784000  0.63859700  1
  Ir  Ir159  1  0.50000000  0.96963200  0.62833300  1
  Ir  Ir160  1  0.00000000  0.60677200  0.54951000  1
  Ir  Ir161  1  0.50000000  0.74915800  0.62382300  1
  Ir  Ir162  1  0.00000000  0.49397000  0.51684300  1
  Ir  Ir163  1  0.50000000  0.86196100  0.65649100  1
  Ir  Ir164  1  0.23393800  0.85997700  0.60944600  1
  Ir  Ir165  1  0.26606200  0.49595400  0.56388800  1
  Ir  Ir166  1  0.73393800  0.49595400  0.56388800  1
  Ir  Ir167  1  0.76606200  0.85997700  0.60944600  1
  Ir  Ir168  1  0.00000000  0.53175100  0.82157400  1
  Ir  Ir169  1  0.50000000  0.15751300  0.68509300  1
  Ir  Ir170  1  0.75048700  0.23117300  0.72193100  1
  Ir  Ir171  1  0.74951300  0.45809100  0.78473600  1
  Ir  Ir172  1  0.25048700  0.45809100  0.78473600  1
  Ir  Ir173  1  0.24951300  0.23117300  0.72193100  1
  Ir  Ir174  1  0.00000000  0.55296500  0.71166700  1
  Ir  Ir175  1  0.50000000  0.35677200  0.79951000  1
  Ir  Ir176  1  0.00000000  0.33249200  0.70715700  1
  Ir  Ir177  1  0.50000000  0.24397000  0.76684300  1
  Ir  Ir178  1  0.00000000  0.44529400  0.73982400  1
  Ir  Ir179  1  0.73393800  0.44331000  0.69277900  1
  Ir  Ir180  1  0.76606200  0.24595400  0.81388800  1
  Ir  Ir181  1  0.23393800  0.24595400  0.81388800  1
  Ir  Ir182  1  0.26606200  0.44331000  0.69277900  1
  Ir  Ir183  1  0.50000000  0.94841700  0.73824000  1
  Ir  Ir184  1  0.00000000  0.74084600  0.76842600  1
  Ir  Ir185  1  0.25048700  0.81450600  0.80526400  1
  Ir  Ir186  1  0.24951300  0.87475800  0.70140300  1
  Ir  Ir187  1  0.75048700  0.87475800  0.70140300  1
  Ir  Ir188  1  0.74951300  0.81450600  0.80526400  1
  Ir  Ir189  1  0.50000000  0.13629900  0.79500000  1
  Ir  Ir190  1  0.00000000  0.77343900  0.71617700  1
  Ir  Ir191  1  0.50000000  0.91582500  0.79049000  1
  Ir  Ir192  1  0.00000000  0.66063600  0.68350900  1
  Ir  Ir193  1  0.50000000  0.02862700  0.82315700  1
  Ir  Ir194  1  0.23393800  0.02664300  0.77611200  1
  Ir  Ir195  1  0.26606200  0.66262000  0.73055400  1
  Ir  Ir196  1  0.73393800  0.66262000  0.73055400  1
  Ir  Ir197  1  0.76606200  0.02664300  0.77611200  1
