# generated using pymatgen
data_Y19Mg10
_symmetry_space_group_name_H-M   'P 1'
_cell_length_a   3.72656800
_cell_length_b   18.03005265
_cell_length_c   42.13259500
_cell_angle_alpha   96.30333968
_cell_angle_beta   90.00000000
_cell_angle_gamma   90.00000000
_symmetry_Int_Tables_number   1
_chemical_formula_structural   Y19Mg10
_chemical_formula_sum   'Y38 Mg20'
_cell_volume   2813.78417820
_cell_formula_units_Z   2
loop_
 _symmetry_equiv_pos_site_id
 _symmetry_equiv_pos_as_xyz
  1  'x, y, z'
loop_
 _atom_site_type_symbol
 _atom_site_label
 _atom_site_symmetry_multiplicity
 _atom_site_fract_x
 _atom_site_fract_y
 _atom_site_fract_z
 _atom_site_occupancy
  Y  Y0  1  0.50000000  0.94062300  0.21965300  1
  Y  Y1  1  0.00000000  0.78115800  0.24243400  1
  Y  Y2  1  0.00000000  0.59909600  0.19701400  1
  Y  Y3  1  0.50000000  0.88356100  0.29923300  1
  Y  Y4  1  0.00000000  0.50312300  0.28215300  1
  Y  Y5  1  0.50000000  0.34365800  0.30493400  1
  Y  Y6  1  0.50000000  0.16159600  0.25951400  1
  Y  Y7  1  0.00000000  0.32106100  0.23673300  1
  Y  Y8  1  0.50000000  0.06562300  0.34465300  1
  Y  Y9  1  0.00000000  0.90615800  0.36743400  1
  Y  Y10  1  0.00000000  0.72409600  0.32201400  1
  Y  Y11  1  0.50000000  0.00856100  0.42423300  1
  Y  Y12  1  0.00000000  0.62812300  0.40715300  1
  Y  Y13  1  0.50000000  0.46865800  0.42993400  1
  Y  Y14  1  0.50000000  0.28659600  0.38451400  1
  Y  Y15  1  1.00000000  0.44606100  0.36173300  1
  Y  Y16  1  0.50000000  0.19062300  0.46965300  1
  Y  Y17  1  0.00000000  0.03115800  0.49243400  1
  Y  Y18  1  0.00000000  0.84909600  0.44701400  1
  Y  Y19  1  0.50000000  0.13356100  0.54923300  1
  Y  Y20  1  0.00000000  0.75312300  0.53215300  1
  Y  Y21  1  0.50000000  0.59365800  0.55493400  1
  Y  Y22  1  0.50000000  0.41159600  0.50951400  1
  Y  Y23  1  0.00000000  0.57106100  0.48673300  1
  Y  Y24  1  0.50000000  0.31562300  0.59465300  1
  Y  Y25  1  0.00000000  0.15615800  0.61743400  1
  Y  Y26  1  0.00000000  0.97409600  0.57201400  1
  Y  Y27  1  0.50000000  0.25856100  0.67423300  1
  Y  Y28  1  0.00000000  0.87812300  0.65715300  1
  Y  Y29  1  0.50000000  0.71865800  0.67993400  1
  Y  Y30  1  0.50000000  0.53659600  0.63451400  1
  Y  Y31  1  0.00000000  0.69606100  0.61173300  1
  Y  Y32  1  0.50000000  0.44062300  0.71965300  1
  Y  Y33  1  0.00000000  0.28115800  0.74243400  1
  Y  Y34  1  0.00000000  0.09909600  0.69701400  1
  Y  Y35  1  0.00000000  0.00312300  0.78215300  1
  Y  Y36  1  0.50000000  0.66159600  0.75951400  1
  Y  Y37  1  0.00000000  0.82106100  0.73673300  1
  Mg  Mg38  1  0.50000000  0.64144900  0.26239200  1
  Mg  Mg39  1  0.00000000  0.02327100  0.27927500  1
  Mg  Mg40  1  0.00000000  0.07894900  0.19989200  1
  Mg  Mg41  1  0.50000000  0.46077100  0.21677500  1
  Mg  Mg42  1  0.50000000  0.76644900  0.38739200  1
  Mg  Mg43  1  1.00000000  0.14827100  0.40427500  1
  Mg  Mg44  1  0.00000000  0.20394900  0.32489200  1
  Mg  Mg45  1  0.50000000  0.58577100  0.34177500  1
  Mg  Mg46  1  0.50000000  0.89144900  0.51239200  1
  Mg  Mg47  1  0.00000000  0.27327100  0.52927500  1
  Mg  Mg48  1  0.00000000  0.32894900  0.44989200  1
  Mg  Mg49  1  0.50000000  0.71077100  0.46677500  1
  Mg  Mg50  1  0.50000000  0.01644900  0.63739200  1
  Mg  Mg51  1  0.00000000  0.39827100  0.65427500  1
  Mg  Mg52  1  0.00000000  0.45394900  0.57489200  1
  Mg  Mg53  1  0.50000000  0.83577100  0.59177500  1
  Mg  Mg54  1  0.50000000  0.14144900  0.76239200  1
  Mg  Mg55  1  0.00000000  0.52327100  0.77927500  1
  Mg  Mg56  1  0.00000000  0.57894900  0.69989200  1
  Mg  Mg57  1  0.50000000  0.96077100  0.71677500  1
