# generated using pymatgen
data_Mg110Zn199
_symmetry_space_group_name_H-M   'P 1'
_cell_length_a   13.26606221
_cell_length_b   15.53344873
_cell_length_c   48.04736100
_cell_angle_alpha   89.05057746
_cell_angle_beta   95.72936823
_cell_angle_gamma   107.07914806
_symmetry_Int_Tables_number   1
_chemical_formula_structural   Mg110Zn199
_chemical_formula_sum   'Mg110 Zn199'
_cell_volume   9416.24909417
_cell_formula_units_Z   1
loop_
 _symmetry_equiv_pos_site_id
 _symmetry_equiv_pos_as_xyz
  1  'x, y, z'
loop_
 _atom_site_type_symbol
 _atom_site_label
 _atom_site_symmetry_multiplicity
 _atom_site_fract_x
 _atom_site_fract_y
 _atom_site_fract_z
 _atom_site_occupancy
  Mg  Mg0  1  0.74900600  0.97633500  0.27850700  1
  Mg  Mg1  1  0.06923400  0.72486900  0.21343700  1
  Mg  Mg2  1  0.60977900  0.42603700  0.27571200  1
  Mg  Mg3  1  0.88387300  0.98367700  0.22925200  1
  Mg  Mg4  1  0.96931900  0.66924800  0.26908500  1
  Mg  Mg5  1  0.57175100  0.08249200  0.25643100  1
  Mg  Mg6  1  0.71853500  0.63389700  0.25934500  1
  Mg  Mg7  1  0.11612700  0.07415600  0.23256600  1
  Mg  Mg8  1  0.64336400  0.76973300  0.29554100  1
  Mg  Mg9  1  0.03068100  0.48858600  0.29273300  1
  Mg  Mg10  1  0.39022100  0.73179600  0.28610600  1
  Mg  Mg11  1  0.35663600  0.38810100  0.26627700  1
  Mg  Mg12  1  0.01360900  0.99415800  0.29123800  1
  Mg  Mg13  1  0.68159700  0.28908100  0.23990200  1
  Mg  Mg14  1  0.31840300  0.76875300  0.22191600  1
  Mg  Mg15  1  0.28146500  0.42393600  0.20247300  1
  Mg  Mg16  1  0.25099400  0.18149800  0.28331100  1
  Mg  Mg17  1  0.42824900  0.97534200  0.20538700  1
  Mg  Mg18  1  0.93076600  0.33296400  0.24838100  1
  Mg  Mg19  1  0.98639100  0.16367600  0.27058000  1
  Mg  Mg20  1  0.74900600  0.07633500  0.37850700  1
  Mg  Mg21  1  0.06923400  0.82486900  0.31343700  1
  Mg  Mg22  1  0.60977900  0.52603700  0.37571200  1
  Mg  Mg23  1  0.88387300  0.08367700  0.32925200  1
  Mg  Mg24  1  0.96931900  0.76924800  0.36908500  1
  Mg  Mg25  1  0.57175100  0.18249200  0.35643100  1
  Mg  Mg26  1  0.71853500  0.73389700  0.35934500  1
  Mg  Mg27  1  0.11612700  0.17415600  0.33256600  1
  Mg  Mg28  1  0.64336400  0.86973300  0.39554100  1
  Mg  Mg29  1  0.03068100  0.58858600  0.39273300  1
  Mg  Mg30  1  0.39022100  0.83179600  0.38610600  1
  Mg  Mg31  1  0.35663600  0.48810100  0.36627700  1
  Mg  Mg32  1  0.01360900  0.09415800  0.39123800  1
  Mg  Mg33  1  0.68159700  0.38908100  0.33990200  1
  Mg  Mg34  1  0.31840300  0.86875300  0.32191600  1
  Mg  Mg35  1  0.28146500  0.52393600  0.30247300  1
  Mg  Mg36  1  0.25099400  0.28149800  0.38331100  1
  Mg  Mg37  1  0.42824900  0.07534200  0.30538700  1
  Mg  Mg38  1  0.93076600  0.43296400  0.34838100  1
  Mg  Mg39  1  0.98639100  0.26367600  0.37058000  1
  Mg  Mg40  1  0.74900600  0.17633500  0.47850700  1
  Mg  Mg41  1  0.06923400  0.92486900  0.41343700  1
  Mg  Mg42  1  0.60977900  0.62603700  0.47571200  1
  Mg  Mg43  1  0.88387300  0.18367700  0.42925200  1
  Mg  Mg44  1  0.96931900  0.86924800  0.46908500  1
  Mg  Mg45  1  0.57175100  0.28249200  0.45643100  1
  Mg  Mg46  1  0.71853500  0.83389700  0.45934500  1
  Mg  Mg47  1  0.11612700  0.27415600  0.43256600  1
  Mg  Mg48  1  0.64336400  0.96973300  0.49554100  1
  Mg  Mg49  1  0.03068100  0.68858600  0.49273300  1
  Mg  Mg50  1  0.39022100  0.93179600  0.48610600  1
  Mg  Mg51  1  0.35663600  0.58810100  0.46627700  1
  Mg  Mg52  1  0.01360900  0.19415800  0.49123800  1
  Mg  Mg53  1  0.68159700  0.48908100  0.43990200  1
  Mg  Mg54  1  0.31840300  0.96875300  0.42191600  1
  Mg  Mg55  1  0.28146500  0.62393600  0.40247300  1
  Mg  Mg56  1  0.25099400  0.38149800  0.48331100  1
  Mg  Mg57  1  0.42824900  0.17534200  0.40538700  1
  Mg  Mg58  1  0.93076600  0.53296400  0.44838100  1
  Mg  Mg59  1  0.98639100  0.36367600  0.47058000  1
  Mg  Mg60  1  0.74900600  0.27633500  0.57850700  1
  Mg  Mg61  1  0.06923400  0.02486900  0.51343700  1
  Mg  Mg62  1  0.60977900  0.72603700  0.57571200  1
  Mg  Mg63  1  0.88387300  0.28367700  0.52925200  1
  Mg  Mg64  1  0.96931900  0.96924800  0.56908500  1
  Mg  Mg65  1  0.57175100  0.38249200  0.55643100  1
  Mg  Mg66  1  0.71853500  0.93389700  0.55934500  1
  Mg  Mg67  1  0.11612700  0.37415600  0.53256600  1
  Mg  Mg68  1  0.64336400  0.06973300  0.59554100  1
  Mg  Mg69  1  0.03068100  0.78858600  0.59273300  1
  Mg  Mg70  1  0.39022100  0.03179600  0.58610600  1
  Mg  Mg71  1  0.35663600  0.68810100  0.56627700  1
  Mg  Mg72  1  0.01360900  0.29415800  0.59123800  1
  Mg  Mg73  1  0.68159700  0.58908100  0.53990200  1
  Mg  Mg74  1  0.31840300  0.06875300  0.52191600  1
  Mg  Mg75  1  0.28146500  0.72393600  0.50247300  1
  Mg  Mg76  1  0.25099400  0.48149800  0.58331100  1
  Mg  Mg77  1  0.42824900  0.27534200  0.50538700  1
  Mg  Mg78  1  0.93076600  0.63296400  0.54838100  1
  Mg  Mg79  1  0.98639100  0.46367600  0.57058000  1
  Mg  Mg80  1  0.74900600  0.37633500  0.67850700  1
  Mg  Mg81  1  0.06923400  0.12486900  0.61343700  1
  Mg  Mg82  1  0.60977900  0.82603700  0.67571200  1
  Mg  Mg83  1  0.88387300  0.38367700  0.62925200  1
  Mg  Mg84  1  0.96931900  0.06924800  0.66908500  1
  Mg  Mg85  1  0.57175100  0.48249200  0.65643100  1
  Mg  Mg86  1  0.71853500  0.03389700  0.65934500  1
  Mg  Mg87  1  0.11612700  0.47415600  0.63256600  1
  Mg  Mg88  1  0.64336400  0.16973300  0.69554100  1
  Mg  Mg89  1  0.03068100  0.88858600  0.69273300  1
  Mg  Mg90  1  0.39022100  0.13179600  0.68610600  1
  Mg  Mg91  1  0.35663600  0.78810100  0.66627700  1
  Mg  Mg92  1  0.01360900  0.39415800  0.69123800  1
  Mg  Mg93  1  0.68159700  0.68908100  0.63990200  1
  Mg  Mg94  1  0.31840300  0.16875300  0.62191600  1
  Mg  Mg95  1  0.28146500  0.82393600  0.60247300  1
  Mg  Mg96  1  0.25099400  0.58149800  0.68331100  1
  Mg  Mg97  1  0.42824900  0.37534200  0.60538700  1
  Mg  Mg98  1  0.93076600  0.73296400  0.64838100  1
  Mg  Mg99  1  0.98639100  0.56367600  0.67058000  1
  Mg  Mg100  1  0.06923400  0.22486900  0.71343700  1
  Mg  Mg101  1  0.88387300  0.48367700  0.72925200  1
  Mg  Mg102  1  0.57175100  0.58249200  0.75643100  1
  Mg  Mg103  1  0.71853500  0.13389700  0.75934500  1
  Mg  Mg104  1  0.11612700  0.57415600  0.73256600  1
  Mg  Mg105  1  0.68159700  0.78908100  0.73990200  1
  Mg  Mg106  1  0.31840300  0.26875300  0.72191600  1
  Mg  Mg107  1  0.28146500  0.92393600  0.70247300  1
  Mg  Mg108  1  0.42824900  0.47534200  0.70538700  1
  Mg  Mg109  1  0.93076600  0.83296400  0.74838100  1
  Zn  Zn110  1  0.84920500  0.60484800  0.21455100  1
  Zn  Zn111  1  0.03575800  0.86642600  0.25103100  1
  Zn  Zn112  1  0.51358900  0.70081200  0.23995200  1
  Zn  Zn113  1  0.14473200  0.28469400  0.23837500  1
  Zn  Zn114  1  0.17856500  0.63241700  0.25764500  1
  Zn  Zn115  1  0.85936100  0.82260200  0.27412500  1
  Zn  Zn116  1  0.50000000  0.57891700  0.28090900  1
  Zn  Zn117  1  0.15079500  0.45298500  0.24726800  1
  Zn  Zn118  1  0.37496700  0.92420000  0.26328600  1
  Zn  Zn119  1  0.82105800  0.47593700  0.25480600  1
  Zn  Zn120  1  0.53087400  0.87283000  0.25034600  1
  Zn  Zn121  1  0.65881200  0.97882100  0.21761800  1
  Zn  Zn122  1  0.66294100  0.48178100  0.21737500  1
  Zn  Zn123  1  0.80881900  0.35966700  0.29403700  1
  Zn  Zn124  1  0.96424200  0.19140700  0.21078700  1
  Zn  Zn125  1  0.62503300  0.23363300  0.29853200  1
  Zn  Zn126  1  0.78829600  0.18210700  0.28444300  1
  Zn  Zn127  1  0.17894200  0.58189700  0.20701200  1
  Zn  Zn128  1  0.14063900  0.33523200  0.28769300  1
  Zn  Zn129  1  0.33705900  0.57605200  0.24444300  1
  Zn  Zn130  1  0.21170400  0.97572600  0.27737500  1
  Zn  Zn131  1  0.82143500  0.42541600  0.20417300  1
  Zn  Zn132  1  0.50000000  0.52891700  0.23090900  1
  Zn  Zn133  1  0.69712500  0.82041200  0.23786700  1
  Zn  Zn134  1  0.52936800  0.92282200  0.29981200  1
  Zn  Zn135  1  0.79093800  0.13194300  0.23609700  1
  Zn  Zn136  1  0.30287500  0.23742100  0.22395200  1
  Zn  Zn137  1  0.20906200  0.92589000  0.22572100  1
  Zn  Zn138  1  0.19118100  0.79816600  0.26778100  1
  Zn  Zn139  1  0.47063200  0.23501200  0.26200600  1
  Zn  Zn140  1  0.85526800  0.77314000  0.22344300  1
  Zn  Zn141  1  0.00000000  0.52891700  0.23090900  1
  Zn  Zn142  1  0.46912600  0.18500300  0.21147200  1
  Zn  Zn143  1  0.34118800  0.07901200  0.24420100  1
  Zn  Zn144  1  0.48641100  0.35702100  0.22186600  1
  Zn  Zn145  1  0.84920500  0.70484800  0.31455100  1
  Zn  Zn146  1  0.03575800  0.96642600  0.35103100  1
  Zn  Zn147  1  0.51358900  0.80081200  0.33995200  1
  Zn  Zn148  1  0.14473200  0.38469400  0.33837500  1
  Zn  Zn149  1  0.17856500  0.73241700  0.35764500  1
  Zn  Zn150  1  0.85936100  0.92260200  0.37412500  1
  Zn  Zn151  1  0.50000000  0.67891700  0.38090900  1
  Zn  Zn152  1  0.15079500  0.55298500  0.34726800  1
  Zn  Zn153  1  0.37496700  0.02420000  0.36328600  1
  Zn  Zn154  1  0.82105800  0.57593700  0.35480600  1
  Zn  Zn155  1  0.53087400  0.97283000  0.35034600  1
  Zn  Zn156  1  0.65881200  0.07882100  0.31761800  1
  Zn  Zn157  1  0.66294100  0.58178100  0.31737500  1
  Zn  Zn158  1  0.80881900  0.45966700  0.39403700  1
  Zn  Zn159  1  0.96424200  0.29140700  0.31078700  1
  Zn  Zn160  1  0.62503300  0.33363300  0.39853200  1
  Zn  Zn161  1  0.78829600  0.28210700  0.38444300  1
  Zn  Zn162  1  0.17894200  0.68189700  0.30701200  1
  Zn  Zn163  1  0.14063900  0.43523200  0.38769300  1
  Zn  Zn164  1  0.33705900  0.67605200  0.34444300  1
  Zn  Zn165  1  0.21170400  0.07572600  0.37737500  1
  Zn  Zn166  1  0.82143500  0.52541600  0.30417300  1
  Zn  Zn167  1  0.50000000  0.62891700  0.33090900  1
  Zn  Zn168  1  0.69712500  0.92041200  0.33786700  1
  Zn  Zn169  1  0.52936800  0.02282200  0.39981200  1
  Zn  Zn170  1  0.79093800  0.23194300  0.33609700  1
  Zn  Zn171  1  0.30287500  0.33742100  0.32395200  1
  Zn  Zn172  1  0.20906200  0.02589000  0.32572100  1
  Zn  Zn173  1  0.19118100  0.89816600  0.36778100  1
  Zn  Zn174  1  0.47063200  0.33501200  0.36200600  1
  Zn  Zn175  1  0.85526800  0.87314000  0.32344300  1
  Zn  Zn176  1  0.00000000  0.62891700  0.33090900  1
  Zn  Zn177  1  0.46912600  0.28500300  0.31147200  1
  Zn  Zn178  1  0.34118800  0.17901200  0.34420100  1
  Zn  Zn179  1  0.48641100  0.45702100  0.32186600  1
  Zn  Zn180  1  0.84920500  0.80484800  0.41455100  1
  Zn  Zn181  1  0.03575800  0.06642600  0.45103100  1
  Zn  Zn182  1  0.51358900  0.90081200  0.43995200  1
  Zn  Zn183  1  0.14473200  0.48469400  0.43837500  1
  Zn  Zn184  1  0.17856500  0.83241700  0.45764500  1
  Zn  Zn185  1  0.85936100  0.02260200  0.47412500  1
  Zn  Zn186  1  0.50000000  0.77891700  0.48090900  1
  Zn  Zn187  1  0.15079500  0.65298500  0.44726800  1
  Zn  Zn188  1  0.37496700  0.12420000  0.46328600  1
  Zn  Zn189  1  0.82105800  0.67593700  0.45480600  1
  Zn  Zn190  1  0.53087400  0.07283000  0.45034600  1
  Zn  Zn191  1  0.65881200  0.17882100  0.41761800  1
  Zn  Zn192  1  0.66294100  0.68178100  0.41737500  1
  Zn  Zn193  1  0.80881900  0.55966700  0.49403700  1
  Zn  Zn194  1  0.96424200  0.39140700  0.41078700  1
  Zn  Zn195  1  0.62503300  0.43363300  0.49853200  1
  Zn  Zn196  1  0.78829600  0.38210700  0.48444300  1
  Zn  Zn197  1  0.17894200  0.78189700  0.40701200  1
  Zn  Zn198  1  0.14063900  0.53523200  0.48769300  1
  Zn  Zn199  1  0.33705900  0.77605200  0.44444300  1
  Zn  Zn200  1  0.21170400  0.17572600  0.47737500  1
  Zn  Zn201  1  0.82143500  0.62541600  0.40417300  1
  Zn  Zn202  1  0.50000000  0.72891700  0.43090900  1
  Zn  Zn203  1  0.69712500  0.02041200  0.43786700  1
  Zn  Zn204  1  0.52936800  0.12282200  0.49981200  1
  Zn  Zn205  1  0.79093800  0.33194300  0.43609700  1
  Zn  Zn206  1  0.30287500  0.43742100  0.42395200  1
  Zn  Zn207  1  0.20906200  0.12589000  0.42572100  1
  Zn  Zn208  1  0.19118100  0.99816600  0.46778100  1
  Zn  Zn209  1  0.47063200  0.43501200  0.46200600  1
  Zn  Zn210  1  0.85526800  0.97314000  0.42344300  1
  Zn  Zn211  1  0.00000000  0.72891700  0.43090900  1
  Zn  Zn212  1  0.46912600  0.38500300  0.41147200  1
  Zn  Zn213  1  0.34118800  0.27901200  0.44420100  1
  Zn  Zn214  1  0.48641100  0.55702100  0.42186600  1
  Zn  Zn215  1  0.84920500  0.90484800  0.51455100  1
  Zn  Zn216  1  0.03575800  0.16642600  0.55103100  1
  Zn  Zn217  1  0.51358900  0.00081200  0.53995200  1
  Zn  Zn218  1  0.14473200  0.58469400  0.53837500  1
  Zn  Zn219  1  0.17856500  0.93241700  0.55764500  1
  Zn  Zn220  1  0.85936100  0.12260200  0.57412500  1
  Zn  Zn221  1  0.50000000  0.87891700  0.58090900  1
  Zn  Zn222  1  0.15079500  0.75298500  0.54726800  1
  Zn  Zn223  1  0.37496700  0.22420000  0.56328600  1
  Zn  Zn224  1  0.82105800  0.77593700  0.55480600  1
  Zn  Zn225  1  0.53087400  0.17283000  0.55034600  1
  Zn  Zn226  1  0.65881200  0.27882100  0.51761800  1
  Zn  Zn227  1  0.66294100  0.78178100  0.51737500  1
  Zn  Zn228  1  0.80881900  0.65966700  0.59403700  1
  Zn  Zn229  1  0.96424200  0.49140700  0.51078700  1
  Zn  Zn230  1  0.62503300  0.53363300  0.59853200  1
  Zn  Zn231  1  0.78829600  0.48210700  0.58444300  1
  Zn  Zn232  1  0.17894200  0.88189700  0.50701200  1
  Zn  Zn233  1  0.14063900  0.63523200  0.58769300  1
  Zn  Zn234  1  0.33705900  0.87605200  0.54444300  1
  Zn  Zn235  1  0.21170400  0.27572600  0.57737500  1
  Zn  Zn236  1  0.82143500  0.72541600  0.50417300  1
  Zn  Zn237  1  0.50000000  0.82891700  0.53090900  1
  Zn  Zn238  1  0.69712500  0.12041200  0.53786700  1
  Zn  Zn239  1  0.52936800  0.22282200  0.59981200  1
  Zn  Zn240  1  0.79093800  0.43194300  0.53609700  1
  Zn  Zn241  1  0.30287500  0.53742100  0.52395200  1
  Zn  Zn242  1  0.20906200  0.22589000  0.52572100  1
  Zn  Zn243  1  0.19118100  0.09816600  0.56778100  1
  Zn  Zn244  1  0.47063200  0.53501200  0.56200600  1
  Zn  Zn245  1  0.85526800  0.07314000  0.52344300  1
  Zn  Zn246  1  0.00000000  0.82891700  0.53090900  1
  Zn  Zn247  1  0.46912600  0.48500300  0.51147200  1
  Zn  Zn248  1  0.34118800  0.37901200  0.54420100  1
  Zn  Zn249  1  0.48641100  0.65702100  0.52186600  1
  Zn  Zn250  1  0.84920500  0.00484800  0.61455100  1
  Zn  Zn251  1  0.03575800  0.26642600  0.65103100  1
  Zn  Zn252  1  0.51358900  0.10081200  0.63995200  1
  Zn  Zn253  1  0.14473200  0.68469400  0.63837500  1
  Zn  Zn254  1  0.17856500  0.03241700  0.65764500  1
  Zn  Zn255  1  0.85936100  0.22260200  0.67412500  1
  Zn  Zn256  1  0.50000000  0.97891700  0.68090900  1
  Zn  Zn257  1  0.15079500  0.85298500  0.64726800  1
  Zn  Zn258  1  0.37496700  0.32420000  0.66328600  1
  Zn  Zn259  1  0.82105800  0.87593700  0.65480600  1
  Zn  Zn260  1  0.53087400  0.27283000  0.65034600  1
  Zn  Zn261  1  0.65881200  0.37882100  0.61761800  1
  Zn  Zn262  1  0.66294100  0.88178100  0.61737500  1
  Zn  Zn263  1  0.80881900  0.75966700  0.69403700  1
  Zn  Zn264  1  0.96424200  0.59140700  0.61078700  1
  Zn  Zn265  1  0.62503300  0.63363300  0.69853200  1
  Zn  Zn266  1  0.78829600  0.58210700  0.68444300  1
  Zn  Zn267  1  0.17894200  0.98189700  0.60701200  1
  Zn  Zn268  1  0.14063900  0.73523200  0.68769300  1
  Zn  Zn269  1  0.33705900  0.97605200  0.64444300  1
  Zn  Zn270  1  0.21170400  0.37572600  0.67737500  1
  Zn  Zn271  1  0.82143500  0.82541600  0.60417300  1
  Zn  Zn272  1  0.50000000  0.92891700  0.63090900  1
  Zn  Zn273  1  0.69712500  0.22041200  0.63786700  1
  Zn  Zn274  1  0.52936800  0.32282200  0.69981200  1
  Zn  Zn275  1  0.79093800  0.53194300  0.63609700  1
  Zn  Zn276  1  0.30287500  0.63742100  0.62395200  1
  Zn  Zn277  1  0.20906200  0.32589000  0.62572100  1
  Zn  Zn278  1  0.19118100  0.19816600  0.66778100  1
  Zn  Zn279  1  0.47063200  0.63501200  0.66200600  1
  Zn  Zn280  1  0.85526800  0.17314000  0.62344300  1
  Zn  Zn281  1  0.00000000  0.92891700  0.63090900  1
  Zn  Zn282  1  0.46912600  0.58500300  0.61147200  1
  Zn  Zn283  1  0.34118800  0.47901200  0.64420100  1
  Zn  Zn284  1  0.48641100  0.75702100  0.62186600  1
  Zn  Zn285  1  0.84920500  0.10484800  0.71455100  1
  Zn  Zn286  1  0.03575800  0.36642600  0.75103100  1
  Zn  Zn287  1  0.51358900  0.20081200  0.73995200  1
  Zn  Zn288  1  0.14473200  0.78469400  0.73837500  1
  Zn  Zn289  1  0.17856500  0.13241700  0.75764500  1
  Zn  Zn290  1  0.15079500  0.95298500  0.74726800  1
  Zn  Zn291  1  0.82105800  0.97593700  0.75480600  1
  Zn  Zn292  1  0.53087400  0.37283000  0.75034600  1
  Zn  Zn293  1  0.65881200  0.47882100  0.71761800  1
  Zn  Zn294  1  0.66294100  0.98178100  0.71737500  1
  Zn  Zn295  1  0.96424200  0.69140700  0.71078700  1
  Zn  Zn296  1  0.17894200  0.08189700  0.70701200  1
  Zn  Zn297  1  0.33705900  0.07605200  0.74444300  1
  Zn  Zn298  1  0.82143500  0.92541600  0.70417300  1
  Zn  Zn299  1  0.50000000  0.02891700  0.73090900  1
  Zn  Zn300  1  0.69712500  0.32041200  0.73786700  1
  Zn  Zn301  1  0.79093800  0.63194300  0.73609700  1
  Zn  Zn302  1  0.30287500  0.73742100  0.72395200  1
  Zn  Zn303  1  0.20906200  0.42589000  0.72572100  1
  Zn  Zn304  1  0.85526800  0.27314000  0.72344300  1
  Zn  Zn305  1  0.00000000  0.02891700  0.73090900  1
  Zn  Zn306  1  0.46912600  0.68500300  0.71147200  1
  Zn  Zn307  1  0.34118800  0.57901200  0.74420100  1
  Zn  Zn308  1  0.48641100  0.85702100  0.72186600  1
