# generated using pymatgen
data_Ca2Mg
_symmetry_space_group_name_H-M   'P 1'
_cell_length_a   4.03063400
_cell_length_b   13.44905108
_cell_length_c   42.88280000
_cell_angle_alpha   90.00000000
_cell_angle_beta   90.00000000
_cell_angle_gamma   89.71355082
_symmetry_Int_Tables_number   1
_chemical_formula_structural   Ca2Mg
_chemical_formula_sum   'Ca28 Mg14'
_cell_volume   2324.57045658
_cell_formula_units_Z   14
loop_
 _symmetry_equiv_pos_site_id
 _symmetry_equiv_pos_as_xyz
  1  'x, y, z'
loop_
 _atom_site_type_symbol
 _atom_site_label
 _atom_site_symmetry_multiplicity
 _atom_site_fract_x
 _atom_site_fract_y
 _atom_site_fract_z
 _atom_site_occupancy
  Ca  Ca0  1  0.50117900  0.35309200  0.20454500  1
  Ca  Ca1  1  0.99882100  0.14690800  0.25000000  1
  Ca  Ca2  1  0.00117900  0.85309200  0.25000000  1
  Ca  Ca3  1  0.49882100  0.64690800  0.20454500  1
  Ca  Ca4  1  0.50117900  0.35309200  0.29545500  1
  Ca  Ca5  1  0.99882100  0.14690800  0.34090900  1
  Ca  Ca6  1  0.00117900  0.85309200  0.34090900  1
  Ca  Ca7  1  0.49882100  0.64690800  0.29545500  1
  Ca  Ca8  1  0.50117900  0.35309200  0.38636400  1
  Ca  Ca9  1  0.99882100  0.14690800  0.43181800  1
  Ca  Ca10  1  0.00117900  0.85309200  0.43181800  1
  Ca  Ca11  1  0.49882100  0.64690800  0.38636400  1
  Ca  Ca12  1  0.50117900  0.35309200  0.47727300  1
  Ca  Ca13  1  0.99882100  0.14690800  0.52272700  1
  Ca  Ca14  1  0.00117900  0.85309200  0.52272700  1
  Ca  Ca15  1  0.49882100  0.64690800  0.47727300  1
  Ca  Ca16  1  0.50117900  0.35309200  0.56818200  1
  Ca  Ca17  1  0.99882100  0.14690800  0.61363600  1
  Ca  Ca18  1  0.00117900  0.85309200  0.61363600  1
  Ca  Ca19  1  0.49882100  0.64690800  0.56818200  1
  Ca  Ca20  1  0.50117900  0.35309200  0.65909100  1
  Ca  Ca21  1  0.99882100  0.14690800  0.70454500  1
  Ca  Ca22  1  0.00117900  0.85309200  0.70454500  1
  Ca  Ca23  1  0.49882100  0.64690800  0.65909100  1
  Ca  Ca24  1  0.50117900  0.35309200  0.75000000  1
  Ca  Ca25  1  0.99882100  0.14690800  0.79545500  1
  Ca  Ca26  1  0.00117900  0.85309200  0.79545500  1
  Ca  Ca27  1  0.49882100  0.64690800  0.75000000  1
  Mg  Mg28  1  0.50000000  0.00000000  0.20454500  1
  Mg  Mg29  1  0.00000000  0.50000000  0.25000000  1
  Mg  Mg30  1  0.50000000  0.00000000  0.29545500  1
  Mg  Mg31  1  0.00000000  0.50000000  0.34090900  1
  Mg  Mg32  1  0.50000000  0.00000000  0.38636400  1
  Mg  Mg33  1  0.00000000  0.50000000  0.43181800  1
  Mg  Mg34  1  0.50000000  0.00000000  0.47727300  1
  Mg  Mg35  1  0.00000000  0.50000000  0.52272700  1
  Mg  Mg36  1  0.50000000  0.00000000  0.56818200  1
  Mg  Mg37  1  0.00000000  0.50000000  0.61363600  1
  Mg  Mg38  1  0.50000000  0.00000000  0.65909100  1
  Mg  Mg39  1  0.00000000  0.50000000  0.70454500  1
  Mg  Mg40  1  0.50000000  0.00000000  0.75000000  1
  Mg  Mg41  1  0.00000000  0.50000000  0.79545500  1
