# generated using pymatgen
data_Ce16Mg125
_symmetry_space_group_name_H-M   'P 1'
_cell_length_a   10.33012900
_cell_length_b   14.43775486
_cell_length_c   46.86335100
_cell_angle_alpha   91.26380978
_cell_angle_beta   90.00000000
_cell_angle_gamma   69.03810193
_symmetry_Int_Tables_number   1
_chemical_formula_structural   Ce16Mg125
_chemical_formula_sum   'Ce16 Mg125'
_cell_volume   6524.99326643
_cell_formula_units_Z   1
loop_
 _symmetry_equiv_pos_site_id
 _symmetry_equiv_pos_as_xyz
  1  'x, y, z'
loop_
 _atom_site_type_symbol
 _atom_site_label
 _atom_site_symmetry_multiplicity
 _atom_site_fract_x
 _atom_site_fract_y
 _atom_site_fract_z
 _atom_site_occupancy
  Ce  Ce0  1  0.88031700  0.23936600  0.27067700  1
  Ce  Ce1  1  0.73746000  0.52508000  0.34210500  1
  Ce  Ce2  1  0.45174600  0.09650900  0.31829600  1
  Ce  Ce3  1  0.16603100  0.66793700  0.29448600  1
  Ce  Ce4  1  0.59460300  0.81079400  0.41353400  1
  Ce  Ce5  1  0.45174600  0.09650900  0.48496200  1
  Ce  Ce6  1  0.16603100  0.66793700  0.46115300  1
  Ce  Ce7  1  0.88031700  0.23936600  0.43734300  1
  Ce  Ce8  1  0.30888900  0.38222300  0.55639100  1
  Ce  Ce9  1  0.16603100  0.66793700  0.62782000  1
  Ce  Ce10  1  0.88031700  0.23936600  0.60401000  1
  Ce  Ce11  1  0.59460300  0.81079400  0.58020100  1
  Ce  Ce12  1  0.02317400  0.95365100  0.69924800  1
  Ce  Ce13  1  0.88031700  0.23936600  0.77067700  1
  Ce  Ce14  1  0.59460300  0.81079400  0.74686700  1
  Ce  Ce15  1  0.30888900  0.38222300  0.72305800  1
  Mg  Mg16  1  0.30888900  0.38222300  0.30639100  1
  Mg  Mg17  1  0.09314800  0.30036300  0.32648100  1
  Mg  Mg18  1  0.73700900  0.03932300  0.26122100  1
  Mg  Mg19  1  0.80750600  0.67990400  0.29049700  1
  Mg  Mg20  1  0.55108500  0.89782900  0.26862600  1
  Mg  Mg21  1  0.88076800  0.72512300  0.35156100  1
  Mg  Mg22  1  0.10518800  0.08454200  0.32228500  1
  Mg  Mg23  1  0.22366800  0.03932300  0.26122100  1
  Mg  Mg24  1  0.21788100  0.25358100  0.26593800  1
  Mg  Mg25  1  0.51258900  0.67990400  0.29049700  1
  Mg  Mg26  1  0.60648900  0.30036300  0.32648100  1
  Mg  Mg27  1  0.02743700  0.94512600  0.27822700  1
  Mg  Mg28  1  0.59034000  0.81932000  0.33455500  1
  Mg  Mg29  1  0.01128800  0.46408300  0.28630100  1
  Mg  Mg30  1  0.30888900  0.88222300  0.30639100  1
  Mg  Mg31  1  0.52853800  0.25358100  0.26593800  1
  Mg  Mg32  1  0.81027100  0.08454200  0.32228500  1
  Mg  Mg33  1  0.06669200  0.86661600  0.34415600  1
  Mg  Mg34  1  0.52462900  0.46408300  0.28630100  1
  Mg  Mg35  1  0.08923900  0.51086400  0.34684400  1
  Mg  Mg36  1  0.39410900  0.72512300  0.35156100  1
  Mg  Mg37  1  0.80888900  0.88222300  0.30639100  1
  Mg  Mg38  1  0.39989600  0.51086400  0.34684400  1
  Mg  Mg39  1  0.02317400  0.95365100  0.44924800  1
  Mg  Mg40  1  0.66603100  0.16793700  0.37782000  1
  Mg  Mg41  1  0.80743400  0.87179200  0.46933800  1
  Mg  Mg42  1  0.45129500  0.61075100  0.40407800  1
  Mg  Mg43  1  0.87224300  0.25551400  0.35582400  1
  Mg  Mg44  1  0.52179200  0.25133300  0.43335400  1
  Mg  Mg45  1  0.26537100  0.46925800  0.41148300  1
  Mg  Mg46  1  0.97965700  0.04068700  0.38767400  1
  Mg  Mg47  1  0.59505400  0.29655200  0.49441800  1
  Mg  Mg48  1  0.61055100  0.38447100  0.38897500  1
  Mg  Mg49  1  0.81947300  0.65597000  0.46514200  1
  Mg  Mg50  1  0.93795400  0.61075100  0.40407800  1
  Mg  Mg51  1  0.93216700  0.82501000  0.40879500  1
  Mg  Mg52  1  0.22687500  0.25133300  0.43335400  1
  Mg  Mg53  1  0.32077400  0.87179200  0.46933800  1
  Mg  Mg54  1  0.45982000  0.08036000  0.39981500  1
  Mg  Mg55  1  0.74172300  0.51655500  0.42108400  1
  Mg  Mg56  1  0.30462600  0.39074800  0.47741200  1
  Mg  Mg57  1  0.35240600  0.29518800  0.36796600  1
  Mg  Mg58  1  0.72557400  0.03551100  0.42915800  1
  Mg  Mg59  1  0.02317400  0.45365100  0.44924800  1
  Mg  Mg60  1  0.24282300  0.82501000  0.40879500  1
  Mg  Mg61  1  0.52455600  0.65597000  0.46514200  1
  Mg  Mg62  1  0.78097800  0.43804500  0.48701300  1
  Mg  Mg63  1  0.23891500  0.03551100  0.42915800  1
  Mg  Mg64  1  0.32708500  0.95140300  0.36666400  1
  Mg  Mg65  1  0.80352500  0.08229300  0.48970100  1
  Mg  Mg66  1  0.10839400  0.29655200  0.49441800  1
  Mg  Mg67  1  0.72151200  0.95140300  0.36666400  1
  Mg  Mg68  1  0.52317400  0.45365100  0.44924800  1
  Mg  Mg69  1  0.00497700  0.38447100  0.38897500  1
  Mg  Mg70  1  0.11418200  0.08229300  0.48970100  1
  Mg  Mg71  1  0.16603100  0.16793700  0.37782000  1
  Mg  Mg72  1  0.16603100  0.66793700  0.37782000  1
  Mg  Mg73  1  0.73746000  0.52508000  0.59210500  1
  Mg  Mg74  1  0.38031700  0.73936600  0.52067700  1
  Mg  Mg75  1  0.52172000  0.44322000  0.61219500  1
  Mg  Mg76  1  0.16558000  0.18218000  0.54693500  1
  Mg  Mg77  1  0.58652900  0.82694300  0.49868100  1
  Mg  Mg78  1  0.23607800  0.82276100  0.57621100  1
  Mg  Mg79  1  0.97965700  0.04068700  0.55434000  1
  Mg  Mg80  1  0.69394200  0.61211500  0.53053100  1
  Mg  Mg81  1  0.30934000  0.86798000  0.63727500  1
  Mg  Mg82  1  0.32483700  0.95590000  0.53183200  1
  Mg  Mg83  1  0.53375900  0.22739900  0.60799900  1
  Mg  Mg84  1  0.65224000  0.18218000  0.54693500  1
  Mg  Mg85  1  0.64645200  0.39643900  0.55165200  1
  Mg  Mg86  1  0.94116100  0.82276100  0.57621100  1
  Mg  Mg87  1  0.03506000  0.44322000  0.61219500  1
  Mg  Mg88  1  0.17410600  0.65178900  0.54267200  1
  Mg  Mg89  1  0.45600800  0.08798300  0.56394100  1
  Mg  Mg90  1  0.01891200  0.96217700  0.62027000  1
  Mg  Mg91  1  0.06669200  0.86661600  0.51082300  1
  Mg  Mg92  1  0.43986000  0.60694000  0.57201500  1
  Mg  Mg93  1  0.73746000  0.02508000  0.59210500  1
  Mg  Mg94  1  0.95710900  0.39643900  0.55165200  1
  Mg  Mg95  1  0.23884200  0.22739900  0.60799900  1
  Mg  Mg96  1  0.49526300  0.00947400  0.62987000  1
  Mg  Mg97  1  0.95320000  0.60694000  0.57201500  1
  Mg  Mg98  1  0.04137100  0.52283200  0.50952100  1
  Mg  Mg99  1  0.51781100  0.65372200  0.63255800  1
  Mg  Mg100  1  0.82268000  0.86798000  0.63727500  1
  Mg  Mg101  1  0.43579700  0.52283200  0.50952100  1
  Mg  Mg102  1  0.23746000  0.02508000  0.59210500  1
  Mg  Mg103  1  0.71926300  0.95590000  0.53183200  1
  Mg  Mg104  1  0.82846800  0.65372200  0.63255800  1
  Mg  Mg105  1  0.88031700  0.73936600  0.52067700  1
  Mg  Mg106  1  0.88031700  0.23936600  0.52067700  1
  Mg  Mg107  1  0.45174600  0.09650900  0.73496200  1
  Mg  Mg108  1  0.09460300  0.31079400  0.66353400  1
  Mg  Mg109  1  0.23600500  0.01464900  0.75505200  1
  Mg  Mg110  1  0.87986600  0.75360900  0.68979200  1
  Mg  Mg111  1  0.30081400  0.39837100  0.64153800  1
  Mg  Mg112  1  0.95036300  0.39419000  0.71906900  1
  Mg  Mg113  1  0.69394200  0.61211500  0.69719700  1
  Mg  Mg114  1  0.40822800  0.18354400  0.67338800  1
  Mg  Mg115  1  0.02362500  0.43940900  0.78013200  1
  Mg  Mg116  1  0.03912300  0.52732900  0.67468900  1
  Mg  Mg117  1  0.24804500  0.79882700  0.75085600  1
  Mg  Mg118  1  0.36652500  0.75360900  0.68979200  1
  Mg  Mg119  1  0.36073800  0.96786700  0.69451000  1
  Mg  Mg120  1  0.65544700  0.39419000  0.71906900  1
  Mg  Mg121  1  0.74934600  0.01464900  0.75505200  1
  Mg  Mg122  1  0.88839100  0.22321700  0.68553000  1
  Mg  Mg123  1  0.17029400  0.65941200  0.70679800  1
  Mg  Mg124  1  0.73319700  0.53360600  0.76312700  1
  Mg  Mg125  1  0.78097800  0.43804500  0.65368000  1
  Mg  Mg126  1  0.15414600  0.17836800  0.71487200  1
  Mg  Mg127  1  0.45174600  0.59650900  0.73496200  1
  Mg  Mg128  1  0.67139500  0.96786700  0.69451000  1
  Mg  Mg129  1  0.95312800  0.79882700  0.75085600  1
  Mg  Mg130  1  0.20954900  0.58090200  0.77272700  1
  Mg  Mg131  1  0.66748600  0.17836800  0.71487200  1
  Mg  Mg132  1  0.75565700  0.09426000  0.65237900  1
  Mg  Mg133  1  0.23209700  0.22515000  0.77541500  1
  Mg  Mg134  1  0.53696600  0.43940900  0.78013200  1
  Mg  Mg135  1  0.15008300  0.09426000  0.65237900  1
  Mg  Mg136  1  0.95174600  0.59650900  0.73496200  1
  Mg  Mg137  1  0.43354900  0.52732900  0.67468900  1
  Mg  Mg138  1  0.54275300  0.22515000  0.77541500  1
  Mg  Mg139  1  0.59460300  0.31079400  0.66353400  1
  Mg  Mg140  1  0.59460300  0.81079400  0.66353400  1
