# generated using pymatgen
data_Mg39Si22
_symmetry_space_group_name_H-M   'P 1'
_cell_length_a   7.16868100
_cell_length_b   14.27249566
_cell_length_c   44.68541400
_cell_angle_alpha   83.39369965
_cell_angle_beta   90.00000000
_cell_angle_gamma   75.45524452
_symmetry_Int_Tables_number   1
_chemical_formula_structural   Mg39Si22
_chemical_formula_sum   'Mg78 Si44'
_cell_volume   4394.09300978
_cell_formula_units_Z   2
loop_
 _symmetry_equiv_pos_site_id
 _symmetry_equiv_pos_as_xyz
  1  'x, y, z'
loop_
 _atom_site_type_symbol
 _atom_site_label
 _atom_site_symmetry_multiplicity
 _atom_site_fract_x
 _atom_site_fract_y
 _atom_site_fract_z
 _atom_site_occupancy
  Mg  Mg0  1  0.26913600  0.86593800  0.28999800  1
  Mg  Mg1  1  0.62557000  0.38960400  0.27816500  1
  Mg  Mg2  1  0.07872200  0.69930100  0.29035900  1
  Mg  Mg3  1  0.72228900  0.17563500  0.30219200  1
  Mg  Mg4  1  0.43613800  0.05662100  0.27817800  1
  Mg  Mg5  1  0.91172100  0.50861800  0.30218000  1
  Mg  Mg6  1  0.47257100  0.67507100  0.38543200  1
  Mg  Mg7  1  0.28638700  0.32117100  0.31238200  1
  Mg  Mg8  1  0.82900400  0.19873800  0.37359800  1
  Mg  Mg9  1  0.89413600  0.61593800  0.41499800  1
  Mg  Mg10  1  0.81175400  0.74350400  0.35121500  1
  Mg  Mg11  1  0.25057000  0.13960400  0.40316500  1
  Mg  Mg12  1  0.50028800  0.64016800  0.31992600  1
  Mg  Mg13  1  0.68647200  0.99406800  0.39297600  1
  Mg  Mg14  1  0.14385500  0.11650100  0.33175900  1
  Mg  Mg15  1  0.70372200  0.44930100  0.41535900  1
  Mg  Mg16  1  0.16110500  0.57173500  0.35414200  1
  Mg  Mg17  1  0.34728900  0.92563500  0.42719200  1
  Mg  Mg18  1  0.56756500  0.41356800  0.34970400  1
  Mg  Mg19  1  0.06113800  0.80662100  0.40317800  1
  Mg  Mg20  1  0.89910700  0.95206600  0.33045500  1
  Mg  Mg21  1  0.07375200  0.36317300  0.37490200  1
  Mg  Mg22  1  0.53672100  0.25861800  0.42718000  1
  Mg  Mg23  1  0.40529400  0.90167100  0.35565300  1
  Mg  Mg24  1  0.09757100  0.42507100  0.51043200  1
  Mg  Mg25  1  0.91138700  0.07117100  0.43738200  1
  Mg  Mg26  1  0.45400400  0.94873800  0.49859800  1
  Mg  Mg27  1  0.51913600  0.36593800  0.53999800  1
  Mg  Mg28  1  0.43675400  0.49350400  0.47621500  1
  Mg  Mg29  1  0.87557000  0.88960400  0.52816500  1
  Mg  Mg30  1  0.12528800  0.39016800  0.44492600  1
  Mg  Mg31  1  0.31147200  0.74406800  0.51797600  1
  Mg  Mg32  1  0.76885500  0.86650100  0.45675900  1
  Mg  Mg33  1  0.32872200  0.19930100  0.54035900  1
  Mg  Mg34  1  0.78610500  0.32173500  0.47914200  1
  Mg  Mg35  1  0.97228900  0.67563500  0.55219200  1
  Mg  Mg36  1  0.19256500  0.16356800  0.47470400  1
  Mg  Mg37  1  0.68613800  0.55662100  0.52817800  1
  Mg  Mg38  1  0.52410700  0.70206600  0.45545500  1
  Mg  Mg39  1  0.69875200  0.11317300  0.49990200  1
  Mg  Mg40  1  0.16172100  0.00861800  0.55218000  1
  Mg  Mg41  1  0.03029400  0.65167100  0.48065300  1
  Mg  Mg42  1  0.72257100  0.17507100  0.63543200  1
  Mg  Mg43  1  0.53638700  0.82117100  0.56238200  1
  Mg  Mg44  1  0.07900400  0.69873800  0.62359800  1
  Mg  Mg45  1  0.14413600  0.11593800  0.66499800  1
  Mg  Mg46  1  0.06175400  0.24350400  0.60121500  1
  Mg  Mg47  1  0.50057000  0.63960400  0.65316500  1
  Mg  Mg48  1  0.75028800  0.14016800  0.56992600  1
  Mg  Mg49  1  0.93647200  0.49406800  0.64297600  1
  Mg  Mg50  1  0.39385500  0.61650100  0.58175900  1
  Mg  Mg51  1  0.95372200  0.94930100  0.66535900  1
  Mg  Mg52  1  0.41110500  0.07173500  0.60414200  1
  Mg  Mg53  1  0.59728900  0.42563500  0.67719200  1
  Mg  Mg54  1  0.81756500  0.91356800  0.59970400  1
  Mg  Mg55  1  0.31113800  0.30662100  0.65317800  1
  Mg  Mg56  1  0.14910700  0.45206600  0.58045500  1
  Mg  Mg57  1  0.32375200  0.86317300  0.62490200  1
  Mg  Mg58  1  0.78672100  0.75861800  0.67718000  1
  Mg  Mg59  1  0.65529400  0.40167100  0.60565300  1
  Mg  Mg60  1  0.34757100  0.92507100  0.76043200  1
  Mg  Mg61  1  0.16138700  0.57117100  0.68738200  1
  Mg  Mg62  1  0.70400400  0.44873800  0.74859800  1
  Mg  Mg63  1  0.76913600  0.86593800  0.78999800  1
  Mg  Mg64  1  0.68675400  0.99350400  0.72621500  1
  Mg  Mg65  1  0.12557000  0.38960400  0.77816500  1
  Mg  Mg66  1  0.37528800  0.89016800  0.69492600  1
  Mg  Mg67  1  0.56147200  0.24406800  0.76797600  1
  Mg  Mg68  1  0.01885500  0.36650100  0.70675900  1
  Mg  Mg69  1  0.57872200  0.69930100  0.79035900  1
  Mg  Mg70  1  0.03610500  0.82173500  0.72914200  1
  Mg  Mg71  1  0.22228900  0.17563500  0.80219200  1
  Mg  Mg72  1  0.44256500  0.66356800  0.72470400  1
  Mg  Mg73  1  0.93613800  0.05662100  0.77817800  1
  Mg  Mg74  1  0.77410700  0.20206600  0.70545500  1
  Mg  Mg75  1  0.94875200  0.61317300  0.74990200  1
  Mg  Mg76  1  0.41172100  0.50861800  0.80218000  1
  Mg  Mg77  1  0.28029400  0.15167100  0.73065300  1
  Si  Si78  1  0.71152600  0.70742600  0.27764600  1
  Si  Si79  1  0.63633200  0.85781300  0.30271100  1
  Si  Si80  1  0.30934600  0.51178600  0.30059500  1
  Si  Si81  1  0.03851300  0.05345300  0.27976200  1
  Si  Si82  1  0.33652600  0.45742600  0.40264600  1
  Si  Si83  1  0.52402600  0.08242600  0.34014600  1
  Si  Si84  1  0.26133200  0.60781300  0.42771100  1
  Si  Si85  1  0.44883200  0.23281300  0.36521100  1
  Si  Si86  1  0.93434600  0.26178600  0.42559500  1
  Si  Si87  1  0.66351300  0.80345300  0.40476200  1
  Si  Si88  1  0.91196300  0.30655200  0.32194500  1
  Si  Si89  1  0.18279700  0.76488500  0.34277800  1
  Si  Si90  1  0.06089500  0.00868800  0.38341200  1
  Si  Si91  1  0.79006200  0.55035400  0.36257900  1
  Si  Si92  1  0.96152600  0.20742600  0.52764600  1
  Si  Si93  1  0.14902600  0.83242600  0.46514600  1
  Si  Si94  1  0.88633200  0.35781300  0.55271100  1
  Si  Si95  1  0.07383200  0.98281300  0.49021100  1
  Si  Si96  1  0.55934600  0.01178600  0.55059500  1
  Si  Si97  1  0.28851300  0.55345300  0.52976200  1
  Si  Si98  1  0.53696300  0.05655200  0.44694500  1
  Si  Si99  1  0.80779700  0.51488500  0.46777800  1
  Si  Si100  1  0.68589500  0.75868800  0.50841200  1
  Si  Si101  1  0.41506200  0.30035400  0.48757900  1
  Si  Si102  1  0.58652600  0.95742600  0.65264600  1
  Si  Si103  1  0.77402600  0.58242600  0.59014600  1
  Si  Si104  1  0.51133200  0.10781300  0.67771100  1
  Si  Si105  1  0.69883200  0.73281300  0.61521100  1
  Si  Si106  1  0.18434600  0.76178600  0.67559500  1
  Si  Si107  1  0.91351300  0.30345300  0.65476200  1
  Si  Si108  1  0.16196300  0.80655200  0.57194500  1
  Si  Si109  1  0.43279700  0.26488500  0.59277800  1
  Si  Si110  1  0.31089500  0.50868800  0.63341200  1
  Si  Si111  1  0.04006200  0.05035400  0.61257900  1
  Si  Si112  1  0.21152600  0.70742600  0.77764600  1
  Si  Si113  1  0.39902600  0.33242600  0.71514600  1
  Si  Si114  1  0.13633200  0.85781300  0.80271100  1
  Si  Si115  1  0.32383200  0.48281300  0.74021100  1
  Si  Si116  1  0.80934600  0.51178600  0.80059500  1
  Si  Si117  1  0.53851300  0.05345300  0.77976200  1
  Si  Si118  1  0.78696300  0.55655200  0.69694500  1
  Si  Si119  1  0.05779700  0.01488500  0.71777800  1
  Si  Si120  1  0.93589500  0.25868800  0.75841200  1
  Si  Si121  1  0.66506200  0.80035400  0.73757900  1
