# generated using pymatgen
data_Mg13Zn71
_symmetry_space_group_name_H-M   'P 1'
_cell_length_a   8.56229400
_cell_length_b   12.10891200
_cell_length_c   48.43564800
_cell_angle_alpha   90.00000000
_cell_angle_beta   90.00000000
_cell_angle_gamma   90.00000000
_symmetry_Int_Tables_number   1
_chemical_formula_structural   Mg13Zn71
_chemical_formula_sum   'Mg26 Zn142'
_cell_volume   5021.81111185
_cell_formula_units_Z   2
loop_
 _symmetry_equiv_pos_site_id
 _symmetry_equiv_pos_as_xyz
  1  'x, y, z'
loop_
 _atom_site_type_symbol
 _atom_site_label
 _atom_site_symmetry_multiplicity
 _atom_site_fract_x
 _atom_site_fract_y
 _atom_site_fract_z
 _atom_site_occupancy
  Mg  Mg0  1  0.50000000  0.81250800  0.23141200  1
  Mg  Mg1  1  0.00000000  0.25995700  0.29391200  1
  Mg  Mg2  1  0.69744900  0.41123300  0.20673100  1
  Mg  Mg3  1  0.00000000  0.06250800  0.24455000  1
  Mg  Mg4  1  0.30255100  0.41123300  0.20673100  1
  Mg  Mg5  1  0.50000000  0.50995700  0.30705000  1
  Mg  Mg6  1  0.50000000  0.31250800  0.35641200  1
  Mg  Mg7  1  0.00000000  0.75995700  0.41891200  1
  Mg  Mg8  1  0.69744900  0.91123300  0.33173100  1
  Mg  Mg9  1  0.00000000  0.56250800  0.36955000  1
  Mg  Mg10  1  0.30255100  0.91123300  0.33173100  1
  Mg  Mg11  1  0.50000000  0.00995700  0.43205000  1
  Mg  Mg12  1  0.50000000  0.81250800  0.48141200  1
  Mg  Mg13  1  0.00000000  0.25995700  0.54391200  1
  Mg  Mg14  1  0.69744900  0.41123300  0.45673100  1
  Mg  Mg15  1  0.00000000  0.06250800  0.49455000  1
  Mg  Mg16  1  0.30255100  0.41123300  0.45673100  1
  Mg  Mg17  1  0.50000000  0.50995700  0.55705000  1
  Mg  Mg18  1  0.50000000  0.31250800  0.60641200  1
  Mg  Mg19  1  0.00000000  0.75995700  0.66891200  1
  Mg  Mg20  1  0.69744900  0.91123300  0.58173100  1
  Mg  Mg21  1  0.00000000  0.56250800  0.61955000  1
  Mg  Mg22  1  0.30255100  0.91123300  0.58173100  1
  Mg  Mg23  1  0.50000000  0.00995700  0.68205000  1
  Mg  Mg24  1  0.69744900  0.41123300  0.70673100  1
  Mg  Mg25  1  0.30255100  0.41123300  0.70673100  1
  Zn  Zn26  1  0.50000000  0.16123300  0.26923100  1
  Zn  Zn27  1  0.00000000  0.77441900  0.24093400  1
  Zn  Zn28  1  0.00000000  0.54804700  0.24093400  1
  Zn  Zn29  1  0.77362700  0.66123300  0.26923100  1
  Zn  Zn30  1  0.00000000  0.77441900  0.29752700  1
  Zn  Zn31  1  0.22637300  0.66123300  0.26923100  1
  Zn  Zn32  1  0.00000000  0.54804700  0.29752700  1
  Zn  Zn33  1  0.00000000  0.49004300  0.18702800  1
  Zn  Zn34  1  0.50000000  0.58242300  0.24952800  1
  Zn  Zn35  1  0.84238000  0.91123300  0.20673100  1
  Zn  Zn36  1  0.50000000  0.74004300  0.28893300  1
  Zn  Zn37  1  0.15762000  0.91123300  0.20673100  1
  Zn  Zn38  1  0.00000000  0.33242300  0.22643300  1
  Zn  Zn39  1  0.78094500  0.66123300  0.21446700  1
  Zn  Zn40  1  0.78094500  0.16123300  0.19899500  1
  Zn  Zn41  1  0.21905500  0.88028800  0.26923100  1
  Zn  Zn42  1  0.21905500  0.44217700  0.26923100  1
  Zn  Zn43  1  0.21905500  0.16123300  0.19899500  1
  Zn  Zn44  1  0.21905500  0.66123300  0.21446700  1
  Zn  Zn45  1  0.78094500  0.44217700  0.26923100  1
  Zn  Zn46  1  0.78094500  0.88028800  0.26923100  1
  Zn  Zn47  1  0.65815800  0.29503700  0.30268200  1
  Zn  Zn48  1  0.76760900  0.08215400  0.28900000  1
  Zn  Zn49  1  0.50000000  0.60650700  0.19745200  1
  Zn  Zn50  1  0.50000000  0.21595800  0.21601000  1
  Zn  Zn51  1  0.23239100  0.08215400  0.28900000  1
  Zn  Zn52  1  0.50000000  0.37411600  0.25554900  1
  Zn  Zn53  1  0.76760900  0.24031200  0.24946100  1
  Zn  Zn54  1  0.23239100  0.24031200  0.24946100  1
  Zn  Zn55  1  0.50000000  0.94835000  0.28291200  1
  Zn  Zn56  1  0.34184200  0.02742800  0.23578000  1
  Zn  Zn57  1  0.34184200  0.29503700  0.30268200  1
  Zn  Zn58  1  0.65815800  0.02742800  0.23578000  1
  Zn  Zn59  1  0.50000000  0.66123300  0.39423100  1
  Zn  Zn60  1  0.00000000  0.27441900  0.36593400  1
  Zn  Zn61  1  0.00000000  0.04804700  0.36593400  1
  Zn  Zn62  1  0.77362700  0.16123300  0.39423100  1
  Zn  Zn63  1  0.00000000  0.27441900  0.42252700  1
  Zn  Zn64  1  0.22637300  0.16123300  0.39423100  1
  Zn  Zn65  1  0.00000000  0.04804700  0.42252700  1
  Zn  Zn66  1  0.00000000  0.99004300  0.31202800  1
  Zn  Zn67  1  0.50000000  0.08242300  0.37452800  1
  Zn  Zn68  1  0.84238000  0.41123300  0.33173100  1
  Zn  Zn69  1  0.50000000  0.24004300  0.41393300  1
  Zn  Zn70  1  0.15762000  0.41123300  0.33173100  1
  Zn  Zn71  1  0.00000000  0.83242300  0.35143300  1
  Zn  Zn72  1  0.78094500  0.16123300  0.33946700  1
  Zn  Zn73  1  0.78094500  0.66123300  0.32399500  1
  Zn  Zn74  1  0.21905500  0.38028800  0.39423100  1
  Zn  Zn75  1  0.21905500  0.94217700  0.39423100  1
  Zn  Zn76  1  0.21905500  0.66123300  0.32399500  1
  Zn  Zn77  1  0.21905500  0.16123300  0.33946700  1
  Zn  Zn78  1  0.78094500  0.94217700  0.39423100  1
  Zn  Zn79  1  0.78094500  0.38028800  0.39423100  1
  Zn  Zn80  1  0.65815800  0.79503700  0.42768200  1
  Zn  Zn81  1  0.76760900  0.58215400  0.41400000  1
  Zn  Zn82  1  0.50000000  0.10650700  0.32245200  1
  Zn  Zn83  1  0.50000000  0.71595800  0.34101000  1
  Zn  Zn84  1  0.23239100  0.58215400  0.41400000  1
  Zn  Zn85  1  0.50000000  0.87411600  0.38054900  1
  Zn  Zn86  1  0.76760900  0.74031200  0.37446100  1
  Zn  Zn87  1  0.23239100  0.74031200  0.37446100  1
  Zn  Zn88  1  0.50000000  0.44835000  0.40791200  1
  Zn  Zn89  1  0.34184200  0.52742800  0.36078000  1
  Zn  Zn90  1  0.34184200  0.79503700  0.42768200  1
  Zn  Zn91  1  0.65815800  0.52742800  0.36078000  1
  Zn  Zn92  1  0.50000000  0.16123300  0.51923100  1
  Zn  Zn93  1  0.00000000  0.77441900  0.49093400  1
  Zn  Zn94  1  0.00000000  0.54804700  0.49093400  1
  Zn  Zn95  1  0.77362700  0.66123300  0.51923100  1
  Zn  Zn96  1  0.00000000  0.77441900  0.54752700  1
  Zn  Zn97  1  0.22637300  0.66123300  0.51923100  1
  Zn  Zn98  1  0.00000000  0.54804700  0.54752700  1
  Zn  Zn99  1  0.00000000  0.49004300  0.43702800  1
  Zn  Zn100  1  0.50000000  0.58242300  0.49952800  1
  Zn  Zn101  1  0.84238000  0.91123300  0.45673100  1
  Zn  Zn102  1  0.50000000  0.74004300  0.53893300  1
  Zn  Zn103  1  0.15762000  0.91123300  0.45673100  1
  Zn  Zn104  1  0.00000000  0.33242300  0.47643300  1
  Zn  Zn105  1  0.78094500  0.66123300  0.46446700  1
  Zn  Zn106  1  0.78094500  0.16123300  0.44899500  1
  Zn  Zn107  1  0.21905500  0.88028800  0.51923100  1
  Zn  Zn108  1  0.21905500  0.44217700  0.51923100  1
  Zn  Zn109  1  0.21905500  0.16123300  0.44899500  1
  Zn  Zn110  1  0.21905500  0.66123300  0.46446700  1
  Zn  Zn111  1  0.78094500  0.44217700  0.51923100  1
  Zn  Zn112  1  0.78094500  0.88028800  0.51923100  1
  Zn  Zn113  1  0.65815800  0.29503700  0.55268200  1
  Zn  Zn114  1  0.76760900  0.08215400  0.53900000  1
  Zn  Zn115  1  0.50000000  0.60650700  0.44745200  1
  Zn  Zn116  1  0.50000000  0.21595800  0.46601000  1
  Zn  Zn117  1  0.23239100  0.08215400  0.53900000  1
  Zn  Zn118  1  0.50000000  0.37411600  0.50554900  1
  Zn  Zn119  1  0.76760900  0.24031200  0.49946100  1
  Zn  Zn120  1  0.23239100  0.24031200  0.49946100  1
  Zn  Zn121  1  0.50000000  0.94835000  0.53291200  1
  Zn  Zn122  1  0.34184200  0.02742800  0.48578000  1
  Zn  Zn123  1  0.34184200  0.29503700  0.55268200  1
  Zn  Zn124  1  0.65815800  0.02742800  0.48578000  1
  Zn  Zn125  1  0.50000000  0.66123300  0.64423100  1
  Zn  Zn126  1  0.00000000  0.27441900  0.61593400  1
  Zn  Zn127  1  0.00000000  0.04804700  0.61593400  1
  Zn  Zn128  1  0.77362700  0.16123300  0.64423100  1
  Zn  Zn129  1  0.00000000  0.27441900  0.67252700  1
  Zn  Zn130  1  0.22637300  0.16123300  0.64423100  1
  Zn  Zn131  1  0.00000000  0.04804700  0.67252700  1
  Zn  Zn132  1  0.00000000  0.99004300  0.56202800  1
  Zn  Zn133  1  0.50000000  0.08242300  0.62452800  1
  Zn  Zn134  1  0.84238000  0.41123300  0.58173100  1
  Zn  Zn135  1  0.50000000  0.24004300  0.66393300  1
  Zn  Zn136  1  0.15762000  0.41123300  0.58173100  1
  Zn  Zn137  1  0.00000000  0.83242300  0.60143300  1
  Zn  Zn138  1  0.78094500  0.16123300  0.58946700  1
  Zn  Zn139  1  0.78094500  0.66123300  0.57399500  1
  Zn  Zn140  1  0.21905500  0.38028800  0.64423100  1
  Zn  Zn141  1  0.21905500  0.94217700  0.64423100  1
  Zn  Zn142  1  0.21905500  0.66123300  0.57399500  1
  Zn  Zn143  1  0.21905500  0.16123300  0.58946700  1
  Zn  Zn144  1  0.78094500  0.94217700  0.64423100  1
  Zn  Zn145  1  0.78094500  0.38028800  0.64423100  1
  Zn  Zn146  1  0.65815800  0.79503700  0.67768200  1
  Zn  Zn147  1  0.76760900  0.58215400  0.66400000  1
  Zn  Zn148  1  0.50000000  0.10650700  0.57245200  1
  Zn  Zn149  1  0.50000000  0.71595800  0.59101000  1
  Zn  Zn150  1  0.23239100  0.58215400  0.66400000  1
  Zn  Zn151  1  0.50000000  0.87411600  0.63054900  1
  Zn  Zn152  1  0.76760900  0.74031200  0.62446100  1
  Zn  Zn153  1  0.23239100  0.74031200  0.62446100  1
  Zn  Zn154  1  0.50000000  0.44835000  0.65791200  1
  Zn  Zn155  1  0.34184200  0.52742800  0.61078000  1
  Zn  Zn156  1  0.34184200  0.79503700  0.67768200  1
  Zn  Zn157  1  0.65815800  0.52742800  0.61078000  1
  Zn  Zn158  1  0.00000000  0.49004300  0.68702800  1
  Zn  Zn159  1  0.84238000  0.91123300  0.70673100  1
  Zn  Zn160  1  0.15762000  0.91123300  0.70673100  1
  Zn  Zn161  1  0.00000000  0.33242300  0.72643300  1
  Zn  Zn162  1  0.78094500  0.66123300  0.71446700  1
  Zn  Zn163  1  0.78094500  0.16123300  0.69899500  1
  Zn  Zn164  1  0.21905500  0.16123300  0.69899500  1
  Zn  Zn165  1  0.21905500  0.66123300  0.71446700  1
  Zn  Zn166  1  0.50000000  0.60650700  0.69745200  1
  Zn  Zn167  1  0.50000000  0.21595800  0.71601000  1
