# generated using pymatgen
data_Mg54Zn91
_symmetry_space_group_name_H-M   'P 1'
_cell_length_a   13.26606255
_cell_length_b   15.58232770
_cell_length_c   46.38065300
_cell_angle_alpha   94.29618326
_cell_angle_beta   88.49627591
_cell_angle_gamma   99.94210053
_symmetry_Int_Tables_number   1
_chemical_formula_structural   Mg54Zn91
_chemical_formula_sum   'Mg108 Zn182'
_cell_volume   9416.24935325
_cell_formula_units_Z   2
loop_
 _symmetry_equiv_pos_site_id
 _symmetry_equiv_pos_as_xyz
  1  'x, y, z'
loop_
 _atom_site_type_symbol
 _atom_site_label
 _atom_site_symmetry_multiplicity
 _atom_site_fract_x
 _atom_site_fract_y
 _atom_site_fract_z
 _atom_site_occupancy
  Mg  Mg0  1  0.66094700  0.81176100  0.29119900  1
  Mg  Mg1  1  0.98352500  0.62771600  0.28884900  1
  Mg  Mg2  1  0.53401600  0.27655400  0.27890300  1
  Mg  Mg3  1  0.83375000  0.90629500  0.25326300  1
  Mg  Mg4  1  0.95021500  0.58305100  0.22224300  1
  Mg  Mg5  1  0.48012200  0.93642400  0.29476900  1
  Mg  Mg6  1  0.71429400  0.57230300  0.20738100  1
  Mg  Mg7  1  0.04525600  0.97271100  0.27401000  1
  Mg  Mg8  1  0.58299800  0.61581900  0.26350500  1
  Mg  Mg9  1  0.02879100  0.39595500  0.20502900  1
  Mg  Mg10  1  0.34499100  0.60245300  0.24837000  1
  Mg  Mg11  1  0.29600800  0.26318800  0.26376800  1
  Mg  Mg12  1  0.01180100  0.90310300  0.20494800  1
  Mg  Mg13  1  0.66187300  0.23144700  0.22286400  1
  Mg  Mg14  1  0.31713400  0.74756000  0.20440900  1
  Mg  Mg15  1  0.26471300  0.40670300  0.21989200  1
  Mg  Mg16  1  0.21806000  0.06724500  0.23607400  1
  Mg  Mg17  1  0.39888400  0.94258200  0.23250400  1
  Mg  Mg18  1  0.89548200  0.25129100  0.23842400  1
  Mg  Mg19  1  0.96720600  0.07590300  0.22232500  1
  Mg  Mg20  1  0.56094700  0.71176100  0.39119900  1
  Mg  Mg21  1  0.88352500  0.52771600  0.38884900  1
  Mg  Mg22  1  0.43401600  0.17655400  0.37890300  1
  Mg  Mg23  1  0.73375000  0.80629500  0.35326300  1
  Mg  Mg24  1  0.85021500  0.48305100  0.32224300  1
  Mg  Mg25  1  0.38012200  0.83642400  0.39476900  1
  Mg  Mg26  1  0.61429400  0.47230300  0.30738100  1
  Mg  Mg27  1  0.94525600  0.87271100  0.37401000  1
  Mg  Mg28  1  0.48299800  0.51581900  0.36350500  1
  Mg  Mg29  1  0.92879100  0.29595500  0.30502900  1
  Mg  Mg30  1  0.24499100  0.50245300  0.34837000  1
  Mg  Mg31  1  0.19600800  0.16318800  0.36376800  1
  Mg  Mg32  1  0.91180100  0.80310300  0.30494800  1
  Mg  Mg33  1  0.56187300  0.13144700  0.32286400  1
  Mg  Mg34  1  0.21713400  0.64756000  0.30440900  1
  Mg  Mg35  1  0.16471300  0.30670300  0.31989200  1
  Mg  Mg36  1  0.11806000  0.96724500  0.33607400  1
  Mg  Mg37  1  0.29888400  0.84258200  0.33250400  1
  Mg  Mg38  1  0.79548200  0.15129100  0.33842400  1
  Mg  Mg39  1  0.86720600  0.97590300  0.32232500  1
  Mg  Mg40  1  0.46094700  0.61176100  0.49119900  1
  Mg  Mg41  1  0.78352500  0.42771600  0.48884900  1
  Mg  Mg42  1  0.33401600  0.07655400  0.47890300  1
  Mg  Mg43  1  0.63375000  0.70629500  0.45326300  1
  Mg  Mg44  1  0.75021500  0.38305100  0.42224300  1
  Mg  Mg45  1  0.28012200  0.73642400  0.49476900  1
  Mg  Mg46  1  0.51429400  0.37230300  0.40738100  1
  Mg  Mg47  1  0.84525600  0.77271100  0.47401000  1
  Mg  Mg48  1  0.38299800  0.41581900  0.46350500  1
  Mg  Mg49  1  0.82879100  0.19595500  0.40502900  1
  Mg  Mg50  1  0.14499100  0.40245300  0.44837000  1
  Mg  Mg51  1  0.09600800  0.06318800  0.46376800  1
  Mg  Mg52  1  0.81180100  0.70310300  0.40494800  1
  Mg  Mg53  1  0.46187300  0.03144700  0.42286400  1
  Mg  Mg54  1  0.11713400  0.54756000  0.40440900  1
  Mg  Mg55  1  0.06471300  0.20670300  0.41989200  1
  Mg  Mg56  1  0.01806000  0.86724500  0.43607400  1
  Mg  Mg57  1  0.19888400  0.74258200  0.43250400  1
  Mg  Mg58  1  0.69548200  0.05129100  0.43842400  1
  Mg  Mg59  1  0.76720600  0.87590300  0.42232500  1
  Mg  Mg60  1  0.36094700  0.51176100  0.59119900  1
  Mg  Mg61  1  0.68352500  0.32771600  0.58884900  1
  Mg  Mg62  1  0.23401600  0.97655400  0.57890300  1
  Mg  Mg63  1  0.53375000  0.60629500  0.55326300  1
  Mg  Mg64  1  0.65021500  0.28305100  0.52224300  1
  Mg  Mg65  1  0.18012200  0.63642400  0.59476900  1
  Mg  Mg66  1  0.41429400  0.27230300  0.50738100  1
  Mg  Mg67  1  0.74525600  0.67271100  0.57401000  1
  Mg  Mg68  1  0.28299800  0.31581900  0.56350500  1
  Mg  Mg69  1  0.72879100  0.09595500  0.50502900  1
  Mg  Mg70  1  0.04499100  0.30245300  0.54837000  1
  Mg  Mg71  1  0.99600800  0.96318800  0.56376800  1
  Mg  Mg72  1  0.71180100  0.60310300  0.50494800  1
  Mg  Mg73  1  0.36187300  0.93144700  0.52286400  1
  Mg  Mg74  1  0.01713400  0.44756000  0.50440900  1
  Mg  Mg75  1  0.96471300  0.10670300  0.51989200  1
  Mg  Mg76  1  0.91806000  0.76724500  0.53607400  1
  Mg  Mg77  1  0.09888400  0.64258200  0.53250400  1
  Mg  Mg78  1  0.59548200  0.95129100  0.53842400  1
  Mg  Mg79  1  0.66720600  0.77590300  0.52232500  1
  Mg  Mg80  1  0.26094700  0.41176100  0.69119900  1
  Mg  Mg81  1  0.58352500  0.22771600  0.68884900  1
  Mg  Mg82  1  0.13401600  0.87655400  0.67890300  1
  Mg  Mg83  1  0.43375000  0.50629500  0.65326300  1
  Mg  Mg84  1  0.55021500  0.18305100  0.62224300  1
  Mg  Mg85  1  0.08012200  0.53642400  0.69476900  1
  Mg  Mg86  1  0.31429400  0.17230300  0.60738100  1
  Mg  Mg87  1  0.64525600  0.57271100  0.67401000  1
  Mg  Mg88  1  0.18299800  0.21581900  0.66350500  1
  Mg  Mg89  1  0.62879100  0.99595500  0.60502900  1
  Mg  Mg90  1  0.94499100  0.20245300  0.64837000  1
  Mg  Mg91  1  0.89600800  0.86318800  0.66376800  1
  Mg  Mg92  1  0.61180100  0.50310300  0.60494800  1
  Mg  Mg93  1  0.26187300  0.83144700  0.62286400  1
  Mg  Mg94  1  0.91713400  0.34756000  0.60440900  1
  Mg  Mg95  1  0.86471300  0.00670300  0.61989200  1
  Mg  Mg96  1  0.81806000  0.66724500  0.63607400  1
  Mg  Mg97  1  0.99888400  0.54258200  0.63250400  1
  Mg  Mg98  1  0.49548200  0.85129100  0.63842400  1
  Mg  Mg99  1  0.56720600  0.67590300  0.62232500  1
  Mg  Mg100  1  0.45021500  0.08305100  0.72224300  1
  Mg  Mg101  1  0.21429400  0.07230300  0.70738100  1
  Mg  Mg102  1  0.52879100  0.89595500  0.70502900  1
  Mg  Mg103  1  0.51180100  0.40310300  0.70494800  1
  Mg  Mg104  1  0.16187300  0.73144700  0.72286400  1
  Mg  Mg105  1  0.81713400  0.24756000  0.70440900  1
  Mg  Mg106  1  0.76471300  0.90670300  0.71989200  1
  Mg  Mg107  1  0.46720600  0.57590300  0.72232500  1
  Zn  Zn108  1  0.78660900  0.52969400  0.26573600  1
  Zn  Zn109  1  0.99166100  0.77329100  0.24723600  1
  Zn  Zn110  1  0.51147900  0.66074200  0.20525000  1
  Zn  Zn111  1  0.12710700  0.23068600  0.22076500  1
  Zn  Zn112  1  0.17597900  0.57417800  0.20572500  1
  Zn  Zn113  1  0.80555400  0.69666200  0.25694700  1
  Zn  Zn114  1  0.48950300  0.48950300  0.21363600  1
  Zn  Zn115  1  0.09239700  0.34931300  0.26153700  1
  Zn  Zn116  1  0.30951200  0.79745100  0.26859500  1
  Zn  Zn117  1  0.75203900  0.35410400  0.27215800  1
  Zn  Zn118  1  0.48604500  0.77964700  0.24796900  1
  Zn  Zn119  1  0.61896800  0.92335200  0.24298400  1
  Zn  Zn120  1  0.62269900  0.42615700  0.24338200  1
  Zn  Zn121  1  0.73167000  0.19047400  0.28028900  1
  Zn  Zn122  1  0.88734500  0.10571500  0.28003700  1
  Zn  Zn123  1  0.56949400  0.08155500  0.25867800  1
  Zn  Zn124  1  0.75433500  0.06569500  0.23710200  1
  Zn  Zn125  1  0.12696700  0.52490200  0.25511400  1
  Zn  Zn126  1  0.07345300  0.18234500  0.27032600  1
  Zn  Zn127  1  0.25630700  0.45285000  0.28389100  1
  Zn  Zn128  1  0.12467200  0.81331200  0.29017100  1
  Zn  Zn129  1  0.80302700  0.40482800  0.22154700  1
  Zn  Zn130  1  0.43950300  0.43950300  0.26363600  1
  Zn  Zn131  1  0.67276300  0.76017600  0.22750100  1
  Zn  Zn132  1  0.43496800  0.73060200  0.29754000  1
  Zn  Zn133  1  0.70568600  0.01258600  0.28839200  1
  Zn  Zn134  1  0.20624300  0.11883100  0.29977100  1
  Zn  Zn135  1  0.17332100  0.86642000  0.23888100  1
  Zn  Zn136  1  0.14733700  0.68853300  0.24698400  1
  Zn  Zn137  1  0.44403800  0.14840400  0.22973300  1
  Zn  Zn138  1  0.85190000  0.74832100  0.20650800  1
  Zn  Zn139  1  0.93950300  0.43950300  0.26363600  1
  Zn  Zn140  1  0.39296200  0.09935900  0.27930400  1
  Zn  Zn141  1  0.26003900  0.95565500  0.28428900  1
  Zn  Zn142  1  0.46752800  0.31826400  0.22202300  1
  Zn  Zn143  1  0.68660900  0.42969400  0.36573600  1
  Zn  Zn144  1  0.89166100  0.67329100  0.34723600  1
  Zn  Zn145  1  0.41147900  0.56074200  0.30525000  1
  Zn  Zn146  1  0.02710700  0.13068600  0.32076500  1
  Zn  Zn147  1  0.07597900  0.47417800  0.30572500  1
  Zn  Zn148  1  0.70555400  0.59666200  0.35694700  1
  Zn  Zn149  1  0.38950300  0.38950300  0.31363600  1
  Zn  Zn150  1  0.99239700  0.24931300  0.36153700  1
  Zn  Zn151  1  0.20951200  0.69745100  0.36859500  1
  Zn  Zn152  1  0.65203900  0.25410400  0.37215800  1
  Zn  Zn153  1  0.38604500  0.67964700  0.34796900  1
  Zn  Zn154  1  0.51896800  0.82335200  0.34298400  1
  Zn  Zn155  1  0.52269900  0.32615700  0.34338200  1
  Zn  Zn156  1  0.63167000  0.09047400  0.38028900  1
  Zn  Zn157  1  0.78734500  0.00571500  0.38003700  1
  Zn  Zn158  1  0.46949400  0.98155500  0.35867800  1
  Zn  Zn159  1  0.65433500  0.96569500  0.33710200  1
  Zn  Zn160  1  0.02696700  0.42490200  0.35511400  1
  Zn  Zn161  1  0.97345300  0.08234500  0.37032600  1
  Zn  Zn162  1  0.15630700  0.35285000  0.38389100  1
  Zn  Zn163  1  0.02467200  0.71331200  0.39017100  1
  Zn  Zn164  1  0.70302700  0.30482800  0.32154700  1
  Zn  Zn165  1  0.33950300  0.33950300  0.36363600  1
  Zn  Zn166  1  0.57276300  0.66017600  0.32750100  1
  Zn  Zn167  1  0.33496800  0.63060200  0.39754000  1
  Zn  Zn168  1  0.60568600  0.91258600  0.38839200  1
  Zn  Zn169  1  0.10624300  0.01883100  0.39977100  1
  Zn  Zn170  1  0.07332100  0.76642000  0.33888100  1
  Zn  Zn171  1  0.04733700  0.58853300  0.34698400  1
  Zn  Zn172  1  0.34403800  0.04840400  0.32973300  1
  Zn  Zn173  1  0.75190000  0.64832100  0.30650800  1
  Zn  Zn174  1  0.83950300  0.33950300  0.36363600  1
  Zn  Zn175  1  0.29296200  0.99935900  0.37930400  1
  Zn  Zn176  1  0.16003900  0.85565500  0.38428900  1
  Zn  Zn177  1  0.36752800  0.21826400  0.32202300  1
  Zn  Zn178  1  0.58660900  0.32969400  0.46573600  1
  Zn  Zn179  1  0.79166100  0.57329100  0.44723600  1
  Zn  Zn180  1  0.31147900  0.46074200  0.40525000  1
  Zn  Zn181  1  0.92710700  0.03068600  0.42076500  1
  Zn  Zn182  1  0.97597900  0.37417800  0.40572500  1
  Zn  Zn183  1  0.60555400  0.49666200  0.45694700  1
  Zn  Zn184  1  0.28950300  0.28950300  0.41363600  1
  Zn  Zn185  1  0.89239700  0.14931300  0.46153700  1
  Zn  Zn186  1  0.10951200  0.59745100  0.46859500  1
  Zn  Zn187  1  0.55203900  0.15410400  0.47215800  1
  Zn  Zn188  1  0.28604500  0.57964700  0.44796900  1
  Zn  Zn189  1  0.41896800  0.72335200  0.44298400  1
  Zn  Zn190  1  0.42269900  0.22615700  0.44338200  1
  Zn  Zn191  1  0.53167000  0.99047400  0.48028900  1
  Zn  Zn192  1  0.68734500  0.90571500  0.48003700  1
  Zn  Zn193  1  0.36949400  0.88155500  0.45867800  1
  Zn  Zn194  1  0.55433500  0.86569500  0.43710200  1
  Zn  Zn195  1  0.92696700  0.32490200  0.45511400  1
  Zn  Zn196  1  0.87345300  0.98234500  0.47032600  1
  Zn  Zn197  1  0.05630700  0.25285000  0.48389100  1
  Zn  Zn198  1  0.92467200  0.61331200  0.49017100  1
  Zn  Zn199  1  0.60302700  0.20482800  0.42154700  1
  Zn  Zn200  1  0.23950300  0.23950300  0.46363600  1
  Zn  Zn201  1  0.47276300  0.56017600  0.42750100  1
  Zn  Zn202  1  0.23496800  0.53060200  0.49754000  1
  Zn  Zn203  1  0.50568600  0.81258600  0.48839200  1
  Zn  Zn204  1  0.00624300  0.91883100  0.49977100  1
  Zn  Zn205  1  0.97332100  0.66642000  0.43888100  1
  Zn  Zn206  1  0.94733700  0.48853300  0.44698400  1
  Zn  Zn207  1  0.24403800  0.94840400  0.42973300  1
  Zn  Zn208  1  0.65190000  0.54832100  0.40650800  1
  Zn  Zn209  1  0.73950300  0.23950300  0.46363600  1
  Zn  Zn210  1  0.19296200  0.89935900  0.47930400  1
  Zn  Zn211  1  0.06003900  0.75565500  0.48428900  1
  Zn  Zn212  1  0.26752800  0.11826400  0.42202300  1
  Zn  Zn213  1  0.48660900  0.22969400  0.56573600  1
  Zn  Zn214  1  0.69166100  0.47329100  0.54723600  1
  Zn  Zn215  1  0.21147900  0.36074200  0.50525000  1
  Zn  Zn216  1  0.82710700  0.93068600  0.52076500  1
  Zn  Zn217  1  0.87597900  0.27417800  0.50572500  1
  Zn  Zn218  1  0.50555400  0.39666200  0.55694700  1
  Zn  Zn219  1  0.18950300  0.18950300  0.51363600  1
  Zn  Zn220  1  0.79239700  0.04931300  0.56153700  1
  Zn  Zn221  1  0.00951200  0.49745100  0.56859500  1
  Zn  Zn222  1  0.45203900  0.05410400  0.57215800  1
  Zn  Zn223  1  0.18604500  0.47964700  0.54796900  1
  Zn  Zn224  1  0.31896800  0.62335200  0.54298400  1
  Zn  Zn225  1  0.32269900  0.12615700  0.54338200  1
  Zn  Zn226  1  0.43167000  0.89047400  0.58028900  1
  Zn  Zn227  1  0.58734500  0.80571500  0.58003700  1
  Zn  Zn228  1  0.26949400  0.78155500  0.55867800  1
  Zn  Zn229  1  0.45433500  0.76569500  0.53710200  1
  Zn  Zn230  1  0.82696700  0.22490200  0.55511400  1
  Zn  Zn231  1  0.77345300  0.88234500  0.57032600  1
  Zn  Zn232  1  0.95630700  0.15285000  0.58389100  1
  Zn  Zn233  1  0.82467200  0.51331200  0.59017100  1
  Zn  Zn234  1  0.50302700  0.10482800  0.52154700  1
  Zn  Zn235  1  0.13950300  0.13950300  0.56363600  1
  Zn  Zn236  1  0.37276300  0.46017600  0.52750100  1
  Zn  Zn237  1  0.13496800  0.43060200  0.59754000  1
  Zn  Zn238  1  0.40568600  0.71258600  0.58839200  1
  Zn  Zn239  1  0.90624300  0.81883100  0.59977100  1
  Zn  Zn240  1  0.87332100  0.56642000  0.53888100  1
  Zn  Zn241  1  0.84733700  0.38853300  0.54698400  1
  Zn  Zn242  1  0.14403800  0.84840400  0.52973300  1
  Zn  Zn243  1  0.55190000  0.44832100  0.50650800  1
  Zn  Zn244  1  0.63950300  0.13950300  0.56363600  1
  Zn  Zn245  1  0.09296200  0.79935900  0.57930400  1
  Zn  Zn246  1  0.96003900  0.65565500  0.58428900  1
  Zn  Zn247  1  0.16752800  0.01826400  0.52202300  1
  Zn  Zn248  1  0.38660900  0.12969400  0.66573600  1
  Zn  Zn249  1  0.59166100  0.37329100  0.64723600  1
  Zn  Zn250  1  0.11147900  0.26074200  0.60525000  1
  Zn  Zn251  1  0.72710700  0.83068600  0.62076500  1
  Zn  Zn252  1  0.77597900  0.17417800  0.60572500  1
  Zn  Zn253  1  0.40555400  0.29666200  0.65694700  1
  Zn  Zn254  1  0.08950300  0.08950300  0.61363600  1
  Zn  Zn255  1  0.69239700  0.94931300  0.66153700  1
  Zn  Zn256  1  0.90951200  0.39745100  0.66859500  1
  Zn  Zn257  1  0.35203900  0.95410400  0.67215800  1
  Zn  Zn258  1  0.08604500  0.37964700  0.64796900  1
  Zn  Zn259  1  0.21896800  0.52335200  0.64298400  1
  Zn  Zn260  1  0.22269900  0.02615700  0.64338200  1
  Zn  Zn261  1  0.33167000  0.79047400  0.68028900  1
  Zn  Zn262  1  0.48734500  0.70571500  0.68003700  1
  Zn  Zn263  1  0.16949400  0.68155500  0.65867800  1
  Zn  Zn264  1  0.35433500  0.66569500  0.63710200  1
  Zn  Zn265  1  0.72696700  0.12490200  0.65511400  1
  Zn  Zn266  1  0.67345300  0.78234500  0.67032600  1
  Zn  Zn267  1  0.85630700  0.05285000  0.68389100  1
  Zn  Zn268  1  0.72467200  0.41331200  0.69017100  1
  Zn  Zn269  1  0.40302700  0.00482800  0.62154700  1
  Zn  Zn270  1  0.03950300  0.03950300  0.66363600  1
  Zn  Zn271  1  0.27276300  0.36017600  0.62750100  1
  Zn  Zn272  1  0.03496800  0.33060200  0.69754000  1
  Zn  Zn273  1  0.30568600  0.61258600  0.68839200  1
  Zn  Zn274  1  0.80624300  0.71883100  0.69977100  1
  Zn  Zn275  1  0.77332100  0.46642000  0.63888100  1
  Zn  Zn276  1  0.74733700  0.28853300  0.64698400  1
  Zn  Zn277  1  0.04403800  0.74840400  0.62973300  1
  Zn  Zn278  1  0.45190000  0.34832100  0.60650800  1
  Zn  Zn279  1  0.53950300  0.03950300  0.66363600  1
  Zn  Zn280  1  0.99296200  0.69935900  0.67930400  1
  Zn  Zn281  1  0.86003900  0.55565500  0.68428900  1
  Zn  Zn282  1  0.06752800  0.91826400  0.62202300  1
  Zn  Zn283  1  0.01147900  0.16074200  0.70525000  1
  Zn  Zn284  1  0.62710700  0.73068600  0.72076500  1
  Zn  Zn285  1  0.67597900  0.07417800  0.70572500  1
  Zn  Zn286  1  0.98950300  0.98950300  0.71363600  1
  Zn  Zn287  1  0.30302700  0.90482800  0.72154700  1
  Zn  Zn288  1  0.35190000  0.24832100  0.70650800  1
  Zn  Zn289  1  0.96752800  0.81826400  0.72202300  1
