# generated using pymatgen
data_Mg17B64
_symmetry_space_group_name_H-M   'P 1'
_cell_length_a   7.03000979
_cell_length_b   8.63140288
_cell_length_c   43.82089200
_cell_angle_alpha   93.79448005
_cell_angle_beta   87.19767736
_cell_angle_gamma   71.41702184
_symmetry_Int_Tables_number   1
_chemical_formula_structural   Mg17B64
_chemical_formula_sum   'Mg34 B128'
_cell_volume   2507.95072880
_cell_formula_units_Z   2
loop_
 _symmetry_equiv_pos_site_id
 _symmetry_equiv_pos_as_xyz
  1  'x, y, z'
loop_
 _atom_site_type_symbol
 _atom_site_label
 _atom_site_symmetry_multiplicity
 _atom_site_fract_x
 _atom_site_fract_y
 _atom_site_fract_z
 _atom_site_occupancy
  Mg  Mg0  1  0.29756100  0.57508100  0.20657900  1
  Mg  Mg1  1  0.27613500  0.25439800  0.22913500  1
  Mg  Mg2  1  0.89597900  0.83887700  0.18689600  1
  Mg  Mg3  1  0.03486000  0.13345900  0.17739000  1
  Mg  Mg4  1  0.94041800  0.43222400  0.27800800  1
  Mg  Mg5  1  0.91899200  0.11154100  0.30056400  1
  Mg  Mg6  1  0.53883600  0.69602000  0.25832400  1
  Mg  Mg7  1  0.67771700  0.99060200  0.24881900  1
  Mg  Mg8  1  0.58327500  0.28936600  0.34943600  1
  Mg  Mg9  1  0.56185000  0.96868300  0.37199200  1
  Mg  Mg10  1  0.18169300  0.55316300  0.32975300  1
  Mg  Mg11  1  0.32057400  0.84774400  0.32024700  1
  Mg  Mg12  1  0.22613200  0.14650900  0.42086500  1
  Mg  Mg13  1  0.20470700  0.82582600  0.44342100  1
  Mg  Mg14  1  0.82455100  0.41030500  0.40118100  1
  Mg  Mg15  1  0.96343100  0.70488700  0.39167600  1
  Mg  Mg16  1  0.86898900  0.00365200  0.49229300  1
  Mg  Mg17  1  0.84756400  0.68296900  0.51484900  1
  Mg  Mg18  1  0.46740800  0.26744800  0.47261000  1
  Mg  Mg19  1  0.60628800  0.56203000  0.46310400  1
  Mg  Mg20  1  0.51184600  0.86079500  0.56372200  1
  Mg  Mg21  1  0.49042100  0.54011200  0.58627800  1
  Mg  Mg22  1  0.11026500  0.12459100  0.54403800  1
  Mg  Mg23  1  0.24914600  0.41917300  0.53453300  1
  Mg  Mg24  1  0.15470400  0.71793800  0.63515100  1
  Mg  Mg25  1  0.13327800  0.39725500  0.65770700  1
  Mg  Mg26  1  0.75312200  0.98173400  0.61546700  1
  Mg  Mg27  1  0.89200300  0.27631600  0.60596200  1
  Mg  Mg28  1  0.79756100  0.57508100  0.70657900  1
  Mg  Mg29  1  0.77613500  0.25439800  0.72913500  1
  Mg  Mg30  1  0.39597900  0.83887700  0.68689600  1
  Mg  Mg31  1  0.53486000  0.13345900  0.67739000  1
  Mg  Mg32  1  0.03883600  0.69602000  0.75832400  1
  Mg  Mg33  1  0.17771700  0.99060200  0.74881900  1
  B  B34  1  0.67828400  0.11395600  0.19509300  1
  B  B35  1  0.89541200  0.71552300  0.24062100  1
  B  B36  1  0.93091800  0.20763200  0.24456600  1
  B  B37  1  0.64277800  0.62184600  0.19114800  1
  B  B38  1  0.71573000  0.26070000  0.22140600  1
  B  B39  1  0.85796600  0.56877800  0.21430800  1
  B  B40  1  0.11077200  0.01259900  0.24239800  1
  B  B41  1  0.46292400  0.81687900  0.19331700  1
  B  B42  1  0.06650300  0.81631300  0.23546000  1
  B  B43  1  0.37005400  0.95831000  0.22768200  1
  B  B44  1  0.65848500  0.47954500  0.21706400  1
  B  B45  1  0.05235000  0.40478900  0.19122200  1
  B  B46  1  0.50719300  0.01316600  0.20025400  1
  B  B47  1  0.20364200  0.87116800  0.20803300  1
  B  B48  1  0.91521100  0.34993300  0.21865000  1
  B  B49  1  0.52134600  0.42469000  0.24449200  1
  B  B50  1  0.32114100  0.97109900  0.26652200  1
  B  B51  1  0.53827000  0.57266500  0.31205000  1
  B  B52  1  0.57377600  0.06477500  0.31599500  1
  B  B53  1  0.28563500  0.47898900  0.26257700  1
  B  B54  1  0.35858700  0.11784300  0.29283500  1
  B  B55  1  0.50082300  0.42592100  0.28573700  1
  B  B56  1  0.75362900  0.86974200  0.31382600  1
  B  B57  1  0.10578100  0.67402200  0.26474500  1
  B  B58  1  0.70936000  0.67345600  0.30688900  1
  B  B59  1  0.01291100  0.81545300  0.29911000  1
  B  B60  1  0.30134200  0.33668800  0.28849300  1
  B  B61  1  0.69520700  0.26193200  0.26265100  1
  B  B62  1  0.15005000  0.87030900  0.27168200  1
  B  B63  1  0.84649900  0.72831100  0.27946100  1
  B  B64  1  0.55806800  0.20707600  0.29007900  1
  B  B65  1  0.16420300  0.28183200  0.31592000  1
  B  B66  1  0.96399800  0.82824200  0.33795000  1
  B  B67  1  0.18112700  0.42980800  0.38347800  1
  B  B68  1  0.21663300  0.92191800  0.38742300  1
  B  B69  1  0.92849200  0.33613200  0.33400500  1
  B  B70  1  0.00144400  0.97498600  0.36426300  1
  B  B71  1  0.14368100  0.28306400  0.35716500  1
  B  B72  1  0.39648600  0.72688500  0.38525500  1
  B  B73  1  0.74863900  0.53116500  0.33617400  1
  B  B74  1  0.35221700  0.53059800  0.37831800  1
  B  B75  1  0.65576800  0.67259600  0.37053900  1
  B  B76  1  0.94419900  0.19383100  0.35992100  1
  B  B77  1  0.33806500  0.11907500  0.33408000  1
  B  B78  1  0.79290800  0.72745100  0.34311100  1
  B  B79  1  0.48935600  0.58545400  0.35089000  1
  B  B80  1  0.20092500  0.06421900  0.36150700  1
  B  B81  1  0.80706000  0.13897500  0.38734900  1
  B  B82  1  0.60685500  0.68538400  0.40937900  1
  B  B83  1  0.82398400  0.28695100  0.45490700  1
  B  B84  1  0.85949000  0.77906100  0.45885200  1
  B  B85  1  0.57134900  0.19327500  0.40543400  1
  B  B86  1  0.64430100  0.83212900  0.43569200  1
  B  B87  1  0.78653800  0.14020700  0.42859400  1
  B  B88  1  0.03934300  0.58402800  0.45668300  1
  B  B89  1  0.39149600  0.38830800  0.40760200  1
  B  B90  1  0.99507400  0.38774100  0.44974600  1
  B  B91  1  0.29862500  0.52973900  0.44196700  1
  B  B92  1  0.58705700  0.05097400  0.43135000  1
  B  B93  1  0.98092200  0.97621700  0.40550800  1
  B  B94  1  0.43576500  0.58459400  0.41454000  1
  B  B95  1  0.13221400  0.44259700  0.42231800  1
  B  B96  1  0.84378200  0.92136200  0.43293600  1
  B  B97  1  0.44991700  0.99611800  0.45877800  1
  B  B98  1  0.24971200  0.54252700  0.48080700  1
  B  B99  1  0.46684100  0.14409400  0.52633500  1
  B  B100  1  0.50234700  0.63620400  0.53028100  1
  B  B101  1  0.21420600  0.05041700  0.47686200  1
  B  B102  1  0.28715800  0.68927100  0.50712000  1
  B  B103  1  0.42939500  0.99735000  0.50002200  1
  B  B104  1  0.68220000  0.44117100  0.52811200  1
  B  B105  1  0.03435300  0.24545000  0.47903100  1
  B  B106  1  0.63793100  0.24488400  0.52117500  1
  B  B107  1  0.94148300  0.38688100  0.51339600  1
  B  B108  1  0.22991400  0.90811700  0.50277800  1
  B  B109  1  0.62377900  0.83336000  0.47693700  1
  B  B110  1  0.07862200  0.44173700  0.48596800  1
  B  B111  1  0.77507100  0.29974000  0.49374700  1
  B  B112  1  0.48664000  0.77850500  0.50436500  1
  B  B113  1  0.09277400  0.85326100  0.53020600  1
  B  B114  1  0.89256900  0.39967000  0.55223600  1
  B  B115  1  0.10969800  0.00123700  0.59776400  1
  B  B116  1  0.14520400  0.49334700  0.60170900  1
  B  B117  1  0.85706300  0.90756000  0.54829100  1
  B  B118  1  0.93001600  0.54641400  0.57854900  1
  B  B119  1  0.07225200  0.85449300  0.57145100  1
  B  B120  1  0.32505700  0.29831400  0.59954100  1
  B  B121  1  0.67721000  0.10259300  0.55045900  1
  B  B122  1  0.28078800  0.10202700  0.59260300  1
  B  B123  1  0.58434000  0.24402400  0.58482500  1
  B  B124  1  0.87277100  0.76526000  0.57420700  1
  B  B125  1  0.26663600  0.69050300  0.54836500  1
  B  B126  1  0.72147900  0.29888000  0.55739700  1
  B  B127  1  0.41792800  0.15688300  0.56517500  1
  B  B128  1  0.12949700  0.63564700  0.57579300  1
  B  B129  1  0.73563100  0.71040400  0.60163500  1
  B  B130  1  0.53542700  0.25681300  0.62366500  1
  B  B131  1  0.75255500  0.85838000  0.66919300  1
  B  B132  1  0.78806100  0.35049000  0.67313800  1
  B  B133  1  0.49992000  0.76470300  0.61971900  1
  B  B134  1  0.57287300  0.40355700  0.64997800  1
  B  B135  1  0.71510900  0.71163600  0.64288000  1
  B  B136  1  0.96791500  0.15545700  0.67096900  1
  B  B137  1  0.32006700  0.95973600  0.62188800  1
  B  B138  1  0.92364600  0.95917000  0.66403200  1
  B  B139  1  0.22719700  0.10116700  0.65625300  1
  B  B140  1  0.51562800  0.62240200  0.64563500  1
  B  B141  1  0.90949300  0.54764600  0.61979400  1
  B  B142  1  0.36433600  0.15602300  0.62882500  1
  B  B143  1  0.06078500  0.01402600  0.63660400  1
  B  B144  1  0.77235400  0.49279000  0.64722200  1
  B  B145  1  0.37848900  0.56754700  0.67306300  1
  B  B146  1  0.17828400  0.11395600  0.69509300  1
  B  B147  1  0.39541200  0.71552300  0.74062100  1
  B  B148  1  0.43091800  0.20763200  0.74456600  1
  B  B149  1  0.14277800  0.62184600  0.69114800  1
  B  B150  1  0.21573000  0.26070000  0.72140600  1
  B  B151  1  0.35796600  0.56877800  0.71430800  1
  B  B152  1  0.61077200  0.01259900  0.74239800  1
  B  B153  1  0.96292400  0.81687900  0.69331700  1
  B  B154  1  0.56650300  0.81631300  0.73546000  1
  B  B155  1  0.87005400  0.95831000  0.72768200  1
  B  B156  1  0.15848500  0.47954500  0.71706400  1
  B  B157  1  0.55235000  0.40478900  0.69122200  1
  B  B158  1  0.00719300  0.01316600  0.70025400  1
  B  B159  1  0.70364200  0.87116800  0.70803300  1
  B  B160  1  0.41521100  0.34993300  0.71865000  1
  B  B161  1  0.02134600  0.42469000  0.74449200  1
