# generated using pymatgen
data_Mg28Ir43
_symmetry_space_group_name_H-M   'P 1'
_cell_length_a   5.24707521
_cell_length_b   9.72091511
_cell_length_c   42.67859400
_cell_angle_alpha   83.72935757
_cell_angle_beta   86.47569412
_cell_angle_gamma   74.34252486
_symmetry_Int_Tables_number   1
_chemical_formula_structural   Mg28Ir43
_chemical_formula_sum   'Mg28 Ir43'
_cell_volume   2082.39608329
_cell_formula_units_Z   1
loop_
 _symmetry_equiv_pos_site_id
 _symmetry_equiv_pos_as_xyz
  1  'x, y, z'
loop_
 _atom_site_type_symbol
 _atom_site_label
 _atom_site_symmetry_multiplicity
 _atom_site_fract_x
 _atom_site_fract_y
 _atom_site_fract_z
 _atom_site_occupancy
  Mg  Mg0  1  0.71986400  0.92733900  0.63293200  1
  Mg  Mg1  1  0.28013600  0.64066100  0.79906800  1
  Mg  Mg2  1  0.44543300  0.41647400  0.69266100  1
  Mg  Mg3  1  0.55456700  0.15152600  0.73933900  1
  Mg  Mg4  1  0.70924000  0.87661800  0.70490200  1
  Mg  Mg5  1  0.29076000  0.69138200  0.72709800  1
  Mg  Mg6  1  0.57770000  0.22817700  0.61642300  1
  Mg  Mg7  1  0.42230000  0.53982300  0.61557700  1
  Mg  Mg8  1  0.97896800  0.38977500  0.65228800  1
  Mg  Mg9  1  0.02103200  0.17822500  0.77971200  1
  Mg  Mg10  1  0.71986400  0.12733900  0.43293200  1
  Mg  Mg11  1  0.28013600  0.84066100  0.59906800  1
  Mg  Mg12  1  0.44543300  0.61647400  0.49266100  1
  Mg  Mg13  1  0.55456700  0.35152600  0.53933900  1
  Mg  Mg14  1  0.70924000  0.07661800  0.50490200  1
  Mg  Mg15  1  0.29076000  0.89138200  0.52709800  1
  Mg  Mg16  1  0.57770000  0.42817700  0.41642300  1
  Mg  Mg17  1  0.42230000  0.73982300  0.41557700  1
  Mg  Mg18  1  0.97896800  0.58977500  0.45228800  1
  Mg  Mg19  1  0.02103200  0.37822500  0.57971200  1
  Mg  Mg20  1  0.71986400  0.32733900  0.23293200  1
  Mg  Mg21  1  0.28013600  0.04066100  0.39906800  1
  Mg  Mg22  1  0.44543300  0.81647400  0.29266100  1
  Mg  Mg23  1  0.55456700  0.55152600  0.33933900  1
  Mg  Mg24  1  0.70924000  0.27661800  0.30490200  1
  Mg  Mg25  1  0.29076000  0.09138200  0.32709800  1
  Mg  Mg26  1  0.97896800  0.78977500  0.25228800  1
  Mg  Mg27  1  0.02103200  0.57822500  0.37971200  1
  Ir  Ir28  1  0.13112200  0.11609300  0.62166400  1
  Ir  Ir29  1  0.86887800  0.65190700  0.61033600  1
  Ir  Ir30  1  0.08254400  0.67398200  0.66190600  1
  Ir  Ir31  1  0.91745600  0.89401800  0.77009400  1
  Ir  Ir32  1  0.41843100  0.89401800  0.77009400  1
  Ir  Ir33  1  0.58156900  0.67398200  0.66190600  1
  Ir  Ir34  1  0.00000000  0.28400000  0.71600000  1
  Ir  Ir35  1  0.78403600  0.66732300  0.76460500  1
  Ir  Ir36  1  0.21596400  0.90067700  0.66739500  1
  Ir  Ir37  1  0.86417200  0.56228000  0.70937700  1
  Ir  Ir38  1  0.13582800  0.00572000  0.72262300  1
  Ir  Ir39  1  0.82470600  0.14328300  0.67518100  1
  Ir  Ir40  1  0.17529400  0.42471700  0.75681900  1
  Ir  Ir41  1  0.64317100  0.42471700  0.75681900  1
  Ir  Ir42  1  0.35682900  0.14328300  0.67518100  1
  Ir  Ir43  1  0.13112200  0.31609300  0.42166400  1
  Ir  Ir44  1  0.86887800  0.85190700  0.41033600  1
  Ir  Ir45  1  0.08254400  0.87398200  0.46190600  1
  Ir  Ir46  1  0.91745600  0.09401800  0.57009400  1
  Ir  Ir47  1  0.41843100  0.09401800  0.57009400  1
  Ir  Ir48  1  0.58156900  0.87398200  0.46190600  1
  Ir  Ir49  1  0.00000000  0.48400000  0.51600000  1
  Ir  Ir50  1  0.78403600  0.86732300  0.56460500  1
  Ir  Ir51  1  0.21596400  0.10067700  0.46739500  1
  Ir  Ir52  1  0.86417200  0.76228000  0.50937700  1
  Ir  Ir53  1  0.13582800  0.20572000  0.52262300  1
  Ir  Ir54  1  0.82470600  0.34328300  0.47518100  1
  Ir  Ir55  1  0.17529400  0.62471700  0.55681900  1
  Ir  Ir56  1  0.64317100  0.62471700  0.55681900  1
  Ir  Ir57  1  0.35682900  0.34328300  0.47518100  1
  Ir  Ir58  1  0.08254400  0.07398200  0.26190600  1
  Ir  Ir59  1  0.91745600  0.29401800  0.37009400  1
  Ir  Ir60  1  0.41843100  0.29401800  0.37009400  1
  Ir  Ir61  1  0.58156900  0.07398200  0.26190600  1
  Ir  Ir62  1  0.00000000  0.68400000  0.31600000  1
  Ir  Ir63  1  0.78403600  0.06732300  0.36460500  1
  Ir  Ir64  1  0.21596400  0.30067700  0.26739500  1
  Ir  Ir65  1  0.86417200  0.96228000  0.30937700  1
  Ir  Ir66  1  0.13582800  0.40572000  0.32262300  1
  Ir  Ir67  1  0.82470600  0.54328300  0.27518100  1
  Ir  Ir68  1  0.17529400  0.82471700  0.35681900  1
  Ir  Ir69  1  0.64317100  0.82471700  0.35681900  1
  Ir  Ir70  1  0.35682900  0.54328300  0.27518100  1
