# generated using pymatgen
data_Mg13Ir18
_symmetry_space_group_name_H-M   'P 1'
_cell_length_a   5.24707521
_cell_length_b   9.72091511
_cell_length_c   42.67859400
_cell_angle_alpha   83.72935757
_cell_angle_beta   86.47569412
_cell_angle_gamma   74.34252486
_symmetry_Int_Tables_number   1
_chemical_formula_structural   Mg13Ir18
_chemical_formula_sum   'Mg26 Ir36'
_cell_volume   2082.39608329
_cell_formula_units_Z   2
loop_
 _symmetry_equiv_pos_site_id
 _symmetry_equiv_pos_as_xyz
  1  'x, y, z'
loop_
 _atom_site_type_symbol
 _atom_site_label
 _atom_site_symmetry_multiplicity
 _atom_site_fract_x
 _atom_site_fract_y
 _atom_site_fract_z
 _atom_site_occupancy
  Mg  Mg0  1  0.71986400  0.89533900  0.66493200  1
  Mg  Mg1  1  0.28013600  0.80866100  0.63106800  1
  Mg  Mg2  1  0.57770000  0.19617700  0.64842300  1
  Mg  Mg3  1  0.42230000  0.50782300  0.64757700  1
  Mg  Mg4  1  0.97896800  0.35777500  0.68428800  1
  Mg  Mg5  1  0.02103200  0.34622500  0.61171200  1
  Mg  Mg6  1  0.71986400  0.09533900  0.46493200  1
  Mg  Mg7  1  0.28013600  0.00866100  0.43106800  1
  Mg  Mg8  1  0.44543300  0.58447400  0.52466100  1
  Mg  Mg9  1  0.55456700  0.31952600  0.57133900  1
  Mg  Mg10  1  0.70924000  0.04461800  0.53690200  1
  Mg  Mg11  1  0.29076000  0.85938200  0.55909800  1
  Mg  Mg12  1  0.57770000  0.39617700  0.44842300  1
  Mg  Mg13  1  0.42230000  0.70782300  0.44757700  1
  Mg  Mg14  1  0.97896800  0.55777500  0.48428800  1
  Mg  Mg15  1  0.02103200  0.54622500  0.41171200  1
  Mg  Mg16  1  0.71986400  0.29533900  0.26493200  1
  Mg  Mg17  1  0.28013600  0.20866100  0.23106800  1
  Mg  Mg18  1  0.44543300  0.78447400  0.32466100  1
  Mg  Mg19  1  0.55456700  0.51952600  0.37133900  1
  Mg  Mg20  1  0.70924000  0.24461800  0.33690200  1
  Mg  Mg21  1  0.29076000  0.05938200  0.35909800  1
  Mg  Mg22  1  0.57770000  0.59617700  0.24842300  1
  Mg  Mg23  1  0.42230000  0.90782300  0.24757700  1
  Mg  Mg24  1  0.97896800  0.75777500  0.28428800  1
  Mg  Mg25  1  0.02103200  0.74622500  0.21171200  1
  Ir  Ir26  1  0.13112200  0.08409300  0.65366400  1
  Ir  Ir27  1  0.86887800  0.61990700  0.64233600  1
  Ir  Ir28  1  0.08254400  0.64198200  0.69390600  1
  Ir  Ir29  1  0.91745600  0.06201800  0.60209400  1
  Ir  Ir30  1  0.41843100  0.06201800  0.60209400  1
  Ir  Ir31  1  0.58156900  0.64198200  0.69390600  1
  Ir  Ir32  1  0.13112200  0.28409300  0.45366400  1
  Ir  Ir33  1  0.86887800  0.81990700  0.44233600  1
  Ir  Ir34  1  0.08254400  0.84198200  0.49390600  1
  Ir  Ir35  1  0.91745600  0.26201800  0.40209400  1
  Ir  Ir36  1  0.41843100  0.26201800  0.40209400  1
  Ir  Ir37  1  0.58156900  0.84198200  0.49390600  1
  Ir  Ir38  1  0.00000000  0.45200000  0.54800000  1
  Ir  Ir39  1  0.78403600  0.83532300  0.59660500  1
  Ir  Ir40  1  0.21596400  0.06867700  0.49939500  1
  Ir  Ir41  1  0.86417200  0.73028000  0.54137700  1
  Ir  Ir42  1  0.13582800  0.17372000  0.55462300  1
  Ir  Ir43  1  0.82470600  0.31128300  0.50718100  1
  Ir  Ir44  1  0.17529400  0.59271700  0.58881900  1
  Ir  Ir45  1  0.64317100  0.59271700  0.58881900  1
  Ir  Ir46  1  0.35682900  0.31128300  0.50718100  1
  Ir  Ir47  1  0.13112200  0.48409300  0.25366400  1
  Ir  Ir48  1  0.86887800  0.01990700  0.24233600  1
  Ir  Ir49  1  0.08254400  0.04198200  0.29390600  1
  Ir  Ir50  1  0.91745600  0.46201800  0.20209400  1
  Ir  Ir51  1  0.41843100  0.46201800  0.20209400  1
  Ir  Ir52  1  0.58156900  0.04198200  0.29390600  1
  Ir  Ir53  1  0.00000000  0.65200000  0.34800000  1
  Ir  Ir54  1  0.78403600  0.03532300  0.39660500  1
  Ir  Ir55  1  0.21596400  0.26867700  0.29939500  1
  Ir  Ir56  1  0.86417200  0.93028000  0.34137700  1
  Ir  Ir57  1  0.13582800  0.37372000  0.35462300  1
  Ir  Ir58  1  0.82470600  0.51128300  0.30718100  1
  Ir  Ir59  1  0.17529400  0.79271700  0.38881900  1
  Ir  Ir60  1  0.64317100  0.79271700  0.38881900  1
  Ir  Ir61  1  0.35682900  0.51128300  0.30718100  1
