# generated using pymatgen
data_MgZn3
_symmetry_space_group_name_H-M   'P 1'
_cell_length_a   4.57917500
_cell_length_b   9.96750790
_cell_length_c   43.44735800
_cell_angle_alpha   83.41322196
_cell_angle_beta   90.00000000
_cell_angle_gamma   90.00000000
_symmetry_Int_Tables_number   1
_chemical_formula_structural   MgZn3
_chemical_formula_sum   'Mg18 Zn54'
_cell_volume   1969.97645463
_cell_formula_units_Z   18
loop_
 _symmetry_equiv_pos_site_id
 _symmetry_equiv_pos_as_xyz
  1  'x, y, z'
loop_
 _atom_site_type_symbol
 _atom_site_label
 _atom_site_symmetry_multiplicity
 _atom_site_fract_x
 _atom_site_fract_y
 _atom_site_fract_z
 _atom_site_occupancy
  Mg  Mg0  1  0.75000000  0.06666700  0.23333300  1
  Mg  Mg1  1  0.25000000  0.40000000  0.23333300  1
  Mg  Mg2  1  0.75000000  0.53333300  0.30000000  1
  Mg  Mg3  1  0.25000000  0.86666700  0.30000000  1
  Mg  Mg4  1  0.75000000  0.00000000  0.36666700  1
  Mg  Mg5  1  0.25000000  0.33333300  0.36666700  1
  Mg  Mg6  1  0.75000000  0.46666700  0.43333300  1
  Mg  Mg7  1  0.25000000  0.80000000  0.43333300  1
  Mg  Mg8  1  0.75000000  0.93333300  0.50000000  1
  Mg  Mg9  1  0.25000000  0.26666700  0.50000000  1
  Mg  Mg10  1  0.75000000  0.40000000  0.56666700  1
  Mg  Mg11  1  0.25000000  0.73333300  0.56666700  1
  Mg  Mg12  1  0.75000000  0.86666700  0.63333300  1
  Mg  Mg13  1  0.25000000  0.20000000  0.63333300  1
  Mg  Mg14  1  0.75000000  0.33333300  0.70000000  1
  Mg  Mg15  1  0.25000000  0.66666700  0.70000000  1
  Mg  Mg16  1  0.75000000  0.80000000  0.76666700  1
  Mg  Mg17  1  0.25000000  0.13333300  0.76666700  1
  Zn  Zn18  1  0.75000000  0.57306300  0.23333300  1
  Zn  Zn19  1  0.75000000  0.82949500  0.20127900  1
  Zn  Zn20  1  0.75000000  0.79744100  0.26538700  1
  Zn  Zn21  1  0.25000000  0.63717100  0.26538700  1
  Zn  Zn22  1  0.25000000  0.66922500  0.20127900  1
  Zn  Zn23  1  0.25000000  0.89360300  0.23333300  1
  Zn  Zn24  1  0.75000000  0.03973000  0.30000000  1
  Zn  Zn25  1  0.75000000  0.29616200  0.26794600  1
  Zn  Zn26  1  0.75000000  0.26410800  0.33205400  1
  Zn  Zn27  1  0.25000000  0.10383800  0.33205400  1
  Zn  Zn28  1  0.25000000  0.13589200  0.26794600  1
  Zn  Zn29  1  0.25000000  0.36027000  0.30000000  1
  Zn  Zn30  1  0.75000000  0.50639700  0.36666700  1
  Zn  Zn31  1  0.75000000  0.76282900  0.33461300  1
  Zn  Zn32  1  0.75000000  0.73077500  0.39872100  1
  Zn  Zn33  1  0.25000000  0.57050500  0.39872100  1
  Zn  Zn34  1  0.25000000  0.60255900  0.33461300  1
  Zn  Zn35  1  0.25000000  0.82693700  0.36666700  1
  Zn  Zn36  1  0.75000000  0.97306300  0.43333300  1
  Zn  Zn37  1  0.75000000  0.22949500  0.40127900  1
  Zn  Zn38  1  0.75000000  0.19744100  0.46538700  1
  Zn  Zn39  1  0.25000000  0.03717100  0.46538700  1
  Zn  Zn40  1  0.25000000  0.06922500  0.40127900  1
  Zn  Zn41  1  0.25000000  0.29360300  0.43333300  1
  Zn  Zn42  1  0.75000000  0.43973000  0.50000000  1
  Zn  Zn43  1  0.75000000  0.69616200  0.46794600  1
  Zn  Zn44  1  0.75000000  0.66410800  0.53205400  1
  Zn  Zn45  1  0.25000000  0.50383800  0.53205400  1
  Zn  Zn46  1  0.25000000  0.53589200  0.46794600  1
  Zn  Zn47  1  0.25000000  0.76027000  0.50000000  1
  Zn  Zn48  1  0.75000000  0.90639700  0.56666700  1
  Zn  Zn49  1  0.75000000  0.16282900  0.53461300  1
  Zn  Zn50  1  0.75000000  0.13077500  0.59872100  1
  Zn  Zn51  1  0.25000000  0.97050500  0.59872100  1
  Zn  Zn52  1  0.25000000  0.00255900  0.53461300  1
  Zn  Zn53  1  0.25000000  0.22693700  0.56666700  1
  Zn  Zn54  1  0.75000000  0.37306300  0.63333300  1
  Zn  Zn55  1  0.75000000  0.62949500  0.60127900  1
  Zn  Zn56  1  0.75000000  0.59744100  0.66538700  1
  Zn  Zn57  1  0.25000000  0.43717100  0.66538700  1
  Zn  Zn58  1  0.25000000  0.46922500  0.60127900  1
  Zn  Zn59  1  0.25000000  0.69360300  0.63333300  1
  Zn  Zn60  1  0.75000000  0.83973000  0.70000000  1
  Zn  Zn61  1  0.75000000  0.09616200  0.66794600  1
  Zn  Zn62  1  0.75000000  0.06410800  0.73205400  1
  Zn  Zn63  1  0.25000000  0.90383800  0.73205400  1
  Zn  Zn64  1  0.25000000  0.93589200  0.66794600  1
  Zn  Zn65  1  0.25000000  0.16027000  0.70000000  1
  Zn  Zn66  1  0.75000000  0.30639700  0.76666700  1
  Zn  Zn67  1  0.75000000  0.56282900  0.73461300  1
  Zn  Zn68  1  0.75000000  0.53077500  0.79872100  1
  Zn  Zn69  1  0.25000000  0.37050500  0.79872100  1
  Zn  Zn70  1  0.25000000  0.40255900  0.73461300  1
  Zn  Zn71  1  0.25000000  0.62693700  0.76666700  1
