# generated using pymatgen
data_Sm2Mg
_symmetry_space_group_name_H-M   'P 1'
_cell_length_a   6.75892229
_cell_length_b   17.36850800
_cell_length_c   40.80404600
_cell_angle_alpha   90.00000000
_cell_angle_beta   90.84687202
_cell_angle_gamma   90.00000000
_symmetry_Int_Tables_number   1
_chemical_formula_structural   Sm2Mg
_chemical_formula_sum   'Sm64 Mg32'
_cell_volume   4789.56149083
_cell_formula_units_Z   32
loop_
 _symmetry_equiv_pos_site_id
 _symmetry_equiv_pos_as_xyz
  1  'x, y, z'
loop_
 _atom_site_type_symbol
 _atom_site_label
 _atom_site_symmetry_multiplicity
 _atom_site_fract_x
 _atom_site_fract_y
 _atom_site_fract_z
 _atom_site_occupancy
  Sm  Sm0  1  0.17307700  0.91080000  0.21153800  1
  Sm  Sm1  1  0.01923100  0.72851200  0.25000000  1
  Sm  Sm2  1  0.67307700  0.58920000  0.21153800  1
  Sm  Sm3  1  0.51923100  0.77148800  0.25000000  1
  Sm  Sm4  1  0.01923100  0.41080000  0.25000000  1
  Sm  Sm5  1  0.17307700  0.22851200  0.21153800  1
  Sm  Sm6  1  0.51923100  0.08920000  0.25000000  1
  Sm  Sm7  1  0.67307700  0.27148800  0.21153800  1
  Sm  Sm8  1  0.86538500  0.91080000  0.28846200  1
  Sm  Sm9  1  0.71153800  0.72851200  0.32692300  1
  Sm  Sm10  1  0.36538500  0.58920000  0.28846200  1
  Sm  Sm11  1  0.21153800  0.77148800  0.32692300  1
  Sm  Sm12  1  0.71153800  0.41080000  0.32692300  1
  Sm  Sm13  1  0.86538500  0.22851200  0.28846200  1
  Sm  Sm14  1  0.21153800  0.08920000  0.32692300  1
  Sm  Sm15  1  0.36538500  0.27148800  0.28846200  1
  Sm  Sm16  1  0.55769200  0.91080000  0.36538500  1
  Sm  Sm17  1  0.40384600  0.72851200  0.40384600  1
  Sm  Sm18  1  0.05769200  0.58920000  0.36538500  1
  Sm  Sm19  1  0.90384600  0.77148800  0.40384600  1
  Sm  Sm20  1  0.40384600  0.41080000  0.40384600  1
  Sm  Sm21  1  0.55769200  0.22851200  0.36538500  1
  Sm  Sm22  1  0.90384600  0.08920000  0.40384600  1
  Sm  Sm23  1  0.05769200  0.27148800  0.36538500  1
  Sm  Sm24  1  0.25000000  0.91080000  0.44230800  1
  Sm  Sm25  1  0.09615400  0.72851200  0.48076900  1
  Sm  Sm26  1  0.75000000  0.58920000  0.44230800  1
  Sm  Sm27  1  0.59615400  0.77148800  0.48076900  1
  Sm  Sm28  1  0.09615400  0.41080000  0.48076900  1
  Sm  Sm29  1  0.25000000  0.22851200  0.44230800  1
  Sm  Sm30  1  0.59615400  0.08920000  0.48076900  1
  Sm  Sm31  1  0.75000000  0.27148800  0.44230800  1
  Sm  Sm32  1  0.94230800  0.91080000  0.51923100  1
  Sm  Sm33  1  0.78846200  0.72851200  0.55769200  1
  Sm  Sm34  1  0.44230800  0.58920000  0.51923100  1
  Sm  Sm35  1  0.28846200  0.77148800  0.55769200  1
  Sm  Sm36  1  0.78846200  0.41080000  0.55769200  1
  Sm  Sm37  1  0.94230800  0.22851200  0.51923100  1
  Sm  Sm38  1  0.28846200  0.08920000  0.55769200  1
  Sm  Sm39  1  0.44230800  0.27148800  0.51923100  1
  Sm  Sm40  1  0.63461500  0.91080000  0.59615400  1
  Sm  Sm41  1  0.48076900  0.72851200  0.63461500  1
  Sm  Sm42  1  0.13461500  0.58920000  0.59615400  1
  Sm  Sm43  1  0.98076900  0.77148800  0.63461500  1
  Sm  Sm44  1  0.48076900  0.41080000  0.63461500  1
  Sm  Sm45  1  0.63461500  0.22851200  0.59615400  1
  Sm  Sm46  1  0.98076900  0.08920000  0.63461500  1
  Sm  Sm47  1  0.13461500  0.27148800  0.59615400  1
  Sm  Sm48  1  0.32692300  0.91080000  0.67307700  1
  Sm  Sm49  1  0.17307700  0.72851200  0.71153800  1
  Sm  Sm50  1  0.82692300  0.58920000  0.67307700  1
  Sm  Sm51  1  0.67307700  0.77148800  0.71153800  1
  Sm  Sm52  1  0.17307700  0.41080000  0.71153800  1
  Sm  Sm53  1  0.32692300  0.22851200  0.67307700  1
  Sm  Sm54  1  0.67307700  0.08920000  0.71153800  1
  Sm  Sm55  1  0.82692300  0.27148800  0.67307700  1
  Sm  Sm56  1  0.01923100  0.91080000  0.75000000  1
  Sm  Sm57  1  0.86538500  0.72851200  0.78846200  1
  Sm  Sm58  1  0.51923100  0.58920000  0.75000000  1
  Sm  Sm59  1  0.36538500  0.77148800  0.78846200  1
  Sm  Sm60  1  0.86538500  0.41080000  0.78846200  1
  Sm  Sm61  1  0.01923100  0.22851200  0.75000000  1
  Sm  Sm62  1  0.36538500  0.08920000  0.78846200  1
  Sm  Sm63  1  0.51923100  0.27148800  0.75000000  1
  Mg  Mg64  1  0.17307700  0.56824600  0.21153800  1
  Mg  Mg65  1  0.67307700  0.93175400  0.21153800  1
  Mg  Mg66  1  0.01923100  0.06824600  0.25000000  1
  Mg  Mg67  1  0.51923100  0.43175400  0.25000000  1
  Mg  Mg68  1  0.86538500  0.56824600  0.28846200  1
  Mg  Mg69  1  0.36538500  0.93175400  0.28846200  1
  Mg  Mg70  1  0.71153800  0.06824600  0.32692300  1
  Mg  Mg71  1  0.21153800  0.43175400  0.32692300  1
  Mg  Mg72  1  0.55769200  0.56824600  0.36538500  1
  Mg  Mg73  1  0.05769200  0.93175400  0.36538500  1
  Mg  Mg74  1  0.40384600  0.06824600  0.40384600  1
  Mg  Mg75  1  0.90384600  0.43175400  0.40384600  1
  Mg  Mg76  1  0.25000000  0.56824600  0.44230800  1
  Mg  Mg77  1  0.75000000  0.93175400  0.44230800  1
  Mg  Mg78  1  0.09615400  0.06824600  0.48076900  1
  Mg  Mg79  1  0.59615400  0.43175400  0.48076900  1
  Mg  Mg80  1  0.94230800  0.56824600  0.51923100  1
  Mg  Mg81  1  0.44230800  0.93175400  0.51923100  1
  Mg  Mg82  1  0.78846200  0.06824600  0.55769200  1
  Mg  Mg83  1  0.28846200  0.43175400  0.55769200  1
  Mg  Mg84  1  0.63461500  0.56824600  0.59615400  1
  Mg  Mg85  1  0.13461500  0.93175400  0.59615400  1
  Mg  Mg86  1  0.48076900  0.06824600  0.63461500  1
  Mg  Mg87  1  0.98076900  0.43175400  0.63461500  1
  Mg  Mg88  1  0.32692300  0.56824600  0.67307700  1
  Mg  Mg89  1  0.82692300  0.93175400  0.67307700  1
  Mg  Mg90  1  0.17307700  0.06824600  0.71153800  1
  Mg  Mg91  1  0.67307700  0.43175400  0.71153800  1
  Mg  Mg92  1  0.01923100  0.56824600  0.75000000  1
  Mg  Mg93  1  0.51923100  0.93175400  0.75000000  1
  Mg  Mg94  1  0.86538500  0.06824600  0.78846200  1
  Mg  Mg95  1  0.36538500  0.43175400  0.78846200  1
