# generated using pymatgen
data_Mg2Sc
_symmetry_space_group_name_H-M   'P 1'
_cell_length_a   3.25178700
_cell_length_b   17.39149928
_cell_length_c   49.72144200
_cell_angle_alpha   92.07066956
_cell_angle_beta   90.00000000
_cell_angle_gamma   90.00000000
_symmetry_Int_Tables_number   1
_chemical_formula_structural   Mg2Sc
_chemical_formula_sum   'Mg48 Sc24'
_cell_volume   2810.08302364
_cell_formula_units_Z   24
loop_
 _symmetry_equiv_pos_site_id
 _symmetry_equiv_pos_as_xyz
  1  'x, y, z'
loop_
 _atom_site_type_symbol
 _atom_site_label
 _atom_site_symmetry_multiplicity
 _atom_site_fract_x
 _atom_site_fract_y
 _atom_site_fract_z
 _atom_site_occupancy
  Mg  Mg0  1  0.00000000  0.97613000  0.28598600  1
  Mg  Mg1  1  0.50000000  0.72613300  0.20265200  1
  Mg  Mg2  1  0.50000000  0.67387000  0.26401400  1
  Mg  Mg3  1  0.00000000  0.82386700  0.24734800  1
  Mg  Mg4  1  0.50000000  0.42613000  0.23598600  1
  Mg  Mg5  1  0.00000000  0.27613300  0.25265200  1
  Mg  Mg6  1  0.00000000  0.12387000  0.21401400  1
  Mg  Mg7  1  0.50000000  0.37386700  0.29734800  1
  Mg  Mg8  1  0.00000000  0.07613000  0.38598600  1
  Mg  Mg9  1  0.50000000  0.82613300  0.30265200  1
  Mg  Mg10  1  0.50000000  0.77387000  0.36401400  1
  Mg  Mg11  1  0.00000000  0.92386700  0.34734800  1
  Mg  Mg12  1  0.50000000  0.52613000  0.33598600  1
  Mg  Mg13  1  0.00000000  0.37613300  0.35265200  1
  Mg  Mg14  1  0.00000000  0.22387000  0.31401400  1
  Mg  Mg15  1  0.50000000  0.47386700  0.39734800  1
  Mg  Mg16  1  0.00000000  0.17613000  0.48598600  1
  Mg  Mg17  1  0.50000000  0.92613300  0.40265200  1
  Mg  Mg18  1  0.50000000  0.87387000  0.46401400  1
  Mg  Mg19  1  0.00000000  0.02386700  0.44734800  1
  Mg  Mg20  1  0.50000000  0.62613000  0.43598600  1
  Mg  Mg21  1  0.00000000  0.47613300  0.45265200  1
  Mg  Mg22  1  0.00000000  0.32387000  0.41401400  1
  Mg  Mg23  1  0.50000000  0.57386700  0.49734800  1
  Mg  Mg24  1  0.00000000  0.27613000  0.58598600  1
  Mg  Mg25  1  0.50000000  0.02613300  0.50265200  1
  Mg  Mg26  1  0.50000000  0.97387000  0.56401400  1
  Mg  Mg27  1  0.00000000  0.12386700  0.54734800  1
  Mg  Mg28  1  0.50000000  0.72613000  0.53598600  1
  Mg  Mg29  1  0.00000000  0.57613300  0.55265200  1
  Mg  Mg30  1  0.00000000  0.42387000  0.51401400  1
  Mg  Mg31  1  0.50000000  0.67386700  0.59734800  1
  Mg  Mg32  1  0.00000000  0.37613000  0.68598600  1
  Mg  Mg33  1  0.50000000  0.12613300  0.60265200  1
  Mg  Mg34  1  0.50000000  0.07387000  0.66401400  1
  Mg  Mg35  1  0.00000000  0.22386700  0.64734800  1
  Mg  Mg36  1  0.50000000  0.82613000  0.63598600  1
  Mg  Mg37  1  0.00000000  0.67613300  0.65265200  1
  Mg  Mg38  1  1.00000000  0.52387000  0.61401400  1
  Mg  Mg39  1  0.50000000  0.77386700  0.69734800  1
  Mg  Mg40  1  0.00000000  0.47613000  0.78598600  1
  Mg  Mg41  1  0.50000000  0.22613300  0.70265200  1
  Mg  Mg42  1  0.50000000  0.17387000  0.76401400  1
  Mg  Mg43  1  0.00000000  0.32386700  0.74734800  1
  Mg  Mg44  1  0.50000000  0.92613000  0.73598600  1
  Mg  Mg45  1  0.00000000  0.77613300  0.75265200  1
  Mg  Mg46  1  0.00000000  0.62387000  0.71401400  1
  Mg  Mg47  1  0.50000000  0.87386700  0.79734800  1
  Sc  Sc48  1  0.00000000  0.57601100  0.21933200  1
  Sc  Sc49  1  0.50000000  0.97398900  0.23066800  1
  Sc  Sc50  1  0.50000000  0.12601100  0.26933200  1
  Sc  Sc51  1  0.00000000  0.52398900  0.28066800  1
  Sc  Sc52  1  0.00000000  0.67601100  0.31933200  1
  Sc  Sc53  1  0.50000000  0.07398900  0.33066800  1
  Sc  Sc54  1  0.50000000  0.22601100  0.36933200  1
  Sc  Sc55  1  1.00000000  0.62398900  0.38066800  1
  Sc  Sc56  1  0.00000000  0.77601100  0.41933200  1
  Sc  Sc57  1  0.50000000  0.17398900  0.43066800  1
  Sc  Sc58  1  0.50000000  0.32601100  0.46933200  1
  Sc  Sc59  1  0.00000000  0.72398900  0.48066800  1
  Sc  Sc60  1  0.00000000  0.87601100  0.51933200  1
  Sc  Sc61  1  0.50000000  0.27398900  0.53066800  1
  Sc  Sc62  1  0.50000000  0.42601100  0.56933200  1
  Sc  Sc63  1  0.00000000  0.82398900  0.58066800  1
  Sc  Sc64  1  0.00000000  0.97601100  0.61933200  1
  Sc  Sc65  1  0.50000000  0.37398900  0.63066800  1
  Sc  Sc66  1  0.50000000  0.52601100  0.66933200  1
  Sc  Sc67  1  0.00000000  0.92398900  0.68066800  1
  Sc  Sc68  1  0.00000000  0.07601100  0.71933200  1
  Sc  Sc69  1  0.50000000  0.47398900  0.73066800  1
  Sc  Sc70  1  0.50000000  0.62601100  0.76933200  1
  Sc  Sc71  1  1.00000000  0.02398900  0.78066800  1
