# generated using pymatgen
data_Mg3Sb2
_symmetry_space_group_name_H-M   'P 1'
_cell_length_a   7.97951195
_cell_length_b   8.59897531
_cell_length_c   41.95520800
_cell_angle_alpha   90.10873509
_cell_angle_beta   95.45681876
_cell_angle_gamma   62.35574749
_symmetry_Int_Tables_number   1
_chemical_formula_structural   Mg3Sb2
_chemical_formula_sum   'Mg36 Sb24'
_cell_volume   2535.68799419
_cell_formula_units_Z   12
loop_
 _symmetry_equiv_pos_site_id
 _symmetry_equiv_pos_as_xyz
  1  'x, y, z'
loop_
 _atom_site_type_symbol
 _atom_site_label
 _atom_site_symmetry_multiplicity
 _atom_site_fract_x
 _atom_site_fract_y
 _atom_site_fract_z
 _atom_site_occupancy
  Mg  Mg0  1  0.78947400  0.94736800  0.21052600  1
  Mg  Mg1  1  0.30152900  0.27591800  0.22985300  1
  Mg  Mg2  1  0.27741800  0.61881900  0.19120000  1
  Mg  Mg3  1  0.36842100  0.84210500  0.26315800  1
  Mg  Mg4  1  0.88047600  0.17065400  0.28248400  1
  Mg  Mg5  1  0.85636600  0.51355600  0.24383100  1
  Mg  Mg6  1  0.94736800  0.73684200  0.31578900  1
  Mg  Mg7  1  0.45942400  0.06539100  0.33511600  1
  Mg  Mg8  1  0.43531300  0.40829300  0.29646300  1
  Mg  Mg9  1  0.52631600  0.63157900  0.36842100  1
  Mg  Mg10  1  0.03837100  0.96012800  0.38774700  1
  Mg  Mg11  1  0.01426000  0.30303000  0.34909500  1
  Mg  Mg12  1  0.10526300  0.52631600  0.42105300  1
  Mg  Mg13  1  0.61731800  0.85486500  0.44037900  1
  Mg  Mg14  1  0.59320800  0.19776700  0.40172600  1
  Mg  Mg15  1  0.68421100  0.42105300  0.47368400  1
  Mg  Mg16  1  0.19626600  0.74960200  0.49301100  1
  Mg  Mg17  1  0.17215500  0.09250400  0.45435800  1
  Mg  Mg18  1  0.26315800  0.31578900  0.52631600  1
  Mg  Mg19  1  0.77521300  0.64433900  0.54564200  1
  Mg  Mg20  1  0.75110300  0.98724000  0.50698900  1
  Mg  Mg21  1  0.84210500  0.21052600  0.57894700  1
  Mg  Mg22  1  0.35416100  0.53907500  0.59827400  1
  Mg  Mg23  1  0.33005000  0.88197700  0.55962100  1
  Mg  Mg24  1  0.42105300  0.10526300  0.63157900  1
  Mg  Mg25  1  0.93310800  0.43381200  0.65090500  1
  Mg  Mg26  1  0.90899700  0.77671400  0.61225300  1
  Mg  Mg27  1  0.00000000  0.00000000  0.68421100  1
  Mg  Mg28  1  0.51205500  0.32854900  0.70353700  1
  Mg  Mg29  1  0.48794500  0.67145100  0.66488400  1
  Mg  Mg30  1  0.57894700  0.89473700  0.73684200  1
  Mg  Mg31  1  0.09100300  0.22328600  0.75616900  1
  Mg  Mg32  1  0.06689200  0.56618800  0.71751600  1
  Mg  Mg33  1  0.15789500  0.78947400  0.78947400  1
  Mg  Mg34  1  0.66995000  0.11802300  0.80880000  1
  Mg  Mg35  1  0.64583900  0.46092500  0.77014700  1
  Sb  Sb36  1  0.55109300  0.74559500  0.19865700  1
  Sb  Sb37  1  0.02785500  0.14914200  0.22239500  1
  Sb  Sb38  1  0.13004000  0.64033100  0.25128900  1
  Sb  Sb39  1  0.60680200  0.04387900  0.27502700  1
  Sb  Sb40  1  0.70898700  0.53506800  0.30392000  1
  Sb  Sb41  1  0.18574900  0.93861600  0.32765900  1
  Sb  Sb42  1  0.28793500  0.42980500  0.35655200  1
  Sb  Sb43  1  0.76469700  0.83335300  0.38029000  1
  Sb  Sb44  1  0.86688200  0.32454200  0.40918400  1
  Sb  Sb45  1  0.34364400  0.72809000  0.43292200  1
  Sb  Sb46  1  0.44583000  0.21927900  0.46181500  1
  Sb  Sb47  1  0.92259100  0.62282600  0.48555300  1
  Sb  Sb48  1  0.02477700  0.11401600  0.51444700  1
  Sb  Sb49  1  0.50153900  0.51756300  0.53818500  1
  Sb  Sb50  1  0.60372400  0.00875300  0.56707800  1
  Sb  Sb51  1  0.08048600  0.41230000  0.59081600  1
  Sb  Sb52  1  0.18267200  0.90348900  0.61971000  1
  Sb  Sb53  1  0.65943400  0.30703700  0.64344800  1
  Sb  Sb54  1  0.76161900  0.79822600  0.67234100  1
  Sb  Sb55  1  0.23838100  0.20177400  0.69608000  1
  Sb  Sb56  1  0.34056600  0.69296300  0.72497300  1
  Sb  Sb57  1  0.81732800  0.09651100  0.74871100  1
  Sb  Sb58  1  0.91951400  0.58770000  0.77760500  1
  Sb  Sb59  1  0.39627600  0.99124700  0.80134300  1
