# generated using pymatgen
data_Mg43Ir9
_symmetry_space_group_name_H-M   'P 1'
_cell_length_a   8.24582600
_cell_length_b   9.82944229
_cell_length_c   49.03777500
_cell_angle_alpha   90.00000000
_cell_angle_beta   90.00000000
_cell_angle_gamma   106.23813566
_symmetry_Int_Tables_number   1
_chemical_formula_structural   Mg43Ir9
_chemical_formula_sum   'Mg86 Ir18'
_cell_volume   3816.04764390
_cell_formula_units_Z   2
loop_
 _symmetry_equiv_pos_site_id
 _symmetry_equiv_pos_as_xyz
  1  'x, y, z'
loop_
 _atom_site_type_symbol
 _atom_site_label
 _atom_site_symmetry_multiplicity
 _atom_site_fract_x
 _atom_site_fract_y
 _atom_site_fract_z
 _atom_site_occupancy
  Mg  Mg0  1  0.92819000  0.28457000  0.81250000  1
  Mg  Mg1  1  0.67819000  0.53457000  0.72916700  1
  Mg  Mg2  1  0.42819000  0.78457000  0.81250000  1
  Mg  Mg3  1  0.42819000  0.28457000  0.81250000  1
  Mg  Mg4  1  0.17819000  0.53457000  0.72916700  1
  Mg  Mg5  1  0.92819000  0.78457000  0.81250000  1
  Mg  Mg6  1  0.11191900  0.58575700  0.79041000  1
  Mg  Mg7  1  0.42819000  0.53457000  0.77334700  1
  Mg  Mg8  1  0.74446100  0.48338200  0.79041000  1
  Mg  Mg9  1  0.74446100  0.98338200  0.83459000  1
  Mg  Mg10  1  0.92819000  0.53457000  0.68498600  1
  Mg  Mg11  1  0.11191900  0.08575700  0.83459000  1
  Mg  Mg12  1  0.92819000  0.03457000  0.72916700  1
  Mg  Mg13  1  0.42819000  0.03457000  0.72916700  1
  Mg  Mg14  1  0.34427600  0.29680600  0.71052400  1
  Mg  Mg15  1  0.18519400  0.81955800  0.69478200  1
  Mg  Mg16  1  0.24112200  0.98734500  0.78219400  1
  Mg  Mg17  1  0.61525700  0.08179500  0.78219400  1
  Mg  Mg18  1  0.67118600  0.24958100  0.69478200  1
  Mg  Mg19  1  0.51210400  0.77233400  0.71052400  1
  Mg  Mg20  1  0.01210400  0.77233400  0.74781000  1
  Mg  Mg21  1  0.17118600  0.24958100  0.76355100  1
  Mg  Mg22  1  0.11525700  0.08179500  0.67613900  1
  Mg  Mg23  1  0.74112200  0.98734500  0.67613900  1
  Mg  Mg24  1  0.68519400  0.81955800  0.76355100  1
  Mg  Mg25  1  0.84427600  0.29680600  0.74781000  1
  Mg  Mg26  1  0.42819000  0.78457000  0.64583300  1
  Mg  Mg27  1  0.17819000  0.03457000  0.56250000  1
  Mg  Mg28  1  0.92819000  0.28457000  0.64583300  1
  Mg  Mg29  1  0.92819000  0.78457000  0.64583300  1
  Mg  Mg30  1  0.67819000  0.03457000  0.56250000  1
  Mg  Mg31  1  0.42819000  0.28457000  0.64583300  1
  Mg  Mg32  1  0.61191900  0.08575700  0.62374300  1
  Mg  Mg33  1  0.92819000  0.03457000  0.60668100  1
  Mg  Mg34  1  0.24446100  0.98338200  0.62374300  1
  Mg  Mg35  1  0.24446100  0.48338200  0.66792400  1
  Mg  Mg36  1  0.42819000  0.03457000  0.51831900  1
  Mg  Mg37  1  0.61191900  0.58575700  0.66792400  1
  Mg  Mg38  1  0.42819000  0.53457000  0.56250000  1
  Mg  Mg39  1  0.92819000  0.53457000  0.56250000  1
  Mg  Mg40  1  0.84427600  0.79680600  0.54385700  1
  Mg  Mg41  1  0.68519400  0.31955800  0.52811500  1
  Mg  Mg42  1  0.74112200  0.48734500  0.61552700  1
  Mg  Mg43  1  0.11525700  0.58179500  0.61552700  1
  Mg  Mg44  1  0.17118600  0.74958100  0.52811500  1
  Mg  Mg45  1  0.01210400  0.27233400  0.54385700  1
  Mg  Mg46  1  0.51210400  0.27233400  0.58114300  1
  Mg  Mg47  1  0.67118600  0.74958100  0.59688500  1
  Mg  Mg48  1  0.61525700  0.58179500  0.50947300  1
  Mg  Mg49  1  0.24112200  0.48734500  0.50947300  1
  Mg  Mg50  1  0.18519400  0.31955800  0.59688500  1
  Mg  Mg51  1  0.34427600  0.79680600  0.58114300  1
  Mg  Mg52  1  0.92819000  0.28457000  0.47916700  1
  Mg  Mg53  1  0.67819000  0.53457000  0.39583300  1
  Mg  Mg54  1  0.42819000  0.78457000  0.47916700  1
  Mg  Mg55  1  0.42819000  0.28457000  0.47916700  1
  Mg  Mg56  1  0.17819000  0.53457000  0.39583300  1
  Mg  Mg57  1  0.92819000  0.78457000  0.47916700  1
  Mg  Mg58  1  0.11191900  0.58575700  0.45707600  1
  Mg  Mg59  1  0.42819000  0.53457000  0.44001400  1
  Mg  Mg60  1  0.74446100  0.48338200  0.45707600  1
  Mg  Mg61  1  0.74446100  0.98338200  0.50125700  1
  Mg  Mg62  1  0.92819000  0.53457000  0.35165300  1
  Mg  Mg63  1  0.11191900  0.08575700  0.50125700  1
  Mg  Mg64  1  0.92819000  0.03457000  0.39583300  1
  Mg  Mg65  1  0.42819000  0.03457000  0.39583300  1
  Mg  Mg66  1  0.34427600  0.29680600  0.37719000  1
  Mg  Mg67  1  0.18519400  0.81955800  0.36144900  1
  Mg  Mg68  1  0.24112200  0.98734500  0.44886100  1
  Mg  Mg69  1  0.61525700  0.08179500  0.44886100  1
  Mg  Mg70  1  0.67118600  0.24958100  0.36144900  1
  Mg  Mg71  1  0.51210400  0.77233400  0.37719000  1
  Mg  Mg72  1  0.01210400  0.77233400  0.41447600  1
  Mg  Mg73  1  0.17118600  0.24958100  0.43021800  1
  Mg  Mg74  1  0.11525700  0.08179500  0.34280600  1
  Mg  Mg75  1  0.74112200  0.98734500  0.34280600  1
  Mg  Mg76  1  0.68519400  0.81955800  0.43021800  1
  Mg  Mg77  1  0.84427600  0.29680600  0.41447600  1
  Mg  Mg78  1  0.42819000  0.78457000  0.31250000  1
  Mg  Mg79  1  0.92819000  0.28457000  0.31250000  1
  Mg  Mg80  1  0.92819000  0.78457000  0.31250000  1
  Mg  Mg81  1  0.42819000  0.28457000  0.31250000  1
  Mg  Mg82  1  0.61191900  0.08575700  0.29041000  1
  Mg  Mg83  1  0.24446100  0.98338200  0.29041000  1
  Mg  Mg84  1  0.24446100  0.48338200  0.33459000  1
  Mg  Mg85  1  0.61191900  0.58575700  0.33459000  1
  Ir  Ir86  1  0.34186500  0.77559400  0.75794200  1
  Ir  Ir87  1  0.42819000  0.03457000  0.67161600  1
  Ir  Ir88  1  0.51451500  0.29354600  0.75794200  1
  Ir  Ir89  1  0.01451500  0.29354600  0.70039200  1
  Ir  Ir90  1  0.92819000  0.03457000  0.78671700  1
  Ir  Ir91  1  0.84186500  0.77559400  0.70039200  1
  Ir  Ir92  1  0.84186500  0.27559400  0.59127500  1
  Ir  Ir93  1  0.92819000  0.53457000  0.50495000  1
  Ir  Ir94  1  0.01451500  0.79354600  0.59127500  1
  Ir  Ir95  1  0.51451500  0.79354600  0.53372500  1
  Ir  Ir96  1  0.42819000  0.53457000  0.62005000  1
  Ir  Ir97  1  0.34186500  0.27559400  0.53372500  1
  Ir  Ir98  1  0.34186500  0.77559400  0.42460800  1
  Ir  Ir99  1  0.42819000  0.03457000  0.33828300  1
  Ir  Ir100  1  0.51451500  0.29354600  0.42460800  1
  Ir  Ir101  1  0.01451500  0.29354600  0.36705800  1
  Ir  Ir102  1  0.92819000  0.03457000  0.45338400  1
  Ir  Ir103  1  0.84186500  0.77559400  0.36705800  1
