# generated using pymatgen
data_Mg29Ir41
_symmetry_space_group_name_H-M   'P 1'
_cell_length_a   9.72091470
_cell_length_b   10.02721169
_cell_length_c   42.99921300
_cell_angle_alpha   94.02267208
_cell_angle_beta   94.30460560
_cell_angle_gamma   92.31047724
_symmetry_Int_Tables_number   1
_chemical_formula_structural   Mg29Ir41
_chemical_formula_sum   'Mg58 Ir82'
_cell_volume   4164.79203527
_cell_formula_units_Z   2
loop_
 _symmetry_equiv_pos_site_id
 _symmetry_equiv_pos_as_xyz
  1  'x, y, z'
loop_
 _atom_site_type_symbol
 _atom_site_label
 _atom_site_symmetry_multiplicity
 _atom_site_fract_x
 _atom_site_fract_y
 _atom_site_fract_z
 _atom_site_occupancy
  Mg  Mg0  1  0.59115400  0.22280400  0.24352000  1
  Mg  Mg1  1  0.73873700  0.97235800  0.21648000  1
  Mg  Mg2  1  0.99959900  0.64952400  0.28621300  1
  Mg  Mg3  1  0.23029300  0.84563900  0.27378700  1
  Mg  Mg4  1  0.60695300  0.47150900  0.20647300  1
  Mg  Mg5  1  0.72293900  0.72365400  0.25352700  1
  Mg  Mg6  1  0.31278800  0.12237000  0.23755900  1
  Mg  Mg7  1  0.01710400  0.07279200  0.22244100  1
  Mg  Mg8  1  0.09312900  0.36828100  0.25975300  1
  Mg  Mg9  1  0.23676200  0.82688100  0.20024700  1
  Mg  Mg10  1  0.49115400  0.52280400  0.34352000  1
  Mg  Mg11  1  0.63873700  0.27235800  0.31648000  1
  Mg  Mg12  1  0.89959900  0.94952400  0.38621300  1
  Mg  Mg13  1  0.13029300  0.14563900  0.37378700  1
  Mg  Mg14  1  0.50695300  0.77150900  0.30647300  1
  Mg  Mg15  1  0.62293900  0.02365400  0.35352700  1
  Mg  Mg16  1  0.21278800  0.42237000  0.33755900  1
  Mg  Mg17  1  0.91710400  0.37279200  0.32244100  1
  Mg  Mg18  1  0.99312900  0.66828100  0.35975300  1
  Mg  Mg19  1  0.13676200  0.12688100  0.30024700  1
  Mg  Mg20  1  0.39115400  0.82280400  0.44352000  1
  Mg  Mg21  1  0.53873700  0.57235800  0.41648000  1
  Mg  Mg22  1  0.79959900  0.24952400  0.48621300  1
  Mg  Mg23  1  0.03029300  0.44563900  0.47378700  1
  Mg  Mg24  1  0.40695300  0.07150900  0.40647300  1
  Mg  Mg25  1  0.52293900  0.32365400  0.45352700  1
  Mg  Mg26  1  0.11278800  0.72237000  0.43755900  1
  Mg  Mg27  1  0.81710400  0.67279200  0.42244100  1
  Mg  Mg28  1  0.89312900  0.96828100  0.45975300  1
  Mg  Mg29  1  0.03676200  0.42688100  0.40024700  1
  Mg  Mg30  1  0.29115400  0.12280400  0.54352000  1
  Mg  Mg31  1  0.43873700  0.87235800  0.51648000  1
  Mg  Mg32  1  0.69959900  0.54952400  0.58621300  1
  Mg  Mg33  1  0.93029300  0.74563900  0.57378700  1
  Mg  Mg34  1  0.30695300  0.37150900  0.50647300  1
  Mg  Mg35  1  0.42293900  0.62365400  0.55352700  1
  Mg  Mg36  1  0.01278800  0.02237000  0.53755900  1
  Mg  Mg37  1  0.71710400  0.97279200  0.52244100  1
  Mg  Mg38  1  0.79312900  0.26828100  0.55975300  1
  Mg  Mg39  1  0.93676200  0.72688100  0.50024700  1
  Mg  Mg40  1  0.19115400  0.42280400  0.64352000  1
  Mg  Mg41  1  0.33873700  0.17235800  0.61648000  1
  Mg  Mg42  1  0.59959900  0.84952400  0.68621300  1
  Mg  Mg43  1  0.83029300  0.04563900  0.67378700  1
  Mg  Mg44  1  0.20695300  0.67150900  0.60647300  1
  Mg  Mg45  1  0.32293900  0.92365400  0.65352700  1
  Mg  Mg46  1  0.91278800  0.32237000  0.63755900  1
  Mg  Mg47  1  0.61710400  0.27279200  0.62244100  1
  Mg  Mg48  1  0.69312900  0.56828100  0.65975300  1
  Mg  Mg49  1  0.83676200  0.02688100  0.60024700  1
  Mg  Mg50  1  0.09115400  0.72280400  0.74352000  1
  Mg  Mg51  1  0.23873700  0.47235800  0.71648000  1
  Mg  Mg52  1  0.10695300  0.97150900  0.70647300  1
  Mg  Mg53  1  0.22293900  0.22365400  0.75352700  1
  Mg  Mg54  1  0.81278800  0.62237000  0.73755900  1
  Mg  Mg55  1  0.51710400  0.57279200  0.72244100  1
  Mg  Mg56  1  0.59312900  0.86828100  0.75975300  1
  Mg  Mg57  1  0.73676200  0.32688100  0.70024700  1
  Ir  Ir58  1  0.36690900  0.30674200  0.29028000  1
  Ir  Ir59  1  0.86298300  0.18842000  0.26972000  1
  Ir  Ir60  1  0.84385400  0.28272100  0.21520400  1
  Ir  Ir61  1  0.48603700  0.91244100  0.24479600  1
  Ir  Ir62  1  0.43613500  0.06214900  0.29469800  1
  Ir  Ir63  1  0.79375700  0.43301400  0.26530200  1
  Ir  Ir64  1  0.16494600  0.59758100  0.23000000  1
  Ir  Ir65  1  0.67891700  0.00290800  0.28410100  1
  Ir  Ir66  1  0.55097500  0.49225400  0.27589900  1
  Ir  Ir67  1  0.90356000  0.53365200  0.21972900  1
  Ir  Ir68  1  0.42633100  0.66151000  0.24027100  1
  Ir  Ir69  1  0.29038900  0.56176500  0.28609200  1
  Ir  Ir70  1  0.93950300  0.93339800  0.27390800  1
  Ir  Ir71  1  0.98629100  0.79303400  0.22712000  1
  Ir  Ir72  1  0.34360100  0.40212800  0.23288000  1
  Ir  Ir73  1  0.26690900  0.60674200  0.39028000  1
  Ir  Ir74  1  0.76298300  0.48842000  0.36972000  1
  Ir  Ir75  1  0.74385400  0.58272100  0.31520400  1
  Ir  Ir76  1  0.38603700  0.21244100  0.34479600  1
  Ir  Ir77  1  0.33613500  0.36214900  0.39469800  1
  Ir  Ir78  1  0.69375700  0.73301400  0.36530200  1
  Ir  Ir79  1  0.06494600  0.89758100  0.33000000  1
  Ir  Ir80  1  0.57891700  0.30290800  0.38410100  1
  Ir  Ir81  1  0.45097500  0.79225400  0.37589900  1
  Ir  Ir82  1  0.80356000  0.83365200  0.31972900  1
  Ir  Ir83  1  0.32633100  0.96151000  0.34027100  1
  Ir  Ir84  1  0.19038900  0.86176500  0.38609200  1
  Ir  Ir85  1  0.83950300  0.23339800  0.37390800  1
  Ir  Ir86  1  0.88629100  0.09303400  0.32712000  1
  Ir  Ir87  1  0.24360100  0.70212800  0.33288000  1
  Ir  Ir88  1  0.16690900  0.90674200  0.49028000  1
  Ir  Ir89  1  0.66298300  0.78842000  0.46972000  1
  Ir  Ir90  1  0.64385400  0.88272100  0.41520400  1
  Ir  Ir91  1  0.28603700  0.51244100  0.44479600  1
  Ir  Ir92  1  0.23613500  0.66214900  0.49469800  1
  Ir  Ir93  1  0.59375700  0.03301400  0.46530200  1
  Ir  Ir94  1  0.96494600  0.19758100  0.43000000  1
  Ir  Ir95  1  0.47891700  0.60290800  0.48410100  1
  Ir  Ir96  1  0.35097500  0.09225400  0.47589900  1
  Ir  Ir97  1  0.70356000  0.13365200  0.41972900  1
  Ir  Ir98  1  0.22633100  0.26151000  0.44027100  1
  Ir  Ir99  1  0.09038900  0.16176500  0.48609200  1
  Ir  Ir100  1  0.73950300  0.53339800  0.47390800  1
  Ir  Ir101  1  0.78629100  0.39303400  0.42712000  1
  Ir  Ir102  1  0.14360100  0.00212800  0.43288000  1
  Ir  Ir103  1  0.06690900  0.20674200  0.59028000  1
  Ir  Ir104  1  0.56298300  0.08842000  0.56972000  1
  Ir  Ir105  1  0.54385400  0.18272100  0.51520400  1
  Ir  Ir106  1  0.18603700  0.81244100  0.54479600  1
  Ir  Ir107  1  0.13613500  0.96214900  0.59469800  1
  Ir  Ir108  1  0.49375700  0.33301400  0.56530200  1
  Ir  Ir109  1  0.86494600  0.49758100  0.53000000  1
  Ir  Ir110  1  0.37891700  0.90290800  0.58410100  1
  Ir  Ir111  1  0.25097500  0.39225400  0.57589900  1
  Ir  Ir112  1  0.60356000  0.43365200  0.51972900  1
  Ir  Ir113  1  0.12633100  0.56151000  0.54027100  1
  Ir  Ir114  1  0.99038900  0.46176500  0.58609200  1
  Ir  Ir115  1  0.63950300  0.83339800  0.57390800  1
  Ir  Ir116  1  0.68629100  0.69303400  0.52712000  1
  Ir  Ir117  1  0.04360100  0.30212800  0.53288000  1
  Ir  Ir118  1  0.96690900  0.50674200  0.69028000  1
  Ir  Ir119  1  0.46298300  0.38842000  0.66972000  1
  Ir  Ir120  1  0.44385400  0.48272100  0.61520400  1
  Ir  Ir121  1  0.08603700  0.11244100  0.64479600  1
  Ir  Ir122  1  0.03613500  0.26214900  0.69469800  1
  Ir  Ir123  1  0.39375700  0.63301400  0.66530200  1
  Ir  Ir124  1  0.76494600  0.79758100  0.63000000  1
  Ir  Ir125  1  0.27891700  0.20290800  0.68410100  1
  Ir  Ir126  1  0.15097500  0.69225400  0.67589900  1
  Ir  Ir127  1  0.50356000  0.73365200  0.61972900  1
  Ir  Ir128  1  0.02633100  0.86151000  0.64027100  1
  Ir  Ir129  1  0.89038900  0.76176500  0.68609200  1
  Ir  Ir130  1  0.53950300  0.13339800  0.67390800  1
  Ir  Ir131  1  0.58629100  0.99303400  0.62712000  1
  Ir  Ir132  1  0.94360100  0.60212800  0.63288000  1
  Ir  Ir133  1  0.34385400  0.78272100  0.71520400  1
  Ir  Ir134  1  0.98603700  0.41244100  0.74479600  1
  Ir  Ir135  1  0.66494600  0.09758100  0.73000000  1
  Ir  Ir136  1  0.40356000  0.03365200  0.71972900  1
  Ir  Ir137  1  0.92633100  0.16151000  0.74027100  1
  Ir  Ir138  1  0.48629100  0.29303400  0.72712000  1
  Ir  Ir139  1  0.84360100  0.90212800  0.73288000  1
