# generated using pymatgen
data_La14Mg3
_symmetry_space_group_name_H-M   'P 1'
_cell_length_a   3.76223900
_cell_length_b   3.76223900
_cell_length_c   73.88194800
_cell_angle_alpha   90.00000000
_cell_angle_beta   90.00000000
_cell_angle_gamma   90.00000000
_symmetry_Int_Tables_number   1
_chemical_formula_structural   La14Mg3
_chemical_formula_sum   'La14 Mg3'
_cell_volume   1045.75776947
_cell_formula_units_Z   1
loop_
 _symmetry_equiv_pos_site_id
 _symmetry_equiv_pos_as_xyz
  1  'x, y, z'
loop_
 _atom_site_type_symbol
 _atom_site_label
 _atom_site_symmetry_multiplicity
 _atom_site_fract_x
 _atom_site_fract_y
 _atom_site_fract_z
 _atom_site_occupancy
  La  La0  1  0.50000000  0.50000000  0.48001100  1
  La  La1  1  0.00000000  0.00000000  0.18224500  1
  La  La2  1  0.50000000  0.50000000  0.21775500  1
  La  La3  1  0.00000000  0.00000000  0.25332200  1
  La  La4  1  0.00000000  0.00000000  0.31334500  1
  La  La5  1  0.50000000  0.50000000  0.34891100  1
  La  La6  1  0.00000000  0.00000000  0.38442200  1
  La  La7  1  0.50000000  0.50000000  0.41998900  1
  La  La8  1  0.00000000  0.00000000  0.51557800  1
  La  La9  1  0.50000000  0.50000000  0.55108900  1
  La  La10  1  0.00000000  0.00000000  0.58665500  1
  La  La11  1  0.00000000  0.00000000  0.64667800  1
  La  La12  1  0.50000000  0.50000000  0.68224500  1
  La  La13  1  0.00000000  0.00000000  0.71775500  1
  Mg  Mg14  1  0.00000000  0.00000000  0.45000000  1
  Mg  Mg15  1  0.50000000  0.50000000  0.28333300  1
  Mg  Mg16  1  0.50000000  0.50000000  0.61666700  1
