# generated using pymatgen
data_Mg25Ir37
_symmetry_space_group_name_H-M   'P 1'
_cell_length_a   8.54477469
_cell_length_b   9.72091536
_cell_length_c   40.45091800
_cell_angle_alpha   92.27818184
_cell_angle_beta   91.63073542
_cell_angle_gamma   96.80090534
_symmetry_Int_Tables_number   1
_chemical_formula_structural   Mg25Ir37
_chemical_formula_sum   'Mg50 Ir74'
_cell_volume   3331.83388964
_cell_formula_units_Z   2
loop_
 _symmetry_equiv_pos_site_id
 _symmetry_equiv_pos_as_xyz
  1  'x, y, z'
loop_
 _atom_site_type_symbol
 _atom_site_label
 _atom_site_symmetry_multiplicity
 _atom_site_fract_x
 _atom_site_fract_y
 _atom_site_fract_z
 _atom_site_occupancy
  Mg  Mg0  1  0.91533800  0.28711700  0.77998300  1
  Mg  Mg1  1  0.08466200  0.46262500  0.72501700  1
  Mg  Mg2  1  0.61669600  0.77255800  0.74567900  1
  Mg  Mg3  1  0.38330400  0.97718400  0.75932100  1
  Mg  Mg4  1  0.55549200  0.26719600  0.77865500  1
  Mg  Mg5  1  0.44450800  0.48254600  0.72634500  1
  Mg  Mg6  1  0.99788700  0.02055900  0.76221300  1
  Mg  Mg7  1  0.00211300  0.72918300  0.74278700  1
  Mg  Mg8  1  0.81855800  0.77293600  0.81237100  1
  Mg  Mg9  1  0.18144200  0.97680600  0.69262900  1
  Mg  Mg10  1  0.91533800  0.41211700  0.65498300  1
  Mg  Mg11  1  0.08466200  0.58762500  0.60001700  1
  Mg  Mg12  1  0.61669600  0.89755800  0.62067900  1
  Mg  Mg13  1  0.38330400  0.10218400  0.63432100  1
  Mg  Mg14  1  0.55549200  0.39219600  0.65365500  1
  Mg  Mg15  1  0.44450800  0.60754600  0.60134500  1
  Mg  Mg16  1  0.99788700  0.14555900  0.63721300  1
  Mg  Mg17  1  0.00211300  0.85418300  0.61778700  1
  Mg  Mg18  1  0.81855800  0.89793600  0.68737100  1
  Mg  Mg19  1  0.18144200  0.10180600  0.56762900  1
  Mg  Mg20  1  0.91533800  0.53711700  0.52998300  1
  Mg  Mg21  1  0.08466200  0.71262500  0.47501700  1
  Mg  Mg22  1  0.61669600  0.02255800  0.49567900  1
  Mg  Mg23  1  0.38330400  0.22718400  0.50932100  1
  Mg  Mg24  1  0.55549200  0.51719600  0.52865500  1
  Mg  Mg25  1  0.44450800  0.73254600  0.47634500  1
  Mg  Mg26  1  0.99788700  0.27055900  0.51221300  1
  Mg  Mg27  1  0.00211300  0.97918300  0.49278700  1
  Mg  Mg28  1  0.81855800  0.02293600  0.56237100  1
  Mg  Mg29  1  0.18144200  0.22680600  0.44262900  1
  Mg  Mg30  1  0.91533800  0.66211700  0.40498300  1
  Mg  Mg31  1  0.08466200  0.83762500  0.35001700  1
  Mg  Mg32  1  0.61669600  0.14755800  0.37067900  1
  Mg  Mg33  1  0.38330400  0.35218400  0.38432100  1
  Mg  Mg34  1  0.55549200  0.64219600  0.40365500  1
  Mg  Mg35  1  0.44450800  0.85754600  0.35134500  1
  Mg  Mg36  1  0.99788700  0.39555900  0.38721300  1
  Mg  Mg37  1  0.00211300  0.10418300  0.36778700  1
  Mg  Mg38  1  0.81855800  0.14793600  0.43737100  1
  Mg  Mg39  1  0.18144200  0.35180600  0.31762900  1
  Mg  Mg40  1  0.91533800  0.78711700  0.27998300  1
  Mg  Mg41  1  0.08466200  0.96262500  0.22501700  1
  Mg  Mg42  1  0.61669600  0.27255800  0.24567900  1
  Mg  Mg43  1  0.38330400  0.47718400  0.25932100  1
  Mg  Mg44  1  0.55549200  0.76719600  0.27865500  1
  Mg  Mg45  1  0.44450800  0.98254600  0.22634500  1
  Mg  Mg46  1  0.99788700  0.52055900  0.26221300  1
  Mg  Mg47  1  0.00211300  0.22918300  0.24278700  1
  Mg  Mg48  1  0.81855800  0.27293600  0.31237100  1
  Mg  Mg49  1  0.18144200  0.47680600  0.19262900  1
  Ir  Ir50  1  0.97167900  0.18322400  0.70639000  1
  Ir  Ir51  1  0.02832100  0.56651800  0.79861000  1
  Ir  Ir52  1  0.77047200  0.52878800  0.76269600  1
  Ir  Ir53  1  0.22952800  0.22095400  0.74230400  1
  Ir  Ir54  1  0.22952800  0.15857600  0.80468200  1
  Ir  Ir55  1  0.77047200  0.59116600  0.70031800  1
  Ir  Ir56  1  0.50000000  0.93737100  0.69000000  1
  Ir  Ir57  1  0.25697700  0.40743900  0.78800500  1
  Ir  Ir58  1  0.74302300  0.34230300  0.71699500  1
  Ir  Ir59  1  0.53311500  0.55769300  0.79802100  1
  Ir  Ir60  1  0.46688500  0.19204900  0.70697900  1
  Ir  Ir61  1  0.70409300  0.07430300  0.73460400  1
  Ir  Ir62  1  0.29590700  0.67543900  0.77039600  1
  Ir  Ir63  1  0.29590700  0.73392400  0.71191200  1
  Ir  Ir64  1  0.70409300  0.01581800  0.79308800  1
  Ir  Ir65  1  0.97167900  0.30822400  0.58139000  1
  Ir  Ir66  1  0.02832100  0.69151800  0.67361000  1
  Ir  Ir67  1  0.77047200  0.65378800  0.63769600  1
  Ir  Ir68  1  0.22952800  0.34595400  0.61730400  1
  Ir  Ir69  1  0.22952800  0.28357600  0.67968200  1
  Ir  Ir70  1  0.77047200  0.71616600  0.57531800  1
  Ir  Ir71  1  0.50000000  0.06237100  0.56500000  1
  Ir  Ir72  1  0.25697700  0.53243900  0.66300500  1
  Ir  Ir73  1  0.74302300  0.46730300  0.59199500  1
  Ir  Ir74  1  0.53311500  0.68269300  0.67302100  1
  Ir  Ir75  1  0.46688500  0.31704900  0.58197900  1
  Ir  Ir76  1  0.70409300  0.19930300  0.60960400  1
  Ir  Ir77  1  0.29590700  0.80043900  0.64539600  1
  Ir  Ir78  1  0.29590700  0.85892400  0.58691200  1
  Ir  Ir79  1  0.70409300  0.14081800  0.66808800  1
  Ir  Ir80  1  0.97167900  0.43322400  0.45639000  1
  Ir  Ir81  1  0.02832100  0.81651800  0.54861000  1
  Ir  Ir82  1  0.77047200  0.77878800  0.51269600  1
  Ir  Ir83  1  0.22952800  0.47095400  0.49230400  1
  Ir  Ir84  1  0.22952800  0.40857600  0.55468200  1
  Ir  Ir85  1  0.77047200  0.84116600  0.45031800  1
  Ir  Ir86  1  0.50000000  0.18737100  0.44000000  1
  Ir  Ir87  1  0.25697700  0.65743900  0.53800500  1
  Ir  Ir88  1  0.74302300  0.59230300  0.46699500  1
  Ir  Ir89  1  0.53311500  0.80769300  0.54802100  1
  Ir  Ir90  1  0.46688500  0.44204900  0.45697900  1
  Ir  Ir91  1  0.70409300  0.32430300  0.48460400  1
  Ir  Ir92  1  0.29590700  0.92543900  0.52039600  1
  Ir  Ir93  1  0.29590700  0.98392400  0.46191200  1
  Ir  Ir94  1  0.70409300  0.26581800  0.54308800  1
  Ir  Ir95  1  0.97167900  0.55822400  0.33139000  1
  Ir  Ir96  1  0.02832100  0.94151800  0.42361000  1
  Ir  Ir97  1  0.77047200  0.90378800  0.38769600  1
  Ir  Ir98  1  0.22952800  0.59595400  0.36730400  1
  Ir  Ir99  1  0.22952800  0.53357600  0.42968200  1
  Ir  Ir100  1  0.77047200  0.96616600  0.32531800  1
  Ir  Ir101  1  0.50000000  0.31237100  0.31500000  1
  Ir  Ir102  1  0.25697700  0.78243900  0.41300500  1
  Ir  Ir103  1  0.74302300  0.71730300  0.34199500  1
  Ir  Ir104  1  0.53311500  0.93269300  0.42302100  1
  Ir  Ir105  1  0.46688500  0.56704900  0.33197900  1
  Ir  Ir106  1  0.70409300  0.44930300  0.35960400  1
  Ir  Ir107  1  0.29590700  0.05043900  0.39539600  1
  Ir  Ir108  1  0.29590700  0.10892400  0.33691200  1
  Ir  Ir109  1  0.70409300  0.39081800  0.41808800  1
  Ir  Ir110  1  0.97167900  0.68322400  0.20639000  1
  Ir  Ir111  1  0.02832100  0.06651800  0.29861000  1
  Ir  Ir112  1  0.77047200  0.02878800  0.26269600  1
  Ir  Ir113  1  0.22952800  0.72095400  0.24230400  1
  Ir  Ir114  1  0.22952800  0.65857600  0.30468200  1
  Ir  Ir115  1  0.77047200  0.09116600  0.20031800  1
  Ir  Ir116  1  0.25697700  0.90743900  0.28800500  1
  Ir  Ir117  1  0.74302300  0.84230300  0.21699500  1
  Ir  Ir118  1  0.53311500  0.05769300  0.29802100  1
  Ir  Ir119  1  0.46688500  0.69204900  0.20697900  1
  Ir  Ir120  1  0.70409300  0.57430300  0.23460400  1
  Ir  Ir121  1  0.29590700  0.17543900  0.27039600  1
  Ir  Ir122  1  0.29590700  0.23392400  0.21191200  1
  Ir  Ir123  1  0.70409300  0.51581800  0.29308800  1
