# generated using pymatgen
data_MgZn2
_symmetry_space_group_name_H-M   'P 1'
_cell_length_a   5.07402260
_cell_length_b   13.26606241
_cell_length_c   57.00757700
_cell_angle_alpha   92.18610401
_cell_angle_beta   87.66012493
_cell_angle_gamma   100.62858194
_symmetry_Int_Tables_number   1
_chemical_formula_structural   MgZn2
_chemical_formula_sum   'Mg32 Zn64'
_cell_volume   3766.49990850
_cell_formula_units_Z   32
loop_
 _symmetry_equiv_pos_site_id
 _symmetry_equiv_pos_as_xyz
  1  'x, y, z'
loop_
 _atom_site_type_symbol
 _atom_site_label
 _atom_site_symmetry_multiplicity
 _atom_site_fract_x
 _atom_site_fract_y
 _atom_site_fract_z
 _atom_site_occupancy
  Mg  Mg0  1  0.18021300  0.55341700  0.44313700  1
  Mg  Mg1  1  0.38971300  0.92024500  0.39653800  1
  Mg  Mg2  1  0.74163700  0.55106600  0.30626100  1
  Mg  Mg3  1  0.73010600  0.67413500  0.45728600  1
  Mg  Mg4  1  0.86274400  0.84814700  0.36872100  1
  Mg  Mg5  1  0.05562300  0.34410500  0.47519500  1
  Mg  Mg6  1  0.74613200  0.60376600  0.36231800  1
  Mg  Mg7  1  0.82862700  0.88459800  0.47907700  1
  Mg  Mg8  1  0.18282200  0.50368400  0.38722800  1
  Mg  Mg9  1  0.94598900  0.96058600  0.31764300  1
  Mg  Mg10  1  0.06709600  0.25766700  0.38010300  1
  Mg  Mg11  1  0.62591100  0.30504900  0.29913600  1
  Mg  Mg12  1  0.31134400  0.81674800  0.44441000  1
  Mg  Mg13  1  0.30767500  0.64817100  0.28097500  1
  Mg  Mg14  1  0.50105800  0.16056300  0.40538900  1
  Mg  Mg15  1  0.06260100  0.20496700  0.32404600  1
  Mg  Mg16  1  0.37852000  0.00531600  0.49322700  1
  Mg  Mg17  1  0.50311000  0.21462800  0.46116800  1
  Mg  Mg18  1  0.41902000  0.88848900  0.28982600  1
  Mg  Mg19  1  0.24738900  0.74198600  0.49195400  1
  Mg  Mg20  1  0.13971300  0.67024500  0.64653800  1
  Mg  Mg21  1  0.49163700  0.30106600  0.55626100  1
  Mg  Mg22  1  0.61274400  0.59814700  0.61872100  1
  Mg  Mg23  1  0.49613200  0.35376600  0.61231800  1
  Mg  Mg24  1  0.93282200  0.25368400  0.63722800  1
  Mg  Mg25  1  0.69598900  0.71058600  0.56764300  1
  Mg  Mg26  1  0.81709600  0.00766700  0.63010300  1
  Mg  Mg27  1  0.37591100  0.05504900  0.54913600  1
  Mg  Mg28  1  0.05767500  0.39817100  0.53097500  1
  Mg  Mg29  1  0.25105800  0.91056300  0.65538900  1
  Mg  Mg30  1  0.81260100  0.95496700  0.57404600  1
  Mg  Mg31  1  0.16902000  0.63848900  0.53982600  1
  Zn  Zn32  1  0.30999800  0.73049900  0.36625400  1
  Zn  Zn33  1  0.84362800  0.86077700  0.42252900  1
  Zn  Zn34  1  0.61693500  0.37724200  0.38389500  1
  Zn  Zn35  1  0.29026200  0.11202100  0.28025900  1
  Zn  Zn36  1  0.72930100  0.06374100  0.36237300  1
  Zn  Zn37  1  0.02438200  0.70111000  0.40579900  1
  Zn  Zn38  1  0.90436700  0.40436700  0.34318200  1
  Zn  Zn39  1  0.49873500  0.07823400  0.32010900  1
  Zn  Zn40  1  0.00031700  0.18860700  0.43390800  1
  Zn  Zn41  1  0.58568200  0.74464400  0.32396300  1
  Zn  Zn42  1  0.84209300  0.35412100  0.42430100  1
  Zn  Zn43  1  0.61884900  0.44738000  0.45898100  1
  Zn  Zn44  1  0.24382200  0.57570800  0.33478200  1
  Zn  Zn45  1  0.86136100  0.77128000  0.28508800  1
  Zn  Zn46  1  0.96510500  0.94795600  0.26383500  1
  Zn  Zn47  1  0.80841600  0.62012600  0.25245500  1
  Zn  Zn48  1  0.38944800  0.54274900  0.49309600  1
  Zn  Zn49  1  0.22305100  0.06408900  0.36240100  1
  Zn  Zn50  1  0.78435100  0.10762300  0.28056500  1
  Zn  Zn51  1  0.56491100  0.23302500  0.35158200  1
  Zn  Zn52  1  0.16928500  0.01598400  0.44326800  1
  Zn  Zn53  1  0.07943200  0.74499200  0.32399100  1
  Zn  Zn54  1  0.40436700  0.40436700  0.34318200  1
  Zn  Zn55  1  0.68734500  0.53035700  0.41431600  1
  Zn  Zn56  1  0.33714600  0.35248400  0.42443200  1
  Zn  Zn57  1  0.90462300  0.54584500  0.49264100  1
  Zn  Zn58  1  0.12138800  0.27837600  0.27204700  1
  Zn  Zn59  1  0.65411100  0.01288800  0.44372200  1
  Zn  Zn60  1  0.94737200  0.03745300  0.40127600  1
  Zn  Zn61  1  0.47158700  0.45624900  0.26193100  1
  Zn  Zn62  1  0.51847100  0.69671200  0.40610400  1
  Zn  Zn63  1  0.40436700  0.90436700  0.34318200  1
  Zn  Zn64  1  0.96664000  0.45461200  0.26206300  1
  Zn  Zn65  1  0.93988400  0.11135300  0.47738300  1
  Zn  Zn66  1  0.19179800  0.43149100  0.30246900  1
  Zn  Zn67  1  0.05999800  0.48049900  0.61625400  1
  Zn  Zn68  1  0.59362800  0.61077700  0.67252900  1
  Zn  Zn69  1  0.36693500  0.12724200  0.63389500  1
  Zn  Zn70  1  0.04026200  0.86202100  0.53025900  1
  Zn  Zn71  1  0.47930100  0.81374100  0.61237300  1
  Zn  Zn72  1  0.77438200  0.45111000  0.65579900  1
  Zn  Zn73  1  0.65436700  0.15436700  0.59318200  1
  Zn  Zn74  1  0.24873500  0.82823400  0.57010900  1
  Zn  Zn75  1  0.75031700  0.93860700  0.68390800  1
  Zn  Zn76  1  0.33568200  0.49464400  0.57396300  1
  Zn  Zn77  1  0.59209300  0.10412100  0.67430100  1
  Zn  Zn78  1  0.99382200  0.32570800  0.58478200  1
  Zn  Zn79  1  0.61136100  0.52128000  0.53508800  1
  Zn  Zn80  1  0.71510500  0.69795600  0.51383500  1
  Zn  Zn81  1  0.55841600  0.37012600  0.50245500  1
  Zn  Zn82  1  0.97305100  0.81408900  0.61240100  1
  Zn  Zn83  1  0.53435100  0.85762300  0.53056500  1
  Zn  Zn84  1  0.31491100  0.98302500  0.60158200  1
  Zn  Zn85  1  0.82943200  0.49499200  0.57399100  1
  Zn  Zn86  1  0.15436700  0.15436700  0.59318200  1
  Zn  Zn87  1  0.43734500  0.28035700  0.66431600  1
  Zn  Zn88  1  0.08714600  0.10248400  0.67443200  1
  Zn  Zn89  1  0.87138800  0.02837600  0.52204700  1
  Zn  Zn90  1  0.69737200  0.78745300  0.65127600  1
  Zn  Zn91  1  0.22158700  0.20624900  0.51193100  1
  Zn  Zn92  1  0.26847100  0.44671200  0.65610400  1
  Zn  Zn93  1  0.15436700  0.65436700  0.59318200  1
  Zn  Zn94  1  0.71664000  0.20461200  0.51206300  1
  Zn  Zn95  1  0.94179800  0.18149100  0.55246900  1
