# generated using pymatgen
data_Mg9Cd16
_symmetry_space_group_name_H-M   'P 1'
_cell_length_a   5.22123900
_cell_length_b   8.35399632
_cell_length_c   42.70485800
_cell_angle_alpha   90.37435949
_cell_angle_beta   90.00000000
_cell_angle_gamma   90.00000000
_symmetry_Int_Tables_number   1
_chemical_formula_structural   Mg9Cd16
_chemical_formula_sum   'Mg18 Cd32'
_cell_volume   1862.66976329
_cell_formula_units_Z   2
loop_
 _symmetry_equiv_pos_site_id
 _symmetry_equiv_pos_as_xyz
  1  'x, y, z'
loop_
 _atom_site_type_symbol
 _atom_site_label
 _atom_site_symmetry_multiplicity
 _atom_site_fract_x
 _atom_site_fract_y
 _atom_site_fract_z
 _atom_site_occupancy
  Mg  Mg0  1  0.25000000  0.97322100  0.75407800  1
  Mg  Mg1  1  0.75000000  0.55058800  0.76973100  1
  Mg  Mg2  1  0.25000000  0.90179200  0.68265000  1
  Mg  Mg3  1  0.75000000  0.47916000  0.69830300  1
  Mg  Mg4  1  0.25000000  0.83036400  0.61122100  1
  Mg  Mg5  1  0.75000000  0.40773100  0.62687400  1
  Mg  Mg6  1  0.25000000  0.75893500  0.53979300  1
  Mg  Mg7  1  0.75000000  0.33630300  0.55544600  1
  Mg  Mg8  1  0.25000000  0.68750700  0.46836400  1
  Mg  Mg9  1  0.75000000  0.26487400  0.48401700  1
  Mg  Mg10  1  0.25000000  0.61607800  0.39693500  1
  Mg  Mg11  1  0.75000000  0.19344600  0.41258800  1
  Mg  Mg12  1  0.25000000  0.54465000  0.32550700  1
  Mg  Mg13  1  0.75000000  0.12201700  0.34116000  1
  Mg  Mg14  1  0.25000000  0.47322100  0.25407800  1
  Mg  Mg15  1  0.75000000  0.05058800  0.26973100  1
  Mg  Mg16  1  0.25000000  0.40179200  0.18265000  1
  Mg  Mg17  1  0.75000000  0.97916000  0.19830300  1
  Cd  Cd18  1  0.25000000  0.61717500  0.73022800  1
  Cd  Cd19  1  0.25000000  0.25903800  0.70645500  1
  Cd  Cd20  1  0.75000000  0.19334300  0.74592600  1
  Cd  Cd21  1  0.75000000  0.83520600  0.72215300  1
  Cd  Cd22  1  0.25000000  0.54574600  0.65880000  1
  Cd  Cd23  1  0.25000000  0.18760900  0.63502700  1
  Cd  Cd24  1  0.75000000  0.12191500  0.67449700  1
  Cd  Cd25  1  0.75000000  0.76377700  0.65072400  1
  Cd  Cd26  1  0.25000000  0.47431800  0.58737100  1
  Cd  Cd27  1  0.25000000  0.11618000  0.56359800  1
  Cd  Cd28  1  0.75000000  0.05048600  0.60306800  1
  Cd  Cd29  1  0.75000000  0.69234900  0.57929600  1
  Cd  Cd30  1  0.25000000  0.40288900  0.51594200  1
  Cd  Cd31  1  0.25000000  0.04475200  0.49217000  1
  Cd  Cd32  1  0.75000000  0.97905800  0.53164000  1
  Cd  Cd33  1  0.75000000  0.62092000  0.50786700  1
  Cd  Cd34  1  0.25000000  0.33146100  0.44451400  1
  Cd  Cd35  1  0.25000000  0.97332300  0.42074100  1
  Cd  Cd36  1  0.75000000  0.90762900  0.46021100  1
  Cd  Cd37  1  0.75000000  0.54949200  0.43643900  1
  Cd  Cd38  1  0.25000000  0.26003200  0.37308500  1
  Cd  Cd39  1  0.25000000  0.90189500  0.34931300  1
  Cd  Cd40  1  0.75000000  0.83620100  0.38878300  1
  Cd  Cd41  1  0.75000000  0.47806300  0.36501000  1
  Cd  Cd42  1  0.25000000  0.18860400  0.30165700  1
  Cd  Cd43  1  0.25000000  0.83046600  0.27788400  1
  Cd  Cd44  1  0.75000000  0.76477200  0.31735400  1
  Cd  Cd45  1  0.75000000  0.40663500  0.29358100  1
  Cd  Cd46  1  0.25000000  0.11717500  0.23022800  1
  Cd  Cd47  1  0.25000000  0.75903800  0.20645500  1
  Cd  Cd48  1  0.75000000  0.69334300  0.24592600  1
  Cd  Cd49  1  0.75000000  0.33520600  0.22215300  1
