# generated using pymatgen
data_Mg19Au56
_symmetry_space_group_name_H-M   'P 1'
_cell_length_a   9.58286600
_cell_length_b   10.43041211
_cell_length_c   46.00314700
_cell_angle_alpha   94.13499482
_cell_angle_beta   90.00000000
_cell_angle_gamma   90.00000000
_symmetry_Int_Tables_number   1
_chemical_formula_structural   Mg19Au56
_chemical_formula_sum   'Mg38 Au112'
_cell_volume   4586.19431584
_cell_formula_units_Z   2
loop_
 _symmetry_equiv_pos_site_id
 _symmetry_equiv_pos_as_xyz
  1  'x, y, z'
loop_
 _atom_site_type_symbol
 _atom_site_label
 _atom_site_symmetry_multiplicity
 _atom_site_fract_x
 _atom_site_fract_y
 _atom_site_fract_z
 _atom_site_occupancy
  Mg  Mg0  1  0.49920200  0.12378600  0.74595200  1
  Mg  Mg1  1  0.50079800  0.65929700  0.71498600  1
  Mg  Mg2  1  0.99920200  0.65929700  0.71498600  1
  Mg  Mg3  1  0.00079800  0.12378600  0.74595200  1
  Mg  Mg4  1  0.25000000  0.34824400  0.69424900  1
  Mg  Mg5  1  0.75000000  0.43483900  0.76668900  1
  Mg  Mg6  1  0.49920200  0.24878600  0.62095200  1
  Mg  Mg7  1  0.50079800  0.78429700  0.58998600  1
  Mg  Mg8  1  0.99920200  0.78429700  0.58998600  1
  Mg  Mg9  1  0.00079800  0.24878600  0.62095200  1
  Mg  Mg10  1  0.25000000  0.88417800  0.66331100  1
  Mg  Mg11  1  0.75000000  0.02390500  0.67262600  1
  Mg  Mg12  1  0.25000000  0.47324400  0.56924900  1
  Mg  Mg13  1  0.75000000  0.55983900  0.64168900  1
  Mg  Mg14  1  0.49920200  0.37378600  0.49595200  1
  Mg  Mg15  1  0.50079800  0.90929700  0.46498600  1
  Mg  Mg16  1  0.99920200  0.90929700  0.46498600  1
  Mg  Mg17  1  0.00079800  0.37378600  0.49595200  1
  Mg  Mg18  1  0.25000000  0.00917800  0.53831100  1
  Mg  Mg19  1  0.75000000  0.14890500  0.54762600  1
  Mg  Mg20  1  0.25000000  0.59824400  0.44424900  1
  Mg  Mg21  1  0.75000000  0.68483900  0.51668900  1
  Mg  Mg22  1  0.49920200  0.49878600  0.37095200  1
  Mg  Mg23  1  0.50079800  0.03429700  0.33998600  1
  Mg  Mg24  1  0.99920200  0.03429700  0.33998600  1
  Mg  Mg25  1  0.00079800  0.49878600  0.37095200  1
  Mg  Mg26  1  0.25000000  0.13417800  0.41331100  1
  Mg  Mg27  1  0.75000000  0.27390500  0.42262600  1
  Mg  Mg28  1  0.25000000  0.72324400  0.31924900  1
  Mg  Mg29  1  0.75000000  0.80983900  0.39168900  1
  Mg  Mg30  1  0.49920200  0.62378600  0.24595200  1
  Mg  Mg31  1  0.50079800  0.15929700  0.21498600  1
  Mg  Mg32  1  0.99920200  0.15929700  0.21498600  1
  Mg  Mg33  1  0.00079800  0.62378600  0.24595200  1
  Mg  Mg34  1  0.25000000  0.25917800  0.28831100  1
  Mg  Mg35  1  0.75000000  0.39890500  0.29762600  1
  Mg  Mg36  1  0.25000000  0.84824400  0.19424900  1
  Mg  Mg37  1  0.75000000  0.93483900  0.26668900  1
  Au  Au38  1  0.00000000  0.86015100  0.76185900  1
  Au  Au39  1  0.50000000  0.92293200  0.69907900  1
  Au  Au40  1  0.00000000  0.92293200  0.69907900  1
  Au  Au41  1  0.50000000  0.86015100  0.76185900  1
  Au  Au42  1  0.25000000  0.55444000  0.74105600  1
  Au  Au43  1  0.75000000  0.22864300  0.71988100  1
  Au  Au44  1  0.75000000  0.69709600  0.75089900  1
  Au  Au45  1  0.25000000  0.02337500  0.77265100  1
  Au  Au46  1  0.25000000  0.08598700  0.71003900  1
  Au  Au47  1  0.75000000  0.75970800  0.68828700  1
  Au  Au48  1  0.50000000  0.39154100  0.73046900  1
  Au  Au49  1  0.00000000  0.39154100  0.73046900  1
  Au  Au50  1  0.25000000  0.28862100  0.75694100  1
  Au  Au51  1  0.75000000  0.49446200  0.70399700  1
  Au  Au52  1  0.25000000  0.81544500  0.72539600  1
  Au  Au53  1  0.75000000  0.96763700  0.73554200  1
  Au  Au54  1  0.00000000  0.98515100  0.63685900  1
  Au  Au55  1  0.50000000  0.04793200  0.57407900  1
  Au  Au56  1  0.00000000  0.04793200  0.57407900  1
  Au  Au57  1  0.50000000  0.98515100  0.63685900  1
  Au  Au58  1  0.00054900  0.71772000  0.65221400  1
  Au  Au59  1  0.99945100  0.19036300  0.68372400  1
  Au  Au60  1  0.50054900  0.19036300  0.68372400  1
  Au  Au61  1  0.49945100  0.71772000  0.65221400  1
  Au  Au62  1  0.75000000  0.29165400  0.65687100  1
  Au  Au63  1  0.25000000  0.67944000  0.61605600  1
  Au  Au64  1  0.25000000  0.61642900  0.67906700  1
  Au  Au65  1  0.75000000  0.35364300  0.59488100  1
  Au  Au66  1  0.75000000  0.82209600  0.62589900  1
  Au  Au67  1  0.25000000  0.14837500  0.64765100  1
  Au  Au68  1  0.25000000  0.21098700  0.58503900  1
  Au  Au69  1  0.75000000  0.88470800  0.56328700  1
  Au  Au70  1  0.50000000  0.51654100  0.60546900  1
  Au  Au71  1  0.50000000  0.45404100  0.66796900  1
  Au  Au72  1  0.00000000  0.51654100  0.60546900  1
  Au  Au73  1  0.00000000  0.45404100  0.66796900  1
  Au  Au74  1  0.25000000  0.41362100  0.63194100  1
  Au  Au75  1  0.75000000  0.61946200  0.57899700  1
  Au  Au76  1  0.25000000  0.94044500  0.60039600  1
  Au  Au77  1  0.75000000  0.09263700  0.61054200  1
  Au  Au78  1  0.00000000  0.11015100  0.51185900  1
  Au  Au79  1  0.50000000  0.17293200  0.44907900  1
  Au  Au80  1  0.00000000  0.17293200  0.44907900  1
  Au  Au81  1  0.50000000  0.11015100  0.51185900  1
  Au  Au82  1  0.00054900  0.84272000  0.52721400  1
  Au  Au83  1  0.99945100  0.31536300  0.55872400  1
  Au  Au84  1  0.50054900  0.31536300  0.55872400  1
  Au  Au85  1  0.49945100  0.84272000  0.52721400  1
  Au  Au86  1  0.75000000  0.41665400  0.53187100  1
  Au  Au87  1  0.25000000  0.80444000  0.49105600  1
  Au  Au88  1  0.25000000  0.74142900  0.55406700  1
  Au  Au89  1  0.75000000  0.47864300  0.46988100  1
  Au  Au90  1  0.75000000  0.94709600  0.50089900  1
  Au  Au91  1  0.25000000  0.27337500  0.52265100  1
  Au  Au92  1  0.25000000  0.33598700  0.46003900  1
  Au  Au93  1  0.75000000  0.00970800  0.43828700  1
  Au  Au94  1  0.50000000  0.64154100  0.48046900  1
  Au  Au95  1  0.50000000  0.57904100  0.54296900  1
  Au  Au96  1  0.00000000  0.64154100  0.48046900  1
  Au  Au97  1  0.00000000  0.57904100  0.54296900  1
  Au  Au98  1  0.25000000  0.53862100  0.50694100  1
  Au  Au99  1  0.75000000  0.74446200  0.45399700  1
  Au  Au100  1  0.25000000  0.06544500  0.47539600  1
  Au  Au101  1  0.75000000  0.21763700  0.48554200  1
  Au  Au102  1  0.00000000  0.23515100  0.38685900  1
  Au  Au103  1  0.50000000  0.29793200  0.32407900  1
  Au  Au104  1  0.00000000  0.29793200  0.32407900  1
  Au  Au105  1  0.50000000  0.23515100  0.38685900  1
  Au  Au106  1  0.00054900  0.96772000  0.40221400  1
  Au  Au107  1  0.99945100  0.44036300  0.43372400  1
  Au  Au108  1  0.50054900  0.44036300  0.43372400  1
  Au  Au109  1  0.49945100  0.96772000  0.40221400  1
  Au  Au110  1  0.75000000  0.54165400  0.40687100  1
  Au  Au111  1  0.25000000  0.92944000  0.36605600  1
  Au  Au112  1  0.25000000  0.86642900  0.42906700  1
  Au  Au113  1  0.75000000  0.60364300  0.34488100  1
  Au  Au114  1  0.75000000  0.07209600  0.37589900  1
  Au  Au115  1  0.25000000  0.39837500  0.39765100  1
  Au  Au116  1  0.25000000  0.46098700  0.33503900  1
  Au  Au117  1  0.75000000  0.13470800  0.31328700  1
  Au  Au118  1  0.50000000  0.76654100  0.35546900  1
  Au  Au119  1  0.50000000  0.70404100  0.41796900  1
  Au  Au120  1  0.00000000  0.76654100  0.35546900  1
  Au  Au121  1  0.00000000  0.70404100  0.41796900  1
  Au  Au122  1  0.25000000  0.66362100  0.38194100  1
  Au  Au123  1  0.75000000  0.86946200  0.32899700  1
  Au  Au124  1  0.25000000  0.19044500  0.35039600  1
  Au  Au125  1  0.75000000  0.34263700  0.36054200  1
  Au  Au126  1  0.00000000  0.36015100  0.26185900  1
  Au  Au127  1  0.50000000  0.42293200  0.19907900  1
  Au  Au128  1  0.00000000  0.42293200  0.19907900  1
  Au  Au129  1  0.50000000  0.36015100  0.26185900  1
  Au  Au130  1  0.00054900  0.09272000  0.27721400  1
  Au  Au131  1  0.99945100  0.56536300  0.30872400  1
  Au  Au132  1  0.50054900  0.56536300  0.30872400  1
  Au  Au133  1  0.49945100  0.09272000  0.27721400  1
  Au  Au134  1  0.75000000  0.66665400  0.28187100  1
  Au  Au135  1  0.25000000  0.05444000  0.24105600  1
  Au  Au136  1  0.25000000  0.99142900  0.30406700  1
  Au  Au137  1  0.75000000  0.72864300  0.21988100  1
  Au  Au138  1  0.75000000  0.19709600  0.25089900  1
  Au  Au139  1  0.25000000  0.52337500  0.27265100  1
  Au  Au140  1  0.25000000  0.58598700  0.21003900  1
  Au  Au141  1  0.75000000  0.25970800  0.18828700  1
  Au  Au142  1  0.50000000  0.89154100  0.23046900  1
  Au  Au143  1  0.50000000  0.82904100  0.29296900  1
  Au  Au144  1  0.00000000  0.89154100  0.23046900  1
  Au  Au145  1  0.00000000  0.82904100  0.29296900  1
  Au  Au146  1  0.25000000  0.78862100  0.25694100  1
  Au  Au147  1  0.75000000  0.99446200  0.20399700  1
  Au  Au148  1  0.25000000  0.31544500  0.22539600  1
  Au  Au149  1  0.75000000  0.46763700  0.23554200  1
